
     RDKit          3D

 11 10  0  0  0  0  0  0  0  0999 V2000
    2.5920    0.1620    2.2030 C   0  0  0  0  0  0  0  0  0  0  0  0
    1.4050   -0.3850    1.6820 O   0  0  0  0  0  0  0  0  0  0  0  0
    1.1370    0.3230    0.5120 C   0  0  0  0  0  0  0  0  0  0  0  0
   -0.1240   -0.1600   -0.1650 C   0  0  1  0  0  0  0  0  0  0  0  0
    0.0260   -1.4890   -0.4830 O   0  0  0  0  0  0  0  0  0  0  0  0
    0.0760   -1.7500   -1.7500 O   0  0  0  0  0  0  0  0  0  0  0  0
   -1.2680    0.1530    0.5130 O   0  0  0  0  0  0  0  0  0  0  0  0
   -2.0890    0.9770   -0.1070 O   0  0  0  0  0  0  0  0  0  0  0  0
   -2.9010    0.4880   -1.1140 C   0  0  0  0  0  0  0  0  0  0  0  0
   -2.8260   -0.7180   -1.3990 O   0  0  0  0  0  0  0  0  0  0  0  0
   -3.7970    1.2690   -1.8260 O   0  0  0  0  0  0  0  0  0  0  0  0
  1  2  1  0
  2  3  1  0
  4  3  1  1
  4  5  1  0
  4  7  1  0
  5  6  1  0
  7  8  1  0
  8  9  1  0
  9 10  2  0
  9 11  1  0
M  END
