
     RDKit          3D

 11 10  0  0  0  0  0  0  0  0999 V2000
   -1.7060    1.4130   -0.2520 O   0  0  0  0  0  0  0  0  0  0  0  0
   -2.0720    0.3190   -0.7570 C   0  0  0  0  0  0  0  0  0  0  0  0
   -3.3850   -0.2540   -0.8230 C   0  0  0  0  0  0  0  0  0  0  0  0
   -4.2840    0.6010   -0.0940 O   0  0  0  0  0  0  0  0  0  0  0  0
   -0.9860   -0.4440   -1.3410 O   0  0  0  0  0  0  0  0  0  0  0  0
    0.2130    0.5220   -1.0250 O   0  0  0  0  0  0  0  0  0  0  0  0
    0.6230   -0.4680   -0.1090 C   0  0  0  0  0  0  0  0  0  0  0  0
    1.6430   -0.0370    0.9140 C   0  0  0  0  0  0  0  0  0  0  0  0
    2.7440    0.4970    0.1990 O   0  0  0  0  0  0  0  0  0  0  0  0
    3.7950   -0.2680    0.6330 O   0  0  0  0  0  0  0  0  0  0  0  0
    4.9650    0.1730    0.2790 O   0  0  0  0  0  0  0  0  0  0  0  0
  1  2  2  0
  2  3  1  0
  2  5  1  0
  3  4  1  0
  5  6  1  0
  6  7  1  0
  7  8  1  0
  8  9  1  0
  9 10  1  0
 10 11  1  0
M  END
