
     RDKit          3D

 13 13  0  0  0  0  0  0  0  0999 V2000
    4.7380    0.4210    0.1890 C   0  0  0  0  0  0  0  0  0  0  0  0
    3.8620   -0.4720   -0.0600 N   0  0  0  0  0  0  0  0  0  0  0  0
    2.4930   -0.3600    0.0430 C   0  0  0  0  0  0  0  0  0  0  0  0
    1.9290    0.1290    1.0790 N   0  0  0  0  0  0  0  0  0  0  0  0
    0.6120    0.2830    1.2780 O   0  0  0  0  0  0  0  0  0  0  0  0
   -0.4320   -0.0320    0.4570 C   0  0  0  0  0  0  0  0  0  0  0  0
   -1.7950    0.2520    0.9440 C   0  0  0  0  0  0  0  0  0  0  0  0
   -1.9700    0.7860    2.1240 C   0  0  0  0  0  0  0  0  0  0  0  0
   -2.8900   -0.0700    0.1010 N   0  0  0  0  0  0  0  0  0  0  0  0
   -3.1800    0.8440   -0.9860 C   0  0  0  0  0  0  0  0  0  0  0  0
   -0.2900   -0.5750   -0.7460 C   0  0  0  0  0  0  0  0  0  0  0  0
    1.4120   -0.9160   -1.3240 P   0  0  0  0  0  0  0  0  0  0  0  0
    1.5760   -2.5960   -1.6520 O   0  0  0  0  0  0  0  0  0  0  0  0
  1  2  2  0
  2  3  1  0
  3  4  2  0
  3 12  1  0
  4  5  1  0
  5  6  1  0
  6  7  1  0
  6 11  2  0
  7  8  2  0
  7  9  1  0
  9 10  1  0
 11 12  1  0
 12 13  1  0
M  END
