
     RDKit          3D

 11 11  0  0  0  0  0  0  0  0999 V2000
    4.5780   -0.0760   -0.8030 O   0  0  0  0  0  0  0  0  0  0  0  0
    3.6290    0.8360   -0.8110 O   0  0  0  0  0  0  0  0  0  0  0  0
    2.6130    0.5070   -0.0430 O   0  0  0  0  0  0  0  0  0  0  0  0
    1.5250    0.7240   -0.7220 O   0  0  0  0  0  0  0  0  0  0  0  0
    0.3710    0.3160   -0.0500 C   0  0  2  0  0  0  0  0  0  0  0  0
   -0.3320   -0.6800   -0.9090 C   0  0  0  0  0  0  0  0  0  0  0  0
   -1.6160   -0.9110   -0.7080 O   0  0  0  0  0  0  0  0  0  0  0  0
   -2.3860   -0.2470    0.1310 C   0  0  0  0  0  0  0  0  0  0  0  0
   -1.8120    0.2550    1.4110 C   0  0  0  0  0  0  0  0  0  0  0  0
   -1.0330    1.3950    1.2600 O   0  0  0  0  0  0  0  0  0  0  0  0
   -0.4260    1.4420    0.0990 O   0  0  0  0  0  0  0  0  0  0  0  0
  1  2  1  0
  2  3  1  0
  3  4  1  0
  5  4  1  6
  5  6  1  0
  5 11  1  0
  6  7  1  0
  7  8  1  0
  8  9  1  0
  9 10  1  0
 10 11  1  0
M  END
