
     RDKit          3D

 11 10  0  0  0  0  0  0  0  0999 V2000
   -1.7100    1.3680   -0.8000 O   0  0  0  0  0  0  0  0  0  0  0  0
   -2.1730    0.3090   -0.3020 C   0  0  0  0  0  0  0  0  0  0  0  0
   -3.5890   -0.0260   -0.6080 C   0  0  0  0  0  0  0  0  0  0  0  0
   -4.1800    0.9200   -1.4200 O   0  0  0  0  0  0  0  0  0  0  0  0
   -1.3520   -0.4540    0.4790 O   0  0  0  0  0  0  0  0  0  0  0  0
   -0.0670   -0.1470    0.7550 O   0  0  0  0  0  0  0  0  0  0  0  0
    0.8130   -0.7400   -0.1440 C   0  0  0  0  0  0  0  0  0  0  0  0
    2.2050   -0.3380    0.2490 C   0  0  0  0  0  0  0  0  0  0  0  0
    3.1800   -0.8690   -0.5760 O   0  0  0  0  0  0  0  0  0  0  0  0
    4.3470   -0.4300   -0.1090 O   0  0  0  0  0  0  0  0  0  0  0  0
    4.3900    0.8730   -0.0320 O   0  0  0  0  0  0  0  0  0  0  0  0
  1  2  2  0
  2  3  1  0
  2  5  1  0
  3  4  1  0
  5  6  1  0
  6  7  1  0
  7  8  1  0
  8  9  1  0
  9 10  1  0
 10 11  1  0
M  END
