
     RDKit          3D

 11 10  0  0  0  0  0  0  0  0999 V2000
    3.4700   -0.6020   -0.5090 C   0  0  0  0  0  0  0  0  0  0  0  0
    2.1180   -0.0840   -0.0170 C   0  0  2  0  0  0  0  0  0  0  0  0
    2.4060    0.9190    0.9370 O   0  0  0  0  0  0  0  0  0  0  0  0
    1.3860   -1.1500    0.5900 N   0  0  0  0  0  0  0  0  0  0  0  0
    0.1400   -1.2300    0.8200 C   0  0  0  0  0  0  0  0  0  0  0  0
   -0.8760   -0.2390    0.5180 C   0  0  0  0  0  0  0  0  0  0  0  0
   -0.5060    0.9730   -0.1030 N   0  0  0  0  0  0  0  0  0  0  0  0
   -2.1320   -0.4520    0.8130 C   0  0  0  0  0  0  0  0  0  0  0  0
   -2.5030   -1.6340    1.4200 O   0  0  0  0  0  0  0  0  0  0  0  0
   -3.1590    0.5570    0.5050 C   0  0  0  0  0  0  0  0  0  0  0  0
   -2.5980    1.6640   -0.0960 O   0  0  0  0  0  0  0  0  0  0  0  0
  2  1  1  1
  2  3  1  0
  2  4  1  0
  4  5  2  3
  5  6  1  0
  6  7  1  0
  6  8  2  3
  8  9  1  0
  8 10  1  0
 10 11  1  0
M  END
