
     RDKit          3D

 11 10  0  0  0  0  0  0  0  0999 V2000
   -2.8350    1.4220    0.6870 C   0  0  0  0  0  0  0  0  0  0  0  0
   -1.9760    0.3480    0.8370 O   0  0  0  0  0  0  0  0  0  0  0  0
   -1.0560    0.2260   -0.1720 C   0  0  2  0  0  0  0  0  0  0  0  0
   -1.1920   -1.1020   -0.8340 C   0  0  0  0  0  0  0  0  0  0  0  0
   -2.1720   -2.0330   -0.4000 N   0  0  0  0  0  0  0  0  0  0  0  0
   -0.4520   -1.4400   -1.7900 O   0  0  0  0  0  0  0  0  0  0  0  0
    0.3030    0.2440    0.4230 C   0  0  0  0  0  0  0  0  0  0  0  0
    0.3990    0.3600    1.6680 O   0  0  0  0  0  0  0  0  0  0  0  0
    1.5020    0.1320   -0.4040 C   0  0  0  0  0  0  0  0  0  0  0  0
    2.6730    0.1530    0.1670 C   0  0  0  0  0  0  0  0  0  0  0  0
    3.8580    0.0420   -0.6430 N   0  0  0  0  0  0  0  0  0  0  0  0
  1  2  1  0
  3  2  1  1
  3  4  1  0
  3  7  1  0
  4  5  1  0
  4  6  2  0
  7  8  2  0
  7  9  1  0
  9 10  2  3
 10 11  1  0
M  CHG  1  11   1
M  END
