
     RDKit          3D

 10  9  0  0  0  0  0  0  0  0999 V2000
    3.5780    0.5410   -0.1630 C   0  0  0  0  0  0  0  0  0  0  0  0
    2.2330    0.0590   -0.3520 N   0  0  0  0  0  0  0  0  0  0  0  0
    1.1770    0.6050    0.4340 C   0  0  0  0  0  0  0  0  0  0  0  0
    1.3650    1.7510    0.9880 N   0  0  0  0  0  0  0  0  0  0  0  0
   -0.0980   -0.1220    0.6090 C   0  0  0  0  0  0  0  0  0  0  0  0
   -0.7650   -0.3540   -0.7470 C   0  0  2  0  0  0  0  0  0  0  0  0
   -1.0040    0.8750   -1.3230 O   0  0  0  0  0  0  0  0  0  0  0  0
   -2.0300   -1.1480   -0.5360 C   0  0  2  0  0  0  0  0  0  0  0  0
   -3.0350   -0.3850    0.2920 C   0  0  0  0  0  0  0  0  0  0  0  0
   -1.7440   -2.3620    0.0390 O   0  0  0  0  0  0  0  0  0  0  0  0
  1  2  1  0
  2  3  1  0
  3  4  2  0
  3  5  1  0
  5  6  1  0
  6  7  1  1
  6  8  1  0
  8  9  1  1
  8 10  1  0
M  CHG  1   4   1
M  END
