
     RDKit          3D

 11 10  0  0  0  0  0  0  0  0999 V2000
    4.0840    0.5850    1.2940 C   0  0  0  0  0  0  0  0  0  0  0  0
    3.2240    0.8450    0.1810 O   0  0  0  0  0  0  0  0  0  0  0  0
    2.0280    0.1310    0.0240 C   0  0  0  0  0  0  0  0  0  0  0  0
    1.7850   -0.7170    0.8990 O   0  0  0  0  0  0  0  0  0  0  0  0
    1.1380    0.3270   -1.0320 N   0  0  0  0  0  0  0  0  0  0  0  0
   -0.1070   -0.3080   -1.2990 C   0  0  0  0  0  0  0  0  0  0  0  0
   -1.2560   -0.1000   -0.3960 C   0  0  1  0  0  0  0  0  0  0  0  0
   -1.6630    1.3750   -0.3250 C   0  0  0  0  0  0  0  0  0  0  0  0
   -2.3600   -0.8740   -1.0460 N   0  0  0  0  0  0  0  0  0  0  0  0
   -1.1870   -0.6310    0.9870 C   0  0  0  0  0  0  0  0  0  0  0  0
   -2.4500   -0.5060    1.6340 O   0  0  0  0  0  0  0  0  0  0  0  0
  1  2  1  0
  2  3  1  0
  3  4  2  0
  3  5  1  0
  5  6  1  0
  6  7  1  0
  7  8  1  1
  7  9  1  0
  7 10  1  0
 10 11  1  0
M  CHG  1   9   1
M  END
