
     RDKit          3D

 14 15  0  0  0  0  0  0  0  0999 V2000
    3.7140    0.8160    0.3150 C   0  0  0  0  0  0  0  0  0  0  0  0
    2.7670    0.0980   -0.6450 C   0  0  1  0  0  0  0  0  0  0  0  0
    2.3840   -1.1700   -0.1100 N   0  0  0  0  0  0  0  0  0  0  0  0
    1.0480   -1.0360    0.3290 C   0  0  0  0  0  0  0  0  0  0  0  0
    0.5570    0.1320   -0.0310 C   0  0  0  0  0  0  0  0  0  0  0  0
   -0.7630    0.7260    0.1870 C   0  0  1  0  0  0  0  0  0  0  0  0
   -1.3500    1.0310   -1.0380 O   0  0  0  0  0  0  0  0  0  0  0  0
   -1.6870   -0.1130    0.9970 C   0  0  2  0  0  0  0  0  0  0  0  0
   -2.2760   -1.2650    0.1720 C   0  0  0  0  0  0  0  0  0  0  0  0
   -3.1200   -0.5070   -0.7570 N   0  0  0  0  0  0  0  0  0  0  0  0
   -3.5080    0.6570   -0.0350 C   0  0  0  0  0  0  0  0  0  0  0  0
   -4.2980    1.5410   -0.5020 O   0  0  0  0  0  0  0  0  0  0  0  0
   -2.8910    0.6440    1.2100 O   0  0  0  0  0  0  0  0  0  0  0  0
    1.5680    0.8100   -0.7260 O   0  0  0  0  0  0  0  0  0  0  0  0
  2  1  1  1
  2  3  1  0
  2 14  1  0
  3  4  1  0
  4  5  2  0
  5  6  1  0
  5 14  1  0
  6  7  1  6
  6  8  1  0
  8  9  1  6
  8 13  1  0
  9 10  1  0
 10 11  1  0
 11 12  2  0
 11 13  1  0
M  END
