
     RDKit          3D

 14 14  0  0  0  0  0  0  0  0999 V2000
   -3.6510    1.8940    0.5410 N   0  0  0  0  0  0  0  0  0  0  0  0
   -2.7200    1.0310   -0.0890 C   0  0  0  0  0  0  0  0  0  0  0  0
   -2.6420    0.9590   -1.3400 O   0  0  0  0  0  0  0  0  0  0  0  0
   -1.8770    0.2490    0.6660 O   0  0  0  0  0  0  0  0  0  0  0  0
   -0.9250   -0.6340    0.1660 C   0  0  2  0  0  0  0  0  0  0  0  0
   -1.1810   -2.0730    0.5460 C   0  0  0  0  0  0  0  0  0  0  0  0
   -2.4030   -2.4860    0.0660 O   0  0  0  0  0  0  0  0  0  0  0  0
    0.4940   -0.2530    0.6130 C   0  0  2  0  0  0  0  0  0  0  0  0
    0.6900    1.1780    0.2810 C   0  0  0  0  0  0  0  0  0  0  0  0
    1.3360    1.4310   -0.9910 N   0  0  0  0  0  0  0  0  0  0  0  0
    2.6090    0.8650   -1.3420 C   0  0  0  0  0  0  0  0  0  0  0  0
    3.2400   -0.1790   -0.8090 C   0  0  0  0  0  0  0  0  0  0  0  0
    2.6810   -0.9890    0.3280 C   0  0  0  0  0  0  0  0  0  0  0  0
    1.3470   -1.1560    0.0850 O   0  0  0  0  0  0  0  0  0  0  0  0
  1  2  1  0
  2  3  2  0
  2  4  1  0
  4  5  1  0
  5  6  1  1
  5  8  1  0
  6  7  1  0
  8  9  1  6
  8 14  1  0
  9 10  1  0
 10 11  1  0
 11 12  2  0
 12 13  1  0
 13 14  1  0
M  END
