
     RDKit          3D

 14 15  0  0  0  0  0  0  0  0999 V2000
   -1.1330   -2.2000    0.1090 N   0  0  0  0  0  0  0  0  0  0  0  0
   -1.4030   -0.9550   -0.4970 C   0  0  0  0  0  0  0  0  0  0  0  0
   -2.5660   -0.8170   -1.1740 C   0  0  0  0  0  0  0  0  0  0  0  0
   -2.9580    0.4030   -1.8370 C   0  0  0  0  0  0  0  0  0  0  0  0
   -2.1350    1.4330   -1.7760 C   0  0  0  0  0  0  0  0  0  0  0  0
   -0.9650    1.3280   -1.1070 O   0  0  0  0  0  0  0  0  0  0  0  0
   -0.5180    0.1540   -0.4320 C   0  0  0  0  0  0  0  0  0  0  0  0
    0.6450    0.2040    0.1760 C   0  0  0  0  0  0  0  0  0  0  0  0
    1.4740    1.3700    0.1890 O   0  0  0  0  0  0  0  0  0  0  0  0
    2.8270    0.9670    0.3980 C   0  0  1  0  0  0  0  0  0  0  0  0
    3.6050    2.0020    0.8430 O   0  0  0  0  0  0  0  0  0  0  0  0
    2.6390   -0.0820    1.3550 N   0  0  0  0  0  0  0  0  0  0  0  0
    1.4110   -0.7440    0.9400 C   0  0  0  0  0  0  0  0  0  0  0  0
    1.1420   -1.9300    1.2350 O   0  0  0  0  0  0  0  0  0  0  0  0
  1  2  1  0
  2  3  2  0
  2  7  1  0
  3  4  1  0
  4  5  2  0
  5  6  1  0
  6  7  1  0
  7  8  2  3
  8  9  1  0
  8 13  1  0
  9 10  1  0
 10 11  1  1
 10 12  1  0
 12 13  1  0
 13 14  2  0
M  END
