
     RDKit          3D

 14 14  0  0  0  0  0  0  0  0999 V2000
    4.6460    1.0480   -0.0190 N   0  0  0  0  0  0  0  0  0  0  0  0
    3.3820    0.9800    0.1670 C   0  0  0  0  0  0  0  0  0  0  0  0
    2.6250   -0.2520   -0.0820 C   0  0  0  0  0  0  0  0  0  0  0  0
    3.3030   -1.3000   -0.5090 C   0  0  0  0  0  0  0  0  0  0  0  0
    2.6070   -2.4720   -0.7490 O   0  0  0  0  0  0  0  0  0  0  0  0
    1.2460   -0.2990    0.1290 O   0  0  0  0  0  0  0  0  0  0  0  0
    0.4990    0.7980   -0.3530 C   0  0  0  0  0  0  0  0  0  0  0  0
   -0.9700    0.6630   -0.0830 C   0  0  2  0  0  0  0  0  0  0  0  0
   -1.2910    0.5670    1.2460 O   0  0  0  0  0  0  0  0  0  0  0  0
   -2.6420    0.6520    1.4100 C   0  0  0  0  0  0  0  0  0  0  0  0
   -3.4860    0.3920    0.2390 C   0  0  0  0  0  0  0  0  0  0  0  0
   -2.9600   -0.2740   -0.8150 O   0  0  0  0  0  0  0  0  0  0  0  0
   -1.6050   -0.5070   -0.7770 C   0  0  2  0  0  0  0  0  0  0  0  0
   -1.3880   -1.7560   -0.0690 N   0  0  0  0  0  0  0  0  0  0  0  0
  1  2  2  0
  2  3  1  0
  3  4  2  3
  3  6  1  0
  4  5  1  0
  6  7  1  0
  8  7  1  1
  8  9  1  0
  8 13  1  0
  9 10  1  0
 10 11  1  0
 11 12  1  0
 12 13  1  0
 13 14  1  1
M  END
