
     RDKit          3D

 14 15  0  0  0  0  0  0  0  0999 V2000
   -4.2320   -0.2150   -0.8910 O   0  0  0  0  0  0  0  0  0  0  0  0
   -3.1220   -0.0440   -0.3390 C   0  0  0  0  0  0  0  0  0  0  0  0
   -3.0670    0.4230    1.0490 C   0  0  0  0  0  0  0  0  0  0  0  0
   -1.9120    0.0030    1.7200 O   0  0  0  0  0  0  0  0  0  0  0  0
   -0.7250   -0.3140    1.0630 C   0  0  0  0  0  0  0  0  0  0  0  0
    0.4380   -0.3370    1.6910 C   0  0  0  0  0  0  0  0  0  0  0  0
    1.6300   -0.6790    0.9240 C   0  0  0  0  0  0  0  0  0  0  0  0
    2.6030   -1.1960    1.4920 O   0  0  0  0  0  0  0  0  0  0  0  0
    1.6720   -0.4040   -0.5480 C   0  0  2  0  0  0  0  0  0  0  0  0
    2.6620    0.7070   -0.7800 C   0  0  0  0  0  0  0  0  0  0  0  0
    3.9420    0.3750   -0.3560 O   0  0  0  0  0  0  0  0  0  0  0  0
    0.3780    0.0420   -1.0220 N   0  0  0  0  0  0  0  0  0  0  0  0
   -0.7110   -0.6400   -0.3770 C   0  0  2  0  0  0  0  0  0  0  0  0
   -1.9240   -0.3050   -1.0610 N   0  0  0  0  0  0  0  0  0  0  0  0
  1  2  2  0
  2  3  1  0
  2 14  1  0
  3  4  1  0
  4  5  1  0
  5  6  2  0
  5 13  1  0
  6  7  1  0
  7  8  2  0
  7  9  1  0
  9 10  1  1
  9 12  1  0
 10 11  1  0
 13 12  1  6
 13 14  1  0
M  END
