
     RDKit          3D

 14 15  0  0  0  0  0  0  0  0999 V2000
    3.1170    0.5250    0.1640 O   0  0  0  0  0  0  0  0  0  0  0  0
    2.2180   -0.3380   -0.4330 C   0  0  0  0  0  0  0  0  0  0  0  0
    0.8840   -0.2810    0.2540 C   0  0  2  0  0  0  0  0  0  0  0  0
   -0.0830   -1.2490   -0.4270 C   0  0  1  0  0  0  0  0  0  0  0  0
    0.3990   -2.5320   -0.4770 O   0  0  0  0  0  0  0  0  0  0  0  0
   -1.3690   -1.1490    0.4070 C   0  0  2  0  0  0  0  0  0  0  0  0
   -2.1550   -2.2780    0.2660 O   0  0  0  0  0  0  0  0  0  0  0  0
   -2.0470    0.1050   -0.0970 C   0  0  2  0  0  0  0  0  0  0  0  0
   -2.3090   -0.0840   -1.4550 O   0  0  0  0  0  0  0  0  0  0  0  0
   -1.0560    1.2180    0.0390 C   0  0  0  0  0  0  0  0  0  0  0  0
   -1.3280    2.5490    0.0260 N   0  0  0  0  0  0  0  0  0  0  0  0
   -0.1550    3.1790    0.1780 C   0  0  0  0  0  0  0  0  0  0  0  0
    0.8530    2.2450    0.2860 C   0  0  0  0  0  0  0  0  0  0  0  0
    0.2640    1.0360    0.1970 N   0  0  0  0  0  0  0  0  0  0  0  0
  1  2  1  0
  3  2  1  6
  3  4  1  0
  3 14  1  0
  4  5  1  1
  4  6  1  0
  6  7  1  6
  6  8  1  0
  8  9  1  6
  8 10  1  0
 10 11  2  0
 10 14  1  0
 11 12  1  0
 12 13  2  0
 13 14  1  0
M  END
