
     RDKit          3D

 10 10  0  0  0  0  0  0  0  0999 V2000
    2.6490   -0.4450    0.3180 N   0  0  0  0  0  0  0  0  0  0  0  0
    1.9810    0.1570   -0.8210 C   0  0  0  0  0  0  0  0  0  0  0  0
    0.5530   -0.2750   -0.9320 C   0  0  0  0  0  0  0  0  0  0  0  0
   -0.3000    0.0610    0.2350 C   0  0  1  0  0  0  0  0  0  0  0  0
    0.1760   -0.5290    1.3930 O   0  0  0  0  0  0  0  0  0  0  0  0
   -0.6070    1.5020    0.4210 C   0  0  0  0  0  0  0  0  0  0  0  0
   -1.9930    1.5550    0.7030 O   0  0  0  0  0  0  0  0  0  0  0  0
   -2.4500    0.7430   -0.3550 C   0  0  0  0  0  0  0  0  0  0  0  0
   -1.6870   -0.5310   -0.0270 C   0  0  1  0  0  0  0  0  0  0  0  0
   -1.6740   -1.4250   -1.0840 O   0  0  0  0  0  0  0  0  0  0  0  0
  1  2  1  0
  2  3  1  0
  3  4  1  0
  4  5  1  1
  4  6  1  0
  4  9  1  0
  6  7  1  0
  7  8  1  0
  8  9  1  0
  9 10  1  6
M  CHG  1   1   1
M  END
