
     RDKit          3D

 10 10  0  0  0  0  0  0  0  0999 V2000
    2.9040    0.9830    0.3480 N   0  0  0  0  0  0  0  0  0  0  0  0
    2.3330   -0.3310    0.2470 C   0  0  0  0  0  0  0  0  0  0  0  0
    0.9430   -0.3100   -0.3550 C   0  0  2  0  0  0  0  0  0  0  0  0
   -0.0190    0.3450    0.6120 C   0  0  0  0  0  0  0  0  0  0  0  0
   -1.3130   -0.3230    0.3190 C   0  0  1  0  0  0  0  0  0  0  0  0
   -1.8390   -0.8740    1.4930 O   0  0  0  0  0  0  0  0  0  0  0  0
   -2.3630    0.5930   -0.2510 C   0  0  0  0  0  0  0  0  0  0  0  0
   -1.9660    1.2090   -1.4260 O   0  0  0  0  0  0  0  0  0  0  0  0
   -0.9330   -1.4420   -0.6040 C   0  0  0  0  0  0  0  0  0  0  0  0
    0.4500   -1.6020   -0.4240 O   0  0  0  0  0  0  0  0  0  0  0  0
  1  2  1  0
  3  2  1  1
  3  4  1  0
  3 10  1  0
  4  5  1  0
  5  6  1  1
  5  7  1  0
  5  9  1  0
  7  8  1  0
  9 10  1  0
M  CHG  1   1   1
M  END
