
     RDKit          3D

 10 10  0  0  0  0  0  0  0  0999 V2000
   -0.5650   -0.6440   -1.2590 N   0  0  0  0  0  0  0  0  0  0  0  0
   -0.5080    0.0640   -0.0290 C   0  0  2  0  0  0  0  0  0  0  0  0
   -1.4860   -0.4570    0.9870 C   0  0  0  0  0  0  0  0  0  0  0  0
   -1.1900   -1.8020    1.2390 O   0  0  0  0  0  0  0  0  0  0  0  0
   -0.8890    1.5230   -0.3310 C   0  0  0  0  0  0  0  0  0  0  0  0
    0.4610    2.1080   -0.6310 C   0  0  0  0  0  0  0  0  0  0  0  0
    1.4160    1.3590   -0.0040 O   0  0  0  0  0  0  0  0  0  0  0  0
    0.8200    0.2600    0.5790 C   0  0  2  0  0  0  0  0  0  0  0  0
    1.7180   -0.9370    0.6100 C   0  0  0  0  0  0  0  0  0  0  0  0
    2.1350   -1.3750   -0.6180 O   0  0  0  0  0  0  0  0  0  0  0  0
  2  1  1  6
  2  3  1  0
  2  5  1  0
  2  8  1  0
  3  4  1  0
  5  6  1  0
  6  7  1  0
  7  8  1  0
  8  9  1  6
  9 10  1  0
M  CHG  1   1   1
M  END
