
     RDKit          3D

  9  9  0  0  0  0  0  0  0  0999 V2000
    2.8580    0.2460   -0.0830 O   0  0  0  0  0  0  0  0  0  0  0  0
    2.1780   -0.9810   -0.1780 C   0  0  0  0  0  0  0  0  0  0  0  0
    0.8820   -0.7320   -0.9190 C   0  0  0  0  0  0  0  0  0  0  0  0
    0.0920    0.2660   -0.1300 C   0  0  2  0  0  0  0  0  0  0  0  0
    0.7800    1.4770    0.0160 O   0  0  0  0  0  0  0  0  0  0  0  0
   -0.3300   -0.3130    1.2030 C   0  0  0  0  0  0  0  0  0  0  0  0
   -1.8540   -0.3030    1.0810 C   0  0  0  0  0  0  0  0  0  0  0  0
   -2.0450    0.9300    0.3380 N   0  0  0  0  0  0  0  0  0  0  0  0
   -1.2170    0.6330   -0.8430 C   0  0  0  0  0  0  0  0  0  0  0  0
  1  2  1  0
  2  3  1  0
  3  4  1  0
  4  5  1  1
  4  6  1  0
  4  9  1  0
  6  7  1  0
  7  8  1  0
  8  9  1  0
M  CHG  1   8   1
M  END
