
     RDKit          3D

 18 19  0  0  0  0  0  0  0  0999 V2000
    5.2170   -0.7680    0.1860 C   0  0  0  0  0  0  0  0  0  0  0  0
    3.7300   -0.8400    0.4090 C   0  0  0  0  0  0  0  0  0  0  0  0
    3.0280    0.2390   -0.3230 C   0  0  0  0  0  0  0  0  0  0  0  0
    3.6080    1.1160   -1.0360 N   0  0  0  0  0  0  0  0  0  0  0  0
    2.7030    2.0040   -1.6060 N   0  0  0  0  0  0  0  0  0  0  0  0
    1.3870    1.6140   -1.1810 C   0  0  0  0  0  0  0  0  0  0  0  0
    0.3440    2.1930   -1.5090 O   0  0  0  0  0  0  0  0  0  0  0  0
    1.5740    0.4500   -0.3320 C   0  0  0  0  0  0  0  0  0  0  0  0
    0.7030   -0.2910    0.2760 C   0  0  0  0  0  0  0  0  0  0  0  0
   -0.7360   -0.1360    0.3120 C   0  0  0  0  0  0  0  0  0  0  0  0
   -1.3210    1.0730    0.6140 C   0  0  0  0  0  0  0  0  0  0  0  0
   -2.7030    1.1960    0.6090 C   0  0  0  0  0  0  0  0  0  0  0  0
   -3.3060    2.5150    0.9380 C   0  0  0  0  0  0  0  0  0  0  0  0
   -3.4960    0.0970    0.3000 C   0  0  0  0  0  0  0  0  0  0  0  0
   -2.9250   -1.1210   -0.0030 C   0  0  0  0  0  0  0  0  0  0  0  0
   -3.8050   -2.2720   -0.3300 C   0  0  0  0  0  0  0  0  0  0  0  0
   -1.5570   -1.2350    0.0030 C   0  0  0  0  0  0  0  0  0  0  0  0
   -0.9680   -2.4290   -0.2930 O   0  0  0  0  0  0  0  0  0  0  0  0
  1  2  1  0
  2  3  1  0
  3  4  2  0
  3  8  1  0
  4  5  1  0
  5  6  1  0
  6  7  2  0
  6  8  1  0
  8  9  2  3
  9 10  1  0
 10 11  2  0
 10 17  1  0
 11 12  1  0
 12 13  1  0
 12 14  2  0
 14 15  1  0
 15 16  1  0
 15 17  2  0
 17 18  1  0
M  END
