
     RDKit          3D

 18 19  0  0  0  0  0  0  0  0999 V2000
   -5.1680   -0.3850   -0.5770 C   0  0  0  0  0  0  0  0  0  0  0  0
   -4.5090   -0.0420    0.7360 C   0  0  2  0  0  0  0  0  0  0  0  0
   -5.0830    1.2650    1.2260 C   0  0  0  0  0  0  0  0  0  0  0  0
   -3.0320    0.1080    0.5910 C   0  0  0  0  0  0  0  0  0  0  0  0
   -2.5230    1.2080    0.8860 O   0  0  0  0  0  0  0  0  0  0  0  0
   -2.1960   -0.9240    0.1420 N   0  0  0  0  0  0  0  0  0  0  0  0
   -0.8050   -0.9430   -0.0470 C   0  0  0  0  0  0  0  0  0  0  0  0
   -0.0040    0.1320    0.2010 C   0  0  0  0  0  0  0  0  0  0  0  0
    1.3770    0.1080    0.0110 C   0  0  0  0  0  0  0  0  0  0  0  0
    1.9420   -1.0410   -0.4410 C   0  0  0  0  0  0  0  0  0  0  0  0
    1.1600   -2.1010   -0.6870 N   0  0  0  0  0  0  0  0  0  0  0  0
   -0.1660   -2.0910   -0.5090 C   0  0  0  0  0  0  0  0  0  0  0  0
   -0.8640   -3.1080   -0.7520 O   0  0  0  0  0  0  0  0  0  0  0  0
    3.4090   -0.8570   -0.5730 C   0  0  0  0  0  0  0  0  0  0  0  0
    3.6950    0.4650    0.1020 C   0  0  1  0  0  0  0  0  0  0  0  0
    4.2290    0.2470    1.4880 C   0  0  0  0  0  0  0  0  0  0  0  0
    4.6120    1.3360   -0.7020 C   0  0  0  0  0  0  0  0  0  0  0  0
    2.3620    1.1700    0.2310 C   0  0  0  0  0  0  0  0  0  0  0  0
  2  1  1  6
  2  3  1  0
  2  4  1  0
  4  5  2  0
  4  6  1  0
  6  7  1  0
  7  8  2  0
  7 12  1  0
  8  9  1  0
  9 10  2  0
  9 18  1  0
 10 11  1  0
 10 14  1  0
 11 12  1  0
 12 13  2  0
 14 15  1  0
 15 16  1  1
 15 17  1  0
 15 18  1  0
M  END
