
     RDKit          3D

 27 29  0  0  0  0  0  0  0  0999 V2000
   -4.2900    2.7750    2.4760 C   0  0  0  0  0  0  0  0  0  0  0  0
   -2.9640    2.6020    1.9880 O   0  0  0  0  0  0  0  0  0  0  0  0
   -2.6250    1.3300    1.5510 C   0  0  0  0  0  0  0  0  0  0  0  0
   -3.4900    0.2600    1.5700 C   0  0  0  0  0  0  0  0  0  0  0  0
   -3.1380   -0.9960    1.1330 C   0  0  0  0  0  0  0  0  0  0  0  0
   -4.0730   -2.0150    1.1890 O   0  0  0  0  0  0  0  0  0  0  0  0
   -4.9490   -2.2620    0.0740 C   0  0  0  0  0  0  0  0  0  0  0  0
   -4.9480   -1.5690   -1.0660 C   0  0  0  0  0  0  0  0  0  0  0  0
   -5.8410   -1.9080   -2.0580 C   0  0  0  0  0  0  0  0  0  0  0  0
   -6.7040   -3.2530   -1.3410 S   0  0  0  0  0  0  0  0  0  0  0  0
   -5.8470   -3.2930    0.2140 C   0  0  0  0  0  0  0  0  0  0  0  0
   -1.8540   -1.1560    0.6620 C   0  0  0  0  0  0  0  0  0  0  0  0
   -0.9290   -0.1390    0.6100 C   0  0  0  0  0  0  0  0  0  0  0  0
    0.4340   -0.3840    0.0910 C   0  0  0  0  0  0  0  0  0  0  0  0
    0.6690   -1.5490   -0.2810 O   0  0  0  0  0  0  0  0  0  0  0  0
    1.4140    0.6140    0.0120 N   0  0  0  0  0  0  0  0  0  0  0  0
    2.7540    0.4330   -0.4770 C   0  0  0  0  0  0  0  0  0  0  0  0
    3.5190    1.5800   -0.7360 C   0  0  0  0  0  0  0  0  0  0  0  0
    4.8070    1.5020   -1.1900 C   0  0  0  0  0  0  0  0  0  0  0  0
    5.5460    2.6530   -1.4400 O   0  0  0  0  0  0  0  0  0  0  0  0
    5.3780    0.2780   -1.4020 C   0  0  0  0  0  0  0  0  0  0  0  0
    6.6970    0.1220   -1.8680 O   0  0  0  0  0  0  0  0  0  0  0  0
    7.7470    0.0370   -0.9010 C   0  0  0  0  0  0  0  0  0  0  0  0
    4.6600   -0.8710   -1.1600 C   0  0  0  0  0  0  0  0  0  0  0  0
    5.4190   -2.6050   -1.4420 Br  0  0  0  0  0  0  0  0  0  0  0  0
    3.3410   -0.7840   -0.6940 C   0  0  0  0  0  0  0  0  0  0  0  0
   -1.3440    1.0960    1.0630 C   0  0  0  0  0  0  0  0  0  0  0  0
  1  2  1  0
  2  3  1  0
  3  4  2  0
  3 27  1  0
  4  5  1  0
  5  6  1  0
  5 12  2  0
  6  7  1  0
  7  8  1  0
  7 11  2  0
  8  9  2  0
  9 10  1  0
 10 11  1  0
 12 13  1  0
 13 14  1  0
 13 27  2  0
 14 15  2  0
 14 16  1  0
 16 17  1  0
 17 18  2  0
 17 26  1  0
 18 19  1  0
 19 20  1  0
 19 21  2  0
 21 22  1  0
 21 24  1  0
 22 23  1  0
 24 25  1  0
 24 26  2  0
M  END
