
     RDKit          3D

 16 16  0  0  0  0  0  0  0  0999 V2000
    5.5890    1.4430   -1.4560 N   0  0  0  0  0  0  0  0  0  0  0  0
    5.2080   -0.2260   -1.1040 S   0  0  1  0  0  0  0  0  0  0  0  0
    5.2220   -0.9730   -2.3900 O   0  0  0  0  0  0  0  0  0  0  0  0
    6.2910   -0.7370   -0.1850 O   0  0  0  0  0  0  0  0  0  0  0  0
    3.6560   -0.2950   -0.3120 C   0  0  0  0  0  0  0  0  0  0  0  0
    3.4670   -0.2310    1.0500 C   0  0  0  0  0  0  0  0  0  0  0  0
    2.2000   -0.2930    1.5820 C   0  0  0  0  0  0  0  0  0  0  0  0
    1.0490   -0.4240    0.7790 C   0  0  0  0  0  0  0  0  0  0  0  0
   -0.1580   -0.4820    1.3650 O   0  0  0  0  0  0  0  0  0  0  0  0
   -1.4280   -0.5780    0.8700 C   0  0  0  0  0  0  0  0  0  0  0  0
   -1.9190    0.5670    0.0450 C   0  0  0  0  0  0  0  0  0  0  0  0
   -3.3060    0.3140   -0.4650 C   0  0  0  0  0  0  0  0  0  0  0  0
   -4.2710    0.1320    0.6680 C   0  0  0  0  0  0  0  0  0  0  0  0
   -5.6360   -0.0860    0.1530 N   0  0  0  0  0  0  0  0  0  0  0  0
    1.2370   -0.4880   -0.5620 C   0  0  0  0  0  0  0  0  0  0  0  0
    2.5280   -0.4230   -1.0870 C   0  0  0  0  0  0  0  0  0  0  0  0
  2  1  1  6
  2  3  2  0
  2  4  2  0
  2  5  1  0
  5  6  2  0
  5 16  1  0
  6  7  1  0
  7  8  2  0
  8  9  1  0
  8 15  1  0
  9 10  1  0
 10 11  1  0
 11 12  1  0
 12 13  1  0
 13 14  1  0
 15 16  2  0
M  CHG  1  14   1
M  END
