
     RDKit          3D

 27 28  0  0  0  0  0  0  0  0999 V2000
   -3.4630    1.9270    0.9160 C   0  0  0  0  0  0  0  0  0  0  0  0
   -4.6360    1.4390    1.2790 C   0  0  0  0  0  0  0  0  0  0  0  0
   -4.9780    0.0320    1.2090 C   0  0  0  0  0  0  0  0  0  0  0  0
   -3.9400   -0.9260    0.6900 C   0  0  0  0  0  0  0  0  0  0  0  0
   -3.6590   -0.4890   -0.6260 O   0  0  0  0  0  0  0  0  0  0  0  0
   -2.7490   -1.0900   -1.4790 C   0  0  0  0  0  0  0  0  0  0  0  0
   -2.1290   -2.0930   -1.0430 O   0  0  0  0  0  0  0  0  0  0  0  0
   -2.4900   -0.6050   -2.8480 C   0  0  0  0  0  0  0  0  0  0  0  0
   -1.2660   -1.5550   -3.7280 S   0  0  0  0  0  0  0  0  0  0  0  0
    0.3900   -1.4020   -3.0330 C   0  0  0  0  0  0  0  0  0  0  0  0
    1.2810   -2.0470   -3.6160 O   0  0  0  0  0  0  0  0  0  0  0  0
    0.6870   -0.6270   -1.9250 N   0  0  0  0  0  0  0  0  0  0  0  0
    1.9570   -0.4300   -1.2920 C   0  0  0  0  0  0  0  0  0  0  0  0
    3.0950   -1.0860   -1.6720 C   0  0  0  0  0  0  0  0  0  0  0  0
    4.2920   -0.8430   -1.0290 C   0  0  0  0  0  0  0  0  0  0  0  0
    4.4280    0.0470    0.0080 C   0  0  0  0  0  0  0  0  0  0  0  0
    5.7170    0.2690    0.6500 C   0  0  0  0  0  0  0  0  0  0  0  0
    6.9110   -0.3690    0.3010 C   0  0  0  0  0  0  0  0  0  0  0  0
    7.9230    0.0860    1.1180 C   0  0  0  0  0  0  0  0  0  0  0  0
    7.3040    0.9980    1.9510 C   0  0  0  0  0  0  0  0  0  0  0  0
    6.0420    1.0600    1.6350 O   0  0  0  0  0  0  0  0  0  0  0  0
    3.2880    0.7090    0.3940 C   0  0  0  0  0  0  0  0  0  0  0  0
    3.2640    1.6360    1.4230 O   0  0  0  0  0  0  0  0  0  0  0  0
    2.0780    0.4650   -0.2530 C   0  0  0  0  0  0  0  0  0  0  0  0
   -6.1640   -0.3770    1.5910 C   0  0  0  0  0  0  0  0  0  0  0  0
   -7.1480    0.6070    2.0920 C   0  0  0  0  0  0  0  0  0  0  0  0
   -6.6010   -2.2120    1.4960 Br  0  0  0  0  0  0  0  0  0  0  0  0
  1  2  2  0
  2  3  1  0
  3  4  1  0
  3 25  2  3
  4  5  1  0
  5  6  1  0
  6  7  2  0
  6  8  1  0
  8  9  1  0
  9 10  1  0
 10 11  2  0
 10 12  1  0
 12 13  1  0
 13 14  2  0
 13 24  1  0
 14 15  1  0
 15 16  2  0
 16 17  1  0
 16 22  1  0
 17 18  2  0
 17 21  1  0
 18 19  1  0
 19 20  2  0
 20 21  1  0
 22 23  1  0
 22 24  2  0
 25 26  1  0
 25 27  1  0
M  END
