
     RDKit          3D

 27 29  0  0  0  0  0  0  0  0999 V2000
   -5.9300   -1.1710   -0.7300 C   0  0  0  0  0  0  0  0  0  0  0  0
   -4.8560   -2.1850   -0.4410 C   0  0  2  0  0  0  0  0  0  0  0  0
   -5.1940   -2.8060    0.7850 O   0  0  0  0  0  0  0  0  0  0  0  0
   -3.5160   -1.5640   -0.3190 C   0  0  0  0  0  0  0  0  0  0  0  0
   -3.3740   -0.1990   -0.2980 C   0  0  0  0  0  0  0  0  0  0  0  0
   -2.0940    0.3490   -0.1800 C   0  0  0  0  0  0  0  0  0  0  0  0
   -1.9520    1.7450   -0.1590 O   0  0  0  0  0  0  0  0  0  0  0  0
   -3.0910    2.5870   -0.2540 C   0  0  0  0  0  0  0  0  0  0  0  0
   -2.6390    4.0160   -0.2070 C   0  0  0  0  0  0  0  0  0  0  0  0
   -4.1230    5.0750   -0.3290 S   0  0  0  0  0  0  0  0  0  0  0  0
   -0.9960   -0.4650   -0.0870 C   0  0  0  0  0  0  0  0  0  0  0  0
    0.3120    0.0420    0.0310 O   0  0  0  0  0  0  0  0  0  0  0  0
    1.4120   -0.8550    0.1210 C   0  0  0  0  0  0  0  0  0  0  0  0
    2.7080   -0.1570    0.2290 C   0  0  0  0  0  0  0  0  0  0  0  0
    2.7920    1.2220    0.2300 C   0  0  0  0  0  0  0  0  0  0  0  0
    4.0410    1.8130    0.3270 C   0  0  0  0  0  0  0  0  0  0  0  0
    5.1900    1.0560    0.4200 C   0  0  0  0  0  0  0  0  0  0  0  0
    5.0590   -0.3170    0.4150 C   0  0  0  0  0  0  0  0  0  0  0  0
    3.8450   -0.9390    0.3220 C   0  0  0  0  0  0  0  0  0  0  0  0
    3.7010   -2.8350    0.3200 Br  0  0  0  0  0  0  0  0  0  0  0  0
    6.1930   -1.0940    0.5070 O   0  0  0  0  0  0  0  0  0  0  0  0
    7.4530   -0.5310    0.2550 C   0  0  0  0  0  0  0  0  0  0  0  0
    7.5160    0.8000    1.0050 C   0  0  0  0  0  0  0  0  0  0  0  0
    6.4640    1.6200    0.5190 O   0  0  0  0  0  0  0  0  0  0  0  0
   -1.1700   -1.8340   -0.1100 C   0  0  0  0  0  0  0  0  0  0  0  0
   -2.4220   -2.3940   -0.2250 C   0  0  0  0  0  0  0  0  0  0  0  0
   -2.6100   -3.8000   -0.2510 N   0  0  0  0  0  0  0  0  0  0  0  0
  2  1  1  1
  2  3  1  0
  2  4  1  0
  4  5  2  0
  4 26  1  0
  5  6  1  0
  6  7  1  0
  6 11  2  0
  7  8  1  0
  8  9  1  0
  9 10  1  0
 11 12  1  0
 11 25  1  0
 12 13  1  0
 13 14  1  0
 14 15  2  0
 14 19  1  0
 15 16  1  0
 16 17  2  0
 17 18  1  0
 17 24  1  0
 18 19  2  0
 18 21  1  0
 19 20  1  0
 21 22  1  0
 22 23  1  0
 23 24  1  0
 25 26  2  0
 26 27  1  0
M  END
