
     RDKit          3D

 15 16  0  0  0  0  0  0  0  0999 V2000
   -2.9340    1.8780    0.4450 C   0  0  0  0  0  0  0  0  0  0  0  0
   -2.8350    1.0920   -0.7620 N   0  0  0  0  0  0  0  0  0  0  0  0
   -2.3930   -0.2360   -0.5780 C   0  0  2  0  0  0  0  0  0  0  0  0
   -2.7780   -0.8520    0.7490 C   0  0  0  0  0  0  0  0  0  0  0  0
   -1.8740   -2.4500    0.5960 S   0  0  0  0  0  0  0  0  0  0  0  0
   -0.7680   -1.9720   -0.7970 C   0  0  0  0  0  0  0  0  0  0  0  0
   -0.9220   -0.4480   -0.7000 C   0  0  1  0  0  0  0  0  0  0  0  0
   -0.1460    0.4180   -2.0370 S   0  0  0  0  0  0  0  0  0  0  0  0
    1.4670    0.8360   -1.4340 C   0  0  0  0  0  0  0  0  0  0  0  0
    1.5610    0.6710    0.0210 C   0  0  2  0  0  0  0  0  0  0  0  0
    2.7230   -0.2170    0.3930 C   0  0  0  0  0  0  0  0  0  0  0  0
    2.5410   -1.2900    1.0250 O   0  0  0  0  0  0  0  0  0  0  0  0
    4.0180    0.1180    0.0540 O   0  0  0  0  0  0  0  0  0  0  0  0
    5.1360   -0.7000    0.3920 C   0  0  0  0  0  0  0  0  0  0  0  0
    0.0280    0.1080    0.7120 S   0  0  0  0  0  0  0  0  0  0  0  0
  1  2  1  0
  3  2  1  1
  3  4  1  0
  3  7  1  0
  4  5  1  0
  5  6  1  0
  7  6  1  6
  7  8  1  0
  7 15  1  0
  8  9  1  0
  9 10  1  0
 10 11  1  6
 10 15  1  0
 11 12  2  0
 11 13  1  0
 13 14  1  0
M  CHG  1   2   1
M  END
