
     RDKit          3D

 37 40  0  0  0  0  0  0  0  0999 V2000
   -4.1100    3.9100    1.4990 C   0  0  0  0  0  0  0  0  0  0  0  0
   -2.6510    4.1760    1.4450 C   0  0  0  0  0  0  0  0  0  0  0  0
   -2.1790    5.2520    1.8770 O   0  0  0  0  0  0  0  0  0  0  0  0
   -1.7520    3.1780    0.8840 C   0  0  0  0  0  0  0  0  0  0  0  0
   -2.2350    2.0170    0.4130 C   0  0  0  0  0  0  0  0  0  0  0  0
   -1.3790    0.9870   -0.1570 C   0  0  0  0  0  0  0  0  0  0  0  0
    0.0110    1.1210   -0.2170 C   0  0  0  0  0  0  0  0  0  0  0  0
    0.8340    0.1310   -0.7430 C   0  0  0  0  0  0  0  0  0  0  0  0
    2.2310    0.2900   -0.7960 N   0  0  0  0  0  0  0  0  0  0  0  0
    2.8810    1.2420   -1.4980 C   0  0  0  0  0  0  0  0  0  0  0  0
    2.1230    2.0480   -2.1530 O   0  0  0  0  0  0  0  0  0  0  0  0
    4.2010    1.4050   -1.5640 N   0  0  0  0  0  0  0  0  0  0  0  0
    5.0490    0.5870   -0.8960 C   0  0  0  0  0  0  0  0  0  0  0  0
    6.3550    0.5760   -0.8290 N   0  0  0  0  0  0  0  0  0  0  0  0
    7.0620   -0.1460   -0.2430 C   0  0  0  0  0  0  0  0  0  0  0  0
    8.5150   -0.4410    0.0480 C   0  0  0  0  0  0  0  0  0  0  0  0
    8.6670   -1.6130    0.9540 C   0  0  1  0  0  0  0  0  0  0  0  0
    8.0510   -1.4220    2.1670 F   0  0  0  0  0  0  0  0  0  0  0  0
    8.1080   -2.7140    0.2910 F   0  0  0  0  0  0  0  0  0  0  0  0
   10.0060   -1.8940    1.1210 F   0  0  0  0  0  0  0  0  0  0  0  0
    5.8100   -1.2630    0.5590 S   0  0  0  0  0  0  0  0  0  0  0  0
    4.4100   -0.4050   -0.1630 C   0  0  0  0  0  0  0  0  0  0  0  0
    3.0450   -0.5660   -0.1010 C   0  0  0  0  0  0  0  0  0  0  0  0
    2.5500   -1.4800    0.5790 O   0  0  0  0  0  0  0  0  0  0  0  0
    0.2080   -1.0060   -1.2090 C   0  0  0  0  0  0  0  0  0  0  0  0
   -1.1620   -1.1490   -1.1550 C   0  0  0  0  0  0  0  0  0  0  0  0
   -1.9620   -0.1580   -0.6330 C   0  0  0  0  0  0  0  0  0  0  0  0
   -3.3820   -0.3430   -0.6670 C   0  0  0  0  0  0  0  0  0  0  0  0
   -4.1780    0.5790   -1.3060 C   0  0  0  0  0  0  0  0  0  0  0  0
   -5.5460    0.4120   -1.4090 C   0  0  0  0  0  0  0  0  0  0  0  0
   -6.3170    1.3500   -2.0520 F   0  0  0  0  0  0  0  0  0  0  0  0
   -6.1240   -0.7030   -0.8600 C   0  0  0  0  0  0  0  0  0  0  0  0
   -5.3550   -1.6500   -0.2100 C   0  0  0  0  0  0  0  0  0  0  0  0
   -3.9700   -1.4660   -0.1140 C   0  0  0  0  0  0  0  0  0  0  0  0
   -3.1350   -2.3790    0.5790 N   0  0  0  0  0  0  0  0  0  0  0  0
   -3.6320   -3.6230    1.0360 C   0  0  0  0  0  0  0  0  0  0  0  0
   -4.2880   -4.3750    0.2330 N   0  0  0  0  0  0  0  0  0  0  0  0
  1  2  1  0
  2  3  2  0
  2  4  1  0
  4  5  2  3
  5  6  1  0
  6  7  2  0
  6 27  1  0
  7  8  1  0
  8  9  1  0
  8 25  2  0
  9 10  1  0
  9 23  1  0
 10 11  2  0
 10 12  1  0
 12 13  1  0
 13 14  1  0
 13 22  2  0
 14 15  2  0
 15 16  1  0
 15 21  1  0
 16 17  1  0
 17 18  1  1
 17 19  1  0
 17 20  1  0
 21 22  1  0
 22 23  1  0
 23 24  2  0
 25 26  1  0
 26 27  2  0
 27 28  1  0
 28 29  2  0
 28 34  1  0
 29 30  1  0
 30 31  1  0
 30 32  2  0
 32 33  1  0
 33 34  2  0
 34 35  1  0
 35 36  1  0
 36 37  2  0
M  CHG  1  37   1
M  END
