
     RDKit          3D

 37 40  0  0  0  0  0  0  0  0999 V2000
   -9.4400   -0.3790    2.0870 C   0  0  0  0  0  0  0  0  0  0  0  0
   -9.8770   -0.7450    0.6990 C   0  0  0  0  0  0  0  0  0  0  0  0
   -9.0500    0.0770   -0.2400 C   0  0  0  0  0  0  0  0  0  0  0  0
   -8.0970    0.9760   -0.0310 C   0  0  0  0  0  0  0  0  0  0  0  0
   -7.4820    1.5990   -1.0440 C   0  0  0  0  0  0  0  0  0  0  0  0
   -6.3940    2.6350   -0.9420 C   0  0  0  0  0  0  0  0  0  0  0  0
   -5.1190    2.1220   -0.8130 O   0  0  0  0  0  0  0  0  0  0  0  0
   -4.4470    1.3050   -1.6770 C   0  0  0  0  0  0  0  0  0  0  0  0
   -5.0070    0.9530   -2.7180 O   0  0  0  0  0  0  0  0  0  0  0  0
   -3.0700    0.8320   -1.3990 C   0  0  0  0  0  0  0  0  0  0  0  0
   -2.2590    0.0480   -2.0970 C   0  0  0  0  0  0  0  0  0  0  0  0
   -1.0330   -0.2410   -1.6240 C   0  0  0  0  0  0  0  0  0  0  0  0
   -0.6780    0.3050   -0.4130 C   0  0  0  0  0  0  0  0  0  0  0  0
    0.5500    0.2170    0.4230 C   0  0  0  0  0  0  0  0  0  0  0  0
    1.2520   -1.0110    0.0810 N   0  0  0  0  0  0  0  0  0  0  0  0
    2.4630   -1.3510    0.7250 C   0  0  0  0  0  0  0  0  0  0  0  0
    2.8080   -0.4550    1.5800 O   0  0  0  0  0  0  0  0  0  0  0  0
    3.2620   -2.5480    0.5290 C   0  0  0  0  0  0  0  0  0  0  0  0
    2.9060   -3.5960   -0.1600 C   0  0  0  0  0  0  0  0  0  0  0  0
    1.6610   -3.8680   -0.9110 C   0  0  0  0  0  0  0  0  0  0  0  0
    3.9090   -4.6140   -0.0590 N   0  0  0  0  0  0  0  0  0  0  0  0
    4.9530   -4.1390    0.7470 C   0  0  0  0  0  0  0  0  0  0  0  0
    6.0090   -4.7340    1.0770 O   0  0  0  0  0  0  0  0  0  0  0  0
    4.5600   -2.7190    1.1650 C   0  0  0  0  0  0  0  0  0  0  0  0
    5.5180   -1.9760    1.6340 C   0  0  0  0  0  0  0  0  0  0  0  0
    5.8890   -0.6200    1.7760 C   0  0  0  0  0  0  0  0  0  0  0  0
    6.9610   -0.4130    2.5420 O   0  0  0  0  0  0  0  0  0  0  0  0
    5.4080    0.5820    1.2840 N   0  0  0  0  0  0  0  0  0  0  0  0
    5.9450    1.8960    1.5680 C   0  0  0  0  0  0  0  0  0  0  0  0
    7.3490    2.0250    1.0700 C   0  0  1  0  0  0  0  0  0  0  0  0
    7.4080    1.9080   -0.4410 C   0  0  0  0  0  0  0  0  0  0  0  0
    7.6230    3.1940   -0.8780 O   0  0  0  0  0  0  0  0  0  0  0  0
    7.4540    4.0150    0.2210 C   0  0  0  0  0  0  0  0  0  0  0  0
    7.8850    3.2910    1.3280 O   0  0  0  0  0  0  0  0  0  0  0  0
   -2.1520    1.2330    0.0080 S   0  0  0  0  0  0  0  0  0  0  0  0
   -7.9260    1.2230   -2.3300 C   0  0  0  0  0  0  0  0  0  0  0  0
   -9.2110   -0.0120   -1.9980 S   0  0  0  0  0  0  0  0  0  0  0  0
  1  2  1  0
  2  3  1  0
  3  4  2  0
  3 37  1  0
  4  5  1  0
  5  6  1  0
  5 36  2  0
  6  7  1  0
  7  8  1  0
  8  9  2  0
  8 10  1  0
 10 11  2  0
 10 35  1  0
 11 12  1  0
 12 13  2  0
 13 14  1  0
 13 35  1  0
 14 15  1  0
 15 16  1  0
 16 17  2  0
 16 18  1  0
 18 19  2  0
 18 24  1  0
 19 20  1  0
 19 21  1  0
 21 22  1  0
 22 23  2  0
 22 24  1  0
 24 25  2  3
 25 26  1  0
 26 27  2  0
 26 28  1  0
 28 29  1  0
 30 29  1  6
 30 31  1  0
 30 34  1  0
 31 32  1  0
 32 33  1  0
 33 34  1  0
 36 37  1  0
M  END
