
     RDKit          3D

 37 40  0  0  0  0  0  0  0  0999 V2000
  -11.6180    1.4860   -1.2380 C   0  0  0  0  0  0  0  0  0  0  0  0
  -11.1620    0.3820   -0.3270 C   0  0  0  0  0  0  0  0  0  0  0  0
   -9.8700   -0.0970   -0.6290 O   0  0  0  0  0  0  0  0  0  0  0  0
   -8.7780    0.7450   -0.5890 C   0  0  0  0  0  0  0  0  0  0  0  0
   -9.0030    1.9490   -0.2700 O   0  0  0  0  0  0  0  0  0  0  0  0
   -7.4570    0.3180   -0.8840 N   0  0  0  0  0  0  0  0  0  0  0  0
   -7.2500   -1.0650   -1.2420 C   0  0  0  0  0  0  0  0  0  0  0  0
   -5.8020   -1.3040   -1.6470 C   0  0  0  0  0  0  0  0  0  0  0  0
   -4.9510   -0.7200   -0.5810 C   0  0  0  0  0  0  0  0  0  0  0  0
   -3.9320   -1.4950   -0.0710 C   0  0  0  0  0  0  0  0  0  0  0  0
   -3.1520   -0.9110    0.9310 C   0  0  0  0  0  0  0  0  0  0  0  0
   -1.8380   -1.8260    1.6350 S   0  0  1  0  0  0  0  0  0  0  0  0
   -2.0650   -2.1170    3.0690 O   0  0  0  0  0  0  0  0  0  0  0  0
   -1.7090   -3.1540    0.9210 O   0  0  0  0  0  0  0  0  0  0  0  0
   -0.3810   -0.9600    1.3530 N   0  0  0  0  0  0  0  0  0  0  0  0
   -0.1180   -0.8140   -0.0690 C   0  0  0  0  0  0  0  0  0  0  0  0
    1.1750   -0.0450   -0.2940 C   0  0  0  0  0  0  0  0  0  0  0  0
    2.2090   -0.7830    0.3180 O   0  0  0  0  0  0  0  0  0  0  0  0
    3.4930   -0.3020    0.2620 C   0  0  0  0  0  0  0  0  0  0  0  0
    3.7400    0.7700   -0.3220 O   0  0  0  0  0  0  0  0  0  0  0  0
    4.5800   -1.0070    0.8640 N   0  0  0  0  0  0  0  0  0  0  0  0
    5.9160   -0.4970    0.7990 C   0  0  0  0  0  0  0  0  0  0  0  0
    6.4510   -0.3300   -0.5980 C   0  0  2  0  0  0  0  0  0  0  0  0
    6.4590   -1.5640   -1.2540 O   0  0  0  0  0  0  0  0  0  0  0  0
    7.8530    0.1230   -0.4860 C   0  0  0  0  0  0  0  0  0  0  0  0
    8.5660    0.6530    0.5160 C   0  0  0  0  0  0  0  0  0  0  0  0
    9.8700    0.9700    0.2910 C   0  0  0  0  0  0  0  0  0  0  0  0
   10.3840    0.7390   -0.9220 C   0  0  0  0  0  0  0  0  0  0  0  0
    9.0200    0.0550   -1.8010 S   0  0  0  0  0  0  0  0  0  0  0  0
   11.8260    1.1360   -1.0390 C   0  0  0  0  0  0  0  0  0  0  0  0
   11.8810    2.1670    0.0680 C   0  0  0  0  0  0  0  0  0  0  0  0
   11.0130    1.5660    1.1180 C   0  0  0  0  0  0  0  0  0  0  0  0
   -3.4140    0.3660    1.3590 C   0  0  0  0  0  0  0  0  0  0  0  0
   -2.5900    0.9850    2.4180 C   0  0  0  0  0  0  0  0  0  0  0  0
   -4.4500    1.1160    0.8200 C   0  0  0  0  0  0  0  0  0  0  0  0
   -5.2320    0.5640   -0.1660 C   0  0  0  0  0  0  0  0  0  0  0  0
   -6.3670    1.2690   -0.8170 C   0  0  0  0  0  0  0  0  0  0  0  0
  1  2  1  0
  2  3  1  0
  3  4  1  0
  4  5  2  0
  4  6  1  0
  6  7  1  0
  6 37  1  0
  7  8  1  0
  8  9  1  0
  9 10  2  0
  9 36  1  0
 10 11  1  0
 11 12  1  0
 11 33  2  0
 12 13  2  0
 12 14  2  0
 12 15  1  1
 15 16  1  0
 16 17  1  0
 17 18  1  0
 18 19  1  0
 19 20  2  0
 19 21  1  0
 21 22  1  0
 22 23  1  0
 23 24  1  1
 23 25  1  0
 25 26  2  0
 25 29  1  0
 26 27  1  0
 27 28  2  0
 27 32  1  0
 28 29  1  0
 28 30  1  0
 30 31  1  0
 31 32  1  0
 33 34  1  0
 33 35  1  0
 35 36  2  0
 36 37  1  0
M  END
