
     RDKit          3D

 37 40  0  0  0  0  0  0  0  0999 V2000
   -6.9570    1.9920   -0.8080 C   0  0  0  0  0  0  0  0  0  0  0  0
   -7.7770    1.7480    0.4390 C   0  0  0  0  0  0  0  0  0  0  0  0
   -9.0290    1.2620    0.0140 O   0  0  0  0  0  0  0  0  0  0  0  0
   -8.8820    0.0730   -0.6960 C   0  0  0  0  0  0  0  0  0  0  0  0
   -8.2360   -0.9980    0.1710 C   0  0  0  0  0  0  0  0  0  0  0  0
   -8.9880   -1.8600    0.9610 C   0  0  0  0  0  0  0  0  0  0  0  0
   -7.7330   -2.8850    1.7470 S   0  0  0  0  0  0  0  0  0  0  0  0
   -6.3380   -1.9610    0.8580 C   0  0  0  0  0  0  0  0  0  0  0  0
   -4.9950   -2.4660    1.1930 N   0  0  0  0  0  0  0  0  0  0  0  0
   -3.8730   -1.8130    0.5570 C   0  0  0  0  0  0  0  0  0  0  0  0
   -4.1470   -0.8660   -0.2310 O   0  0  0  0  0  0  0  0  0  0  0  0
   -2.5460   -2.2460    0.8310 C   0  0  0  0  0  0  0  0  0  0  0  0
   -2.4340   -3.2270    1.6590 O   0  0  0  0  0  0  0  0  0  0  0  0
   -1.3320   -1.7190    0.2960 C   0  0  0  0  0  0  0  0  0  0  0  0
   -1.3090   -0.7230   -0.5540 C   0  0  0  0  0  0  0  0  0  0  0  0
   -0.0350   -0.2090   -1.0820 C   0  0  0  0  0  0  0  0  0  0  0  0
    1.1160   -0.7330   -0.7170 C   0  0  0  0  0  0  0  0  0  0  0  0
    1.2640   -1.8440    0.2200 C   0  0  1  0  0  0  0  0  0  0  0  0
    1.9770   -2.8630   -0.4460 O   0  0  0  0  0  0  0  0  0  0  0  0
    2.0760   -1.4770    1.4580 C   0  0  0  0  0  0  0  0  0  0  0  0
    3.3670   -1.0140    1.0260 N   0  0  0  0  0  0  0  0  0  0  0  0
    4.4970   -1.8420    0.8290 C   0  0  0  0  0  0  0  0  0  0  0  0
    4.4850   -3.0980    0.9210 O   0  0  0  0  0  0  0  0  0  0  0  0
    5.6340   -0.9480    0.5090 C   0  0  0  0  0  0  0  0  0  0  0  0
    5.0790    0.4130    0.3400 C   0  0  0  0  0  0  0  0  0  0  0  0
    5.7640    1.4500   -0.0960 C   0  0  0  0  0  0  0  0  0  0  0  0
    7.1670    1.3570   -0.4620 C   0  0  0  0  0  0  0  0  0  0  0  0
    7.8020    2.4070   -0.8860 C   0  0  0  0  0  0  0  0  0  0  0  0
    9.1960    2.5910   -1.3160 C   0  0  0  0  0  0  0  0  0  0  0  0
    9.6220    3.9720   -1.1710 C   0  0  0  0  0  0  0  0  0  0  0  0
    8.7030    4.8980   -1.0370 C   0  0  0  0  0  0  0  0  0  0  0  0
    7.1240    4.0470   -1.0840 S   0  0  0  0  0  0  0  0  0  0  0  0
    3.6810    0.3470    0.7410 C   0  0  0  0  0  0  0  0  0  0  0  0
    2.9500    1.3760    0.7980 O   0  0  0  0  0  0  0  0  0  0  0  0
   -0.0500   -2.2940    0.6930 C   0  0  0  0  0  0  0  0  0  0  0  0
   -0.0350   -3.2720    1.5190 O   0  0  0  0  0  0  0  0  0  0  0  0
   -6.9380   -1.2120    0.2620 N   0  0  0  0  0  0  0  0  0  0  0  0
  1  2  1  0
  2  3  1  0
  3  4  1  0
  4  5  1  0
  5  6  2  0
  5 37  1  0
  6  7  1  0
  7  8  1  0
  8  9  1  0
  8 37  2  0
  9 10  1  0
 10 11  2  0
 10 12  1  0
 12 13  2  0
 12 14  1  0
 14 15  2  0
 14 35  1  0
 15 16  1  0
 16 17  2  0
 17 18  1  0
 18 19  1  6
 18 20  1  0
 18 35  1  0
 20 21  1  0
 21 22  1  0
 21 33  1  0
 22 23  2  0
 22 24  1  0
 24 25  1  0
 25 26  2  3
 25 33  1  0
 26 27  1  0
 27 28  2  3
 28 29  1  0
 28 32  1  0
 29 30  1  0
 30 31  2  0
 31 32  1  0
 33 34  2  0
 35 36  2  0
M  END
