
     RDKit          3D

 36 41  0  0  0  0  0  0  0  0999 V2000
    9.3180    0.1070   -0.5380 C   0  0  0  0  0  0  0  0  0  0  0  0
    7.8570   -0.0220   -0.1720 C   0  0  1  0  0  0  0  0  0  0  0  0
    7.4270    0.6630    1.0610 C   0  0  0  0  0  0  0  0  0  0  0  0
    5.9990    0.6020    1.3670 C   0  0  0  0  0  0  0  0  0  0  0  0
    5.3220    0.6810    2.5100 N   0  0  0  0  0  0  0  0  0  0  0  0
    4.0180    0.5680    2.2500 N   0  0  0  0  0  0  0  0  0  0  0  0
    3.8260    0.4140    0.9260 C   0  0  0  0  0  0  0  0  0  0  0  0
    2.5630    0.2580    0.2290 C   0  0  0  0  0  0  0  0  0  0  0  0
    2.5410    0.1250   -1.0020 O   0  0  0  0  0  0  0  0  0  0  0  0
    1.3660    0.2580    0.9690 N   0  0  0  0  0  0  0  0  0  0  0  0
    0.0720    0.1120    0.3980 C   0  0  0  0  0  0  0  0  0  0  0  0
   -0.2780   -0.0490   -0.9220 C   0  0  0  0  0  0  0  0  0  0  0  0
   -1.6170   -0.1450   -0.9820 N   0  0  0  0  0  0  0  0  0  0  0  0
   -2.1600   -0.0570    0.2020 N   0  0  0  0  0  0  0  0  0  0  0  0
   -3.5900   -0.1220    0.4930 C   0  0  2  0  0  0  0  0  0  0  0  0
   -4.0280   -1.5220    0.6510 C   0  0  0  0  0  0  0  0  0  0  0  0
   -4.4550   -2.2340   -0.4400 C   0  0  0  0  0  0  0  0  0  0  0  0
   -4.8750   -3.5640   -0.3120 C   0  0  0  0  0  0  0  0  0  0  0  0
   -4.8590   -4.1620    0.9170 C   0  0  0  0  0  0  0  0  0  0  0  0
   -4.4370   -3.4630    2.0050 C   0  0  0  0  0  0  0  0  0  0  0  0
   -4.0200   -2.1430    1.8750 C   0  0  0  0  0  0  0  0  0  0  0  0
   -4.4060    0.5990   -0.5660 C   0  0  1  0  0  0  0  0  0  0  0  0
   -5.8550    0.4720   -0.1730 C   0  0  0  0  0  0  0  0  0  0  0  0
   -6.7630    1.4170   -0.8710 C   0  0  0  0  0  0  0  0  0  0  0  0
   -6.1500    2.1550   -2.0140 C   0  0  0  0  0  0  0  0  0  0  0  0
   -5.2490    3.2410   -1.4110 C   0  0  0  0  0  0  0  0  0  0  0  0
   -3.9610    2.3380   -0.5430 S   0  0  2  0  0  0  0  0  0  0  0  0
   -2.6920    2.5810   -1.2950 O   0  0  0  0  0  0  0  0  0  0  0  0
   -3.8740    2.7680    0.8860 O   0  0  0  0  0  0  0  0  0  0  0  0
   -1.1480    0.1020    1.0730 C   0  0  0  0  0  0  0  0  0  0  0  0
    5.0930    0.4370    0.3680 C   0  0  0  0  0  0  0  0  0  0  0  0
    5.5120    0.3150   -1.0260 C   0  0  0  0  0  0  0  0  0  0  0  0
    6.8730   -0.2660   -1.2150 C   0  0  2  0  0  0  0  0  0  0  0  0
    7.2570   -1.4170   -0.3840 C   0  0  2  0  0  0  0  0  0  0  0  0
    6.3340   -1.8670    0.5240 F   0  0  0  0  0  0  0  0  0  0  0  0
    8.0840   -2.3830   -0.9250 F   0  0  0  0  0  0  0  0  0  0  0  0
  2  1  1  6
  2  3  1  0
  2 33  1  0
  2 34  1  0
  3  4  1  0
  4  5  2  0
  4 31  1  0
  5  6  1  0
  6  7  1  0
  7  8  1  0
  7 31  2  0
  8  9  2  0
  8 10  1  0
 10 11  1  0
 11 12  1  0
 11 30  2  0
 12 13  2  0
 13 14  1  0
 15 14  1  6
 14 30  1  0
 15 16  1  0
 15 22  1  0
 16 17  2  0
 16 21  1  0
 17 18  1  0
 18 19  2  0
 19 20  1  0
 20 21  2  0
 22 23  1  1
 22 27  1  0
 23 24  1  0
 24 25  1  0
 25 26  1  0
 27 26  1  6
 27 28  2  0
 27 29  2  0
 31 32  1  0
 33 32  1  1
 33 34  1  0
 34 35  1  1
 34 36  1  0
M  END
