
     RDKit          3D

 37 40  0  0  0  0  0  0  0  0999 V2000
    9.6560    1.0980   -0.6930 N   0  0  0  0  0  0  0  0  0  0  0  0
    9.8500   -0.3090   -0.8820 C   0  0  0  0  0  0  0  0  0  0  0  0
    9.1770   -1.0940    0.2530 C   0  0  0  0  0  0  0  0  0  0  0  0
    9.9080   -2.0020    1.3140 S   0  0  0  0  0  0  0  0  0  0  0  0
    7.7210   -1.0030    0.2750 C   0  0  0  0  0  0  0  0  0  0  0  0
    7.1990   -0.1110    1.1750 C   0  0  0  0  0  0  0  0  0  0  0  0
    5.8380    0.0470    1.2010 C   0  0  0  0  0  0  0  0  0  0  0  0
    5.0680   -0.6980    0.3060 C   0  0  0  0  0  0  0  0  0  0  0  0
    3.6370   -0.5010    0.3390 C   0  0  0  0  0  0  0  0  0  0  0  0
    2.9620    0.1580    1.3560 N   0  0  0  0  0  0  0  0  0  0  0  0
    1.6850    0.1310    1.1210 C   0  0  0  0  0  0  0  0  0  0  0  0
    0.5920    0.7290    1.9260 C   0  0  0  0  0  0  0  0  0  0  0  0
   -0.4560    1.1300    0.9540 C   0  0  0  0  0  0  0  0  0  0  0  0
   -0.7360    2.0660    0.3260 O   0  0  0  0  0  0  0  0  0  0  0  0
   -1.5160   -0.3140    0.7580 N   0  0  0  0  0  0  0  0  0  0  0  0
   -2.4670    0.3880   -0.1880 C   0  0  0  0  0  0  0  0  0  0  0  0
   -2.3490    1.2710   -0.8600 O   0  0  0  0  0  0  0  0  0  0  0  0
   -3.7520   -0.3600   -0.1190 N   0  0  0  0  0  0  0  0  0  0  0  0
   -4.8610    0.0500   -0.9840 C   0  0  1  0  0  0  0  0  0  0  0  0
   -5.2980   -0.9730   -1.9550 C   0  0  0  0  0  0  0  0  0  0  0  0
   -6.5960   -1.6300   -1.6610 C   0  0  0  0  0  0  0  0  0  0  0  0
   -7.5870   -0.6890   -1.2210 O   0  0  0  0  0  0  0  0  0  0  0  0
   -7.2300    0.2650   -0.2830 C   0  0  0  0  0  0  0  0  0  0  0  0
   -5.9540    0.5920   -0.1530 C   0  0  0  0  0  0  0  0  0  0  0  0
   -5.5580    1.5530    0.8080 C   0  0  0  0  0  0  0  0  0  0  0  0
   -6.5220    2.1430    1.6110 C   0  0  0  0  0  0  0  0  0  0  0  0
   -7.8580    1.7920    1.4630 C   0  0  0  0  0  0  0  0  0  0  0  0
   -8.1910    0.8390    0.5020 C   0  0  0  0  0  0  0  0  0  0  0  0
   -9.6350    0.5050    0.3320 C   0  0  2  0  0  0  0  0  0  0  0  0
   -9.7480   -0.8640    0.2990 F   0  0  0  0  0  0  0  0  0  0  0  0
  -10.1550    1.0700   -0.8060 F   0  0  0  0  0  0  0  0  0  0  0  0
  -10.3080    0.9740    1.4310 F   0  0  0  0  0  0  0  0  0  0  0  0
    1.4680   -0.5490   -0.1020 C   0  0  0  0  0  0  0  0  0  0  0  0
    2.7060   -0.9010   -0.4990 N   0  0  0  0  0  0  0  0  0  0  0  0
    5.5630   -1.5890   -0.5810 C   0  0  0  0  0  0  0  0  0  0  0  0
    6.9530   -1.7200   -0.5570 C   0  0  0  0  0  0  0  0  0  0  0  0
    7.4850   -2.6050   -1.4450 F   0  0  0  0  0  0  0  0  0  0  0  0
  1  2  1  0
  2  3  1  0
  3  4  2  0
  3  5  1  0
  5  6  2  0
  5 36  1  0
  6  7  1  0
  7  8  2  0
  8  9  1  0
  8 35  1  0
  9 10  2  0
  9 34  1  0
 10 11  1  0
 11 12  1  0
 11 33  2  0
 12 13  1  0
 13 14  2  0
 13 15  1  0
 15 16  1  0
 16 17  2  0
 16 18  1  0
 19 18  1  1
 19 20  1  0
 19 24  1  0
 20 21  1  0
 21 22  1  0
 22 23  1  0
 23 24  2  0
 23 28  1  0
 24 25  1  0
 25 26  2  0
 26 27  1  0
 27 28  2  0
 28 29  1  0
 29 30  1  6
 29 31  1  0
 29 32  1  0
 33 34  1  0
 35 36  2  0
 36 37  1  0
M  CHG  1   1   1
M  END
