
     RDKit          3D

 37 40  0  0  0  0  0  0  0  0999 V2000
   -8.8520    1.9920    0.8860 N   0  0  0  0  0  0  0  0  0  0  0  0
   -8.9530    0.5880    0.6060 C   0  0  0  0  0  0  0  0  0  0  0  0
  -10.0110    0.0130    0.9800 O   0  0  0  0  0  0  0  0  0  0  0  0
   -7.8510   -0.0680   -0.0770 C   0  0  0  0  0  0  0  0  0  0  0  0
   -6.7440    0.6960   -0.4610 C   0  0  0  0  0  0  0  0  0  0  0  0
   -5.6810    0.1250   -1.1200 C   0  0  0  0  0  0  0  0  0  0  0  0
   -4.2800    1.1410   -1.5930 S   0  0  0  0  0  0  0  0  0  0  0  0
   -3.0920    1.0980   -0.2220 C   0  0  1  0  0  0  0  0  0  0  0  0
   -2.5770   -0.3150   -0.1390 C   0  0  0  0  0  0  0  0  0  0  0  0
   -1.4960   -0.3270    0.9530 C   0  0  0  0  0  0  0  0  0  0  0  0
   -0.3650    0.3700    0.3150 N   0  0  0  0  0  0  0  0  0  0  0  0
   -0.6340    1.5210   -0.3280 C   0  0  0  0  0  0  0  0  0  0  0  0
    0.4180    2.2040   -0.9520 C   0  0  0  0  0  0  0  0  0  0  0  0
    1.7030    1.7110   -0.9110 C   0  0  0  0  0  0  0  0  0  0  0  0
    1.9570    0.5290   -0.2460 C   0  0  0  0  0  0  0  0  0  0  0  0
    3.2510   -0.0160   -0.1750 O   0  0  0  0  0  0  0  0  0  0  0  0
    4.2700    0.7140   -0.8230 C   0  0  0  0  0  0  0  0  0  0  0  0
    5.6290    0.1020   -0.7250 C   0  0  0  0  0  0  0  0  0  0  0  0
    6.0370   -0.0210    0.6540 N   0  0  0  0  0  0  0  0  0  0  0  0
    7.3290   -0.5520    0.9240 C   0  0  0  0  0  0  0  0  0  0  0  0
    7.7630   -0.6890    2.2230 C   0  0  0  0  0  0  0  0  0  0  0  0
    9.0150   -1.1970    2.5230 C   0  0  0  0  0  0  0  0  0  0  0  0
    9.8580   -1.5800    1.4880 C   0  0  0  0  0  0  0  0  0  0  0  0
    9.3960   -1.4310    0.1990 C   0  0  0  0  0  0  0  0  0  0  0  0
   10.2590   -1.8230   -0.8600 N   0  0  0  0  0  0  0  0  0  0  0  0
    8.1720   -0.9330   -0.0450 N   0  0  0  0  0  0  0  0  0  0  0  0
    0.8730   -0.0960    0.3500 C   0  0  0  0  0  0  0  0  0  0  0  0
    1.0850   -1.1700    0.9580 O   0  0  0  0  0  0  0  0  0  0  0  0
   -1.9920    2.1050   -0.4030 C   0  0  0  0  0  0  0  0  0  0  0  0
   -5.6630   -1.2160   -1.4290 C   0  0  0  0  0  0  0  0  0  0  0  0
   -4.6070   -1.7850   -2.0850 F   0  0  0  0  0  0  0  0  0  0  0  0
   -6.7440   -1.9700   -1.0550 C   0  0  0  0  0  0  0  0  0  0  0  0
   -7.8380   -1.4060   -0.3810 C   0  0  0  0  0  0  0  0  0  0  0  0
   -8.9670   -2.2630    0.0150 C   0  0  2  0  0  0  0  0  0  0  0  0
   -9.1730   -2.3270    1.3780 F   0  0  0  0  0  0  0  0  0  0  0  0
   -8.6600   -3.5760   -0.3710 F   0  0  0  0  0  0  0  0  0  0  0  0
  -10.1250   -1.9480   -0.6830 F   0  0  0  0  0  0  0  0  0  0  0  0
  1  2  1  0
  2  3  2  0
  2  4  1  0
  4  5  2  0
  4 33  1  0
  5  6  1  0
  6  7  1  0
  6 30  2  0
  8  7  1  6
  8  9  1  0
  8 29  1  0
  9 10  1  0
 10 11  1  0
 11 12  1  0
 11 27  1  0
 12 13  2  0
 12 29  1  0
 13 14  1  0
 14 15  2  0
 15 16  1  0
 15 27  1  0
 16 17  1  0
 17 18  1  0
 18 19  1  0
 19 20  1  0
 20 21  2  0
 20 26  1  0
 21 22  1  0
 22 23  2  0
 23 24  1  0
 24 25  1  0
 24 26  2  0
 27 28  2  0
 30 31  1  0
 30 32  1  0
 32 33  2  0
 33 34  1  0
 34 35  1  1
 34 36  1  0
 34 37  1  0
M  CHG  1  26   1
M  END
