
     RDKit          3D

 21 22  0  0  0  0  0  0  0  0999 V2000
   -2.0890   -1.5080   -1.1400 O   0  0  0  0  0  0  0  0  0  0  0  0
   -2.3960   -0.1830   -1.1030 C   0  0  0  0  0  0  0  0  0  0  0  0
   -2.2380    0.5740   -0.0430 C   0  0  0  0  0  0  0  0  0  0  0  0
   -2.6050    1.9270   -0.1630 O   0  0  0  0  0  0  0  0  0  0  0  0
   -2.9590    2.6580    0.9830 C   0  0  0  0  0  0  0  0  0  0  0  0
   -2.0000    2.4140    2.1280 C   0  0  0  0  0  0  0  0  0  0  0  0
   -1.6200    0.9930    2.2170 C   0  0  0  0  0  0  0  0  0  0  0  0
   -1.7190    0.1110    1.2270 C   0  0  0  0  0  0  0  0  0  0  0  0
   -1.2660   -1.2770    1.4450 C   0  0  1  0  0  0  0  0  0  0  0  0
   -2.3410   -2.1820    1.2680 O   0  0  0  0  0  0  0  0  0  0  0  0
   -0.0760   -1.6560    0.6440 C   0  0  0  0  0  0  0  0  0  0  0  0
    0.2810   -2.9790    0.5060 C   0  0  0  0  0  0  0  0  0  0  0  0
    1.4010   -3.3690   -0.2150 C   0  0  0  0  0  0  0  0  0  0  0  0
    2.1740   -2.3660   -0.8100 C   0  0  0  0  0  0  0  0  0  0  0  0
    3.3090   -2.7220   -1.5440 O   0  0  0  0  0  0  0  0  0  0  0  0
    1.8440   -1.0320   -0.6910 C   0  0  0  0  0  0  0  0  0  0  0  0
    2.6640   -0.0980   -1.3120 O   0  0  0  0  0  0  0  0  0  0  0  0
    2.4190    1.2890   -1.2540 C   0  0  0  0  0  0  0  0  0  0  0  0
    3.5170    1.9770   -2.0430 C   0  0  0  0  0  0  0  0  0  0  0  0
    3.3620    3.3610   -2.0450 O   0  0  0  0  0  0  0  0  0  0  0  0
    0.7230   -0.6820    0.0340 C   0  0  0  0  0  0  0  0  0  0  0  0
  1  2  1  0
  2  3  2  3
  3  4  1  0
  3  8  1  0
  4  5  1  0
  5  6  1  0
  6  7  1  0
  7  8  2  0
  8  9  1  0
  9 10  1  6
  9 11  1  0
 11 12  2  0
 11 21  1  0
 12 13  1  0
 13 14  2  0
 14 15  1  0
 14 16  1  0
 16 17  1  0
 16 21  2  0
 17 18  1  0
 18 19  1  0
 19 20  1  0
M  END
