
     RDKit          3D

 21 22  0  0  0  0  0  0  0  0999 V2000
   -4.0470    1.4670    2.1460 O   0  0  0  0  0  0  0  0  0  0  0  0
   -3.9590    0.5250    1.1280 C   0  0  0  0  0  0  0  0  0  0  0  0
   -2.7700    0.3100    0.5970 C   0  0  0  0  0  0  0  0  0  0  0  0
   -1.5450    1.0260    1.0400 C   0  0  0  0  0  0  0  0  0  0  0  0
   -0.9180    1.5950   -0.2300 C   0  0  1  0  0  0  0  0  0  0  0  0
    0.1800    2.3290    0.1630 O   0  0  0  0  0  0  0  0  0  0  0  0
   -0.5560    0.4920   -1.1670 C   0  0  1  0  0  0  0  0  0  0  0  0
    0.7150   -0.1680   -0.6460 C   0  0  0  0  0  0  0  0  0  0  0  0
    1.7340    0.7700   -0.4380 O   0  0  0  0  0  0  0  0  0  0  0  0
    2.9630    0.3950    0.0280 C   0  0  0  0  0  0  0  0  0  0  0  0
    3.2210   -0.9210    0.3020 C   0  0  0  0  0  0  0  0  0  0  0  0
    4.4500   -1.3550    0.7770 C   0  0  0  0  0  0  0  0  0  0  0  0
    5.4240   -0.4110    0.9690 C   0  0  0  0  0  0  0  0  0  0  0  0
    5.1770    0.9270    0.6950 C   0  0  0  0  0  0  0  0  0  0  0  0
    3.9500    1.3380    0.2240 C   0  0  0  0  0  0  0  0  0  0  0  0
    3.6670    2.6760   -0.0620 O   0  0  0  0  0  0  0  0  0  0  0  0
   -1.5790   -0.4500   -1.3750 O   0  0  0  0  0  0  0  0  0  0  0  0
   -2.6270   -0.6630   -0.4710 C   0  0  0  0  0  0  0  0  0  0  0  0
   -3.4520   -1.6650   -0.5430 C   0  0  0  0  0  0  0  0  0  0  0  0
   -3.3640   -2.7090   -1.6180 C   0  0  0  0  0  0  0  0  0  0  0  0
   -3.1630   -3.9620   -1.0450 O   0  0  0  0  0  0  0  0  0  0  0  0
  1  2  1  0
  2  3  2  3
  3  4  1  0
  3 18  1  0
  4  5  1  0
  5  6  1  1
  5  7  1  0
  7  8  1  1
  7 17  1  0
  8  9  1  0
  9 10  1  0
 10 11  2  0
 10 15  1  0
 11 12  1  0
 12 13  2  0
 13 14  1  0
 14 15  2  0
 15 16  1  0
 17 18  1  0
 18 19  2  3
 19 20  1  0
 20 21  1  0
M  END
