
     RDKit          3D

 21 22  0  0  0  0  0  0  0  0999 V2000
   -4.7600   -1.9380    0.5590 C   0  0  0  0  0  0  0  0  0  0  0  0
   -3.6020   -1.2690    0.4870 C   0  0  0  0  0  0  0  0  0  0  0  0
   -2.4210   -1.8140    0.4760 O   0  0  0  0  0  0  0  0  0  0  0  0
   -1.4560   -0.9440    0.4010 C   0  0  0  0  0  0  0  0  0  0  0  0
   -0.0710   -1.0250    0.3600 C   0  0  0  0  0  0  0  0  0  0  0  0
    0.4950   -2.2820    0.4060 O   0  0  0  0  0  0  0  0  0  0  0  0
    0.7170   -2.9480   -0.8170 C   0  0  0  0  0  0  0  0  0  0  0  0
    0.7280    0.0910    0.2770 C   0  0  0  0  0  0  0  0  0  0  0  0
    2.0810   -0.0720    0.2410 O   0  0  0  0  0  0  0  0  0  0  0  0
    2.9290   -0.2200   -0.8240 C   0  0  0  0  0  0  0  0  0  0  0  0
    4.3660   -0.3680   -0.3120 C   0  0  2  0  0  0  0  0  0  0  0  0
    4.4860   -1.4800    0.5160 O   0  0  0  0  0  0  0  0  0  0  0  0
    4.8140    0.8730    0.4250 C   0  0  0  0  0  0  0  0  0  0  0  0
    4.6650    1.9470   -0.4700 O   0  0  0  0  0  0  0  0  0  0  0  0
    0.0940    1.3150    0.2340 C   0  0  0  0  0  0  0  0  0  0  0  0
    0.8690    2.4460    0.1510 O   0  0  0  0  0  0  0  0  0  0  0  0
   -1.2720    1.4020    0.2740 C   0  0  0  0  0  0  0  0  0  0  0  0
   -2.0930    0.3040    0.3570 C   0  0  0  0  0  0  0  0  0  0  0  0
   -3.4440    0.1150    0.4110 C   0  0  0  0  0  0  0  0  0  0  0  0
   -4.4330    0.9570    0.3990 C   0  0  0  0  0  0  0  0  0  0  0  0
   -4.2900    2.4050    0.3200 C   0  0  0  0  0  0  0  0  0  0  0  0
  1  2  2  0
  2  3  1  0
  2 19  1  0
  3  4  1  0
  4  5  2  0
  4 18  1  0
  5  6  1  0
  5  8  1  0
  6  7  1  0
  8  9  1  0
  8 15  2  0
  9 10  1  0
 10 11  1  0
 11 12  1  1
 11 13  1  0
 13 14  1  0
 15 16  1  0
 15 17  1  0
 17 18  2  0
 18 19  1  0
 19 20  2  3
 20 21  1  0
M  END
