
     RDKit          3D

 21 22  0  0  0  0  0  0  0  0999 V2000
   -0.5680    3.2200   -0.5430 C   0  0  0  0  0  0  0  0  0  0  0  0
   -0.5120    1.6990   -0.6260 C   0  0  1  0  0  0  0  0  0  0  0  0
    0.9360    1.3220   -0.3760 C   0  0  0  0  0  0  0  0  0  0  0  0
    1.1410   -0.0580   -0.3790 O   0  0  0  0  0  0  0  0  0  0  0  0
    2.4320   -0.5190   -0.1600 C   0  0  0  0  0  0  0  0  0  0  0  0
    3.5000    0.3290    0.0560 C   0  0  0  0  0  0  0  0  0  0  0  0
    4.7570   -0.1740    0.2680 C   0  0  0  0  0  0  0  0  0  0  0  0
    5.8490    0.6640    0.4890 O   0  0  0  0  0  0  0  0  0  0  0  0
    4.9760   -1.5330    0.2680 C   0  0  0  0  0  0  0  0  0  0  0  0
    3.9010   -2.3970    0.0490 C   0  0  0  0  0  0  0  0  0  0  0  0
    2.6540   -1.8780   -0.1600 C   0  0  0  0  0  0  0  0  0  0  0  0
    1.6030   -2.7700   -0.3750 O   0  0  0  0  0  0  0  0  0  0  0  0
   -1.3860    1.1970    0.3100 O   0  0  0  0  0  0  0  0  0  0  0  0
   -2.4350    0.3760    0.0430 C   0  0  0  0  0  0  0  0  0  0  0  0
   -2.8030   -0.0920   -1.1970 C   0  0  0  0  0  0  0  0  0  0  0  0
   -3.8770   -0.9240   -1.4150 C   0  0  0  0  0  0  0  0  0  0  0  0
   -4.6510   -1.3320   -0.3590 C   0  0  0  0  0  0  0  0  0  0  0  0
   -4.3180   -0.8870    0.8980 C   0  0  0  0  0  0  0  0  0  0  0  0
   -5.0840   -1.2840    1.9960 O   0  0  0  0  0  0  0  0  0  0  0  0
   -3.2440   -0.0560    1.1100 C   0  0  0  0  0  0  0  0  0  0  0  0
   -2.9120    0.3890    2.3740 O   0  0  0  0  0  0  0  0  0  0  0  0
  2  1  1  1
  2  3  1  0
  2 13  1  0
  3  4  1  0
  4  5  1  0
  5  6  2  0
  5 11  1  0
  6  7  1  0
  7  8  1  0
  7  9  2  0
  9 10  1  0
 10 11  2  0
 11 12  1  0
 13 14  1  0
 14 15  2  0
 14 20  1  0
 15 16  1  0
 16 17  2  0
 17 18  1  0
 18 19  1  0
 18 20  2  0
 20 21  1  0
M  END
