
     RDKit          3D

 21 22  0  0  0  0  0  0  0  0999 V2000
    1.3270   -1.2980   -0.3830 C   0  0  0  0  0  0  0  0  0  0  0  0
    1.4550    0.1750    0.0850 C   0  0  1  0  0  0  0  0  0  0  0  0
    0.3170    0.8460   -0.2720 O   0  0  0  0  0  0  0  0  0  0  0  0
   -0.9740    0.8040   -0.0640 C   0  0  0  0  0  0  0  0  0  0  0  0
   -1.6940   -0.0920   -0.8550 C   0  0  0  0  0  0  0  0  0  0  0  0
   -3.0090   -0.1430   -0.7250 C   0  0  0  0  0  0  0  0  0  0  0  0
   -3.8200   -1.2810   -1.3500 C   0  0  0  0  0  0  0  0  0  0  0  0
   -3.4480   -2.3920   -0.4250 O   0  0  0  0  0  0  0  0  0  0  0  0
   -3.8210    0.6350    0.1370 C   0  0  0  0  0  0  0  0  0  0  0  0
   -5.2650    0.6180   -0.2100 C   0  0  0  0  0  0  0  0  0  0  0  0
   -6.1980    0.3080    0.7360 O   0  0  0  0  0  0  0  0  0  0  0  0
   -3.1010    1.5010    0.9420 C   0  0  0  0  0  0  0  0  0  0  0  0
   -1.7240    1.5510    0.8200 C   0  0  0  0  0  0  0  0  0  0  0  0
   -1.0130    2.4460    1.6150 O   0  0  0  0  0  0  0  0  0  0  0  0
    2.0490    0.3390    1.4520 C   0  0  0  0  0  0  0  0  0  0  0  0
    3.4500   -0.1750    1.2640 C   0  0  0  0  0  0  0  0  0  0  0  0
    3.8490    0.2190   -0.2030 C   0  0  1  0  0  0  0  0  0  0  0  0
    4.8680    1.1660    0.0650 O   0  0  0  0  0  0  0  0  0  0  0  0
    4.5250   -0.9730   -0.8150 C   0  0  0  0  0  0  0  0  0  0  0  0
    5.6410   -0.6320   -1.6020 O   0  0  0  0  0  0  0  0  0  0  0  0
    2.6370    0.7270   -0.7950 C   0  0  0  0  0  0  0  0  0  0  0  0
  2  1  1  6
  2  3  1  0
  2 15  1  0
  2 21  1  0
  3  4  1  0
  4  5  2  0
  4 13  1  0
  5  6  1  0
  6  7  1  0
  6  9  2  0
  7  8  1  0
  9 10  1  0
  9 12  1  0
 10 11  1  0
 12 13  2  0
 13 14  1  0
 15 16  1  0
 16 17  1  0
 17 18  1  1
 17 19  1  0
 17 21  1  0
 19 20  1  0
M  END
