
     RDKit          3D

 36 37  0  0  0  0  0  0  0  0999 V2000
    6.4010    0.9620    0.4000 O   0  0  0  0  0  0  0  0  0  0  0  0
    5.6100    1.7330    1.0160 C   0  0  0  0  0  0  0  0  0  0  0  0
    6.0870    2.8860    1.6430 O   0  0  0  0  0  0  0  0  0  0  0  0
    4.2360    1.3790    1.0420 N   0  0  0  0  0  0  0  0  0  0  0  0
    3.7120    0.1750    0.3930 C   0  0  1  0  0  0  0  0  0  0  0  0
    3.2380   -0.7420    1.4700 C   0  0  0  0  0  0  0  0  0  0  0  0
    2.0270   -0.2850    2.2050 C   0  0  0  0  0  0  0  0  0  0  0  0
    1.2790   -1.4080    2.8800 C   0  0  0  0  0  0  0  0  0  0  0  0
    0.4260   -2.1260    2.0140 O   0  0  0  0  0  0  0  0  0  0  0  0
   -0.8740   -1.8160    1.9680 N   0  0  0  0  0  0  0  0  0  0  0  0
   -1.5620   -1.2220    1.0000 C   0  0  0  0  0  0  0  0  0  0  0  0
   -0.9910   -0.7870   -0.2320 N   0  0  0  0  0  0  0  0  0  0  0  0
   -0.7270   -1.5730   -1.4460 C   0  0  0  0  0  0  0  0  0  0  0  0
   -1.5850   -2.5470   -1.8040 O   0  0  0  0  0  0  0  0  0  0  0  0
    0.4120   -1.3710   -2.3030 N   0  0  0  0  0  0  0  0  0  0  0  0
    1.7420   -1.9610   -2.0180 C   0  0  0  0  0  0  0  0  0  0  0  0
    2.8390   -1.1510   -2.5110 C   0  0  0  0  0  0  0  0  0  0  0  0
    3.5640   -1.5410   -3.4350 O   0  0  0  0  0  0  0  0  0  0  0  0
    3.1010    0.0780   -1.9590 O   0  0  0  0  0  0  0  0  0  0  0  0
    2.7120    0.4930   -0.6630 C   0  0  0  0  0  0  0  0  0  0  0  0
    0.4470   -0.5350   -3.4910 C   0  0  0  0  0  0  0  0  0  0  0  0
    1.3200   -0.5680   -4.3730 O   0  0  0  0  0  0  0  0  0  0  0  0
   -0.6330    0.4860   -3.7450 C   0  0  0  0  0  0  0  0  0  0  0  0
   -1.7670   -0.1980   -3.3160 O   0  0  0  0  0  0  0  0  0  0  0  0
   -2.6520    0.4290   -2.6130 O   0  0  0  0  0  0  0  0  0  0  0  0
   -3.6810    0.0470   -1.8070 C   0  0  0  0  0  0  0  0  0  0  0  0
   -4.6830   -0.6790   -2.1120 O   0  0  0  0  0  0  0  0  0  0  0  0
   -3.8130    0.4430   -0.3380 C   0  0  1  0  0  0  0  0  0  0  0  0
   -4.9240    1.4470   -0.1960 C   0  0  0  0  0  0  0  0  0  0  0  0
   -5.0690    2.0370    1.0330 O   0  0  0  0  0  0  0  0  0  0  0  0
   -5.4390    1.5750    2.2490 C   0  0  0  0  0  0  0  0  0  0  0  0
   -5.7460    0.3930    2.4220 O   0  0  0  0  0  0  0  0  0  0  0  0
   -5.4930    2.4140    3.3820 O   0  0  0  0  0  0  0  0  0  0  0  0
   -4.0380   -0.6790    0.5310 N   0  0  0  0  0  0  0  0  0  0  0  0
   -3.0050   -1.1410    1.4080 C   0  0  0  0  0  0  0  0  0  0  0  0
   -3.4010   -1.4840    2.5650 O   0  0  0  0  0  0  0  0  0  0  0  0
  1  2  2  0
  2  3  1  0
  2  4  1  0
  5  4  1  1
  5  6  1  0
  5 20  1  0
  6  7  1  0
  7  8  1  0
  8  9  1  0
  9 10  1  0
 10 11  2  0
 11 12  1  0
 11 35  1  0
 12 13  1  0
 13 14  2  0
 13 15  1  0
 15 16  1  0
 15 21  1  0
 16 17  1  0
 17 18  2  0
 17 19  1  0
 19 20  1  0
 21 22  2  0
 21 23  1  0
 23 24  1  0
 24 25  1  0
 25 26  1  0
 26 27  2  0
 26 28  1  0
 28 29  1  6
 28 34  1  0
 29 30  1  0
 30 31  1  0
 31 32  2  0
 31 33  1  0
 34 35  1  0
 35 36  2  0
M  END
