
     RDKit          3D

 36 37  0  0  0  0  0  0  0  0999 V2000
   -5.8010    2.2840    2.6990 O   0  0  0  0  0  0  0  0  0  0  0  0
   -5.3260    1.3920    1.9520 C   0  0  0  0  0  0  0  0  0  0  0  0
   -3.9120    1.5490    1.5430 C   0  0  0  0  0  0  0  0  0  0  0  0
   -3.2300    0.2840    1.5840 O   0  0  0  0  0  0  0  0  0  0  0  0
   -1.9470    0.1440    2.0820 C   0  0  0  0  0  0  0  0  0  0  0  0
   -1.6590   -0.9620    2.6200 O   0  0  0  0  0  0  0  0  0  0  0  0
   -0.9020    1.1580    2.0400 C   0  0  0  0  0  0  0  0  0  0  0  0
   -0.2690    1.2800    3.1600 O   0  0  0  0  0  0  0  0  0  0  0  0
   -0.5350    1.9760    0.9570 N   0  0  0  0  0  0  0  0  0  0  0  0
   -0.0910    1.5770   -0.3270 C   0  0  0  0  0  0  0  0  0  0  0  0
    0.0460    2.5310   -1.1800 O   0  0  0  0  0  0  0  0  0  0  0  0
    0.2260    0.2820   -0.8110 N   0  0  0  0  0  0  0  0  0  0  0  0
    1.5550    0.0850   -1.4410 C   0  0  0  0  0  0  0  0  0  0  0  0
    2.5370   -0.3230   -0.3730 C   0  0  0  0  0  0  0  0  0  0  0  0
    2.1990   -0.4560    0.8230 O   0  0  0  0  0  0  0  0  0  0  0  0
    3.8590   -0.5620   -0.7080 O   0  0  0  0  0  0  0  0  0  0  0  0
    4.8440   -0.9440    0.2090 C   0  0  2  0  0  0  0  0  0  0  0  0
    5.0990    0.0250    1.3330 C   0  0  0  0  0  0  0  0  0  0  0  0
    5.5030    1.2290    0.7730 O   0  0  0  0  0  0  0  0  0  0  0  0
    5.7460    2.1370    1.7200 O   0  0  0  0  0  0  0  0  0  0  0  0
    6.3450    3.1620    1.1510 O   0  0  0  0  0  0  0  0  0  0  0  0
    7.3780    3.5350    1.8540 O   0  0  0  0  0  0  0  0  0  0  0  0
    8.4920    3.1370    1.3000 O   0  0  0  0  0  0  0  0  0  0  0  0
    6.1340   -1.4210   -0.3910 C   0  0  0  0  0  0  0  0  0  0  0  0
    6.2220   -2.3660    0.6520 O   0  0  0  0  0  0  0  0  0  0  0  0
    4.8200   -2.3980    0.6300 C   0  0  0  0  0  0  0  0  0  0  0  0
   -0.6210   -0.8670   -0.7470 C   0  0  0  0  0  0  0  0  0  0  0  0
   -0.0840   -1.9860   -0.4560 O   0  0  0  0  0  0  0  0  0  0  0  0
   -1.9720   -0.9000   -0.9680 O   0  0  0  0  0  0  0  0  0  0  0  0
   -2.7270   -0.2000   -1.9050 C   0  0  0  0  0  0  0  0  0  0  0  0
   -3.7710   -1.0350   -2.6020 C   0  0  0  0  0  0  0  0  0  0  0  0
   -4.4440   -2.0200   -1.7060 C   0  0  0  0  0  0  0  0  0  0  0  0
   -5.7720   -1.7740   -1.4650 O   0  0  0  0  0  0  0  0  0  0  0  0
   -6.0490   -1.5450   -0.1040 C   0  0  0  0  0  0  0  0  0  0  0  0
   -6.1480   -0.0780    0.1380 C   0  0  0  0  0  0  0  0  0  0  0  0
   -6.0120    0.2930    1.4910 O   0  0  0  0  0  0  0  0  0  0  0  0
  1  2  2  0
  2  3  1  0
  2 36  1  0
  3  4  1  0
  4  5  1  0
  5  6  2  0
  5  7  1  0
  7  8  2  0
  7  9  1  0
  9 10  1  0
 10 11  2  0
 10 12  1  0
 12 13  1  0
 12 27  1  0
 13 14  1  0
 14 15  2  0
 14 16  1  0
 16 17  1  0
 17 18  1  1
 17 24  1  0
 17 26  1  0
 18 19  1  0
 19 20  1  0
 20 21  1  0
 21 22  1  0
 22 23  1  0
 24 25  1  0
 25 26  1  0
 27 28  2  0
 27 29  1  0
 29 30  1  0
 30 31  1  0
 31 32  1  0
 32 33  1  0
 33 34  1  0
 34 35  1  0
 35 36  1  0
M  END
