
     RDKit          3D

 36 38  0  0  0  0  0  0  0  0999 V2000
    1.3210   -2.6200   -2.8990 O   0  0  0  0  0  0  0  0  0  0  0  0
    1.4180   -2.4920   -1.6300 C   0  0  0  0  0  0  0  0  0  0  0  0
    1.1300   -1.3110   -0.9740 N   0  0  0  0  0  0  0  0  0  0  0  0
    1.8460   -0.3590   -0.5720 C   0  0  0  0  0  0  0  0  0  0  0  0
    1.1340    0.6860    0.0700 O   0  0  0  0  0  0  0  0  0  0  0  0
   -0.2520    0.5100    0.4140 C   0  0  2  0  0  0  0  0  0  0  0  0
   -0.6480    1.8130    1.0680 C   0  0  0  0  0  0  0  0  0  0  0  0
   -0.7210    2.9900    0.1440 C   0  0  0  0  0  0  0  0  0  0  0  0
   -2.0150    3.2640   -0.3610 O   0  0  0  0  0  0  0  0  0  0  0  0
   -3.2320    2.6640   -0.0590 C   0  0  0  0  0  0  0  0  0  0  0  0
   -3.6870    1.4090   -0.4160 C   0  0  0  0  0  0  0  0  0  0  0  0
   -4.9220    1.0720    0.0360 C   0  0  0  0  0  0  0  0  0  0  0  0
   -5.6600    1.9640    0.8010 N   0  0  0  0  0  0  0  0  0  0  0  0
   -5.2350    3.1750    1.1460 C   0  0  0  0  0  0  0  0  0  0  0  0
   -4.0190    3.4950    0.7030 N   0  0  0  0  0  0  0  0  0  0  0  0
   -5.6930   -0.2050   -0.0430 C   0  0  0  0  0  0  0  0  0  0  0  0
   -5.1150   -1.4090    0.1090 C   0  0  0  0  0  0  0  0  0  0  0  0
   -3.6750   -1.3840    0.3560 N   0  0  0  0  0  0  0  0  0  0  0  0
   -3.2230   -2.5460    0.4830 C   0  0  0  0  0  0  0  0  0  0  0  0
   -1.7330   -2.6350    0.7410 C   0  0  0  0  0  0  0  0  0  0  0  0
   -1.3130   -1.5510    1.4840 O   0  0  0  0  0  0  0  0  0  0  0  0
   -0.3530   -0.6260    1.3770 C   0  0  0  0  0  0  0  0  0  0  0  0
    0.6440   -0.6780    2.1940 O   0  0  0  0  0  0  0  0  0  0  0  0
   -4.2630   -3.4120    0.3410 O   0  0  0  0  0  0  0  0  0  0  0  0
   -5.4470   -2.7200    0.1090 O   0  0  0  0  0  0  0  0  0  0  0  0
    3.2940   -0.1700   -0.6680 C   0  0  2  0  0  0  0  0  0  0  0  0
    4.0650   -1.2640   -1.3160 C   0  0  0  0  0  0  0  0  0  0  0  0
    5.3950   -0.8010   -1.4650 O   0  0  0  0  0  0  0  0  0  0  0  0
    3.8910    0.0980    0.5880 O   0  0  0  0  0  0  0  0  0  0  0  0
    4.5040    1.2810    0.9240 C   0  0  0  0  0  0  0  0  0  0  0  0
    4.5210    2.1830    0.0230 O   0  0  0  0  0  0  0  0  0  0  0  0
    5.0840    1.5240    2.1610 O   0  0  0  0  0  0  0  0  0  0  0  0
    5.6610    2.7210    2.3910 O   0  0  0  0  0  0  0  0  0  0  0  0
    6.2630    3.1540    1.2890 O   0  0  0  0  0  0  0  0  0  0  0  0
    1.8430   -3.6420   -0.9310 N   0  0  0  0  0  0  0  0  0  0  0  0
    2.1280   -4.7990   -1.5390 O   0  0  0  0  0  0  0  0  0  0  0  0
  1  2  2  0
  2  3  1  0
  2 35  1  0
  3  4  2  3
  4  5  1  0
  4 26  1  0
  6  5  1  1
  6  7  1  0
  6 22  1  0
  7  8  1  0
  8  9  1  0
  9 10  1  0
 10 11  1  0
 10 15  2  0
 11 12  2  0
 12 13  1  0
 12 16  1  0
 13 14  2  0
 14 15  1  0
 16 17  2  0
 17 18  1  0
 17 25  1  0
 18 19  2  0
 19 20  1  0
 19 24  1  0
 20 21  1  0
 21 22  1  0
 22 23  2  0
 24 25  1  0
 26 27  1  1
 26 29  1  0
 27 28  1  0
 29 30  1  0
 30 31  2  0
 30 32  1  0
 32 33  1  0
 33 34  1  0
 35 36  1  0
M  END
