
     RDKit          3D

 36 38  0  0  0  0  0  0  0  0999 V2000
    5.3320   -1.1440   -3.7630 O   0  0  0  0  0  0  0  0  0  0  0  0
    5.1940   -1.0380   -2.5330 C   0  0  0  0  0  0  0  0  0  0  0  0
    4.6490   -0.8520   -1.3680 C   0  0  0  0  0  0  0  0  0  0  0  0
    4.0920    0.4500   -0.9400 C   0  0  1  0  0  0  0  0  0  0  0  0
    2.7710    0.6410   -1.4130 O   0  0  0  0  0  0  0  0  0  0  0  0
    1.7770   -0.2540   -1.0400 C   0  0  0  0  0  0  0  0  0  0  0  0
    2.0920   -1.2260   -0.2770 O   0  0  0  0  0  0  0  0  0  0  0  0
    0.4730   -0.0550   -1.5150 N   0  0  0  0  0  0  0  0  0  0  0  0
   -0.5940   -0.9330   -1.1710 C   0  0  2  0  0  0  0  0  0  0  0  0
   -1.2250   -1.6000   -2.3490 C   0  0  0  0  0  0  0  0  0  0  0  0
   -0.6650   -1.6260   -3.4760 O   0  0  0  0  0  0  0  0  0  0  0  0
   -2.4640   -2.1900   -2.1340 O   0  0  0  0  0  0  0  0  0  0  0  0
   -3.3330   -1.8400   -1.1130 C   0  0  0  0  0  0  0  0  0  0  0  0
   -4.6550   -2.5100   -0.9300 C   0  0  2  0  0  0  0  0  0  0  0  0
   -4.5010   -3.9980   -0.6910 C   0  0  0  0  0  0  0  0  0  0  0  0
   -5.6530   -4.5430   -1.2700 O   0  0  0  0  0  0  0  0  0  0  0  0
   -6.3660   -3.4840   -1.8140 C   0  0  0  0  0  0  0  0  0  0  0  0
   -5.4000   -2.4950   -2.1070 O   0  0  0  0  0  0  0  0  0  0  0  0
   -2.9360   -0.8880   -0.3130 N   0  0  0  0  0  0  0  0  0  0  0  0
   -1.6980   -0.2350   -0.4560 C   0  0  0  0  0  0  0  0  0  0  0  0
   -1.4980    0.9290    0.0050 N   0  0  0  0  0  0  0  0  0  0  0  0
   -2.4030    1.6750    0.6710 O   0  0  0  0  0  0  0  0  0  0  0  0
   -3.6770    1.1890    0.9960 C   0  0  0  0  0  0  0  0  0  0  0  0
   -4.3940    2.3090    1.7370 C   0  0  0  0  0  0  0  0  0  0  0  0
   -3.6410    2.5970    2.8740 O   0  0  0  0  0  0  0  0  0  0  0  0
   -4.2480    3.5640    3.5270 O   0  0  0  0  0  0  0  0  0  0  0  0
   -4.3940    4.5650    2.6750 O   0  0  0  0  0  0  0  0  0  0  0  0
   -5.6370    4.9580    2.7200 O   0  0  0  0  0  0  0  0  0  0  0  0
    4.0240    0.5300    0.5720 C   0  0  0  0  0  0  0  0  0  0  0  0
    5.1200    1.3710    0.9500 N   0  0  0  0  0  0  0  0  0  0  0  0
    5.6830    1.4510    2.2810 C   0  0  0  0  0  0  0  0  0  0  0  0
    6.8070    0.4400    2.4630 C   0  0  0  0  0  0  0  0  0  0  0  0
    6.2710   -0.8220    2.2600 O   0  0  0  0  0  0  0  0  0  0  0  0
    5.5420    2.0950   -0.1970 C   0  0  0  0  0  0  0  0  0  0  0  0
    6.3340    3.0700   -0.2570 O   0  0  0  0  0  0  0  0  0  0  0  0
    4.9160    1.5450   -1.3640 N   0  0  0  0  0  0  0  0  0  0  0  0
  1  2  2  0
  2  3  2  0
  3  4  1  0
  4  5  1  6
  4 29  1  0
  4 36  1  0
  5  6  1  0
  6  7  2  0
  6  8  1  0
  9  8  1  6
  9 10  1  0
  9 20  1  0
 10 11  2  0
 10 12  1  0
 12 13  1  0
 14 13  1  6
 13 19  2  0
 14 15  1  0
 14 18  1  0
 15 16  1  0
 16 17  1  0
 17 18  1  0
 19 20  1  0
 20 21  2  3
 21 22  1  0
 22 23  1  0
 23 24  1  0
 24 25  1  0
 25 26  1  0
 26 27  1  0
 27 28  1  0
 29 30  1  0
 30 31  1  0
 30 34  1  0
 31 32  1  0
 32 33  1  0
 34 35  2  0
 34 36  1  0
M  END
