
     RDKit          3D

 29 32  0  0  0  0  0  0  0  0999 V2000
    6.0630    2.2820   -1.5990 C   0  0  0  0  0  0  0  0  0  0  0  0
    5.7610    0.8420   -1.3700 C   0  0  0  0  0  0  0  0  0  0  0  0
    6.2240   -0.1590   -2.1260 N   0  0  0  0  0  0  0  0  0  0  0  0
    5.7410   -1.2630   -1.6090 N   0  0  0  0  0  0  0  0  0  0  0  0
    4.9720   -0.9890   -0.5270 C   0  0  0  0  0  0  0  0  0  0  0  0
    4.9850    0.3300   -0.3790 N   0  0  0  0  0  0  0  0  0  0  0  0
    4.2880    1.0240    0.6660 C   0  0  0  0  0  0  0  0  0  0  0  0
    2.8250    1.0950    0.2980 C   0  0  0  0  0  0  0  0  0  0  0  0
    1.9660    0.8670    1.4860 C   0  0  0  0  0  0  0  0  0  0  0  0
    2.5950    0.4820    2.5440 O   0  0  0  0  0  0  0  0  0  0  0  0
    0.5730    1.0250    1.5870 N   0  0  0  0  0  0  0  0  0  0  0  0
   -0.5150    0.3060    1.0250 C   0  0  0  0  0  0  0  0  0  0  0  0
   -1.4260    1.1440    0.3460 C   0  0  0  0  0  0  0  0  0  0  0  0
   -2.6010    0.6870   -0.1850 C   0  0  0  0  0  0  0  0  0  0  0  0
   -2.9110   -0.6460   -0.0530 C   0  0  0  0  0  0  0  0  0  0  0  0
   -2.0470   -1.4760    0.5990 C   0  0  0  0  0  0  0  0  0  0  0  0
   -0.8100   -1.0500    1.1660 C   0  0  0  0  0  0  0  0  0  0  0  0
   -0.0290   -2.0790    1.8060 C   0  0  0  0  0  0  0  0  0  0  0  0
    1.0110   -2.8320    1.5100 C   0  0  0  0  0  0  0  0  0  0  0  0
    1.8680   -2.9770    0.3590 C   0  0  0  0  0  0  0  0  0  0  0  0
    1.6430   -4.0680   -0.3950 O   0  0  0  0  0  0  0  0  0  0  0  0
    2.9200   -2.1960   -0.1550 N   0  0  0  0  0  0  0  0  0  0  0  0
    4.1940   -1.8320    0.4170 C   0  0  0  0  0  0  0  0  0  0  0  0
   -4.1900   -1.1100   -0.6470 C   0  0  0  0  0  0  0  0  0  0  0  0
   -5.2740   -0.1840   -0.5610 N   0  0  0  0  0  0  0  0  0  0  0  0
   -6.3200   -0.7560    0.2240 C   0  0  0  0  0  0  0  0  0  0  0  0
   -4.9280    1.1460   -0.2220 C   0  0  2  0  0  0  0  0  0  0  0  0
   -6.0240    2.1040   -0.6080 C   0  0  0  0  0  0  0  0  0  0  0  0
   -3.6020    1.5140   -0.9040 C   0  0  0  0  0  0  0  0  0  0  0  0
  1  2  1  0
  2  3  2  0
  2  6  1  0
  3  4  1  0
  4  5  2  0
  5  6  1  0
  5 23  1  0
  6  7  1  0
  7  8  1  0
  8  9  1  0
  9 10  2  0
  9 11  1  0
 11 12  1  0
 12 13  2  0
 12 17  1  0
 13 14  1  0
 14 15  2  0
 14 29  1  0
 15 16  1  0
 15 24  1  0
 16 17  2  0
 17 18  1  0
 18 19  2  0
 19 20  1  0
 20 21  2  0
 20 22  1  0
 22 23  1  0
 24 25  1  0
 25 26  1  0
 25 27  1  0
 27 28  1  6
 27 29  1  0
M  END
