
     RDKit          3D

 30 32  0  0  0  0  0  0  0  0999 V2000
    5.9340   -2.3410    0.3210 C   0  0  0  0  0  0  0  0  0  0  0  0
    4.7240   -1.6210    0.3100 O   0  0  0  0  0  0  0  0  0  0  0  0
    4.7880   -0.2330    0.1590 C   0  0  0  0  0  0  0  0  0  0  0  0
    6.0150    0.3710    0.0290 C   0  0  0  0  0  0  0  0  0  0  0  0
    6.0680    1.7380   -0.1180 C   0  0  0  0  0  0  0  0  0  0  0  0
    4.8800    2.4280   -0.1280 C   0  0  0  0  0  0  0  0  0  0  0  0
    5.0100    4.3280   -0.3360 Br  0  0  0  0  0  0  0  0  0  0  0  0
    3.6460    1.8270    0.0020 C   0  0  0  0  0  0  0  0  0  0  0  0
    2.4700    2.7090   -0.0070 C   0  0  0  0  0  0  0  0  0  0  0  0
    1.2000    2.0230    0.0930 N   0  0  0  0  0  0  0  0  0  0  0  0
    0.7230    1.1420   -0.9150 C   0  0  0  0  0  0  0  0  0  0  0  0
    1.5290    1.0380   -1.9110 O   0  0  0  0  0  0  0  0  0  0  0  0
   -0.5000    0.4110   -0.9140 C   0  0  0  0  0  0  0  0  0  0  0  0
   -0.9150   -0.3850   -1.9960 C   0  0  0  0  0  0  0  0  0  0  0  0
   -2.1180   -0.9580   -1.7210 C   0  0  0  0  0  0  0  0  0  0  0  0
   -2.8830   -1.8700   -2.6240 C   0  0  0  0  0  0  0  0  0  0  0  0
   -2.4820   -0.5590   -0.5100 N   0  0  0  0  0  0  0  0  0  0  0  0
   -3.6820   -0.9300    0.1620 C   0  0  0  0  0  0  0  0  0  0  0  0
   -3.8680   -2.2240    0.5920 C   0  0  0  0  0  0  0  0  0  0  0  0
   -5.0160   -2.6230    1.2470 C   0  0  0  0  0  0  0  0  0  0  0  0
   -5.2050   -3.9060    1.6750 F   0  0  0  0  0  0  0  0  0  0  0  0
   -6.0280   -1.7310    1.4960 C   0  0  0  0  0  0  0  0  0  0  0  0
   -7.1800   -2.0830    2.1410 F   0  0  0  0  0  0  0  0  0  0  0  0
   -5.8580   -0.4330    1.0730 C   0  0  0  0  0  0  0  0  0  0  0  0
   -4.7110   -0.0280    0.4170 C   0  0  0  0  0  0  0  0  0  0  0  0
   -4.5770    1.3410   -0.0090 C   0  0  0  0  0  0  0  0  0  0  0  0
   -5.4880    2.1610    0.2120 O   0  0  0  0  0  0  0  0  0  0  0  0
   -1.5120    0.2690   -0.0120 C   0  0  0  0  0  0  0  0  0  0  0  0
   -1.5690    0.9020    1.3090 C   0  0  0  0  0  0  0  0  0  0  0  0
    3.5920    0.4700    0.1490 C   0  0  0  0  0  0  0  0  0  0  0  0
  1  2  1  0
  2  3  1  0
  3  4  2  0
  3 30  1  0
  4  5  1  0
  5  6  2  0
  6  7  1  0
  6  8  1  0
  8  9  1  0
  8 30  2  0
  9 10  1  0
 10 11  1  0
 11 12  2  0
 11 13  1  0
 13 14  1  0
 13 28  2  0
 14 15  2  0
 15 16  1  0
 15 17  1  0
 17 18  1  0
 17 28  1  0
 18 19  2  0
 18 25  1  0
 19 20  1  0
 20 21  1  0
 20 22  2  0
 22 23  1  0
 22 24  1  0
 24 25  2  0
 25 26  1  0
 26 27  2  0
 28 29  1  0
M  END
