
     RDKit          3D

 23 25  0  0  0  0  0  0  0  0999 V2000
    4.7640    1.4370    1.6830 N   0  0  0  0  0  0  0  0  0  0  0  0
    5.1230    0.7930    0.4450 C   0  0  0  0  0  0  0  0  0  0  0  0
    4.3910    1.3870   -0.7440 C   0  0  0  0  0  0  0  0  0  0  0  0
    2.8980    1.2580   -0.6030 C   0  0  0  0  0  0  0  0  0  0  0  0
    2.5030   -0.1930   -0.4980 C   0  0  2  0  0  0  0  0  0  0  0  0
    2.9260   -0.9800   -1.7280 C   0  0  0  0  0  0  0  0  0  0  0  0
    2.1110   -2.2460   -1.5620 C   0  0  0  0  0  0  0  0  0  0  0  0
    0.8450   -1.7410   -0.8770 C   0  0  0  0  0  0  0  0  0  0  0  0
    1.0910   -0.3890   -0.5020 N   0  0  0  0  0  0  0  0  0  0  0  0
    0.4590    0.0540    0.6990 C   0  0  0  0  0  0  0  0  0  0  0  0
   -0.9760   -0.0310    0.6470 N   0  0  0  0  0  0  0  0  0  0  0  0
   -1.7270   -1.1620    1.0470 C   0  0  0  0  0  0  0  0  0  0  0  0
   -3.0350   -1.2630    1.0090 C   0  0  0  0  0  0  0  0  0  0  0  0
   -3.7340   -2.4450    1.4320 N   0  0  0  0  0  0  0  0  0  0  0  0
   -3.7900   -0.1590    0.5320 N   0  0  0  0  0  0  0  0  0  0  0  0
   -5.1780   -0.4050    0.5470 C   0  0  0  0  0  0  0  0  0  0  0  0
   -6.1600    0.3990    0.1740 C   0  0  0  0  0  0  0  0  0  0  0  0
   -6.0950    1.7440   -0.3490 C   0  0  0  0  0  0  0  0  0  0  0  0
   -5.0330    2.4860   -0.5780 C   0  0  0  0  0  0  0  0  0  0  0  0
   -3.6680    2.1250   -0.3560 N   0  0  0  0  0  0  0  0  0  0  0  0
   -3.1410    1.0400    0.1000 C   0  0  0  0  0  0  0  0  0  0  0  0
   -1.6870    1.0990    0.1620 C   0  0  0  0  0  0  0  0  0  0  0  0
   -1.0980    2.1560   -0.2180 O   0  0  0  0  0  0  0  0  0  0  0  0
  1  2  1  0
  2  3  1  0
  3  4  1  0
  5  4  1  6
  5  6  1  0
  5  9  1  0
  6  7  1  0
  7  8  1  0
  8  9  1  0
  9 10  1  0
 10 11  1  0
 11 12  1  0
 11 22  1  0
 12 13  2  0
 13 14  1  0
 13 15  1  0
 15 16  1  0
 15 21  1  0
 16 17  2  0
 17 18  1  0
 18 19  2  0
 19 20  1  0
 20 21  2  0
 21 22  1  0
 22 23  2  0
M  END
