
     RDKit          3D

 12 13  0  0  0  0  0  0  0  0999 V2000
   -1.9350    1.3950   -1.8930 O   0  0  0  0  0  0  0  0  0  0  0  0
   -1.4800    1.4780   -0.4950 S   0  0  1  0  0  0  0  0  0  0  0  0
   -1.5250    2.8340    0.1030 O   0  0  0  0  0  0  0  0  0  0  0  0
   -2.3450    0.3420    0.5380 N   0  0  0  0  0  0  0  0  0  0  0  0
   -1.5590   -0.8470    0.3080 C   0  0  1  0  0  0  0  0  0  0  0  0
   -1.9600   -1.4790   -0.8720 O   0  0  0  0  0  0  0  0  0  0  0  0
   -0.1330   -0.5100    0.2210 C   0  0  0  0  0  0  0  0  0  0  0  0
    0.9880   -1.3210    0.5320 C   0  0  0  0  0  0  0  0  0  0  0  0
    2.2560   -0.8200    0.3680 C   0  0  0  0  0  0  0  0  0  0  0  0
    2.4880    0.4570   -0.0940 C   0  0  0  0  0  0  0  0  0  0  0  0
    1.3880    1.2330   -0.3910 C   0  0  0  0  0  0  0  0  0  0  0  0
    0.0960    0.7540   -0.2350 C   0  0  0  0  0  0  0  0  0  0  0  0
  1  2  2  0
  2  3  2  0
  2  4  1  1
  2 12  1  0
  4  5  1  0
  5  6  1  6
  5  7  1  0
  7  8  2  0
  7 12  1  0
  8  9  1  0
  9 10  2  0
 10 11  1  0
 11 12  2  0
M  END
