
     RDKit          3D

 22 25  0  0  0  0  0  0  0  0999 V2000
    3.7860    0.4640    1.4770 O   0  0  0  0  0  0  0  0  0  0  0  0
    2.9410   -0.1060    0.5250 C   0  0  1  0  0  0  0  0  0  0  0  0
    1.6440    0.6250    0.4820 C   0  0  0  0  0  0  0  0  0  0  0  0
    0.6650    0.0680   -0.5310 C   0  0  0  0  0  0  0  0  0  0  0  0
   -0.5800    0.9010   -0.4490 C   0  0  0  0  0  0  0  0  0  0  0  0
   -1.7440    0.3410   -0.2290 C   0  0  0  0  0  0  0  0  0  0  0  0
   -1.9360   -1.0890   -0.0580 C   0  0  0  0  0  0  0  0  0  0  0  0
   -1.5030   -2.0440   -0.9390 C   0  0  0  0  0  0  0  0  0  0  0  0
   -1.7350   -3.3830   -0.6480 C   0  0  0  0  0  0  0  0  0  0  0  0
   -2.3660   -3.7720    0.4590 N   0  0  0  0  0  0  0  0  0  0  0  0
   -2.8000   -2.8700    1.3340 C   0  0  0  0  0  0  0  0  0  0  0  0
   -2.5870   -1.5130    1.0820 C   0  0  0  0  0  0  0  0  0  0  0  0
   -2.9800    1.1780   -0.1440 C   0  0  0  0  0  0  0  0  0  0  0  0
   -2.7520    2.5710   -0.3330 N   0  0  0  0  0  0  0  0  0  0  0  0
   -3.6530    3.5520   -0.3190 N   0  0  0  0  0  0  0  0  0  0  0  0
   -3.0370    4.7030   -0.5310 C   0  0  0  0  0  0  0  0  0  0  0  0
   -1.7410    4.4770   -0.6830 N   0  0  0  0  0  0  0  0  0  0  0  0
   -1.5800    3.1410   -0.5570 C   0  0  0  0  0  0  0  0  0  0  0  0
   -0.4280    2.3250   -0.6250 N   0  0  0  0  0  0  0  0  0  0  0  0
    3.6450   -0.3880   -0.7390 C   0  0  0  0  0  0  0  0  0  0  0  0
    4.0020   -1.7080   -0.1920 N   0  0  0  0  0  0  0  0  0  0  0  0
    2.8750   -1.5920    0.7480 C   0  0  0  0  0  0  0  0  0  0  0  0
  2  1  1  1
  2  3  1  0
  2 20  1  0
  2 22  1  0
  3  4  1  0
  4  5  1  0
  5  6  2  0
  5 19  1  0
  6  7  1  0
  6 13  1  0
  7  8  2  0
  7 12  1  0
  8  9  1  0
  9 10  2  0
 10 11  1  0
 11 12  2  0
 13 14  1  0
 14 15  1  0
 14 18  1  0
 15 16  2  0
 16 17  1  0
 17 18  2  0
 18 19  1  0
 20 21  1  0
 21 22  1  0
M  CHG  1  21   1
M  END
