
     RDKit          3D

 23 26  0  0  0  0  0  0  0  0999 V2000
   -4.5640    3.0010    0.6940 C   0  0  0  0  0  0  0  0  0  0  0  0
   -3.9960    3.2040   -0.5100 N   0  0  0  0  0  0  0  0  0  0  0  0
   -3.2600    2.1650   -0.8190 O   0  0  0  0  0  0  0  0  0  0  0  0
   -3.3220    1.2590    0.1570 C   0  0  0  0  0  0  0  0  0  0  0  0
   -2.6000   -0.0350    0.1130 C   0  0  1  0  0  0  0  0  0  0  0  0
   -1.2430    0.2020    0.5520 N   0  0  0  0  0  0  0  0  0  0  0  0
   -0.5420    1.2400   -0.1270 C   0  0  0  0  0  0  0  0  0  0  0  0
    0.8840    0.7540   -0.2390 C   0  0  0  0  0  0  0  0  0  0  0  0
    1.4830    0.2790   -1.3390 N   0  0  0  0  0  0  0  0  0  0  0  0
    2.7340   -0.0720   -1.0570 N   0  0  0  0  0  0  0  0  0  0  0  0
    2.9610    0.1750    0.2480 C   0  0  0  0  0  0  0  0  0  0  0  0
    4.2520   -0.0830    0.9880 C   0  0  2  0  0  0  0  0  0  0  0  0
    5.1740    1.1000    0.8400 C   0  0  0  0  0  0  0  0  0  0  0  0
    5.9640    0.7640   -0.3900 C   0  0  0  0  0  0  0  0  0  0  0  0
    6.2340   -0.7160   -0.2330 C   0  0  0  0  0  0  0  0  0  0  0  0
    4.9210   -1.2360    0.3220 C   0  0  0  0  0  0  0  0  0  0  0  0
    1.8100    0.6860    0.7360 N   0  0  0  0  0  0  0  0  0  0  0  0
   -3.2060   -0.8700    1.2340 C   0  0  0  0  0  0  0  0  0  0  0  0
   -4.6010   -1.2410    0.7640 C   0  0  0  0  0  0  0  0  0  0  0  0
   -4.3770   -2.2870   -0.3180 C   0  0  0  0  0  0  0  0  0  0  0  0
   -3.6120   -1.7570   -1.4770 C   0  0  0  0  0  0  0  0  0  0  0  0
   -2.6380   -0.6590   -1.2120 C   0  0  0  0  0  0  0  0  0  0  0  0
   -4.1300    1.7790    1.0910 N   0  0  0  0  0  0  0  0  0  0  0  0
  1  2  2  0
  1 23  1  0
  2  3  1  0
  3  4  1  0
  4  5  1  0
  4 23  2  0
  5  6  1  1
  5 18  1  0
  5 22  1  0
  6  7  1  0
  7  8  1  0
  8  9  2  0
  8 17  1  0
  9 10  1  0
 10 11  2  0
 12 11  1  6
 11 17  1  0
 12 13  1  0
 12 16  1  0
 13 14  1  0
 14 15  1  0
 15 16  1  0
 18 19  1  0
 19 20  1  0
 20 21  1  0
 21 22  1  0
M  CHG  1   6   1
M  END
