
     RDKit          3D

 23 25  0  0  0  0  0  0  0  0999 V2000
    8.4500   -1.3860    1.8260 C   0  0  0  0  0  0  0  0  0  0  0  0
    7.0360   -1.0100    1.7930 N   0  0  0  0  0  0  0  0  0  0  0  0
    6.6440   -0.3420    0.7760 C   0  0  0  0  0  0  0  0  0  0  0  0
    7.3530    0.0960   -0.3310 O   0  0  0  0  0  0  0  0  0  0  0  0
    6.5190    0.7820   -1.1830 N   0  0  0  0  0  0  0  0  0  0  0  0
    5.3050    0.8240   -0.7090 C   0  0  0  0  0  0  0  0  0  0  0  0
    5.2750    0.1130    0.5790 C   0  0  0  0  0  0  0  0  0  0  0  0
    4.2300   -0.0350    1.3630 C   0  0  0  0  0  0  0  0  0  0  0  0
    2.9120    0.4730    1.0340 C   0  0  0  0  0  0  0  0  0  0  0  0
    2.2520    0.3420   -0.1680 C   0  0  0  0  0  0  0  0  0  0  0  0
    1.0620    0.9640   -0.1040 N   0  0  0  0  0  0  0  0  0  0  0  0
    0.0620    1.0190   -1.1670 C   0  0  0  0  0  0  0  0  0  0  0  0
   -0.8620   -0.1900   -0.8750 C   0  0  1  0  0  0  0  0  0  0  0  0
   -1.4060    0.0510    0.4770 C   0  0  0  0  0  0  0  0  0  0  0  0
   -2.8480   -0.2810    0.7050 C   0  0  0  0  0  0  0  0  0  0  0  0
   -3.5980    0.3070   -0.4750 C   0  0  2  0  0  0  0  0  0  0  0  0
   -5.0460    0.4950   -0.2120 C   0  0  0  0  0  0  0  0  0  0  0  0
   -5.7870   -0.7600    0.1240 C   0  0  0  0  0  0  0  0  0  0  0  0
   -7.1790   -0.4250    0.3490 N   0  0  0  0  0  0  0  0  0  0  0  0
   -3.2380   -0.5430   -1.6420 C   0  0  0  0  0  0  0  0  0  0  0  0
   -1.7990   -0.2910   -2.0070 C   0  0  0  0  0  0  0  0  0  0  0  0
    0.9790    1.4710    1.1070 N   0  0  0  0  0  0  0  0  0  0  0  0
    2.0750    1.1910    1.8100 N   0  0  0  0  0  0  0  0  0  0  0  0
  1  2  1  0
  2  3  2  3
  3  4  1  0
  3  7  1  0
  4  5  1  0
  5  6  2  0
  6  7  1  0
  7  8  2  3
  8  9  1  0
  9 10  2  0
  9 23  1  0
 10 11  1  0
 11 12  1  0
 11 22  1  0
 13 12  1  6
 13 14  1  0
 13 21  1  0
 14 15  1  0
 15 16  1  0
 16 17  1  1
 16 20  1  0
 17 18  1  0
 18 19  1  0
 20 21  1  0
 22 23  2  0
M  CHG  1  19   1
M  END
