
     RDKit          3D

 29 32  0  0  0  0  0  0  0  0999 V2000
    0.5160    3.5270   -0.8670 C   0  0  0  0  0  0  0  0  0  0  0  0
   -0.8400    3.6230   -0.2730 C   0  0  0  0  0  0  0  0  0  0  0  0
   -1.1490    4.8240    0.2560 C   0  0  0  0  0  0  0  0  0  0  0  0
   -2.3620    5.2910    0.9150 C   0  0  0  0  0  0  0  0  0  0  0  0
   -3.6370    4.8430    0.3270 C   0  0  0  0  0  0  0  0  0  0  0  0
   -3.9240    3.6560   -0.1770 C   0  0  0  0  0  0  0  0  0  0  0  0
   -3.0220    2.4850   -0.2720 C   0  0  0  0  0  0  0  0  0  0  0  0
   -1.7040    2.4630   -0.3130 C   0  0  0  0  0  0  0  0  0  0  0  0
   -1.0600    1.1820   -0.4070 C   0  0  0  0  0  0  0  0  0  0  0  0
    0.2790    1.1150   -0.4230 N   0  0  0  0  0  0  0  0  0  0  0  0
    0.8800   -0.0870   -0.5130 C   0  0  0  0  0  0  0  0  0  0  0  0
    2.3340   -0.1770   -0.5310 C   0  0  0  0  0  0  0  0  0  0  0  0
    2.9340   -1.3150   -0.6170 N   0  0  0  0  0  0  0  0  0  0  0  0
    4.3200   -1.3840   -0.6330 N   0  0  0  0  0  0  0  0  0  0  0  0
    5.1340   -0.7680    0.3640 C   0  0  0  0  0  0  0  0  0  0  0  0
    4.7310   -0.2680    1.4610 N   0  0  0  0  0  0  0  0  0  0  0  0
    5.8340    0.2720    2.2280 C   0  0  0  0  0  0  0  0  0  0  0  0
    7.0270   -0.4550    1.6720 C   0  0  0  0  0  0  0  0  0  0  0  0
    6.6130   -0.6420    0.2190 C   0  0  0  0  0  0  0  0  0  0  0  0
    0.1610   -1.2600   -0.5910 C   0  0  0  0  0  0  0  0  0  0  0  0
   -1.2160   -1.1980   -0.5750 C   0  0  0  0  0  0  0  0  0  0  0  0
   -2.0080   -2.3630   -0.6530 N   0  0  0  0  0  0  0  0  0  0  0  0
   -1.4980   -3.6920   -0.7460 C   0  0  0  0  0  0  0  0  0  0  0  0
   -2.1710   -4.4450    0.4180 C   0  0  0  0  0  0  0  0  0  0  0  0
   -3.4990   -4.5460    0.0960 O   0  0  0  0  0  0  0  0  0  0  0  0
   -4.1770   -3.3850   -0.0800 C   0  0  2  0  0  0  0  0  0  0  0  0
   -5.3590   -3.6960   -1.0060 C   0  0  0  0  0  0  0  0  0  0  0  0
   -3.4430   -2.2350   -0.6410 C   0  0  0  0  0  0  0  0  0  0  0  0
   -1.7660    0.0350   -0.4830 N   0  0  0  0  0  0  0  0  0  0  0  0
  1  2  1  0
  2  3  2  0
  2  8  1  0
  3  4  1  0
  4  5  1  0
  5  6  2  0
  6  7  1  0
  7  8  2  0
  8  9  1  0
  9 10  2  0
  9 29  1  0
 10 11  1  0
 11 12  1  0
 11 20  2  0
 12 13  2  3
 13 14  1  0
 14 15  1  0
 15 16  2  0
 15 19  1  0
 16 17  1  0
 17 18  1  0
 18 19  1  0
 20 21  1  0
 21 22  1  0
 21 29  2  0
 22 23  1  0
 22 28  1  0
 23 24  1  0
 24 25  1  0
 25 26  1  0
 26 27  1  6
 26 28  1  0
M  CHG  1  16   1
M  END
