
     RDKit          3D

 31 35  0  0  0  0  0  0  0  0999 V2000
   -4.3100    1.1780    3.4850 N   0  0  0  0  0  0  0  0  0  0  0  0
   -3.9580    1.8550    2.2550 C   0  0  1  0  0  0  0  0  0  0  0  0
   -2.7280    1.3230    1.5670 C   0  0  0  0  0  0  0  0  0  0  0  0
   -1.6040    0.8680    0.9880 N   0  0  0  0  0  0  0  0  0  0  0  0
   -1.6080    0.1370   -0.1390 C   0  0  0  0  0  0  0  0  0  0  0  0
   -0.4090   -0.3340   -0.7420 N   0  0  0  0  0  0  0  0  0  0  0  0
    0.8400   -0.0060   -0.1110 C   0  0  0  0  0  0  0  0  0  0  0  0
    2.0230   -0.5570   -0.8780 C   0  0  0  0  0  0  0  0  0  0  0  0
    3.2810   -0.1810   -0.1680 C   0  0  0  0  0  0  0  0  0  0  0  0
    3.3990    0.5250    0.9770 N   0  0  0  0  0  0  0  0  0  0  0  0
    4.6880    0.6250    1.2440 N   0  0  0  0  0  0  0  0  0  0  0  0
    5.3940   -0.0130    0.2790 C   0  0  0  0  0  0  0  0  0  0  0  0
    6.8390   -0.1460    0.1840 C   0  0  0  0  0  0  0  0  0  0  0  0
    7.3870   -0.8320   -0.8740 C   0  0  0  0  0  0  0  0  0  0  0  0
    8.7550   -0.9920   -1.0200 C   0  0  0  0  0  0  0  0  0  0  0  0
    9.5960   -0.4480   -0.0760 C   0  0  0  0  0  0  0  0  0  0  0  0
   11.3350   -0.6270   -0.2210 Cl  0  0  0  0  0  0  0  0  0  0  0  0
    9.0270    0.2370    0.9800 C   0  0  0  0  0  0  0  0  0  0  0  0
    7.6710    0.3770    1.0920 N   0  0  0  0  0  0  0  0  0  0  0  0
    4.4890   -0.4820   -0.5510 O   0  0  0  0  0  0  0  0  0  0  0  0
   -2.8130   -0.1280   -0.6770 N   0  0  0  0  0  0  0  0  0  0  0  0
   -3.9740    0.2940   -0.1530 C   0  0  0  0  0  0  0  0  0  0  0  0
   -5.2420   -0.0340   -0.7930 C   0  0  0  0  0  0  0  0  0  0  0  0
   -6.1640    0.9390   -1.1390 C   0  0  0  0  0  0  0  0  0  0  0  0
   -7.3540    0.5990   -1.7450 C   0  0  0  0  0  0  0  0  0  0  0  0
   -7.6800   -0.7100   -2.0330 C   0  0  0  0  0  0  0  0  0  0  0  0
   -9.1960   -1.1480   -2.8070 Cl  0  0  0  0  0  0  0  0  0  0  0  0
   -6.7750   -1.6870   -1.6960 C   0  0  0  0  0  0  0  0  0  0  0  0
   -5.5710   -1.3420   -1.0830 C   0  0  0  0  0  0  0  0  0  0  0  0
   -4.3980   -2.5850   -0.6430 Cl  0  0  0  0  0  0  0  0  0  0  0  0
   -3.9460    1.0430    1.0050 C   0  0  0  0  0  0  0  0  0  0  0  0
  2  1  1  1
  2  3  1  0
  2 31  1  0
  3  4  2  0
  3 31  1  0
  4  5  1  0
  5  6  1  0
  5 21  2  0
  6  7  1  0
  7  8  1  0
  8  9  1  0
  9 10  2  0
  9 20  1  0
 10 11  1  0
 11 12  2  0
 12 13  1  0
 12 20  1  0
 13 14  2  0
 13 19  1  0
 14 15  1  0
 15 16  2  0
 16 17  1  0
 16 18  1  0
 18 19  2  0
 21 22  1  0
 22 23  1  0
 22 31  2  0
 23 24  2  0
 23 29  1  0
 24 25  1  0
 25 26  2  0
 26 27  1  0
 26 28  1  0
 28 29  2  0
 29 30  1  0
M  CHG  1   1   1
M  END
