
     RDKit          3D

 30 33  0  0  0  0  0  0  0  0999 V2000
    5.3080   -1.0770   -1.3910 C   0  0  0  0  0  0  0  0  0  0  0  0
    4.9460    0.1890   -0.7380 C   0  0  0  0  0  0  0  0  0  0  0  0
    3.6250    0.5860   -0.7670 C   0  0  0  0  0  0  0  0  0  0  0  0
    2.6640   -0.2340   -1.4230 N   0  0  0  0  0  0  0  0  0  0  0  0
    1.2590    0.1220   -1.4910 C   0  0  0  0  0  0  0  0  0  0  0  0
    0.5990    0.2520   -0.1940 C   0  0  0  0  0  0  0  0  0  0  0  0
   -0.3570   -0.4090    0.3650 C   0  0  0  0  0  0  0  0  0  0  0  0
   -1.0530   -1.5360   -0.1920 C   0  0  0  0  0  0  0  0  0  0  0  0
   -0.4990   -2.3470   -1.1640 C   0  0  0  0  0  0  0  0  0  0  0  0
   -1.2340   -3.3400   -1.7580 C   0  0  0  0  0  0  0  0  0  0  0  0
   -2.5000   -3.5360   -1.3960 N   0  0  0  0  0  0  0  0  0  0  0  0
   -3.0840   -2.7810   -0.4590 C   0  0  0  0  0  0  0  0  0  0  0  0
   -4.3430   -2.7940    0.0510 N   0  0  0  0  0  0  0  0  0  0  0  0
   -4.4090   -1.8270    0.9540 C   0  0  0  0  0  0  0  0  0  0  0  0
   -5.6160   -1.5540    1.6970 N   0  0  0  0  0  0  0  0  0  0  0  0
   -3.2090   -1.1610    1.0600 N   0  0  0  0  0  0  0  0  0  0  0  0
   -2.9950   -0.0760    1.9440 C   0  0  0  0  0  0  0  0  0  0  0  0
   -3.2460    1.2530    1.3180 C   0  0  0  0  0  0  0  0  0  0  0  0
   -2.3960    2.1810    0.8740 N   0  0  0  0  0  0  0  0  0  0  0  0
   -3.0970    3.2410    0.3750 C   0  0  0  0  0  0  0  0  0  0  0  0
   -4.4060    2.9160    0.5350 C   0  0  0  0  0  0  0  0  0  0  0  0
   -4.4550    1.7490    1.0890 O   0  0  0  0  0  0  0  0  0  0  0  0
   -2.3990   -1.7630    0.1780 C   0  0  0  0  0  0  0  0  0  0  0  0
    3.2570    1.7410   -0.1790 N   0  0  0  0  0  0  0  0  0  0  0  0
    4.1730    2.5170    0.4420 C   0  0  0  0  0  0  0  0  0  0  0  0
    3.7210    4.0230    1.2140 Cl  0  0  0  0  0  0  0  0  0  0  0  0
    5.4960    2.1520    0.4900 C   0  0  0  0  0  0  0  0  0  0  0  0
    6.7170    3.1360    1.2880 Cl  0  0  0  0  0  0  0  0  0  0  0  0
    5.8690    0.9760   -0.1100 C   0  0  0  0  0  0  0  0  0  0  0  0
    7.5420    0.4500   -0.0860 Cl  0  0  0  0  0  0  0  0  0  0  0  0
  1  2  1  0
  2  3  2  0
  2 29  1  0
  3  4  1  0
  3 24  1  0
  4  5  1  0
  5  6  1  0
  6  7  2  3
  7  8  1  0
  8  9  2  0
  8 23  1  0
  9 10  1  0
 10 11  2  0
 11 12  1  0
 12 13  1  0
 12 23  2  0
 13 14  2  0
 14 15  1  0
 14 16  1  0
 16 17  1  0
 16 23  1  0
 17 18  1  0
 18 19  2  0
 18 22  1  0
 19 20  1  0
 20 21  2  0
 21 22  1  0
 24 25  2  0
 25 26  1  0
 25 27  1  0
 27 28  1  0
 27 29  2  0
 29 30  1  0
M  CHG  1  19   1
M  END
