
     RDKit          3D

 31 35  0  0  0  0  0  0  0  0999 V2000
   -2.5490    1.4090    3.0590 C   0  0  0  0  0  0  0  0  0  0  0  0
   -2.8060    0.6600    1.9680 C   0  0  0  0  0  0  0  0  0  0  0  0
   -3.1580   -0.7580    2.1040 C   0  0  0  0  0  0  0  0  0  0  0  0
   -3.4000   -1.3830    0.7930 C   0  0  0  0  0  0  0  0  0  0  0  0
   -3.3150   -0.7700   -0.3640 C   0  0  0  0  0  0  0  0  0  0  0  0
   -3.6310   -1.7380   -1.4650 C   0  0  0  0  0  0  0  0  0  0  0  0
   -4.4410   -2.7170   -0.7710 N   0  0  0  0  0  0  0  0  0  0  0  0
   -3.7820   -2.8100    0.5230 C   0  0  0  0  0  0  0  0  0  0  0  0
   -2.9580    0.6490   -0.4700 C   0  0  0  0  0  0  0  0  0  0  0  0
   -2.8890    1.2190   -1.7380 N   0  0  0  0  0  0  0  0  0  0  0  0
   -2.0850    2.3350   -2.1720 C   0  0  0  0  0  0  0  0  0  0  0  0
   -0.6550    2.0720   -1.7920 C   0  0  0  0  0  0  0  0  0  0  0  0
    0.3400    2.9900   -2.0560 C   0  0  0  0  0  0  0  0  0  0  0  0
    1.6620    2.7780   -1.7210 C   0  0  0  0  0  0  0  0  0  0  0  0
    2.9170    3.9660   -2.0700 Cl  0  0  0  0  0  0  0  0  0  0  0  0
    1.9830    1.5970   -1.0970 C   0  0  0  0  0  0  0  0  0  0  0  0
    3.3570    1.3000   -0.7120 C   0  0  0  0  0  0  0  0  0  0  0  0
    3.7940    0.1720   -0.0930 N   0  0  0  0  0  0  0  0  0  0  0  0
    5.1200    0.2410    0.1080 C   0  0  0  0  0  0  0  0  0  0  0  0
    6.0060   -0.7270    0.7300 C   0  0  0  0  0  0  0  0  0  0  0  0
    7.3310   -0.6490    0.9270 N   0  0  0  0  0  0  0  0  0  0  0  0
    7.7710   -1.7590    1.5380 N   0  0  0  0  0  0  0  0  0  0  0  0
    6.7450   -2.5980    1.7590 C   0  0  0  0  0  0  0  0  0  0  0  0
    5.6370   -1.9510    1.2530 C   0  0  0  0  0  0  0  0  0  0  0  0
    4.0240   -2.6660    1.3110 Cl  0  0  0  0  0  0  0  0  0  0  0  0
    5.4750    1.4340   -0.4020 N   0  0  0  0  0  0  0  0  0  0  0  0
    4.4300    2.0420   -0.8790 O   0  0  0  0  0  0  0  0  0  0  0  0
    0.9950    0.6790   -0.8310 C   0  0  0  0  0  0  0  0  0  0  0  0
   -0.2770    0.9340   -1.1780 N   0  0  0  0  0  0  0  0  0  0  0  0
   -2.7290    1.2820    0.6390 C   0  0  0  0  0  0  0  0  0  0  0  0
   -2.2940    2.9830    0.6280 Cl  0  0  0  0  0  0  0  0  0  0  0  0
  1  2  2  0
  2  3  1  0
  2 30  1  0
  3  4  1  0
  4  5  2  0
  4  8  1  0
  5  6  1  0
  5  9  1  0
  6  7  1  0
  7  8  1  0
  9 10  1  0
  9 30  2  0
 10 11  1  0
 11 12  1  0
 12 13  2  0
 12 29  1  0
 13 14  1  0
 14 15  1  0
 14 16  2  0
 16 17  1  0
 16 28  1  0
 17 18  2  0
 17 27  1  0
 18 19  1  0
 19 20  1  0
 19 26  2  0
 20 21  2  0
 20 24  1  0
 21 22  1  0
 22 23  1  0
 23 24  2  0
 24 25  1  0
 26 27  1  0
 28 29  2  0
 30 31  1  0
M  CHG  1   7   1
M  END
