
     RDKit          3D

 20 20  0  0  0  0  0  0  0  0999 V2000
   -0.2840   -2.2590   -1.8880 O   0  0  0  0  0  0  0  0  0  0  0  0
    0.5110   -1.2070   -1.5240 C   0  0  0  0  0  0  0  0  0  0  0  0
    0.1690   -0.5740   -0.1970 C   0  0  1  0  0  0  0  0  0  0  0  0
    0.2560   -1.5140    0.9480 C   0  0  0  0  0  0  0  0  0  0  0  0
   -0.5820   -2.6120    0.8650 O   0  0  0  0  0  0  0  0  0  0  0  0
    1.2170    0.5270    0.0350 C   0  0  0  0  0  0  0  0  0  0  0  0
    2.5070   -0.0500    0.0620 O   0  0  0  0  0  0  0  0  0  0  0  0
    3.3880    1.0110    0.2760 C   0  0  0  0  0  0  0  0  0  0  0  0
    4.8240    0.5480    0.3290 C   0  0  2  0  0  0  0  0  0  0  0  0
    5.0710   -0.3580    1.3330 O   0  0  0  0  0  0  0  0  0  0  0  0
    5.6070    1.6930    0.5390 O   0  0  0  0  0  0  0  0  0  0  0  0
   -1.1530    0.1160   -0.2740 C   0  0  2  0  0  0  0  0  0  0  0  0
   -1.0070    1.1100   -1.2780 O   0  0  0  0  0  0  0  0  0  0  0  0
   -1.5900    0.7540    0.9950 C   0  0  0  0  0  0  0  0  0  0  0  0
   -2.6540    0.0870    1.6060 O   0  0  0  0  0  0  0  0  0  0  0  0
   -3.8160    0.1650    0.8450 C   0  0  1  0  0  0  0  0  0  0  0  0
   -4.5150    1.3590    1.0880 O   0  0  0  0  0  0  0  0  0  0  0  0
   -3.5490    0.0630   -0.6280 C   0  0  1  0  0  0  0  0  0  0  0  0
   -3.3680    1.3020   -1.2230 O   0  0  0  0  0  0  0  0  0  0  0  0
   -2.2670   -0.7720   -0.7890 C   0  0  0  0  0  0  0  0  0  0  0  0
  1  2  1  0
  3  2  1  6
  3  4  1  0
  3  6  1  0
  3 12  1  0
  4  5  1  0
  6  7  1  0
  7  8  1  0
  8  9  1  0
  9 10  1  1
  9 11  1  0
 12 13  1  6
 12 14  1  0
 12 20  1  0
 14 15  1  0
 15 16  1  0
 16 17  1  6
 16 18  1  0
 18 19  1  1
 18 20  1  0
M  END
