
     RDKit          3D

 20 20  0  0  0  0  0  0  0  0999 V2000
    4.0930   -1.1630   -0.0190 C   0  0  0  0  0  0  0  0  0  0  0  0
    2.6830   -0.7780   -0.4120 C   0  0  2  0  0  0  0  0  0  0  0  0
    2.4150    0.6650   -0.0710 C   0  0  1  0  0  0  0  0  0  0  0  0
    3.4120    1.4190   -0.7140 O   0  0  0  0  0  0  0  0  0  0  0  0
    1.0990    1.1570   -0.5630 C   0  0  1  0  0  0  0  0  0  0  0  0
    0.9480    1.0220   -1.9300 O   0  0  0  0  0  0  0  0  0  0  0  0
   -0.0900    0.5510    0.1200 C   0  0  0  0  0  0  0  0  0  0  0  0
   -1.2230    1.2330   -0.3180 O   0  0  0  0  0  0  0  0  0  0  0  0
   -2.3880    0.7540    0.2520 C   0  0  2  0  0  0  0  0  0  0  0  0
   -3.2900    0.1790   -0.7460 C   0  0  0  0  0  0  0  0  0  0  0  0
   -2.9130    0.1890   -1.9610 O   0  0  0  0  0  0  0  0  0  0  0  0
   -4.5140   -0.3760   -0.4920 O   0  0  0  0  0  0  0  0  0  0  0  0
   -3.0150    1.7980    1.1350 C   0  0  2  0  0  0  0  0  0  0  0  0
   -2.0610    2.0960    2.1360 O   0  0  0  0  0  0  0  0  0  0  0  0
   -4.2440    1.3350    1.8360 C   0  0  0  0  0  0  0  0  0  0  0  0
   -4.6620    2.4000    2.6690 O   0  0  0  0  0  0  0  0  0  0  0  0
    1.7810   -1.6580    0.1510 O   0  0  0  0  0  0  0  0  0  0  0  0
    1.9560   -2.8410   -0.5540 C   0  0  0  0  0  0  0  0  0  0  0  0
    2.7040   -2.4310   -1.7980 C   0  0  0  0  0  0  0  0  0  0  0  0
    2.5490   -1.0380   -1.7670 O   0  0  0  0  0  0  0  0  0  0  0  0
  2  1  1  1
  2  3  1  0
  2 17  1  0
  2 20  1  0
  3  4  1  6
  3  5  1  0
  5  6  1  6
  5  7  1  0
  7  8  1  0
  9  8  1  6
  9 10  1  0
  9 13  1  0
 10 11  2  0
 10 12  1  0
 13 14  1  1
 13 15  1  0
 15 16  1  0
 17 18  1  0
 18 19  1  0
 19 20  1  0
M  END
