
     RDKit          3D

 17 18  0  0  0  0  0  0  0  0999 V2000
    3.3630    0.4750   -1.2190 C   0  0  0  0  0  0  0  0  0  0  0  0
    2.3400    0.0100   -0.5530 C   0  0  0  0  0  0  0  0  0  0  0  0
    1.6340   -1.2290   -1.0450 C   0  0  0  0  0  0  0  0  0  0  0  0
    0.4330   -1.3300   -0.1960 C   0  0  0  0  0  0  0  0  0  0  0  0
    0.1600   -2.4040    0.2960 O   0  0  0  0  0  0  0  0  0  0  0  0
   -0.4380   -0.1560    0.0660 C   0  0  1  0  0  0  0  0  0  0  0  0
   -0.7600    0.4510   -1.3090 C   0  0  0  0  0  0  0  0  0  0  0  0
   -1.4920   -0.5100   -2.2000 C   0  0  0  0  0  0  0  0  0  0  0  0
   -2.2460   -1.5810   -1.4890 C   0  0  0  0  0  0  0  0  0  0  0  0
   -2.5510   -1.3270   -0.0580 C   0  0  0  0  0  0  0  0  0  0  0  0
   -1.6120   -0.5950    0.6960 N   0  0  0  0  0  0  0  0  0  0  0  0
   -2.2470    0.1740    1.6810 C   0  0  0  0  0  0  0  0  0  0  0  0
   -3.0870    1.3330    1.1990 C   0  0  0  0  0  0  0  0  0  0  0  0
    0.3640    0.8480    0.8430 C   0  0  0  0  0  0  0  0  0  0  0  0
    1.8430    0.6370    0.6360 C   0  0  0  0  0  0  0  0  0  0  0  0
    2.6510    1.0190    1.5720 C   0  0  0  0  0  0  0  0  0  0  0  0
    4.1080    0.8580    1.5310 C   0  0  0  0  0  0  0  0  0  0  0  0
  1  2  2  0
  2  3  1  0
  2 15  1  0
  3  4  1  0
  4  5  2  0
  4  6  1  0
  6  7  1  6
  6 11  1  0
  6 14  1  0
  7  8  1  0
  8  9  1  0
  9 10  1  0
 10 11  1  0
 11 12  1  0
 12 13  1  0
 14 15  1  0
 15 16  2  3
 16 17  1  0
M  END
