
     RDKit          3D

 17 18  0  0  0  0  0  0  0  0999 V2000
    4.3720   -0.0710   -1.2960 C   0  0  0  0  0  0  0  0  0  0  0  0
    3.3220    0.7800   -0.8690 N   0  0  0  0  0  0  0  0  0  0  0  0
    3.7130    2.1420   -0.7740 C   0  0  0  0  0  0  0  0  0  0  0  0
    2.5450    0.3190    0.1270 O   0  0  0  0  0  0  0  0  0  0  0  0
    1.5960   -0.6850    0.0350 C   0  0  0  0  0  0  0  0  0  0  0  0
    1.9050   -1.9270   -0.3080 C   0  0  0  0  0  0  0  0  0  0  0  0
    0.7910   -2.8660   -0.3500 C   0  0  0  0  0  0  0  0  0  0  0  0
   -0.4490   -2.5690   -0.0680 C   0  0  0  0  0  0  0  0  0  0  0  0
   -0.8770   -1.2520    0.3330 C   0  0  2  0  0  0  0  0  0  0  0  0
   -1.3740   -1.4170    1.7950 C   0  0  0  0  0  0  0  0  0  0  0  0
   -2.0510   -0.7010   -0.4360 C   0  0  0  0  0  0  0  0  0  0  0  0
   -2.4340    0.6890   -0.0460 C   0  0  2  0  0  0  0  0  0  0  0  0
   -3.7780    0.6690    0.6330 C   0  0  0  0  0  0  0  0  0  0  0  0
   -2.5580    1.5350   -1.3100 C   0  0  0  0  0  0  0  0  0  0  0  0
   -1.4760    1.3710    0.9040 C   0  0  0  0  0  0  0  0  0  0  0  0
   -0.0640    0.9760    0.6030 C   0  0  0  0  0  0  0  0  0  0  0  0
    0.2420   -0.2950    0.3280 C   0  0  0  0  0  0  0  0  0  0  0  0
  1  2  1  0
  2  3  1  0
  2  4  1  0
  4  5  1  0
  5  6  2  0
  5 17  1  0
  6  7  1  0
  7  8  2  0
  8  9  1  0
  9 10  1  1
  9 11  1  0
  9 17  1  0
 11 12  1  0
 12 13  1  1
 12 14  1  0
 12 15  1  0
 15 16  1  0
 16 17  2  0
M  END
