
     RDKit          3D

 39 42  0  0  0  0  0  0  0  0999 V2000
   -5.8030   -4.2700    0.9870 C   0  0  0  0  0  0  0  0  0  0  0  0
   -4.8800   -3.1230    0.7600 C   0  0  0  0  0  0  0  0  0  0  0  0
   -5.6010   -1.8490    0.4390 C   0  0  0  0  0  0  0  0  0  0  0  0
   -6.8180   -1.9190    0.2890 O   0  0  0  0  0  0  0  0  0  0  0  0
   -4.9080   -0.6230    0.3190 N   0  0  0  0  0  0  0  0  0  0  0  0
   -5.4610    0.6430    0.0200 C   0  0  0  0  0  0  0  0  0  0  0  0
   -6.7700    0.7870   -0.4170 C   0  0  0  0  0  0  0  0  0  0  0  0
   -7.3080    2.0300   -0.7520 C   0  0  0  0  0  0  0  0  0  0  0  0
   -6.5370    3.1550   -0.6540 C   0  0  0  0  0  0  0  0  0  0  0  0
   -5.2520    2.9940   -0.2230 C   0  0  0  0  0  0  0  0  0  0  0  0
   -4.6550    1.7740    0.1280 C   0  0  0  0  0  0  0  0  0  0  0  0
   -3.2710    1.7650    0.5760 C   0  0  0  0  0  0  0  0  0  0  0  0
   -2.6820    2.9090    0.6060 O   0  0  0  0  0  0  0  0  0  0  0  0
   -2.5020    0.7260    0.9680 O   0  0  0  0  0  0  0  0  0  0  0  0
   -1.1940    0.7610    1.3800 N   0  0  0  0  0  0  0  0  0  0  0  0
   -0.1890   -0.0160    0.6990 C   0  0  0  0  0  0  0  0  0  0  0  0
   -0.6090   -0.7030   -0.2640 O   0  0  0  0  0  0  0  0  0  0  0  0
    1.2430   -0.0020    1.1130 C   0  0  1  0  0  0  0  0  0  0  0  0
    1.3890   -0.4670    2.5310 C   0  0  0  0  0  0  0  0  0  0  0  0
    2.1340   -1.7790    2.6390 C   0  0  0  0  0  0  0  0  0  0  0  0
    3.4840   -1.6840    1.9550 C   0  0  0  0  0  0  0  0  0  0  0  0
    3.2590   -1.3260    0.5730 N   0  0  0  0  0  0  0  0  0  0  0  0
    4.3340   -1.4920   -0.3410 C   0  0  0  0  0  0  0  0  0  0  0  0
    4.1830   -1.1980   -1.5540 O   0  0  0  0  0  0  0  0  0  0  0  0
    5.6570   -2.0080    0.0970 C   0  0  0  0  0  0  0  0  0  0  0  0
    6.7890   -1.2530   -0.4710 C   0  0  0  0  0  0  0  0  0  0  0  0
    6.6550   -0.0140   -1.0520 C   0  0  0  0  0  0  0  0  0  0  0  0
    7.7520    0.6890   -1.5630 C   0  0  0  0  0  0  0  0  0  0  0  0
    7.5100    1.9780   -2.1510 C   0  0  0  0  0  0  0  0  0  0  0  0
    6.3590    2.4390   -2.2420 O   0  0  0  0  0  0  0  0  0  0  0  0
    8.9950    0.1160   -1.4750 C   0  0  0  0  0  0  0  0  0  0  0  0
   10.1740    0.8600   -2.0110 C   0  0  0  0  0  0  0  0  0  0  0  0
    9.1220   -1.1300   -0.8900 C   0  0  0  0  0  0  0  0  0  0  0  0
    8.0590   -1.8300   -0.3860 C   0  0  0  0  0  0  0  0  0  0  0  0
    8.2890   -3.5400    0.4040 Br  0  0  0  0  0  0  0  0  0  0  0  0
    2.0070   -0.8130    0.1090 C   0  0  0  0  0  0  0  0  0  0  0  0
   -7.3560    4.3520   -1.0720 C   0  0  0  0  0  0  0  0  0  0  0  0
   -8.7760    3.8500   -0.9550 C   0  0  0  0  0  0  0  0  0  0  0  0
   -8.6550    2.3760   -1.2320 C   0  0  0  0  0  0  0  0  0  0  0  0
  1  2  1  0
  2  3  1  0
  3  4  2  0
  3  5  1  0
  5  6  1  0
  6  7  2  0
  6 11  1  0
  7  8  1  0
  8  9  2  0
  8 39  1  0
  9 10  1  0
  9 37  1  0
 10 11  2  0
 11 12  1  0
 12 13  2  0
 12 14  1  0
 14 15  1  0
 15 16  1  0
 16 17  2  0
 18 16  1  6
 18 19  1  0
 18 36  1  0
 19 20  1  0
 20 21  1  0
 21 22  1  0
 22 23  1  0
 22 36  1  0
 23 24  2  0
 23 25  1  0
 25 26  1  0
 26 27  2  0
 26 34  1  0
 27 28  1  0
 28 29  1  0
 28 31  2  0
 29 30  2  0
 31 32  1  0
 31 33  1  0
 33 34  2  0
 34 35  1  0
 37 38  1  0
 38 39  1  0
M  END
