
     RDKit          3D

 39 42  0  0  0  0  0  0  0  0999 V2000
    0.1300   -5.1490    5.6980 C   0  0  0  0  0  0  0  0  0  0  0  0
    0.9940   -4.4570    4.8170 O   0  0  0  0  0  0  0  0  0  0  0  0
    0.4830   -3.5950    3.7950 C   0  0  0  0  0  0  0  0  0  0  0  0
   -0.7500   -3.5460    3.7920 O   0  0  0  0  0  0  0  0  0  0  0  0
    1.4150   -2.9150    2.9270 C   0  0  0  0  0  0  0  0  0  0  0  0
    2.7800   -3.1950    3.1380 C   0  0  0  0  0  0  0  0  0  0  0  0
    3.7400   -2.6240    2.3460 C   0  0  0  0  0  0  0  0  0  0  0  0
    3.3520   -1.7730    1.3400 C   0  0  0  0  0  0  0  0  0  0  0  0
    4.4380   -1.1890    0.5150 C   0  0  0  0  0  0  0  0  0  0  0  0
    5.5510   -1.7450    0.4850 O   0  0  0  0  0  0  0  0  0  0  0  0
    4.2180   -0.0130   -0.2330 N   0  0  0  0  0  0  0  0  0  0  0  0
    5.1600    0.6370   -1.0500 C   0  0  0  0  0  0  0  0  0  0  0  0
    6.4460    0.2550   -1.2980 C   0  0  0  0  0  0  0  0  0  0  0  0
    7.3300    0.9480   -2.1240 C   0  0  0  0  0  0  0  0  0  0  0  0
    8.7210    0.4420   -2.3360 C   0  0  0  0  0  0  0  0  0  0  0  0
    6.8800    2.0960   -2.7360 C   0  0  0  0  0  0  0  0  0  0  0  0
    7.8140    2.8460   -3.6130 C   0  0  0  0  0  0  0  0  0  0  0  0
    5.5880    2.5270   -2.5190 C   0  0  0  0  0  0  0  0  0  0  0  0
    4.7530    1.8120   -1.6970 C   0  0  0  0  0  0  0  0  0  0  0  0
    2.9810    2.4730   -1.4430 Br  0  0  0  0  0  0  0  0  0  0  0  0
    2.0200   -1.4980    1.1300 C   0  0  0  0  0  0  0  0  0  0  0  0
    1.0150   -2.0710    1.9310 C   0  0  0  0  0  0  0  0  0  0  0  0
   -0.3390   -1.7560    1.7500 N   0  0  0  0  0  0  0  0  0  0  0  0
   -0.9200   -1.0560    0.6630 C   0  0  0  0  0  0  0  0  0  0  0  0
   -0.2120   -0.6550   -0.2670 O   0  0  0  0  0  0  0  0  0  0  0  0
   -2.3480   -0.7920    0.6040 C   0  0  0  0  0  0  0  0  0  0  0  0
   -3.0510   -1.1880    1.6090 O   0  0  0  0  0  0  0  0  0  0  0  0
   -3.0110   -0.1320   -0.4750 N   0  0  0  0  0  0  0  0  0  0  0  0
   -2.4150    0.3580   -1.6790 C   0  0  0  0  0  0  0  0  0  0  0  0
   -3.5090    0.1730   -2.7280 C   0  0  0  0  0  0  0  0  0  0  0  0
   -4.7920   -0.0040   -1.9550 C   0  0  0  0  0  0  0  0  0  0  0  0
   -4.4180    0.1890   -0.5560 C   0  0  2  0  0  0  0  0  0  0  0  0
   -4.7900    1.4510    0.1090 C   0  0  1  0  0  0  0  0  0  0  0  0
   -4.2040    2.7160   -0.4080 C   0  0  0  0  0  0  0  0  0  0  0  0
   -5.2060    3.7080   -0.1980 O   0  0  0  0  0  0  0  0  0  0  0  0
   -6.3990    3.0500   -0.5260 C   0  0  0  0  0  0  0  0  0  0  0  0
   -6.2440    1.7550    0.2540 C   0  0  1  0  0  0  0  0  0  0  0  0
   -7.1900    0.7480   -0.3010 C   0  0  0  0  0  0  0  0  0  0  0  0
   -6.6290    2.0020    1.7100 C   0  0  0  0  0  0  0  0  0  0  0  0
  1  2  1  0
  2  3  1  0
  3  4  2  0
  3  5  1  0
  5  6  2  0
  5 22  1  0
  6  7  1  0
  7  8  2  0
  8  9  1  0
  8 21  1  0
  9 10  2  0
  9 11  1  0
 11 12  1  0
 12 13  2  0
 12 19  1  0
 13 14  1  0
 14 15  1  0
 14 16  2  0
 16 17  1  0
 16 18  1  0
 18 19  2  0
 19 20  1  0
 21 22  2  0
 22 23  1  0
 23 24  1  0
 24 25  2  0
 24 26  1  0
 26 27  2  0
 26 28  1  0
 28 29  1  0
 28 32  1  0
 29 30  1  0
 30 31  1  0
 32 31  1  6
 32 33  1  0
 33 34  1  6
 33 37  1  0
 34 35  1  0
 35 36  1  0
 36 37  1  0
 37 38  1  6
 37 39  1  0
M  END
