
     RDKit          3D

 39 42  0  0  0  0  0  0  0  0999 V2000
   -6.9370   -4.9470    0.0910 C   0  0  0  0  0  0  0  0  0  0  0  0
   -7.2540   -3.5160    0.3520 C   0  0  0  0  0  0  0  0  0  0  0  0
   -8.2020   -3.0260    1.2250 C   0  0  0  0  0  0  0  0  0  0  0  0
   -8.1750   -1.6450    1.1680 C   0  0  0  0  0  0  0  0  0  0  0  0
   -8.8850   -0.6510    1.8080 C   0  0  0  0  0  0  0  0  0  0  0  0
  -10.2420   -1.0800    3.0800 Br  0  0  0  0  0  0  0  0  0  0  0  0
   -8.6330    0.6830    1.5440 C   0  0  0  0  0  0  0  0  0  0  0  0
   -9.4200    1.7400    2.2550 C   0  0  0  0  0  0  0  0  0  0  0  0
   -7.6550    0.9690    0.6260 C   0  0  0  0  0  0  0  0  0  0  0  0
   -6.9170    0.0120   -0.0410 C   0  0  0  0  0  0  0  0  0  0  0  0
   -5.9410    0.3750   -0.9590 O   0  0  0  0  0  0  0  0  0  0  0  0
   -4.6070    0.5460   -0.6640 C   0  0  0  0  0  0  0  0  0  0  0  0
   -4.2720    0.3470    0.5540 O   0  0  0  0  0  0  0  0  0  0  0  0
   -3.6430    0.9200   -1.6390 N   0  0  0  0  0  0  0  0  0  0  0  0
   -2.2730    1.0770   -1.2660 C   0  0  0  0  0  0  0  0  0  0  0  0
   -1.4830    1.4680   -2.4560 C   0  0  0  0  0  0  0  0  0  0  0  0
   -2.0590    1.6160   -3.5670 O   0  0  0  0  0  0  0  0  0  0  0  0
   -0.0950    1.6680   -2.3240 N   0  0  0  0  0  0  0  0  0  0  0  0
    0.7360    2.0640   -3.4710 C   0  0  0  0  0  0  0  0  0  0  0  0
    1.2710    3.3960   -3.1080 C   0  0  0  0  0  0  0  0  0  0  0  0
    1.6890    3.5760   -1.8750 C   0  0  0  0  0  0  0  0  0  0  0  0
    1.6420    2.4990   -0.8470 C   0  0  2  0  0  0  0  0  0  0  0  0
    2.9760    1.8390   -0.8280 C   0  0  0  0  0  0  0  0  0  0  0  0
    3.8830    2.2370   -1.5960 O   0  0  0  0  0  0  0  0  0  0  0  0
    3.2730    0.7790    0.0160 O   0  0  0  0  0  0  0  0  0  0  0  0
    4.5200    0.1750    0.0190 C   0  0  0  0  0  0  0  0  0  0  0  0
    4.8240   -0.8980   -0.7990 C   0  0  0  0  0  0  0  0  0  0  0  0
    6.0830   -1.4550   -0.7500 C   0  0  0  0  0  0  0  0  0  0  0  0
    7.0760   -0.9800    0.0970 C   0  0  0  0  0  0  0  0  0  0  0  0
    8.3970   -1.6010    0.1260 C   0  0  0  0  0  0  0  0  0  0  0  0
    8.5780   -2.6020   -0.6430 O   0  0  0  0  0  0  0  0  0  0  0  0
    9.4910   -1.1090    0.9980 C   0  0  2  0  0  0  0  0  0  0  0  0
    9.9080    0.2990    0.7030 C   0  0  0  0  0  0  0  0  0  0  0  0
   10.6590   -2.0810    0.9880 C   0  0  0  0  0  0  0  0  0  0  0  0
    6.7900    0.0750    0.9070 C   0  0  0  0  0  0  0  0  0  0  0  0
    5.5170    0.6300    0.8500 C   0  0  0  0  0  0  0  0  0  0  0  0
    0.5670    1.4840   -1.0620 C   0  0  0  0  0  0  0  0  0  0  0  0
   -7.2000   -1.3050    0.2510 C   0  0  0  0  0  0  0  0  0  0  0  0
   -6.6630   -2.4430   -0.2230 N   0  0  0  0  0  0  0  0  0  0  0  0
  1  2  1  0
  2  3  2  0
  2 39  1  0
  3  4  1  0
  4  5  2  0
  4 38  1  0
  5  6  1  0
  5  7  1  0
  7  8  1  0
  7  9  2  0
  9 10  1  0
 10 11  1  0
 10 38  2  0
 11 12  1  0
 12 13  2  0
 12 14  1  0
 14 15  1  0
 15 16  1  0
 16 17  2  0
 16 18  1  0
 18 19  1  0
 18 37  1  0
 19 20  1  0
 20 21  2  0
 21 22  1  0
 22 23  1  6
 22 37  1  0
 23 24  2  0
 23 25  1  0
 25 26  1  0
 26 27  2  0
 26 36  1  0
 27 28  1  0
 28 29  2  0
 29 30  1  0
 29 35  1  0
 30 31  2  0
 30 32  1  0
 32 33  1  6
 32 34  1  0
 35 36  2  0
 38 39  1  0
M  END
