
     RDKit          3D

 39 42  0  0  0  0  0  0  0  0999 V2000
   -7.9370   -2.6660   -2.8560 C   0  0  0  0  0  0  0  0  0  0  0  0
   -7.6170   -2.2770   -1.6410 C   0  0  0  0  0  0  0  0  0  0  0  0
   -7.7470   -0.8740   -1.2370 C   0  0  0  0  0  0  0  0  0  0  0  0
   -6.4970   -0.3090   -0.8320 O   0  0  0  0  0  0  0  0  0  0  0  0
   -5.4110   -0.2040   -1.6500 C   0  0  0  0  0  0  0  0  0  0  0  0
   -5.5390   -0.6380   -2.8450 O   0  0  0  0  0  0  0  0  0  0  0  0
   -4.1560    0.3440   -1.2930 N   0  0  0  0  0  0  0  0  0  0  0  0
   -3.9560    0.7920    0.0350 C   0  0  0  0  0  0  0  0  0  0  0  0
   -3.1580    0.0870    0.9240 C   0  0  0  0  0  0  0  0  0  0  0  0
   -2.9370    0.5000    2.2240 C   0  0  0  0  0  0  0  0  0  0  0  0
   -2.0710   -0.3290    3.0740 C   0  0  0  0  0  0  0  0  0  0  0  0
   -3.5520    1.6690    2.6210 C   0  0  0  0  0  0  0  0  0  0  0  0
   -4.3430    2.3810    1.7590 C   0  0  0  0  0  0  0  0  0  0  0  0
   -5.1660    3.9860    2.3680 Br  0  0  0  0  0  0  0  0  0  0  0  0
   -4.5540    1.9530    0.4610 C   0  0  0  0  0  0  0  0  0  0  0  0
   -3.0600    0.4630   -2.2840 C   0  0  1  0  0  0  0  0  0  0  0  0
   -2.7740    1.8960   -2.3850 C   0  0  0  0  0  0  0  0  0  0  0  0
   -1.6470    2.4370   -2.0360 C   0  0  0  0  0  0  0  0  0  0  0  0
   -0.5480    1.6220   -1.5020 C   0  0  0  0  0  0  0  0  0  0  0  0
    0.5180    2.1770   -1.1770 O   0  0  0  0  0  0  0  0  0  0  0  0
   -0.7950    0.1970   -1.3900 C   0  0  0  0  0  0  0  0  0  0  0  0
    0.2130   -0.7230   -0.8840 C   0  0  0  0  0  0  0  0  0  0  0  0
   -0.1050   -1.9670   -0.8410 O   0  0  0  0  0  0  0  0  0  0  0  0
    1.4840   -0.3160   -0.4530 N   0  0  0  0  0  0  0  0  0  0  0  0
    2.4970   -1.1890    0.0520 C   0  0  0  0  0  0  0  0  0  0  0  0
    2.2800   -2.4590    0.4990 C   0  0  0  0  0  0  0  0  0  0  0  0
    3.3050   -3.2720    0.9500 C   0  0  0  0  0  0  0  0  0  0  0  0
    4.6270   -2.8320    0.9730 C   0  0  0  0  0  0  0  0  0  0  0  0
    5.6090   -3.6840    1.4360 O   0  0  0  0  0  0  0  0  0  0  0  0
    4.8670   -1.5420    0.5220 C   0  0  0  0  0  0  0  0  0  0  0  0
    6.2340   -1.0370    0.4210 C   0  0  0  0  0  0  0  0  0  0  0  0
    7.1620   -1.9390    0.3240 O   0  0  0  0  0  0  0  0  0  0  0  0
    6.6380    0.3100    0.4220 N   0  0  0  0  0  0  0  0  0  0  0  0
    8.0160    0.7250    0.2380 C   0  0  0  0  0  0  0  0  0  0  0  0
    8.1400    2.0990    0.8490 C   0  0  0  0  0  0  0  0  0  0  0  0
    6.8190    2.3590    1.4860 C   0  0  0  0  0  0  0  0  0  0  0  0
    5.8640    1.4770    0.6540 C   0  0  0  0  0  0  0  0  0  0  0  0
    3.8300   -0.7610    0.0800 C   0  0  0  0  0  0  0  0  0  0  0  0
   -1.9550   -0.3130   -1.7560 C   0  0  0  0  0  0  0  0  0  0  0  0
  1  2  2  0
  2  3  1  0
  3  4  1  0
  4  5  1  0
  5  6  2  0
  5  7  1  0
  7  8  1  0
 16  7  1  1
  8  9  2  0
  8 15  1  0
  9 10  1  0
 10 11  1  0
 10 12  2  0
 12 13  1  0
 13 14  1  0
 13 15  2  0
 16 17  1  0
 16 39  1  0
 17 18  2  0
 18 19  1  0
 19 20  2  0
 19 21  1  0
 21 22  1  0
 21 39  2  0
 22 23  2  0
 22 24  1  0
 24 25  1  0
 25 26  2  0
 25 38  1  0
 26 27  1  0
 27 28  2  0
 28 29  1  0
 28 30  1  0
 30 31  1  0
 30 38  2  0
 31 32  2  0
 31 33  1  0
 33 34  1  0
 33 37  1  0
 34 35  1  0
 35 36  1  0
 36 37  1  0
M  END
