
     RDKit          3D

 39 42  0  0  0  0  0  0  0  0999 V2000
   -5.7670   -5.5650    0.6670 C   0  0  0  0  0  0  0  0  0  0  0  0
   -5.1490   -4.3910    0.1780 N   0  0  0  0  0  0  0  0  0  0  0  0
   -5.6620   -3.1690    0.5690 C   0  0  0  0  0  0  0  0  0  0  0  0
   -5.1400   -1.8680    0.0700 C   0  0  0  0  0  0  0  0  0  0  0  0
   -4.0740   -1.2770    0.5090 N   0  0  0  0  0  0  0  0  0  0  0  0
   -3.8130    0.0730    0.2180 C   0  0  0  0  0  0  0  0  0  0  0  0
   -2.5600    0.6200    0.6360 C   0  0  0  0  0  0  0  0  0  0  0  0
   -1.8570   -0.0510    1.5010 O   0  0  0  0  0  0  0  0  0  0  0  0
   -1.9120    1.8330    0.1940 C   0  0  0  0  0  0  0  0  0  0  0  0
   -0.6760    2.1260    0.6800 C   0  0  0  0  0  0  0  0  0  0  0  0
    0.0400    3.3510    0.2670 C   0  0  0  0  0  0  0  0  0  0  0  0
    1.4390    3.0260    0.3230 O   0  0  0  0  0  0  0  0  0  0  0  0
    1.6220    1.7230   -0.0600 C   0  0  1  0  0  0  0  0  0  0  0  0
    2.9960    1.3550   -0.5310 C   0  0  0  0  0  0  0  0  0  0  0  0
    3.2920   -0.0430   -0.1770 N   0  0  0  0  0  0  0  0  0  0  0  0
    4.5360   -0.4800    0.3220 C   0  0  0  0  0  0  0  0  0  0  0  0
    4.6900   -1.7210    0.5130 O   0  0  0  0  0  0  0  0  0  0  0  0
    5.6150    0.4530    0.6270 C   0  0  0  0  0  0  0  0  0  0  0  0
    6.5920    0.6010   -0.4660 C   0  0  0  0  0  0  0  0  0  0  0  0
    7.3810   -0.5290   -0.9470 C   0  0  0  0  0  0  0  0  0  0  0  0
    8.1910   -1.1880    0.1540 C   0  0  1  0  0  0  0  0  0  0  0  0
    8.9700   -2.3420   -0.4520 C   0  0  0  0  0  0  0  0  0  0  0  0
    9.0490   -0.2100    0.8800 C   0  0  0  0  0  0  0  0  0  0  0  0
    2.1690   -0.9890   -0.3720 C   0  0  0  0  0  0  0  0  0  0  0  0
    0.9300   -0.5570    0.3510 C   0  0  0  0  0  0  0  0  0  0  0  0
    1.2120    0.7520    1.0800 C   0  0  2  0  0  0  0  0  0  0  0  0
   -0.0390    1.2450    1.5770 O   0  0  0  0  0  0  0  0  0  0  0  0
   -4.6960    0.7890   -0.5220 C   0  0  0  0  0  0  0  0  0  0  0  0
   -4.8450    2.2760   -0.4560 C   0  0  0  0  0  0  0  0  0  0  0  0
   -5.1710    3.0360   -1.4590 C   0  0  0  0  0  0  0  0  0  0  0  0
   -5.3210    4.5000   -1.3920 C   0  0  0  0  0  0  0  0  0  0  0  0
   -5.5860    4.9770   -0.0740 O   0  0  0  0  0  0  0  0  0  0  0  0
   -5.2500    4.2020    0.9800 C   0  0  0  0  0  0  0  0  0  0  0  0
   -4.8930    2.9520    0.9060 C   0  0  0  0  0  0  0  0  0  0  0  0
   -4.5300    1.8940    2.4490 Br  0  0  0  0  0  0  0  0  0  0  0  0
   -5.8610    0.1900   -1.0370 C   0  0  0  0  0  0  0  0  0  0  0  0
   -6.6920    0.7760   -1.7170 O   0  0  0  0  0  0  0  0  0  0  0  0
   -6.0040   -1.1410   -0.6950 C   0  0  0  0  0  0  0  0  0  0  0  0
   -7.1110   -1.9670   -1.3270 C   0  0  0  0  0  0  0  0  0  0  0  0
  1  2  1  0
  2  3  1  0
  3  4  1  0
  4  5  1  0
  4 38  2  0
  5  6  1  0
  6  7  1  0
  6 28  2  0
  7  8  2  0
  7  9  1  0
  9 10  2  3
 10 11  1  0
 10 27  1  0
 11 12  1  0
 12 13  1  0
 13 14  1  1
 13 26  1  0
 14 15  1  0
 15 16  1  0
 15 24  1  0
 16 17  2  0
 16 18  1  0
 18 19  1  0
 19 20  1  0
 20 21  1  0
 21 22  1  6
 21 23  1  0
 24 25  1  0
 26 25  1  6
 26 27  1  0
 28 29  1  0
 28 36  1  0
 29 30  2  0
 29 34  1  0
 30 31  1  0
 31 32  1  0
 32 33  1  0
 33 34  2  0
 34 35  1  0
 36 37  2  0
 36 38  1  0
 38 39  1  0
M  END
