
     RDKit          3D

 39 42  0  0  0  0  0  0  0  0999 V2000
   -6.8770    0.1090    0.7670 C   0  0  0  0  0  0  0  0  0  0  0  0
   -5.8400   -0.4600   -0.0290 O   0  0  0  0  0  0  0  0  0  0  0  0
   -4.4860   -0.3290    0.4250 C   0  0  0  0  0  0  0  0  0  0  0  0
   -4.3330    0.2540    1.4540 O   0  0  0  0  0  0  0  0  0  0  0  0
   -3.5020   -0.9570   -0.4930 C   0  0  0  0  0  0  0  0  0  0  0  0
   -3.8800   -1.5520   -1.5610 C   0  0  0  0  0  0  0  0  0  0  0  0
   -5.3310   -1.7180   -2.0010 C   0  0  0  0  0  0  0  0  0  0  0  0
   -2.9090   -1.9250   -2.5460 N   0  0  0  0  0  0  0  0  0  0  0  0
   -1.5260   -1.6040   -2.2620 C   0  0  0  0  0  0  0  0  0  0  0  0
   -0.5690   -2.1230   -3.3180 C   0  0  0  0  0  0  0  0  0  0  0  0
   -1.0920   -1.0370   -1.1440 C   0  0  0  0  0  0  0  0  0  0  0  0
    0.3150   -0.6770   -0.9490 C   0  0  0  0  0  0  0  0  0  0  0  0
    0.5550   -0.2680    0.2640 O   0  0  0  0  0  0  0  0  0  0  0  0
    1.4070   -0.6390   -1.7890 N   0  0  0  0  0  0  0  0  0  0  0  0
    2.6100   -0.1800   -1.4890 N   0  0  0  0  0  0  0  0  0  0  0  0
    3.7200    0.1390   -1.3010 C   0  0  0  0  0  0  0  0  0  0  0  0
    4.0390    1.3020   -0.3480 C   0  0  0  0  0  0  0  0  0  0  0  0
    5.0220    0.7740    0.6740 C   0  0  0  0  0  0  0  0  0  0  0  0
    6.2270    0.1040    0.1410 C   0  0  0  0  0  0  0  0  0  0  0  0
    6.1420   -0.3570   -1.2350 C   0  0  0  0  0  0  0  0  0  0  0  0
    7.2760   -0.8270   -1.9220 C   0  0  0  0  0  0  0  0  0  0  0  0
    7.2200   -1.2910   -3.1660 C   0  0  0  0  0  0  0  0  0  0  0  0
    6.0140   -1.3410   -3.8740 C   0  0  0  0  0  0  0  0  0  0  0  0
    5.9520   -2.0200   -5.6300 Br  0  0  0  0  0  0  0  0  0  0  0  0
    4.8850   -0.8880   -3.2340 C   0  0  0  0  0  0  0  0  0  0  0  0
    4.9380   -0.4070   -1.9520 C   0  0  0  0  0  0  0  0  0  0  0  0
   -2.0580   -0.9700   -0.0550 C   0  0  1  0  0  0  0  0  0  0  0  0
   -1.9080   -0.3040    1.2120 C   0  0  0  0  0  0  0  0  0  0  0  0
   -1.5410    0.9900    1.4170 C   0  0  0  0  0  0  0  0  0  0  0  0
   -1.2980    1.9160    0.3000 C   0  0  0  0  0  0  0  0  0  0  0  0
   -1.4920    1.5630    2.7080 C   0  0  0  0  0  0  0  0  0  0  0  0
   -0.9700    2.8830    2.9340 C   0  0  0  0  0  0  0  0  0  0  0  0
   -0.9030    3.5980    4.2330 C   0  0  0  0  0  0  0  0  0  0  0  0
   -0.4770    3.6180    1.9800 O   0  0  0  0  0  0  0  0  0  0  0  0
   -1.8350    0.7920    3.7990 C   0  0  0  0  0  0  0  0  0  0  0  0
   -1.8720    1.1790    5.2210 C   0  0  0  0  0  0  0  0  0  0  0  0
   -2.1900   -0.4780    3.5430 O   0  0  0  0  0  0  0  0  0  0  0  0
   -2.2360   -1.0280    2.3720 C   0  0  0  0  0  0  0  0  0  0  0  0
   -2.5830   -2.2240    2.3200 O   0  0  0  0  0  0  0  0  0  0  0  0
  1  2  1  0
  2  3  1  0
  3  4  2  0
  3  5  1  0
  5  6  2  0
  5 27  1  0
  6  7  1  0
  6  8  1  0
  8  9  1  0
  9 10  1  0
  9 11  2  0
 11 12  1  0
 11 27  1  0
 12 13  2  0
 12 14  1  0
 14 15  1  0
 15 16  2  3
 16 17  1  0
 16 26  1  0
 17 18  1  0
 18 19  1  0
 19 20  1  0
 20 21  2  0
 20 26  1  0
 21 22  1  0
 22 23  2  0
 23 24  1  0
 23 25  1  0
 25 26  2  0
 27 28  1  6
 28 29  2  0
 28 38  1  0
 29 30  1  0
 29 31  1  0
 31 32  1  0
 31 35  2  0
 32 33  1  0
 32 34  2  0
 35 36  1  0
 35 37  1  0
 37 38  1  0
 38 39  2  0
M  END
