
     RDKit          3D

 39 41  0  0  0  0  0  0  0  0999 V2000
    7.1250   -0.7790    1.7130 C   0  0  0  0  0  0  0  0  0  0  0  0
    6.9630   -2.0510    0.8720 C   0  0  2  0  0  0  0  0  0  0  0  0
    7.9150   -3.0810    1.4710 C   0  0  0  0  0  0  0  0  0  0  0  0
    7.3510   -1.8220   -0.5570 C   0  0  0  0  0  0  0  0  0  0  0  0
    5.6400   -2.4960    0.9530 O   0  0  0  0  0  0  0  0  0  0  0  0
    4.6350   -1.6540    0.5180 C   0  0  0  0  0  0  0  0  0  0  0  0
    4.9040   -0.5170    0.0620 O   0  0  0  0  0  0  0  0  0  0  0  0
    3.2530   -2.0640    0.5790 N   0  0  0  0  0  0  0  0  0  0  0  0
    2.2260   -1.2030    0.1350 C   0  0  0  0  0  0  0  0  0  0  0  0
    2.5770   -0.0750   -0.3110 O   0  0  0  0  0  0  0  0  0  0  0  0
    0.8300   -1.6450    0.2080 C   0  0  0  0  0  0  0  0  0  0  0  0
   -0.1430   -0.6330   -0.2950 C   0  0  2  0  0  0  0  0  0  0  0  0
   -1.5300   -1.2000   -0.1680 C   0  0  0  0  0  0  0  0  0  0  0  0
   -1.6230   -2.3620    0.2930 O   0  0  0  0  0  0  0  0  0  0  0  0
   -2.6630   -0.4430   -0.5550 N   0  0  0  0  0  0  0  0  0  0  0  0
   -4.0430   -0.9120   -0.4590 C   0  0  2  0  0  0  0  0  0  0  0  0
   -4.2940   -1.4210    0.8820 C   0  0  0  0  0  0  0  0  0  0  0  0
   -3.5080   -1.2340    1.9150 C   0  0  0  0  0  0  0  0  0  0  0  0
   -4.0940   -1.8950    3.1070 C   0  0  0  0  0  0  0  0  0  0  0  0
   -5.3540   -2.4640    2.6330 C   0  0  0  0  0  0  0  0  0  0  0  0
   -6.5890   -3.4240    3.7370 Br  0  0  0  0  0  0  0  0  0  0  0  0
   -5.4500   -2.1890    1.3630 C   0  0  0  0  0  0  0  0  0  0  0  0
   -4.2950   -1.7770   -1.6170 C   0  0  1  0  0  0  0  0  0  0  0  0
   -3.4800   -3.0010   -1.8030 C   0  0  0  0  0  0  0  0  0  0  0  0
   -5.7610   -2.1330   -1.8130 C   0  0  0  0  0  0  0  0  0  0  0  0
   -3.9750   -0.8920   -2.8500 C   0  0  0  0  0  0  0  0  0  0  0  0
    0.1860   -0.3110   -1.7200 C   0  0  0  0  0  0  0  0  0  0  0  0
    0.4880    1.1410   -1.7510 C   0  0  0  0  0  0  0  0  0  0  0  0
    0.8640    1.7870   -2.7880 O   0  0  0  0  0  0  0  0  0  0  0  0
    0.2950    1.6930   -0.4590 N   0  0  0  0  0  0  0  0  0  0  0  0
    0.4630    3.1120   -0.1350 C   0  0  0  0  0  0  0  0  0  0  0  0
   -0.8540    3.8380   -0.3270 C   0  0  0  0  0  0  0  0  0  0  0  0
   -0.7300    5.2790   -0.0110 C   0  0  0  0  0  0  0  0  0  0  0  0
   -1.4110    5.9210    0.9210 C   0  0  0  0  0  0  0  0  0  0  0  0
   -0.9850    7.3480    0.9080 C   0  0  0  0  0  0  0  0  0  0  0  0
    0.0380    7.4210   -0.1680 C   0  0  0  0  0  0  0  0  0  0  0  0
    0.1620    6.2190   -0.6750 C   0  0  0  0  0  0  0  0  0  0  0  0
   -0.0760    0.6510    0.4290 C   0  0  0  0  0  0  0  0  0  0  0  0
   -0.3070    0.8280    1.6480 O   0  0  0  0  0  0  0  0  0  0  0  0
  2  1  1  1
  2  3  1  0
  2  4  1  0
  2  5  1  0
  5  6  1  0
  6  7  2  0
  6  8  1  0
  8  9  1  0
  9 10  2  0
  9 11  1  0
 12 11  1  1
 12 13  1  0
 12 27  1  0
 12 38  1  0
 13 14  2  0
 13 15  1  0
 16 15  1  1
 16 17  1  0
 16 23  1  0
 17 18  2  0
 17 22  1  0
 18 19  1  0
 19 20  1  0
 20 21  1  0
 20 22  2  0
 23 24  1  1
 23 25  1  0
 23 26  1  0
 27 28  1  0
 28 29  2  0
 28 30  1  0
 30 31  1  0
 30 38  1  0
 31 32  1  0
 32 33  1  0
 33 34  2  0
 33 37  1  0
 34 35  1  0
 35 36  1  0
 36 37  2  0
 38 39  2  0
M  END
