
     RDKit          3D

 25 26  0  0  0  0  0  0  0  0999 V2000
   -4.0340    0.8280   -1.6160 C   0  0  0  0  0  0  0  0  0  0  0  0
   -4.5450    0.6330   -0.2020 C   0  0  1  0  0  0  0  0  0  0  0  0
   -4.7550    1.9830    0.4010 C   0  0  0  0  0  0  0  0  0  0  0  0
   -5.8640   -0.0910   -0.3110 C   0  0  0  0  0  0  0  0  0  0  0  0
   -3.6190   -0.2220    0.5970 C   0  0  0  0  0  0  0  0  0  0  0  0
   -4.0620   -1.2830    1.0740 O   0  0  0  0  0  0  0  0  0  0  0  0
   -2.2770    0.1190    0.8310 N   0  0  0  0  0  0  0  0  0  0  0  0
   -1.2920   -0.5730    1.5580 C   0  0  0  0  0  0  0  0  0  0  0  0
   -1.5970   -1.6840    2.3040 C   0  0  0  0  0  0  0  0  0  0  0  0
   -0.6480   -2.3460    3.0570 C   0  0  0  0  0  0  0  0  0  0  0  0
    0.6320   -1.8740    3.0550 C   0  0  0  0  0  0  0  0  0  0  0  0
    0.9580   -0.7460    2.3030 C   0  0  0  0  0  0  0  0  0  0  0  0
    2.2590   -0.3330    2.3590 O   0  0  0  0  0  0  0  0  0  0  0  0
    0.0370   -0.0940    1.5620 C   0  0  0  0  0  0  0  0  0  0  0  0
    0.2330    1.0120    0.7870 O   0  0  0  0  0  0  0  0  0  0  0  0
    0.5260    1.0800   -0.5520 C   0  0  0  0  0  0  0  0  0  0  0  0
    1.8120    0.6210   -1.0960 C   0  0  0  0  0  0  0  0  0  0  0  0
    1.8140    0.1420   -2.2980 O   0  0  0  0  0  0  0  0  0  0  0  0
    3.0540    0.6480   -0.4620 N   0  0  0  0  0  0  0  0  0  0  0  0
    4.3090    0.2050   -0.9320 C   0  0  0  0  0  0  0  0  0  0  0  0
    5.4170    0.3370   -0.0790 C   0  0  0  0  0  0  0  0  0  0  0  0
    6.6800   -0.0630   -0.4440 C   0  0  0  0  0  0  0  0  0  0  0  0
    6.9180   -0.6190   -1.6770 C   0  0  0  0  0  0  0  0  0  0  0  0
    5.8490   -0.7570   -2.5260 C   0  0  0  0  0  0  0  0  0  0  0  0
    4.5740   -0.3490   -2.1470 C   0  0  0  0  0  0  0  0  0  0  0  0
  2  1  1  6
  2  3  1  0
  2  4  1  0
  2  5  1  0
  5  6  2  0
  5  7  1  0
  7  8  1  0
  8  9  2  0
  8 14  1  0
  9 10  1  0
 10 11  2  0
 11 12  1  0
 12 13  1  0
 12 14  2  0
 14 15  1  0
 15 16  1  0
 16 17  1  0
 17 18  2  0
 17 19  1  0
 19 20  1  0
 20 21  2  0
 20 25  1  0
 21 22  1  0
 22 23  2  0
 23 24  1  0
 24 25  2  0
M  END
