
     RDKit          3D

 22 23  0  0  0  0  0  0  0  0999 V2000
   -1.3100   -2.9390    0.0730 C   0  0  0  0  0  0  0  0  0  0  0  0
   -2.2700   -2.1550    0.7000 O   0  0  0  0  0  0  0  0  0  0  0  0
   -2.6090   -0.8540    0.4300 C   0  0  0  0  0  0  0  0  0  0  0  0
   -3.8380   -0.3770    0.3990 C   0  0  0  0  0  0  0  0  0  0  0  0
   -4.2600    0.9850    0.1200 C   0  0  2  0  0  0  0  0  0  0  0  0
   -5.0910    0.9550   -1.0450 O   0  0  0  0  0  0  0  0  0  0  0  0
   -3.1900    1.9520   -0.1580 C   0  0  2  0  0  0  0  0  0  0  0  0
   -3.4160    2.6920   -1.4130 N   0  0  0  0  0  0  0  0  0  0  0  0
   -1.8440    1.3930   -0.1180 C   0  0  0  0  0  0  0  0  0  0  0  0
   -1.5730    0.1480    0.1420 C   0  0  0  0  0  0  0  0  0  0  0  0
   -0.2430   -0.2770    0.1540 O   0  0  0  0  0  0  0  0  0  0  0  0
    0.8170    0.6090   -0.0510 C   0  0  0  0  0  0  0  0  0  0  0  0
    2.1430   -0.0550    0.0020 C   0  0  0  0  0  0  0  0  0  0  0  0
    3.0960    0.2560    0.8680 C   0  0  0  0  0  0  0  0  0  0  0  0
    4.3840   -0.3950    0.9130 C   0  0  0  0  0  0  0  0  0  0  0  0
    5.3330   -0.0740    1.7880 C   0  0  0  0  0  0  0  0  0  0  0  0
    5.0230    0.9710    2.7100 N   0  0  0  0  0  0  0  0  0  0  0  0
    4.6190   -1.4640   -0.0780 C   0  0  0  0  0  0  0  0  0  0  0  0
    5.7170   -2.0600   -0.0830 O   0  0  0  0  0  0  0  0  0  0  0  0
    3.5630   -1.7460   -0.9710 N   0  0  0  0  0  0  0  0  0  0  0  0
    2.4260   -1.1160   -0.9520 C   0  0  0  0  0  0  0  0  0  0  0  0
    1.3980   -1.5090   -1.9480 C   0  0  0  0  0  0  0  0  0  0  0  0
  1  2  1  0
  2  3  1  0
  3  4  2  0
  3 10  1  0
  4  5  1  0
  5  6  1  6
  5  7  1  0
  7  8  1  6
  7  9  1  0
  9 10  2  0
 10 11  1  0
 11 12  1  0
 12 13  1  0
 13 14  2  0
 13 21  1  0
 14 15  1  0
 15 16  2  3
 15 18  1  0
 16 17  1  0
 18 19  2  0
 18 20  1  0
 20 21  2  0
 21 22  1  0
M  CHG  1   8   1
M  END
