
     RDKit          3D

 22 23  0  0  0  0  0  0  0  0999 V2000
    5.2350    2.3230   -0.9170 N   0  0  0  0  0  0  0  0  0  0  0  0
    4.7970    1.1290   -0.5760 C   0  0  0  0  0  0  0  0  0  0  0  0
    3.3970    0.9580   -0.2540 C   0  0  0  0  0  0  0  0  0  0  0  0
    2.9210   -0.2170    0.0980 C   0  0  0  0  0  0  0  0  0  0  0  0
    1.5450   -0.3530    0.4080 N   0  0  0  0  0  0  0  0  0  0  0  0
    0.7350   -1.2310   -0.3260 C   0  0  0  0  0  0  0  0  0  0  0  0
    1.2620   -1.8970   -1.2650 O   0  0  0  0  0  0  0  0  0  0  0  0
   -0.7050   -1.3680   -0.0020 C   0  0  2  0  0  0  0  0  0  0  0  0
   -1.5540   -1.3260   -1.2360 C   0  0  0  0  0  0  0  0  0  0  0  0
   -2.8500   -0.7500   -0.9990 N   0  0  0  0  0  0  0  0  0  0  0  0
   -3.6510   -1.5140   -0.0770 C   0  0  0  0  0  0  0  0  0  0  0  0
   -4.0660   -2.8520   -0.6710 C   0  0  0  0  0  0  0  0  0  0  0  0
   -4.8230   -2.6280   -1.8420 O   0  0  0  0  0  0  0  0  0  0  0  0
   -2.6260    0.5850   -0.4870 C   0  0  0  0  0  0  0  0  0  0  0  0
   -1.8980    0.4930    0.8000 C   0  0  2  0  0  0  0  0  0  0  0  0
   -1.2450    1.8410    1.1610 C   0  0  0  0  0  0  0  0  0  0  0  0
   -2.3460    2.8500    1.2680 C   0  0  0  0  0  0  0  0  0  0  0  0
   -1.8670    4.1210    1.6060 O   0  0  0  0  0  0  0  0  0  0  0  0
   -1.0540   -0.5460    0.9970 O   0  0  0  0  0  0  0  0  0  0  0  0
    3.8520   -1.3180    0.1460 C   0  0  0  0  0  0  0  0  0  0  0  0
    5.1380   -1.2330   -0.1370 C   0  0  0  0  0  0  0  0  0  0  0  0
    5.7720    0.0310   -0.5410 C   0  0  0  0  0  0  0  0  0  0  0  0
  1  2  2  0
  2  3  1  0
  2 22  1  0
  3  4  2  0
  4  5  1  0
  4 20  1  0
  5  6  1  0
  6  7  2  0
  8  6  1  6
  8  9  1  0
  8 19  1  0
  9 10  1  0
 10 11  1  0
 10 14  1  0
 11 12  1  0
 12 13  1  0
 14 15  1  0
 15 16  1  6
 15 19  1  0
 16 17  1  0
 17 18  1  0
 20 21  2  0
 21 22  1  0
M  CHG  1   1   1
M  END
