
     RDKit          3D

 12 12  0  0  0  0  0  0  0  0999 V2000
   -2.0980   -1.4490   -0.0890 O   0  0  0  0  0  0  0  0  0  0  0  0
   -0.9280   -0.6780   -0.0400 C   0  0  0  0  0  0  0  0  0  0  0  0
    0.2860   -1.3080   -0.0050 C   0  0  0  0  0  0  0  0  0  0  0  0
    0.3170   -3.0630   -0.0240 Cl  0  0  0  0  0  0  0  0  0  0  0  0
    1.4550   -0.5620    0.0440 C   0  0  0  0  0  0  0  0  0  0  0  0
    2.9930   -1.3840    0.0870 Cl  0  0  0  0  0  0  0  0  0  0  0  0
    1.3900    0.8160    0.0570 C   0  0  0  0  0  0  0  0  0  0  0  0
    2.8470    1.7980    0.1190 Cl  0  0  0  0  0  0  0  0  0  0  0  0
    0.1870    1.4620    0.0230 C   0  0  0  0  0  0  0  0  0  0  0  0
    0.0720    3.2250    0.0390 Cl  0  0  0  0  0  0  0  0  0  0  0  0
   -0.9660    0.7020   -0.0250 C   0  0  0  0  0  0  0  0  0  0  0  0
   -2.5430    1.4910   -0.0710 Cl  0  0  0  0  0  0  0  0  0  0  0  0
  1  2  1  0
  2  3  2  0
  2 11  1  0
  3  4  1  0
  3  5  1  0
  5  6  1  0
  5  7  2  0
  7  8  1  0
  7  9  1  0
  9 10  1  0
  9 11  2  0
 11 12  1  0
M  END
