
     RDKit          3D

 25 26  0  0  0  0  0  0  0  0999 V2000
   -6.3030   -2.4420   -0.0230 C   0  0  0  0  0  0  0  0  0  0  0  0
   -4.9120   -2.5750   -0.1450 O   0  0  0  0  0  0  0  0  0  0  0  0
   -4.0500   -1.4920   -0.1060 C   0  0  0  0  0  0  0  0  0  0  0  0
   -4.5490   -0.3550    0.0440 O   0  0  0  0  0  0  0  0  0  0  0  0
   -2.6160   -1.6710   -0.2360 C   0  0  0  0  0  0  0  0  0  0  0  0
   -1.9990   -2.8880   -0.4160 C   0  0  0  0  0  0  0  0  0  0  0  0
   -2.6310   -4.2540   -0.5070 C   0  0  0  0  0  0  0  0  0  0  0  0
   -0.6820   -2.6310   -0.5020 N   0  0  0  0  0  0  0  0  0  0  0  0
   -0.4280   -1.3250   -0.3870 C   0  0  0  0  0  0  0  0  0  0  0  0
    0.8220   -0.6500   -0.4270 N   0  0  0  0  0  0  0  0  0  0  0  0
    2.0860   -1.2360   -0.5930 C   0  0  0  0  0  0  0  0  0  0  0  0
    2.0840   -2.5190   -0.7150 O   0  0  0  0  0  0  0  0  0  0  0  0
    3.3620   -0.5460   -0.6380 C   0  0  0  0  0  0  0  0  0  0  0  0
    3.4060    0.7650   -0.5170 C   0  0  0  0  0  0  0  0  0  0  0  0
    4.6620    1.5020   -0.5560 C   0  0  0  0  0  0  0  0  0  0  0  0
    4.8060    2.7930   -0.4460 C   0  0  0  0  0  0  0  0  0  0  0  0
    6.2360    3.1210   -0.5390 C   0  0  0  0  0  0  0  0  0  0  0  0
    6.8980    1.8150   -0.7210 C   0  0  0  0  0  0  0  0  0  0  0  0
    5.9670    0.8970   -0.7270 C   0  0  0  0  0  0  0  0  0  0  0  0
   -1.6610   -0.6830   -0.2130 C   0  0  0  0  0  0  0  0  0  0  0  0
   -1.8630    0.7820   -0.0120 C   0  0  0  0  0  0  0  0  0  0  0  0
   -2.0360    1.0760    1.4780 C   0  0  0  0  0  0  0  0  0  0  0  0
   -2.2550    2.5240    1.7010 C   0  0  0  0  0  0  0  0  0  0  0  0
   -1.1640    3.4470    2.0620 C   0  0  0  0  0  0  0  0  0  0  0  0
   -3.3890    2.9720    1.5800 O   0  0  0  0  0  0  0  0  0  0  0  0
  1  2  1  0
  2  3  1  0
  3  4  2  0
  3  5  1  0
  5  6  2  0
  5 20  1  0
  6  7  1  0
  6  8  1  0
  8  9  1  0
  9 10  1  0
  9 20  2  0
 10 11  1  0
 11 12  2  0
 11 13  1  0
 13 14  2  3
 14 15  1  0
 15 16  2  0
 15 19  1  0
 16 17  1  0
 17 18  1  0
 18 19  2  0
 20 21  1  0
 21 22  1  0
 22 23  1  0
 23 24  1  0
 23 25  2  0
M  END
