
     RDKit          3D

 22 23  0  0  0  0  0  0  0  0999 V2000
    3.0880   -1.4820   -2.2060 N   0  0  0  0  0  0  0  0  0  0  0  0
    3.9640   -0.9720   -1.2180 C   0  0  0  0  0  0  0  0  0  0  0  0
    3.4440   -0.2810   -0.1950 C   0  0  0  0  0  0  0  0  0  0  0  0
    2.0490   -0.1110   -0.1790 N   0  0  0  0  0  0  0  0  0  0  0  0
    1.2980    0.5800    0.8010 C   0  0  0  0  0  0  0  0  0  0  0  0
    1.8730    1.1230    1.7820 O   0  0  0  0  0  0  0  0  0  0  0  0
   -0.1810    0.7060    0.7360 C   0  0  1  0  0  0  0  0  0  0  0  0
   -0.6280    2.1230    0.5440 C   0  0  0  0  0  0  0  0  0  0  0  0
   -0.2090    3.0720    1.6270 C   0  0  0  0  0  0  0  0  0  0  0  0
   -0.7420    4.3320    1.2520 O   0  0  0  0  0  0  0  0  0  0  0  0
   -0.7100   -0.0950   -0.3170 N   0  0  0  0  0  0  0  0  0  0  0  0
   -2.1560   -0.1160   -0.3860 C   0  0  2  0  0  0  0  0  0  0  0  0
   -2.8340   -0.4620    0.8870 C   0  0  0  0  0  0  0  0  0  0  0  0
   -4.0570   -1.3170    0.6470 C   0  0  0  0  0  0  0  0  0  0  0  0
   -4.7880   -0.9610   -0.6130 C   0  0  0  0  0  0  0  0  0  0  0  0
   -3.9240   -0.9240   -1.8320 C   0  0  0  0  0  0  0  0  0  0  0  0
   -2.4910   -1.1720   -1.4480 C   0  0  2  0  0  0  0  0  0  0  0  0
   -2.3100   -2.4530   -0.9960 O   0  0  0  0  0  0  0  0  0  0  0  0
    4.3640    0.2180    0.7830 C   0  0  0  0  0  0  0  0  0  0  0  0
    5.6770   -0.0010    0.6720 C   0  0  0  0  0  0  0  0  0  0  0  0
    6.2540   -0.7530   -0.4400 C   0  0  0  0  0  0  0  0  0  0  0  0
    5.3220   -1.2160   -1.3610 O   0  0  0  0  0  0  0  0  0  0  0  0
  1  2  1  0
  2  3  2  0
  2 22  1  0
  3  4  1  0
  3 19  1  0
  4  5  1  0
  5  6  2  0
  5  7  1  0
  7  8  1  6
  7 11  1  0
  8  9  1  0
  9 10  1  0
 12 11  1  1
 12 13  1  0
 12 17  1  0
 13 14  1  0
 14 15  1  0
 15 16  1  0
 16 17  1  0
 17 18  1  1
 19 20  2  0
 20 21  1  0
 21 22  1  0
M  CHG  1  11   1
M  END
