
     RDKit          3D

 22 23  0  0  0  0  0  0  0  0999 V2000
   -1.9290    3.5300   -0.9090 C   0  0  0  0  0  0  0  0  0  0  0  0
   -1.7650    2.0900   -1.3230 C   0  0  0  0  0  0  0  0  0  0  0  0
   -1.4520    1.2600   -0.1460 N   0  0  0  0  0  0  0  0  0  0  0  0
   -2.6120    1.2510    0.6560 C   0  0  0  0  0  0  0  0  0  0  0  0
   -3.0370   -0.0450    1.2460 C   0  0  0  0  0  0  0  0  0  0  0  0
   -1.9220   -0.8070    1.4530 O   0  0  0  0  0  0  0  0  0  0  0  0
   -1.2270   -1.1670    0.3110 C   0  0  1  0  0  0  0  0  0  0  0  0
   -2.0430   -2.2440   -0.3710 C   0  0  0  0  0  0  0  0  0  0  0  0
   -2.1690   -3.4000    0.6090 C   0  0  0  0  0  0  0  0  0  0  0  0
   -2.7930   -3.0260    1.7760 O   0  0  0  0  0  0  0  0  0  0  0  0
   -0.9190    0.0020   -0.5970 C   0  0  2  0  0  0  0  0  0  0  0  0
    0.5800    0.1920   -0.7570 C   0  0  1  0  0  0  0  0  0  0  0  0
    1.2120    0.5600    0.5740 C   0  0  0  0  0  0  0  0  0  0  0  0
    2.6390    0.6850    0.4100 N   0  0  0  0  0  0  0  0  0  0  0  0
    3.5670    0.7450    1.4820 C   0  0  0  0  0  0  0  0  0  0  0  0
    4.8090    0.8560    1.2940 O   0  0  0  0  0  0  0  0  0  0  0  0
    3.0700    0.6750    2.8760 C   0  0  0  0  0  0  0  0  0  0  0  0
    4.1400    0.7500    3.7510 O   0  0  0  0  0  0  0  0  0  0  0  0
    3.1450    0.7520   -0.9410 C   0  0  0  0  0  0  0  0  0  0  0  0
    2.7380   -0.5120   -1.6260 C   0  0  0  0  0  0  0  0  0  0  0  0
    1.3280   -0.9690   -1.2980 C   0  0  2  0  0  0  0  0  0  0  0  0
    0.8120   -1.5890   -2.4570 N   0  0  0  0  0  0  0  0  0  0  0  0
  1  2  1  0
  2  3  1  0
  3  4  1  0
 11  3  1  1
  4  5  1  0
  5  6  1  0
  6  7  1  0
  7  8  1  6
  7 11  1  0
  8  9  1  0
  9 10  1  0
 11 12  1  0
 12 13  1  1
 12 21  1  0
 13 14  1  0
 14 15  1  0
 14 19  1  0
 15 16  2  0
 15 17  1  0
 17 18  1  0
 19 20  1  0
 20 21  1  0
 21 22  1  6
M  CHG  1  22   1
M  END
