
     RDKit          3D

 14 15  0  0  0  0  0  0  0  0999 V2000
   -3.5300    0.9590   -0.2330 N   0  0  0  0  0  0  0  0  0  0  0  0
   -3.1260   -0.2940   -0.7750 C   0  0  0  0  0  0  0  0  0  0  0  0
   -4.0160   -1.1300   -1.0770 O   0  0  0  0  0  0  0  0  0  0  0  0
   -1.6760   -0.6120   -0.9840 C   0  0  2  0  0  0  0  0  0  0  0  0
   -1.3690   -1.8450   -0.1310 C   0  0  0  0  0  0  0  0  0  0  0  0
    0.0110   -2.1360   -0.2020 O   0  0  0  0  0  0  0  0  0  0  0  0
    0.9110   -1.0700   -0.1900 C   0  0  0  0  0  0  0  0  0  0  0  0
    2.2120   -1.2550   -0.0090 C   0  0  0  0  0  0  0  0  0  0  0  0
    3.0860   -0.2060    0.0020 O   0  0  0  0  0  0  0  0  0  0  0  0
    2.7460    1.1230   -0.1660 C   0  0  2  0  0  0  0  0  0  0  0  0
    3.1100    1.8650    1.0460 N   0  0  0  0  0  0  0  0  0  0  0  0
    1.3030    1.3070   -0.3650 C   0  0  0  0  0  0  0  0  0  0  0  0
    0.4770    0.3050   -0.3740 C   0  0  0  0  0  0  0  0  0  0  0  0
   -0.9060    0.4920   -0.5650 O   0  0  0  0  0  0  0  0  0  0  0  0
  1  2  1  0
  2  3  2  0
  4  2  1  1
  4  5  1  0
  4 14  1  0
  5  6  1  0
  6  7  1  0
  7  8  2  0
  7 13  1  0
  8  9  1  0
  9 10  1  0
 10 11  1  1
 10 12  1  0
 12 13  2  0
 13 14  1  0
M  END
