
     RDKit          3D

 10 10  0  0  0  0  0  0  0  0999 V2000
    1.8850   -0.4770    0.4840 C   0  0  0  0  0  0  0  0  0  0  0  0
    0.7630    0.4340    0.1770 C   0  0  0  0  0  0  0  0  0  0  0  0
    0.7460    1.7460    0.1380 O   0  0  0  0  0  0  0  0  0  0  0  0
   -0.4270    2.2090   -0.1700 C   0  0  0  0  0  0  0  0  0  0  0  0
   -1.2510    1.1110   -0.3490 C   0  0  0  0  0  0  0  0  0  0  0  0
   -0.5170   -0.0300   -0.1340 C   0  0  0  0  0  0  0  0  0  0  0  0
   -1.0270   -1.3900   -0.2270 C   0  0  1  0  0  0  0  0  0  0  0  0
   -0.2030   -2.3760   -1.4380 Cl  0  0  0  0  0  0  0  0  0  0  0  0
   -0.8780   -2.2590    1.3400 Cl  0  0  0  0  0  0  0  0  0  0  0  0
   -2.7530   -1.3610   -0.6280 Cl  0  0  0  0  0  0  0  0  0  0  0  0
  1  2  1  0
  2  3  1  0
  2  6  2  0
  3  4  1  0
  4  5  2  0
  5  6  1  0
  6  7  1  0
  7  8  1  6
  7  9  1  0
  7 10  1  0
M  END
