
     RDKit          3D

 10 10  0  0  0  0  0  0  0  0999 V2000
    1.1450   -0.7570   -1.4890 O   0  0  0  0  0  0  0  0  0  0  0  0
    0.3570   -0.2670   -0.6970 C   0  0  0  0  0  0  0  0  0  0  0  0
    0.9360    0.4300    0.4820 C   0  0  0  0  0  0  0  0  0  0  0  0
    2.4400    0.3990    0.4750 C   0  0  1  0  0  0  0  0  0  0  0  0
    3.0460    1.2010   -0.9930 Cl  0  0  0  0  0  0  0  0  0  0  0  0
    3.1160    1.1490    1.9360 Cl  0  0  0  0  0  0  0  0  0  0  0  0
    2.9980   -1.3100    0.4730 Cl  0  0  0  0  0  0  0  0  0  0  0  0
   -1.0750   -0.4000   -0.9590 C   0  0  1  0  0  0  0  0  0  0  0  0
   -1.8750   -0.8130    0.2970 C   0  0  0  0  0  0  0  0  0  0  0  0
   -2.0920    0.4880   -0.3600 C   0  0  0  0  0  0  0  0  0  0  0  0
  1  2  2  0
  2  3  1  0
  8  2  1  1
  3  4  1  0
  4  5  1  6
  4  6  1  0
  4  7  1  0
  8  9  1  0
  8 10  1  0
  9 10  1  0
M  END
