
     RDKit          3D

 25 26  0  0  0  0  0  0  0  0999 V2000
    3.7840   -3.3170   -0.0840 C   0  0  0  0  0  0  0  0  0  0  0  0
    3.5980   -2.5980    1.1540 N   0  0  0  0  0  0  0  0  0  0  0  0
    4.8340   -1.9800    1.5860 C   0  0  0  0  0  0  0  0  0  0  0  0
    2.5550   -1.6540    1.0480 N   0  0  0  0  0  0  0  0  0  0  0  0
    2.6430   -0.5350    0.1330 C   0  0  0  0  0  0  0  0  0  0  0  0
    3.6930   -0.4750   -0.5340 O   0  0  0  0  0  0  0  0  0  0  0  0
    1.5190    0.4030    0.0740 C   0  0  0  0  0  0  0  0  0  0  0  0
    0.4650    0.1180    0.9000 O   0  0  0  0  0  0  0  0  0  0  0  0
   -0.7660    0.6220    1.0360 C   0  0  0  0  0  0  0  0  0  0  0  0
   -1.8070    0.1250    0.4120 C   0  0  0  0  0  0  0  0  0  0  0  0
   -1.6690   -1.0070   -0.4650 C   0  0  0  0  0  0  0  0  0  0  0  0
   -0.4160   -1.6100   -0.6810 N   0  0  0  0  0  0  0  0  0  0  0  0
   -2.6830   -1.4620   -1.0470 O   0  0  0  0  0  0  0  0  0  0  0  0
   -3.1470    0.7450    0.6340 C   0  0  2  0  0  0  0  0  0  0  0  0
   -4.0910   -0.2250    1.2390 C   0  0  0  0  0  0  0  0  0  0  0  0
   -5.2550   -0.2370    0.2870 C   0  0  0  0  0  0  0  0  0  0  0  0
   -4.8490    0.5870   -0.7980 N   0  0  0  0  0  0  0  0  0  0  0  0
   -3.7240    1.1990   -0.5050 O   0  0  0  0  0  0  0  0  0  0  0  0
    1.5210    1.4530   -0.7260 C   0  0  0  0  0  0  0  0  0  0  0  0
    0.4790    2.4160   -0.8510 N   0  0  0  0  0  0  0  0  0  0  0  0
    0.8850    3.3830   -1.8330 C   0  0  0  0  0  0  0  0  0  0  0  0
    0.1390    4.5110   -2.2610 N   0  0  0  0  0  0  0  0  0  0  0  0
    2.0400    3.0880   -2.2860 N   0  0  0  0  0  0  0  0  0  0  0  0
    2.5420    1.8870   -1.6600 C   0  0  0  0  0  0  0  0  0  0  0  0
    3.6550    1.4180   -1.9560 O   0  0  0  0  0  0  0  0  0  0  0  0
  1  2  1  0
  2  3  1  0
  2  4  1  0
  4  5  1  0
  5  6  2  0
  5  7  1  0
  7  8  1  0
  7 19  2  3
  8  9  1  0
  9 10  2  3
 10 11  1  0
 14 10  1  6
 11 12  1  0
 11 13  2  0
 14 15  1  0
 14 18  1  0
 15 16  1  0
 16 17  1  0
 17 18  1  0
 19 20  1  0
 19 24  1  0
 20 21  1  0
 21 22  1  0
 21 23  2  0
 23 24  1  0
 24 25  2  0
M  CHG  1  17   1
M  END
