
     RDKit          3D

 24 25  0  0  0  0  0  0  0  0999 V2000
    6.1960    0.0050   -0.7240 N   0  0  0  0  0  0  0  0  0  0  0  0
    5.1790   -0.4090    0.1660 C   0  0  0  0  0  0  0  0  0  0  0  0
    5.3010   -0.2110    1.4220 O   0  0  0  0  0  0  0  0  0  0  0  0
    3.9580   -1.0720   -0.2880 C   0  0  0  0  0  0  0  0  0  0  0  0
    2.8130   -0.8160    0.4840 N   0  0  0  0  0  0  0  0  0  0  0  0
    1.8180    0.0690    0.1080 C   0  0  0  0  0  0  0  0  0  0  0  0
    1.8490    0.8140   -1.1480 C   0  0  0  0  0  0  0  0  0  0  0  0
    2.9600    1.7950   -1.2160 N   0  0  0  0  0  0  0  0  0  0  0  0
    0.7210    0.1900    0.8830 C   0  0  0  0  0  0  0  0  0  0  0  0
   -0.5750    0.8930    0.6530 C   0  0  0  0  0  0  0  0  0  0  0  0
   -0.8650    1.9520    1.2360 O   0  0  0  0  0  0  0  0  0  0  0  0
   -1.5130    0.2570   -0.2200 N   0  0  0  0  0  0  0  0  0  0  0  0
   -2.8670    0.6440   -0.3760 C   0  0  1  0  0  0  0  0  0  0  0  0
   -3.5890    0.8140   -1.6310 C   0  0  0  0  0  0  0  0  0  0  0  0
   -5.0830    0.9710   -1.2220 C   0  0  0  0  0  0  0  0  0  0  0  0
   -5.5730   -0.1290   -0.5470 O   0  0  0  0  0  0  0  0  0  0  0  0
   -4.8830   -0.3870    0.6070 C   0  0  0  0  0  0  0  0  0  0  0  0
   -3.4980   -0.7000    0.2460 C   0  0  1  0  0  0  0  0  0  0  0  0
   -3.4020   -1.7090   -0.7390 N   0  0  0  0  0  0  0  0  0  0  0  0
    0.6350   -0.5640    2.0330 N   0  0  0  0  0  0  0  0  0  0  0  0
    1.5790   -1.3950    2.4070 C   0  0  0  0  0  0  0  0  0  0  0  0
    1.4880   -2.1020    3.4530 O   0  0  0  0  0  0  0  0  0  0  0  0
    2.6650   -1.4990    1.6140 C   0  0  0  0  0  0  0  0  0  0  0  0
    3.6020   -2.2820    1.9470 O   0  0  0  0  0  0  0  0  0  0  0  0
  1  2  1  0
  2  3  2  0
  2  4  1  0
  4  5  1  0
  5  6  1  0
  5 23  1  0
  6  7  1  0
  6  9  2  0
  7  8  1  0
  9 10  1  0
  9 20  1  0
 10 11  2  0
 10 12  1  0
 13 12  1  6
 13 14  1  0
 13 18  1  0
 14 15  1  0
 15 16  1  0
 16 17  1  0
 17 18  1  0
 18 19  1  6
 20 21  1  0
 21 22  2  0
 21 23  1  0
 23 24  2  0
M  CHG  1   8   1
M  END
