
     RDKit          3D

 25 26  0  0  0  0  0  0  0  0999 V2000
   -0.2290   -3.4050   -1.2350 N   0  0  0  0  0  0  0  0  0  0  0  0
   -1.1110   -2.3580   -0.9700 C   0  0  0  0  0  0  0  0  0  0  0  0
   -2.3540   -2.7130   -0.9090 O   0  0  0  0  0  0  0  0  0  0  0  0
   -0.8730   -0.9360   -0.7560 C   0  0  1  0  0  0  0  0  0  0  0  0
    0.5190   -0.6320   -0.4940 N   0  0  0  0  0  0  0  0  0  0  0  0
    1.4970   -1.0460   -1.4210 C   0  0  0  0  0  0  0  0  0  0  0  0
    2.8680   -0.6450   -1.2810 C   0  0  0  0  0  0  0  0  0  0  0  0
    3.8220   -0.8080   -1.9320 O   0  0  0  0  0  0  0  0  0  0  0  0
    3.2280    0.2640    0.1670 N   0  0  0  0  0  0  0  0  0  0  0  0
    4.5480    0.3660   -0.0210 C   0  0  0  0  0  0  0  0  0  0  0  0
    5.3740    0.1580   -0.8840 O   0  0  0  0  0  0  0  0  0  0  0  0
    5.1730    0.9160    1.2640 N   0  0  0  0  0  0  0  0  0  0  0  0
    6.5040    1.1150    1.2920 N   0  0  0  0  0  0  0  0  0  0  0  0
    7.1550    0.2990    2.2290 N   0  0  0  0  0  0  0  0  0  0  0  0
    8.2840   -0.1710    1.6630 O   0  0  0  0  0  0  0  0  0  0  0  0
   -1.2500   -0.1340   -1.9850 C   0  0  0  0  0  0  0  0  0  0  0  0
   -1.6020    1.2870   -1.5110 C   0  0  0  0  0  0  0  0  0  0  0  0
   -2.7670    1.1570   -0.8290 O   0  0  0  0  0  0  0  0  0  0  0  0
   -2.7340    0.4550    0.3470 C   0  0  2  0  0  0  0  0  0  0  0  0
   -4.0550   -0.3040    0.3920 C   0  0  0  0  0  0  0  0  0  0  0  0
   -5.2200    0.6560    0.5620 C   0  0  0  0  0  0  0  0  0  0  0  0
   -5.0790    1.2450    1.8620 N   0  0  0  0  0  0  0  0  0  0  0  0
   -3.9330    2.1290    1.7990 C   0  0  0  0  0  0  0  0  0  0  0  0
   -2.6520    1.4810    1.4550 C   0  0  0  0  0  0  0  0  0  0  0  0
   -1.6250   -0.5230    0.4840 C   0  0  0  0  0  0  0  0  0  0  0  0
  1  2  1  0
  2  3  2  0
  2  4  1  0
  4  5  1  1
  4 16  1  0
  4 25  1  0
  5  6  1  0
  6  7  1  0
  7  8  2  0
  7  9  1  0
  9 10  1  0
 10 11  2  0
 10 12  1  0
 12 13  1  0
 13 14  1  0
 14 15  1  0
 16 17  1  0
 17 18  1  0
 18 19  1  0
 19 20  1  1
 19 24  1  0
 19 25  1  0
 20 21  1  0
 21 22  1  0
 22 23  1  0
 23 24  1  0
M  CHG  1   5   1
M  END
