
     RDKit          3D

 23 26  0  0  0  0  0  0  0  0999 V2000
   -0.0490   -3.4450    0.1630 O   0  0  0  0  0  0  0  0  0  0  0  0
    0.8310   -2.5900   -0.6690 S   0  0  1  0  0  0  0  0  0  0  0  0
    1.8500   -3.4560   -1.3510 O   0  0  0  0  0  0  0  0  0  0  0  0
   -0.1430   -1.7330   -1.7720 N   0  0  0  0  0  0  0  0  0  0  0  0
   -1.2050   -0.9270   -1.1490 C   0  0  0  0  0  0  0  0  0  0  0  0
   -1.6030   -0.6870   -0.0470 N   0  0  0  0  0  0  0  0  0  0  0  0
   -2.6050    0.0920    0.2740 C   0  0  0  0  0  0  0  0  0  0  0  0
   -3.1220    0.4140    1.5460 C   0  0  0  0  0  0  0  0  0  0  0  0
   -4.1860    1.2540    1.7060 C   0  0  0  0  0  0  0  0  0  0  0  0
   -4.8200    1.8370    0.6460 C   0  0  0  0  0  0  0  0  0  0  0  0
   -6.1670    2.8980    0.8680 Cl  0  0  0  0  0  0  0  0  0  0  0  0
   -4.3490    1.5510   -0.6410 C   0  0  0  0  0  0  0  0  0  0  0  0
   -3.2640    0.6920   -0.7560 C   0  0  0  0  0  0  0  0  0  0  0  0
   -2.3360    0.0500   -2.1850 S   0  0  0  0  0  0  0  0  0  0  0  0
    1.6810   -1.4510    0.4230 C   0  0  0  0  0  0  0  0  0  0  0  0
    1.4530   -1.5610    1.7790 C   0  0  0  0  0  0  0  0  0  0  0  0
    2.4590   -0.2830    2.5060 S   0  0  0  0  0  0  0  0  0  0  0  0
    3.1230    0.3190    0.9540 C   0  0  0  0  0  0  0  0  0  0  0  0
    4.0210    1.3500    0.6840 C   0  0  0  0  0  0  0  0  0  0  0  0
    4.3640    1.6010   -0.6320 C   0  0  0  0  0  0  0  0  0  0  0  0
    3.7910    0.8110   -1.5730 C   0  0  0  0  0  0  0  0  0  0  0  0
    2.9020   -0.2130   -1.3270 C   0  0  0  0  0  0  0  0  0  0  0  0
    2.5400   -0.4800    0.0290 C   0  0  0  0  0  0  0  0  0  0  0  0
  1  2  2  0
  2  3  2  0
  2  4  1  6
  2 15  1  0
  4  5  1  0
  5  6  2  0
  5 14  1  0
  6  7  1  0
  7  8  2  0
  7 13  1  0
  8  9  1  0
  9 10  2  0
 10 11  1  0
 10 12  1  0
 12 13  2  0
 13 14  1  0
 15 16  2  0
 15 23  1  0
 16 17  1  0
 17 18  1  0
 18 19  2  0
 18 23  1  0
 19 20  1  0
 20 21  2  0
 21 22  1  0
 22 23  2  0
M  END
