
     RDKit          3D

 25 26  0  0  0  0  0  0  0  0999 V2000
   -1.2240    0.3430   -1.2650 C   0  0  0  0  0  0  0  0  0  0  0  0
   -1.8920   -0.4120   -0.0920 C   0  0  2  0  0  0  0  0  0  0  0  0
   -1.0150   -0.1390    1.0920 C   0  0  2  0  0  0  0  0  0  0  0  0
    0.2790   -0.6270    0.7520 O   0  0  0  0  0  0  0  0  0  0  0  0
    1.4020    0.1380    0.6030 C   0  0  0  0  0  0  0  0  0  0  0  0
    1.3160    1.3600    0.7720 O   0  0  0  0  0  0  0  0  0  0  0  0
    2.6420   -0.4520    0.2600 N   0  0  0  0  0  0  0  0  0  0  0  0
    3.8530    0.2460    0.0830 C   0  0  0  0  0  0  0  0  0  0  0  0
    5.0360   -0.2900   -0.2410 N   0  0  0  0  0  0  0  0  0  0  0  0
    5.9420    0.7100   -0.3150 C   0  0  0  0  0  0  0  0  0  0  0  0
    7.3860    0.5380   -0.6500 C   0  0  0  0  0  0  0  0  0  0  0  0
    8.0090    1.7830   -0.6320 O   0  0  0  0  0  0  0  0  0  0  0  0
    5.3180    1.8590   -0.0370 N   0  0  0  0  0  0  0  0  0  0  0  0
    4.0400    1.5590    0.2040 N   0  0  0  0  0  0  0  0  0  0  0  0
   -1.4630   -0.6760    2.3820 C   0  0  0  0  0  0  0  0  0  0  0  0
   -0.5900   -1.5650    3.0730 N   0  0  0  0  0  0  0  0  0  0  0  0
   -2.5390   -0.4520    2.9710 O   0  0  0  0  0  0  0  0  0  0  0  0
   -1.9490   -1.8170   -0.5280 C   0  0  0  0  0  0  0  0  0  0  0  0
   -2.9860   -2.0350   -1.5730 C   0  0  0  0  0  0  0  0  0  0  0  0
   -4.2560   -1.4120   -1.2580 N   0  0  0  0  0  0  0  0  0  0  0  0
   -4.1390   -0.0040   -1.0370 C   0  0  0  0  0  0  0  0  0  0  0  0
   -3.2500    0.1990    0.1740 C   0  0  2  0  0  0  0  0  0  0  0  0
   -3.1880    1.6270    0.5610 C   0  0  0  0  0  0  0  0  0  0  0  0
   -2.5930    2.6360   -0.2610 N   0  0  0  0  0  0  0  0  0  0  0  0
   -3.6570    2.0560    1.6460 O   0  0  0  0  0  0  0  0  0  0  0  0
  2  1  1  6
  2  3  1  0
  2 18  1  0
  2 22  1  0
  3  4  1  6
  3 15  1  0
  4  5  1  0
  5  6  2  0
  5  7  1  0
  7  8  1  0
  8  9  2  0
  8 14  1  0
  9 10  1  0
 10 11  1  0
 10 13  2  0
 11 12  1  0
 13 14  1  0
 15 16  1  0
 15 17  2  0
 18 19  1  0
 19 20  1  0
 20 21  1  0
 21 22  1  0
 22 23  1  6
 23 24  1  0
 23 25  2  0
M  CHG  1  20   1
M  END
