
     RDKit          3D

 10 11  0  0  0  0  0  0  0  0999 V2000
    2.6250   -0.8290    0.5580 C   0  0  0  0  0  0  0  0  0  0  0  0
    1.7190   -0.0680   -0.3360 C   0  0  2  0  0  0  0  0  0  0  0  0
    1.7550    1.4240   -0.1320 C   0  0  0  0  0  0  0  0  0  0  0  0
    0.4240    1.8450   -0.6400 C   0  0  0  0  0  0  0  0  0  0  0  0
   -0.4250    0.8150   -0.5970 C   0  0  0  0  0  0  0  0  0  0  0  0
   -1.8610    0.6180   -0.9610 C   0  0  0  0  0  0  0  0  0  0  0  0
   -2.5190   -0.0020    0.2650 C   0  0  0  0  0  0  0  0  0  0  0  0
   -1.9000   -1.3270    0.6020 C   0  0  0  0  0  0  0  0  0  0  0  0
   -0.4250   -1.3230    0.4750 C   0  0  0  0  0  0  0  0  0  0  0  0
    0.2680   -0.3560   -0.0690 C   0  0  0  0  0  0  0  0  0  0  0  0
  2  1  1  1
  2  3  1  0
  2 10  1  0
  3  4  1  0
  4  5  2  0
  5  6  1  0
  5 10  1  0
  6  7  1  0
  7  8  1  0
  8  9  1  0
  9 10  2  0
M  END
