
     RDKit          3D

 24 27  0  0  0  0  0  0  0  0999 V2000
   -5.5710   -0.7610    1.1350 C   0  0  0  0  0  0  0  0  0  0  0  0
   -4.1480   -0.6780    0.6140 C   0  0  0  0  0  0  0  0  0  0  0  0
   -3.6320    0.5180    0.3890 C   0  0  0  0  0  0  0  0  0  0  0  0
   -4.5010    1.7020    0.6690 C   0  0  0  0  0  0  0  0  0  0  0  0
   -3.8450    2.9690    0.3910 C   0  0  0  0  0  0  0  0  0  0  0  0
   -2.6380    3.1270   -0.0530 C   0  0  0  0  0  0  0  0  0  0  0  0
   -1.7740    1.9870   -0.3330 C   0  0  0  0  0  0  0  0  0  0  0  0
   -0.5210    2.2080   -0.7970 N   0  0  0  0  0  0  0  0  0  0  0  0
    0.3090    1.2060   -1.0690 C   0  0  0  0  0  0  0  0  0  0  0  0
   -0.1150   -0.0800   -0.8730 C   0  0  0  0  0  0  0  0  0  0  0  0
    0.7290   -1.2340   -1.0910 C   0  0  0  0  0  0  0  0  0  0  0  0
    0.1900   -2.4190   -1.5160 N   0  0  0  0  0  0  0  0  0  0  0  0
    1.1350   -3.3290   -1.6690 C   0  0  0  0  0  0  0  0  0  0  0  0
    2.2750   -2.7210   -1.3380 N   0  0  0  0  0  0  0  0  0  0  0  0
    2.0180   -1.4390   -0.9820 N   0  0  0  0  0  0  0  0  0  0  0  0
    3.0550   -0.6370   -0.4400 C   0  0  0  0  0  0  0  0  0  0  0  0
    4.2990   -0.9330   -0.7730 C   0  0  0  0  0  0  0  0  0  0  0  0
    5.4300   -0.1330   -0.2450 C   0  0  0  0  0  0  0  0  0  0  0  0
    5.2820    0.2300    1.2060 C   0  0  0  0  0  0  0  0  0  0  0  0
    3.8860    0.1410    1.7000 C   0  0  0  0  0  0  0  0  0  0  0  0
    2.8930    0.4370    0.5660 C   0  0  0  0  0  0  0  0  0  0  0  0
   -1.4240   -0.3200   -0.3890 C   0  0  0  0  0  0  0  0  0  0  0  0
   -1.7820   -1.6960   -0.2110 N   0  0  0  0  0  0  0  0  0  0  0  0
   -2.2900    0.7040   -0.1050 C   0  0  0  0  0  0  0  0  0  0  0  0
  1  2  1  0
  2  3  2  3
  3  4  1  0
  3 24  1  0
  4  5  1  0
  5  6  2  0
  6  7  1  0
  7  8  2  0
  7 24  1  0
  8  9  1  0
  9 10  2  0
 10 11  1  0
 10 22  1  0
 11 12  2  0
 11 15  1  0
 12 13  1  0
 13 14  2  0
 14 15  1  0
 15 16  1  0
 16 17  2  0
 16 21  1  0
 17 18  1  0
 18 19  1  0
 19 20  1  0
 20 21  1  0
 22 23  1  0
 22 24  2  0
M  END
