
     RDKit          3D

 10 11  0  0  0  0  0  0  0  0999 V2000
   -3.9930   -0.4850    0.2240 C   0  0  0  0  0  0  0  0  0  0  0  0
   -2.4940   -0.4920    0.4770 C   0  0  0  0  0  0  0  0  0  0  0  0
   -1.8630    0.2770   -0.6760 C   0  0  0  0  0  0  0  0  0  0  0  0
   -0.3830    0.3380   -0.5360 C   0  0  0  0  0  0  0  0  0  0  0  0
    0.4970   -0.1360   -1.3990 C   0  0  0  0  0  0  0  0  0  0  0  0
    1.8800    0.0860   -0.9620 C   0  0  2  0  0  0  0  0  0  0  0  0
    2.3870   -0.5020    0.2900 C   0  0  1  0  0  0  0  0  0  0  0  0
    3.8660   -0.5080    0.5520 C   0  0  0  0  0  0  0  0  0  0  0  0
    1.7730    0.8890    0.3090 C   0  0  2  0  0  0  0  0  0  0  0  0
    0.3060    0.9580    0.6260 C   0  0  0  0  0  0  0  0  0  0  0  0
  1  2  1  0
  2  3  1  0
  3  4  1  0
  4  5  2  0
  4 10  1  0
  6  5  1  1
  6  7  1  0
  6  9  1  0
  7  8  1  6
  7  9  1  0
  9 10  1  1
M  END
