
     RDKit          3D

 10 11  0  0  0  0  0  0  0  0999 V2000
    2.0760   -0.9600   -0.8650 C   0  0  0  0  0  0  0  0  0  0  0  0
    1.3130    0.0060   -0.0330 C   0  0  1  0  0  0  0  0  0  0  0  0
    1.0830    1.3420   -0.6980 C   0  0  0  0  0  0  0  0  0  0  0  0
   -0.1640    1.8930   -0.0450 C   0  0  0  0  0  0  0  0  0  0  0  0
   -0.6480    0.8530    0.9300 C   0  0  1  0  0  0  0  0  0  0  0  0
   -2.1090    0.6130    0.7610 C   0  0  0  0  0  0  0  0  0  0  0  0
   -2.3050   -0.2220   -0.2560 C   0  0  0  0  0  0  0  0  0  0  0  0
   -0.9790   -0.6130   -0.8540 C   0  0  0  0  0  0  0  0  0  0  0  0
   -0.0700   -0.4270    0.3250 C   0  0  1  0  0  0  0  0  0  0  0  0
   -0.1420   -1.5870    1.2490 C   0  0  0  0  0  0  0  0  0  0  0  0
  2  1  1  6
  2  3  1  0
  2  9  1  0
  3  4  1  0
  5  4  1  6
  5  6  1  0
  5  9  1  0
  6  7  2  0
  7  8  1  0
  8  9  1  0
  9 10  1  1
M  END
