
     RDKit          3D

 10 11  0  0  0  0  0  0  0  0999 V2000
   -3.3640    0.5680    0.4170 C   0  0  0  0  0  0  0  0  0  0  0  0
   -2.1860   -0.0300    0.2870 C   0  0  0  0  0  0  0  0  0  0  0  0
   -1.8320   -1.3110   -0.3760 C   0  0  0  0  0  0  0  0  0  0  0  0
   -0.5480   -0.8870   -1.1030 C   0  0  0  0  0  0  0  0  0  0  0  0
    0.1410    0.0370   -0.1500 C   0  0  1  0  0  0  0  0  0  0  0  0
    1.5050   -0.3810    0.2820 C   0  0  2  0  0  0  0  0  0  0  0  0
    2.1610    0.5760    1.2400 C   0  0  0  0  0  0  0  0  0  0  0  0
    2.3860   -0.4350   -0.9660 C   0  0  0  0  0  0  0  0  0  0  0  0
   -0.2040    1.4720   -0.0600 C   0  0  0  0  0  0  0  0  0  0  0  0
   -0.8950    0.4910    0.8120 C   0  0  1  0  0  0  0  0  0  0  0  0
  1  2  2  0
  2  3  1  0
  2 10  1  0
  3  4  1  0
  5  4  1  6
  5  6  1  0
  5  9  1  0
  5 10  1  0
  6  7  1  1
  6  8  1  0
 10  9  1  6
M  END
