
     RDKit          3D

 43 46  0  0  0  0  0  0  0  0999 V2000
   -8.2890   -0.2740    2.7950 C   0  0  0  0  0  0  0  0  0  0  0  0
   -7.8340    0.3150    4.0810 C   0  0  0  0  0  0  0  0  0  0  0  0
   -6.7420    1.1990    3.9770 O   0  0  0  0  0  0  0  0  0  0  0  0
   -5.5210    0.7840    3.4690 C   0  0  0  0  0  0  0  0  0  0  0  0
   -5.4210   -0.3970    3.1060 O   0  0  0  0  0  0  0  0  0  0  0  0
   -4.4240    1.6120    3.3470 O   0  0  0  0  0  0  0  0  0  0  0  0
   -3.1740    1.1980    2.8300 C   0  0  0  0  0  0  0  0  0  0  0  0
   -3.3570    0.7240    1.4330 C   0  0  0  0  0  0  0  0  0  0  0  0
   -4.4060    0.6470    0.7000 O   0  0  0  0  0  0  0  0  0  0  0  0
   -4.0980    0.1540   -0.5040 C   0  0  0  0  0  0  0  0  0  0  0  0
   -5.0240    0.0130   -1.3470 N   0  0  0  0  0  0  0  0  0  0  0  0
   -2.8010   -0.1100   -0.5930 N   0  0  0  0  0  0  0  0  0  0  0  0
   -2.0470   -0.6090   -1.5890 C   0  0  0  0  0  0  0  0  0  0  0  0
   -2.4620   -0.8800   -2.7860 C   0  0  0  0  0  0  0  0  0  0  0  0
   -3.7170   -0.7880   -3.4780 C   0  0  0  0  0  0  0  0  0  0  0  0
   -4.6560   -1.8200   -3.6890 C   0  0  0  0  0  0  0  0  0  0  0  0
   -5.6910   -1.3380   -4.3870 N   0  0  0  0  0  0  0  0  0  0  0  0
   -5.4130   -0.0400   -4.6100 C   0  0  0  0  0  0  0  0  0  0  0  0
   -4.2740    0.2620   -4.0800 O   0  0  0  0  0  0  0  0  0  0  0  0
   -0.6430   -0.7740   -1.3140 C   0  0  0  0  0  0  0  0  0  0  0  0
    0.1230   -1.3680   -2.1660 C   0  0  0  0  0  0  0  0  0  0  0  0
    1.4350   -1.7650   -2.4180 C   0  0  0  0  0  0  0  0  0  0  0  0
    2.6150   -1.7180   -1.9000 C   0  0  0  0  0  0  0  0  0  0  0  0
    3.1750   -1.1870   -0.7200 N   0  0  0  0  0  0  0  0  0  0  0  0
    4.4150   -1.3850   -0.6280 C   0  0  0  0  0  0  0  0  0  0  0  0
    5.2300   -0.9570    0.4560 N   0  0  0  0  0  0  0  0  0  0  0  0
    4.8530    0.0970    1.3380 C   0  0  2  0  0  0  0  0  0  0  0  0
    4.6220    1.3730    0.5750 C   0  0  0  0  0  0  0  0  0  0  0  0
    5.5520    1.9240   -0.0680 O   0  0  0  0  0  0  0  0  0  0  0  0
    6.4310    1.9060   -0.9980 C   0  0  0  0  0  0  0  0  0  0  0  0
    7.5280    0.8770   -0.8830 C   0  0  0  0  0  0  0  0  0  0  0  0
    8.2180    1.0770    0.2980 O   0  0  0  0  0  0  0  0  0  0  0  0
    9.1910    0.1910    0.4310 O   0  0  0  0  0  0  0  0  0  0  0  0
    5.8400    0.2670    2.4420 C   0  0  0  0  0  0  0  0  0  0  0  0
    6.8600   -0.4440    2.5880 O   0  0  0  0  0  0  0  0  0  0  0  0
    5.6150    1.2770    3.3650 O   0  0  0  0  0  0  0  0  0  0  0  0
    4.8890   -2.0700   -1.7130 O   0  0  0  0  0  0  0  0  0  0  0  0
    3.8410   -2.3200   -2.5590 C   0  0  0  0  0  0  0  0  0  0  0  0
    3.8440   -2.9190   -3.6570 O   0  0  0  0  0  0  0  0  0  0  0  0
   -0.2520   -0.3850   -0.0540 C   0  0  0  0  0  0  0  0  0  0  0  0
    0.9770   -0.4860    0.2910 N   0  0  0  0  0  0  0  0  0  0  0  0
   -1.0590    0.0980    0.8590 O   0  0  0  0  0  0  0  0  0  0  0  0
   -2.3190    0.2440    0.6260 C   0  0  0  0  0  0  0  0  0  0  0  0
  1  2  1  0
  2  3  1  0
  3  4  1  0
  4  5  2  0
  4  6  1  0
  6  7  1  0
  7  8  1  0
  8  9  1  0
  8 43  2  0
  9 10  1  0
 10 11  2  0
 10 12  1  0
 12 13  1  0
 12 43  1  0
 13 14  2  3
 13 20  1  0
 14 15  1  0
 15 16  2  0
 15 19  1  0
 16 17  1  0
 17 18  2  0
 18 19  1  0
 20 21  2  3
 20 40  1  0
 21 22  1  0
 22 23  2  3
 23 24  1  0
 23 38  1  0
 24 25  2  0
 25 26  1  0
 25 37  1  0
 26 27  1  0
 27 28  1  6
 27 34  1  0
 28 29  1  0
 29 30  1  0
 30 31  1  0
 31 32  1  0
 32 33  1  0
 34 35  2  0
 34 36  1  0
 37 38  1  0
 38 39  2  0
 40 41  2  0
 40 42  1  0
 42 43  1  0
M  END
