
     RDKit          3D

 43 45  0  0  0  0  0  0  0  0999 V2000
   -0.3190    0.8720   -0.8690 C   0  0  0  0  0  0  0  0  0  0  0  0
    0.7780    1.7910   -0.5030 C   0  0  1  0  0  0  0  0  0  0  0  0
    1.8310    1.9880   -1.5480 C   0  0  0  0  0  0  0  0  0  0  0  0
    2.3600    0.8320   -2.2810 C   0  0  0  0  0  0  0  0  0  0  0  0
    3.3400    0.0480   -1.5090 N   0  0  0  0  0  0  0  0  0  0  0  0
    4.5760   -0.3440   -2.1230 C   0  0  0  0  0  0  0  0  0  0  0  0
    5.6760    0.6670   -2.0360 C   0  0  0  0  0  0  0  0  0  0  0  0
    6.0790    1.0710   -0.6530 C   0  0  0  0  0  0  0  0  0  0  0  0
    5.0570    1.6710    0.0810 O   0  0  0  0  0  0  0  0  0  0  0  0
    5.4430    2.0110    1.2790 O   0  0  0  0  0  0  0  0  0  0  0  0
    3.1670   -0.3540   -0.1410 C   0  0  0  0  0  0  0  0  0  0  0  0
    4.0140   -1.1640    0.2680 O   0  0  0  0  0  0  0  0  0  0  0  0
    2.1170    0.0760    0.8200 N   0  0  0  0  0  0  0  0  0  0  0  0
    1.9430   -1.0580    1.6710 C   0  0  0  0  0  0  0  0  0  0  0  0
    1.8560   -2.3980    0.9820 C   0  0  2  0  0  0  0  0  0  0  0  0
    1.3310   -2.3900   -0.3320 N   0  0  0  0  0  0  0  0  0  0  0  0
    1.9730   -3.0760   -1.3870 C   0  0  0  0  0  0  0  0  0  0  0  0
    3.0300   -3.7070   -1.1540 O   0  0  0  0  0  0  0  0  0  0  0  0
    1.4880   -3.0870   -2.6850 O   0  0  0  0  0  0  0  0  0  0  0  0
    0.9250   -3.3340    1.7930 C   0  0  0  0  0  0  0  0  0  0  0  0
   -0.3200   -2.5480    2.1090 C   0  0  0  0  0  0  0  0  0  0  0  0
   -1.5890   -3.4060    1.9920 C   0  0  0  0  0  0  0  0  0  0  0  0
   -2.6470   -2.5250    2.2040 O   0  0  0  0  0  0  0  0  0  0  0  0
   -3.7050   -2.7490    1.3360 C   0  0  0  0  0  0  0  0  0  0  0  0
   -3.4160   -2.0170    0.0530 C   0  0  0  0  0  0  0  0  0  0  0  0
   -4.6060   -1.4430   -0.5450 N   0  0  0  0  0  0  0  0  0  0  0  0
   -5.2900   -0.2870   -0.1040 C   0  0  0  0  0  0  0  0  0  0  0  0
   -6.5400   -0.3650    0.0190 O   0  0  0  0  0  0  0  0  0  0  0  0
   -4.6870    1.0030    0.2280 C   0  0  0  0  0  0  0  0  0  0  0  0
   -3.4410    1.1200    0.5780 O   0  0  0  0  0  0  0  0  0  0  0  0
   -3.0680    2.3030    0.8340 N   0  0  0  0  0  0  0  0  0  0  0  0
   -4.1440    3.1120    0.6510 C   0  0  0  0  0  0  0  0  0  0  0  0
   -4.1460    4.3620    0.8150 O   0  0  0  0  0  0  0  0  0  0  0  0
   -5.1910    2.3260    0.2660 C   0  0  0  0  0  0  0  0  0  0  0  0
   -6.5450    2.6270   -0.0630 N   0  0  0  0  0  0  0  0  0  0  0  0
   -7.0690    3.9310   -0.0030 C   0  0  0  0  0  0  0  0  0  0  0  0
   -6.4360    4.9360    0.3340 O   0  0  0  0  0  0  0  0  0  0  0  0
   -1.7190    2.6720    1.2410 C   0  0  0  0  0  0  0  0  0  0  0  0
   -1.0070    3.4030    0.1700 C   0  0  0  0  0  0  0  0  0  0  0  0
   -1.5930    4.3990   -0.3280 O   0  0  0  0  0  0  0  0  0  0  0  0
    0.2140    3.0740   -0.3000 O   0  0  0  0  0  0  0  0  0  0  0  0
    1.5280    1.3540    0.7500 C   0  0  0  0  0  0  0  0  0  0  0  0
    1.5100    2.2740    1.5980 O   0  0  0  0  0  0  0  0  0  0  0  0
  2  1  1  6
  2  3  1  0
  2 41  1  0
  2 42  1  0
  3  4  1  0
  4  5  1  0
  5  6  1  0
  5 11  1  0
  6  7  1  0
  7  8  1  0
  8  9  1  0
  9 10  1  0
 11 12  2  0
 11 13  1  0
 13 14  1  0
 13 42  1  0
 14 15  1  0
 15 16  1  6
 15 20  1  0
 16 17  1  0
 17 18  2  0
 17 19  1  0
 20 21  1  0
 21 22  1  0
 22 23  1  0
 23 24  1  0
 24 25  1  0
 25 26  1  0
 26 27  1  0
 27 28  2  0
 27 29  1  0
 29 30  1  0
 29 34  2  0
 30 31  1  0
 31 32  1  0
 31 38  1  0
 32 33  2  0
 32 34  1  0
 34 35  1  0
 35 36  1  0
 36 37  2  0
 38 39  1  0
 39 40  2  0
 39 41  1  0
 42 43  2  0
M  END
