
     RDKit          3D

 43 47  0  0  0  0  0  0  0  0999 V2000
   -0.4260   -3.5890   -4.5680 O   0  0  0  0  0  0  0  0  0  0  0  0
   -0.1320   -2.9630   -3.4640 C   0  0  0  0  0  0  0  0  0  0  0  0
    0.0130   -1.5820   -3.5560 N   0  0  0  0  0  0  0  0  0  0  0  0
   -0.5800   -0.4580   -2.9810 C   0  0  0  0  0  0  0  0  0  0  0  0
   -1.2920   -0.3750   -1.7400 C   0  0  1  0  0  0  0  0  0  0  0  0
   -1.5050    1.1480   -1.4470 C   0  0  0  0  0  0  0  0  0  0  0  0
   -2.5770    1.2880   -0.5360 O   0  0  0  0  0  0  0  0  0  0  0  0
   -2.9560    2.5550   -0.1220 C   0  0  0  0  0  0  0  0  0  0  0  0
   -2.3190    3.5340   -0.5850 O   0  0  0  0  0  0  0  0  0  0  0  0
   -4.0520    2.8140    0.8180 C   0  0  2  0  0  0  0  0  0  0  0  0
   -3.5250    3.4240    2.1040 C   0  0  0  0  0  0  0  0  0  0  0  0
   -3.2290    2.2750    2.8470 O   0  0  0  0  0  0  0  0  0  0  0  0
   -4.1610    1.3250    2.4810 C   0  0  0  0  0  0  0  0  0  0  0  0
   -4.6800    1.6750    1.2600 O   0  0  0  0  0  0  0  0  0  0  0  0
   -2.7800   -0.7300   -2.0930 C   0  0  0  0  0  0  0  0  0  0  0  0
   -2.7030   -2.0960   -2.4040 O   0  0  0  0  0  0  0  0  0  0  0  0
   -2.8090   -2.6830   -1.1250 C   0  0  0  0  0  0  0  0  0  0  0  0
   -2.0690   -1.9560   -0.0840 C   0  0  0  0  0  0  0  0  0  0  0  0
   -0.9780   -1.0600   -0.5480 N   0  0  0  0  0  0  0  0  0  0  0  0
    0.1260   -1.0320    0.3150 C   0  0  0  0  0  0  0  0  0  0  0  0
   -0.1720   -1.1810    1.6030 O   0  0  0  0  0  0  0  0  0  0  0  0
    1.5710   -0.8820    0.2010 C   0  0  2  0  0  0  0  0  0  0  0  0
    2.0460   -0.0630    1.4090 C   0  0  0  0  0  0  0  0  0  0  0  0
    1.2520    0.9830    1.8250 C   0  0  0  0  0  0  0  0  0  0  0  0
    1.6850    1.7270    2.9180 C   0  0  0  0  0  0  0  0  0  0  0  0
    2.8630    1.4490    3.5790 C   0  0  0  0  0  0  0  0  0  0  0  0
    3.2760    2.2110    4.6740 O   0  0  0  0  0  0  0  0  0  0  0  0
    4.0530    3.3030    4.4700 O   0  0  0  0  0  0  0  0  0  0  0  0
    4.6220    3.2280    3.2760 O   0  0  0  0  0  0  0  0  0  0  0  0
    5.9230    3.3870    3.3850 O   0  0  0  0  0  0  0  0  0  0  0  0
    3.6490    0.3950    3.1480 C   0  0  0  0  0  0  0  0  0  0  0  0
    3.2210   -0.3490    2.0600 C   0  0  0  0  0  0  0  0  0  0  0  0
    2.1580   -0.3240   -0.9660 N   0  0  0  0  0  0  0  0  0  0  0  0
    2.2090    1.0120   -1.2320 C   0  0  0  0  0  0  0  0  0  0  0  0
    2.8610    1.2020   -2.4200 C   0  0  0  0  0  0  0  0  0  0  0  0
    3.1870   -0.0170   -2.8400 N   0  0  0  0  0  0  0  0  0  0  0  0
    2.7690   -0.9810   -1.9670 C   0  0  0  0  0  0  0  0  0  0  0  0
    2.9530   -2.3840   -2.0690 N   0  0  0  0  0  0  0  0  0  0  0  0
    2.3450   -3.4310   -1.3820 C   0  0  0  0  0  0  0  0  0  0  0  0
    3.1170   -4.1910   -0.6480 O   0  0  0  0  0  0  0  0  0  0  0  0
    0.9550   -3.8410   -1.3370 C   0  0  0  0  0  0  0  0  0  0  0  0
    0.5530   -4.2780   -0.1950 O   0  0  0  0  0  0  0  0  0  0  0  0
   -0.0140   -3.8300   -2.3550 N   0  0  0  0  0  0  0  0  0  0  0  0
  1  2  2  0
  2  3  1  0
  2 43  1  0
  3  4  1  0
  4  5  1  0
  5  6  1  1
  5 15  1  0
  5 19  1  0
  6  7  1  0
  7  8  1  0
  8  9  2  0
 10  8  1  6
 10 11  1  0
 10 14  1  0
 11 12  1  0
 12 13  1  0
 13 14  1  0
 15 16  1  0
 16 17  1  0
 17 18  1  0
 18 19  1  0
 19 20  1  0
 20 21  2  0
 20 22  1  0
 22 23  1  1
 22 33  1  0
 23 24  2  0
 23 32  1  0
 24 25  1  0
 25 26  2  0
 26 27  1  0
 26 31  1  0
 27 28  1  0
 28 29  1  0
 29 30  1  0
 31 32  2  0
 33 34  1  0
 33 37  1  0
 34 35  2  0
 35 36  1  0
 36 37  2  0
 37 38  1  0
 38 39  1  0
 39 40  2  0
 39 41  1  0
 41 42  2  0
 41 43  1  0
M  END
