
     RDKit          3D

 43 47  0  0  0  0  0  0  0  0999 V2000
   -4.6670    1.9970    1.3760 O   0  0  0  0  0  0  0  0  0  0  0  0
   -5.8960    1.8930    1.5250 C   0  0  0  0  0  0  0  0  0  0  0  0
   -6.5430    0.6200    1.7370 C   0  0  0  0  0  0  0  0  0  0  0  0
   -5.7380   -0.6170    1.4550 C   0  0  1  0  0  0  0  0  0  0  0  0
   -4.6040   -0.7280    2.2630 O   0  0  0  0  0  0  0  0  0  0  0  0
   -3.2750   -0.5470    1.8220 C   0  0  0  0  0  0  0  0  0  0  0  0
   -2.4610    0.3080    2.5630 C   0  0  0  0  0  0  0  0  0  0  0  0
   -1.1690    0.5560    2.1910 C   0  0  0  0  0  0  0  0  0  0  0  0
   -0.6480   -0.0380    1.0710 C   0  0  0  0  0  0  0  0  0  0  0  0
    0.5840    0.3330    0.5900 N   0  0  0  0  0  0  0  0  0  0  0  0
    1.7630   -0.5590    0.3830 C   0  0  0  0  0  0  0  0  0  0  0  0
    1.6520   -1.6770    0.7610 O   0  0  0  0  0  0  0  0  0  0  0  0
    2.7230    0.2440   -0.2540 N   0  0  0  0  0  0  0  0  0  0  0  0
    3.8110   -1.0700   -0.6510 C   0  0  0  0  0  0  0  0  0  0  0  0
    3.4580   -2.1050   -0.2860 O   0  0  0  0  0  0  0  0  0  0  0  0
    4.9030   -0.5060   -1.3770 C   0  0  0  0  0  0  0  0  0  0  0  0
    4.8800   -0.2380   -2.7710 C   0  0  0  0  0  0  0  0  0  0  0  0
    6.0300    0.3570   -3.1140 N   0  0  0  0  0  0  0  0  0  0  0  0
    6.7780    0.4780   -2.0310 N   0  0  0  0  0  0  0  0  0  0  0  0
    7.9650    0.9370   -1.6350 C   0  0  0  0  0  0  0  0  0  0  0  0
    8.0550    0.7000   -0.2860 C   0  0  0  0  0  0  0  0  0  0  0  0
    9.1910    1.0310    0.6070 C   0  0  2  0  0  0  0  0  0  0  0  0
   10.4080    1.3840   -0.2040 C   0  0  0  0  0  0  0  0  0  0  0  0
   10.7030    0.1400   -0.7720 O   0  0  0  0  0  0  0  0  0  0  0  0
   10.3820   -0.7970    0.2040 C   0  0  0  0  0  0  0  0  0  0  0  0
    9.6270   -0.1720    1.1900 O   0  0  0  0  0  0  0  0  0  0  0  0
    6.9170    0.1120    0.0850 O   0  0  0  0  0  0  0  0  0  0  0  0
    6.1210   -0.0370   -0.9520 C   0  0  0  0  0  0  0  0  0  0  0  0
   -1.4440   -0.9120    0.3090 C   0  0  0  0  0  0  0  0  0  0  0  0
   -2.7620   -1.1460    0.7170 C   0  0  0  0  0  0  0  0  0  0  0  0
   -3.4440   -2.1500   -0.1630 C   0  0  0  0  0  0  0  0  0  0  0  0
   -3.3140   -1.8860   -1.5120 O   0  0  0  0  0  0  0  0  0  0  0  0
   -3.7940   -0.6580   -1.8470 C   0  0  0  0  0  0  0  0  0  0  0  0
   -5.2610   -0.6410   -2.2740 C   0  0  0  0  0  0  0  0  0  0  0  0
   -5.9140   -1.6650   -1.6700 O   0  0  0  0  0  0  0  0  0  0  0  0
   -7.0070   -2.0490   -1.0090 C   0  0  0  0  0  0  0  0  0  0  0  0
   -8.1260   -2.1260   -1.6870 O   0  0  0  0  0  0  0  0  0  0  0  0
   -7.1920   -2.4170    0.3470 N   0  0  0  0  0  0  0  0  0  0  0  0
   -6.6780   -1.7870    1.5210 C   0  0  0  0  0  0  0  0  0  0  0  0
   -6.9510   -2.1390    2.6970 O   0  0  0  0  0  0  0  0  0  0  0  0
   -6.6400    3.1050    1.4680 N   0  0  0  0  0  0  0  0  0  0  0  0
   -6.0100    4.3060    1.2610 O   0  0  0  0  0  0  0  0  0  0  0  0
   -5.2530    4.2080    0.1860 O   0  0  0  0  0  0  0  0  0  0  0  0
  1  2  2  0
  2  3  1  0
  2 41  1  0
  4  3  1  1
  4  5  1  0
  4 39  1  0
  5  6  1  0
  6  7  2  0
  6 30  1  0
  7  8  1  0
  8  9  2  0
  9 10  1  0
  9 29  1  0
 10 11  1  0
 11 12  2  0
 11 13  1  0
 13 14  1  0
 14 15  2  0
 14 16  1  0
 16 17  1  0
 16 28  2  0
 17 18  2  0
 18 19  1  0
 19 20  1  0
 19 28  1  0
 20 21  2  0
 22 21  1  6
 21 27  1  0
 22 23  1  0
 22 26  1  0
 23 24  1  0
 24 25  1  0
 25 26  1  0
 27 28  1  0
 29 30  2  0
 30 31  1  0
 31 32  1  0
 32 33  1  0
 33 34  1  0
 34 35  1  0
 35 36  1  0
 36 37  2  0
 36 38  1  0
 38 39  1  0
 39 40  2  0
 41 42  1  0
 42 43  1  0
M  END
