
     RDKit          3D

 43 46  0  0  0  0  0  0  0  0999 V2000
   -7.8650    1.4000   -0.4170 C   0  0  0  0  0  0  0  0  0  0  0  0
   -7.9210    0.1610    0.2480 O   0  0  0  0  0  0  0  0  0  0  0  0
   -6.8170   -0.5010    0.7740 C   0  0  0  0  0  0  0  0  0  0  0  0
   -7.0090   -1.7140    1.4000 C   0  0  0  0  0  0  0  0  0  0  0  0
   -5.9610   -2.4180    1.9410 C   0  0  0  0  0  0  0  0  0  0  0  0
   -4.6890   -1.8530    1.8320 C   0  0  0  0  0  0  0  0  0  0  0  0
   -4.4260   -0.6750    1.2360 C   0  0  0  0  0  0  0  0  0  0  0  0
   -3.0760   -0.0380    1.0900 C   0  0  0  0  0  0  0  0  0  0  0  0
   -2.3810   -0.3410   -0.1200 C   0  0  2  0  0  0  0  0  0  0  0  0
   -1.9540   -1.7400   -0.4120 C   0  0  0  0  0  0  0  0  0  0  0  0
   -1.4720   -2.6140    0.3240 N   0  0  0  0  0  0  0  0  0  0  0  0
   -1.0960   -2.7870    1.6300 C   0  0  0  0  0  0  0  0  0  0  0  0
    0.1210   -2.7950    1.9820 N   0  0  0  0  0  0  0  0  0  0  0  0
    1.3850   -2.6840    1.5060 C   0  0  0  0  0  0  0  0  0  0  0  0
    2.0620   -3.7710    1.2460 O   0  0  0  0  0  0  0  0  0  0  0  0
    2.0470   -1.5240    1.2670 O   0  0  0  0  0  0  0  0  0  0  0  0
    1.7760   -0.4240    0.4920 C   0  0  0  0  0  0  0  0  0  0  0  0
    2.8920    0.4250    0.0610 C   0  0  1  0  0  0  0  0  0  0  0  0
    4.1140    0.0630    0.5470 O   0  0  0  0  0  0  0  0  0  0  0  0
    4.6020   -1.1590    0.2540 C   0  0  0  0  0  0  0  0  0  0  0  0
    5.9830   -1.4030    0.8640 C   0  0  0  0  0  0  0  0  0  0  0  0
    5.9640   -1.3110    2.2340 O   0  0  0  0  0  0  0  0  0  0  0  0
    7.1710   -1.5320    2.6780 O   0  0  0  0  0  0  0  0  0  0  0  0
    8.1150   -0.9860    1.9610 O   0  0  0  0  0  0  0  0  0  0  0  0
    3.0260    0.3040   -1.3820 O   0  0  0  0  0  0  0  0  0  0  0  0
    4.0390    1.0060   -2.0170 C   0  0  0  0  0  0  0  0  0  0  0  0
    4.8500    1.7400   -1.3910 O   0  0  0  0  0  0  0  0  0  0  0  0
    4.2290    0.9460   -3.3950 O   0  0  0  0  0  0  0  0  0  0  0  0
    2.6490    1.8910    0.3510 C   0  0  0  0  0  0  0  0  0  0  0  0
    2.7190    2.2230    1.5590 O   0  0  0  0  0  0  0  0  0  0  0  0
    2.3550    2.9150   -0.5800 N   0  0  0  0  0  0  0  0  0  0  0  0
    3.0110    4.2270   -0.5020 C   0  0  0  0  0  0  0  0  0  0  0  0
    1.3860    2.7870   -1.6640 C   0  0  0  0  0  0  0  0  0  0  0  0
    1.5290    3.5470   -2.6760 O   0  0  0  0  0  0  0  0  0  0  0  0
    0.2370    1.8190   -1.6700 C   0  0  0  0  0  0  0  0  0  0  0  0
   -0.5910    1.5140   -0.6920 C   0  0  0  0  0  0  0  0  0  0  0  0
   -1.4160    0.3610   -0.8650 N   0  0  0  0  0  0  0  0  0  0  0  0
   -1.3670   -0.4470   -2.0830 C   0  0  0  0  0  0  0  0  0  0  0  0
   -2.1240   -1.5580   -1.8990 N   0  0  0  0  0  0  0  0  0  0  0  0
   -0.5080   -0.1240   -3.1640 N   0  0  0  0  0  0  0  0  0  0  0  0
    0.2990    1.0210   -2.9470 C   0  0  0  0  0  0  0  0  0  0  0  0
    1.0920    1.3540   -3.8980 O   0  0  0  0  0  0  0  0  0  0  0  0
   -5.5430    0.0020    0.6980 C   0  0  0  0  0  0  0  0  0  0  0  0
  1  2  1  0
  2  3  1  0
  3  4  2  0
  3 43  1  0
  4  5  1  0
  5  6  2  0
  6  7  1  0
  7  8  1  0
  7 43  2  0
  9  8  1  1
  9 10  1  0
  9 37  1  0
 10 11  2  0
 10 39  1  0
 11 12  1  0
 12 13  2  0
 13 14  1  0
 14 15  2  0
 14 16  1  0
 16 17  1  0
 17 18  1  0
 18 19  1  1
 18 25  1  0
 18 29  1  0
 19 20  1  0
 20 21  1  0
 21 22  1  0
 22 23  1  0
 23 24  1  0
 25 26  1  0
 26 27  2  0
 26 28  1  0
 29 30  2  0
 29 31  1  0
 31 32  1  0
 31 33  1  0
 33 34  2  0
 33 35  1  0
 35 36  2  0
 35 41  1  0
 36 37  1  0
 37 38  1  0
 38 39  2  0
 38 40  1  0
 40 41  1  0
 41 42  2  0
M  END
