
     RDKit          3D

 43 46  0  0  0  0  0  0  0  0999 V2000
   -3.8490    6.0320    0.3100 C   0  0  0  0  0  0  0  0  0  0  0  0
   -4.2070    5.6420   -1.0020 O   0  0  0  0  0  0  0  0  0  0  0  0
   -4.9410    4.5280   -1.2740 N   0  0  0  0  0  0  0  0  0  0  0  0
   -4.4170    3.3240   -1.2850 C   0  0  0  0  0  0  0  0  0  0  0  0
   -3.0100    3.1320   -1.0020 C   0  0  0  0  0  0  0  0  0  0  0  0
   -2.3740    1.9330   -0.9970 C   0  0  0  0  0  0  0  0  0  0  0  0
   -3.2130    0.7840   -1.3080 C   0  0  0  0  0  0  0  0  0  0  0  0
   -3.3810   -0.3370   -0.6300 C   0  0  0  0  0  0  0  0  0  0  0  0
   -2.7610   -0.6510    0.5600 O   0  0  0  0  0  0  0  0  0  0  0  0
   -2.6600   -2.0690    0.6320 C   0  0  2  0  0  0  0  0  0  0  0  0
   -1.6230   -2.5100   -0.3590 C   0  0  0  0  0  0  0  0  0  0  0  0
   -0.4290   -3.1980    0.2950 C   0  0  0  0  0  0  0  0  0  0  0  0
    0.7840   -2.2800    0.1820 C   0  0  0  0  0  0  0  0  0  0  0  0
    1.9980   -2.9680   -0.1840 N   0  0  0  0  0  0  0  0  0  0  0  0
    2.9240   -2.3770   -1.1320 C   0  0  0  0  0  0  0  0  0  0  0  0
    3.8810   -3.1350   -1.4460 O   0  0  0  0  0  0  0  0  0  0  0  0
    2.6820   -1.1260   -1.5710 O   0  0  0  0  0  0  0  0  0  0  0  0
    2.8010    0.1270   -0.9650 C   0  0  1  0  0  0  0  0  0  0  0  0
    1.6840    0.8730   -1.1050 O   0  0  0  0  0  0  0  0  0  0  0  0
    1.2210    1.6880   -0.1540 C   0  0  2  0  0  0  0  0  0  0  0  0
    2.0290    1.9310    1.0660 C   0  0  0  0  0  0  0  0  0  0  0  0
    3.4730    1.5940    0.8380 C   0  0  0  0  0  0  0  0  0  0  0  0
    3.4540    0.1210    0.3900 C   0  0  2  0  0  0  0  0  0  0  0  0
    4.8290   -0.2930    0.3710 N   0  0  0  0  0  0  0  0  0  0  0  0
    5.8670    0.2740   -0.4380 C   0  0  0  0  0  0  0  0  0  0  0  0
    6.9820   -0.7380   -0.4510 C   0  0  0  0  0  0  0  0  0  0  0  0
    6.7870   -1.3780    0.8560 N   0  0  0  0  0  0  0  0  0  0  0  0
    7.8270   -1.9270    1.6370 C   0  0  0  0  0  0  0  0  0  0  0  0
    7.9040   -3.1580    2.0010 N   0  0  0  0  0  0  0  0  0  0  0  0
    5.3770   -1.3280    1.1560 C   0  0  0  0  0  0  0  0  0  0  0  0
    4.8120   -2.1080    1.9860 O   0  0  0  0  0  0  0  0  0  0  0  0
   -0.2380    1.3690    0.2730 C   0  0  0  0  0  0  0  0  0  0  0  0
   -1.0580    1.8120   -0.7280 O   0  0  0  0  0  0  0  0  0  0  0  0
   -4.0050   -2.4120    0.1600 N   0  0  0  0  0  0  0  0  0  0  0  0
   -4.8930   -3.4090    0.6620 C   0  0  0  0  0  0  0  0  0  0  0  0
   -5.7330   -2.9330    1.6600 O   0  0  0  0  0  0  0  0  0  0  0  0
   -5.0690   -2.4800    2.6970 O   0  0  0  0  0  0  0  0  0  0  0  0
   -4.2370   -1.5150   -0.9320 C   0  0  0  0  0  0  0  0  0  0  0  0
   -4.9830   -1.6800   -1.9120 O   0  0  0  0  0  0  0  0  0  0  0  0
   -5.3140    2.3170   -1.5790 O   0  0  0  0  0  0  0  0  0  0  0  0
   -6.6670    2.5730   -1.8440 C   0  0  0  0  0  0  0  0  0  0  0  0
   -7.1040    3.7570   -1.8190 O   0  0  0  0  0  0  0  0  0  0  0  0
   -7.5670    1.5660   -2.1380 O   0  0  0  0  0  0  0  0  0  0  0  0
  1  2  1  0
  2  3  1  0
  3  4  2  3
  4  5  1  0
  4 40  1  0
  5  6  2  3
  6  7  1  0
  6 33  1  0
  7  8  2  0
  8  9  1  0
  8 38  1  0
  9 10  1  0
 10 11  1  6
 10 34  1  0
 11 12  1  0
 12 13  1  0
 13 14  1  0
 14 15  1  0
 15 16  2  0
 15 17  1  0
 18 17  1  1
 18 19  1  0
 18 23  1  0
 19 20  1  0
 20 21  1  1
 20 32  1  0
 21 22  1  0
 22 23  1  0
 23 24  1  6
 24 25  1  0
 24 30  1  0
 25 26  1  0
 26 27  1  0
 27 28  1  0
 27 30  1  0
 28 29  2  0
 30 31  2  0
 32 33  1  0
 34 35  1  0
 34 38  1  0
 35 36  1  0
 36 37  1  0
 38 39  2  0
 40 41  1  0
 41 42  2  0
 41 43  1  0
M  END
