
     RDKit          3D

 28 32  0  0  0  0  0  0  0  0999 V2000
    5.9960   -2.4580   -2.3800 C   0  0  0  0  0  0  0  0  0  0  0  0
    5.1600   -1.4210   -1.6960 C   0  0  0  0  0  0  0  0  0  0  0  0
    3.7960   -1.6030   -1.5350 C   0  0  0  0  0  0  0  0  0  0  0  0
    3.0470   -0.6110   -0.8900 C   0  0  0  0  0  0  0  0  0  0  0  0
    3.6470    0.5250   -0.4220 C   0  0  0  0  0  0  0  0  0  0  0  0
    2.8520    1.5510    0.2510 C   0  0  0  0  0  0  0  0  0  0  0  0
    1.4440    1.2070    0.3350 N   0  0  0  0  0  0  0  0  0  0  0  0
    0.6760    2.2250    1.0010 C   0  0  0  0  0  0  0  0  0  0  0  0
   -0.7510    1.7970    1.0460 C   0  0  0  0  0  0  0  0  0  0  0  0
   -1.7870    2.5110    1.6050 C   0  0  0  0  0  0  0  0  0  0  0  0
   -1.6780    3.7690    2.2310 O   0  0  0  0  0  0  0  0  0  0  0  0
   -2.8990    1.7800    1.4360 N   0  0  0  0  0  0  0  0  0  0  0  0
   -2.5900    0.6670    0.8060 N   0  0  0  0  0  0  0  0  0  0  0  0
   -3.4380   -0.3370    0.4470 C   0  0  0  0  0  0  0  0  0  0  0  0
   -2.8990   -1.4140   -0.2060 C   0  0  0  0  0  0  0  0  0  0  0  0
   -1.5230   -1.4530   -0.4810 C   0  0  0  0  0  0  0  0  0  0  0  0
   -0.7420   -0.4320   -0.1020 N   0  0  0  0  0  0  0  0  0  0  0  0
   -1.2730    0.6230    0.5390 C   0  0  0  0  0  0  0  0  0  0  0  0
   -3.9960   -2.3580   -0.4880 C   0  0  0  0  0  0  0  0  0  0  0  0
   -5.2130   -1.7300    0.0610 C   0  0  0  0  0  0  0  0  0  0  0  0
   -6.5570   -2.1430    0.0990 C   0  0  0  0  0  0  0  0  0  0  0  0
   -7.5330   -1.3690    0.6770 C   0  0  0  0  0  0  0  0  0  0  0  0
   -7.1540   -0.1590    1.2290 C   0  0  0  0  0  0  0  0  0  0  0  0
   -5.8420    0.2700    1.2060 C   0  0  0  0  0  0  0  0  0  0  0  0
   -4.8670   -0.5230    0.6170 C   0  0  0  0  0  0  0  0  0  0  0  0
    4.9990    0.7210   -0.5720 C   0  0  0  0  0  0  0  0  0  0  0  0
    5.6110    1.9490   -0.0590 C   0  0  0  0  0  0  0  0  0  0  0  0
    5.7420   -0.2650   -1.2140 C   0  0  0  0  0  0  0  0  0  0  0  0
  1  2  1  0
  2  3  2  0
  2 28  1  0
  3  4  1  0
  4  5  2  0
  5  6  1  0
  5 26  1  0
  6  7  1  0
  7  8  1  0
  8  9  1  0
  9 10  1  0
  9 18  2  0
 10 11  1  0
 10 12  2  0
 12 13  1  0
 13 14  1  0
 13 18  1  0
 14 15  2  0
 14 25  1  0
 15 16  1  0
 15 19  1  0
 16 17  2  0
 17 18  1  0
 19 20  1  0
 20 21  2  0
 20 25  1  0
 21 22  1  0
 22 23  2  0
 23 24  1  0
 24 25  2  0
 26 27  1  0
 26 28  2  0
M  END
