
     RDKit          3D

 28 32  0  0  0  0  0  0  0  0999 V2000
    5.2010    2.6450   -0.3100 C   0  0  0  0  0  0  0  0  0  0  0  0
    5.2130    1.1900   -0.1340 C   0  0  0  0  0  0  0  0  0  0  0  0
    6.2480    0.3420   -0.0150 N   0  0  0  0  0  0  0  0  0  0  0  0
    5.8140   -0.9160    0.1310 C   0  0  0  0  0  0  0  0  0  0  0  0
    6.5900   -2.1760    0.2960 C   0  0  0  0  0  0  0  0  0  0  0  0
    4.4210   -0.9040    0.1070 C   0  0  0  0  0  0  0  0  0  0  0  0
    3.5050   -1.8670    0.2090 N   0  0  0  0  0  0  0  0  0  0  0  0
    2.1950   -1.5450    0.1490 C   0  0  0  0  0  0  0  0  0  0  0  0
    1.3510   -2.4980    0.2500 O   0  0  0  0  0  0  0  0  0  0  0  0
    1.7600   -0.2560   -0.0140 C   0  0  0  0  0  0  0  0  0  0  0  0
    0.3750    0.1730   -0.0770 C   0  0  0  0  0  0  0  0  0  0  0  0
   -0.6770   -0.5610    0.0380 C   0  0  0  0  0  0  0  0  0  0  0  0
   -2.0860   -0.2140   -0.0010 C   0  0  0  0  0  0  0  0  0  0  0  0
   -2.9420   -1.1890   -0.4760 N   0  0  0  0  0  0  0  0  0  0  0  0
   -4.2410   -1.0330   -0.5580 N   0  0  0  0  0  0  0  0  0  0  0  0
   -5.1890   -1.9070   -1.0070 C   0  0  0  0  0  0  0  0  0  0  0  0
   -4.8930   -3.2770   -1.5110 C   0  0  0  0  0  0  0  0  0  0  0  0
   -6.4110   -1.2900   -0.9000 C   0  0  0  0  0  0  0  0  0  0  0  0
   -6.1820   -0.0470   -0.3870 C   0  0  0  0  0  0  0  0  0  0  0  0
   -4.8110    0.1210   -0.1680 C   0  0  0  0  0  0  0  0  0  0  0  0
   -4.0540    1.1570    0.3250 C   0  0  0  0  0  0  0  0  0  0  0  0
   -4.6820    2.3000    0.7580 C   0  0  0  0  0  0  0  0  0  0  0  0
   -3.8800    3.2800    1.2950 C   0  0  0  0  0  0  0  0  0  0  0  0
   -2.5250    3.1180    1.3920 C   0  0  0  0  0  0  0  0  0  0  0  0
   -1.9170    1.9530    0.9450 C   0  0  0  0  0  0  0  0  0  0  0  0
   -2.6680    0.9560    0.3990 C   0  0  0  0  0  0  0  0  0  0  0  0
    2.7260    0.7580   -0.1210 C   0  0  0  0  0  0  0  0  0  0  0  0
    4.0520    0.4140   -0.0590 C   0  0  0  0  0  0  0  0  0  0  0  0
  1  2  1  0
  2  3  1  0
  2 28  2  0
  3  4  1  0
  4  5  1  0
  4  6  2  0
  6  7  1  0
  6 28  1  0
  7  8  1  0
  8  9  2  0
  8 10  1  0
 10 11  1  0
 10 27  2  0
 11 12  2  3
 12 13  1  0
 13 14  2  0
 13 26  1  0
 14 15  1  0
 15 16  1  0
 15 20  1  0
 16 17  1  0
 16 18  2  0
 18 19  1  0
 19 20  2  0
 20 21  1  0
 21 22  2  0
 21 26  1  0
 22 23  1  0
 23 24  2  0
 24 25  1  0
 25 26  2  0
 27 28  1  0
M  END
