
     RDKit          3D

 28 32  0  0  0  0  0  0  0  0999 V2000
    9.2190    0.1220   -0.8940 C   0  0  0  0  0  0  0  0  0  0  0  0
    7.7080   -0.1400   -0.9030 C   0  0  0  0  0  0  0  0  0  0  0  0
    7.2010    0.2900    0.4560 C   0  0  0  0  0  0  0  0  0  0  0  0
    5.7340    0.0790    0.5610 C   0  0  0  0  0  0  0  0  0  0  0  0
    4.7900    0.9720    0.2350 N   0  0  0  0  0  0  0  0  0  0  0  0
    3.5530    0.4520    0.4560 C   0  0  0  0  0  0  0  0  0  0  0  0
    2.2720    0.9340    0.2930 C   0  0  0  0  0  0  0  0  0  0  0  0
    1.1800    0.1640    0.6060 C   0  0  0  0  0  0  0  0  0  0  0  0
   -0.1890    0.6850    0.4410 C   0  0  0  0  0  0  0  0  0  0  0  0
   -0.3800    1.9120    0.4040 O   0  0  0  0  0  0  0  0  0  0  0  0
   -1.2810   -0.1850    0.3250 N   0  0  0  0  0  0  0  0  0  0  0  0
   -2.6430    0.1190    0.1660 C   0  0  0  0  0  0  0  0  0  0  0  0
   -3.5750   -0.8590    0.0690 C   0  0  0  0  0  0  0  0  0  0  0  0
   -3.4210   -2.3240    0.1010 C   0  0  0  0  0  0  0  0  0  0  0  0
   -4.6020   -3.1730   -0.0260 C   0  0  0  0  0  0  0  0  0  0  0  0
   -5.8790   -2.4870   -0.1780 C   0  0  0  0  0  0  0  0  0  0  0  0
   -6.0230   -1.1830   -0.2070 C   0  0  0  0  0  0  0  0  0  0  0  0
   -4.8780   -0.2850   -0.0850 C   0  0  0  0  0  0  0  0  0  0  0  0
   -4.7670    1.0260   -0.0850 C   0  0  0  0  0  0  0  0  0  0  0  0
   -3.3430    1.3930    0.0740 C   0  0  0  0  0  0  0  0  0  0  0  0
   -3.2460    2.7110    0.0730 C   0  0  0  0  0  0  0  0  0  0  0  0
   -4.5760    3.3200   -0.0850 C   0  0  0  0  0  0  0  0  0  0  0  0
   -5.4940    2.2430   -0.1790 N   0  0  0  0  0  0  0  0  0  0  0  0
   -6.9470    2.2760   -0.3450 C   0  0  0  0  0  0  0  0  0  0  0  0
    1.3750   -1.0970    1.0850 C   0  0  0  0  0  0  0  0  0  0  0  0
    2.6720   -1.6160    1.2620 C   0  0  0  0  0  0  0  0  0  0  0  0
    3.7510   -0.8220    0.9400 C   0  0  0  0  0  0  0  0  0  0  0  0
    5.0980   -1.0240    0.9940 N   0  0  0  0  0  0  0  0  0  0  0  0
  1  2  1  0
  2  3  1  0
  3  4  1  0
  4  5  2  0
  4 28  1  0
  5  6  1  0
  6  7  2  0
  6 27  1  0
  7  8  1  0
  8  9  1  0
  8 25  2  0
  9 10  2  0
  9 11  1  0
 11 12  1  0
 12 13  2  0
 12 20  1  0
 13 14  1  0
 13 18  1  0
 14 15  1  0
 15 16  1  0
 16 17  2  0
 17 18  1  0
 18 19  2  0
 19 20  1  0
 19 23  1  0
 20 21  2  0
 21 22  1  0
 22 23  1  0
 23 24  1  0
 25 26  1  0
 26 27  2  0
 27 28  1  0
M  END
