
     RDKit          3D

 28 32  0  0  0  0  0  0  0  0999 V2000
   -5.3980    3.2610    0.1630 C   0  0  0  0  0  0  0  0  0  0  0  0
   -4.5350    2.0630    0.1080 C   0  0  0  0  0  0  0  0  0  0  0  0
   -3.1790    2.1900    0.2210 C   0  0  0  0  0  0  0  0  0  0  0  0
   -2.3010    1.0980    0.1780 C   0  0  0  0  0  0  0  0  0  0  0  0
   -0.9270    1.3990    0.3250 N   0  0  0  0  0  0  0  0  0  0  0  0
    0.1330    0.5030    0.0780 C   0  0  0  0  0  0  0  0  0  0  0  0
   -0.1280   -0.6620   -0.3090 O   0  0  0  0  0  0  0  0  0  0  0  0
    1.5600    0.8930    0.2600 C   0  0  0  0  0  0  0  0  0  0  0  0
    1.9490    2.1360    0.6760 C   0  0  0  0  0  0  0  0  0  0  0  0
    3.2760    2.4870    0.8420 C   0  0  0  0  0  0  0  0  0  0  0  0
    4.2310    1.5480    0.5770 C   0  0  0  0  0  0  0  0  0  0  0  0
    5.5820    1.8330    0.7230 C   0  0  0  0  0  0  0  0  0  0  0  0
    6.4780    0.8380    0.4380 C   0  0  0  0  0  0  0  0  0  0  0  0
    6.1060   -0.4200    0.0170 C   0  0  0  0  0  0  0  0  0  0  0  0
    4.7660   -0.6940   -0.1240 C   0  0  0  0  0  0  0  0  0  0  0  0
    3.8250    0.2990    0.1580 C   0  0  0  0  0  0  0  0  0  0  0  0
    2.5250   -0.0100    0.0070 N   0  0  0  0  0  0  0  0  0  0  0  0
    4.6350   -2.0930   -0.5810 C   0  0  0  0  0  0  0  0  0  0  0  0
    5.9630   -2.7040   -0.2070 C   0  0  0  0  0  0  0  0  0  0  0  0
    6.8710   -1.5900   -0.3300 N   0  0  0  0  0  0  0  0  0  0  0  0
   -2.8450   -0.1310    0.0160 C   0  0  0  0  0  0  0  0  0  0  0  0
   -4.2240   -0.2960   -0.1030 C   0  0  0  0  0  0  0  0  0  0  0  0
   -4.7470   -1.5990   -0.2720 N   0  0  0  0  0  0  0  0  0  0  0  0
   -4.4180   -2.6710    0.4760 C   0  0  0  0  0  0  0  0  0  0  0  0
   -5.1030   -3.7860    0.0540 C   0  0  0  0  0  0  0  0  0  0  0  0
   -5.8820   -3.3760   -0.9940 C   0  0  0  0  0  0  0  0  0  0  0  0
   -5.6450   -2.0230   -1.1760 C   0  0  0  0  0  0  0  0  0  0  0  0
   -5.0580    0.8060   -0.0560 C   0  0  0  0  0  0  0  0  0  0  0  0
  1  2  1  0
  2  3  2  0
  2 28  1  0
  3  4  1  0
  4  5  1  0
  4 21  2  0
  5  6  1  0
  6  7  2  0
  6  8  1  0
  8  9  2  0
  8 17  1  0
  9 10  1  0
 10 11  2  0
 11 12  1  0
 11 16  1  0
 12 13  2  0
 13 14  1  0
 14 15  2  0
 14 20  1  0
 15 16  1  0
 15 18  1  0
 16 17  2  0
 18 19  1  0
 19 20  1  0
 21 22  1  0
 22 23  1  0
 22 28  2  0
 23 24  1  0
 23 27  1  0
 24 25  2  0
 25 26  1  0
 26 27  2  0
M  END
