
     RDKit          3D

 23 26  0  0  0  0  0  0  0  0999 V2000
   -1.3530   -3.8600   -1.9530 O   0  0  0  0  0  0  0  0  0  0  0  0
   -0.5290   -2.9190   -1.1700 S   0  0  1  0  0  0  0  0  0  0  0  0
   -0.0140   -3.6600    0.0430 O   0  0  0  0  0  0  0  0  0  0  0  0
    0.7840   -2.2770   -2.0570 N   0  0  0  0  0  0  0  0  0  0  0  0
    1.7280   -1.3520   -1.3080 C   0  0  0  0  0  0  0  0  0  0  0  0
    1.9370   -0.8700   -0.3150 N   0  0  0  0  0  0  0  0  0  0  0  0
    2.9120   -0.0550    0.0400 C   0  0  0  0  0  0  0  0  0  0  0  0
    3.1460    0.5290    1.2870 C   0  0  0  0  0  0  0  0  0  0  0  0
    4.2240    1.3560    1.4550 C   0  0  0  0  0  0  0  0  0  0  0  0
    5.1380    1.6790    0.4700 C   0  0  0  0  0  0  0  0  0  0  0  0
    6.5030    2.7310    0.6980 Cl  0  0  0  0  0  0  0  0  0  0  0  0
    4.8910    1.0880   -0.7700 C   0  0  0  0  0  0  0  0  0  0  0  0
    3.7980    0.2520   -0.9340 C   0  0  0  0  0  0  0  0  0  0  0  0
    3.1650   -0.6680   -2.3310 S   0  0  0  0  0  0  0  0  0  0  0  0
   -1.5490   -1.6430   -0.6060 C   0  0  0  0  0  0  0  0  0  0  0  0
   -2.8380   -1.3220   -0.7900 C   0  0  0  0  0  0  0  0  0  0  0  0
   -3.3480   -0.2270   -0.1900 C   0  0  0  0  0  0  0  0  0  0  0  0
   -4.6840    0.2450   -0.2850 C   0  0  0  0  0  0  0  0  0  0  0  0
   -5.0630    1.3800    0.3850 C   0  0  0  0  0  0  0  0  0  0  0  0
   -4.2060    2.1200    1.1710 C   0  0  0  0  0  0  0  0  0  0  0  0
   -2.9080    1.6690    1.2690 C   0  0  0  0  0  0  0  0  0  0  0  0
   -2.5560    0.5350    0.5910 C   0  0  0  0  0  0  0  0  0  0  0  0
   -0.9660   -0.3230    0.4980 S   0  0  0  0  0  0  0  0  0  0  0  0
  1  2  2  0
  2  3  2  0
  2  4  1  6
  2 15  1  0
  4  5  1  0
  5  6  2  0
  5 14  1  0
  6  7  1  0
  7  8  2  0
  7 13  1  0
  8  9  1  0
  9 10  2  0
 10 11  1  0
 10 12  1  0
 12 13  2  0
 13 14  1  0
 15 16  2  0
 15 23  1  0
 16 17  1  0
 17 18  2  0
 17 22  1  0
 18 19  1  0
 19 20  2  0
 20 21  1  0
 21 22  2  0
 22 23  1  0
M  END
