
     RDKit          3D

 19 20  0  0  0  0  0  0  0  0999 V2000
   -4.6420   -0.4080   -1.0370 C   0  0  0  0  0  0  0  0  0  0  0  0
   -3.4030   -0.8480   -1.0940 C   0  0  0  0  0  0  0  0  0  0  0  0
   -2.4510   -0.6900   -2.2220 C   0  0  0  0  0  0  0  0  0  0  0  0
   -1.1120   -0.7320   -1.5130 C   0  0  1  0  0  0  0  0  0  0  0  0
   -0.9150    0.6210   -0.8610 C   0  0  0  0  0  0  0  0  0  0  0  0
    0.1820    0.6550    0.0600 N   0  0  0  0  0  0  0  0  0  0  0  0
    1.5080    0.3740   -0.3430 C   0  0  0  0  0  0  0  0  0  0  0  0
    1.6660    0.0910   -1.5620 O   0  0  0  0  0  0  0  0  0  0  0  0
    2.6600    0.4020    0.5930 C   0  0  1  0  0  0  0  0  0  0  0  0
    2.4940   -0.5830    1.7240 C   0  0  0  0  0  0  0  0  0  0  0  0
    4.1630    0.0520   -0.3750 S   0  0  0  0  0  0  0  0  0  0  0  0
    5.0360    1.5570    0.0690 C   0  0  0  0  0  0  0  0  0  0  0  0
    6.1070    1.9490   -0.4600 O   0  0  0  0  0  0  0  0  0  0  0  0
    4.2490    2.1340    1.0970 N   0  0  0  0  0  0  0  0  0  0  0  0
    2.9090    1.7780    1.0910 C   0  0  0  0  0  0  0  0  0  0  0  0
    1.9500    2.5070    1.4590 O   0  0  0  0  0  0  0  0  0  0  0  0
   -1.3650   -1.7090   -0.5010 O   0  0  0  0  0  0  0  0  0  0  0  0
   -2.6740   -1.5940   -0.0650 C   0  0  0  0  0  0  0  0  0  0  0  0
   -3.2140   -2.0510    1.0600 C   0  0  0  0  0  0  0  0  0  0  0  0
  1  2  2  0
  2  3  1  0
  2 18  1  0
  3  4  1  0
  4  5  1  1
  4 17  1  0
  5  6  1  0
  6  7  1  0
  7  8  2  0
  7  9  1  0
  9 10  1  1
  9 11  1  0
  9 15  1  0
 11 12  1  0
 12 13  2  0
 12 14  1  0
 14 15  1  0
 15 16  2  0
 17 18  1  0
 18 19  2  0
M  END
