
     RDKit          3D

 19 20  0  0  0  0  0  0  0  0999 V2000
   -2.0440   -0.4880   -1.6880 C   0  0  0  0  0  0  0  0  0  0  0  0
   -2.8550    0.1400   -0.5670 C   0  0  0  0  0  0  0  0  0  0  0  0
   -4.0520    0.6040   -0.8570 C   0  0  0  0  0  0  0  0  0  0  0  0
   -5.0410    1.2470   -0.0070 C   0  0  0  0  0  0  0  0  0  0  0  0
   -4.4700    1.3750    1.6450 S   0  0  2  0  0  0  0  0  0  0  0  0
   -5.4220    0.5270    2.4910 O   0  0  0  0  0  0  0  0  0  0  0  0
   -4.5310    2.8100    2.1420 O   0  0  0  0  0  0  0  0  0  0  0  0
   -2.9050    0.7120    1.7790 C   0  0  0  0  0  0  0  0  0  0  0  0
   -2.2560    0.1820    0.7440 C   0  0  0  0  0  0  0  0  0  0  0  0
   -0.9380   -0.3360    1.0080 N   0  0  0  0  0  0  0  0  0  0  0  0
    0.2020   -0.3980    0.1880 C   0  0  0  0  0  0  0  0  0  0  0  0
    1.3910   -0.7830    1.0610 C   0  0  0  0  0  0  0  0  0  0  0  0
    1.1650   -0.9610    2.2710 O   0  0  0  0  0  0  0  0  0  0  0  0
    2.6760   -0.9290    0.5130 N   0  0  0  0  0  0  0  0  0  0  0  0
    3.9280   -1.2650    1.1650 C   0  0  0  0  0  0  0  0  0  0  0  0
    4.8670   -0.2690    0.5210 C   0  0  0  0  0  0  0  0  0  0  0  0
    4.2170    0.1440   -0.7900 C   0  0  2  0  0  0  0  0  0  0  0  0
    3.7570    1.4580   -0.7060 O   0  0  0  0  0  0  0  0  0  0  0  0
    3.0270   -0.7740   -0.8910 C   0  0  0  0  0  0  0  0  0  0  0  0
  1  2  1  0
  2  3  2  0
  2  9  1  0
  3  4  1  0
  5  4  1  6
  5  6  2  0
  5  7  2  0
  5  8  1  0
  8  9  2  0
  9 10  1  0
 10 11  1  0
 11 12  1  0
 12 13  2  0
 12 14  1  0
 14 15  1  0
 14 19  1  0
 15 16  1  0
 16 17  1  0
 17 18  1  1
 17 19  1  0
M  END
