
     RDKit          3D

 19 20  0  0  0  0  0  0  0  0999 V2000
    0.5350   -2.4390   -0.8720 C   0  0  0  0  0  0  0  0  0  0  0  0
    0.7470   -1.0810   -1.3130 N   0  0  0  0  0  0  0  0  0  0  0  0
    2.0680   -0.6490   -1.6870 C   0  0  0  0  0  0  0  0  0  0  0  0
    2.8310   -0.0970   -0.5400 C   0  0  0  0  0  0  0  0  0  0  0  0
    3.2850    1.1380   -0.5220 C   0  0  0  0  0  0  0  0  0  0  0  0
    4.0450    1.7350    0.5840 C   0  0  0  0  0  0  0  0  0  0  0  0
    4.2640    0.8430    1.6840 N   0  0  0  0  0  0  0  0  0  0  0  0
    3.7730   -0.4840    1.6600 C   0  0  0  0  0  0  0  0  0  0  0  0
    3.9870   -1.2430    2.6530 O   0  0  0  0  0  0  0  0  0  0  0  0
    3.0710   -0.9170    0.5510 O   0  0  0  0  0  0  0  0  0  0  0  0
   -0.3500   -0.2010   -1.3680 C   0  0  0  0  0  0  0  0  0  0  0  0
   -0.1480    0.9770   -1.7530 O   0  0  0  0  0  0  0  0  0  0  0  0
   -1.6870   -0.6410   -0.9880 C   0  0  0  0  0  0  0  0  0  0  0  0
   -2.0770   -0.2150    0.4240 C   0  0  1  0  0  0  0  0  0  0  0  0
   -2.0630    1.2750    0.5840 C   0  0  0  0  0  0  0  0  0  0  0  0
   -3.3280    1.9290   -0.5760 S   0  0  0  0  0  0  0  0  0  0  0  0
   -4.7340    0.7630   -0.3480 C   0  0  0  0  0  0  0  0  0  0  0  0
   -4.3510   -0.0030    0.9290 C   0  0  0  0  0  0  0  0  0  0  0  0
   -3.2700   -0.7960    0.7100 O   0  0  0  0  0  0  0  0  0  0  0  0
  1  2  1  0
  2  3  1  0
  2 11  1  0
  3  4  1  0
  4  5  2  0
  4 10  1  0
  5  6  1  0
  6  7  1  0
  7  8  1  0
  8  9  2  0
  8 10  1  0
 11 12  2  0
 11 13  1  0
 14 13  1  6
 14 15  1  0
 14 19  1  0
 15 16  1  0
 16 17  1  0
 17 18  1  0
 18 19  1  0
M  END
