
     RDKit          3D

 19 20  0  0  0  0  0  0  0  0999 V2000
   -2.2670   -1.3940   -0.8180 C   0  0  0  0  0  0  0  0  0  0  0  0
   -2.3790   -0.6170    0.4950 C   0  0  2  0  0  0  0  0  0  0  0  0
   -1.7250   -1.4340    1.5650 C   0  0  0  0  0  0  0  0  0  0  0  0
   -3.7420   -0.4440    0.8320 O   0  0  0  0  0  0  0  0  0  0  0  0
   -4.5290    0.5860    0.3380 C   0  0  0  0  0  0  0  0  0  0  0  0
   -5.7670    0.6510    0.5530 O   0  0  0  0  0  0  0  0  0  0  0  0
   -3.8730    1.5870   -0.4350 N   0  0  0  0  0  0  0  0  0  0  0  0
   -2.4700    1.4920   -0.6650 C   0  0  0  0  0  0  0  0  0  0  0  0
   -1.9810    2.0460   -1.6890 O   0  0  0  0  0  0  0  0  0  0  0  0
   -1.6950    0.7460    0.3230 C   0  0  2  0  0  0  0  0  0  0  0  0
   -0.3250    0.5150   -0.0380 N   0  0  0  0  0  0  0  0  0  0  0  0
    0.7560    0.8760    0.8120 C   0  0  0  0  0  0  0  0  0  0  0  0
    0.4820    1.4230    1.9280 O   0  0  0  0  0  0  0  0  0  0  0  0
    2.1380    0.6390    0.4420 C   0  0  0  0  0  0  0  0  0  0  0  0
    2.5050    0.0860   -0.6800 C   0  0  0  0  0  0  0  0  0  0  0  0
    3.9430   -0.1290   -0.9990 C   0  0  0  0  0  0  0  0  0  0  0  0
    4.5570   -1.1280   -0.0250 C   0  0  0  0  0  0  0  0  0  0  0  0
    4.3840   -0.3580    1.6280 S   0  0  0  0  0  0  0  0  0  0  0  0
    3.2250    1.0440    1.3840 C   0  0  0  0  0  0  0  0  0  0  0  0
  2  1  1  6
  2  3  1  0
  2  4  1  0
  2 10  1  0
  4  5  1  0
  5  6  2  0
  5  7  1  0
  7  8  1  0
  8  9  2  0
  8 10  1  0
 10 11  1  6
 11 12  1  0
 12 13  2  0
 12 14  1  0
 14 15  2  0
 14 19  1  0
 15 16  1  0
 16 17  1  0
 17 18  1  0
 18 19  1  0
M  END
