
     RDKit          3D

 19 20  0  0  0  0  0  0  0  0999 V2000
   -4.0880    1.0770   -0.8370 C   0  0  0  0  0  0  0  0  0  0  0  0
   -3.8130   -0.1410   -0.0360 C   0  0  0  0  0  0  0  0  0  0  0  0
   -2.4110   -0.5530    0.0610 C   0  0  0  0  0  0  0  0  0  0  0  0
   -2.0380   -1.5180    0.9590 N   0  0  0  0  0  0  0  0  0  0  0  0
   -0.7380   -1.7250    0.8790 C   0  0  0  0  0  0  0  0  0  0  0  0
    0.0730   -2.6840    1.6700 C   0  0  0  0  0  0  0  0  0  0  0  0
   -0.2420   -0.8910   -0.0780 C   0  0  0  0  0  0  0  0  0  0  0  0
    1.1500   -0.7890   -0.4920 C   0  0  0  0  0  0  0  0  0  0  0  0
    1.5550   -1.5250   -1.4290 O   0  0  0  0  0  0  0  0  0  0  0  0
    2.0730    0.0760    0.0850 O   0  0  0  0  0  0  0  0  0  0  0  0
    3.4160    0.1410   -0.3470 C   0  0  2  0  0  0  0  0  0  0  0  0
    4.4760   -0.1530    1.1300 S   0  0  0  0  0  0  0  0  0  0  0  0
    4.7620    1.5670    1.5230 C   0  0  0  0  0  0  0  0  0  0  0  0
    5.4020    1.9820    2.5080 O   0  0  0  0  0  0  0  0  0  0  0  0
    4.1180    2.2920    0.4980 N   0  0  0  0  0  0  0  0  0  0  0  0
    3.8610    1.5270   -0.6650 C   0  0  0  0  0  0  0  0  0  0  0  0
    3.9740    1.9090   -1.8850 O   0  0  0  0  0  0  0  0  0  0  0  0
   -1.2890   -0.1340   -0.6140 C   0  0  0  0  0  0  0  0  0  0  0  0
   -1.2330    0.8900   -1.6720 C   0  0  0  0  0  0  0  0  0  0  0  0
  1  2  1  0
  2  3  1  0
  3  4  1  0
  3 18  2  0
  4  5  1  0
  5  6  1  0
  5  7  2  0
  7  8  1  0
  7 18  1  0
  8  9  2  0
  8 10  1  0
 11 10  1  1
 11 12  1  0
 11 16  1  0
 12 13  1  0
 13 14  2  0
 13 15  1  0
 15 16  1  0
 16 17  2  0
 18 19  1  0
M  END
