
     RDKit          3D

 25 26  0  0  0  0  0  0  0  0999 V2000
   -4.8790   -0.7820    2.7250 C   0  0  0  0  0  0  0  0  0  0  0  0
   -4.2920   -0.9800    1.5630 C   0  0  0  0  0  0  0  0  0  0  0  0
   -2.7940   -0.7850    1.4930 C   0  0  0  0  0  0  0  0  0  0  0  0
   -2.5890   -0.0410    0.2200 N   0  0  0  0  0  0  0  0  0  0  0  0
   -1.2880   -0.0400   -0.3180 C   0  0  0  0  0  0  0  0  0  0  0  0
   -1.0240    0.5360   -1.3930 O   0  0  0  0  0  0  0  0  0  0  0  0
   -0.1880   -0.6850    0.3140 N   0  0  0  0  0  0  0  0  0  0  0  0
    1.0820   -0.6940   -0.1840 N   0  0  0  0  0  0  0  0  0  0  0  0
    2.0050    0.2330    0.2110 C   0  0  0  0  0  0  0  0  0  0  0  0
    1.6230    1.1320    1.1010 O   0  0  0  0  0  0  0  0  0  0  0  0
    3.2740    0.4580   -0.1080 N   0  0  0  0  0  0  0  0  0  0  0  0
    4.5330    0.6380   -0.4610 C   0  0  0  0  0  0  0  0  0  0  0  0
    5.0830    1.6640    0.1660 O   0  0  0  0  0  0  0  0  0  0  0  0
    5.3460   -0.0280   -1.3330 N   0  0  0  0  0  0  0  0  0  0  0  0
    6.7140    0.3880   -1.5360 C   0  0  0  0  0  0  0  0  0  0  0  0
    7.4840    0.3270   -0.2790 C   0  0  0  0  0  0  0  0  0  0  0  0
    6.9390   -0.0920    0.9750 N   0  0  0  0  0  0  0  0  0  0  0  0
    8.7000    0.6660   -0.3140 O   0  0  0  0  0  0  0  0  0  0  0  0
   -3.7680    0.5610   -0.2840 C   0  0  1  0  0  0  0  0  0  0  0  0
   -3.6670    1.7620   -1.0900 C   0  0  0  0  0  0  0  0  0  0  0  0
   -2.5650    2.5770   -1.3630 N   0  0  0  0  0  0  0  0  0  0  0  0
   -4.7650    2.1430   -1.6430 O   0  0  0  0  0  0  0  0  0  0  0  0
   -4.6880   -0.5030   -0.8600 C   0  0  1  0  0  0  0  0  0  0  0  0
   -4.3450   -1.9270   -0.7770 C   0  0  0  0  0  0  0  0  0  0  0  0
   -5.0650   -1.3760    0.3710 C   0  0  1  0  0  0  0  0  0  0  0  0
  1  2  2  0
  2  3  1  0
  2 25  1  0
  3  4  1  0
  4  5  1  0
  4 19  1  0
  5  6  2  0
  5  7  1  0
  7  8  1  0
  8  9  1  0
  9 10  2  0
  9 11  1  0
 11 12  1  0
 12 13  2  0
 12 14  1  0
 14 15  1  0
 15 16  1  0
 16 17  1  0
 16 18  2  0
 19 20  1  6
 19 23  1  0
 20 21  1  0
 20 22  2  0
 23 24  1  6
 23 25  1  0
 25 24  1  6
M  END
