
     RDKit          3D

 25 27  0  0  0  0  0  0  0  0999 V2000
   -5.2450    0.9450   -2.3320 N   0  0  0  0  0  0  0  0  0  0  0  0
   -4.0960    0.5190   -1.5400 C   0  0  1  0  0  0  0  0  0  0  0  0
   -4.3380    0.6520   -0.0760 C   0  0  0  0  0  0  0  0  0  0  0  0
   -4.1000   -0.6920    0.5190 C   0  0  2  0  0  0  0  0  0  0  0  0
   -5.1640   -1.0520    1.4680 N   0  0  0  0  0  0  0  0  0  0  0  0
   -2.7970   -0.7350    1.3030 C   0  0  0  0  0  0  0  0  0  0  0  0
   -1.7050   -0.4230    0.4070 N   0  0  0  0  0  0  0  0  0  0  0  0
   -0.3520   -0.4030    0.9290 C   0  0  0  0  0  0  0  0  0  0  0  0
   -0.2080   -0.6580    2.1300 O   0  0  0  0  0  0  0  0  0  0  0  0
    0.7610   -0.1060    0.1130 N   0  0  0  0  0  0  0  0  0  0  0  0
    2.1180   -0.0600    0.5200 C   0  0  0  0  0  0  0  0  0  0  0  0
    3.0010    0.2540   -0.4760 N   0  0  0  0  0  0  0  0  0  0  0  0
    4.3080    0.3360   -0.2510 C   0  0  0  0  0  0  0  0  0  0  0  0
    4.7810    0.0980    1.0250 C   0  0  0  0  0  0  0  0  0  0  0  0
    3.9040   -0.2180    2.0360 C   0  0  0  0  0  0  0  0  0  0  0  0
    4.3340   -0.4360    3.2000 O   0  0  0  0  0  0  0  0  0  0  0  0
    2.5720   -0.2900    1.7530 N   0  0  0  0  0  0  0  0  0  0  0  0
    6.1510    0.1830    1.2670 O   0  0  0  0  0  0  0  0  0  0  0  0
    7.0060    0.5050    0.2200 C   0  0  0  0  0  0  0  0  0  0  0  0
    8.1720    0.0860    0.1700 O   0  0  0  0  0  0  0  0  0  0  0  0
    6.4060    1.3950   -0.8370 C   0  0  0  0  0  0  0  0  0  0  0  0
    5.1940    0.6830   -1.3960 C   0  0  0  0  0  0  0  0  0  0  0  0
   -4.0760   -1.6290   -0.6150 C   0  0  0  0  0  0  0  0  0  0  0  0
   -4.2940   -2.8890   -0.5840 O   0  0  0  0  0  0  0  0  0  0  0  0
   -3.7600   -0.8430   -1.7520 N   0  0  0  0  0  0  0  0  0  0  0  0
  2  1  1  6
  2  3  1  0
  2 25  1  0
  3  4  1  0
  4  5  1  1
  4  6  1  0
  4 23  1  0
  6  7  1  0
  7  8  1  0
  8  9  2  0
  8 10  1  0
 10 11  1  0
 11 12  2  0
 11 17  1  0
 12 13  1  0
 13 14  2  0
 13 22  1  0
 14 15  1  0
 14 18  1  0
 15 16  2  0
 15 17  1  0
 18 19  1  0
 19 20  2  0
 19 21  1  0
 21 22  1  0
 23 24  2  0
 23 25  1  0
M  END
