
     RDKit          3D

 26 27  0  0  0  0  0  0  0  0999 V2000
    1.2450    4.0400   -0.7070 N   0  0  0  0  0  0  0  0  0  0  0  0
    0.0510    3.6570   -1.4270 C   0  0  0  0  0  0  0  0  0  0  0  0
    0.0350    2.1520   -1.5360 C   0  0  2  0  0  0  0  0  0  0  0  0
   -1.1750    1.6400   -2.2750 C   0  0  0  0  0  0  0  0  0  0  0  0
   -2.1060    1.0410   -1.2620 C   0  0  0  0  0  0  0  0  0  0  0  0
   -1.4020    1.0740    0.0770 C   0  0  1  0  0  0  0  0  0  0  0  0
   -1.5650   -0.2500    0.7310 C   0  0  0  0  0  0  0  0  0  0  0  0
   -3.0470   -0.4880    0.9090 C   0  0  0  0  0  0  0  0  0  0  0  0
   -3.8660    0.3740    0.5190 O   0  0  0  0  0  0  0  0  0  0  0  0
   -3.5230   -1.6730    1.5090 N   0  0  0  0  0  0  0  0  0  0  0  0
   -4.8960   -2.0380    1.7340 C   0  0  0  0  0  0  0  0  0  0  0  0
   -5.7470   -2.1970    0.5310 C   0  0  0  0  0  0  0  0  0  0  0  0
   -5.8220   -1.0330   -0.1960 O   0  0  0  0  0  0  0  0  0  0  0  0
   -0.0150    1.5150   -0.1580 C   0  0  1  0  0  0  0  0  0  0  0  0
    0.9650    0.4440   -0.1590 N   0  0  0  0  0  0  0  0  0  0  0  0
    2.1090    0.4300    0.6840 C   0  0  0  0  0  0  0  0  0  0  0  0
    2.2410    1.4210    1.4570 O   0  0  0  0  0  0  0  0  0  0  0  0
    3.0810   -0.6650    0.6610 C   0  0  0  0  0  0  0  0  0  0  0  0
    2.8750   -1.6050   -0.1340 O   0  0  0  0  0  0  0  0  0  0  0  0
    4.2200   -0.7100    1.4780 N   0  0  0  0  0  0  0  0  0  0  0  0
    5.2040   -1.7270    1.5180 C   0  0  0  0  0  0  0  0  0  0  0  0
    6.3040   -1.7550    2.3180 N   0  0  0  0  0  0  0  0  0  0  0  0
    6.9450   -2.8700    2.0340 N   0  0  0  0  0  0  0  0  0  0  0  0
    6.2970   -3.5520    1.0860 C   0  0  0  0  0  0  0  0  0  0  0  0
    6.5990   -4.6490    0.5630 O   0  0  0  0  0  0  0  0  0  0  0  0
    5.2060   -2.8320    0.7650 N   0  0  0  0  0  0  0  0  0  0  0  0
  1  2  1  0
  3  2  1  1
  3  4  1  0
  3 14  1  0
  4  5  1  0
  5  6  1  0
  6  7  1  6
  6 14  1  0
  7  8  1  0
  8  9  2  0
  8 10  1  0
 10 11  1  0
 11 12  1  0
 12 13  1  0
 14 15  1  6
 15 16  1  0
 16 17  2  0
 16 18  1  0
 18 19  2  0
 18 20  1  0
 20 21  1  0
 21 22  2  0
 21 26  1  0
 22 23  1  0
 23 24  1  0
 24 25  2  0
 24 26  1  0
M  CHG  1   1   1
M  END
