
     RDKit          3D

 26 27  0  0  0  0  0  0  0  0999 V2000
    4.9490   -2.8710    0.5980 N   0  0  0  0  0  0  0  0  0  0  0  0
    4.0360   -2.0010   -0.0350 C   0  0  0  0  0  0  0  0  0  0  0  0
    4.1780   -1.7450   -1.2480 O   0  0  0  0  0  0  0  0  0  0  0  0
    2.9220   -1.3940    0.7170 C   0  0  0  0  0  0  0  0  0  0  0  0
    2.1040   -0.5330   -0.1180 N   0  0  0  0  0  0  0  0  0  0  0  0
    2.5090    0.7010   -0.6770 C   0  0  0  0  0  0  0  0  0  0  0  0
    3.8820    1.1610   -0.8340 N   0  0  0  0  0  0  0  0  0  0  0  0
    1.4630    1.3480   -1.0250 N   0  0  0  0  0  0  0  0  0  0  0  0
    0.2560    0.6270   -0.7400 C   0  0  2  0  0  0  0  0  0  0  0  0
   -0.4860    1.1240    0.4700 C   0  0  1  0  0  0  0  0  0  0  0  0
   -0.6680    2.6030    0.3550 C   0  0  0  0  0  0  0  0  0  0  0  0
   -1.4600    2.9620   -0.8910 C   0  0  0  0  0  0  0  0  0  0  0  0
   -1.6590    4.3870   -1.0300 N   0  0  0  0  0  0  0  0  0  0  0  0
   -0.5750    5.2810   -1.1440 C   0  0  0  0  0  0  0  0  0  0  0  0
    0.6140    4.8850   -1.1320 O   0  0  0  0  0  0  0  0  0  0  0  0
   -1.7910    0.3580    0.5570 C   0  0  0  0  0  0  0  0  0  0  0  0
   -1.4690   -1.0960    0.5830 C   0  0  0  0  0  0  0  0  0  0  0  0
   -2.4010   -2.0260    0.6690 C   0  0  0  0  0  0  0  0  0  0  0  0
   -2.0910   -3.4670    0.6940 C   0  0  0  0  0  0  0  0  0  0  0  0
   -3.1690   -4.4110    0.7950 N   0  0  0  0  0  0  0  0  0  0  0  0
   -0.9280   -3.9080    0.6310 O   0  0  0  0  0  0  0  0  0  0  0  0
   -3.8140   -1.6920    0.7380 C   0  0  0  0  0  0  0  0  0  0  0  0
   -4.1670   -0.4960    0.7150 O   0  0  0  0  0  0  0  0  0  0  0  0
   -4.8110   -2.6570    0.8300 O   0  0  0  0  0  0  0  0  0  0  0  0
   -0.0640   -1.4230    0.5120 N   0  0  0  0  0  0  0  0  0  0  0  0
    0.7650   -0.7890   -0.5100 C   0  0  2  0  0  0  0  0  0  0  0  0
  1  2  1  0
  2  3  2  0
  2  4  1  0
  4  5  1  0
  5  6  1  0
  5 26  1  0
  6  7  1  0
  6  8  2  0
  9  8  1  1
  9 10  1  0
  9 26  1  0
 10 11  1  6
 10 16  1  0
 11 12  1  0
 12 13  1  0
 13 14  1  0
 14 15  2  0
 16 17  1  0
 17 18  2  3
 17 25  1  0
 18 19  1  0
 18 22  1  0
 19 20  1  0
 19 21  2  0
 22 23  2  0
 22 24  1  0
 26 25  1  1
M  CHG  1   8   1
M  END
