
     RDKit          3D

 26 28  0  0  0  0  0  0  0  0999 V2000
   -4.7530    1.3860   -0.8890 C   0  0  0  0  0  0  0  0  0  0  0  0
   -5.2710    0.4600    0.1820 C   0  0  1  0  0  0  0  0  0  0  0  0
   -5.8270   -0.6490   -0.4400 O   0  0  0  0  0  0  0  0  0  0  0  0
   -4.1780    0.0580    1.1620 C   0  0  2  0  0  0  0  0  0  0  0  0
   -3.6110    1.2390    1.8020 N   0  0  0  0  0  0  0  0  0  0  0  0
   -3.1290   -0.7150    0.4460 C   0  0  0  0  0  0  0  0  0  0  0  0
   -3.3850   -1.7740   -0.1810 O   0  0  0  0  0  0  0  0  0  0  0  0
   -1.7620   -0.2940    0.4320 N   0  0  0  0  0  0  0  0  0  0  0  0
   -0.7270   -1.0520   -0.2700 C   0  0  2  0  0  0  0  0  0  0  0  0
    0.3470   -1.3500    0.7560 C   0  0  1  0  0  0  0  0  0  0  0  0
    1.2760   -2.4230    0.2320 C   0  0  0  0  0  0  0  0  0  0  0  0
    2.3320   -2.6340    1.1110 O   0  0  0  0  0  0  0  0  0  0  0  0
    0.9560   -0.1350    0.9360 O   0  0  0  0  0  0  0  0  0  0  0  0
    0.9560    0.5530   -0.2500 C   0  0  1  0  0  0  0  0  0  0  0  0
    2.3250    0.6510   -0.7600 N   0  0  0  0  0  0  0  0  0  0  0  0
    2.7160    0.9180   -2.0160 C   0  0  0  0  0  0  0  0  0  0  0  0
    4.0640    0.9260   -2.1020 N   0  0  0  0  0  0  0  0  0  0  0  0
    4.5400    0.6570   -0.8750 C   0  0  0  0  0  0  0  0  0  0  0  0
    5.8200    0.5390   -0.3780 C   0  0  0  0  0  0  0  0  0  0  0  0
    6.9750    0.7010   -1.1730 N   0  0  0  0  0  0  0  0  0  0  0  0
    5.9740    0.2580    0.9240 N   0  0  0  0  0  0  0  0  0  0  0  0
    4.9200    0.0920    1.7340 C   0  0  0  0  0  0  0  0  0  0  0  0
    3.6800    0.2100    1.2340 N   0  0  0  0  0  0  0  0  0  0  0  0
    3.4550    0.4880   -0.0490 C   0  0  0  0  0  0  0  0  0  0  0  0
    0.0590   -0.1520   -1.2120 C   0  0  2  0  0  0  0  0  0  0  0  0
   -0.7710    0.7030   -1.9240 O   0  0  0  0  0  0  0  0  0  0  0  0
  2  1  1  6
  2  3  1  0
  2  4  1  0
  4  5  1  6
  4  6  1  0
  6  7  2  0
  6  8  1  0
  9  8  1  1
  9 10  1  0
  9 25  1  0
 10 11  1  6
 10 13  1  0
 11 12  1  0
 13 14  1  0
 14 15  1  6
 14 25  1  0
 15 16  1  0
 15 24  1  0
 16 17  2  0
 17 18  1  0
 18 19  2  0
 18 24  1  0
 19 20  1  0
 19 21  1  0
 21 22  2  0
 22 23  1  0
 23 24  2  0
 25 26  1  1
M  CHG  1   5   1
M  END
