
     RDKit          3D

 25 26  0  0  0  0  0  0  0  0999 V2000
   -5.1490    0.2270   -3.3650 N   0  0  0  0  0  0  0  0  0  0  0  0
   -4.8110    0.2800   -1.9630 N   0  0  0  0  0  0  0  0  0  0  0  0
   -3.4860    0.1550   -1.5340 C   0  0  0  0  0  0  0  0  0  0  0  0
   -2.6970   -0.0120   -2.6150 O   0  0  0  0  0  0  0  0  0  0  0  0
   -2.8390    0.1670   -0.2780 C   0  0  0  0  0  0  0  0  0  0  0  0
   -3.0910    0.2910    0.9670 C   0  0  0  0  0  0  0  0  0  0  0  0
   -1.9180    0.2050    1.9040 C   0  0  0  0  0  0  0  0  0  0  0  0
   -0.6220   -0.0610    1.4300 N   0  0  0  0  0  0  0  0  0  0  0  0
   -0.1550   -1.2460    0.8410 C   0  0  0  0  0  0  0  0  0  0  0  0
   -0.9540   -2.2080    0.7100 O   0  0  0  0  0  0  0  0  0  0  0  0
    1.2380   -1.4640    0.3480 C   0  0  1  0  0  0  0  0  0  0  0  0
    1.2500   -1.9510   -1.0750 C   0  0  0  0  0  0  0  0  0  0  0  0
    2.1620   -1.1650   -1.9180 C   0  0  0  0  0  0  0  0  0  0  0  0
    1.9810   -0.9560   -3.1450 O   0  0  0  0  0  0  0  0  0  0  0  0
    3.3550   -0.5870   -1.3030 C   0  0  0  0  0  0  0  0  0  0  0  0
    3.2940   -0.1530   -0.0510 C   0  0  0  0  0  0  0  0  0  0  0  0
    4.4210    0.4510    0.6850 C   0  0  0  0  0  0  0  0  0  0  0  0
    5.6500    0.6770   -0.1220 C   0  0  0  0  0  0  0  0  0  0  0  0
    5.3670    1.6050   -1.1880 N   0  0  0  0  0  0  0  0  0  0  0  0
    2.0320   -0.3140    0.5530 O   0  0  0  0  0  0  0  0  0  0  0  0
   -2.1200    0.3830    3.1870 C   0  0  0  0  0  0  0  0  0  0  0  0
   -3.4200    0.6490    3.6910 N   0  0  0  0  0  0  0  0  0  0  0  0
   -4.5110    0.7290    2.8360 N   0  0  0  0  0  0  0  0  0  0  0  0
   -4.3940    0.5660    1.5540 C   0  0  0  0  0  0  0  0  0  0  0  0
   -5.5670    0.6750    0.8430 O   0  0  0  0  0  0  0  0  0  0  0  0
  1  2  1  0
  2  3  1  0
  3  4  2  0
  3  5  1  0
  5  6  2  3
  6  7  1  0
  6 24  1  0
  7  8  1  0
  7 21  2  0
  8  9  1  0
  9 10  2  0
 11  9  1  6
 11 12  1  0
 11 20  1  0
 12 13  1  0
 13 14  2  0
 13 15  1  0
 15 16  2  0
 16 17  1  0
 16 20  1  0
 17 18  1  0
 18 19  1  0
 21 22  1  0
 22 23  1  0
 23 24  2  0
 24 25  1  0
M  CHG  1  19   1
M  END
