
     RDKit          3D

 19 20  0  0  0  0  0  0  0  0999 V2000
   -5.0240   -1.0640    0.5650 C   0  0  0  0  0  0  0  0  0  0  0  0
   -3.7080   -0.8550    0.4600 C   0  0  0  0  0  0  0  0  0  0  0  0
   -2.7250   -1.8520   -0.0410 C   0  0  0  0  0  0  0  0  0  0  0  0
   -1.3920   -1.1870    0.1840 C   0  0  1  0  0  0  0  0  0  0  0  0
   -0.8190   -0.6180   -1.0840 C   0  0  0  0  0  0  0  0  0  0  0  0
    0.3970    0.1350   -0.8500 N   0  0  0  0  0  0  0  0  0  0  0  0
    1.5660   -0.4190   -0.2870 C   0  0  0  0  0  0  0  0  0  0  0  0
    1.5610   -1.6510    0.0350 O   0  0  0  0  0  0  0  0  0  0  0  0
    2.7410    0.4450   -0.0960 C   0  0  1  0  0  0  0  0  0  0  0  0
    3.2730    1.0490   -1.3510 C   0  0  0  0  0  0  0  0  0  0  0  0
    2.3630    1.8310    1.0600 S   0  0  0  0  0  0  0  0  0  0  0  0
    3.9000    1.7700    1.9570 C   0  0  0  0  0  0  0  0  0  0  0  0
    4.2550    2.5380    2.8530 O   0  0  0  0  0  0  0  0  0  0  0  0
    4.6010    0.6730    1.4250 N   0  0  0  0  0  0  0  0  0  0  0  0
    3.8100   -0.2290    0.7040 C   0  0  0  0  0  0  0  0  0  0  0  0
    3.9360   -1.4980    0.6880 O   0  0  0  0  0  0  0  0  0  0  0  0
   -1.6680   -0.0650    1.0350 O   0  0  0  0  0  0  0  0  0  0  0  0
   -2.9710    0.3380    0.7950 C   0  0  0  0  0  0  0  0  0  0  0  0
   -3.4740    1.5750    0.8550 C   0  0  0  0  0  0  0  0  0  0  0  0
  1  2  2  0
  2  3  1  0
  2 18  1  0
  3  4  1  0
  4  5  1  6
  4 17  1  0
  5  6  1  0
  6  7  1  0
  7  8  2  0
  7  9  1  0
  9 10  1  6
  9 11  1  0
  9 15  1  0
 11 12  1  0
 12 13  2  0
 12 14  1  0
 14 15  1  0
 15 16  2  0
 17 18  1  0
 18 19  2  0
M  END
