
     RDKit          3D

 25 27  0  0  0  0  0  0  0  0999 V2000
   -6.8740    1.7400   -0.7860 N   0  0  0  0  0  0  0  0  0  0  0  0
   -5.7500    1.1920   -0.1180 C   0  0  0  0  0  0  0  0  0  0  0  0
   -5.7410    0.8260    1.1730 N   0  0  0  0  0  0  0  0  0  0  0  0
   -4.6780    0.3060    1.8110 C   0  0  0  0  0  0  0  0  0  0  0  0
   -3.5460    0.1410    1.1070 N   0  0  0  0  0  0  0  0  0  0  0  0
   -3.4540    0.4740   -0.1830 C   0  0  0  0  0  0  0  0  0  0  0  0
   -4.5770    1.0140   -0.8220 C   0  0  0  0  0  0  0  0  0  0  0  0
   -4.2220    1.2520   -2.0750 N   0  0  0  0  0  0  0  0  0  0  0  0
   -2.9330    0.8820   -2.2250 C   0  0  0  0  0  0  0  0  0  0  0  0
   -2.4520    0.4010   -1.0650 N   0  0  0  0  0  0  0  0  0  0  0  0
   -1.1380   -0.0850   -0.8350 C   0  0  2  0  0  0  0  0  0  0  0  0
   -1.0920   -1.4840   -0.6420 O   0  0  0  0  0  0  0  0  0  0  0  0
    0.2910   -1.6380   -0.4440 C   0  0  2  0  0  0  0  0  0  0  0  0
    0.6240   -3.0110    0.0910 C   0  0  0  0  0  0  0  0  0  0  0  0
    0.2360   -4.0240   -0.7470 O   0  0  0  0  0  0  0  0  0  0  0  0
    0.6760   -0.5680    0.5550 C   0  0  1  0  0  0  0  0  0  0  0  0
    1.8780    0.0950    0.0800 N   0  0  0  0  0  0  0  0  0  0  0  0
    3.0570    0.2170    0.8530 C   0  0  0  0  0  0  0  0  0  0  0  0
    3.0450   -0.2800    2.0100 O   0  0  0  0  0  0  0  0  0  0  0  0
    4.2710    0.9150    0.3060 C   0  0  1  0  0  0  0  0  0  0  0  0
    5.3460    0.9180    1.2650 N   0  0  0  0  0  0  0  0  0  0  0  0
    4.6870    0.1520   -0.9450 C   0  0  0  0  0  0  0  0  0  0  0  0
    4.9960   -1.1510   -0.5970 O   0  0  0  0  0  0  0  0  0  0  0  0
   -0.5270    0.3840    0.4700 C   0  0  1  0  0  0  0  0  0  0  0  0
   -0.0450    1.6680    0.4180 O   0  0  0  0  0  0  0  0  0  0  0  0
  1  2  1  0
  2  3  2  0
  2  7  1  0
  3  4  1  0
  4  5  2  0
  5  6  1  0
  6  7  2  0
  6 10  1  0
  7  8  1  0
  8  9  2  0
  9 10  1  0
 11 10  1  1
 11 12  1  0
 11 24  1  0
 12 13  1  0
 13 14  1  1
 13 16  1  0
 14 15  1  0
 16 17  1  6
 16 24  1  0
 17 18  1  0
 18 19  2  0
 18 20  1  0
 20 21  1  1
 20 22  1  0
 22 23  1  0
 24 25  1  6
M  CHG  1  21   1
M  END
