
     RDKit          3D

 19 20  0  0  0  0  0  0  0  0999 V2000
   -4.4490   -1.9970    0.2220 C   0  0  0  0  0  0  0  0  0  0  0  0
   -4.6070   -0.5700    0.0020 N   0  0  0  0  0  0  0  0  0  0  0  0
   -5.9550   -0.0420   -0.0050 C   0  0  0  0  0  0  0  0  0  0  0  0
   -3.5000    0.2950   -0.2020 C   0  0  0  0  0  0  0  0  0  0  0  0
   -3.7250    1.5170   -0.3850 O   0  0  0  0  0  0  0  0  0  0  0  0
   -2.1940   -0.1180   -0.2120 O   0  0  0  0  0  0  0  0  0  0  0  0
   -1.0920    0.7470   -0.4150 C   0  0  0  0  0  0  0  0  0  0  0  0
    0.2210   -0.0060   -0.3710 C   0  0  2  0  0  0  0  0  0  0  0  0
    0.2990   -0.7050    0.9690 C   0  0  0  0  0  0  0  0  0  0  0  0
    1.9400   -1.5120    1.1340 S   0  0  0  0  0  0  0  0  0  0  0  0
    3.0020   -0.6930   -0.1120 C   0  0  2  0  0  0  0  0  0  0  0  0
    4.3770   -0.9650    0.0710 N   0  0  0  0  0  0  0  0  0  0  0  0
    5.4710   -0.1950    0.5650 C   0  0  0  0  0  0  0  0  0  0  0  0
    6.5150   -0.8380    0.9180 O   0  0  0  0  0  0  0  0  0  0  0  0
    5.5340    1.2540    0.7130 C   0  0  0  0  0  0  0  0  0  0  0  0
    4.5390    2.0960    0.4880 C   0  0  0  0  0  0  0  0  0  0  0  0
    3.1680    1.8710    0.0550 C   0  0  0  0  0  0  0  0  0  0  0  0
    2.5830    0.6980   -0.1780 C   0  0  0  0  0  0  0  0  0  0  0  0
    1.2490    0.9200   -0.5790 O   0  0  0  0  0  0  0  0  0  0  0  0
  1  2  1  0
  2  3  1  0
  2  4  1  0
  4  5  2  0
  4  6  1  0
  6  7  1  0
  8  7  1  1
  8  9  1  0
  8 19  1  0
  9 10  1  0
 10 11  1  0
 11 12  1  1
 11 18  1  0
 12 13  1  0
 13 14  2  0
 13 15  1  0
 15 16  2  0
 16 17  1  0
 17 18  2  0
 18 19  1  0
M  END
