
     RDKit          3D

 19 20  0  0  0  0  0  0  0  0999 V2000
    0.0930   -0.0910   -1.4530 C   0  0  0  0  0  0  0  0  0  0  0  0
   -0.4580   -0.8700   -0.3840 N   0  0  0  0  0  0  0  0  0  0  0  0
   -1.7410   -1.5480   -0.7020 C   0  0  0  0  0  0  0  0  0  0  0  0
   -2.8770   -0.6650   -0.3660 C   0  0  0  0  0  0  0  0  0  0  0  0
   -3.7270   -0.2890   -1.3030 C   0  0  0  0  0  0  0  0  0  0  0  0
   -4.8960    0.5890   -1.0850 C   0  0  0  0  0  0  0  0  0  0  0  0
   -4.9990    0.9930    0.2970 N   0  0  0  0  0  0  0  0  0  0  0  0
   -4.0830    0.5870    1.3070 C   0  0  0  0  0  0  0  0  0  0  0  0
   -4.2190    0.9720    2.5130 O   0  0  0  0  0  0  0  0  0  0  0  0
   -3.0410   -0.2370    0.9390 O   0  0  0  0  0  0  0  0  0  0  0  0
    0.1040   -1.0220    0.8640 C   0  0  0  0  0  0  0  0  0  0  0  0
   -0.6040   -1.7880    1.6770 O   0  0  0  0  0  0  0  0  0  0  0  0
    1.2990   -0.5400    1.5100 C   0  0  0  0  0  0  0  0  0  0  0  0
    2.2850    0.2840    0.7920 C   0  0  1  0  0  0  0  0  0  0  0  0
    3.3950    0.5860    1.8350 C   0  0  0  0  0  0  0  0  0  0  0  0
    4.5620    1.7920    1.0860 S   0  0  0  0  0  0  0  0  0  0  0  0
    4.6690    1.1930   -0.6560 C   0  0  0  0  0  0  0  0  0  0  0  0
    4.1470   -0.2490   -0.5280 C   0  0  0  0  0  0  0  0  0  0  0  0
    2.8000   -0.1930   -0.3640 O   0  0  0  0  0  0  0  0  0  0  0  0
  1  2  1  0
  2  3  1  0
  2 11  1  0
  3  4  1  0
  4  5  2  0
  4 10  1  0
  5  6  1  0
  6  7  1  0
  7  8  1  0
  8  9  2  0
  8 10  1  0
 11 12  2  0
 11 13  1  0
 14 13  1  1
 14 15  1  0
 14 19  1  0
 15 16  1  0
 16 17  1  0
 17 18  1  0
 18 19  1  0
M  END
