
     RDKit          3D

 19 20  0  0  0  0  0  0  0  0999 V2000
   -4.1170    0.4010   -1.2970 C   0  0  0  0  0  0  0  0  0  0  0  0
   -3.9570   -0.3690   -0.0130 C   0  0  0  0  0  0  0  0  0  0  0  0
   -2.5790   -0.1410    0.5440 C   0  0  0  0  0  0  0  0  0  0  0  0
   -2.2700    0.6560    1.5880 N   0  0  0  0  0  0  0  0  0  0  0  0
   -0.9410    0.6070    1.7950 C   0  0  0  0  0  0  0  0  0  0  0  0
   -0.1470    1.3280    2.8440 C   0  0  0  0  0  0  0  0  0  0  0  0
   -0.3650   -0.2360    0.8720 C   0  0  0  0  0  0  0  0  0  0  0  0
    1.0420   -0.5710    0.7420 C   0  0  0  0  0  0  0  0  0  0  0  0
    1.4820   -1.5690    1.3870 O   0  0  0  0  0  0  0  0  0  0  0  0
    1.9260    0.1350   -0.0420 O   0  0  0  0  0  0  0  0  0  0  0  0
    3.2760   -0.2760   -0.0970 C   0  0  2  0  0  0  0  0  0  0  0  0
    4.2520    1.1710    0.4730 S   0  0  0  0  0  0  0  0  0  0  0  0
    5.3820    1.2440   -0.9320 C   0  0  0  0  0  0  0  0  0  0  0  0
    6.2360    2.1560   -1.1550 O   0  0  0  0  0  0  0  0  0  0  0  0
    5.0740    0.0740   -1.6750 N   0  0  0  0  0  0  0  0  0  0  0  0
    3.7750   -0.3990   -1.4900 C   0  0  0  0  0  0  0  0  0  0  0  0
    3.0380   -0.9020   -2.3960 O   0  0  0  0  0  0  0  0  0  0  0  0
   -1.4010   -0.7020    0.0900 C   0  0  0  0  0  0  0  0  0  0  0  0
   -1.2770   -1.6460   -1.0490 C   0  0  0  0  0  0  0  0  0  0  0  0
  1  2  1  0
  2  3  1  0
  3  4  1  0
  3 18  2  0
  4  5  1  0
  5  6  1  0
  5  7  2  0
  7  8  1  0
  7 18  1  0
  8  9  2  0
  8 10  1  0
 11 10  1  6
 11 12  1  0
 11 16  1  0
 12 13  1  0
 13 14  2  0
 13 15  1  0
 15 16  1  0
 16 17  2  0
 18 19  1  0
M  END
