
     RDKit          3D

 19 20  0  0  0  0  0  0  0  0999 V2000
   -1.8720    0.0800    1.7020 C   0  0  0  0  0  0  0  0  0  0  0  0
   -2.6250    0.2720    0.4030 C   0  0  2  0  0  0  0  0  0  0  0  0
   -3.2100    1.6880    0.4620 C   0  0  0  0  0  0  0  0  0  0  0  0
   -3.7230   -0.6070    0.4240 O   0  0  0  0  0  0  0  0  0  0  0  0
   -3.7680   -1.8200   -0.2440 C   0  0  0  0  0  0  0  0  0  0  0  0
   -4.4420   -2.8010    0.1620 O   0  0  0  0  0  0  0  0  0  0  0  0
   -3.0040   -1.9210   -1.4400 N   0  0  0  0  0  0  0  0  0  0  0  0
   -2.2700   -0.7720   -1.8340 C   0  0  0  0  0  0  0  0  0  0  0  0
   -2.0660   -0.5360   -3.0450 O   0  0  0  0  0  0  0  0  0  0  0  0
   -1.7470    0.1460   -0.8000 C   0  0  2  0  0  0  0  0  0  0  0  0
   -0.3980   -0.2930   -0.4550 N   0  0  0  0  0  0  0  0  0  0  0  0
    0.7470    0.4950   -0.7340 C   0  0  0  0  0  0  0  0  0  0  0  0
    0.5410    1.6180   -1.3060 O   0  0  0  0  0  0  0  0  0  0  0  0
    2.1150    0.0980   -0.4070 C   0  0  0  0  0  0  0  0  0  0  0  0
    3.1070    0.9110   -0.7130 C   0  0  0  0  0  0  0  0  0  0  0  0
    4.5130    0.5530   -0.4020 C   0  0  0  0  0  0  0  0  0  0  0  0
    4.6400    0.5330    1.1080 C   0  0  0  0  0  0  0  0  0  0  0  0
    3.5040   -0.7560    1.6970 S   0  0  0  0  0  0  0  0  0  0  0  0
    2.4540   -1.1650    0.2470 C   0  0  0  0  0  0  0  0  0  0  0  0
  2  1  1  1
  2  3  1  0
  2  4  1  0
  2 10  1  0
  4  5  1  0
  5  6  2  0
  5  7  1  0
  7  8  1  0
  8  9  2  0
  8 10  1  0
 10 11  1  1
 11 12  1  0
 12 13  2  0
 12 14  1  0
 14 15  2  0
 14 19  1  0
 15 16  1  0
 16 17  1  0
 17 18  1  0
 18 19  1  0
M  END
