
     RDKit          3D

 26 27  0  0  0  0  0  0  0  0999 V2000
   -5.2840    2.8870    1.2270 C   0  0  0  0  0  0  0  0  0  0  0  0
   -4.6590    1.8840    0.4000 N   0  0  0  0  0  0  0  0  0  0  0  0
   -3.2620    1.5630    0.5290 C   0  0  0  0  0  0  0  0  0  0  0  0
   -2.4700    2.3370    1.1160 N   0  0  0  0  0  0  0  0  0  0  0  0
   -2.8620    0.3710   -0.0260 O   0  0  0  0  0  0  0  0  0  0  0  0
   -1.5960   -0.1220   -0.0180 C   0  0  0  0  0  0  0  0  0  0  0  0
   -0.6850    0.5180    0.5210 O   0  0  0  0  0  0  0  0  0  0  0  0
   -1.2920   -1.4090   -0.6440 C   0  0  0  0  0  0  0  0  0  0  0  0
   -2.2850   -2.0800   -1.2060 C   0  0  0  0  0  0  0  0  0  0  0  0
   -3.5880   -1.4920   -1.1780 N   0  0  0  0  0  0  0  0  0  0  0  0
   -2.1070   -3.4230   -1.6910 N   0  0  0  0  0  0  0  0  0  0  0  0
   -0.9770   -4.0150   -1.5740 C   0  0  0  0  0  0  0  0  0  0  0  0
   -0.8160   -5.3360   -2.0690 N   0  0  0  0  0  0  0  0  0  0  0  0
    0.1370   -3.4040   -0.8370 C   0  0  0  0  0  0  0  0  0  0  0  0
    0.0630   -1.9410   -0.8060 C   0  0  2  0  0  0  0  0  0  0  0  0
    1.0930   -1.3150    0.0760 C   0  0  0  0  0  0  0  0  0  0  0  0
    1.4390   -1.8650    1.1540 O   0  0  0  0  0  0  0  0  0  0  0  0
    1.7030   -0.1030   -0.2640 N   0  0  0  0  0  0  0  0  0  0  0  0
    2.7050    0.5660    0.5430 C   0  0  2  0  0  0  0  0  0  0  0  0
    2.3170    1.9670    0.8990 C   0  0  0  0  0  0  0  0  0  0  0  0
    3.5120    2.6600    1.4230 C   0  0  0  0  0  0  0  0  0  0  0  0
    3.3550    3.7240    2.0830 O   0  0  0  0  0  0  0  0  0  0  0  0
    4.8370    2.1950    1.2270 N   0  0  0  0  0  0  0  0  0  0  0  0
    5.1210    0.8920    0.6790 C   0  0  0  0  0  0  0  0  0  0  0  0
    3.9880    0.5690   -0.2960 C   0  0  2  0  0  0  0  0  0  0  0  0
    3.9580    1.5370   -1.2790 O   0  0  0  0  0  0  0  0  0  0  0  0
  1  2  1  0
  2  3  1  0
  3  4  2  0
  3  5  1  0
  5  6  1  0
  6  7  2  0
  6  8  1  0
  8  9  2  0
  8 15  1  0
  9 10  1  0
  9 11  1  0
 11 12  2  0
 12 13  1  0
 12 14  1  0
 14 15  1  0
 15 16  1  1
 16 17  2  0
 16 18  1  0
 19 18  1  6
 19 20  1  0
 19 25  1  0
 20 21  1  0
 21 22  2  0
 21 23  1  0
 23 24  1  0
 24 25  1  0
 25 26  1  6
M  CHG  1   4   1
M  END
