
     RDKit          3D

 25 26  0  0  0  0  0  0  0  0999 V2000
    0.0430    3.9240    1.9200 N   0  0  0  0  0  0  0  0  0  0  0  0
    1.2080    3.2240    2.1520 N   0  0  0  0  0  0  0  0  0  0  0  0
    1.5310    1.9800    1.4480 C   0  0  0  0  0  0  0  0  0  0  0  0
    0.6260    1.6700    0.6440 O   0  0  0  0  0  0  0  0  0  0  0  0
    2.7530    1.2930    1.7130 C   0  0  0  0  0  0  0  0  0  0  0  0
    3.2940    0.1850    1.2980 C   0  0  0  0  0  0  0  0  0  0  0  0
    2.6840   -0.7260    0.3590 C   0  0  0  0  0  0  0  0  0  0  0  0
    1.3510   -0.7350   -0.0810 N   0  0  0  0  0  0  0  0  0  0  0  0
    0.3150   -1.1750    0.8280 C   0  0  0  0  0  0  0  0  0  0  0  0
    0.6390   -1.5350    1.9850 O   0  0  0  0  0  0  0  0  0  0  0  0
   -1.1140   -1.2230    0.4580 C   0  0  1  0  0  0  0  0  0  0  0  0
   -1.9130   -0.5220    1.5270 C   0  0  0  0  0  0  0  0  0  0  0  0
   -2.4560    0.7300    0.9900 C   0  0  0  0  0  0  0  0  0  0  0  0
   -2.4770    1.8200    1.6190 O   0  0  0  0  0  0  0  0  0  0  0  0
   -3.0110    0.7330   -0.3550 C   0  0  0  0  0  0  0  0  0  0  0  0
   -2.4390   -0.0520   -1.2830 C   0  0  0  0  0  0  0  0  0  0  0  0
   -2.9540   -0.0950   -2.6700 C   0  0  0  0  0  0  0  0  0  0  0  0
   -3.4040   -1.4990   -3.0300 C   0  0  0  0  0  0  0  0  0  0  0  0
   -3.9060   -1.5880   -4.3630 N   0  0  0  0  0  0  0  0  0  0  0  0
   -1.3630   -0.7910   -0.8430 O   0  0  0  0  0  0  0  0  0  0  0  0
    3.4550   -1.7320   -0.1200 C   0  0  0  0  0  0  0  0  0  0  0  0
    4.8050   -1.9150    0.2720 N   0  0  0  0  0  0  0  0  0  0  0  0
    5.3620   -1.0190    1.1880 N   0  0  0  0  0  0  0  0  0  0  0  0
    4.7270   -0.0420    1.6940 C   0  0  0  0  0  0  0  0  0  0  0  0
    5.3920    0.7670    2.5850 O   0  0  0  0  0  0  0  0  0  0  0  0
  1  2  1  0
  2  3  1  0
  3  4  2  0
  3  5  1  0
  5  6  2  3
  6  7  1  0
  6 24  1  0
  7  8  1  0
  7 21  2  0
  8  9  1  0
  9 10  2  0
 11  9  1  1
 11 12  1  0
 11 20  1  0
 12 13  1  0
 13 14  2  0
 13 15  1  0
 15 16  2  0
 16 17  1  0
 16 20  1  0
 17 18  1  0
 18 19  1  0
 21 22  1  0
 22 23  1  0
 23 24  2  0
 24 25  1  0
M  CHG  1  19   1
M  END
