
     RDKit          3D

 26 27  0  0  0  0  0  0  0  0999 V2000
    5.3750   -0.8000   -1.8220 N   0  0  0  0  0  0  0  0  0  0  0  0
    4.2000   -0.3400   -1.2060 C   0  0  0  0  0  0  0  0  0  0  0  0
    4.0380    0.8880   -1.0550 O   0  0  0  0  0  0  0  0  0  0  0  0
    3.1650   -1.3230   -0.7400 C   0  0  0  0  0  0  0  0  0  0  0  0
    2.0640   -0.5630   -0.1430 N   0  0  0  0  0  0  0  0  0  0  0  0
    2.2060    0.1510    1.0660 C   0  0  0  0  0  0  0  0  0  0  0  0
    3.3100    0.0660    1.9910 N   0  0  0  0  0  0  0  0  0  0  0  0
    1.1990    0.9150    1.2480 N   0  0  0  0  0  0  0  0  0  0  0  0
    0.2230    0.8110    0.1580 C   0  0  2  0  0  0  0  0  0  0  0  0
   -1.1570    0.6870    0.6730 C   0  0  1  0  0  0  0  0  0  0  0  0
   -1.8830    2.0360    0.7200 C   0  0  0  0  0  0  0  0  0  0  0  0
   -1.2220    3.0450    1.5810 C   0  0  0  0  0  0  0  0  0  0  0  0
   -1.9850    4.2670    1.5810 N   0  0  0  0  0  0  0  0  0  0  0  0
   -2.2140    5.0030    0.3990 C   0  0  0  0  0  0  0  0  0  0  0  0
   -1.7400    4.5900   -0.6830 O   0  0  0  0  0  0  0  0  0  0  0  0
   -2.1000   -0.2580    0.0400 C   0  0  0  0  0  0  0  0  0  0  0  0
   -1.4450   -1.5310   -0.3500 C   0  0  0  0  0  0  0  0  0  0  0  0
   -2.1440   -2.5360   -0.8440 C   0  0  0  0  0  0  0  0  0  0  0  0
   -1.5300   -3.7760   -1.2300 C   0  0  0  0  0  0  0  0  0  0  0  0
   -0.1470   -4.0010   -1.1240 N   0  0  0  0  0  0  0  0  0  0  0  0
   -2.2970   -4.7020   -1.6870 O   0  0  0  0  0  0  0  0  0  0  0  0
   -3.5740   -2.3950   -1.0350 C   0  0  0  0  0  0  0  0  0  0  0  0
   -4.2160   -3.3730   -1.4990 O   0  0  0  0  0  0  0  0  0  0  0  0
   -4.2720   -1.2670   -0.7470 O   0  0  0  0  0  0  0  0  0  0  0  0
   -0.0380   -1.5810   -0.1450 N   0  0  0  0  0  0  0  0  0  0  0  0
    0.7150   -0.3870   -0.6060 C   0  0  2  0  0  0  0  0  0  0  0  0
  1  2  1  0
  2  3  2  0
  2  4  1  0
  4  5  1  0
  5  6  1  0
  5 26  1  0
  6  7  1  0
  6  8  2  0
  9  8  1  1
  9 10  1  0
  9 26  1  0
 10 11  1  6
 10 16  1  0
 11 12  1  0
 12 13  1  0
 13 14  1  0
 14 15  2  0
 16 17  1  0
 17 18  2  3
 17 25  1  0
 18 19  1  0
 18 22  1  0
 19 20  1  0
 19 21  2  0
 22 23  2  0
 22 24  1  0
 26 25  1  1
M  CHG  1   8   1
M  END
