
     RDKit          3D

 20 22  0  0  0  0  0  0  0  0999 V2000
    6.3970    2.6120   -0.9660 F   0  0  0  0  0  0  0  0  0  0  0  0
    5.9290    1.4920   -0.2690 C   0  0  2  0  0  0  0  0  0  0  0  0
    6.8810    0.4760   -0.3140 F   0  0  0  0  0  0  0  0  0  0  0  0
    4.6890    0.9910   -0.8870 C   0  0  0  0  0  0  0  0  0  0  0  0
    3.7730    0.4180   -0.1340 C   0  0  0  0  0  0  0  0  0  0  0  0
    3.8420    0.2050    1.3260 C   0  0  0  0  0  0  0  0  0  0  0  0
    2.7280   -0.4000    1.6990 C   0  0  0  0  0  0  0  0  0  0  0  0
    1.8540   -0.6370    0.5760 C   0  0  0  0  0  0  0  0  0  0  0  0
    0.5930   -1.2380    0.4940 C   0  0  0  0  0  0  0  0  0  0  0  0
    0.0060   -1.3150   -0.7530 C   0  0  0  0  0  0  0  0  0  0  0  0
   -1.3130   -1.9340   -0.8970 C   0  0  0  0  0  0  0  0  0  0  0  0
   -2.4150   -1.0230   -0.7600 N   0  0  0  0  0  0  0  0  0  0  0  0
   -2.6430   -0.6010    0.6080 C   0  0  1  0  0  0  0  0  0  0  0  0
   -2.1510    0.8170    0.8270 C   0  0  0  0  0  0  0  0  0  0  0  0
   -3.3100    1.7310    0.6010 C   0  0  0  0  0  0  0  0  0  0  0  0
   -4.3590    0.8470   -0.0350 C   0  0  0  0  0  0  0  0  0  0  0  0
   -4.1630   -0.4420    0.7560 C   0  0  0  0  0  0  0  0  0  0  0  0
    0.6550   -0.8140   -1.8460 C   0  0  0  0  0  0  0  0  0  0  0  0
    1.8620   -0.2460   -1.7230 N   0  0  0  0  0  0  0  0  0  0  0  0
    2.4880   -0.1400   -0.5410 C   0  0  0  0  0  0  0  0  0  0  0  0
  2  1  1  6
  2  3  1  0
  2  4  1  0
  4  5  2  3
  5  6  1  0
  5 20  1  0
  6  7  2  0
  7  8  1  0
  8  9  2  0
  8 20  1  0
  9 10  1  0
 10 11  1  0
 10 18  2  0
 11 12  1  0
 13 12  1  6
 13 14  1  0
 13 17  1  0
 14 15  1  0
 15 16  1  0
 16 17  1  0
 18 19  1  0
 19 20  2  0
M  CHG  1  12   1
M  END
