
     RDKit          3D

 25 27  0  0  0  0  0  0  0  0999 V2000
   -0.2260   -3.6620   -0.1150 C   0  0  0  0  0  0  0  0  0  0  0  0
   -0.6940   -2.2560   -0.1020 C   0  0  0  0  0  0  0  0  0  0  0  0
    0.1300   -1.2960   -0.1200 N   0  0  0  0  0  0  0  0  0  0  0  0
   -0.2980    0.1130   -0.1190 C   0  0  0  0  0  0  0  0  0  0  0  0
    0.4590    1.2470   -0.5680 N   0  0  0  0  0  0  0  0  0  0  0  0
    1.6300    1.4530    0.1930 C   0  0  0  0  0  0  0  0  0  0  0  0
    1.5790    0.6560    1.2250 O   0  0  0  0  0  0  0  0  0  0  0  0
    2.6360    2.3240   -0.0680 N   0  0  0  0  0  0  0  0  0  0  0  0
    3.7570    2.4250    0.8880 C   0  0  0  0  0  0  0  0  0  0  0  0
    4.4660    1.2610    0.9760 O   0  0  0  0  0  0  0  0  0  0  0  0
    5.0370    0.8440   -0.2030 C   0  0  1  0  0  0  0  0  0  0  0  0
    6.5300    0.5870   -0.0430 C   0  0  0  0  0  0  0  0  0  0  0  0
    6.5490   -0.8670    0.3330 C   0  0  0  0  0  0  0  0  0  0  0  0
    5.2550   -1.3320    0.3320 O   0  0  0  0  0  0  0  0  0  0  0  0
    4.5460   -0.5370   -0.5610 C   0  0  0  0  0  0  0  0  0  0  0  0
   -1.4590    0.3200   -0.1000 N   0  0  0  0  0  0  0  0  0  0  0  0
   -2.5030   -0.6200   -0.0680 C   0  0  1  0  0  0  0  0  0  0  0  0
   -2.0700   -1.9790   -0.0310 N   0  0  0  0  0  0  0  0  0  0  0  0
   -3.3830   -0.3030    1.0410 N   0  0  0  0  0  0  0  0  0  0  0  0
   -4.0670    0.8680    0.4880 C   0  0  2  0  0  0  0  0  0  0  0  0
   -5.2510    1.2830    1.2860 C   0  0  0  0  0  0  0  0  0  0  0  0
   -6.2310    0.3300    1.4100 O   0  0  0  0  0  0  0  0  0  0  0  0
   -4.3740    0.4300   -0.9290 C   0  0  2  0  0  0  0  0  0  0  0  0
   -5.6010   -0.4620   -0.9590 C   0  0  0  0  0  0  0  0  0  0  0  0
   -3.2320   -0.3360   -1.3080 N   0  0  0  0  0  0  0  0  0  0  0  0
  1  2  1  0
  2  3  2  0
  2 18  1  0
  3  4  1  0
  4  5  1  0
  4 16  2  0
  5  6  1  0
  6  7  2  0
  6  8  1  0
  8  9  1  0
  9 10  1  0
 11 10  1  1
 11 12  1  0
 11 15  1  0
 12 13  1  0
 13 14  1  0
 14 15  1  0
 16 17  1  0
 17 18  1  6
 17 19  1  0
 17 25  1  0
 19 20  1  0
 20 21  1  1
 20 23  1  0
 21 22  1  0
 23 24  1  1
 23 25  1  0
M  CHG  1  25   1
M  END
