
     RDKit          3D

 18 17  0  0  0  0  0  0  0  0999 V2000
    5.8140    2.7060   -0.6730 C   0  0  0  0  0  0  0  0  0  0  0  0
    5.0830    1.6000    0.0760 C   0  0  0  0  0  0  0  0  0  0  0  0
    3.8650    1.2370   -0.7020 C   0  0  0  0  0  0  0  0  0  0  0  0
    3.0220    0.1430   -0.0480 C   0  0  0  0  0  0  0  0  0  0  0  0
    3.7720   -1.1250    0.1190 C   0  0  0  0  0  0  0  0  0  0  0  0
    3.0580   -2.2440    0.7730 C   0  0  0  0  0  0  0  0  0  0  0  0
    1.8790   -2.8700    0.1920 C   0  0  0  0  0  0  0  0  0  0  0  0
    0.6370   -2.1300   -0.0740 C   0  0  0  0  0  0  0  0  0  0  0  0
    0.1260   -1.4950    1.1920 C   0  0  0  0  0  0  0  0  0  0  0  0
   -1.1460   -0.7110    0.9660 C   0  0  0  0  0  0  0  0  0  0  0  0
   -2.2560   -1.5780    0.4600 C   0  0  0  0  0  0  0  0  0  0  0  0
   -3.5330   -0.8210    0.2020 C   0  0  0  0  0  0  0  0  0  0  0  0
   -3.3380    0.2540   -0.8480 C   0  0  0  0  0  0  0  0  0  0  0  0
   -4.6280    0.9780   -1.0840 C   0  0  0  0  0  0  0  0  0  0  0  0
   -5.1750    1.6890    0.1200 C   0  0  0  0  0  0  0  0  0  0  0  0
   -6.4530    2.3420   -0.3050 C   0  0  0  0  0  0  0  0  0  0  0  0
   -7.3480    1.6170   -0.7910 O   0  0  0  0  0  0  0  0  0  0  0  0
   -6.6810    3.7050   -0.1810 O   0  0  0  0  0  0  0  0  0  0  0  0
  1  2  1  0
  2  3  1  0
  3  4  1  0
  4  5  1  0
  5  6  1  0
  6  7  1  0
  7  8  1  0
  8  9  1  0
  9 10  1  0
 10 11  1  0
 11 12  1  0
 12 13  1  0
 13 14  1  0
 14 15  1  0
 15 16  1  0
 16 17  2  0
 16 18  1  0
M  END
