
     RDKit          3D

 18 18  0  0  0  0  0  0  0  0999 V2000
   -6.6680    0.1380    0.5570 C   0  0  0  0  0  0  0  0  0  0  0  0
   -5.6560   -0.6430    0.2520 C   0  0  0  0  0  0  0  0  0  0  0  0
   -4.2980   -0.0690    0.1290 C   0  0  0  0  0  0  0  0  0  0  0  0
   -3.7590   -0.2960   -1.2520 C   0  0  0  0  0  0  0  0  0  0  0  0
   -2.3900    0.2740   -1.4190 C   0  0  0  0  0  0  0  0  0  0  0  0
   -1.3650   -0.3310   -0.4580 C   0  0  0  0  0  0  0  0  0  0  0  0
   -0.0660    0.3030   -0.7170 C   0  0  0  0  0  0  0  0  0  0  0  0
   -0.0980    1.1950   -1.6570 O   0  0  0  0  0  0  0  0  0  0  0  0
    1.2030    0.0850   -0.0960 C   0  0  0  0  0  0  0  0  0  0  0  0
    2.2650    0.9600   -0.3940 C   0  0  0  0  0  0  0  0  0  0  0  0
    3.5110    0.8400    0.1660 C   0  0  0  0  0  0  0  0  0  0  0  0
    4.5640    1.8070   -0.2070 C   0  0  0  0  0  0  0  0  0  0  0  0
    5.5810    1.2310   -1.1680 C   0  0  0  0  0  0  0  0  0  0  0  0
    3.7510   -0.1700    1.0560 C   0  0  0  0  0  0  0  0  0  0  0  0
    5.0180   -0.3240    1.6510 O   0  0  0  0  0  0  0  0  0  0  0  0
    2.7160   -1.0240    1.3460 C   0  0  0  0  0  0  0  0  0  0  0  0
    1.4510   -0.9270    0.7980 C   0  0  0  0  0  0  0  0  0  0  0  0
    0.4400   -1.9320    1.1960 C   0  0  0  0  0  0  0  0  0  0  0  0
  1  2  2  0
  2  3  1  0
  3  4  1  0
  4  5  1  0
  5  6  1  0
  6  7  1  0
  7  8  2  0
  7  9  1  0
  9 10  2  0
  9 17  1  0
 10 11  1  0
 11 12  1  0
 11 14  2  0
 12 13  1  0
 14 15  1  0
 14 16  1  0
 16 17  2  0
 17 18  1  0
M  END
