
     RDKit          3D

 17 17  0  0  0  0  0  0  0  0999 V2000
    2.4350    0.4250    0.5700 O   0  0  0  0  0  0  0  0  0  0  0  0
    2.9340   -0.2600   -0.3380 C   0  0  0  0  0  0  0  0  0  0  0  0
    4.3000   -0.5800   -0.3500 N   0  0  0  0  0  0  0  0  0  0  0  0
    5.2630   -0.1720    0.6340 C   0  0  0  0  0  0  0  0  0  0  0  0
    5.4580    1.1870    0.6660 O   0  0  0  0  0  0  0  0  0  0  0  0
    4.4330    1.9090    0.9440 O   0  0  0  0  0  0  0  0  0  0  0  0
    2.0480   -0.6830   -1.3340 O   0  0  0  0  0  0  0  0  0  0  0  0
    0.6770   -0.3590   -1.3110 C   0  0  0  0  0  0  0  0  0  0  0  0
   -0.0630   -0.8800   -0.1100 C   0  0  0  0  0  0  0  0  0  0  0  0
   -1.3900   -0.4760   -0.2430 O   0  0  0  0  0  0  0  0  0  0  0  0
   -2.1890   -0.8850    0.7920 C   0  0  0  0  0  0  0  0  0  0  0  0
   -3.5950   -0.3800    0.5190 C   0  0  2  0  0  0  0  0  0  0  0  0
   -3.5950    1.0110    0.4360 O   0  0  0  0  0  0  0  0  0  0  0  0
   -4.9370    1.4100    0.3700 C   0  0  0  0  0  0  0  0  0  0  0  0
   -5.5370    1.1720    1.5930 O   0  0  0  0  0  0  0  0  0  0  0  0
   -4.8130    0.3340    2.2740 O   0  0  0  0  0  0  0  0  0  0  0  0
   -4.4370   -0.7150    1.5830 O   0  0  0  0  0  0  0  0  0  0  0  0
  1  2  2  0
  2  3  1  0
  2  7  1  0
  3  4  1  0
  4  5  1  0
  5  6  1  0
  7  8  1  0
  8  9  1  0
  9 10  1  0
 10 11  1  0
 12 11  1  1
 12 13  1  0
 12 17  1  0
 13 14  1  0
 14 15  1  0
 15 16  1  0
 16 17  1  0
M  END
