
     RDKit          3D

 18 17  0  0  0  0  0  0  0  0999 V2000
   -5.6020    0.0650   -0.4810 O   0  0  0  0  0  0  0  0  0  0  0  0
   -5.3120    0.9630    0.3290 C   0  0  0  0  0  0  0  0  0  0  0  0
   -3.9920    1.3320    0.6660 N   0  0  0  0  0  0  0  0  0  0  0  0
   -2.9140    0.7690    0.1620 O   0  0  0  0  0  0  0  0  0  0  0  0
   -2.9180   -0.5800   -0.0800 C   0  0  0  0  0  0  0  0  0  0  0  0
   -1.5660   -1.0040   -0.5980 C   0  0  0  0  0  0  0  0  0  0  0  0
   -1.4070   -2.2030   -0.8780 O   0  0  0  0  0  0  0  0  0  0  0  0
   -0.5870   -0.1180   -0.7450 O   0  0  0  0  0  0  0  0  0  0  0  0
    0.7120   -0.1540   -1.1460 C   0  0  0  0  0  0  0  0  0  0  0  0
    1.7500   -0.7460   -0.2820 C   0  0  1  0  0  0  0  0  0  0  0  0
    1.4740   -2.1450    0.1470 C   0  0  0  0  0  0  0  0  0  0  0  0
    1.4530   -3.0710   -0.8940 O   0  0  0  0  0  0  0  0  0  0  0  0
    3.0290   -0.6560   -0.8870 O   0  0  0  0  0  0  0  0  0  0  0  0
    3.8830    0.0160   -0.1900 O   0  0  0  0  0  0  0  0  0  0  0  0
    3.3460    1.1160    0.3600 O   0  0  0  0  0  0  0  0  0  0  0  0
    4.1420    2.2540    0.5640 C   0  0  0  0  0  0  0  0  0  0  0  0
    5.3420    2.1640    0.2060 O   0  0  0  0  0  0  0  0  0  0  0  0
    3.6140    3.4180    1.1360 O   0  0  0  0  0  0  0  0  0  0  0  0
  1  2  2  0
  2  3  1  0
  3  4  1  0
  4  5  1  0
  5  6  1  0
  6  7  2  0
  6  8  1  0
  8  9  1  0
 10  9  1  6
 10 11  1  0
 10 13  1  0
 11 12  1  0
 13 14  1  0
 14 15  1  0
 15 16  1  0
 16 17  2  0
 16 18  1  0
M  END
