
     RDKit          3D

 17 16  0  0  0  0  0  0  0  0999 V2000
   -0.0220    3.8590   -0.6930 O   0  0  0  0  0  0  0  0  0  0  0  0
   -0.1050    3.4720    0.5030 C   0  0  0  0  0  0  0  0  0  0  0  0
   -0.2020    4.4300    1.5030 O   0  0  0  0  0  0  0  0  0  0  0  0
   -0.0940    2.0700    0.7680 N   0  0  0  0  0  0  0  0  0  0  0  0
    0.0050    1.0920   -0.2410 C   0  0  0  0  0  0  0  0  0  0  0  0
    0.0890    1.4510   -1.4450 O   0  0  0  0  0  0  0  0  0  0  0  0
    0.0120   -0.3770    0.0830 C   0  0  2  0  0  0  0  0  0  0  0  0
    1.1990   -0.5920    1.0200 C   0  0  0  0  0  0  0  0  0  0  0  0
    2.4120   -0.2250    0.3790 O   0  0  0  0  0  0  0  0  0  0  0  0
    3.5900   -0.3610    1.0990 C   0  0  0  0  0  0  0  0  0  0  0  0
    3.5790   -0.7970    2.2820 O   0  0  0  0  0  0  0  0  0  0  0  0
    4.8220   -0.0200    0.5350 O   0  0  0  0  0  0  0  0  0  0  0  0
    0.1160   -1.1220   -1.0620 O   0  0  0  0  0  0  0  0  0  0  0  0
   -0.8830   -2.0340   -1.2850 C   0  0  0  0  0  0  0  0  0  0  0  0
   -2.2560   -1.4570   -1.4020 C   0  0  0  0  0  0  0  0  0  0  0  0
   -3.1670   -2.4950   -1.6270 O   0  0  0  0  0  0  0  0  0  0  0  0
   -4.3970   -2.0400   -1.7380 O   0  0  0  0  0  0  0  0  0  0  0  0
  1  2  2  0
  2  3  1  0
  2  4  1  0
  4  5  1  0
  5  6  2  0
  5  7  1  0
  7  8  1  1
  7 13  1  0
  8  9  1  0
  9 10  1  0
 10 11  2  0
 10 12  1  0
 13 14  1  0
 14 15  1  0
 15 16  1  0
 16 17  1  0
M  END
