
     RDKit          3D

 15 15  0  0  0  0  0  0  0  0999 V2000
    4.2560    0.6100    0.3680 N   0  0  0  0  0  0  0  0  0  0  0  0
    2.8990    0.9360    0.1580 C   0  0  0  0  0  0  0  0  0  0  0  0
    2.4890    2.0660    0.5720 O   0  0  0  0  0  0  0  0  0  0  0  0
    1.9340    0.0320   -0.5170 C   0  0  2  0  0  0  0  0  0  0  0  0
    2.5010   -0.5010   -1.8030 C   0  0  0  0  0  0  0  0  0  0  0  0
    1.7120   -1.5210   -2.3320 O   0  0  0  0  0  0  0  0  0  0  0  0
    0.6900    0.5590   -0.6030 O   0  0  0  0  0  0  0  0  0  0  0  0
   -0.3120   -0.0530    0.0800 C   0  0  1  0  0  0  0  0  0  0  0  0
   -0.8190    0.9650    1.1070 C   0  0  0  0  0  0  0  0  0  0  0  0
   -1.7680    0.4330    1.9370 O   0  0  0  0  0  0  0  0  0  0  0  0
   -2.7500   -0.3000    1.2790 C   0  0  1  0  0  0  0  0  0  0  0  0
   -3.9930   -0.1460    1.8680 O   0  0  0  0  0  0  0  0  0  0  0  0
   -2.8010    0.0100   -0.1980 C   0  0  1  0  0  0  0  0  0  0  0  0
   -3.0770    1.3190   -0.4740 O   0  0  0  0  0  0  0  0  0  0  0  0
   -1.4850   -0.4630   -0.7940 C   0  0  0  0  0  0  0  0  0  0  0  0
  1  2  1  0
  2  3  2  0
  2  4  1  0
  4  5  1  6
  4  7  1  0
  5  6  1  0
  8  7  1  6
  8  9  1  0
  8 15  1  0
  9 10  1  0
 10 11  1  0
 11 12  1  1
 11 13  1  0
 13 14  1  1
 13 15  1  0
M  END
