
     RDKit          3D

 15 15  0  0  0  0  0  0  0  0999 V2000
    4.3810    0.1860   -0.2520 C   0  0  0  0  0  0  0  0  0  0  0  0
    3.0500    0.3250    0.1940 O   0  0  0  0  0  0  0  0  0  0  0  0
    1.9920   -0.4350   -0.2780 C   0  0  0  0  0  0  0  0  0  0  0  0
    2.2350   -1.2960   -1.1540 O   0  0  0  0  0  0  0  0  0  0  0  0
    0.6420   -0.2190    0.2450 C   0  0  1  0  0  0  0  0  0  0  0  0
    0.6440    0.7780    1.1930 O   0  0  0  0  0  0  0  0  0  0  0  0
   -0.2660    0.2290   -0.8930 C   0  0  0  0  0  0  0  0  0  0  0  0
   -1.6110    0.5790   -0.2550 C   0  0  2  0  0  0  0  0  0  0  0  0
   -2.3930    1.3280   -1.3240 C   0  0  0  0  0  0  0  0  0  0  0  0
   -1.3890    1.4400    0.8060 O   0  0  0  0  0  0  0  0  0  0  0  0
   -2.2900   -0.6890    0.1700 C   0  0  1  0  0  0  0  0  0  0  0  0
   -3.1420   -1.1770   -0.8250 O   0  0  0  0  0  0  0  0  0  0  0  0
   -1.3480   -1.7030    0.5450 N   0  0  0  0  0  0  0  0  0  0  0  0
    0.0320   -1.4480    0.8120 C   0  0  0  0  0  0  0  0  0  0  0  0
    0.7100   -2.2450    1.5090 O   0  0  0  0  0  0  0  0  0  0  0  0
  1  2  1  0
  2  3  1  0
  3  4  2  0
  3  5  1  0
  5  6  1  1
  5  7  1  0
  5 14  1  0
  7  8  1  0
  8  9  1  6
  8 10  1  0
  8 11  1  0
 11 12  1  6
 11 13  1  0
 13 14  1  0
 14 15  2  0
M  END
