
     RDKit          3D

 22 24  0  0  0  0  0  0  0  0999 V2000
    4.3670    1.7880   -0.0620 C   0  0  0  0  0  0  0  0  0  0  0  0
    4.6560    0.5250   -0.2050 C   0  0  0  0  0  0  0  0  0  0  0  0
    5.8740    0.1920   -0.9990 C   0  0  0  0  0  0  0  0  0  0  0  0
    6.1360   -1.2440   -1.1020 C   0  0  0  0  0  0  0  0  0  0  0  0
    5.3450   -2.1390   -0.5370 C   0  0  0  0  0  0  0  0  0  0  0  0
    4.1630   -1.7560    0.2250 C   0  0  0  0  0  0  0  0  0  0  0  0
    3.8140   -0.4890    0.3960 C   0  0  0  0  0  0  0  0  0  0  0  0
    2.6230   -0.1230    1.1640 C   0  0  0  0  0  0  0  0  0  0  0  0
    1.6230    0.6030    0.4450 N   0  0  0  0  0  0  0  0  0  0  0  0
    0.5250    0.8790    1.3580 C   0  0  0  0  0  0  0  0  0  0  0  0
   -0.3640   -0.3390    1.3930 C   0  0  0  0  0  0  0  0  0  0  0  0
   -1.1910   -0.3250    0.2010 N   0  0  0  0  0  0  0  0  0  0  0  0
   -2.3970    0.4070    0.5050 C   0  0  0  0  0  0  0  0  0  0  0  0
   -3.3430    0.4550   -0.6760 C   0  0  2  0  0  0  0  0  0  0  0  0
   -2.7100    1.0750   -1.7300 O   0  0  0  0  0  0  0  0  0  0  0  0
   -4.6260    1.1750   -0.3290 C   0  0  0  0  0  0  0  0  0  0  0  0
   -5.5400    0.1430    0.3290 C   0  0  0  0  0  0  0  0  0  0  0  0
   -5.9540   -0.8290   -0.7550 C   0  0  0  0  0  0  0  0  0  0  0  0
   -4.9240   -1.0710   -1.6590 O   0  0  0  0  0  0  0  0  0  0  0  0
   -3.6760   -0.9800   -1.0740 C   0  0  0  0  0  0  0  0  0  0  0  0
   -0.4120    0.2460   -0.8540 C   0  0  0  0  0  0  0  0  0  0  0  0
    1.0800   -0.0920   -0.6910 C   0  0  0  0  0  0  0  0  0  0  0  0
  1  2  2  0
  2  3  1  0
  2  7  1  0
  3  4  1  0
  4  5  2  0
  5  6  1  0
  6  7  2  0
  7  8  1  0
  8  9  1  0
  9 10  1  0
  9 22  1  0
 10 11  1  0
 11 12  1  0
 12 13  1  0
 12 21  1  0
 13 14  1  0
 14 15  1  6
 14 16  1  0
 14 20  1  0
 16 17  1  0
 17 18  1  0
 18 19  1  0
 19 20  1  0
 21 22  1  0
M  END
