
     RDKit          3D

 14 14  0  0  0  0  0  0  0  0999 V2000
    5.0410   -0.7860    0.2660 N   0  0  0  0  0  0  0  0  0  0  0  0
    3.9400   -0.4530   -0.5700 C   0  0  0  0  0  0  0  0  0  0  0  0
    2.7330   -0.2490    0.2880 C   0  0  0  0  0  0  0  0  0  0  0  0
    2.8150   -0.3820    1.5460 O   0  0  0  0  0  0  0  0  0  0  0  0
    1.5000    0.0890   -0.2520 O   0  0  0  0  0  0  0  0  0  0  0  0
    0.4050    0.2650    0.6280 C   0  0  0  0  0  0  0  0  0  0  0  0
   -0.8570    0.6310   -0.1450 C   0  0  2  0  0  0  0  0  0  0  0  0
   -0.6770    1.8120   -0.8520 O   0  0  0  0  0  0  0  0  0  0  0  0
   -1.9700    0.8410    0.8550 C   0  0  0  0  0  0  0  0  0  0  0  0
   -3.2650    0.4280    0.2030 C   0  0  0  0  0  0  0  0  0  0  0  0
   -3.2260   -1.0570   -0.0280 C   0  0  0  0  0  0  0  0  0  0  0  0
   -1.9680   -1.4910   -0.3800 O   0  0  0  0  0  0  0  0  0  0  0  0
   -1.2160   -0.5240   -1.0490 C   0  0  1  0  0  0  0  0  0  0  0  0
   -1.8300   -0.1130   -2.2170 O   0  0  0  0  0  0  0  0  0  0  0  0
  1  2  1  0
  2  3  1  0
  3  4  2  0
  3  5  1  0
  5  6  1  0
  6  7  1  0
  7  8  1  6
  7  9  1  0
  7 13  1  0
  9 10  1  0
 10 11  1  0
 11 12  1  0
 12 13  1  0
 13 14  1  6
M  END
