
     RDKit          3D

 14 14  0  0  0  0  0  0  0  0999 V2000
   -5.5780    0.5890   -1.1090 C   0  0  0  0  0  0  0  0  0  0  0  0
   -4.2820    0.0100   -0.6390 C   0  0  0  0  0  0  0  0  0  0  0  0
   -3.0150    0.5350   -0.6230 C   0  0  0  0  0  0  0  0  0  0  0  0
   -2.0110   -0.2170   -0.1350 C   0  0  0  0  0  0  0  0  0  0  0  0
   -0.6450    0.2720   -0.0870 N   0  0  0  0  0  0  0  0  0  0  0  0
    0.3660   -0.6070    0.4530 C   0  0  0  0  0  0  0  0  0  0  0  0
    1.7070    0.0510    0.4280 C   0  0  0  0  0  0  0  0  0  0  0  0
    1.8340    1.2120   -0.0210 O   0  0  0  0  0  0  0  0  0  0  0  0
    2.8490   -0.5650    0.8840 O   0  0  0  0  0  0  0  0  0  0  0  0
    4.0680    0.0870    0.8390 C   0  0  0  0  0  0  0  0  0  0  0  0
    4.5280    0.4940   -0.5250 C   0  0  0  0  0  0  0  0  0  0  0  0
    4.6700   -0.6180   -1.3670 O   0  0  0  0  0  0  0  0  0  0  0  0
   -2.3000   -1.4640    0.3180 C   0  0  0  0  0  0  0  0  0  0  0  0
   -4.0730   -1.5920    0.0490 S   0  0  0  0  0  0  0  0  0  0  0  0
  1  2  1  0
  2  3  2  0
  2 14  1  0
  3  4  1  0
  4  5  1  0
  4 13  2  0
  5  6  1  0
  6  7  1  0
  7  8  2  0
  7  9  1  0
  9 10  1  0
 10 11  1  0
 11 12  1  0
 13 14  1  0
M  END
