
     RDKit          3D

 14 14  0  0  0  0  0  0  0  0999 V2000
   -1.9300   -0.8950    1.4340 O   0  0  0  0  0  0  0  0  0  0  0  0
   -1.3000   -0.4430    0.4470 C   0  0  0  0  0  0  0  0  0  0  0  0
    0.1350   -0.2790    0.5710 C   0  0  0  0  0  0  0  0  0  0  0  0
    0.9420    0.1760   -0.3530 C   0  0  0  0  0  0  0  0  0  0  0  0
    2.3730    0.3000   -0.1210 C   0  0  0  0  0  0  0  0  0  0  0  0
    3.2750    0.7660   -1.0380 C   0  0  0  0  0  0  0  0  0  0  0  0
    4.5300    0.7420   -0.4690 C   0  0  0  0  0  0  0  0  0  0  0  0
    4.3340    0.2490    0.8060 C   0  0  0  0  0  0  0  0  0  0  0  0
    5.6800    0.0240    1.9610 S   0  0  0  0  0  0  0  0  0  0  0  0
    3.0590    0.0050    0.9650 O   0  0  0  0  0  0  0  0  0  0  0  0
   -2.0430   -0.1310   -0.7060 N   0  0  0  0  0  0  0  0  0  0  0  0
   -3.4470   -0.2630   -0.8930 C   0  0  0  0  0  0  0  0  0  0  0  0
   -4.3330    0.5270   -0.0040 C   0  0  0  0  0  0  0  0  0  0  0  0
   -4.2180    0.2720    1.3540 O   0  0  0  0  0  0  0  0  0  0  0  0
  1  2  2  0
  2  3  1  0
  2 11  1  0
  3  4  2  3
  4  5  1  0
  5  6  2  0
  5 10  1  0
  6  7  1  0
  7  8  2  0
  8  9  1  0
  8 10  1  0
 11 12  1  0
 12 13  1  0
 13 14  1  0
M  END
