
     RDKit          3D

 14 14  0  0  0  0  0  0  0  0999 V2000
    4.5710    0.7730   -1.1300 C   0  0  0  0  0  0  0  0  0  0  0  0
    3.5940   -0.1190   -0.7570 O   0  0  0  0  0  0  0  0  0  0  0  0
    2.7170    0.4400    0.1910 C   0  0  0  0  0  0  0  0  0  0  0  0
    1.6690   -0.5720    0.5660 C   0  0  0  0  0  0  0  0  0  0  0  0
    0.7950    0.0200    1.5260 N   0  0  0  0  0  0  0  0  0  0  0  0
   -0.4740   -1.0010    2.0720 S   0  0  2  0  0  0  0  0  0  0  0  0
   -1.1090   -0.3230    3.2410 O   0  0  0  0  0  0  0  0  0  0  0  0
    0.2160   -2.2340    2.6540 O   0  0  0  0  0  0  0  0  0  0  0  0
   -1.5490   -1.5050    0.8280 C   0  0  0  0  0  0  0  0  0  0  0  0
   -2.2950   -0.5040    0.0950 C   0  0  0  0  0  0  0  0  0  0  0  0
   -2.2940    0.8000    0.2440 C   0  0  0  0  0  0  0  0  0  0  0  0
   -3.2160    1.4370   -0.7310 C   0  0  0  0  0  0  0  0  0  0  0  0
   -3.7350    0.2500   -1.4560 C   0  0  0  0  0  0  0  0  0  0  0  0
   -3.2140   -0.8580   -0.9900 C   0  0  0  0  0  0  0  0  0  0  0  0
  1  2  1  0
  2  3  1  0
  3  4  1  0
  4  5  1  0
  5  6  1  0
  6  7  2  0
  6  8  2  0
  6  9  1  6
  9 10  1  0
 10 11  2  0
 10 14  1  0
 11 12  1  0
 12 13  1  0
 13 14  2  0
M  END
