
     RDKit          3D

 14 14  0  0  0  0  0  0  0  0999 V2000
   -2.9170    1.0490   -0.9640 C   0  0  0  0  0  0  0  0  0  0  0  0
   -2.4880    0.2060    0.2040 C   0  0  1  0  0  0  0  0  0  0  0  0
   -3.1190   -1.1100    0.2060 C   0  0  0  0  0  0  0  0  0  0  0  0
   -1.1380    0.4540    0.7650 C   0  0  0  0  0  0  0  0  0  0  0  0
    0.0630    0.3770    0.0190 C   0  0  0  0  0  0  0  0  0  0  0  0
    0.2790    1.3410   -0.8180 O   0  0  0  0  0  0  0  0  0  0  0  0
    1.1570   -0.6300    0.0370 C   0  0  0  0  0  0  0  0  0  0  0  0
    1.1370   -2.2910    0.5420 S   0  0  0  0  0  0  0  0  0  0  0  0
    2.9030   -2.4970    0.5570 C   0  0  0  0  0  0  0  0  0  0  0  0
    3.5210   -3.5770    0.8590 O   0  0  0  0  0  0  0  0  0  0  0  0
    3.3740   -1.3060    0.1720 N   0  0  0  0  0  0  0  0  0  0  0  0
    2.4790   -0.3600   -0.0880 C   0  0  0  0  0  0  0  0  0  0  0  0
    2.8840    1.0020   -0.6440 C   0  0  0  0  0  0  0  0  0  0  0  0
    2.5650    2.0090    0.3400 O   0  0  0  0  0  0  0  0  0  0  0  0
  2  1  1  6
  2  3  1  0
  2  4  1  0
  4  5  1  0
  5  6  2  0
  5  7  1  0
  7  8  1  0
  7 12  2  0
  8  9  1  0
  9 10  2  0
  9 11  1  0
 11 12  1  0
 12 13  1  0
 13 14  1  0
M  END
