
     RDKit          3D

 26 29  0  0  0  0  0  0  0  0999 V2000
    1.9480    0.3530    1.2590 O   0  0  0  0  0  0  0  0  0  0  0  0
    1.7960    0.0380    0.0590 C   0  0  0  0  0  0  0  0  0  0  0  0
    0.4160   -0.3930   -0.3090 C   0  0  0  0  0  0  0  0  0  0  0  0
   -0.5220   -0.3810    0.8420 C   0  0  0  0  0  0  0  0  0  0  0  0
   -1.8760   -0.7740    0.5210 N   0  0  0  0  0  0  0  0  0  0  0  0
   -2.3650   -2.1030    0.8460 C   0  0  0  0  0  0  0  0  0  0  0  0
   -1.6630   -3.2660    1.1590 C   0  0  0  0  0  0  0  0  0  0  0  0
   -2.3210   -4.4510    1.4090 C   0  0  0  0  0  0  0  0  0  0  0  0
   -3.6950   -4.4290    1.3350 C   0  0  0  0  0  0  0  0  0  0  0  0
   -4.3690   -3.2970    1.0310 N   0  0  0  0  0  0  0  0  0  0  0  0
   -3.7240   -2.1230    0.7840 C   0  0  0  0  0  0  0  0  0  0  0  0
   -4.1760   -0.7550    0.4610 C   0  0  0  0  0  0  0  0  0  0  0  0
   -2.9510   -0.1300   -0.1730 C   0  0  1  0  0  0  0  0  0  0  0  0
   -3.0020    1.3540   -0.0110 C   0  0  0  0  0  0  0  0  0  0  0  0
   -3.9410    2.0590    0.6140 C   0  0  0  0  0  0  0  0  0  0  0  0
   -3.6150    3.4870    0.5470 C   0  0  0  0  0  0  0  0  0  0  0  0
   -2.3640    3.5540   -0.2010 C   0  0  0  0  0  0  0  0  0  0  0  0
   -2.0370    2.2840   -0.5100 C   0  0  0  0  0  0  0  0  0  0  0  0
    2.8260    0.0760   -0.8960 N   0  0  0  0  0  0  0  0  0  0  0  0
    4.1430    0.4660   -0.6400 C   0  0  0  0  0  0  0  0  0  0  0  0
    4.6460    0.8900    0.5520 C   0  0  0  0  0  0  0  0  0  0  0  0
    5.9750    1.2620    0.7230 C   0  0  0  0  0  0  0  0  0  0  0  0
    6.8400    1.2130   -0.3210 C   0  0  0  0  0  0  0  0  0  0  0  0
    6.3700    0.7900   -1.5410 C   0  0  0  0  0  0  0  0  0  0  0  0
    5.0380    0.4200   -1.7010 C   0  0  0  0  0  0  0  0  0  0  0  0
    4.5920   -0.0010   -2.9370 O   0  0  0  0  0  0  0  0  0  0  0  0
  1  2  2  0
  2  3  1  0
  2 19  1  0
  3  4  1  0
  4  5  1  0
  5  6  1  0
  5 13  1  0
  6  7  2  0
  6 11  1  0
  7  8  1  0
  8  9  2  0
  9 10  1  0
 10 11  2  0
 11 12  1  0
 12 13  1  0
 13 14  1  1
 14 15  2  0
 14 18  1  0
 15 16  1  0
 16 17  1  0
 17 18  2  0
 19 20  1  0
 20 21  2  0
 20 25  1  0
 21 22  1  0
 22 23  2  0
 23 24  1  0
 24 25  2  0
 25 26  1  0
M  END
