
     RDKit          3D

 26 29  0  0  0  0  0  0  0  0999 V2000
    6.8410    1.5890    2.1130 C   0  0  0  0  0  0  0  0  0  0  0  0
    6.1230    0.7730    1.0970 C   0  0  0  0  0  0  0  0  0  0  0  0
    6.6610   -0.4040    0.6210 C   0  0  0  0  0  0  0  0  0  0  0  0
    6.0220   -1.1780   -0.3160 C   0  0  0  0  0  0  0  0  0  0  0  0
    4.7840   -0.7960   -0.8310 C   0  0  0  0  0  0  0  0  0  0  0  0
    4.2240   -1.6280   -1.7590 O   0  0  0  0  0  0  0  0  0  0  0  0
    2.9840   -1.4470   -2.4070 C   0  0  0  0  0  0  0  0  0  0  0  0
    1.8780   -1.4180   -1.4140 C   0  0  0  0  0  0  0  0  0  0  0  0
    2.0160   -1.7000   -0.1120 N   0  0  0  0  0  0  0  0  0  0  0  0
    0.8200   -1.5680    0.4510 C   0  0  0  0  0  0  0  0  0  0  0  0
   -0.0950   -1.1980   -0.4970 C   0  0  0  0  0  0  0  0  0  0  0  0
   -1.5550   -0.9310   -0.3560 C   0  0  0  0  0  0  0  0  0  0  0  0
   -2.1030   -1.0570    0.8570 C   0  0  0  0  0  0  0  0  0  0  0  0
   -3.5180   -0.8410    1.0590 C   0  0  1  0  0  0  0  0  0  0  0  0
   -4.1230   -0.5660    2.2650 N   0  0  0  0  0  0  0  0  0  0  0  0
   -4.9600    0.4010    2.1590 C   0  0  0  0  0  0  0  0  0  0  0  0
   -4.9240    0.8460    0.7650 C   0  0  0  0  0  0  0  0  0  0  0  0
   -5.7410    1.9580    0.1620 C   0  0  0  0  0  0  0  0  0  0  0  0
   -7.2320    1.6320    0.3180 C   0  0  0  0  0  0  0  0  0  0  0  0
   -7.5460    0.4420   -0.3240 O   0  0  0  0  0  0  0  0  0  0  0  0
   -4.0670    0.1310    0.0920 C   0  0  0  0  0  0  0  0  0  0  0  0
   -3.4960    0.2010   -1.2590 C   0  0  0  0  0  0  0  0  0  0  0  0
   -2.2690   -0.3080   -1.4450 C   0  0  0  0  0  0  0  0  0  0  0  0
    0.5720   -1.1090   -1.6470 N   0  0  0  0  0  0  0  0  0  0  0  0
    4.2430    0.3710   -0.3640 C   0  0  0  0  0  0  0  0  0  0  0  0
    4.8980    1.1420    0.5820 C   0  0  0  0  0  0  0  0  0  0  0  0
  1  2  1  0
  2  3  2  0
  2 26  1  0
  3  4  1  0
  4  5  2  0
  5  6  1  0
  5 25  1  0
  6  7  1  0
  7  8  1  0
  8  9  2  0
  8 24  1  0
  9 10  1  0
 10 11  2  0
 11 12  1  0
 11 24  1  0
 12 13  2  0
 12 23  1  0
 14 13  1  1
 14 15  1  0
 14 21  1  0
 15 16  2  0
 16 17  1  0
 17 18  1  0
 17 21  2  0
 18 19  1  0
 19 20  1  0
 21 22  1  0
 22 23  2  0
 25 26  2  0
M  END
