
     RDKit          3D

 13 13  0  0  0  0  0  0  0  0999 V2000
   -4.5370    0.4280   -0.2500 C   0  0  0  0  0  0  0  0  0  0  0  0
   -3.1050    0.8770    0.0640 C   0  0  0  0  0  0  0  0  0  0  0  0
   -2.2810   -0.2310   -0.1230 O   0  0  0  0  0  0  0  0  0  0  0  0
   -0.9080   -0.2330    0.0620 C   0  0  0  0  0  0  0  0  0  0  0  0
   -0.2200    0.8940    0.4590 C   0  0  0  0  0  0  0  0  0  0  0  0
    1.1620    0.8280    0.6270 C   0  0  0  0  0  0  0  0  0  0  0  0
    1.8710   -0.3390    0.4080 C   0  0  0  0  0  0  0  0  0  0  0  0
    3.6190   -0.4170    0.6230 S   0  0  1  0  0  0  0  0  0  0  0  0
    4.3700   -0.0160   -0.8890 N   0  0  0  0  0  0  0  0  0  0  0  0
    4.0840    0.5900    1.6350 O   0  0  0  0  0  0  0  0  0  0  0  0
    3.9980   -1.8260    1.0500 O   0  0  0  0  0  0  0  0  0  0  0  0
    1.1720   -1.4680    0.0090 C   0  0  0  0  0  0  0  0  0  0  0  0
   -0.1980   -1.3960   -0.1560 C   0  0  0  0  0  0  0  0  0  0  0  0
  1  2  1  0
  2  3  1  0
  3  4  1  0
  4  5  2  0
  4 13  1  0
  5  6  1  0
  6  7  2  0
  7  8  1  0
  7 12  1  0
  8  9  1  6
  8 10  2  0
  8 11  2  0
 12 13  2  0
M  END
