
     RDKit          3D

 26 29  0  0  0  0  0  0  0  0999 V2000
    8.0980   -0.5270    1.2510 C   0  0  0  0  0  0  0  0  0  0  0  0
    6.7380    0.1060    1.4070 C   0  0  0  0  0  0  0  0  0  0  0  0
    5.9530    0.0440    0.1050 C   0  0  0  0  0  0  0  0  0  0  0  0
    4.6050    0.6800    0.2690 C   0  0  0  0  0  0  0  0  0  0  0  0
    3.8750    0.6070   -0.9580 N   0  0  0  0  0  0  0  0  0  0  0  0
    3.4720   -0.7360   -1.3230 C   0  0  0  0  0  0  0  0  0  0  0  0
    2.0430   -0.8260   -0.9270 C   0  0  0  0  0  0  0  0  0  0  0  0
    1.1430   -1.8380   -0.7250 C   0  0  0  0  0  0  0  0  0  0  0  0
   -0.1640   -1.6240   -0.3480 C   0  0  0  0  0  0  0  0  0  0  0  0
   -0.6110   -0.3360   -0.1600 C   0  0  0  0  0  0  0  0  0  0  0  0
   -1.9390   -0.0750    0.2200 C   0  0  0  0  0  0  0  0  0  0  0  0
   -2.3770    1.2100    0.3980 C   0  0  0  0  0  0  0  0  0  0  0  0
   -1.4450    2.2260    0.1870 C   0  0  0  0  0  0  0  0  0  0  0  0
   -1.8150    3.4110    0.3440 O   0  0  0  0  0  0  0  0  0  0  0  0
   -0.1780    1.9840   -0.1730 N   0  0  0  0  0  0  0  0  0  0  0  0
    0.2700    0.7220   -0.3540 C   0  0  0  0  0  0  0  0  0  0  0  0
    1.5560    0.4700   -0.7270 C   0  0  0  0  0  0  0  0  0  0  0  0
    2.6750    1.4120   -0.9850 C   0  0  0  0  0  0  0  0  0  0  0  0
   -3.7550    1.5420    0.7850 C   0  0  0  0  0  0  0  0  0  0  0  0
   -4.6450    0.3930    0.5740 N   0  0  0  0  0  0  0  0  0  0  0  0
   -4.9040    0.1890   -0.8130 C   0  0  0  0  0  0  0  0  0  0  0  0
   -5.9170   -0.8750   -1.0800 C   0  0  0  0  0  0  0  0  0  0  0  0
   -7.1610   -0.6590   -0.6160 O   0  0  0  0  0  0  0  0  0  0  0  0
   -7.3450   -0.4780    0.7180 C   0  0  0  0  0  0  0  0  0  0  0  0
   -4.0290   -0.7810    1.1990 C   0  0  0  0  0  0  0  0  0  0  0  0
   -2.8230   -1.2370    0.4310 C   0  0  0  0  0  0  0  0  0  0  0  0
  1  2  1  0
  2  3  1  0
  3  4  1  0
  4  5  1  0
  5  6  1  0
  5 18  1  0
  6  7  1  0
  7  8  2  0
  7 17  1  0
  8  9  1  0
  9 10  2  0
 10 11  1  0
 10 16  1  0
 11 12  2  0
 11 26  1  0
 12 13  1  0
 12 19  1  0
 13 14  2  0
 13 15  1  0
 15 16  1  0
 16 17  2  0
 17 18  1  0
 19 20  1  0
 20 21  1  0
 20 25  1  0
 21 22  1  0
 22 23  1  0
 23 24  1  0
 25 26  1  0
M  END
