
     RDKit          3D

 15 15  0  0  0  0  0  0  0  0999 V2000
   -4.7700   -1.3040   -1.7420 C   0  0  0  0  0  0  0  0  0  0  0  0
   -3.1840   -0.6810   -1.1560 S   0  0  0  0  0  0  0  0  0  0  0  0
   -3.2430    1.0440   -0.9350 C   0  0  0  0  0  0  0  0  0  0  0  0
   -4.5280    1.6790   -1.2520 N   0  0  0  0  0  0  0  0  0  0  0  0
   -2.3130    1.8270   -0.5340 C   0  0  0  0  0  0  0  0  0  0  0  0
   -1.0130    1.6170   -0.1530 N   0  0  0  0  0  0  0  0  0  0  0  0
   -0.3330    0.3940   -0.1080 C   0  0  0  0  0  0  0  0  0  0  0  0
   -0.8090   -0.7060   -0.4110 O   0  0  0  0  0  0  0  0  0  0  0  0
    1.0360    0.4250    0.3270 N   0  0  0  0  0  0  0  0  0  0  0  0
    1.7600   -0.8310    0.3820 C   0  0  0  0  0  0  0  0  0  0  0  0
    3.1460   -0.5990    0.8500 C   0  0  0  0  0  0  0  0  0  0  0  0
    3.7050    0.5030    1.1790 N   0  0  0  0  0  0  0  0  0  0  0  0
    5.0460    0.3270    1.5770 C   0  0  0  0  0  0  0  0  0  0  0  0
    5.2890   -0.9690    1.4750 C   0  0  0  0  0  0  0  0  0  0  0  0
    4.1180   -1.6280    1.0140 N   0  0  0  0  0  0  0  0  0  0  0  0
  1  2  1  0
  2  3  1  0
  3  4  1  0
  3  5  2  3
  5  6  1  0
  6  7  1  0
  7  8  2  0
  7  9  1  0
  9 10  1  0
 10 11  1  0
 11 12  2  0
 11 15  1  0
 12 13  1  0
 13 14  2  0
 14 15  1  0
M  CHG  1  15   1
M  END
