
     RDKit          3D

 27 28  0  0  0  0  0  0  0  0999 V2000
   -1.4290    3.5920   -2.0840 C   0  0  0  0  0  0  0  0  0  0  0  0
   -2.1000    3.0720   -0.8120 C   0  0  0  0  0  0  0  0  0  0  0  0
   -1.2760    2.0090   -0.1790 C   0  0  0  0  0  0  0  0  0  0  0  0
   -1.6310    0.7790   -0.0330 C   0  0  0  0  0  0  0  0  0  0  0  0
   -3.0570    0.5570   -0.6040 C   0  0  0  0  0  0  0  0  0  0  0  0
   -0.8350   -0.3830    0.2300 C   0  0  0  0  0  0  0  0  0  0  0  0
    0.5590   -0.4880    0.1860 N   0  0  0  0  0  0  0  0  0  0  0  0
    1.5630    0.4090   -0.1610 C   0  0  0  0  0  0  0  0  0  0  0  0
    1.3480    1.5340   -0.5500 O   0  0  0  0  0  0  0  0  0  0  0  0
    3.0000   -0.0350   -0.0510 C   0  0  0  0  0  0  0  0  0  0  0  0
    3.8670    1.0960   -0.4740 C   0  0  0  0  0  0  0  0  0  0  0  0
    5.3280    0.8070   -0.4180 C   0  0  1  0  0  0  0  0  0  0  0  0
    5.8200    0.4480    0.9550 C   0  0  0  0  0  0  0  0  0  0  0  0
    5.7020   -0.2940   -1.3710 C   0  0  0  0  0  0  0  0  0  0  0  0
    6.0640    2.0640   -0.8670 C   0  0  0  0  0  0  0  0  0  0  0  0
   -1.4400   -1.5550    0.5700 C   0  0  0  0  0  0  0  0  0  0  0  0
   -0.7150   -2.8420    0.8270 C   0  0  0  0  0  0  0  0  0  0  0  0
   -1.9480   -3.7970   -0.2220 S   0  0  1  0  0  0  0  0  0  0  0  0
   -1.7010   -3.4150   -1.6380 O   0  0  0  0  0  0  0  0  0  0  0  0
   -1.8360   -5.2250    0.0920 O   0  0  0  0  0  0  0  0  0  0  0  0
   -3.3040   -2.9770    0.5060 C   0  0  0  0  0  0  0  0  0  0  0  0
   -4.5840   -3.3260    0.7740 C   0  0  0  0  0  0  0  0  0  0  0  0
   -5.4560   -2.5160    1.5030 C   0  0  0  0  0  0  0  0  0  0  0  0
   -4.9680   -1.3190    1.9570 C   0  0  0  0  0  0  0  0  0  0  0  0
   -5.8690   -0.4260    2.7440 C   0  0  0  0  0  0  0  0  0  0  0  0
   -3.6760   -0.9450    1.6960 C   0  0  0  0  0  0  0  0  0  0  0  0
   -2.8270   -1.7610    0.9670 C   0  0  0  0  0  0  0  0  0  0  0  0
  1  2  1  0
  2  3  1  0
  3  4  2  3
  4  5  1  0
  4  6  1  0
  6  7  1  0
  6 16  2  3
  7  8  1  0
  8  9  2  0
  8 10  1  0
 10 11  1  0
 11 12  1  0
 12 13  1  1
 12 14  1  0
 12 15  1  0
 16 17  1  0
 16 27  1  0
 18 17  1  1
 18 19  2  0
 18 20  2  0
 18 21  1  0
 21 22  2  0
 21 27  1  0
 22 23  1  0
 23 24  2  0
 24 25  1  0
 24 26  1  0
 26 27  2  0
M  END
