
     RDKit          3D

 27 29  0  0  0  0  0  0  0  0999 V2000
   -6.3600   -1.1590   -2.3620 C   0  0  0  0  0  0  0  0  0  0  0  0
   -5.1240   -0.4140   -2.7440 C   0  0  0  0  0  0  0  0  0  0  0  0
   -4.3060   -0.0500   -1.6740 O   0  0  0  0  0  0  0  0  0  0  0  0
   -4.6870    0.7540   -0.6350 C   0  0  0  0  0  0  0  0  0  0  0  0
   -5.8600    1.2050   -0.6310 O   0  0  0  0  0  0  0  0  0  0  0  0
   -3.8170    1.1470    0.5110 C   0  0  1  0  0  0  0  0  0  0  0  0
   -3.8500    2.6380    0.6630 C   0  0  0  0  0  0  0  0  0  0  0  0
   -4.4530    0.4850    1.7470 C   0  0  0  0  0  0  0  0  0  0  0  0
   -4.6350   -0.9710    1.3930 C   0  0  0  0  0  0  0  0  0  0  0  0
   -3.3840   -1.6600    1.0070 C   0  0  0  0  0  0  0  0  0  0  0  0
   -2.3750   -0.8570    0.2800 C   0  0  0  0  0  0  0  0  0  0  0  0
   -2.5080    0.5810    0.4150 N   0  0  0  0  0  0  0  0  0  0  0  0
   -1.3550    1.3920    0.4480 C   0  0  0  0  0  0  0  0  0  0  0  0
   -1.3330    2.6370    0.5560 O   0  0  0  0  0  0  0  0  0  0  0  0
   -0.0140    0.7190    0.3440 C   0  0  0  0  0  0  0  0  0  0  0  0
    1.0740    1.7540    0.3520 C   0  0  0  0  0  0  0  0  0  0  0  0
    2.3940    1.0700    0.2490 C   0  0  0  0  0  0  0  0  0  0  0  0
    3.2170    1.3080   -0.7530 C   0  0  0  0  0  0  0  0  0  0  0  0
    4.5120    0.6820   -0.9300 C   0  0  0  0  0  0  0  0  0  0  0  0
    4.9840   -0.1170    0.2470 C   0  0  0  0  0  0  0  0  0  0  0  0
    6.1910   -0.5560    0.4210 C   0  0  0  0  0  0  0  0  0  0  0  0
    7.3400   -0.3230   -0.5680 C   0  0  0  0  0  0  0  0  0  0  0  0
    7.8660   -1.6500   -1.0660 C   0  0  0  0  0  0  0  0  0  0  0  0
    6.4910   -1.3070    1.6460 C   0  0  0  0  0  0  0  0  0  0  0  0
    4.8510   -1.5630    2.3540 S   0  0  0  0  0  0  0  0  0  0  0  0
    4.0160   -0.4180    1.2700 C   0  0  0  0  0  0  0  0  0  0  0  0
    2.8360    0.1560    1.2960 C   0  0  0  0  0  0  0  0  0  0  0  0
  1  2  1  0
  2  3  1  0
  3  4  1  0
  4  5  2  0
  4  6  1  0
  6  7  1  1
  6  8  1  0
  6 12  1  0
  8  9  1  0
  9 10  1  0
 10 11  1  0
 11 12  1  0
 12 13  1  0
 13 14  2  0
 13 15  1  0
 15 16  1  0
 16 17  1  0
 17 18  2  0
 17 27  1  0
 18 19  1  0
 19 20  1  0
 20 21  2  0
 20 26  1  0
 21 22  1  0
 21 24  1  0
 22 23  1  0
 24 25  1  0
 25 26  1  0
 26 27  2  0
M  END
