
     RDKit          3D

 26 28  0  0  0  0  0  0  0  0999 V2000
   -0.8030    0.6450   -2.9450 C   0  0  0  0  0  0  0  0  0  0  0  0
   -0.6140    0.2200   -1.5280 C   0  0  0  0  0  0  0  0  0  0  0  0
    0.6610   -0.0010   -1.0080 C   0  0  0  0  0  0  0  0  0  0  0  0
    0.9350   -0.3870    0.2660 C   0  0  0  0  0  0  0  0  0  0  0  0
    2.2300   -0.5670    0.8750 C   0  0  0  0  0  0  0  0  0  0  0  0
    3.4420   -0.2760    0.5770 C   0  0  0  0  0  0  0  0  0  0  0  0
    4.0520    0.3810   -0.5210 C   0  0  0  0  0  0  0  0  0  0  0  0
    5.2320    0.6940   -0.8980 C   0  0  0  0  0  0  0  0  0  0  0  0
    6.5430    0.5150   -0.3560 C   0  0  0  0  0  0  0  0  0  0  0  0
    7.6610    0.9640   -0.9880 C   0  0  0  0  0  0  0  0  0  0  0  0
    8.8320    0.6480   -0.2210 C   0  0  0  0  0  0  0  0  0  0  0  0
    8.5410    0.0180    0.8760 C   0  0  0  0  0  0  0  0  0  0  0  0
    7.0640   -0.1010    0.8480 C   0  0  0  0  0  0  0  0  0  0  0  0
    6.4510   -0.6620    1.7660 O   0  0  0  0  0  0  0  0  0  0  0  0
   -0.2100   -0.5640    1.0790 C   0  0  0  0  0  0  0  0  0  0  0  0
   -1.4840   -0.3550    0.5970 C   0  0  0  0  0  0  0  0  0  0  0  0
   -2.5510   -0.5670    1.5130 N   0  0  0  0  0  0  0  0  0  0  0  0
   -3.9540   -0.4080    1.2730 C   0  0  1  0  0  0  0  0  0  0  0  0
   -4.3000    0.9750    0.8660 C   0  0  0  0  0  0  0  0  0  0  0  0
   -5.3910    1.0800   -0.1800 C   0  0  0  0  0  0  0  0  0  0  0  0
   -6.6640   -0.1320    0.1080 S   0  0  2  0  0  0  0  0  0  0  0  0
   -7.3530   -0.3890   -1.1970 O   0  0  0  0  0  0  0  0  0  0  0  0
   -7.6720    0.3800    1.0900 O   0  0  0  0  0  0  0  0  0  0  0  0
   -5.9240   -1.6620    0.6700 C   0  0  0  0  0  0  0  0  0  0  0  0
   -4.4320   -1.4950    0.3370 C   0  0  0  0  0  0  0  0  0  0  0  0
   -1.6990    0.0370   -0.7040 C   0  0  0  0  0  0  0  0  0  0  0  0
  1  2  1  0
  2  3  2  0
  2 26  1  0
  3  4  1  0
  4  5  1  0
  4 15  2  0
  5  6  2  3
  6  7  1  0
  7  8  2  3
  8  9  1  0
  9 10  2  0
  9 13  1  0
 10 11  1  0
 11 12  2  0
 12 13  1  0
 13 14  2  0
 15 16  1  0
 16 17  1  0
 16 26  2  0
 18 17  1  6
 18 19  1  0
 18 25  1  0
 19 20  1  0
 21 20  1  6
 21 22  2  0
 21 23  2  0
 21 24  1  0
 24 25  1  0
M  END
