
     RDKit          3D

 27 28  0  0  0  0  0  0  0  0999 V2000
   -1.6550   -2.7400   -1.1500 C   0  0  0  0  0  0  0  0  0  0  0  0
   -1.7580   -1.5100   -0.5190 O   0  0  0  0  0  0  0  0  0  0  0  0
   -2.9730   -0.8560   -0.4010 C   0  0  0  0  0  0  0  0  0  0  0  0
   -3.9350   -1.5170   -0.9300 O   0  0  0  0  0  0  0  0  0  0  0  0
   -3.1790    0.4200    0.2510 C   0  0  0  0  0  0  0  0  0  0  0  0
   -4.4100    0.9060    0.3900 C   0  0  0  0  0  0  0  0  0  0  0  0
   -5.6700    0.3460   -0.0230 C   0  0  1  0  0  0  0  0  0  0  0  0
   -6.0130   -0.9360    0.7170 C   0  0  0  0  0  0  0  0  0  0  0  0
   -6.7870    1.3380    0.5220 C   0  0  0  0  0  0  0  0  0  0  0  0
   -5.9220    0.2740   -1.5050 C   0  0  0  0  0  0  0  0  0  0  0  0
   -2.0880    1.1680    0.8910 C   0  0  0  0  0  0  0  0  0  0  0  0
   -2.4710    2.1420    1.6880 O   0  0  0  0  0  0  0  0  0  0  0  0
   -0.7100    0.9900    0.7690 C   0  0  0  0  0  0  0  0  0  0  0  0
    0.1200    1.3990    1.8290 C   0  0  0  0  0  0  0  0  0  0  0  0
    1.4860    1.3830    1.7470 C   0  0  0  0  0  0  0  0  0  0  0  0
    2.1450    0.9600    0.6120 C   0  0  0  0  0  0  0  0  0  0  0  0
    3.5970    0.9400    0.5240 C   0  0  0  0  0  0  0  0  0  0  0  0
    4.4410    1.9030    1.5290 S   0  0  0  0  0  0  0  0  0  0  0  0
    4.2930    0.1220   -0.3950 N   0  0  0  0  0  0  0  0  0  0  0  0
    5.7110    0.1530   -0.4260 C   0  0  0  0  0  0  0  0  0  0  0  0
    6.4820   -0.7400    0.1590 C   0  0  0  0  0  0  0  0  0  0  0  0
    6.0500   -1.9360    0.9520 C   0  0  0  0  0  0  0  0  0  0  0  0
    7.8840   -0.3670   -0.0970 C   0  0  0  0  0  0  0  0  0  0  0  0
    7.8150    0.8600   -0.9070 C   0  0  0  0  0  0  0  0  0  0  0  0
    6.5430    1.1440   -1.0850 C   0  0  0  0  0  0  0  0  0  0  0  0
    1.3410    0.5610   -0.4280 C   0  0  0  0  0  0  0  0  0  0  0  0
   -0.0620    0.5750   -0.3560 C   0  0  0  0  0  0  0  0  0  0  0  0
  1  2  1  0
  2  3  1  0
  3  4  2  0
  3  5  1  0
  5  6  2  3
  5 11  1  0
  6  7  1  0
  7  8  1  1
  7  9  1  0
  7 10  1  0
 11 12  2  0
 11 13  1  0
 13 14  2  0
 13 27  1  0
 14 15  1  0
 15 16  2  0
 16 17  1  0
 16 26  1  0
 17 18  2  0
 17 19  1  0
 19 20  1  0
 20 21  2  0
 20 25  1  0
 21 22  1  0
 21 23  1  0
 23 24  1  0
 24 25  2  0
 26 27  2  0
M  END
