
     RDKit          3D

 27 28  0  0  0  0  0  0  0  0999 V2000
   -7.1890    1.3620    0.2790 C   0  0  0  0  0  0  0  0  0  0  0  0
   -6.4700    0.2640    0.1460 C   0  0  0  0  0  0  0  0  0  0  0  0
   -5.0940    0.5310    0.2230 C   0  0  0  0  0  0  0  0  0  0  0  0
   -4.0200   -0.3110   -0.0300 C   0  0  0  0  0  0  0  0  0  0  0  0
   -2.7520    0.2590   -0.0040 C   0  0  0  0  0  0  0  0  0  0  0  0
   -2.7310    1.4990    0.6980 O   0  0  0  0  0  0  0  0  0  0  0  0
   -1.4910    0.0810   -0.5170 N   0  0  0  0  0  0  0  0  0  0  0  0
   -0.7830    1.3600   -0.5240 C   0  0  0  0  0  0  0  0  0  0  0  0
   -1.5170    2.4310   -1.0770 C   0  0  0  0  0  0  0  0  0  0  0  0
   -1.2060    3.6780   -1.4480 C   0  0  0  0  0  0  0  0  0  0  0  0
    0.1170    3.9740   -1.2390 C   0  0  0  0  0  0  0  0  0  0  0  0
    0.9660    2.9700   -0.6340 C   0  0  0  0  0  0  0  0  0  0  0  0
    0.4500    1.6440   -0.3000 C   0  0  0  0  0  0  0  0  0  0  0  0
    1.6900    0.6580    0.1860 S   0  0  1  0  0  0  0  0  0  0  0  0
    2.7900    1.4690    0.6140 O   0  0  0  0  0  0  0  0  0  0  0  0
    1.2790   -0.4740    1.0850 O   0  0  0  0  0  0  0  0  0  0  0  0
    2.4640   -0.3650   -1.4950 C   0  0  0  0  0  0  0  0  0  0  0  0
    3.6360   -0.5800   -0.8240 C   0  0  0  0  0  0  0  0  0  0  0  0
    4.8050   -0.7720   -0.1680 C   0  0  0  0  0  0  0  0  0  0  0  0
    6.0660   -0.9630    0.5630 C   0  0  1  0  0  0  0  0  0  0  0  0
    6.2460   -0.5090    1.8720 C   0  0  0  0  0  0  0  0  0  0  0  0
    6.2550   -2.5070    0.6100 C   0  0  0  0  0  0  0  0  0  0  0  0
    7.2160   -0.5720   -0.5040 C   0  0  0  0  0  0  0  0  0  0  0  0
   -4.5270   -1.6500   -0.2330 C   0  0  0  0  0  0  0  0  0  0  0  0
   -3.4530   -2.8030   -0.1770 C   0  0  0  0  0  0  0  0  0  0  0  0
   -5.7820   -2.0220   -0.2510 C   0  0  0  0  0  0  0  0  0  0  0  0
   -6.9370   -1.0600   -0.0670 C   0  0  0  0  0  0  0  0  0  0  0  0
  1  2  2  0
  2  3  1  0
  2 27  1  0
  3  4  2  0
  4  5  1  0
  4 24  1  0
  5  6  2  0
  5  7  1  0
  7  8  1  0
  8  9  2  0
  8 13  1  0
  9 10  1  0
 10 11  2  0
 11 12  1  0
 12 13  2  0
 13 14  1  0
 14 15  2  0
 14 16  2  0
 14 17  1  6
 17 18  1  0
 18 19  3  0
 19 20  1  0
 20 21  1  1
 20 22  1  0
 20 23  1  0
 24 25  1  0
 24 26  2  0
 26 27  1  0
M  END
