
     RDKit          3D

 27 29  0  0  0  0  0  0  0  0999 V2000
   -4.3260    1.9980   -1.6790 C   0  0  0  0  0  0  0  0  0  0  0  0
   -3.5970    1.5510   -0.4450 C   0  0  0  0  0  0  0  0  0  0  0  0
   -3.4250    0.2580   -0.1740 C   0  0  0  0  0  0  0  0  0  0  0  0
   -3.9720   -0.6800   -1.1190 C   0  0  0  0  0  0  0  0  0  0  0  0
   -4.5750   -1.8140   -0.9070 C   0  0  0  0  0  0  0  0  0  0  0  0
   -4.9190   -2.5450    0.2930 C   0  0  0  0  0  0  0  0  0  0  0  0
   -4.1480   -2.0300    1.8130 S   0  0  0  0  0  0  0  0  0  0  0  0
   -2.4760   -1.4020    1.3920 C   0  0  0  0  0  0  0  0  0  0  0  0
   -2.6710    0.0520    1.0960 C   0  0  2  0  0  0  0  0  0  0  0  0
   -3.4130    0.6560    2.2680 C   0  0  0  0  0  0  0  0  0  0  0  0
   -1.3600    0.7180    1.0420 N   0  0  0  0  0  0  0  0  0  0  0  0
   -0.3890    0.3240    0.1040 C   0  0  0  0  0  0  0  0  0  0  0  0
   -0.7300   -0.6460   -0.6730 O   0  0  0  0  0  0  0  0  0  0  0  0
    0.9360    0.8800   -0.0770 C   0  0  0  0  0  0  0  0  0  0  0  0
    1.1760    2.2200    0.0120 C   0  0  0  0  0  0  0  0  0  0  0  0
    0.0360    3.1540    0.2710 C   0  0  0  0  0  0  0  0  0  0  0  0
    2.4000    2.7200   -0.1310 O   0  0  0  0  0  0  0  0  0  0  0  0
    3.4280    1.9720   -0.3640 C   0  0  0  0  0  0  0  0  0  0  0  0
    4.5880    2.4560   -0.5040 O   0  0  0  0  0  0  0  0  0  0  0  0
    3.2750    0.5910   -0.4720 C   0  0  0  0  0  0  0  0  0  0  0  0
    4.4440   -0.2260   -0.6920 C   0  0  0  0  0  0  0  0  0  0  0  0
    5.6890    0.1370   -0.3540 C   0  0  0  0  0  0  0  0  0  0  0  0
    6.6800   -0.9280   -0.7100 C   0  0  0  0  0  0  0  0  0  0  0  0
    5.7600   -2.1490   -0.7000 C   0  0  0  0  0  0  0  0  0  0  0  0
    4.5740   -1.4860   -1.4390 C   0  0  0  0  0  0  0  0  0  0  0  0
    2.0330    0.0220   -0.3270 C   0  0  0  0  0  0  0  0  0  0  0  0
    1.7540   -1.4250   -0.2750 C   0  0  0  0  0  0  0  0  0  0  0  0
  1  2  1  0
  2  3  2  3
  3  4  1  0
  3  9  1  0
  4  5  2  0
  5  6  1  0
  6  7  1  0
  7  8  1  0
  8  9  1  0
  9 10  1  1
  9 11  1  0
 11 12  1  0
 12 13  2  0
 12 14  1  0
 14 15  2  0
 14 26  1  0
 15 16  1  0
 15 17  1  0
 17 18  1  0
 18 19  2  0
 18 20  1  0
 20 21  1  0
 20 26  2  0
 21 22  2  0
 21 25  1  0
 22 23  1  0
 23 24  1  0
 24 25  1  0
 26 27  1  0
M  END
