
     RDKit          3D

 34 37  0  0  0  0  0  0  0  0999 V2000
   -9.3580    2.6820   -2.1370 C   0  0  0  0  0  0  0  0  0  0  0  0
   -9.8730    2.0210   -1.0120 O   0  0  0  0  0  0  0  0  0  0  0  0
   -9.2160    1.0190   -0.3380 C   0  0  0  0  0  0  0  0  0  0  0  0
   -7.9780    0.5730   -0.7180 C   0  0  0  0  0  0  0  0  0  0  0  0
   -7.3430   -0.4340   -0.0220 C   0  0  0  0  0  0  0  0  0  0  0  0
   -5.9890   -0.8770   -0.4890 C   0  0  0  0  0  0  0  0  0  0  0  0
   -4.9430   -0.0390    0.2130 C   0  0  0  0  0  0  0  0  0  0  0  0
   -3.6010   -0.4390   -0.2150 C   0  0  0  0  0  0  0  0  0  0  0  0
   -2.4060    0.1240    0.2290 C   0  0  0  0  0  0  0  0  0  0  0  0
   -1.4140   -0.5510   -0.4270 C   0  0  0  0  0  0  0  0  0  0  0  0
   -0.0100   -0.2790   -0.2570 N   0  0  0  0  0  0  0  0  0  0  0  0
    0.9690   -1.0120   -0.9640 C   0  0  0  0  0  0  0  0  0  0  0  0
    0.5760   -1.9310   -1.7610 O   0  0  0  0  0  0  0  0  0  0  0  0
    2.3730   -0.7410   -0.7970 C   0  0  0  0  0  0  0  0  0  0  0  0
    3.3490   -1.6360   -1.2020 C   0  0  0  0  0  0  0  0  0  0  0  0
    4.6730   -1.3500   -1.0400 C   0  0  0  0  0  0  0  0  0  0  0  0
    5.1260   -0.1760   -0.4730 C   0  0  0  0  0  0  0  0  0  0  0  0
    6.5010    0.0690   -0.3260 N   0  0  0  0  0  0  0  0  0  0  0  0
    7.4570   -0.9440   -0.7180 C   0  0  0  0  0  0  0  0  0  0  0  0
    8.8050   -0.6960   -0.0770 C   0  0  2  0  0  0  0  0  0  0  0  0
    8.6950   -1.1190    1.3860 C   0  0  0  0  0  0  0  0  0  0  0  0
    9.3040    0.6310   -0.2350 N   0  0  0  0  0  0  0  0  0  0  0  0
    8.2970    1.5560   -0.6610 C   0  0  2  0  0  0  0  0  0  0  0  0
    8.7520    2.9860   -0.5260 C   0  0  0  0  0  0  0  0  0  0  0  0
    7.0520    1.2960    0.2010 C   0  0  0  0  0  0  0  0  0  0  0  0
    4.1420    0.7060   -0.0740 C   0  0  0  0  0  0  0  0  0  0  0  0
    2.7810    0.4430   -0.2270 C   0  0  0  0  0  0  0  0  0  0  0  0
   -1.9510   -1.4670   -1.2210 N   0  0  0  0  0  0  0  0  0  0  0  0
   -3.2860   -1.4090   -1.1010 N   0  0  0  0  0  0  0  0  0  0  0  0
   -7.9710   -0.9940    1.0680 C   0  0  0  0  0  0  0  0  0  0  0  0
   -9.2300   -0.5620    1.4780 C   0  0  0  0  0  0  0  0  0  0  0  0
   -9.8500   -1.1280    2.5700 O   0  0  0  0  0  0  0  0  0  0  0  0
   -9.2330   -2.1620    3.3080 C   0  0  0  0  0  0  0  0  0  0  0  0
   -9.8210    0.4400    0.7580 C   0  0  0  0  0  0  0  0  0  0  0  0
  1  2  1  0
  2  3  1  0
  3  4  2  0
  3 34  1  0
  4  5  1  0
  5  6  1  0
  5 30  2  0
  6  7  1  0
  7  8  1  0
  8  9  2  0
  8 29  1  0
  9 10  1  0
 10 11  1  0
 10 28  2  0
 11 12  1  0
 12 13  2  0
 12 14  1  0
 14 15  2  0
 14 27  1  0
 15 16  1  0
 16 17  2  0
 17 18  1  0
 17 26  1  0
 18 19  1  0
 18 25  1  0
 19 20  1  0
 20 21  1  1
 20 22  1  0
 22 23  1  0
 23 24  1  1
 23 25  1  0
 26 27  2  0
 28 29  1  0
 30 31  1  0
 31 32  1  0
 31 34  2  0
 32 33  1  0
M  CHG  1  22   1
M  END
