
     RDKit          3D

 35 39  0  0  0  0  0  0  0  0999 V2000
   10.3950    1.5510   -1.3280 C   0  0  0  0  0  0  0  0  0  0  0  0
    9.4350    0.5630   -0.7500 C   0  0  0  0  0  0  0  0  0  0  0  0
    9.7490   -0.1280    0.3560 N   0  0  0  0  0  0  0  0  0  0  0  0
    8.9410   -1.0310    0.9380 C   0  0  0  0  0  0  0  0  0  0  0  0
    9.3620   -1.9200    2.3750 Cl  0  0  0  0  0  0  0  0  0  0  0  0
    7.6930   -1.2690    0.3540 C   0  0  0  0  0  0  0  0  0  0  0  0
    6.6220   -2.0940    0.6440 C   0  0  0  0  0  0  0  0  0  0  0  0
    6.6030   -3.0150    1.8140 C   0  0  0  0  0  0  0  0  0  0  0  0
    5.6960   -1.8690   -0.3030 N   0  0  0  0  0  0  0  0  0  0  0  0
    6.1020   -0.9720   -1.1610 N   0  0  0  0  0  0  0  0  0  0  0  0
    5.4530   -0.4220   -2.3300 C   0  0  0  0  0  0  0  0  0  0  0  0
    4.6260    0.7820   -2.0670 C   0  0  0  0  0  0  0  0  0  0  0  0
    3.4790    0.5520   -1.0920 C   0  0  0  0  0  0  0  0  0  0  0  0
    2.5360   -0.4960   -1.6300 C   0  0  0  0  0  0  0  0  0  0  0  0
    1.4900   -0.8470   -0.9220 O   0  0  0  0  0  0  0  0  0  0  0  0
    0.4650   -0.1780   -0.4800 C   0  0  0  0  0  0  0  0  0  0  0  0
    0.5100    0.9240    0.4830 C   0  0  0  0  0  0  0  0  0  0  0  0
   -0.8190    1.4410    0.7630 N   0  0  0  0  0  0  0  0  0  0  0  0
   -1.6820    0.5650    1.4640 C   0  0  0  0  0  0  0  0  0  0  0  0
   -3.0550    0.4270    0.8380 C   0  0  0  0  0  0  0  0  0  0  0  0
   -3.6360    1.6760    0.4930 N   0  0  0  0  0  0  0  0  0  0  0  0
   -4.7970    2.0780    1.1960 C   0  0  0  0  0  0  0  0  0  0  0  0
   -5.9040    1.1400    0.9800 C   0  0  0  0  0  0  0  0  0  0  0  0
   -6.7630    1.1750   -0.0680 N   0  0  0  0  0  0  0  0  0  0  0  0
   -7.6560    0.1900    0.0350 C   0  0  0  0  0  0  0  0  0  0  0  0
   -7.3490   -0.4950    1.1920 C   0  0  0  0  0  0  0  0  0  0  0  0
   -6.2730    0.1240    1.7320 N   0  0  0  0  0  0  0  0  0  0  0  0
   -8.1110   -1.6700    1.6630 C   0  0  0  0  0  0  0  0  0  0  0  0
   -9.5070   -1.5500    1.0670 C   0  0  0  0  0  0  0  0  0  0  0  0
   -9.3350   -1.5330   -0.4450 C   0  0  0  0  0  0  0  0  0  0  0  0
   -8.7850   -0.1830   -0.8450 C   0  0  0  0  0  0  0  0  0  0  0  0
   -2.7200    2.7130    0.1390 C   0  0  0  0  0  0  0  0  0  0  0  0
   -1.4040    2.0850   -0.3600 C   0  0  0  0  0  0  0  0  0  0  0  0
    7.3470   -0.5770   -0.7780 C   0  0  0  0  0  0  0  0  0  0  0  0
    8.2180    0.3270   -1.3140 N   0  0  0  0  0  0  0  0  0  0  0  0
  1  2  1  0
  2  3  2  0
  2 35  1  0
  3  4  1  0
  4  5  1  0
  4  6  2  0
  6  7  1  0
  6 34  1  0
  7  8  1  0
  7  9  2  0
  9 10  1  0
 10 11  1  0
 10 34  1  0
 11 12  1  0
 12 13  1  0
 13 14  1  0
 14 15  1  0
 15 16  1  0
 16 17  1  0
 17 18  1  0
 18 19  1  0
 18 33  1  0
 19 20  1  0
 20 21  1  0
 21 22  1  0
 21 32  1  0
 22 23  1  0
 23 24  1  0
 23 27  2  0
 24 25  1  0
 25 26  2  0
 25 31  1  0
 26 27  1  0
 26 28  1  0
 28 29  1  0
 29 30  1  0
 30 31  1  0
 32 33  1  0
 34 35  2  0
M  CHG  1  27   1
M  END
