
     RDKit          3D

 35 39  0  0  0  0  0  0  0  0999 V2000
   11.1650    0.9760   -0.8830 C   0  0  0  0  0  0  0  0  0  0  0  0
    9.9520    0.2660   -0.3880 C   0  0  0  0  0  0  0  0  0  0  0  0
    8.6820    0.5880   -0.6850 N   0  0  0  0  0  0  0  0  0  0  0  0
    7.8480   -0.2620   -0.0700 C   0  0  0  0  0  0  0  0  0  0  0  0
    6.3970   -0.3130   -0.0900 C   0  0  0  0  0  0  0  0  0  0  0  0
    5.7100   -1.2720    0.6240 C   0  0  0  0  0  0  0  0  0  0  0  0
    4.3190   -1.3240    0.6070 C   0  0  0  0  0  0  0  0  0  0  0  0
    3.5980   -0.4140   -0.1270 C   0  0  0  0  0  0  0  0  0  0  0  0
    2.1950   -0.4470   -0.1520 N   0  0  0  0  0  0  0  0  0  0  0  0
    1.3470   -1.3570    0.5830 C   0  0  0  0  0  0  0  0  0  0  0  0
    0.6280   -0.4800    1.5740 C   0  0  0  0  0  0  0  0  0  0  0  0
   -0.2190    0.5960    1.0200 C   0  0  2  0  0  0  0  0  0  0  0  0
   -1.6080    0.3650    0.8040 N   0  0  2  0  0  0  0  0  0  0  0  0
   -2.1230   -0.9460    0.9520 C   0  0  0  0  0  0  0  0  0  0  0  0
   -2.1320   -1.8680   -0.2030 C   0  0  0  0  0  0  0  0  0  0  0  0
   -1.7250   -1.7560   -1.4530 N   0  0  0  0  0  0  0  0  0  0  0  0
   -1.9460   -2.8640   -2.1140 N   0  0  0  0  0  0  0  0  0  0  0  0
   -2.5120   -3.7440   -1.3030 C   0  0  0  0  0  0  0  0  0  0  0  0
   -2.6530   -3.1600   -0.0750 C   0  0  0  0  0  0  0  0  0  0  0  0
   -3.2400   -3.7880    1.1370 C   0  0  0  0  0  0  0  0  0  0  0  0
   -1.8940   -4.2310    2.2120 Cl  0  0  0  0  0  0  0  0  0  0  0  0
   -2.2200    1.1790   -0.2020 C   0  0  0  0  0  0  0  0  0  0  0  0
   -3.6990    1.0690   -0.3070 C   0  0  2  0  0  0  0  0  0  0  0  0
   -4.1540    2.0000   -1.4550 C   0  0  0  0  0  0  0  0  0  0  0  0
   -5.5630    2.4600   -1.2520 C   0  0  0  0  0  0  0  0  0  0  0  0
   -6.3110    1.3210   -0.7120 N   0  0  0  0  0  0  0  0  0  0  0  0
   -7.7370    1.6400   -0.7280 C   0  0  0  0  0  0  0  0  0  0  0  0
   -5.9180    1.2180    0.6770 C   0  0  0  0  0  0  0  0  0  0  0  0
   -4.4620    1.5400    0.8900 C   0  0  0  0  0  0  0  0  0  0  0  0
    0.5350    1.2850   -0.0570 C   0  0  0  0  0  0  0  0  0  0  0  0
    1.3960    0.4800   -0.9610 C   0  0  0  0  0  0  0  0  0  0  0  0
    4.2990    0.5290   -0.8270 N   0  0  0  0  0  0  0  0  0  0  0  0
    5.6410    0.5870   -0.8170 C   0  0  0  0  0  0  0  0  0  0  0  0
    8.6460   -1.1080    0.6090 N   0  0  0  0  0  0  0  0  0  0  0  0
    9.8980   -0.7730    0.4030 O   0  0  0  0  0  0  0  0  0  0  0  0
  1  2  1  0
  2  3  2  0
  2 35  1  0
  3  4  1  0
  4  5  1  0
  4 34  2  0
  5  6  2  0
  5 33  1  0
  6  7  1  0
  7  8  2  0
  8  9  1  0
  8 32  1  0
  9 10  1  0
  9 31  1  0
 10 11  1  0
 12 11  1  6
 12 13  1  0
 12 30  1  0
 13 14  1  6
 13 22  1  0
 14 15  1  0
 15 16  1  0
 15 19  2  0
 16 17  1  0
 17 18  2  0
 18 19  1  0
 19 20  1  0
 20 21  1  0
 23 22  1  1
 23 24  1  0
 23 29  1  0
 24 25  1  0
 25 26  1  0
 26 27  1  0
 26 28  1  0
 28 29  1  0
 30 31  1  0
 32 33  2  0
 34 35  1  0
M  CHG  1  13   1
M  END
