
     RDKit          3D

 34 39  0  0  0  0  0  0  0  0999 V2000
   -4.0110   -2.0480    2.8860 C   0  0  0  0  0  0  0  0  0  0  0  0
   -3.2580   -1.9800    1.6680 N   0  0  2  0  0  0  0  0  0  0  0  0
   -1.8750   -1.6510    1.7970 C   0  0  0  0  0  0  0  0  0  0  0  0
   -1.5190   -0.2640    2.0870 C   0  0  0  0  0  0  0  0  0  0  0  0
   -2.3850    0.8140    2.2490 C   0  0  0  0  0  0  0  0  0  0  0  0
   -1.5830    1.8870    2.4770 N   0  0  0  0  0  0  0  0  0  0  0  0
   -0.3250    1.5220    2.4620 N   0  0  0  0  0  0  0  0  0  0  0  0
   -0.2210    0.2010    2.2260 C   0  0  0  0  0  0  0  0  0  0  0  0
    1.0190   -0.5460    2.1050 C   0  0  0  0  0  0  0  0  0  0  0  0
    1.2860   -1.6810    2.8270 C   0  0  0  0  0  0  0  0  0  0  0  0
    2.4830   -2.3340    2.6230 C   0  0  0  0  0  0  0  0  0  0  0  0
    3.4180   -1.8870    1.7210 C   0  0  0  0  0  0  0  0  0  0  0  0
    3.1850   -0.7510    0.9790 C   0  0  0  0  0  0  0  0  0  0  0  0
    4.1220   -0.2220    0.0130 C   0  0  0  0  0  0  0  0  0  0  0  0
    3.6440    0.4440   -1.0880 C   0  0  0  0  0  0  0  0  0  0  0  0
    4.5050    0.9500   -2.0050 C   0  0  0  0  0  0  0  0  0  0  0  0
    4.0260    1.6040   -3.0870 F   0  0  0  0  0  0  0  0  0  0  0  0
    5.9130    0.8350   -1.9020 C   0  0  0  0  0  0  0  0  0  0  0  0
    6.7640    1.3970   -2.9380 C   0  0  2  0  0  0  0  0  0  0  0  0
    8.1960    1.6060   -2.9380 C   0  0  0  0  0  0  0  0  0  0  0  0
    7.2220    2.7920   -2.9980 C   0  0  0  0  0  0  0  0  0  0  0  0
    6.3580    0.1700   -0.8010 C   0  0  0  0  0  0  0  0  0  0  0  0
    8.0570   -0.0640   -0.5540 Cl  0  0  0  0  0  0  0  0  0  0  0  0
    5.4770   -0.3600    0.1580 C   0  0  0  0  0  0  0  0  0  0  0  0
    1.9910   -0.1140    1.1940 C   0  0  0  0  0  0  0  0  0  0  0  0
   -3.9400   -1.2780    0.6670 C   0  0  0  0  0  0  0  0  0  0  0  0
   -3.4820   -0.9890   -0.5990 C   0  0  0  0  0  0  0  0  0  0  0  0
   -4.4630   -0.3140   -1.2770 C   0  0  0  0  0  0  0  0  0  0  0  0
   -5.5050   -0.1910   -0.4410 N   0  0  0  0  0  0  0  0  0  0  0  0
   -5.2130   -0.7630    0.7360 C   0  0  0  0  0  0  0  0  0  0  0  0
   -6.6820    0.4940   -0.9240 C   0  0  0  0  0  0  0  0  0  0  0  0
   -6.2900    1.7480   -1.6720 C   0  0  0  0  0  0  0  0  0  0  0  0
   -5.1090    1.6150   -2.4650 N   0  0  0  0  0  0  0  0  0  0  0  0
   -4.6310    0.2780   -2.6410 C   0  0  0  0  0  0  0  0  0  0  0  0
  2  1  1  1
  2  3  1  0
  2 26  1  0
  3  4  1  0
  4  5  2  0
  4  8  1  0
  5  6  1  0
  6  7  1  0
  7  8  2  0
  8  9  1  0
  9 10  2  0
  9 25  1  0
 10 11  1  0
 11 12  2  0
 12 13  1  0
 13 14  1  0
 13 25  2  0
 14 15  2  0
 14 24  1  0
 15 16  1  0
 16 17  1  0
 16 18  2  0
 19 18  1  1
 18 22  1  0
 19 20  1  0
 19 21  1  0
 20 21  1  0
 22 23  1  0
 22 24  2  0
 26 27  1  0
 26 30  2  0
 27 28  2  0
 28 29  1  0
 28 34  1  0
 29 30  1  0
 29 31  1  0
 31 32  1  0
 32 33  1  0
 33 34  1  0
M  CHG  1   2   1
M  END
