
     RDKit          3D

 32 34  0  0  0  0  0  0  0  0999 V2000
    2.2310   -0.3090   -1.4960 C   0  0  0  0  0  0  0  0  0  0  0  0
    2.6820    0.5650   -0.3970 C   0  0  1  0  0  0  0  0  0  0  0  0
    1.8450    0.8280    0.7580 C   0  0  0  0  0  0  0  0  0  0  0  0
    0.5700    1.5060    0.8100 C   0  0  0  0  0  0  0  0  0  0  0  0
   -0.5880    1.1850    0.1100 N   0  0  0  0  0  0  0  0  0  0  0  0
   -0.7810    1.3250   -1.2870 C   0  0  0  0  0  0  0  0  0  0  0  0
    0.1060    1.7740   -2.0080 O   0  0  0  0  0  0  0  0  0  0  0  0
   -2.0860    0.9120   -1.8690 C   0  0  2  0  0  0  0  0  0  0  0  0
   -1.8970    0.8690   -3.2730 O   0  0  0  0  0  0  0  0  0  0  0  0
   -3.1790    1.9330   -1.6450 C   0  0  0  0  0  0  0  0  0  0  0  0
   -3.4480    2.2180   -0.2780 N   0  0  0  0  0  0  0  0  0  0  0  0
   -2.8550    3.2110    0.4180 C   0  0  0  0  0  0  0  0  0  0  0  0
   -3.3110    3.2540    1.6790 N   0  0  0  0  0  0  0  0  0  0  0  0
   -4.2170    2.2710    1.8040 C   0  0  0  0  0  0  0  0  0  0  0  0
   -4.2940    1.6320    0.5750 C   0  0  0  0  0  0  0  0  0  0  0  0
   -5.1440    0.5420    0.3030 N   0  0  0  0  0  0  0  0  0  0  0  0
   -6.2500    0.7470   -0.4280 C   0  0  0  0  0  0  0  0  0  0  0  0
   -7.0680   -0.2660   -0.6980 N   0  0  0  0  0  0  0  0  0  0  0  0
   -6.8000   -1.5030   -0.2440 C   0  0  0  0  0  0  0  0  0  0  0  0
   -7.4220   -2.6870   -0.3530 N   0  0  0  0  0  0  0  0  0  0  0  0
   -6.7060   -3.6340    0.3100 C   0  0  0  0  0  0  0  0  0  0  0  0
   -5.6150   -2.9930    0.8340 C   0  0  0  0  0  0  0  0  0  0  0  0
   -5.6750   -1.6870    0.4930 N   0  0  0  0  0  0  0  0  0  0  0  0
   -4.8450   -0.6780    0.7710 C   0  0  0  0  0  0  0  0  0  0  0  0
   -3.8040   -0.8470    1.4530 O   0  0  0  0  0  0  0  0  0  0  0  0
    3.9300   -0.0380    0.1430 N   0  0  0  0  0  0  0  0  0  0  0  0
    4.9860   -0.0510   -0.8160 C   0  0  0  0  0  0  0  0  0  0  0  0
    6.2260   -0.6230   -0.1980 C   0  0  0  0  0  0  0  0  0  0  0  0
    6.0200   -2.0230    0.2760 C   0  0  0  0  0  0  0  0  0  0  0  0
    7.5800   -2.7100    1.0330 P   0  0  0  0  0  0  0  0  0  0  0  0
    8.3610   -3.7850   -0.0920 O   0  0  0  0  0  0  0  0  0  0  0  0
    8.6100   -1.3690    1.4440 O   0  0  0  0  0  0  0  0  0  0  0  0
  2  1  1  6
  2  3  1  0
  2 26  1  0
  3  4  1  0
  4  5  1  0
  5  6  1  0
  6  7  2  0
  6  8  1  0
  8  9  1  6
  8 10  1  0
 10 11  1  0
 11 12  1  0
 11 15  1  0
 12 13  2  0
 13 14  1  0
 14 15  2  0
 15 16  1  0
 16 17  1  0
 16 24  1  0
 17 18  2  0
 18 19  1  0
 19 20  2  0
 19 23  1  0
 20 21  1  0
 21 22  2  0
 22 23  1  0
 23 24  1  0
 24 25  2  0
 26 27  1  0
 27 28  1  0
 28 29  1  0
 29 30  1  0
 30 31  1  0
 30 32  1  0
M  END
