
     RDKit          3D

 33 34  0  0  0  0  0  0  0  0999 V2000
    0.4740    2.4920    1.6080 N   0  0  0  0  0  0  0  0  0  0  0  0
    0.6270    1.2540    1.9400 C   0  0  0  0  0  0  0  0  0  0  0  0
   -0.4310    0.3620    1.5800 N   0  0  0  0  0  0  0  0  0  0  0  0
   -1.6160    0.7480    0.8770 C   0  0  2  0  0  0  0  0  0  0  0  0
   -2.4890    1.7470    1.5780 C   0  0  0  0  0  0  0  0  0  0  0  0
   -3.6660    2.1210    0.7200 C   0  0  0  0  0  0  0  0  0  0  0  0
   -3.0710    2.9040   -0.8910 P   0  0  0  0  0  0  0  0  0  0  0  0
   -1.6290    3.8430   -0.5550 O   0  0  0  0  0  0  0  0  0  0  0  0
   -4.2890    3.9510   -1.5330 O   0  0  0  0  0  0  0  0  0  0  0  0
   -2.2950   -0.4770    0.5240 N   0  0  0  0  0  0  0  0  0  0  0  0
   -3.3640   -1.0800    1.1860 C   0  0  0  0  0  0  0  0  0  0  0  0
   -3.8040   -0.5350    2.2160 O   0  0  0  0  0  0  0  0  0  0  0  0
   -3.9810   -2.3070    0.7270 C   0  0  0  0  0  0  0  0  0  0  0  0
   -3.6230   -2.9580   -0.4340 C   0  0  0  0  0  0  0  0  0  0  0  0
   -4.2840   -4.0960   -0.7370 N   0  0  0  0  0  0  0  0  0  0  0  0
   -5.2480   -4.6300    0.0030 C   0  0  0  0  0  0  0  0  0  0  0  0
   -5.8720   -5.6840   -0.2610 O   0  0  0  0  0  0  0  0  0  0  0  0
   -5.5920   -3.9890    1.1380 N   0  0  0  0  0  0  0  0  0  0  0  0
   -4.9810   -2.8580    1.4980 C   0  0  0  0  0  0  0  0  0  0  0  0
    1.7600    0.8350    2.6640 N   0  0  0  0  0  0  0  0  0  0  0  0
    1.6880    0.9110    4.1270 C   0  0  0  0  0  0  0  0  0  0  0  0
    2.6620    0.5520    4.8560 N   0  0  0  0  0  0  0  0  0  0  0  0
    3.8410    0.0710    4.3300 N   0  0  0  0  0  0  0  0  0  0  0  0
    4.0070   -0.0350    3.0920 C   0  0  0  0  0  0  0  0  0  0  0  0
    2.9430    0.3510    2.1140 C   0  0  0  0  0  0  0  0  0  0  0  0
    3.2120    0.2040    0.8410 C   0  0  0  0  0  0  0  0  0  0  0  0
    2.3840    0.4940   -0.2790 C   0  0  0  0  0  0  0  0  0  0  0  0
    2.8250    0.2800   -1.5140 C   0  0  0  0  0  0  0  0  0  0  0  0
    4.1270   -0.2410   -1.8360 C   0  0  0  0  0  0  0  0  0  0  0  0
    4.4380   -0.4040   -3.1270 C   0  0  0  0  0  0  0  0  0  0  0  0
    5.7310   -0.9250   -3.5290 C   0  0  0  0  0  0  0  0  0  0  0  0
    6.0100   -1.0730   -4.7940 C   0  0  0  0  0  0  0  0  0  0  0  0
    7.2540   -1.5750   -5.2050 O   0  0  0  0  0  0  0  0  0  0  0  0
  1  2  2  0
  2  3  1  0
  2 20  1  0
  3  4  1  0
  4  5  1  1
  4 10  1  0
  5  6  1  0
  6  7  1  0
  7  8  1  0
  7  9  1  0
 10 11  1  0
 11 12  2  0
 11 13  1  0
 13 14  1  0
 13 19  2  0
 14 15  2  0
 15 16  1  0
 16 17  2  0
 16 18  1  0
 18 19  1  0
 20 21  1  0
 20 25  1  0
 21 22  2  0
 22 23  1  0
 23 24  2  0
 24 25  1  0
 25 26  2  3
 26 27  1  0
 27 28  2  3
 28 29  1  0
 29 30  2  3
 30 31  1  0
 31 32  2  3
 32 33  1  0
M  END
