
     RDKit          3D

 33 34  0  0  0  0  0  0  0  0999 V2000
    6.1510   -1.9220    1.4260 C   0  0  0  0  0  0  0  0  0  0  0  0
    5.1050   -1.1540    1.6990 C   0  0  0  0  0  0  0  0  0  0  0  0
    3.8780   -1.3860    1.0180 N   0  0  0  0  0  0  0  0  0  0  0  0
    3.3820   -2.6740    0.8650 N   0  0  0  0  0  0  0  0  0  0  0  0
    2.2990   -2.9620    0.2750 C   0  0  0  0  0  0  0  0  0  0  0  0
    1.8420   -4.3160    0.1540 N   0  0  0  0  0  0  0  0  0  0  0  0
    1.8560   -5.0670    1.1840 C   0  0  0  0  0  0  0  0  0  0  0  0
    2.3120   -4.5730    2.4260 N   0  0  0  0  0  0  0  0  0  0  0  0
    1.4110   -1.9180   -0.3360 C   0  0  0  0  0  0  0  0  0  0  0  0
    0.4720   -2.2740   -1.1410 C   0  0  0  0  0  0  0  0  0  0  0  0
    0.4530   -3.7330   -1.4400 N   0  0  0  0  0  0  0  0  0  0  0  0
   -0.4030   -4.3150   -2.1380 C   0  0  0  0  0  0  0  0  0  0  0  0
   -1.5040   -3.5520   -2.7390 C   0  0  0  0  0  0  0  0  0  0  0  0
   -1.5850   -2.2440   -2.5250 C   0  0  0  0  0  0  0  0  0  0  0  0
   -0.5850   -1.6160   -1.7040 N   0  0  0  0  0  0  0  0  0  0  0  0
   -1.0560   -0.3290   -1.1710 C   0  0  0  0  0  0  0  0  0  0  0  0
   -2.3170   -0.7500   -0.2870 C   0  0  2  0  0  0  0  0  0  0  0  0
   -3.2630   -1.3590   -1.0540 O   0  0  0  0  0  0  0  0  0  0  0  0
   -2.8980    0.5680    0.3020 C   0  0  0  0  0  0  0  0  0  0  0  0
   -3.2070    1.3340   -0.7450 O   0  0  0  0  0  0  0  0  0  0  0  0
   -3.7100    2.5580   -0.7210 C   0  0  0  0  0  0  0  0  0  0  0  0
   -5.0500    2.8860   -0.2100 C   0  0  0  0  0  0  0  0  0  0  0  0
   -5.4020    2.6120    1.2050 C   0  0  0  0  0  0  0  0  0  0  0  0
   -6.8520    3.1430    1.4440 C   0  0  0  0  0  0  0  0  0  0  0  0
    1.9760   -0.5870   -0.1660 C   0  0  0  0  0  0  0  0  0  0  0  0
    1.5640    0.4940   -0.9960 N   0  0  0  0  0  0  0  0  0  0  0  0
    1.5670    1.8460   -0.5900 C   0  0  0  0  0  0  0  0  0  0  0  0
    2.9440    2.3910   -0.4500 C   0  0  0  0  0  0  0  0  0  0  0  0
    2.9260    3.7380   -0.0530 O   0  0  0  0  0  0  0  0  0  0  0  0
    4.5240    4.3660    0.1060 P   0  0  0  0  0  0  0  0  0  0  0  0
    5.7490    3.1900   -0.1530 O   0  0  0  0  0  0  0  0  0  0  0  0
    4.7560    5.3200    1.5120 O   0  0  0  0  0  0  0  0  0  0  0  0
    3.1200   -0.3710    0.4730 N   0  0  0  0  0  0  0  0  0  0  0  0
  1  2  2  0
  2  3  1  0
  3  4  1  0
  3 33  1  0
  4  5  2  0
  5  6  1  0
  5  9  1  0
  6  7  2  3
  7  8  1  0
  9 10  2  3
  9 25  1  0
 10 11  1  0
 10 15  1  0
 11 12  2  0
 12 13  1  0
 13 14  2  0
 14 15  1  0
 15 16  1  0
 16 17  1  0
 17 18  1  6
 17 19  1  0
 19 20  1  0
 20 21  1  0
 21 22  1  0
 22 23  1  0
 23 24  1  0
 25 26  1  0
 25 33  2  0
 26 27  1  0
 27 28  1  0
 28 29  1  0
 29 30  1  0
 30 31  1  0
 30 32  1  0
M  END
