
     RDKit          3D

 33 34  0  0  0  0  0  0  0  0999 V2000
   -6.8290   -1.1810    2.2390 C   0  0  0  0  0  0  0  0  0  0  0  0
   -6.1640   -0.3010    1.2110 C   0  0  0  0  0  0  0  0  0  0  0  0
   -4.9270    0.1530    1.7040 O   0  0  0  0  0  0  0  0  0  0  0  0
   -4.1550    1.1630    0.5270 P   0  0  0  0  0  0  0  0  0  0  0  0
   -5.3010    2.1710   -0.2500 O   0  0  0  0  0  0  0  0  0  0  0  0
   -4.6900    3.1060   -1.0650 C   0  0  0  0  0  0  0  0  0  0  0  0
   -5.7540    3.9750   -1.7270 C   0  0  0  0  0  0  0  0  0  0  0  0
   -3.3290    0.2210   -0.6730 O   0  0  0  0  0  0  0  0  0  0  0  0
   -2.8070   -0.9390   -0.1480 C   0  0  0  0  0  0  0  0  0  0  0  0
   -2.0730   -1.8100   -1.1080 C   0  0  0  0  0  0  0  0  0  0  0  0
   -0.9490   -1.2000   -1.7260 N   0  0  0  0  0  0  0  0  0  0  0  0
    0.2290   -0.8460   -0.9620 C   0  0  0  0  0  0  0  0  0  0  0  0
    0.6490   -1.7050   -0.1210 N   0  0  0  0  0  0  0  0  0  0  0  0
    1.8280   -1.4450    0.6910 C   0  0  0  0  0  0  0  0  0  0  0  0
    2.1200   -2.4010    1.5480 C   0  0  0  0  0  0  0  0  0  0  0  0
    3.2090   -2.4540    2.4840 C   0  0  0  0  0  0  0  0  0  0  0  0
    4.1240   -1.6190    2.7040 N   0  0  0  0  0  0  0  0  0  0  0  0
    5.1330   -1.7830    3.6440 N   0  0  0  0  0  0  0  0  0  0  0  0
    2.5730   -0.2030    0.4970 C   0  0  1  0  0  0  0  0  0  0  0  0
    2.4740    0.5770    1.8250 C   0  0  0  0  0  0  0  0  0  0  0  0
    4.0160   -0.3890    0.1680 C   0  0  0  0  0  0  0  0  0  0  0  0
    4.9030    0.3920    0.6010 O   0  0  0  0  0  0  0  0  0  0  0  0
    4.4290   -1.4580   -0.6540 N   0  0  0  0  0  0  0  0  0  0  0  0
    5.7500   -1.7680   -1.0650 C   0  0  0  0  0  0  0  0  0  0  0  0
    6.4850   -0.7650   -1.8700 C   0  0  0  0  0  0  0  0  0  0  0  0
    6.6680    0.4630   -1.2510 O   0  0  0  0  0  0  0  0  0  0  0  0
    1.9640    0.6760   -0.5090 C   0  0  0  0  0  0  0  0  0  0  0  0
    0.8680    0.4240   -1.2170 C   0  0  0  0  0  0  0  0  0  0  0  0
    0.3940    1.4100   -2.2050 C   0  0  0  0  0  0  0  0  0  0  0  0
    1.1470    2.4670   -2.6420 N   0  0  0  0  0  0  0  0  0  0  0  0
    0.4570    3.2420   -3.4760 C   0  0  0  0  0  0  0  0  0  0  0  0
   -0.7530    2.6780   -3.5740 N   0  0  0  0  0  0  0  0  0  0  0  0
   -0.7840    1.5670   -2.8000 N   0  0  0  0  0  0  0  0  0  0  0  0
  1  2  1  0
  2  3  1  0
  3  4  1  0
  4  5  1  0
  4  8  1  0
  5  6  1  0
  6  7  1  0
  8  9  1  0
  9 10  1  0
 10 11  1  0
 11 12  1  0
 12 13  2  0
 12 28  1  0
 13 14  1  0
 14 15  2  3
 14 19  1  0
 15 16  1  0
 16 17  2  3
 17 18  1  0
 19 20  1  1
 19 21  1  0
 19 27  1  0
 21 22  2  0
 21 23  1  0
 23 24  1  0
 24 25  1  0
 25 26  1  0
 27 28  2  0
 28 29  1  0
 29 30  2  0
 29 33  1  0
 30 31  1  0
 31 32  2  0
 32 33  1  0
M  END
