
     RDKit          3D

 33 34  0  0  0  0  0  0  0  0999 V2000
    7.7710    2.1840   -0.6530 C   0  0  0  0  0  0  0  0  0  0  0  0
    6.5960    2.4300   -1.5470 C   0  0  0  0  0  0  0  0  0  0  0  0
    5.3750    1.6940   -1.0030 C   0  0  0  0  0  0  0  0  0  0  0  0
    4.1770    1.9310   -1.8840 C   0  0  0  0  0  0  0  0  0  0  0  0
    2.9490    1.2340   -1.3990 C   0  0  0  0  0  0  0  0  0  0  0  0
    2.5570    1.6190   -0.1380 O   0  0  0  0  0  0  0  0  0  0  0  0
    1.4270    1.0270    0.3400 C   0  0  0  0  0  0  0  0  0  0  0  0
    1.4890   -0.4820    0.4620 C   0  0  0  0  0  0  0  0  0  0  0  0
    0.1740   -1.0100    0.9910 C   0  0  2  0  0  0  0  0  0  0  0  0
    0.2060   -2.5210    1.1350 C   0  0  0  0  0  0  0  0  0  0  0  0
    1.0310   -3.0560    2.1230 N   0  0  0  0  0  0  0  0  0  0  0  0
    1.5540   -2.2950    3.1810 C   0  0  0  0  0  0  0  0  0  0  0  0
    1.3470   -1.1070    3.3610 O   0  0  0  0  0  0  0  0  0  0  0  0
   -0.3250   -3.2880    0.1750 C   0  0  0  0  0  0  0  0  0  0  0  0
   -0.9190   -2.7090   -1.0410 C   0  0  0  0  0  0  0  0  0  0  0  0
   -1.4930   -3.4710   -1.9040 N   0  0  0  0  0  0  0  0  0  0  0  0
   -1.5880   -4.8750   -1.7450 C   0  0  0  0  0  0  0  0  0  0  0  0
   -1.0880   -5.4150   -0.7030 N   0  0  0  0  0  0  0  0  0  0  0  0
   -0.4240   -4.6880    0.3380 N   0  0  0  0  0  0  0  0  0  0  0  0
   -0.0310   -5.3940    1.5160 C   0  0  0  0  0  0  0  0  0  0  0  0
   -0.8490   -1.2480   -1.2390 C   0  0  0  0  0  0  0  0  0  0  0  0
   -0.8650   -0.6270    0.0420 N   0  0  0  0  0  0  0  0  0  0  0  0
   -1.8260    0.3480    0.4320 C   0  0  0  0  0  0  0  0  0  0  0  0
   -1.7650    0.8530    1.5730 O   0  0  0  0  0  0  0  0  0  0  0  0
   -2.9140    0.8070   -0.4610 C   0  0  0  0  0  0  0  0  0  0  0  0
   -3.7390    1.8150    0.1590 N   0  0  0  0  0  0  0  0  0  0  0  0
   -3.1680    3.1160    0.4150 C   0  0  0  0  0  0  0  0  0  0  0  0
   -5.0800    1.5700    0.5260 C   0  0  0  0  0  0  0  0  0  0  0  0
   -5.3430    0.6740    1.4050 N   0  0  0  0  0  0  0  0  0  0  0  0
   -6.1660    2.2840   -0.0490 N   0  0  0  0  0  0  0  0  0  0  0  0
   -7.6440    2.5640    0.9140 P   0  0  0  0  0  0  0  0  0  0  0  0
   -9.0210    2.0240    0.0390 O   0  0  0  0  0  0  0  0  0  0  0  0
   -7.7160    4.2700    1.2740 O   0  0  0  0  0  0  0  0  0  0  0  0
  1  2  1  0
  2  3  1  0
  3  4  1  0
  4  5  1  0
  5  6  1  0
  6  7  1  0
  7  8  1  0
  9  8  1  6
  9 10  1  0
  9 22  1  0
 10 11  1  0
 10 14  2  0
 11 12  1  0
 12 13  2  0
 14 15  1  0
 14 19  1  0
 15 16  2  0
 15 21  1  0
 16 17  1  0
 17 18  2  0
 18 19  1  0
 19 20  1  0
 21 22  1  0
 22 23  1  0
 23 24  2  0
 23 25  1  0
 25 26  1  0
 26 27  1  0
 26 28  1  0
 28 29  2  0
 28 30  1  0
 30 31  1  0
 31 32  1  0
 31 33  1  0
M  END
