
     RDKit          3D

 33 33  0  0  0  0  0  0  0  0999 V2000
   -2.2500    2.3260   -2.6660 C   0  0  0  0  0  0  0  0  0  0  0  0
   -2.2340    2.4340   -1.3200 C   0  0  0  0  0  0  0  0  0  0  0  0
   -2.5580    3.7320   -0.7980 C   0  0  0  0  0  0  0  0  0  0  0  0
   -2.6000    4.0500    0.4540 C   0  0  0  0  0  0  0  0  0  0  0  0
   -3.0460    5.8010    0.9090 P   0  0  0  0  0  0  0  0  0  0  0  0
   -3.4750    6.6280   -0.5350 O   0  0  0  0  0  0  0  0  0  0  0  0
   -1.6260    6.4850    1.6470 O   0  0  0  0  0  0  0  0  0  0  0  0
   -1.8910    1.2980   -0.5060 C   0  0  0  0  0  0  0  0  0  0  0  0
   -1.8850    1.3970    0.7460 O   0  0  0  0  0  0  0  0  0  0  0  0
   -1.5430    0.0290   -1.0350 N   0  0  0  0  0  0  0  0  0  0  0  0
   -1.1640   -1.1510   -0.2690 C   0  0  1  0  0  0  0  0  0  0  0  0
   -0.6630   -0.8980    1.1090 C   0  0  0  0  0  0  0  0  0  0  0  0
    0.6070   -0.0840    1.2120 C   0  0  0  0  0  0  0  0  0  0  0  0
    1.7030   -0.7470    0.5370 N   0  0  0  0  0  0  0  0  0  0  0  0
    3.0420   -0.1490    0.6060 C   0  0  0  0  0  0  0  0  0  0  0  0
    3.1770    0.9310   -0.1160 C   0  0  0  0  0  0  0  0  0  0  0  0
    2.0240    1.3970   -0.8890 N   0  0  0  0  0  0  0  0  0  0  0  0
    2.0890    2.4390   -1.5680 N   0  0  0  0  0  0  0  0  0  0  0  0
    3.2260    3.2560   -1.6680 N   0  0  0  0  0  0  0  0  0  0  0  0
    4.3050    2.9690   -1.0450 C   0  0  0  0  0  0  0  0  0  0  0  0
    5.4850    3.8400   -1.1640 C   0  0  0  0  0  0  0  0  0  0  0  0
    4.3030    1.7750   -0.2380 N   0  0  0  0  0  0  0  0  0  0  0  0
    3.9900   -0.8050    1.3730 N   0  0  0  0  0  0  0  0  0  0  0  0
    5.3810   -0.4950    1.5090 C   0  0  0  0  0  0  0  0  0  0  0  0
    3.5460   -1.9790    2.1210 C   0  0  0  0  0  0  0  0  0  0  0  0
    2.3560   -2.3440    2.0420 O   0  0  0  0  0  0  0  0  0  0  0  0
   -2.0790   -2.1970   -0.3540 N   0  0  0  0  0  0  0  0  0  0  0  0
   -3.3400   -2.1630    0.2250 C   0  0  0  0  0  0  0  0  0  0  0  0
   -3.3490   -2.2470    1.7130 C   0  0  0  0  0  0  0  0  0  0  0  0
   -1.5110   -3.4970   -0.6270 C   0  0  0  0  0  0  0  0  0  0  0  0
   -2.6120   -4.5270   -0.6550 C   0  0  0  0  0  0  0  0  0  0  0  0
   -2.0650   -5.9140   -0.9420 C   0  0  0  0  0  0  0  0  0  0  0  0
   -3.1050   -6.8500   -0.9560 O   0  0  0  0  0  0  0  0  0  0  0  0
  1  2  2  0
  2  3  1  0
  2  8  1  0
  3  4  2  3
  4  5  1  0
  5  6  1  0
  5  7  1  0
  8  9  2  0
  8 10  1  0
 10 11  1  0
 11 12  1  1
 11 27  1  0
 12 13  1  0
 13 14  1  0
 14 15  1  0
 15 16  2  3
 15 23  1  0
 16 17  1  0
 16 22  1  0
 17 18  2  0
 18 19  1  0
 19 20  2  0
 20 21  1  0
 20 22  1  0
 23 24  1  0
 23 25  1  0
 25 26  2  0
 27 28  1  0
 27 30  1  0
 28 29  1  0
 30 31  1  0
 31 32  1  0
 32 33  1  0
M  END
