
     RDKit          3D

 33 33  0  0  0  0  0  0  0  0999 V2000
   -5.7400   -3.6850   -1.8590 C   0  0  0  0  0  0  0  0  0  0  0  0
   -4.4530   -3.4810   -1.7290 C   0  0  0  0  0  0  0  0  0  0  0  0
   -3.5620   -4.3830   -2.2600 O   0  0  0  0  0  0  0  0  0  0  0  0
   -3.9970   -2.3760   -1.0660 O   0  0  0  0  0  0  0  0  0  0  0  0
   -2.6910   -2.0350   -0.8620 C   0  0  0  0  0  0  0  0  0  0  0  0
   -1.7940   -2.7750   -1.3080 O   0  0  0  0  0  0  0  0  0  0  0  0
   -2.3830   -0.7930   -0.1140 C   0  0  0  0  0  0  0  0  0  0  0  0
   -3.5230    0.0090    0.3590 C   0  0  0  0  0  0  0  0  0  0  0  0
   -4.6750   -0.3870    0.1110 O   0  0  0  0  0  0  0  0  0  0  0  0
   -1.2430   -0.4320    0.1230 N   0  0  0  0  0  0  0  0  0  0  0  0
   -0.3490    0.4340    0.6560 C   0  0  1  0  0  0  0  0  0  0  0  0
   -0.1310    1.7270    0.1270 N   0  0  0  0  0  0  0  0  0  0  0  0
   -1.1360    2.6650    0.1710 N   0  0  0  0  0  0  0  0  0  0  0  0
   -1.7550    3.1730   -1.0550 C   0  0  0  0  0  0  0  0  0  0  0  0
   -2.3620    4.8350   -0.4650 P   0  0  0  0  0  0  0  0  0  0  0  0
   -1.5260    6.1500   -1.1710 O   0  0  0  0  0  0  0  0  0  0  0  0
   -1.9140    4.6050    1.2350 O   0  0  0  0  0  0  0  0  0  0  0  0
   -1.6570    3.2430    1.3250 C   0  0  0  0  0  0  0  0  0  0  0  0
   -1.9070    2.6340    2.4280 O   0  0  0  0  0  0  0  0  0  0  0  0
   -0.5270    0.4820    2.0940 O   0  0  0  0  0  0  0  0  0  0  0  0
   -0.3440   -0.7110    2.7690 C   0  0  0  0  0  0  0  0  0  0  0  0
   -0.4650   -0.8670    4.1650 N   0  0  0  0  0  0  0  0  0  0  0  0
   -0.0430   -1.7650    2.1040 O   0  0  0  0  0  0  0  0  0  0  0  0
    1.3800   -0.4110    0.5380 P   0  0  0  0  0  0  0  0  0  0  0  0
    1.4550   -1.1640   -1.0360 O   0  0  0  0  0  0  0  0  0  0  0  0
    2.5950    0.8040    0.7360 O   0  0  0  0  0  0  0  0  0  0  0  0
    3.8460    0.4700   -0.3920 P   0  0  0  0  0  0  0  0  0  0  0  0
    3.7270    1.4240   -1.8320 O   0  0  0  0  0  0  0  0  0  0  0  0
    5.8310    0.5850    0.5000 P   0  0  0  0  0  0  0  0  0  0  0  0
    6.9930    1.3650   -0.5150 O   0  0  0  0  0  0  0  0  0  0  0  0
    6.5360   -1.4580    0.9060 P   0  0  0  0  0  0  0  0  0  0  0  0
    7.9830   -1.8190    0.0010 O   0  0  0  0  0  0  0  0  0  0  0  0
    5.3530   -2.6290    0.4210 O   0  0  0  0  0  0  0  0  0  0  0  0
  1  2  2  0
  2  3  1  0
  2  4  1  0
  4  5  1  0
  5  6  2  0
  5  7  1  0
  7  8  1  0
  7 10  2  3
  8  9  2  0
 10 11  1  0
 11 12  1  6
 11 20  1  0
 11 24  1  0
 12 13  1  0
 13 14  1  0
 13 18  1  0
 14 15  1  0
 15 16  1  0
 15 17  1  0
 17 18  1  0
 18 19  2  0
 20 21  1  0
 21 22  1  0
 21 23  2  0
 24 25  1  0
 24 26  1  0
 26 27  1  0
 27 28  1  0
 27 29  1  0
 29 30  1  0
 29 31  1  0
 31 32  1  0
 31 33  1  0
M  END
