
     RDKit          3D

 33 34  0  0  0  0  0  0  0  0999 V2000
    8.1550    1.1030   -0.0400 C   0  0  0  0  0  0  0  0  0  0  0  0
    7.0450    0.2300    0.2210 N   0  0  0  0  0  0  0  0  0  0  0  0
    6.4890   -0.2770   -0.9020 O   0  0  0  0  0  0  0  0  0  0  0  0
    5.1610   -0.1370   -0.9110 O   0  0  0  0  0  0  0  0  0  0  0  0
    4.3700   -0.2840    0.2120 C   0  0  0  0  0  0  0  0  0  0  0  0
    4.9290   -0.5650    1.2990 O   0  0  0  0  0  0  0  0  0  0  0  0
    2.5640   -0.0880    0.1680 P   0  0  0  0  0  0  0  0  0  0  0  0
    2.1040    0.9490   -1.1490 O   0  0  0  0  0  0  0  0  0  0  0  0
    0.4960    0.6080   -1.6260 P   0  0  0  0  0  0  0  0  0  0  0  0
   -0.2090    1.9420   -2.4420 O   0  0  0  0  0  0  0  0  0  0  0  0
    0.7270    2.5530   -3.3060 C   0  0  0  0  0  0  0  0  0  0  0  0
   -0.5480    0.2080   -0.1130 C   0  0  2  0  0  0  0  0  0  0  0  0
   -1.8540    0.3340   -0.4960 O   0  0  0  0  0  0  0  0  0  0  0  0
   -2.7810    0.0780    0.4890 C   0  0  1  0  0  0  0  0  0  0  0  0
   -3.7470    1.2170    0.7170 C   0  0  0  0  0  0  0  0  0  0  0  0
   -3.5670   -1.0330    0.0270 O   0  0  0  0  0  0  0  0  0  0  0  0
   -4.6020   -1.5460    0.7940 C   0  0  0  0  0  0  0  0  0  0  0  0
   -5.9050   -1.4210    0.7340 C   0  0  0  0  0  0  0  0  0  0  0  0
   -6.8980   -0.7640   -0.0580 N   0  0  0  0  0  0  0  0  0  0  0  0
   -6.7930   -0.7590   -1.4150 O   0  0  0  0  0  0  0  0  0  0  0  0
   -7.9610   -0.1340    0.4910 O   0  0  0  0  0  0  0  0  0  0  0  0
   -6.0250   -2.2530    1.8490 O   0  0  0  0  0  0  0  0  0  0  0  0
   -4.6410   -2.4090    1.9430 C   0  0  0  0  0  0  0  0  0  0  0  0
   -3.8010   -3.0030    2.6650 O   0  0  0  0  0  0  0  0  0  0  0  0
   -0.0280    1.3540    1.2260 P   0  0  0  0  0  0  0  0  0  0  0  0
    0.0360    0.6140    2.7760 O   0  0  0  0  0  0  0  0  0  0  0  0
   -0.8480    2.8560    1.2110 O   0  0  0  0  0  0  0  0  0  0  0  0
   -0.3770    3.6850    0.2230 C   0  0  0  0  0  0  0  0  0  0  0  0
   -0.0930   -1.5190    0.3870 P   0  0  0  0  0  0  0  0  0  0  0  0
   -0.9610   -2.7080   -0.5090 O   0  0  0  0  0  0  0  0  0  0  0  0
    1.7270   -1.7340   -0.0300 C   0  0  2  0  0  0  0  0  0  0  0  0
    2.2840   -2.7190    0.7470 O   0  0  0  0  0  0  0  0  0  0  0  0
    2.7080   -3.7450   -0.0210 N   0  0  0  0  0  0  0  0  0  0  0  0
  1  2  1  0
  2  3  1  0
  3  4  1  0
  4  5  1  0
  5  6  2  0
  5  7  1  0
  7  8  1  0
  7 31  1  0
  8  9  1  0
  9 10  1  0
  9 12  1  0
 10 11  1  0
 12 13  1  6
 12 25  1  0
 12 29  1  0
 13 14  1  0
 14 15  1  6
 14 16  1  0
 16 17  1  0
 17 18  2  0
 17 23  1  0
 18 19  1  0
 18 22  1  0
 19 20  1  0
 19 21  1  0
 22 23  1  0
 23 24  2  0
 25 26  1  0
 25 27  1  0
 27 28  1  0
 29 30  1  0
 29 31  1  0
 31 32  1  1
 32 33  1  0
M  END
