
     RDKit          3D

 44 50  0  0  0  0  0  0  0  0999 V2000
   -8.6430    3.1210    0.2410 N   0  0  0  0  0  0  0  0  0  0  0  0
   -7.3270    2.6010    0.1400 C   0  0  0  0  0  0  0  0  0  0  0  0
   -6.2380    3.4160    0.0460 N   0  0  0  0  0  0  0  0  0  0  0  0
   -5.0000    2.9100   -0.0490 C   0  0  0  0  0  0  0  0  0  0  0  0
   -4.8550    1.5890   -0.0490 N   0  0  0  0  0  0  0  0  0  0  0  0
   -5.8990    0.7230    0.0420 C   0  0  0  0  0  0  0  0  0  0  0  0
   -7.1740    1.2330    0.1400 C   0  0  0  0  0  0  0  0  0  0  0  0
   -7.9920    0.1930    0.2140 N   0  0  0  0  0  0  0  0  0  0  0  0
   -7.2450   -0.9440    0.1640 C   0  0  0  0  0  0  0  0  0  0  0  0
   -5.9470   -0.6210    0.0570 N   0  0  0  0  0  0  0  0  0  0  0  0
   -4.7690   -1.4620   -0.0290 C   0  0  2  0  0  0  0  0  0  0  0  0
   -3.9100   -1.0810    0.9690 O   0  0  0  0  0  0  0  0  0  0  0  0
   -2.6030   -1.1980    0.5040 C   0  0  2  0  0  0  0  0  0  0  0  0
   -1.6900   -0.1530    1.1550 C   0  0  0  0  0  0  0  0  0  0  0  0
   -1.0670   -0.5830    2.2860 O   0  0  0  0  0  0  0  0  0  0  0  0
    0.2330   -1.6060    2.1040 P   0  0  1  0  0  0  0  0  0  0  0  0
    0.3460   -2.3440    3.4580 O   0  0  0  0  0  0  0  0  0  0  0  0
   -0.0580   -2.8590    0.9980 O   0  0  0  0  0  0  0  0  0  0  0  0
    1.7000   -0.8660    1.8920 O   0  0  0  0  0  0  0  0  0  0  0  0
    2.0210   -0.4090    0.6500 C   0  0  2  0  0  0  0  0  0  0  0  0
    2.5050   -1.4370   -0.3290 C   0  0  1  0  0  0  0  0  0  0  0  0
    1.8470   -1.2390   -1.6920 C   0  0  0  0  0  0  0  0  0  0  0  0
    0.7000   -0.4710   -1.5310 O   0  0  0  0  0  0  0  0  0  0  0  0
   -0.5720   -0.8920   -2.5120 P   0  0  1  0  0  0  0  0  0  0  0  0
   -1.0940    0.3640   -3.2060 O   0  0  0  0  0  0  0  0  0  0  0  0
   -0.0140   -1.9150   -3.7640 O   0  0  0  0  0  0  0  0  0  0  0  0
   -1.8320   -1.6590   -1.7460 O   0  0  0  0  0  0  0  0  0  0  0  0
   -2.6450   -0.8590   -0.9850 C   0  0  1  0  0  0  0  0  0  0  0  0
   -4.0830   -1.2020   -1.3370 C   0  0  1  0  0  0  0  0  0  0  0  0
   -4.1430   -2.3550   -2.1330 O   0  0  0  0  0  0  0  0  0  0  0  0
    3.8650   -1.2560   -0.5160 O   0  0  0  0  0  0  0  0  0  0  0  0
    4.3100   -0.7020    0.6730 C   0  0  1  0  0  0  0  0  0  0  0  0
    5.6550   -0.2540    0.6450 N   0  0  0  0  0  0  0  0  0  0  0  0
    6.7060   -0.9850    1.0630 C   0  0  0  0  0  0  0  0  0  0  0  0
    7.8560   -0.2900    0.9130 N   0  0  0  0  0  0  0  0  0  0  0  0
    7.5520    0.8930    0.3970 C   0  0  0  0  0  0  0  0  0  0  0  0
    8.3390    1.9820    0.0450 C   0  0  0  0  0  0  0  0  0  0  0  0
    9.7340    1.8750    0.2490 N   0  0  0  0  0  0  0  0  0  0  0  0
    7.7170    3.0500   -0.4610 N   0  0  0  0  0  0  0  0  0  0  0  0
    6.3650    3.0540   -0.6180 C   0  0  0  0  0  0  0  0  0  0  0  0
    5.6040    1.9910   -0.2730 N   0  0  0  0  0  0  0  0  0  0  0  0
    6.1790    0.9100    0.2320 C   0  0  0  0  0  0  0  0  0  0  0  0
    3.3000    0.4360    0.8340 C   0  0  2  0  0  0  0  0  0  0  0  0
    3.3230    0.9610    2.1100 O   0  0  0  0  0  0  0  0  0  0  0  0
  1  2  1  0
  2  3  2  0
  2  7  1  0
  3  4  1  0
  4  5  2  0
  5  6  1  0
  6  7  2  0
  6 10  1  0
  7  8  1  0
  8  9  2  0
  9 10  1  0
 11 10  1  6
 11 12  1  0
 11 29  1  0
 12 13  1  0
 13 14  1  1
 13 28  1  0
 14 15  1  0
 15 16  1  0
 16 17  2  0
 16 18  1  6
 16 19  1  0
 20 19  1  1
 20 21  1  0
 20 43  1  0
 21 22  1  6
 21 31  1  0
 22 23  1  0
 23 24  1  0
 24 25  2  0
 24 26  1  6
 24 27  1  0
 28 27  1  6
 28 29  1  0
 29 30  1  6
 31 32  1  0
 32 33  1  6
 32 43  1  0
 33 34  1  0
 33 42  1  0
 34 35  2  0
 35 36  1  0
 36 37  2  0
 36 42  1  0
 37 38  1  0
 37 39  1  0
 39 40  2  0
 40 41  1  0
 41 42  2  0
 43 44  1  1
M  END
