
     RDKit          3D

 33 33  0  0  0  0  0  0  0  0999 V2000
    5.0140    1.3190   -0.5190 C   0  0  0  0  0  0  0  0  0  0  0  0
    4.5650    0.4750   -1.5950 N   0  0  0  0  0  0  0  0  0  0  0  0
    5.1340    0.7900   -2.7670 O   0  0  0  0  0  0  0  0  0  0  0  0
    3.1280    0.3950   -1.6460 C   0  0  2  0  0  0  0  0  0  0  0  0
    2.7860   -0.2270   -2.8740 O   0  0  0  0  0  0  0  0  0  0  0  0
    2.4880    1.5920   -1.4890 F   0  0  0  0  0  0  0  0  0  0  0  0
    2.5910   -0.5280   -0.6260 N   0  0  0  0  0  0  0  0  0  0  0  0
    1.2630   -0.4950   -0.4850 O   0  0  0  0  0  0  0  0  0  0  0  0
    0.7040    0.3670    0.9010 P   0  0  0  0  0  0  0  0  0  0  0  0
    1.6470   -0.1120    2.2980 O   0  0  0  0  0  0  0  0  0  0  0  0
    0.9950   -0.8760    3.2690 C   0  0  0  0  0  0  0  0  0  0  0  0
    1.7380   -1.4540    4.1150 O   0  0  0  0  0  0  0  0  0  0  0  0
   -0.3710   -1.0000    3.3130 O   0  0  0  0  0  0  0  0  0  0  0  0
   -1.2640   -0.2730    2.6250 N   0  0  0  0  0  0  0  0  0  0  0  0
   -1.9290    0.6570    3.2950 O   0  0  0  0  0  0  0  0  0  0  0  0
   -1.0750   -0.1020    1.2560 C   0  0  2  0  0  0  0  0  0  0  0  0
   -1.3960   -1.2180    0.4320 O   0  0  0  0  0  0  0  0  0  0  0  0
   -2.6700   -1.7950    0.4670 C   0  0  0  0  0  0  0  0  0  0  0  0
   -3.4830   -1.2680    1.2650 O   0  0  0  0  0  0  0  0  0  0  0  0
   -3.0380   -2.9030   -0.3420 N   0  0  0  0  0  0  0  0  0  0  0  0
   -4.2960   -3.3680   -0.2370 O   0  0  0  0  0  0  0  0  0  0  0  0
   -2.1550   -3.5270   -1.2530 C   0  0  0  0  0  0  0  0  0  0  0  0
   -0.9570   -3.1800   -1.4230 O   0  0  0  0  0  0  0  0  0  0  0  0
   -2.7370   -4.9370   -2.2810 P   0  0  0  0  0  0  0  0  0  0  0  0
   -1.9270    1.0430    0.7730 C   0  0  0  0  0  0  0  0  0  0  0  0
   -2.6620    0.8690   -0.2300 O   0  0  0  0  0  0  0  0  0  0  0  0
   -1.9340    2.2620    1.3790 O   0  0  0  0  0  0  0  0  0  0  0  0
   -2.6150    3.4270    1.0880 C   0  0  0  0  0  0  0  0  0  0  0  0
   -2.2560    4.1730   -0.1480 C   0  0  0  0  0  0  0  0  0  0  0  0
   -2.4860    3.2210   -1.6950 P   0  0  0  0  0  0  0  0  0  0  0  0
    3.4560   -1.3640    0.0890 C   0  0  0  0  0  0  0  0  0  0  0  0
    4.6740   -1.3600   -0.1000 O   0  0  0  0  0  0  0  0  0  0  0  0
    2.9100   -2.2180    1.0340 O   0  0  0  0  0  0  0  0  0  0  0  0
  1  2  1  0
  2  3  1  0
  2  4  1  0
  4  5  1  6
  4  6  1  0
  4  7  1  0
  7  8  1  0
  7 31  1  0
  8  9  1  0
  9 10  1  0
  9 16  1  0
 10 11  1  0
 11 12  2  0
 11 13  1  0
 13 14  1  0
 14 15  1  0
 14 16  1  0
 16 17  1  6
 16 25  1  0
 17 18  1  0
 18 19  2  0
 18 20  1  0
 20 21  1  0
 20 22  1  0
 22 23  2  0
 22 24  1  0
 25 26  2  0
 25 27  1  0
 27 28  1  0
 28 29  1  0
 29 30  1  0
 31 32  2  0
 31 33  1  0
M  END
