
     RDKit          3D

 33 34  0  0  0  0  0  0  0  0999 V2000
   -5.6960    2.0190    1.0290 C   0  0  0  0  0  0  0  0  0  0  0  0
   -5.0580    0.7030    1.2570 C   0  0  0  0  0  0  0  0  0  0  0  0
   -5.6290   -0.1340    1.9250 O   0  0  0  0  0  0  0  0  0  0  0  0
   -3.7340    0.4170    0.6720 C   0  0  1  0  0  0  0  0  0  0  0  0
   -3.2910    1.5080   -0.0360 O   0  0  0  0  0  0  0  0  0  0  0  0
   -2.2210    2.0550    0.4950 O   0  0  0  0  0  0  0  0  0  0  0  0
   -1.4840    2.6780   -0.3660 O   0  0  0  0  0  0  0  0  0  0  0  0
   -0.2290    2.0850   -0.4580 C   0  0  2  0  0  0  0  0  0  0  0  0
   -0.2170    0.8550   -1.1830 N   0  0  0  0  0  0  0  0  0  0  0  0
   -1.4390    0.5110   -1.6940 O   0  0  0  0  0  0  0  0  0  0  0  0
   -1.8230   -0.7810   -2.0130 C   0  0  0  0  0  0  0  0  0  0  0  0
   -2.4040   -1.0870   -3.2620 O   0  0  0  0  0  0  0  0  0  0  0  0
   -3.0490   -2.2160   -3.5040 F   0  0  0  0  0  0  0  0  0  0  0  0
   -1.6880   -1.7910   -1.2210 N   0  0  0  0  0  0  0  0  0  0  0  0
   -1.1470   -1.7690    0.0670 C   0  0  0  0  0  0  0  0  0  0  0  0
    0.1020   -1.9560    0.2490 N   0  0  0  0  0  0  0  0  0  0  0  0
    1.0900   -2.2000   -0.7530 C   0  0  2  0  0  0  0  0  0  0  0  0
    1.2310   -3.5500   -1.0630 O   0  0  0  0  0  0  0  0  0  0  0  0
    2.4380   -1.7600   -0.1780 C   0  0  0  0  0  0  0  0  0  0  0  0
    2.3530   -0.1250    0.6510 P   0  0  0  0  0  0  0  0  0  0  0  0
    2.8210    1.1740   -0.3910 O   0  0  0  0  0  0  0  0  0  0  0  0
    3.9220    0.8730   -1.0220 O   0  0  0  0  0  0  0  0  0  0  0  0
    4.9600    1.5450   -0.5610 O   0  0  0  0  0  0  0  0  0  0  0  0
    5.6520    0.7160    0.2410 N   0  0  0  0  0  0  0  0  0  0  0  0
    6.3200   -0.3050   -0.5330 C   0  0  0  0  0  0  0  0  0  0  0  0
    6.5890    1.4480    0.8830 O   0  0  0  0  0  0  0  0  0  0  0  0
    0.8730    0.1780    1.4550 O   0  0  0  0  0  0  0  0  0  0  0  0
    0.3910    1.8380    1.2810 P   0  0  0  0  0  0  0  0  0  0  0  0
    1.7150    2.8760    1.6100 O   0  0  0  0  0  0  0  0  0  0  0  0
   -2.2080   -1.4760    1.5130 P   0  0  0  0  0  0  0  0  0  0  0  0
   -3.5740   -2.6900    1.6240 C   0  0  0  0  0  0  0  0  0  0  0  0
   -4.3580   -2.7560    0.7090 O   0  0  0  0  0  0  0  0  0  0  0  0
   -2.7720    0.1320    1.6380 O   0  0  0  0  0  0  0  0  0  0  0  0
  1  2  1  0
  2  3  2  0
  4  2  1  1
  4  5  1  0
  4 33  1  0
  5  6  1  0
  6  7  1  0
  8  7  1  1
  8  9  1  0
  8 28  1  0
  9 10  1  0
 10 11  1  0
 11 12  1  0
 11 14  2  0
 12 13  1  0
 14 15  1  0
 15 16  2  0
 15 30  1  0
 16 17  1  0
 17 18  1  1
 17 19  1  0
 19 20  1  0
 20 21  1  0
 20 27  1  0
 21 22  1  0
 22 23  1  0
 23 24  1  0
 24 25  1  0
 24 26  1  0
 27 28  1  0
 28 29  1  0
 30 31  1  0
 30 33  1  0
 31 32  2  0
M  END
