
     RDKit          3D

 32 32  0  0  0  0  0  0  0  0999 V2000
   -5.6940    1.4860   -1.7390 C   0  0  0  0  0  0  0  0  0  0  0  0
   -4.4990    0.8790   -1.3890 O   0  0  0  0  0  0  0  0  0  0  0  0
   -4.6340   -0.2810   -0.7600 N   0  0  0  0  0  0  0  0  0  0  0  0
   -5.8260   -1.0170   -1.1110 C   0  0  0  0  0  0  0  0  0  0  0  0
   -4.4420   -0.2040    0.6780 C   0  0  1  0  0  0  0  0  0  0  0  0
   -4.6120   -1.4870    1.2090 O   0  0  0  0  0  0  0  0  0  0  0  0
   -3.4930   -2.1310    0.9800 O   0  0  0  0  0  0  0  0  0  0  0  0
   -2.4540   -1.1930    1.0060 C   0  0  2  0  0  0  0  0  0  0  0  0
   -1.6780   -1.4660    2.1190 O   0  0  0  0  0  0  0  0  0  0  0  0
   -3.0700    0.0220    0.9240 N   0  0  0  0  0  0  0  0  0  0  0  0
   -2.5180    1.2630    0.7940 C   0  0  1  0  0  0  0  0  0  0  0  0
   -3.6950    2.2120    0.7870 N   0  0  0  0  0  0  0  0  0  0  0  0
   -1.6260    1.8080    1.8440 C   0  0  0  0  0  0  0  0  0  0  0  0
   -0.4930    1.2320    2.1960 O   0  0  0  0  0  0  0  0  0  0  0  0
    0.6110    1.0500    1.5040 C   0  0  0  0  0  0  0  0  0  0  0  0
    0.6310    0.2130    0.2580 C   0  0  0  0  0  0  0  0  0  0  0  0
    2.4160    0.2030   -0.4020 P   0  0  0  0  0  0  0  0  0  0  0  0
    3.2610   -1.0980    0.4210 O   0  0  0  0  0  0  0  0  0  0  0  0
    3.0580   -2.2440   -0.2710 O   0  0  0  0  0  0  0  0  0  0  0  0
    2.8200   -3.4400    0.3670 C   0  0  0  0  0  0  0  0  0  0  0  0
    2.7950   -3.4420    1.6240 O   0  0  0  0  0  0  0  0  0  0  0  0
    2.6150   -4.6060   -0.3780 O   0  0  0  0  0  0  0  0  0  0  0  0
    2.4160   -0.1720   -2.0750 O   0  0  0  0  0  0  0  0  0  0  0  0
    3.4180    0.2920   -2.7410 O   0  0  0  0  0  0  0  0  0  0  0  0
    4.6150    1.0990   -1.8440 P   0  0  0  0  0  0  0  0  0  0  0  0
    4.0360    2.0360   -0.5400 O   0  0  0  0  0  0  0  0  0  0  0  0
    5.3530    3.0310    0.0340 P   0  0  0  0  0  0  0  0  0  0  0  0
    5.6860    4.3490   -0.7020 O   0  0  0  0  0  0  0  0  0  0  0  0
    6.3770   -0.0770   -1.4030 P   0  0  0  0  0  0  0  0  0  0  0  0
    7.3500    0.7180   -0.1380 N   0  0  0  0  0  0  0  0  0  0  0  0
    6.0390   -1.6910   -0.9140 O   0  0  0  0  0  0  0  0  0  0  0  0
    7.0790   -2.0920   -0.1120 N   0  0  0  0  0  0  0  0  0  0  0  0
  1  2  1  0
  2  3  1  0
  3  4  1  0
  5  3  1  6
  5  6  1  0
  5 10  1  0
  6  7  1  0
  7  8  1  0
  8  9  1  1
  8 10  1  0
 10 11  1  0
 11 12  1  1
 11 13  1  0
 13 14  1  0
 14 15  1  0
 15 16  1  0
 16 17  1  0
 17 18  1  0
 17 23  1  0
 18 19  1  0
 19 20  1  0
 20 21  2  0
 20 22  1  0
 23 24  1  0
 24 25  1  0
 25 26  1  0
 25 29  1  0
 26 27  1  0
 27 28  2  0
 29 30  1  0
 29 31  1  0
 31 32  1  0
M  END
