
     RDKit          3D

 33 34  0  0  0  0  0  0  0  0999 V2000
    7.3020   -2.2450   -1.2280 C   0  0  0  0  0  0  0  0  0  0  0  0
    6.9230   -0.9460   -0.5440 C   0  0  1  0  0  0  0  0  0  0  0  0
    7.7400    0.1590   -1.1670 C   0  0  0  0  0  0  0  0  0  0  0  0
    5.5400   -0.7730   -0.7200 O   0  0  0  0  0  0  0  0  0  0  0  0
    4.6360   -0.6320    0.3270 C   0  0  0  0  0  0  0  0  0  0  0  0
    5.0760   -0.6610    1.4830 O   0  0  0  0  0  0  0  0  0  0  0  0
    3.2760   -0.4630    0.1260 O   0  0  0  0  0  0  0  0  0  0  0  0
    2.3540   -0.3200    1.1470 C   0  0  0  0  0  0  0  0  0  0  0  0
    2.7670   -0.3440    2.3290 O   0  0  0  0  0  0  0  0  0  0  0  0
    0.9520   -0.1460    0.9290 N   0  0  0  0  0  0  0  0  0  0  0  0
    0.0250   -0.0010    2.0050 C   0  0  0  0  0  0  0  0  0  0  0  0
   -1.3700    0.1770    1.4550 C   0  0  1  0  0  0  0  0  0  0  0  0
   -1.7650   -1.2170    0.3330 P   0  0  0  0  0  0  0  0  0  0  0  0
   -2.4930   -0.6570   -1.2110 N   0  0  0  0  0  0  0  0  0  0  0  0
   -3.8690   -0.8600   -0.9900 C   0  0  0  0  0  0  0  0  0  0  0  0
   -4.1860   -1.7670    0.0850 C   0  0  1  0  0  0  0  0  0  0  0  0
   -5.1240   -1.1460    0.9510 O   0  0  0  0  0  0  0  0  0  0  0  0
   -4.8610   -2.9660   -0.3350 O   0  0  0  0  0  0  0  0  0  0  0  0
   -4.2880   -3.8470   -1.2260 C   0  0  0  0  0  0  0  0  0  0  0  0
   -4.9970   -5.0080   -1.6020 N   0  0  0  0  0  0  0  0  0  0  0  0
   -3.1520   -3.5860   -1.6740 O   0  0  0  0  0  0  0  0  0  0  0  0
   -3.1350   -2.1450    0.8500 O   0  0  0  0  0  0  0  0  0  0  0  0
   -2.2200    0.2840    2.5490 O   0  0  0  0  0  0  0  0  0  0  0  0
   -3.2800    1.1430    2.3330 C   0  0  0  0  0  0  0  0  0  0  0  0
   -3.1160    2.3750    2.9560 O   0  0  0  0  0  0  0  0  0  0  0  0
   -2.0680    3.2910    1.9200 P   0  0  0  0  0  0  0  0  0  0  0  0
   -3.3500    4.7810    0.8820 P   0  0  0  0  0  0  0  0  0  0  0  0
   -3.5780    6.1650    1.8860 O   0  0  0  0  0  0  0  0  0  0  0  0
   -2.6170    5.2980   -0.5950 O   0  0  0  0  0  0  0  0  0  0  0  0
   -1.4160    4.7920   -0.7590 O   0  0  0  0  0  0  0  0  0  0  0  0
   -1.3550    1.7820    0.4760 P   0  0  0  0  0  0  0  0  0  0  0  0
    0.2260    2.1390   -0.0830 O   0  0  0  0  0  0  0  0  0  0  0  0
    0.2840    2.2720   -1.3710 O   0  0  0  0  0  0  0  0  0  0  0  0
  2  1  1  6
  2  3  1  0
  2  4  1  0
  4  5  1  0
  5  6  2  0
  5  7  1  0
  7  8  1  0
  8  9  2  0
  8 10  1  0
 10 11  1  0
 12 11  1  1
 12 13  1  0
 12 23  1  0
 12 31  1  0
 13 14  1  0
 13 22  1  0
 14 15  1  0
 15 16  1  0
 16 17  1  1
 16 18  1  0
 16 22  1  0
 18 19  1  0
 19 20  1  0
 19 21  2  0
 23 24  1  0
 24 25  1  0
 25 26  1  0
 26 27  1  0
 26 31  1  0
 27 28  1  0
 27 29  1  0
 29 30  1  0
 31 32  1  0
 32 33  1  0
M  END
