
     RDKit          3D

 31 35  0  0  0  0  0  0  0  0999 V2000
   -6.8930   -0.5070    1.8180 C   0  0  0  0  0  0  0  0  0  0  0  0
   -6.2360   -0.9100    0.5100 C   0  0  0  0  0  0  0  0  0  0  0  0
   -4.9200   -1.5570    0.8600 C   0  0  0  0  0  0  0  0  0  0  0  0
   -3.8300   -1.0050    0.3890 C   0  0  0  0  0  0  0  0  0  0  0  0
   -3.9320    0.1590   -0.4170 O   0  0  0  0  0  0  0  0  0  0  0  0
   -2.8400    0.7920   -0.9450 C   0  0  0  0  0  0  0  0  0  0  0  0
   -3.0430    1.9250   -1.7220 C   0  0  0  0  0  0  0  0  0  0  0  0
   -1.9490    2.5870   -2.2710 C   0  0  0  0  0  0  0  0  0  0  0  0
   -0.6620    2.1400   -2.0580 C   0  0  0  0  0  0  0  0  0  0  0  0
   -0.4580    1.0180   -1.2890 C   0  0  0  0  0  0  0  0  0  0  0  0
   -1.5610    0.3490   -0.7340 C   0  0  0  0  0  0  0  0  0  0  0  0
   -1.3570   -0.8370    0.0800 C   0  0  0  0  0  0  0  0  0  0  0  0
   -0.1210   -1.3110    0.3150 N   0  0  0  0  0  0  0  0  0  0  0  0
    0.1020   -2.4040    1.0620 C   0  0  0  0  0  0  0  0  0  0  0  0
    1.4900   -2.9240    1.3180 C   0  0  0  0  0  0  0  0  0  0  0  0
    2.4800   -2.1090    0.6720 N   0  0  0  0  0  0  0  0  0  0  0  0
    2.6270   -0.7290    0.9740 C   0  0  0  0  0  0  0  0  0  0  0  0
    1.8620   -0.2240    1.8320 O   0  0  0  0  0  0  0  0  0  0  0  0
    3.6470    0.0900    0.3020 C   0  0  0  0  0  0  0  0  0  0  0  0
    3.8520    1.4250    0.5360 C   0  0  0  0  0  0  0  0  0  0  0  0
    4.8840    1.8340   -0.2770 C   0  0  0  0  0  0  0  0  0  0  0  0
    5.4940    3.0430   -0.4510 C   0  0  0  0  0  0  0  0  0  0  0  0
    6.5240    3.1970   -1.3440 C   0  0  0  0  0  0  0  0  0  0  0  0
    6.9220    2.0930   -2.0560 C   0  0  0  0  0  0  0  0  0  0  0  0
    6.3070    0.8730   -1.8800 C   0  0  0  0  0  0  0  0  0  0  0  0
    5.2680    0.7150   -0.9810 C   0  0  0  0  0  0  0  0  0  0  0  0
    4.5050   -0.2830   -0.6000 O   0  0  0  0  0  0  0  0  0  0  0  0
   -0.9680   -3.0180    1.5760 N   0  0  0  0  0  0  0  0  0  0  0  0
   -2.2520   -2.6030    1.3850 C   0  0  0  0  0  0  0  0  0  0  0  0
   -3.1980   -3.2180    1.8890 O   0  0  0  0  0  0  0  0  0  0  0  0
   -2.4640   -1.4810    0.6160 C   0  0  0  0  0  0  0  0  0  0  0  0
  1  2  1  0
  2  3  1  0
  3  4  2  3
  4  5  1  0
  4 31  1  0
  5  6  1  0
  6  7  2  0
  6 11  1  0
  7  8  1  0
  8  9  2  0
  9 10  1  0
 10 11  2  0
 11 12  1  0
 12 13  1  0
 12 31  2  0
 13 14  2  0
 14 15  1  0
 14 28  1  0
 15 16  1  0
 16 17  1  0
 17 18  2  0
 17 19  1  0
 19 20  2  0
 19 27  1  0
 20 21  1  0
 21 22  2  0
 21 26  1  0
 22 23  1  0
 23 24  2  0
 24 25  1  0
 25 26  2  0
 26 27  1  0
 28 29  1  0
 29 30  2  0
 29 31  1  0
M  END
