
     RDKit          3D

 31 33  0  0  0  0  0  0  0  0999 V2000
   -7.0550   -1.3830    0.5940 C   0  0  0  0  0  0  0  0  0  0  0  0
   -6.1700   -1.2730   -0.6060 C   0  0  1  0  0  0  0  0  0  0  0  0
   -6.9010   -0.6950   -1.8080 C   0  0  0  0  0  0  0  0  0  0  0  0
   -4.9250   -0.4330   -0.3140 C   0  0  2  0  0  0  0  0  0  0  0  0
   -5.3200    0.9750    0.1020 C   0  0  0  0  0  0  0  0  0  0  0  0
   -4.1110   -0.3800   -1.5700 C   0  0  0  0  0  0  0  0  0  0  0  0
   -2.7880   -1.0190   -1.4750 C   0  0  0  0  0  0  0  0  0  0  0  0
   -2.2400   -1.5180   -2.5180 O   0  0  0  0  0  0  0  0  0  0  0  0
   -2.0840   -1.1050   -0.2440 N   0  0  0  0  0  0  0  0  0  0  0  0
   -0.6470   -1.1880   -0.1770 C   0  0  0  0  0  0  0  0  0  0  0  0
   -0.0720    0.2030   -0.0920 C   0  0  0  0  0  0  0  0  0  0  0  0
   -0.8960    1.2950   -0.2120 C   0  0  0  0  0  0  0  0  0  0  0  0
   -0.3620    2.5520   -0.1310 C   0  0  0  0  0  0  0  0  0  0  0  0
   -1.1750    3.6340   -0.2510 F   0  0  0  0  0  0  0  0  0  0  0  0
    0.9680    2.7210    0.0650 C   0  0  0  0  0  0  0  0  0  0  0  0
    1.8550    1.6440    0.1940 C   0  0  0  0  0  0  0  0  0  0  0  0
    3.2710    1.8940    0.4040 C   0  0  0  0  0  0  0  0  0  0  0  0
    3.7170    3.0750    0.3820 O   0  0  0  0  0  0  0  0  0  0  0  0
    4.1840    0.8470    0.6350 N   0  0  0  0  0  0  0  0  0  0  0  0
    5.6170    1.0930    0.8480 C   0  0  1  0  0  0  0  0  0  0  0  0
    5.9520    0.7500    2.3050 C   0  0  0  0  0  0  0  0  0  0  0  0
    6.4580    0.3300   -0.0840 C   0  0  0  0  0  0  0  0  0  0  0  0
    6.1340    0.2960   -1.4200 C   0  0  0  0  0  0  0  0  0  0  0  0
    6.9440   -0.4300   -2.2770 C   0  0  0  0  0  0  0  0  0  0  0  0
    8.0620   -1.1200   -1.8330 C   0  0  0  0  0  0  0  0  0  0  0  0
    8.3630   -1.0700   -0.4910 C   0  0  0  0  0  0  0  0  0  0  0  0
    7.5660   -0.3490    0.3810 C   0  0  0  0  0  0  0  0  0  0  0  0
    1.2710    0.4040    0.1060 C   0  0  0  0  0  0  0  0  0  0  0  0
   -2.7940   -1.1100    0.8400 C   0  0  0  0  0  0  0  0  0  0  0  0
   -2.1910   -1.1920    2.1300 N   0  0  0  0  0  0  0  0  0  0  0  0
   -4.2130   -1.0350    0.8030 N   0  0  0  0  0  0  0  0  0  0  0  0
  2  1  1  1
  2  3  1  0
  2  4  1  0
  4  5  1  1
  4  6  1  0
  4 31  1  0
  6  7  1  0
  7  8  2  0
  7  9  1  0
  9 10  1  0
  9 29  2  0
 10 11  1  0
 11 12  2  0
 11 28  1  0
 12 13  1  0
 13 14  1  0
 13 15  2  0
 15 16  1  0
 16 17  1  0
 16 28  2  0
 17 18  2  0
 17 19  1  0
 19 20  1  0
 20 21  1  1
 20 22  1  0
 22 23  2  0
 22 27  1  0
 23 24  1  0
 24 25  2  0
 25 26  1  0
 26 27  2  0
 29 30  1  0
 29 31  1  0
M  CHG  1   9   1
M  END
