
     RDKit          3D

 31 35  0  0  0  0  0  0  0  0999 V2000
   -2.8980   -5.3390   -0.8530 C   0  0  0  0  0  0  0  0  0  0  0  0
   -2.3820   -3.9220   -0.7880 C   0  0  0  0  0  0  0  0  0  0  0  0
   -3.1700   -2.8970   -1.2670 C   0  0  0  0  0  0  0  0  0  0  0  0
   -2.7440   -1.5660   -1.2320 C   0  0  0  0  0  0  0  0  0  0  0  0
   -1.5170   -1.3360   -0.7030 C   0  0  0  0  0  0  0  0  0  0  0  0
   -0.7170   -2.3470   -0.2190 C   0  0  0  0  0  0  0  0  0  0  0  0
   -1.1370   -3.6610   -0.2540 C   0  0  0  0  0  0  0  0  0  0  0  0
    0.5240   -1.9950    0.3020 C   0  0  0  0  0  0  0  0  0  0  0  0
    1.2670   -2.8800    0.7440 O   0  0  0  0  0  0  0  0  0  0  0  0
    0.8900   -0.6660    0.3100 C   0  0  0  0  0  0  0  0  0  0  0  0
    2.1890   -0.2330    0.8480 C   0  0  0  0  0  0  0  0  0  0  0  0
    2.9610   -1.1140    1.3030 O   0  0  0  0  0  0  0  0  0  0  0  0
    2.5940    1.0710    0.8760 O   0  0  0  0  0  0  0  0  0  0  0  0
    3.8030    1.5490    1.3660 C   0  0  0  0  0  0  0  0  0  0  0  0
    5.0000    1.0370    0.7030 C   0  0  0  0  0  0  0  0  0  0  0  0
    4.9250    0.3250   -0.4730 C   0  0  0  0  0  0  0  0  0  0  0  0
    6.0790   -0.1640   -1.0980 C   0  0  0  0  0  0  0  0  0  0  0  0
    7.3170    0.0650   -0.5360 C   0  0  0  0  0  0  0  0  0  0  0  0
    7.3720    0.7620    0.6130 N   0  0  0  0  0  0  0  0  0  0  0  0
    6.2550    1.2450    1.2330 C   0  0  0  0  0  0  0  0  0  0  0  0
    0.0230    0.2800   -0.1960 C   0  0  0  0  0  0  0  0  0  0  0  0
    0.4430    1.6410   -0.1680 N   0  0  0  0  0  0  0  0  0  0  0  0
   -1.1970   -0.0480   -0.7110 N   0  0  0  0  0  0  0  0  0  0  0  0
   -2.2590    0.7300   -1.2850 C   0  0  2  0  0  0  0  0  0  0  0  0
   -2.7750    1.7660   -0.3530 C   0  0  0  0  0  0  0  0  0  0  0  0
   -2.2920    3.0550   -0.3020 C   0  0  0  0  0  0  0  0  0  0  0  0
   -3.0090    3.7400    0.6860 C   0  0  0  0  0  0  0  0  0  0  0  0
   -3.8940    2.8060    1.1770 C   0  0  0  0  0  0  0  0  0  0  0  0
   -4.8690    3.1300    2.2720 C   0  0  0  0  0  0  0  0  0  0  0  0
   -3.7230    1.6830    0.5500 O   0  0  0  0  0  0  0  0  0  0  0  0
   -3.3080   -0.2820   -1.6410 C   0  0  0  0  0  0  0  0  0  0  0  0
  1  2  1  0
  2  3  2  0
  2  7  1  0
  3  4  1  0
  4  5  2  0
  4 31  1  0
  5  6  1  0
  5 23  1  0
  6  7  2  0
  6  8  1  0
  8  9  2  0
  8 10  1  0
 10 11  1  0
 10 21  2  0
 11 12  2  0
 11 13  1  0
 13 14  1  0
 14 15  1  0
 15 16  2  0
 15 20  1  0
 16 17  1  0
 17 18  2  0
 18 19  1  0
 19 20  2  0
 21 22  1  0
 21 23  1  0
 23 24  1  0
 24 25  1  1
 24 31  1  0
 25 26  2  0
 25 30  1  0
 26 27  1  0
 27 28  2  0
 28 29  1  0
 28 30  1  0
M  END
