
     RDKit          3D

 16 15  0  0  0  0  0  0  0  0999 V2000
   -4.9860    2.2070    0.5690 C   0  0  0  0  0  0  0  0  0  0  0  0
   -3.4120    1.6720    1.3870 P   0  0  0  0  0  0  0  0  0  0  0  0
   -2.9710    0.0100    0.8840 N   0  0  0  0  0  0  0  0  0  0  0  0
   -4.1590   -0.6890    0.3810 C   0  0  0  0  0  0  0  0  0  0  0  0
   -3.7140   -1.9710    0.0150 O   0  0  0  0  0  0  0  0  0  0  0  0
   -2.1030    0.0850   -0.1240 O   0  0  0  0  0  0  0  0  0  0  0  0
   -0.8600    0.3830    0.2830 O   0  0  0  0  0  0  0  0  0  0  0  0
    0.2450   -0.3800   -0.0950 C   0  0  0  0  0  0  0  0  0  0  0  0
    0.0310   -1.3580   -0.8340 O   0  0  0  0  0  0  0  0  0  0  0  0
    1.5310   -0.0790    0.3200 O   0  0  0  0  0  0  0  0  0  0  0  0
    2.6440   -0.8510   -0.0650 C   0  0  0  0  0  0  0  0  0  0  0  0
    2.3520   -2.1500   -1.0450 P   0  0  0  0  0  0  0  0  0  0  0  0
    3.9500   -0.5100    0.3840 N   0  0  0  0  0  0  0  0  0  0  0  0
    4.9330   -1.5650    0.4470 C   0  0  0  0  0  0  0  0  0  0  0  0
    4.3280    0.8050    0.7670 C   0  0  0  0  0  0  0  0  0  0  0  0
    4.8560    1.8990   -0.3660 P   0  0  0  0  0  0  0  0  0  0  0  0
  1  2  1  0
  2  3  1  0
  3  4  1  0
  3  6  1  0
  4  5  1  0
  6  7  1  0
  7  8  1  0
  8  9  2  0
  8 10  1  0
 10 11  1  0
 11 12  2  0
 11 13  1  0
 13 14  1  0
 13 15  1  0
 15 16  2  0
M  END
