
     RDKit          3D

 19 18  0  0  0  0  0  0  0  0999 V2000
    4.3140    2.0820   -1.5770 O   0  0  0  0  0  0  0  0  0  0  0  0
    5.1260    0.7930   -1.4160 P   0  0  0  0  0  0  0  0  0  0  0  0
    4.9170   -0.4040   -0.0190 C   0  0  2  0  0  0  0  0  0  0  0  0
    5.1620   -1.6890   -0.4690 O   0  0  0  0  0  0  0  0  0  0  0  0
    3.5040   -0.3590    0.5110 C   0  0  1  0  0  0  0  0  0  0  0  0
    3.2830    0.9520    0.9590 O   0  0  0  0  0  0  0  0  0  0  0  0
    2.2950   -0.7160   -0.8560 P   0  0  0  0  0  0  0  0  0  0  0  0
    1.8980   -2.4070   -0.9230 O   0  0  0  0  0  0  0  0  0  0  0  0
    0.9120    0.2710   -0.6050 O   0  0  0  0  0  0  0  0  0  0  0  0
   -0.0710   -0.3640   -0.0150 O   0  0  0  0  0  0  0  0  0  0  0  0
   -0.8370    0.3990    0.6940 O   0  0  0  0  0  0  0  0  0  0  0  0
   -1.9360    0.9190   -0.0010 C   0  0  2  0  0  0  0  0  0  0  0  0
   -1.7740    2.3770   -0.0960 C   0  0  0  0  0  0  0  0  0  0  0  0
   -1.7160    2.9390    1.1980 O   0  0  0  0  0  0  0  0  0  0  0  0
   -3.0520    0.3680    0.5430 O   0  0  0  0  0  0  0  0  0  0  0  0
   -3.9310   -0.5340    0.0100 C   0  0  0  0  0  0  0  0  0  0  0  0
   -3.6430   -0.8840   -1.1380 O   0  0  0  0  0  0  0  0  0  0  0  0
   -5.1140   -1.0680    0.6900 C   0  0  0  0  0  0  0  0  0  0  0  0
   -5.7610   -1.9570   -0.1640 O   0  0  0  0  0  0  0  0  0  0  0  0
  1  2  2  0
  2  3  1  0
  3  4  1  6
  3  5  1  0
  5  6  1  6
  5  7  1  0
  7  8  1  0
  7  9  1  0
  9 10  1  0
 10 11  1  0
 11 12  1  0
 12 13  1  1
 12 15  1  0
 13 14  1  0
 15 16  1  0
 16 17  2  0
 16 18  1  0
 18 19  1  0
M  END
