
     RDKit          3D

 16 16  0  0  0  0  0  0  0  0999 V2000
    3.7000   -2.1630   -0.3350 C   0  0  0  0  0  0  0  0  0  0  0  0
    2.7700   -1.0230   -0.1340 C   0  0  0  0  0  0  0  0  0  0  0  0
    2.4260   -0.6760    1.0230 O   0  0  0  0  0  0  0  0  0  0  0  0
    2.2640   -0.3220   -1.2010 O   0  0  0  0  0  0  0  0  0  0  0  0
    1.1630    1.0330   -1.0350 P   0  0  0  0  0  0  0  0  0  0  0  0
    1.1680    1.7780    1.0680 P   0  0  0  0  0  0  0  0  0  0  0  0
    1.4990    3.5960    1.1050 C   0  0  0  0  0  0  0  0  0  0  0  0
   -0.4920    1.4790    1.5770 O   0  0  0  0  0  0  0  0  0  0  0  0
   -0.6930    0.2150    1.4340 O   0  0  0  0  0  0  0  0  0  0  0  0
   -1.5250   -0.1580    0.4190 C   0  0  2  0  0  0  0  0  0  0  0  0
   -2.9330    0.3770    0.5580 C   0  0  0  0  0  0  0  0  0  0  0  0
   -3.5680   -0.0830    1.7870 N   0  0  0  0  0  0  0  0  0  0  0  0
   -1.6600   -2.0290    0.5130 P   0  0  0  0  0  0  0  0  0  0  0  0
   -1.6890   -2.9220   -0.7260 O   0  0  0  0  0  0  0  0  0  0  0  0
   -0.9210    0.2880   -1.2640 P   0  0  0  0  0  0  0  0  0  0  0  0
   -0.9750   -1.0810   -2.4070 N   0  0  0  0  0  0  0  0  0  0  0  0
  1  2  1  0
  2  3  2  0
  2  4  1  0
  4  5  1  0
  5  6  1  0
  5 15  1  0
  6  7  1  0
  6  8  1  0
  8  9  1  0
  9 10  1  0
 10 11  1  1
 10 13  1  0
 10 15  1  0
 11 12  1  0
 13 14  2  0
 15 16  1  0
M  END
