
     RDKit          3D

 11 10  0  0  0  0  0  0  0  0999 V2000
   -2.4270    0.9660   -1.7080 O   0  0  0  0  0  0  0  0  0  0  0  0
   -1.4350    1.0900   -0.9270 C   0  0  0  0  0  0  0  0  0  0  0  0
   -0.9530    2.3660   -0.7070 O   0  0  0  0  0  0  0  0  0  0  0  0
   -0.8280   -0.1070   -0.2820 C   0  0  2  0  0  0  0  0  0  0  0  0
   -1.9030   -0.7170    0.5990 C   0  0  0  0  0  0  0  0  0  0  0  0
   -1.3900   -1.8270    1.2680 O   0  0  0  0  0  0  0  0  0  0  0  0
    0.2150    0.2720    0.5060 O   0  0  0  0  0  0  0  0  0  0  0  0
    1.6880   -0.2980    0.2430 P   0  0  0  0  0  0  0  0  0  0  0  0
    2.1150   -0.4490    1.7360 O   0  0  0  0  0  0  0  0  0  0  0  0
    2.9840    0.7540    0.0820 O   0  0  0  0  0  0  0  0  0  0  0  0
    1.5860   -0.4280   -1.2780 O   0  0  0  0  0  0  0  0  0  0  0  0
  1  2  2  0
  2  3  1  0
  2  4  1  0
  4  5  1  1
  4  7  1  0
  5  6  1  0
  7  8  1  0
  8  9  1  0
  8 10  1  0
  8 11  1  0
M  END
