
     RDKit          3D

 16 15  0  0  0  0  0  0  0  0999 V2000
   -4.2990    0.9300    0.0200 C   0  0  0  0  0  0  0  0  0  0  0  0
   -2.9350    1.4320   -0.1380 N   0  0  0  0  0  0  0  0  0  0  0  0
   -2.1560    0.9280    0.8370 O   0  0  0  0  0  0  0  0  0  0  0  0
   -0.9100    1.0020    0.4260 O   0  0  0  0  0  0  0  0  0  0  0  0
   -0.5350   -0.2190   -0.1790 C   0  0  2  0  0  0  0  0  0  0  0  0
   -1.4540   -0.4740   -1.3600 C   0  0  0  0  0  0  0  0  0  0  0  0
   -0.6740   -1.2030    0.8200 O   0  0  0  0  0  0  0  0  0  0  0  0
   -0.4090   -2.5410    0.6460 C   0  0  0  0  0  0  0  0  0  0  0  0
   -0.5660   -3.5080    1.6980 N   0  0  0  0  0  0  0  0  0  0  0  0
   -0.0140   -2.9000   -0.4950 O   0  0  0  0  0  0  0  0  0  0  0  0
    1.1700   -0.0380   -0.8090 P   0  0  0  0  0  0  0  0  0  0  0  0
    2.3930   -1.1180    0.0380 C   0  0  0  0  0  0  0  0  0  0  0  0
    1.6550    1.6240   -0.8920 O   0  0  0  0  0  0  0  0  0  0  0  0
    2.7870    2.0870   -0.2400 C   0  0  0  0  0  0  0  0  0  0  0  0
    2.7400    2.3540    1.3870 P   0  0  0  0  0  0  0  0  0  0  0  0
    4.2750    2.3720   -1.2610 P   0  0  0  0  0  0  0  0  0  0  0  0
  1  2  1  0
  2  3  1  0
  3  4  1  0
  4  5  1  0
  5  6  1  6
  5  7  1  0
  5 11  1  0
  7  8  1  0
  8  9  1  0
  8 10  2  0
 11 12  1  0
 11 13  1  0
 13 14  1  0
 14 15  2  0
 14 16  1  0
M  END
