
     RDKit          3D

 16 17  0  0  0  0  0  0  0  0999 V2000
   -0.1200    2.7050    1.5270 O   0  0  0  0  0  0  0  0  0  0  0  0
   -0.5730    2.3120    0.4930 N   0  0  0  0  0  0  0  0  0  0  0  0
    0.0850    1.2600   -0.2770 C   0  0  1  0  0  0  0  0  0  0  0  0
   -0.1960    1.5970   -1.6230 O   0  0  0  0  0  0  0  0  0  0  0  0
    1.5330    1.3570    0.0040 C   0  0  0  0  0  0  0  0  0  0  0  0
    2.2860    0.2640   -0.3950 O   0  0  0  0  0  0  0  0  0  0  0  0
    2.2520   -0.6880    0.6230 C   0  0  2  0  0  0  0  0  0  0  0  0
    2.6180   -0.0780    1.8320 O   0  0  0  0  0  0  0  0  0  0  0  0
    3.3510   -2.1320    0.2620 P   0  0  0  0  0  0  0  0  0  0  0  0
    0.4640   -1.1940    0.6360 P   0  0  0  0  0  0  0  0  0  0  0  0
   -0.5630    0.0000    0.1120 C   0  0  0  0  0  0  0  0  0  0  0  0
   -2.0370   -0.2170    0.0520 C   0  0  2  0  0  0  0  0  0  0  0  0
   -2.7610    0.6830    0.8630 N   0  0  0  0  0  0  0  0  0  0  0  0
   -4.1520   -0.1060    1.1270 P   0  0  0  0  0  0  0  0  0  0  0  0
   -3.7160   -1.6540    0.1260 C   0  0  0  0  0  0  0  0  0  0  0  0
   -2.3220   -1.5300    0.3850 O   0  0  0  0  0  0  0  0  0  0  0  0
  1  2  2  0
  2  3  1  0
  3  4  1  6
  3  5  1  0
  3 11  1  0
  5  6  1  0
  6  7  1  0
  7  8  1  1
  7  9  1  0
  7 10  1  0
 10 11  2  0
 12 11  1  1
 12 13  1  0
 12 16  1  0
 13 14  2  0
 14 15  1  0
 15 16  1  0
M  END
