
     RDKit          3D

 12 13  0  0  0  0  0  0  0  0999 V2000
    3.6940   -0.8140    0.1520 C   0  0  0  0  0  0  0  0  0  0  0  0
    2.2900   -0.3730    0.1370 C   0  0  0  0  0  0  0  0  0  0  0  0
    1.9170    0.8380    0.5030 C   0  0  0  0  0  0  0  0  0  0  0  0
    0.5770    1.3700    0.5270 C   0  0  0  0  0  0  0  0  0  0  0  0
   -0.5100    0.7120    0.1770 C   0  0  0  0  0  0  0  0  0  0  0  0
   -1.8260    1.3690    0.2450 C   0  0  0  0  0  0  0  0  0  0  0  0
   -1.9480    2.5520    0.6310 O   0  0  0  0  0  0  0  0  0  0  0  0
   -2.9950    0.6720   -0.1280 N   0  0  0  0  0  0  0  0  0  0  0  0
   -2.9760   -0.6880   -0.5850 C   0  0  0  0  0  0  0  0  0  0  0  0
   -1.6190   -1.2520   -0.6180 C   0  0  0  0  0  0  0  0  0  0  0  0
   -0.5140   -0.6520   -0.2850 C   0  0  0  0  0  0  0  0  0  0  0  0
    1.0250   -1.5100   -0.3960 S   0  0  0  0  0  0  0  0  0  0  0  0
  1  2  1  0
  2  3  2  0
  2 12  1  0
  3  4  1  0
  4  5  2  0
  5  6  1  0
  5 11  1  0
  6  7  2  0
  6  8  1  0
  8  9  1  0
  9 10  1  0
 10 11  2  0
 11 12  1  0
M  END
