
     RDKit          3D

 12 13  0  0  0  0  0  0  0  0999 V2000
    2.6090    0.4200   -3.2400 C   0  0  0  0  0  0  0  0  0  0  0  0
    2.2150    0.2510   -1.9580 C   0  0  0  0  0  0  0  0  0  0  0  0
    3.2250   -0.2390   -0.9480 C   0  0  0  0  0  0  0  0  0  0  0  0
    2.0250   -1.3050   -0.0320 S   0  0  0  0  0  0  0  0  0  0  0  0
    0.6220   -0.2070   -0.3910 C   0  0  0  0  0  0  0  0  0  0  0  0
   -0.6050   -0.2240    0.4240 C   0  0  2  0  0  0  0  0  0  0  0  0
   -1.2100   -1.5940    0.3600 C   0  0  0  0  0  0  0  0  0  0  0  0
   -1.5550    0.8400   -0.0860 C   0  0  0  0  0  0  0  0  0  0  0  0
   -2.4440    1.0420    1.1450 C   0  0  0  0  0  0  0  0  0  0  0  0
   -1.6630    0.3150    2.2220 C   0  0  0  0  0  0  0  0  0  0  0  0
   -0.3670    0.2060    1.7190 O   0  0  0  0  0  0  0  0  0  0  0  0
    0.9680    0.4660   -1.3940 N   0  0  0  0  0  0  0  0  0  0  0  0
  1  2  2  0
  2  3  1  0
  2 12  1  0
  3  4  1  0
  4  5  1  0
  5  6  1  0
  5 12  2  0
  6  7  1  1
  6  8  1  0
  6 11  1  0
  8  9  1  0
  9 10  1  0
 10 11  1  0
M  END
