
     RDKit          3D

 12 13  0  0  0  0  0  0  0  0999 V2000
   -1.1710   -0.3590    1.7140 O   0  0  0  0  0  0  0  0  0  0  0  0
   -0.3860   -0.6900    0.5580 C   0  0  1  0  0  0  0  0  0  0  0  0
   -1.4130   -1.5390   -0.2380 C   0  0  0  0  0  0  0  0  0  0  0  0
   -2.6190   -0.7750   -0.2150 N   0  0  0  0  0  0  0  0  0  0  0  0
   -2.7330    0.4880   -0.2220 C   0  0  0  0  0  0  0  0  0  0  0  0
   -1.5300    1.3630   -0.2570 C   0  0  0  0  0  0  0  0  0  0  0  0
   -0.2810    0.5340   -0.1990 C   0  0  0  0  0  0  0  0  0  0  0  0
    0.6520    1.1470   -0.9020 C   0  0  0  0  0  0  0  0  0  0  0  0
    2.0430    0.7910   -1.2040 C   0  0  0  0  0  0  0  0  0  0  0  0
    2.7580    0.5180    0.1020 C   0  0  0  0  0  0  0  0  0  0  0  0
    2.3670   -1.2250    0.4270 S   0  0  0  0  0  0  0  0  0  0  0  0
    0.7380   -1.4470    1.0470 C   0  0  0  0  0  0  0  0  0  0  0  0
  2  1  1  1
  2  3  1  0
  2  7  1  0
  2 12  1  0
  3  4  1  0
  4  5  2  0
  5  6  1  0
  6  7  1  0
  7  8  2  0
  8  9  1  0
  9 10  1  0
 10 11  1  0
 11 12  1  0
M  END
