
     RDKit          3D

 10  9  0  0  0  0  0  0  0  0999 V2000
    0.5900    1.9380    1.0770 N   0  0  0  0  0  0  0  0  0  0  0  0
   -0.3700    1.3550    0.4820 C   0  0  0  0  0  0  0  0  0  0  0  0
   -1.5310    2.1660    0.3050 O   0  0  0  0  0  0  0  0  0  0  0  0
   -0.4310    0.0270   -0.0200 C   0  0  0  0  0  0  0  0  0  0  0  0
    0.5260   -0.8470    0.0500 C   0  0  0  0  0  0  0  0  0  0  0  0
    1.8480   -0.6480    0.6530 C   0  0  0  0  0  0  0  0  0  0  0  0
    2.7750   -0.8680   -0.4050 O   0  0  0  0  0  0  0  0  0  0  0  0
   -1.6720   -0.4320   -0.6840 C   0  0  0  0  0  0  0  0  0  0  0  0
   -1.8270   -1.7240   -1.2110 N   0  0  0  0  0  0  0  0  0  0  0  0
   -2.6200    0.3680   -0.7780 O   0  0  0  0  0  0  0  0  0  0  0  0
  1  2  2  0
  2  3  1  0
  2  4  1  0
  4  5  2  3
  4  8  1  0
  5  6  1  0
  6  7  1  0
  8  9  1  0
  8 10  2  0
M  END
