
     RDKit          3D

 10  9  0  0  0  0  0  0  0  0999 V2000
    1.3390    1.4460   -0.0770 N   0  0  0  0  0  0  0  0  0  0  0  0
    1.1760    0.0500   -0.3260 C   0  0  0  0  0  0  0  0  0  0  0  0
    0.0130   -0.5520   -0.2340 C   0  0  0  0  0  0  0  0  0  0  0  0
   -1.1660    0.2180    0.1360 C   0  0  0  0  0  0  0  0  0  0  0  0
   -1.0510    1.4430    0.3600 O   0  0  0  0  0  0  0  0  0  0  0  0
   -2.4480   -0.3900    0.2490 N   0  0  0  0  0  0  0  0  0  0  0  0
   -3.5880    0.3980    0.6150 C   0  0  0  0  0  0  0  0  0  0  0  0
   -3.4790    1.6340    0.8420 O   0  0  0  0  0  0  0  0  0  0  0  0
    2.3690   -0.7450   -0.7040 C   0  0  0  0  0  0  0  0  0  0  0  0
    3.3140   -0.6690    0.3240 O   0  0  0  0  0  0  0  0  0  0  0  0
  1  2  1  0
  2  3  2  3
  2  9  1  0
  3  4  1  0
  4  5  2  0
  4  6  1  0
  6  7  1  0
  7  8  2  0
  9 10  1  0
M  END
