
     RDKit          3D

 24 27  0  0  0  0  0  0  0  0999 V2000
    3.5180   -1.0460    2.6840 C   0  0  0  0  0  0  0  0  0  0  0  0
    3.7400   -0.2650    1.4420 C   0  0  0  0  0  0  0  0  0  0  0  0
    4.9720    0.2640    1.1920 C   0  0  0  0  0  0  0  0  0  0  0  0
    5.1770    0.9910    0.0360 C   0  0  0  0  0  0  0  0  0  0  0  0
    6.5340    1.5490   -0.1960 C   0  0  0  0  0  0  0  0  0  0  0  0
    4.1390    1.1660   -0.8380 C   0  0  0  0  0  0  0  0  0  0  0  0
    2.8600    0.6430   -0.6230 C   0  0  0  0  0  0  0  0  0  0  0  0
    1.8620    0.8760   -1.6040 N   0  0  0  0  0  0  0  0  0  0  0  0
    0.4990    0.6320   -1.5080 C   0  0  0  0  0  0  0  0  0  0  0  0
   -0.0140    0.1500   -0.3760 N   0  0  0  0  0  0  0  0  0  0  0  0
   -1.3140   -0.1130   -0.1550 C   0  0  0  0  0  0  0  0  0  0  0  0
   -1.9570   -0.5930    0.9210 N   0  0  0  0  0  0  0  0  0  0  0  0
   -3.2800   -0.6720    0.6270 C   0  0  0  0  0  0  0  0  0  0  0  0
   -3.4430   -0.2250   -0.6690 C   0  0  0  0  0  0  0  0  0  0  0  0
   -2.2280    0.1270   -1.1700 C   0  0  0  0  0  0  0  0  0  0  0  0
   -1.7560    0.6210   -2.3510 C   0  0  0  0  0  0  0  0  0  0  0  0
   -0.3770    0.8790   -2.5300 C   0  0  0  0  0  0  0  0  0  0  0  0
   -0.0050    1.3840   -3.7980 C   0  0  0  0  0  0  0  0  0  0  0  0
    1.1330    1.6690   -4.1730 O   0  0  0  0  0  0  0  0  0  0  0  0
   -4.8110   -0.2120   -1.2350 C   0  0  0  0  0  0  0  0  0  0  0  0
   -5.4860   -1.4980   -0.7430 C   0  0  0  0  0  0  0  0  0  0  0  0
   -5.6260   -1.4680    0.7520 C   0  0  0  0  0  0  0  0  0  0  0  0
   -4.3800   -1.1370    1.4870 C   0  0  0  0  0  0  0  0  0  0  0  0
    2.7090   -0.0700    0.5380 C   0  0  0  0  0  0  0  0  0  0  0  0
  1  2  1  0
  2  3  2  0
  2 24  1  0
  3  4  1  0
  4  5  1  0
  4  6  2  0
  6  7  1  0
  7  8  1  0
  7 24  2  0
  8  9  1  0
  9 10  2  0
  9 17  1  0
 10 11  1  0
 11 12  1  0
 11 15  2  0
 12 13  1  0
 13 14  2  0
 13 23  1  0
 14 15  1  0
 14 20  1  0
 15 16  1  0
 16 17  2  0
 17 18  1  0
 18 19  2  0
 20 21  1  0
 21 22  1  0
 22 23  1  0
M  END
