
     RDKit          3D

 16 15  0  0  0  0  0  0  0  0999 V2000
   -6.2940    1.3410   -0.3330 C   0  0  0  0  0  0  0  0  0  0  0  0
   -5.5740    0.1890    0.2930 C   0  0  0  0  0  0  0  0  0  0  0  0
   -4.1180    0.2400   -0.0760 C   0  0  0  0  0  0  0  0  0  0  0  0
   -3.5450   -0.7420   -0.7320 C   0  0  0  0  0  0  0  0  0  0  0  0
   -2.1810   -0.9070   -1.1830 C   0  0  0  0  0  0  0  0  0  0  0  0
   -1.1650    0.1090   -0.8690 C   0  0  0  0  0  0  0  0  0  0  0  0
   -0.8100    0.3330    0.5540 C   0  0  0  0  0  0  0  0  0  0  0  0
   -0.2670   -0.9190    1.2230 C   0  0  0  0  0  0  0  0  0  0  0  0
    0.9640   -1.4570    0.5660 C   0  0  0  0  0  0  0  0  0  0  0  0
    2.1390   -0.5150    0.5430 C   0  0  0  0  0  0  0  0  0  0  0  0
    3.3020   -1.2120   -0.1400 C   0  0  0  0  0  0  0  0  0  0  0  0
    4.5230   -0.3360   -0.2050 C   0  0  0  0  0  0  0  0  0  0  0  0
    4.2860    0.9380   -0.9660 C   0  0  0  0  0  0  0  0  0  0  0  0
    5.5610    1.7090   -0.9580 C   0  0  0  0  0  0  0  0  0  0  0  0
    5.5940    2.8370   -1.5510 O   0  0  0  0  0  0  0  0  0  0  0  0
    6.7140    1.2920   -0.3540 O   0  0  0  0  0  0  0  0  0  0  0  0
  1  2  1  0
  2  3  1  0
  3  4  2  3
  4  5  1  0
  5  6  1  0
  6  7  1  0
  7  8  1  0
  8  9  1  0
  9 10  1  0
 10 11  1  0
 11 12  1  0
 12 13  1  0
 13 14  1  0
 14 15  2  0
 14 16  1  0
M  END
