
     RDKit          3D

 20 20  0  0  0  0  0  0  0  0999 V2000
    3.7410    0.8550    1.4180 C   0  0  0  0  0  0  0  0  0  0  0  0
    4.1810    0.2530    0.3210 O   0  0  0  0  0  0  0  0  0  0  0  0
    3.6160   -0.7480   -0.3420 C   0  0  0  0  0  0  0  0  0  0  0  0
    2.2180   -0.5340   -0.8230 C   0  0  1  0  0  0  0  0  0  0  0  0
    1.8540   -1.6550   -1.7070 O   0  0  0  0  0  0  0  0  0  0  0  0
    0.5780   -1.3930   -2.2630 C   0  0  0  0  0  0  0  0  0  0  0  0
    0.1200   -2.1680   -3.1400 O   0  0  0  0  0  0  0  0  0  0  0  0
   -0.1640   -0.2070   -1.7780 C   0  0  1  0  0  0  0  0  0  0  0  0
   -1.4660   -0.3050   -2.3020 O   0  0  0  0  0  0  0  0  0  0  0  0
   -0.1320    0.0100   -0.2980 C   0  0  1  0  0  0  0  0  0  0  0  0
    0.0790    1.4760   -0.0220 C   0  0  0  0  0  0  0  0  0  0  0  0
    0.0910    1.8440    1.2900 O   0  0  0  0  0  0  0  0  0  0  0  0
   -1.2250   -0.5480    0.4960 C   0  0  0  0  0  0  0  0  0  0  0  0
   -2.6410   -0.1830    0.2740 C   0  0  1  0  0  0  0  0  0  0  0  0
   -3.4230   -0.9980    1.2910 N   0  0  0  0  0  0  0  0  0  0  0  0
   -3.0570    1.1940    0.5830 C   0  0  0  0  0  0  0  0  0  0  0  0
   -3.1630    2.2610   -0.3490 N   0  0  0  0  0  0  0  0  0  0  0  0
   -3.3590    1.4760    1.7840 O   0  0  0  0  0  0  0  0  0  0  0  0
    1.1610   -0.6910    0.2590 C   0  0  1  0  0  0  0  0  0  0  0  0
    0.9440   -2.0340    0.4670 O   0  0  0  0  0  0  0  0  0  0  0  0
  1  2  1  0
  2  3  1  0
  4  3  1  1
  4  5  1  0
  4 19  1  0
  5  6  1  0
  6  7  2  0
  6  8  1  0
  8  9  1  1
  8 10  1  0
 10 11  1  6
 10 13  1  0
 10 19  1  0
 11 12  1  0
 13 14  1  0
 14 15  1  1
 14 16  1  0
 16 17  1  0
 16 18  2  0
 19 20  1  6
M  CHG  1  15   1
M  END
