
     RDKit          3D

 19 21  0  0  0  0  0  0  0  0999 V2000
   -1.5470   -2.8640    0.7110 C   0  0  0  0  0  0  0  0  0  0  0  0
   -1.0120   -1.5140    0.4030 C   0  0  0  0  0  0  0  0  0  0  0  0
    0.2850   -1.2500    0.3680 C   0  0  0  0  0  0  0  0  0  0  0  0
    1.2310   -2.3620    0.6500 C   0  0  0  0  0  0  0  0  0  0  0  0
    0.7770    0.0400    0.0720 N   0  0  0  0  0  0  0  0  0  0  0  0
    2.1790    0.3460    0.0200 C   0  0  0  0  0  0  0  0  0  0  0  0
    3.0060   -0.2940   -0.8740 C   0  0  0  0  0  0  0  0  0  0  0  0
    4.3500    0.0360   -0.8870 C   0  0  0  0  0  0  0  0  0  0  0  0
    4.8990    0.9810   -0.0420 C   0  0  0  0  0  0  0  0  0  0  0  0
    4.0640    1.6220    0.8540 C   0  0  0  0  0  0  0  0  0  0  0  0
    2.7240    1.2910    0.8650 C   0  0  0  0  0  0  0  0  0  0  0  0
    1.9420    1.9490    1.7660 F   0  0  0  0  0  0  0  0  0  0  0  0
   -0.1170    1.1400   -0.2000 C   0  0  0  0  0  0  0  0  0  0  0  0
   -1.5360    0.7660   -0.1410 C   0  0  0  0  0  0  0  0  0  0  0  0
   -1.9890   -0.4390    0.1310 C   0  0  0  0  0  0  0  0  0  0  0  0
   -3.3430   -0.6510    0.1530 O   0  0  0  0  0  0  0  0  0  0  0  0
   -4.3060    0.3300    0.4980 C   0  0  0  0  0  0  0  0  0  0  0  0
   -3.6960    1.7120    0.5630 C   0  0  0  0  0  0  0  0  0  0  0  0
   -2.5350    1.8390   -0.4140 C   0  0  0  0  0  0  0  0  0  0  0  0
  1  2  1  0
  2  3  2  0
  2 15  1  0
  3  4  1  0
  3  5  1  0
  5  6  1  0
  5 13  1  0
  6  7  2  0
  6 11  1  0
  7  8  1  0
  8  9  2  0
  9 10  1  0
 10 11  2  0
 11 12  1  0
 13 14  1  0
 14 15  2  0
 14 19  1  0
 15 16  1  0
 16 17  1  0
 17 18  1  0
 18 19  1  0
M  END
