
     RDKit          3D

 19 21  0  0  0  0  0  0  0  0999 V2000
   -4.3130    0.3170   -0.4490 C   0  0  0  0  0  0  0  0  0  0  0  0
   -3.5380    0.2480    0.8180 C   0  0  0  0  0  0  0  0  0  0  0  0
   -2.0640    0.3550    0.6390 C   0  0  0  0  0  0  0  0  0  0  0  0
   -1.3840    1.5180    0.9620 C   0  0  0  0  0  0  0  0  0  0  0  0
   -0.0180    1.6150    0.8030 C   0  0  0  0  0  0  0  0  0  0  0  0
    0.6650    0.5210    0.3120 C   0  0  0  0  0  0  0  0  0  0  0  0
    0.0090   -0.6500   -0.0180 C   0  0  0  0  0  0  0  0  0  0  0  0
    0.6890   -1.7050   -0.4940 N   0  0  0  0  0  0  0  0  0  0  0  0
    2.0070   -1.7050   -0.6790 C   0  0  0  0  0  0  0  0  0  0  0  0
    2.6220   -2.7250   -1.1330 O   0  0  0  0  0  0  0  0  0  0  0  0
    2.6790   -0.5510   -0.3580 C   0  0  0  0  0  0  0  0  0  0  0  0
    4.0610   -0.5330   -0.5450 C   0  0  0  0  0  0  0  0  0  0  0  0
    4.7660    0.6100   -0.2330 C   0  0  0  0  0  0  0  0  0  0  0  0
    4.1330    1.7250    0.2580 C   0  0  0  0  0  0  0  0  0  0  0  0
    4.7910    2.8440    0.5690 F   0  0  0  0  0  0  0  0  0  0  0  0
    2.7460    1.7150    0.4490 C   0  0  0  0  0  0  0  0  0  0  0  0
    2.0400    0.5910    0.1430 C   0  0  0  0  0  0  0  0  0  0  0  0
   -1.3640   -0.7200    0.1510 C   0  0  0  0  0  0  0  0  0  0  0  0
   -2.0090   -2.0110   -0.2320 C   0  0  0  0  0  0  0  0  0  0  0  0
  1  2  1  0
  2  3  1  0
  3  4  2  0
  3 18  1  0
  4  5  1  0
  5  6  2  0
  6  7  1  0
  6 17  1  0
  7  8  1  0
  7 18  2  0
  8  9  1  0
  9 10  2  0
  9 11  1  0
 11 12  2  0
 11 17  1  0
 12 13  1  0
 13 14  2  0
 14 15  1  0
 14 16  1  0
 16 17  2  0
 18 19  1  0
M  END
