
     RDKit          3D

 20 20  0  0  0  0  0  0  0  0999 V2000
   -0.8160   -2.4550   -0.5730 C   0  0  0  0  0  0  0  0  0  0  0  0
   -1.3280   -1.0620   -0.8960 C   0  0  2  0  0  0  0  0  0  0  0  0
   -2.1000   -1.2290   -2.0630 O   0  0  0  0  0  0  0  0  0  0  0  0
   -0.3000   -0.1350   -1.1690 N   0  0  0  0  0  0  0  0  0  0  0  0
    0.7470    0.1650   -0.2660 C   0  0  0  0  0  0  0  0  0  0  0  0
    0.8040   -0.4050    0.8430 O   0  0  0  0  0  0  0  0  0  0  0  0
    1.7450    1.0900   -0.5600 O   0  0  0  0  0  0  0  0  0  0  0  0
    2.8070    1.4270    0.2940 C   0  0  0  0  0  0  0  0  0  0  0  0
    3.6970    0.2630    0.6470 C   0  0  2  0  0  0  0  0  0  0  0  0
    4.7470    0.7550    1.5290 N   0  0  0  0  0  0  0  0  0  0  0  0
    4.3700   -0.3110   -0.5650 C   0  0  0  0  0  0  0  0  0  0  0  0
    5.1340    0.6660   -1.2290 O   0  0  0  0  0  0  0  0  0  0  0  0
   -2.2390   -0.6130    0.1790 C   0  0  2  0  0  0  0  0  0  0  0  0
   -1.6840   -0.3880    1.4100 O   0  0  0  0  0  0  0  0  0  0  0  0
   -3.3720   -1.6350    0.4160 C   0  0  0  0  0  0  0  0  0  0  0  0
   -4.2820   -0.9120    1.1400 O   0  0  0  0  0  0  0  0  0  0  0  0
   -4.2670    0.3890    0.7170 C   0  0  0  0  0  0  0  0  0  0  0  0
   -3.1300    0.5580   -0.2600 C   0  0  1  0  0  0  0  0  0  0  0  0
   -2.4280    1.8800   -0.0940 C   0  0  0  0  0  0  0  0  0  0  0  0
   -3.2780    2.8990   -0.5050 O   0  0  0  0  0  0  0  0  0  0  0  0
  2  1  1  1
  2  3  1  0
  2  4  1  0
  2 13  1  0
  4  5  1  0
  5  6  2  0
  5  7  1  0
  7  8  1  0
  8  9  1  0
  9 10  1  1
  9 11  1  0
 11 12  1  0
 13 14  1  1
 13 15  1  0
 13 18  1  0
 15 16  1  0
 16 17  1  0
 17 18  1  0
 18 19  1  1
 19 20  1  0
M  CHG  1  10   1
M  END
