
     RDKit          3D

 19 21  0  0  0  0  0  0  0  0999 V2000
    0.8310    0.8190   -2.5670 C   0  0  0  0  0  0  0  0  0  0  0  0
    1.7250    0.5440   -1.4320 C   0  0  0  0  0  0  0  0  0  0  0  0
    3.0160    0.7860   -1.5000 N   0  0  0  0  0  0  0  0  0  0  0  0
    3.6460    0.4340   -0.2790 C   0  0  0  0  0  0  0  0  0  0  0  0
    4.9240    0.5290    0.0400 C   0  0  0  0  0  0  0  0  0  0  0  0
    5.9030    1.0550   -0.9280 C   0  0  0  0  0  0  0  0  0  0  0  0
    6.5440    2.1880   -0.4520 F   0  0  0  0  0  0  0  0  0  0  0  0
    2.5620   -0.0580    0.5520 C   0  0  0  0  0  0  0  0  0  0  0  0
    1.4020    0.0030   -0.1300 C   0  0  0  0  0  0  0  0  0  0  0  0
    0.1110   -0.4140    0.4060 C   0  0  0  0  0  0  0  0  0  0  0  0
    0.0470   -0.9050    1.6940 C   0  0  0  0  0  0  0  0  0  0  0  0
   -1.1520   -1.3180    2.2610 C   0  0  0  0  0  0  0  0  0  0  0  0
   -2.3320   -1.2480    1.5410 C   0  0  0  0  0  0  0  0  0  0  0  0
   -2.2780   -0.7610    0.2580 C   0  0  0  0  0  0  0  0  0  0  0  0
   -1.0570   -0.3490   -0.2940 C   0  0  0  0  0  0  0  0  0  0  0  0
   -3.5400   -0.6840   -0.5200 C   0  0  0  0  0  0  0  0  0  0  0  0
   -4.7180   -0.3470    0.3310 C   0  0  0  0  0  0  0  0  0  0  0  0
   -4.7020   -0.9240    1.7070 C   0  0  0  0  0  0  0  0  0  0  0  0
   -3.5460   -1.6410    2.0450 O   0  0  0  0  0  0  0  0  0  0  0  0
  1  2  1  0
  2  3  2  0
  2  9  1  0
  3  4  1  0
  4  5  2  3
  4  8  1  0
  5  6  1  0
  6  7  1  0
  8  9  2  0
  9 10  1  0
 10 11  2  0
 10 15  1  0
 11 12  1  0
 12 13  2  0
 13 14  1  0
 13 19  1  0
 14 15  2  0
 14 16  1  0
 16 17  1  0
 17 18  1  0
 18 19  1  0
M  END
