
     RDKit          3D

 15 16  0  0  0  0  0  0  0  0999 V2000
   -4.2340   -0.5540   -1.2440 C   0  0  0  0  0  0  0  0  0  0  0  0
   -3.1180    0.2160   -0.5280 C   0  0  0  0  0  0  0  0  0  0  0  0
   -1.8180   -0.0920   -0.4600 C   0  0  0  0  0  0  0  0  0  0  0  0
   -0.9840    0.7260    0.2300 C   0  0  0  0  0  0  0  0  0  0  0  0
    0.4570    0.5230    0.3930 N   0  0  0  0  0  0  0  0  0  0  0  0
    1.0260   -0.6390   -0.2300 C   0  0  0  0  0  0  0  0  0  0  0  0
    2.4670   -0.7510   -0.0090 C   0  0  0  0  0  0  0  0  0  0  0  0
    3.2230    0.0960    0.6830 N   0  0  0  0  0  0  0  0  0  0  0  0
    4.4660   -0.3500    0.6520 N   0  0  0  0  0  0  0  0  0  0  0  0
    4.4820   -1.4820   -0.0650 C   0  0  0  0  0  0  0  0  0  0  0  0
    5.5060   -2.1730   -0.2970 O   0  0  0  0  0  0  0  0  0  0  0  0
    3.2480   -1.6940   -0.4510 O   0  0  0  0  0  0  0  0  0  0  0  0
   -1.5260    1.8270    0.8200 C   0  0  0  0  0  0  0  0  0  0  0  0
   -0.8800    3.1570    1.7980 S   0  0  0  0  0  0  0  0  0  0  0  0
   -3.3080    1.6410    0.3400 S   0  0  0  0  0  0  0  0  0  0  0  0
  1  2  1  0
  2  3  2  0
  2 15  1  0
  3  4  1  0
  4  5  1  0
  4 13  2  0
  5  6  1  0
  6  7  1  0
  7  8  2  0
  7 12  1  0
  8  9  1  0
  9 10  1  0
 10 11  2  0
 10 12  1  0
 13 14  1  0
 13 15  1  0
M  END
