
     RDKit          3D

 16 17  0  0  0  0  0  0  0  0999 V2000
   -4.1760   -0.4460   -0.5120 O   0  0  0  0  0  0  0  0  0  0  0  0
   -3.6090    0.6710   -0.6600 C   0  0  0  0  0  0  0  0  0  0  0  0
   -4.5010    2.2080   -0.4910 Cl  0  0  0  0  0  0  0  0  0  0  0  0
   -2.2400    0.7670   -0.9520 N   0  0  0  0  0  0  0  0  0  0  0  0
   -1.2270   -0.2000   -1.1180 C   0  0  0  0  0  0  0  0  0  0  0  0
   -0.8110   -0.6990    0.2490 C   0  0  0  0  0  0  0  0  0  0  0  0
   -1.8100   -1.4940    1.4650 S   0  0  0  0  0  0  0  0  0  0  0  0
   -0.4080   -2.0290    2.5300 C   0  0  0  0  0  0  0  0  0  0  0  0
    0.6430   -1.5550    1.8590 C   0  0  0  0  0  0  0  0  0  0  0  0
    0.4400   -0.8720    0.6900 C   0  0  0  0  0  0  0  0  0  0  0  0
    1.5250   -0.0130   -0.0010 C   0  0  0  0  0  0  0  0  0  0  0  0
    1.6150    1.1200   -0.2600 N   0  0  0  0  0  0  0  0  0  0  0  0
    2.6740    1.7520   -0.7300 N   0  0  0  0  0  0  0  0  0  0  0  0
    3.7460    1.0320   -0.9230 C   0  0  0  0  0  0  0  0  0  0  0  0
    4.9480    1.2320   -1.3310 O   0  0  0  0  0  0  0  0  0  0  0  0
    3.1970   -0.6510   -0.3960 S   0  0  0  0  0  0  0  0  0  0  0  0
  1  2  2  0
  2  3  1  0
  2  4  1  0
  4  5  1  0
  5  6  1  0
  6  7  1  0
  6 10  2  0
  7  8  1  0
  8  9  2  0
  9 10  1  0
 10 11  1  0
 11 12  2  0
 11 16  1  0
 12 13  1  0
 13 14  1  0
 14 15  2  0
 14 16  1  0
M  END
