
     RDKit          3D

 37 37  0  0  0  0  0  0  0  0999 V2000
   -7.1590   -3.1430    0.3910 C   0  0  0  0  0  0  0  0  0  0  0  0
   -6.4250   -2.9410    1.6990 C   0  0  0  0  0  0  0  0  0  0  0  0
   -5.1040   -2.4820    1.4280 O   0  0  0  0  0  0  0  0  0  0  0  0
   -4.8950   -1.2970    0.7450 C   0  0  0  0  0  0  0  0  0  0  0  0
   -5.8590   -0.5930    0.3460 O   0  0  0  0  0  0  0  0  0  0  0  0
   -3.5510   -0.8770    0.4960 N   0  0  0  0  0  0  0  0  0  0  0  0
   -3.2650    0.3400   -0.2050 C   0  0  0  0  0  0  0  0  0  0  0  0
   -1.7410    0.5610   -0.3310 C   0  0  2  0  0  0  0  0  0  0  0  0
   -1.3100    0.6810    1.1250 C   0  0  0  0  0  0  0  0  0  0  0  0
   -1.6400    1.7270   -1.0240 O   0  0  0  0  0  0  0  0  0  0  0  0
   -2.4400    2.7610   -0.6590 C   0  0  0  0  0  0  0  0  0  0  0  0
   -1.6690    4.0570   -0.9560 C   0  0  0  0  0  0  0  0  0  0  0  0
   -0.7220    4.3070   -0.0150 O   0  0  0  0  0  0  0  0  0  0  0  0
    0.2640    3.6590    0.6200 C   0  0  0  0  0  0  0  0  0  0  0  0
    0.1910    3.4280    1.8940 O   0  0  0  0  0  0  0  0  0  0  0  0
    1.4960    3.1590   -0.0190 C   0  0  2  0  0  0  0  0  0  0  0  0
    2.3930    2.4930    0.9970 C   0  0  0  0  0  0  0  0  0  0  0  0
    2.7100    3.5200    1.9940 N   0  0  0  0  0  0  0  0  0  0  0  0
    2.2970    4.4270   -0.4300 C   0  0  0  0  0  0  0  0  0  0  0  0
    3.5150    4.0310   -0.9940 O   0  0  0  0  0  0  0  0  0  0  0  0
    4.2730    5.1240   -1.3810 C   0  0  0  0  0  0  0  0  0  0  0  0
    1.2970    2.4110   -1.2280 N   0  0  0  0  0  0  0  0  0  0  0  0
    1.7790    1.1620   -1.6400 C   0  0  0  0  0  0  0  0  0  0  0  0
    2.7330    1.3030   -2.5540 O   0  0  0  0  0  0  0  0  0  0  0  0
    1.4180   -0.2150   -1.2460 C   0  0  0  0  0  0  0  0  0  0  0  0
    2.4460   -0.9390   -0.8040 C   0  0  0  0  0  0  0  0  0  0  0  0
    2.2130   -2.3270   -0.3790 C   0  0  0  0  0  0  0  0  0  0  0  0
    3.1950   -3.0840    0.0640 C   0  0  0  0  0  0  0  0  0  0  0  0
    2.9310   -4.4700    0.4820 C   0  0  0  0  0  0  0  0  0  0  0  0
    3.3030   -4.6700    1.9360 C   0  0  0  0  0  0  0  0  0  0  0  0
    5.1110   -4.2990    2.1380 P   0  0  0  0  0  0  0  0  0  0  0  0
    5.9190   -4.1510    0.6310 O   0  0  0  0  0  0  0  0  0  0  0  0
    5.8970   -5.4430    3.1480 O   0  0  0  0  0  0  0  0  0  0  0  0
    0.1070   -0.8470   -1.3500 C   0  0  0  0  0  0  0  0  0  0  0  0
   -1.0990   -0.5730   -1.0140 C   0  0  0  0  0  0  0  0  0  0  0  0
   -2.0730   -1.5870   -1.3740 O   0  0  0  0  0  0  0  0  0  0  0  0
   -2.3190   -1.8030   -2.7550 C   0  0  0  0  0  0  0  0  0  0  0  0
  1  2  1  0
  2  3  1  0
  3  4  1  0
  4  5  2  0
  4  6  1  0
  6  7  1  0
  7  8  1  0
  8  9  1  1
  8 10  1  0
  8 35  1  0
 10 11  1  0
 11 12  1  0
 12 13  1  0
 13 14  1  0
 14 15  2  0
 14 16  1  0
 16 17  1  1
 16 19  1  0
 16 22  1  0
 17 18  1  0
 19 20  1  0
 20 21  1  0
 22 23  1  0
 23 24  2  0
 23 25  1  0
 25 26  2  3
 25 34  1  0
 26 27  1  0
 27 28  2  3
 28 29  1  0
 29 30  1  0
 30 31  1  0
 31 32  1  0
 31 33  1  0
 34 35  2  0
 35 36  1  0
 36 37  1  0
M  END
