
     RDKit          3D

 36 37  0  0  0  0  0  0  0  0999 V2000
   -6.3920    1.1560   -0.6550 C   0  0  0  0  0  0  0  0  0  0  0  0
   -5.4550    0.0830   -0.0550 C   0  0  2  0  0  0  0  0  0  0  0  0
   -6.0940   -0.3600    1.2720 C   0  0  0  0  0  0  0  0  0  0  0  0
   -4.1340    0.7290    0.2650 C   0  0  0  0  0  0  0  0  0  0  0  0
   -3.0890   -0.2060    0.8240 C   0  0  2  0  0  0  0  0  0  0  0  0
   -1.8930    0.4210    1.1220 N   0  0  0  0  0  0  0  0  0  0  0  0
   -1.0270    1.2670   -0.0760 P   0  0  0  0  0  0  0  0  0  0  0  0
   -1.6970    1.4190   -1.5840 O   0  0  0  0  0  0  0  0  0  0  0  0
   -1.7550    2.5600    0.3390 O   0  0  0  0  0  0  0  0  0  0  0  0
    0.5870    1.8400    0.2500 C   0  0  2  0  0  0  0  0  0  0  0  0
    0.7820    3.3060   -0.1190 C   0  0  0  0  0  0  0  0  0  0  0  0
    2.1510    3.7730    0.1630 C   0  0  0  0  0  0  0  0  0  0  0  0
    3.1830    3.6890   -0.7670 C   0  0  0  0  0  0  0  0  0  0  0  0
    4.4610    4.1450   -0.4590 C   0  0  0  0  0  0  0  0  0  0  0  0
    4.7440    4.6930    0.7780 C   0  0  0  0  0  0  0  0  0  0  0  0
    3.7350    4.7760    1.6920 C   0  0  0  0  0  0  0  0  0  0  0  0
    2.4760    4.3260    1.3860 C   0  0  0  0  0  0  0  0  0  0  0  0
    1.7050    1.1500   -0.3070 N   0  0  0  0  0  0  0  0  0  0  0  0
    2.6190    0.4650    0.5270 C   0  0  0  0  0  0  0  0  0  0  0  0
    2.4210    0.4770    1.7800 O   0  0  0  0  0  0  0  0  0  0  0  0
    3.7320   -0.2310    0.0820 O   0  0  0  0  0  0  0  0  0  0  0  0
    4.6000   -0.8960    0.9610 C   0  0  0  0  0  0  0  0  0  0  0  0
    5.7040   -1.5520    0.2330 C   0  0  0  0  0  0  0  0  0  0  0  0
    6.0110   -1.2590   -1.0960 C   0  0  0  0  0  0  0  0  0  0  0  0
    7.0410   -1.8920   -1.7430 C   0  0  0  0  0  0  0  0  0  0  0  0
    7.8170   -2.8470   -1.1010 C   0  0  0  0  0  0  0  0  0  0  0  0
    7.5290   -3.1510    0.2130 C   0  0  0  0  0  0  0  0  0  0  0  0
    6.4880   -2.4990    0.8380 C   0  0  0  0  0  0  0  0  0  0  0  0
   -2.9900   -1.3560   -0.1360 C   0  0  0  0  0  0  0  0  0  0  0  0
   -2.2280   -1.3460   -1.1360 O   0  0  0  0  0  0  0  0  0  0  0  0
   -3.7510   -2.5470    0.0190 N   0  0  0  0  0  0  0  0  0  0  0  0
   -3.6650   -3.6670   -0.9020 C   0  0  1  0  0  0  0  0  0  0  0  0
   -2.9950   -4.8640   -0.2580 C   0  0  0  0  0  0  0  0  0  0  0  0
   -4.9510   -4.0430   -1.4990 C   0  0  0  0  0  0  0  0  0  0  0  0
   -5.9890   -3.4160   -1.2080 O   0  0  0  0  0  0  0  0  0  0  0  0
   -4.9990   -5.1010   -2.3890 O   0  0  0  0  0  0  0  0  0  0  0  0
  2  1  1  1
  2  3  1  0
  2  4  1  0
  5  4  1  6
  5  6  1  0
  5 29  1  0
  6  7  1  0
  7  8  1  0
  7  9  1  0
  7 10  1  0
 10 11  1  6
 10 18  1  0
 11 12  1  0
 12 13  2  0
 12 17  1  0
 13 14  1  0
 14 15  2  0
 15 16  1  0
 16 17  2  0
 18 19  1  0
 19 20  2  0
 19 21  1  0
 21 22  1  0
 22 23  1  0
 23 24  2  0
 23 28  1  0
 24 25  1  0
 25 26  2  0
 26 27  1  0
 27 28  2  0
 29 30  2  0
 29 31  1  0
 31 32  1  0
 32 33  1  1
 32 34  1  0
 34 35  2  0
 34 36  1  0
M  END
