
     RDKit          3D

 29 31  0  0  0  0  0  0  0  0999 V2000
    3.2720   -2.2490   -1.9130 O   0  0  0  0  0  0  0  0  0  0  0  0
    2.3140   -2.3280   -1.1130 C   0  0  0  0  0  0  0  0  0  0  0  0
    1.8100   -3.6020   -0.8910 O   0  0  0  0  0  0  0  0  0  0  0  0
    1.7280   -1.1690   -0.4260 C   0  0  0  0  0  0  0  0  0  0  0  0
    2.2380    0.1720   -0.7070 C   0  0  0  0  0  0  0  0  0  0  0  0
    3.7140    0.3020   -0.6510 C   0  0  0  0  0  0  0  0  0  0  0  0
    4.3570    0.3100   -1.9090 C   0  0  0  0  0  0  0  0  0  0  0  0
    5.7240    0.3860   -1.9790 C   0  0  0  0  0  0  0  0  0  0  0  0
    6.4970    0.4570   -0.8320 C   0  0  0  0  0  0  0  0  0  0  0  0
    5.8450    0.4480    0.3660 C   0  0  0  0  0  0  0  0  0  0  0  0
    4.4360    0.3710    0.4730 C   0  0  0  0  0  0  0  0  0  0  0  0
    3.8640    0.3710    1.7630 N   0  0  0  0  0  0  0  0  0  0  0  0
    4.5290   -0.1130    2.6960 O   0  0  0  0  0  0  0  0  0  0  0  0
    2.6420    0.8720    2.0030 O   0  0  0  0  0  0  0  0  0  0  0  0
    0.7650   -1.3650    0.3610 N   0  0  0  0  0  0  0  0  0  0  0  0
    0.0250   -0.5190    1.1230 N   0  0  0  0  0  0  0  0  0  0  0  0
   -1.1490    0.1690    0.6780 C   0  0  0  0  0  0  0  0  0  0  0  0
   -2.2860    0.0260    0.6250 N   0  0  0  0  0  0  0  0  0  0  0  0
   -3.2390    0.7970    0.1690 C   0  0  0  0  0  0  0  0  0  0  0  0
   -4.6890    0.4570    0.1770 C   0  0  0  0  0  0  0  0  0  0  0  0
   -5.1710   -0.7300    0.6780 C   0  0  0  0  0  0  0  0  0  0  0  0
   -6.5160   -1.0290    0.6800 C   0  0  0  0  0  0  0  0  0  0  0  0
   -7.4290   -0.1320    0.1720 C   0  0  0  0  0  0  0  0  0  0  0  0
   -9.1420   -0.5250    0.1800 Cl  0  0  0  0  0  0  0  0  0  0  0  0
   -6.9800    1.0680   -0.3380 C   0  0  0  0  0  0  0  0  0  0  0  0
   -8.1020    2.2400   -0.9940 Cl  0  0  0  0  0  0  0  0  0  0  0  0
   -5.6190    1.3330   -0.3230 C   0  0  0  0  0  0  0  0  0  0  0  0
   -2.8090    2.0070   -0.3460 C   0  0  0  0  0  0  0  0  0  0  0  0
   -0.9930    1.8840   -0.0990 S   0  0  0  0  0  0  0  0  0  0  0  0
  1  2  2  0
  2  3  1  0
  2  4  1  0
  4  5  1  0
  4 15  2  3
  5  6  1  0
  6  7  2  0
  6 11  1  0
  7  8  1  0
  8  9  2  0
  9 10  1  0
 10 11  2  0
 11 12  1  0
 12 13  2  0
 12 14  1  0
 15 16  1  0
 16 17  1  0
 17 18  2  0
 17 29  1  0
 18 19  1  0
 19 20  1  0
 19 28  2  0
 20 21  2  0
 20 27  1  0
 21 22  1  0
 22 23  2  0
 23 24  1  0
 23 25  1  0
 25 26  1  0
 25 27  2  0
 28 29  1  0
M  CHG  2  12   1  14  -1
M  END
