
     RDKit          3D

 31 33  0  0  0  0  0  0  0  0999 V2000
   -3.9350   -1.0190   -2.7020 C   0  0  0  0  0  0  0  0  0  0  0  0
   -4.5010   -0.3050   -1.8170 C   0  0  0  0  0  0  0  0  0  0  0  0
   -3.8140    0.3000   -0.6370 C   0  0  0  0  0  0  0  0  0  0  0  0
   -4.5800    0.9960    0.1410 C   0  0  0  0  0  0  0  0  0  0  0  0
   -6.0590    1.1160   -0.2300 C   0  0  0  0  0  0  0  0  0  0  0  0
   -2.4330    0.0200   -0.4940 C   0  0  0  0  0  0  0  0  0  0  0  0
   -1.4280    0.3090    0.2930 C   0  0  0  0  0  0  0  0  0  0  0  0
   -0.1750   -0.2690   -0.0100 C   0  0  0  0  0  0  0  0  0  0  0  0
   -0.0450   -1.1730   -1.0220 C   0  0  0  0  0  0  0  0  0  0  0  0
    1.2040   -1.7690   -1.2740 C   0  0  0  0  0  0  0  0  0  0  0  0
    1.3120   -2.7470   -2.3780 C   0  0  1  0  0  0  0  0  0  0  0  0
    2.2410   -2.3210   -3.3040 F   0  0  0  0  0  0  0  0  0  0  0  0
    1.6600   -3.9730   -1.8410 F   0  0  0  0  0  0  0  0  0  0  0  0
    2.2880   -1.4460   -0.5110 C   0  0  0  0  0  0  0  0  0  0  0  0
    3.5020   -2.0410   -0.7760 O   0  0  0  0  0  0  0  0  0  0  0  0
    3.8310   -3.2480   -0.1210 C   0  0  0  0  0  0  0  0  0  0  0  0
    2.1870   -0.5300    0.5230 C   0  0  0  0  0  0  0  0  0  0  0  0
    3.3230   -0.2610    1.2370 O   0  0  0  0  0  0  0  0  0  0  0  0
    4.3980    0.5230    0.8970 C   0  0  0  0  0  0  0  0  0  0  0  0
    4.2480    1.9020    0.5110 C   0  0  0  0  0  0  0  0  0  0  0  0
    5.4500    2.6870    0.3240 N   0  0  0  0  0  0  0  0  0  0  0  0
    3.1830    2.4890    0.3220 O   0  0  0  0  0  0  0  0  0  0  0  0
    0.9360    0.0510    0.7650 C   0  0  0  0  0  0  0  0  0  0  0  0
    0.8560    0.9070    1.8180 C   0  0  0  0  0  0  0  0  0  0  0  0
    1.8330    1.2240    2.5600 O   0  0  0  0  0  0  0  0  0  0  0  0
   -0.3210    1.4510    2.1060 N   0  0  0  0  0  0  0  0  0  0  0  0
   -0.6800    2.3350    3.0870 C   0  0  0  0  0  0  0  0  0  0  0  0
   -2.0210    2.5760    2.9300 C   0  0  0  0  0  0  0  0  0  0  0  0
   -2.9570    3.6600    3.9630 Cl  0  0  0  0  0  0  0  0  0  0  0  0
   -2.4440    1.8590    1.8900 N   0  0  0  0  0  0  0  0  0  0  0  0
   -1.4360    1.1710    1.3760 C   0  0  0  0  0  0  0  0  0  0  0  0
  1  2  2  0
  2  3  1  0
  3  4  2  3
  3  6  1  0
  4  5  1  0
  6  7  2  3
  7  8  1  0
  7 31  1  0
  8  9  2  0
  8 23  1  0
  9 10  1  0
 10 11  1  0
 10 14  2  0
 11 12  1  6
 11 13  1  0
 14 15  1  0
 14 17  1  0
 15 16  1  0
 17 18  1  0
 17 23  2  0
 18 19  1  0
 19 20  1  0
 20 21  1  0
 20 22  2  0
 23 24  1  0
 24 25  2  0
 24 26  1  0
 26 27  1  0
 26 31  1  0
 27 28  2  0
 28 29  1  0
 28 30  1  0
 30 31  2  0
M  END
