
     RDKit          3D

 29 32  0  0  0  0  0  0  0  0999 V2000
    7.9650    1.4490    4.1010 O   0  0  0  0  0  0  0  0  0  0  0  0
    7.5900    0.2980    3.1990 S   0  0  2  0  0  0  0  0  0  0  0  0
    6.9850   -0.7740    4.0340 O   0  0  0  0  0  0  0  0  0  0  0  0
    9.3300   -0.4170    2.3660 Cl  0  0  0  0  0  0  0  0  0  0  0  0
    6.4730    0.8600    1.9420 C   0  0  0  0  0  0  0  0  0  0  0  0
    6.1660   -0.3450    1.0360 C   0  0  1  0  0  0  0  0  0  0  0  0
    5.5590   -1.3660    1.8870 C   0  0  0  0  0  0  0  0  0  0  0  0
    4.2930   -1.3720    2.2350 C   0  0  0  0  0  0  0  0  0  0  0  0
    3.2740   -0.0220    1.6020 S   0  0  0  0  0  0  0  0  0  0  0  0
    4.0430    0.3880    0.0210 C   0  0  0  0  0  0  0  0  0  0  0  0
    3.2150    0.9120   -1.0610 C   0  0  0  0  0  0  0  0  0  0  0  0
    2.1620   -0.0200   -1.4490 N   0  0  0  0  0  0  0  0  0  0  0  0
    1.0080    0.1250   -0.5940 C   0  0  0  0  0  0  0  0  0  0  0  0
   -0.2050   -0.2730   -1.3720 C   0  0  2  0  0  0  0  0  0  0  0  0
   -0.3180    0.5570   -2.4850 O   0  0  0  0  0  0  0  0  0  0  0  0
   -0.7180    1.7810   -2.0210 C   0  0  0  0  0  0  0  0  0  0  0  0
   -1.5240    1.5410   -0.7480 C   0  0  0  0  0  0  0  0  0  0  0  0
   -1.5030    0.0430   -0.6530 C   0  0  1  0  0  0  0  0  0  0  0  0
   -2.6140   -0.4940   -1.5150 C   0  0  0  0  0  0  0  0  0  0  0  0
   -3.8730   -0.2230   -0.8900 N   0  0  0  0  0  0  0  0  0  0  0  0
   -4.9750   -0.7290   -1.7010 C   0  0  0  0  0  0  0  0  0  0  0  0
   -6.2250    0.0250   -1.2730 C   0  0  0  0  0  0  0  0  0  0  0  0
   -6.4320   -0.2930    0.1320 N   0  0  0  0  0  0  0  0  0  0  0  0
   -7.5620   -0.3150    0.8390 C   0  0  0  0  0  0  0  0  0  0  0  0
   -7.2420   -0.6770    2.1270 C   0  0  0  0  0  0  0  0  0  0  0  0
   -5.8960   -0.8730    2.1780 C   0  0  0  0  0  0  0  0  0  0  0  0
   -5.3860   -0.6270    0.9050 C   0  0  0  0  0  0  0  0  0  0  0  0
   -3.9930   -0.7030    0.4510 C   0  0  0  0  0  0  0  0  0  0  0  0
    5.3410    0.1840   -0.0650 C   0  0  0  0  0  0  0  0  0  0  0  0
  1  2  2  0
  2  3  2  0
  2  4  1  6
  2  5  1  0
  6  5  1  1
  6  7  1  0
  6 29  1  0
  7  8  2  0
  8  9  1  0
  9 10  1  0
 10 11  1  0
 10 29  2  0
 11 12  1  0
 12 13  1  0
 14 13  1  1
 14 15  1  0
 14 18  1  0
 15 16  1  0
 16 17  1  0
 17 18  1  0
 18 19  1  6
 19 20  1  0
 20 21  1  0
 20 28  1  0
 21 22  1  0
 22 23  1  0
 23 24  1  0
 23 27  1  0
 24 25  2  0
 25 26  1  0
 26 27  2  0
 27 28  1  0
M  CHG  1  12   1
M  END
