
     RDKit          3D

 26 28  0  0  0  0  0  0  0  0999 V2000
    7.7180   -0.8750   -0.2830 C   0  0  0  0  0  0  0  0  0  0  0  0
    6.3720   -0.7660    0.3750 C   0  0  0  0  0  0  0  0  0  0  0  0
    5.2140   -1.2210   -0.1500 N   0  0  0  0  0  0  0  0  0  0  0  0
    4.2360   -0.9430    0.7240 C   0  0  0  0  0  0  0  0  0  0  0  0
    2.8260   -1.2580    0.5620 C   0  0  0  0  0  0  0  0  0  0  0  0
    2.0440   -0.2430   -0.0850 N   0  0  0  0  0  0  0  0  0  0  0  0
    2.0090    1.0130    0.5540 C   0  0  0  0  0  0  0  0  0  0  0  0
    1.8630    2.0940   -0.4940 C   0  0  0  0  0  0  0  0  0  0  0  0
    0.5360    2.8010   -0.3970 C   0  0  0  0  0  0  0  0  0  0  0  0
   -0.6750    1.6630    0.2170 S   0  0  0  0  0  0  0  0  0  0  0  0
   -0.9470    1.7670    1.6840 O   0  0  0  0  0  0  0  0  0  0  0  0
   -0.3730    0.0050   -0.3250 C   0  0  0  0  0  0  0  0  0  0  0  0
   -1.4880   -0.6770   -0.5070 C   0  0  0  0  0  0  0  0  0  0  0  0
   -2.8100   -0.1310   -0.2870 C   0  0  0  0  0  0  0  0  0  0  0  0
   -2.9200    1.0450    0.0940 O   0  0  0  0  0  0  0  0  0  0  0  0
   -3.9610   -0.9140   -0.5000 N   0  0  0  0  0  0  0  0  0  0  0  0
   -5.3060   -0.5170   -0.3270 C   0  0  0  0  0  0  0  0  0  0  0  0
   -6.3140   -1.4300   -0.5880 C   0  0  0  0  0  0  0  0  0  0  0  0
   -7.6490   -1.1390   -0.4490 C   0  0  0  0  0  0  0  0  0  0  0  0
   -8.0420    0.0980   -0.0390 C   0  0  0  0  0  0  0  0  0  0  0  0
   -7.0770    1.0300    0.2290 C   0  0  0  0  0  0  0  0  0  0  0  0
   -7.4650    2.2690    0.6410 F   0  0  0  0  0  0  0  0  0  0  0  0
   -5.7270    0.7250    0.0860 C   0  0  0  0  0  0  0  0  0  0  0  0
    0.8450   -0.7500   -0.6080 C   0  0  0  0  0  0  0  0  0  0  0  0
    4.8420   -0.3090    1.7820 C   0  0  0  0  0  0  0  0  0  0  0  0
    6.1210   -0.2200    1.5400 O   0  0  0  0  0  0  0  0  0  0  0  0
  1  2  1  0
  2  3  2  0
  2 26  1  0
  3  4  1  0
  4  5  1  0
  4 25  2  0
  5  6  1  0
  6  7  1  0
  6 24  1  0
  7  8  1  0
  8  9  1  0
 10  9  1  1
 10 11  2  0
 10 12  1  0
 12 13  2  3
 12 24  1  0
 13 14  1  0
 14 15  2  0
 14 16  1  0
 16 17  1  0
 17 18  2  0
 17 23  1  0
 18 19  1  0
 19 20  2  0
 20 21  1  0
 21 22  1  0
 21 23  2  0
 25 26  1  0
M  CHG  1   3   1
M  END
