
     RDKit          3D

 26 28  0  0  0  0  0  0  0  0999 V2000
   -3.9870    2.6860    0.0710 C   0  0  0  0  0  0  0  0  0  0  0  0
   -4.2630    1.2790    0.2900 C   0  0  0  0  0  0  0  0  0  0  0  0
   -5.5000    0.9330    0.9090 C   0  0  0  0  0  0  0  0  0  0  0  0
   -5.7630   -0.3980    1.1130 C   0  0  0  0  0  0  0  0  0  0  0  0
   -6.8460   -0.7510    1.6720 O   0  0  0  0  0  0  0  0  0  0  0  0
   -4.9050   -1.3590    0.7440 N   0  0  0  0  0  0  0  0  0  0  0  0
   -3.6990   -1.0320    0.1320 C   0  0  0  0  0  0  0  0  0  0  0  0
   -2.9520   -2.1400   -0.4830 C   0  0  0  0  0  0  0  0  0  0  0  0
   -3.3750    0.2720   -0.0890 C   0  0  0  0  0  0  0  0  0  0  0  0
   -2.1820    0.7520   -0.7500 C   0  0  0  0  0  0  0  0  0  0  0  0
   -0.9120    0.6700   -0.1280 N   0  0  0  0  0  0  0  0  0  0  0  0
   -0.4680   -0.3400    0.7160 C   0  0  0  0  0  0  0  0  0  0  0  0
    0.7500   -1.0930    0.1290 C   0  0  2  0  0  0  0  0  0  0  0  0
    2.0620   -0.4400    0.4320 C   0  0  0  0  0  0  0  0  0  0  0  0
    3.0770   -0.8670   -0.4730 N   0  0  0  0  0  0  0  0  0  0  0  0
    4.2590   -0.2890   -0.7510 C   0  0  0  0  0  0  0  0  0  0  0  0
    4.9030   -0.8760   -1.7910 O   0  0  0  0  0  0  0  0  0  0  0  0
    5.0410    0.7840   -0.2260 C   0  0  0  0  0  0  0  0  0  0  0  0
    4.7550    1.5880    1.3790 S   0  0  0  0  0  0  0  0  0  0  0  0
    6.1280    2.7950    1.2030 C   0  0  0  0  0  0  0  0  0  0  0  0
    6.6350    2.4710   -0.0150 C   0  0  0  0  0  0  0  0  0  0  0  0
    6.0910    1.4560   -0.7380 C   0  0  0  0  0  0  0  0  0  0  0  0
    6.5540    1.1120   -2.0310 F   0  0  0  0  0  0  0  0  0  0  0  0
    2.8060   -2.1910   -1.0970 C   0  0  0  0  0  0  0  0  0  0  0  0
    1.4840   -2.1340   -1.7860 C   0  0  0  0  0  0  0  0  0  0  0  0
    0.5060   -1.4730   -1.1360 O   0  0  0  0  0  0  0  0  0  0  0  0
  1  2  1  0
  2  3  2  0
  2  9  1  0
  3  4  1  0
  4  5  2  0
  4  6  1  0
  6  7  1  0
  7  8  1  0
  7  9  2  0
  9 10  1  0
 10 11  1  0
 11 12  1  0
 13 12  1  6
 13 14  1  0
 13 26  1  0
 14 15  1  0
 15 16  1  0
 15 24  1  0
 16 17  2  0
 16 18  1  0
 18 19  1  0
 18 22  2  0
 19 20  1  0
 20 21  2  0
 21 22  1  0
 22 23  1  0
 24 25  1  0
 25 26  1  0
M  CHG  1  11   1
M  END
