
     RDKit          3D

 26 28  0  0  0  0  0  0  0  0999 V2000
    4.2140    2.4230    2.5460 C   0  0  0  0  0  0  0  0  0  0  0  0
    4.2840    1.7350    1.2180 C   0  0  0  0  0  0  0  0  0  0  0  0
    5.3590    1.4630    0.4950 C   0  0  0  0  0  0  0  0  0  0  0  0
    6.6130    1.8130    0.9250 F   0  0  0  0  0  0  0  0  0  0  0  0
    4.9750    0.7760   -0.7460 C   0  0  1  0  0  0  0  0  0  0  0  0
    5.5200   -0.5900   -0.7580 N   0  0  0  0  0  0  0  0  0  0  0  0
    3.4990    0.6820   -0.6440 C   0  0  0  0  0  0  0  0  0  0  0  0
    3.1200    1.2400    0.4930 C   0  0  0  0  0  0  0  0  0  0  0  0
    1.7810    1.3310    0.9210 O   0  0  0  0  0  0  0  0  0  0  0  0
    0.7360    0.6910    0.2540 C   0  0  0  0  0  0  0  0  0  0  0  0
    0.9110   -0.7850    0.2100 C   0  0  0  0  0  0  0  0  0  0  0  0
    1.9410   -1.2490    0.7620 O   0  0  0  0  0  0  0  0  0  0  0  0
   -0.0130   -1.6500   -0.4120 N   0  0  0  0  0  0  0  0  0  0  0  0
    0.2290   -3.0740   -0.4140 C   0  0  0  0  0  0  0  0  0  0  0  0
   -1.0200   -3.7700    0.0400 C   0  0  0  0  0  0  0  0  0  0  0  0
   -1.9840   -2.7940    0.6750 C   0  0  0  0  0  0  0  0  0  0  0  0
   -2.4210   -1.7260   -0.3110 C   0  0  1  0  0  0  0  0  0  0  0  0
   -3.0690   -0.6350    0.4550 C   0  0  0  0  0  0  0  0  0  0  0  0
   -3.0390   -0.6950    1.7270 O   0  0  0  0  0  0  0  0  0  0  0  0
   -3.7190    0.4690   -0.1630 N   0  0  0  0  0  0  0  0  0  0  0  0
   -4.3040    1.4800    0.6870 C   0  0  0  0  0  0  0  0  0  0  0  0
   -5.1680    2.4580   -0.0380 C   0  0  0  0  0  0  0  0  0  0  0  0
   -4.3230    3.1680   -1.4920 S   0  0  0  0  0  0  0  0  0  0  0  0
   -3.1600    1.8590   -2.0490 C   0  0  0  0  0  0  0  0  0  0  0  0
   -3.7880    0.5520   -1.6080 C   0  0  0  0  0  0  0  0  0  0  0  0
   -1.2230   -1.1820   -1.0670 C   0  0  0  0  0  0  0  0  0  0  0  0
  1  2  1  0
  2  3  2  0
  2  8  1  0
  3  4  1  0
  3  5  1  0
  5  6  1  1
  5  7  1  0
  7  8  2  0
  8  9  1  0
  9 10  1  0
 10 11  1  0
 11 12  2  0
 11 13  1  0
 13 14  1  0
 13 26  1  0
 14 15  1  0
 15 16  1  0
 16 17  1  0
 17 18  1  1
 17 26  1  0
 18 19  2  0
 18 20  1  0
 20 21  1  0
 20 25  1  0
 21 22  1  0
 22 23  1  0
 23 24  1  0
 24 25  1  0
M  CHG  1   6   1
M  END
