
     RDKit          3D

 25 27  0  0  0  0  0  0  0  0999 V2000
   -6.4320    1.3500   -1.2300 C   0  0  0  0  0  0  0  0  0  0  0  0
   -5.7210    1.3300    0.1020 C   0  0  0  0  0  0  0  0  0  0  0  0
   -4.8730    0.1520    0.2360 N   0  0  0  0  0  0  0  0  0  0  0  0
   -5.3840   -1.0680    0.7980 C   0  0  0  0  0  0  0  0  0  0  0  0
   -4.6760   -2.2440    0.1160 C   0  0  0  0  0  0  0  0  0  0  0  0
   -3.1750   -2.0870    0.2110 C   0  0  0  0  0  0  0  0  0  0  0  0
   -2.7710   -0.9470   -0.6730 C   0  0  2  0  0  0  0  0  0  0  0  0
   -1.3410   -0.7040   -0.6480 N   0  0  0  0  0  0  0  0  0  0  0  0
   -0.7730   -1.0980    0.6180 C   0  0  0  0  0  0  0  0  0  0  0  0
    0.6940   -0.7630    0.6170 C   0  0  0  0  0  0  0  0  0  0  0  0
    1.3010   -1.0580    1.6650 O   0  0  0  0  0  0  0  0  0  0  0  0
    1.3310   -0.1670   -0.4700 N   0  0  0  0  0  0  0  0  0  0  0  0
    2.6900    0.2290   -0.5830 C   0  0  0  0  0  0  0  0  0  0  0  0
    3.4660    0.5300   -2.1920 S   0  0  0  0  0  0  0  0  0  0  0  0
    5.0070    1.0100   -1.6190 C   0  0  0  0  0  0  0  0  0  0  0  0
    6.1760    1.4110   -2.4300 C   0  0  0  0  0  0  0  0  0  0  0  0
    4.8920    0.9320   -0.2400 C   0  0  0  0  0  0  0  0  0  0  0  0
    3.6990    0.5350    0.2470 C   0  0  0  0  0  0  0  0  0  0  0  0
    3.6200    0.6220    1.7430 C   0  0  0  0  0  0  0  0  0  0  0  0
    2.6390    1.2370    2.2520 O   0  0  0  0  0  0  0  0  0  0  0  0
    4.7120   -0.0220    2.4940 C   0  0  0  0  0  0  0  0  0  0  0  0
    6.0250    0.2940    1.8790 C   0  0  0  0  0  0  0  0  0  0  0  0
    6.0210    1.2510    0.7270 C   0  0  0  0  0  0  0  0  0  0  0  0
   -3.5240    0.2680   -0.2130 C   0  0  0  0  0  0  0  0  0  0  0  0
   -2.9840    1.3910   -0.2170 O   0  0  0  0  0  0  0  0  0  0  0  0
  1  2  1  0
  2  3  1  0
  3  4  1  0
  3 24  1  0
  4  5  1  0
  5  6  1  0
  6  7  1  0
  7  8  1  1
  7 24  1  0
  8  9  1  0
  9 10  1  0
 10 11  2  0
 10 12  1  0
 12 13  1  0
 13 14  1  0
 13 18  2  0
 14 15  1  0
 15 16  1  0
 15 17  2  0
 17 18  1  0
 17 23  1  0
 18 19  1  0
 19 20  2  0
 19 21  1  0
 21 22  1  0
 22 23  1  0
 24 25  2  0
M  CHG  1   8   1
M  END
