
     RDKit          3D

 26 28  0  0  0  0  0  0  0  0999 V2000
    0.9350   -0.9390    1.1080 O   0  0  0  0  0  0  0  0  0  0  0  0
    0.3610   -0.1760    0.3120 C   0  0  0  0  0  0  0  0  0  0  0  0
    1.2160    0.7730   -0.4590 C   0  0  0  0  0  0  0  0  0  0  0  0
    2.6070    0.6350   -0.1360 N   0  0  0  0  0  0  0  0  0  0  0  0
    3.2910   -0.3320   -0.9600 C   0  0  0  0  0  0  0  0  0  0  0  0
    4.4860   -0.9610   -0.2900 C   0  0  0  0  0  0  0  0  0  0  0  0
    5.7000   -0.0710   -0.3280 C   0  0  0  0  0  0  0  0  0  0  0  0
    5.7170    0.7950    1.2700 S   0  0  0  0  0  0  0  0  0  0  0  0
    7.0590    1.4570    1.4570 O   0  0  0  0  0  0  0  0  0  0  0  0
    4.4200    2.0320    1.1900 C   0  0  0  0  0  0  0  0  0  0  0  0
    3.0970    1.4410    0.9190 C   0  0  0  0  0  0  0  0  0  0  0  0
    2.2270    1.7100    1.8100 O   0  0  0  0  0  0  0  0  0  0  0  0
   -1.0370   -0.2260    0.1630 N   0  0  0  0  0  0  0  0  0  0  0  0
   -1.9560   -1.0640    0.8220 C   0  0  0  0  0  0  0  0  0  0  0  0
   -1.6340   -1.9850    1.7760 C   0  0  0  0  0  0  0  0  0  0  0  0
   -2.5600   -2.8020    2.4180 C   0  0  0  0  0  0  0  0  0  0  0  0
   -3.8740   -2.6620    2.0600 C   0  0  0  0  0  0  0  0  0  0  0  0
   -4.2240   -1.7460    1.1060 C   0  0  0  0  0  0  0  0  0  0  0  0
   -5.5340   -1.6390    0.7800 F   0  0  0  0  0  0  0  0  0  0  0  0
   -3.3090   -0.9380    0.4710 C   0  0  0  0  0  0  0  0  0  0  0  0
   -3.7420    0.0130   -0.5340 C   0  0  0  0  0  0  0  0  0  0  0  0
   -3.8970    1.3320   -0.2080 C   0  0  0  0  0  0  0  0  0  0  0  0
   -4.3130    2.2380   -1.1710 C   0  0  0  0  0  0  0  0  0  0  0  0
   -4.5540    1.7900   -2.4120 N   0  0  0  0  0  0  0  0  0  0  0  0
   -4.4170    0.5100   -2.7820 C   0  0  0  0  0  0  0  0  0  0  0  0
   -3.9980   -0.4040   -1.8120 C   0  0  0  0  0  0  0  0  0  0  0  0
  1  2  2  0
  2  3  1  0
  2 13  1  0
  3  4  1  0
  4  5  1  0
  4 11  1  0
  5  6  1  0
  6  7  1  0
  8  7  1  6
  8  9  2  0
  8 10  1  0
 10 11  1  0
 11 12  2  0
 13 14  1  0
 14 15  2  0
 14 20  1  0
 15 16  1  0
 16 17  2  0
 17 18  1  0
 18 19  1  0
 18 20  2  0
 20 21  1  0
 21 22  2  0
 21 26  1  0
 22 23  1  0
 23 24  2  0
 24 25  1  0
 25 26  2  0
M  CHG  1  24   1
M  END
