
     RDKit          3D

 26 28  0  0  0  0  0  0  0  0999 V2000
    2.6900    4.5480   -0.4110 C   0  0  0  0  0  0  0  0  0  0  0  0
    1.9190    3.3890   -0.1840 O   0  0  0  0  0  0  0  0  0  0  0  0
    2.7760    2.3030   -0.0580 C   0  0  0  0  0  0  0  0  0  0  0  0
    1.9530    1.0930    0.1800 C   0  0  0  0  0  0  0  0  0  0  0  0
    0.6360    1.1980    0.2360 N   0  0  0  0  0  0  0  0  0  0  0  0
   -0.2090    0.2050    0.4410 N   0  0  0  0  0  0  0  0  0  0  0  0
   -1.6340    0.3840    0.5310 C   0  0  0  0  0  0  0  0  0  0  0  0
   -2.5940    0.3970   -0.3380 C   0  0  0  0  0  0  0  0  0  0  0  0
   -2.3880    0.2050   -1.7970 C   0  0  0  0  0  0  0  0  0  0  0  0
   -3.5960    0.2710   -2.7050 C   0  0  0  0  0  0  0  0  0  0  0  0
   -1.2690   -0.0000   -2.3490 N   0  0  0  0  0  0  0  0  0  0  0  0
   -3.9610    0.6110    0.1510 C   0  0  1  0  0  0  0  0  0  0  0  0
   -4.8320   -0.2050   -0.5760 O   0  0  0  0  0  0  0  0  0  0  0  0
   -4.1040    0.2680    1.5860 C   0  0  1  0  0  0  0  0  0  0  0  0
   -4.4690   -1.1640    1.8510 C   0  0  0  0  0  0  0  0  0  0  0  0
   -2.4330    0.6790    2.1570 S   0  0  0  0  0  0  0  0  0  0  0  0
    0.3470   -1.0310    0.6070 C   0  0  0  0  0  0  0  0  0  0  0  0
   -0.4120   -1.9960    0.8030 O   0  0  0  0  0  0  0  0  0  0  0  0
    1.7010   -1.2250    0.5640 C   0  0  0  0  0  0  0  0  0  0  0  0
    2.2930   -2.4640    0.7290 C   0  0  0  0  0  0  0  0  0  0  0  0
    3.6640   -2.6120    0.6780 C   0  0  0  0  0  0  0  0  0  0  0  0
    4.2510   -3.9640    0.8610 C   0  0  0  0  0  0  0  0  0  0  0  0
    4.4620   -1.4950    0.4560 C   0  0  0  0  0  0  0  0  0  0  0  0
    5.8120   -1.6140    0.4010 F   0  0  0  0  0  0  0  0  0  0  0  0
    3.8900   -0.2440    0.2870 C   0  0  0  0  0  0  0  0  0  0  0  0
    2.5210   -0.1540    0.3480 C   0  0  0  0  0  0  0  0  0  0  0  0
  1  2  1  0
  2  3  1  0
  3  4  1  0
  4  5  2  0
  4 26  1  0
  5  6  1  0
  6  7  1  0
  6 17  1  0
  7  8  2  0
  7 16  1  0
  8  9  1  0
  8 12  1  0
  9 10  1  0
  9 11  2  0
 12 13  1  6
 12 14  1  0
 14 15  1  6
 14 16  1  0
 17 18  2  0
 17 19  1  0
 19 20  2  0
 19 26  1  0
 20 21  1  0
 21 22  1  0
 21 23  2  0
 23 24  1  0
 23 25  1  0
 25 26  2  0
M  CHG  1  11   1
M  END
