
     RDKit          3D

 25 27  0  0  0  0  0  0  0  0999 V2000
    7.1630    1.5210   -1.3730 C   0  0  0  0  0  0  0  0  0  0  0  0
    6.7630    0.4560   -0.4720 N   0  0  0  0  0  0  0  0  0  0  0  0
    5.3480    0.2840   -0.5620 C   0  0  2  0  0  0  0  0  0  0  0  0
    4.7220    0.0020    0.7600 C   0  0  0  0  0  0  0  0  0  0  0  0
    3.3880   -0.6730    0.7070 C   0  0  0  0  0  0  0  0  0  0  0  0
    2.7960   -0.7660   -0.5950 N   0  0  0  0  0  0  0  0  0  0  0  0
    1.3900   -0.8680   -0.7020 C   0  0  0  0  0  0  0  0  0  0  0  0
    0.8510   -0.9430   -1.8330 O   0  0  0  0  0  0  0  0  0  0  0  0
    0.5250   -0.8890    0.5220 C   0  0  2  0  0  0  0  0  0  0  0  0
    0.8430   -2.1000    1.3810 C   0  0  0  0  0  0  0  0  0  0  0  0
   -0.8330   -0.9690    0.1370 O   0  0  0  0  0  0  0  0  0  0  0  0
   -1.6920    0.0400    0.5170 C   0  0  0  0  0  0  0  0  0  0  0  0
   -1.2750    0.9900    1.1800 O   0  0  0  0  0  0  0  0  0  0  0  0
   -3.1070    0.0320    0.1610 C   0  0  0  0  0  0  0  0  0  0  0  0
   -3.9590   -1.1890   -0.7700 S   0  0  0  0  0  0  0  0  0  0  0  0
   -5.5030   -0.5040   -0.7510 C   0  0  0  0  0  0  0  0  0  0  0  0
   -5.3350    0.6900   -0.0070 C   0  0  0  0  0  0  0  0  0  0  0  0
   -4.1020    0.9360    0.4450 C   0  0  0  0  0  0  0  0  0  0  0  0
   -3.7320    2.1740    1.2660 C   0  0  0  0  0  0  0  0  0  0  0  0
   -6.6560    1.4290    0.0990 C   0  0  0  0  0  0  0  0  0  0  0  0
   -7.6480    0.4290    0.6450 C   0  0  0  0  0  0  0  0  0  0  0  0
   -7.7660   -0.7520   -0.1400 N   0  0  0  0  0  0  0  0  0  0  0  0
   -6.8800   -0.8070   -1.2730 C   0  0  0  0  0  0  0  0  0  0  0  0
    3.5690   -0.7610   -1.8260 C   0  0  0  0  0  0  0  0  0  0  0  0
    5.0270   -0.9090   -1.4730 C   0  0  0  0  0  0  0  0  0  0  0  0
  1  2  1  0
  3  2  1  1
  3  4  1  0
  3 25  1  0
  4  5  1  0
  5  6  1  0
  6  7  1  0
  6 24  1  0
  7  8  2  0
  7  9  1  0
  9 10  1  1
  9 11  1  0
 11 12  1  0
 12 13  2  0
 12 14  1  0
 14 15  1  0
 14 18  2  0
 15 16  1  0
 16 17  2  0
 16 23  1  0
 17 18  1  0
 17 20  1  0
 18 19  1  0
 20 21  1  0
 21 22  1  0
 22 23  1  0
 24 25  1  0
M  CHG  1   2   1
M  END
