
     RDKit          3D

 26 27  0  0  0  0  0  0  0  0999 V2000
    4.9400    3.5720    1.9660 C   0  0  0  0  0  0  0  0  0  0  0  0
    4.6240    2.3720    1.1450 C   0  0  0  0  0  0  0  0  0  0  0  0
    5.5850    1.6530    0.7810 O   0  0  0  0  0  0  0  0  0  0  0  0
    3.2650    2.0400    0.7770 C   0  0  0  0  0  0  0  0  0  0  0  0
    3.0480    0.9970    0.0690 C   0  0  0  0  0  0  0  0  0  0  0  0
    4.2440   -0.1050   -0.5200 S   0  0  0  0  0  0  0  0  0  0  0  0
    3.1180   -1.2250   -1.3700 C   0  0  0  0  0  0  0  0  0  0  0  0
    1.8380   -0.6420   -1.1280 C   0  0  0  0  0  0  0  0  0  0  0  0
    1.7370    0.4660   -0.4170 C   0  0  0  0  0  0  0  0  0  0  0  0
    0.5970    1.1320   -0.1620 C   0  0  0  0  0  0  0  0  0  0  0  0
   -0.7820    0.9220   -0.4520 C   0  0  0  0  0  0  0  0  0  0  0  0
   -1.7130    0.2470    0.2330 C   0  0  0  0  0  0  0  0  0  0  0  0
   -3.0330    0.1970   -0.2950 N   0  0  0  0  0  0  0  0  0  0  0  0
   -3.3930   -0.5840   -1.4550 C   0  0  0  0  0  0  0  0  0  0  0  0
   -4.0750    0.9640    0.3530 C   0  0  0  0  0  0  0  0  0  0  0  0
   -4.5270    2.1040   -0.5540 C   0  0  0  0  0  0  0  0  0  0  0  0
   -5.5160    2.8510    0.0350 F   0  0  0  0  0  0  0  0  0  0  0  0
   -1.5060   -0.4860    1.4990 C   0  0  0  0  0  0  0  0  0  0  0  0
   -1.3720   -1.9730    1.3240 C   0  0  0  0  0  0  0  0  0  0  0  0
    0.0790   -2.2960    1.3200 C   0  0  0  0  0  0  0  0  0  0  0  0
    0.8270   -1.5150    1.9920 O   0  0  0  0  0  0  0  0  0  0  0  0
    0.7000   -3.3720    0.6520 N   0  0  0  0  0  0  0  0  0  0  0  0
    0.6320   -3.6760   -0.7060 N   0  0  0  0  0  0  0  0  0  0  0  0
    0.8710   -2.8180   -1.7960 C   0  0  0  0  0  0  0  0  0  0  0  0
    1.3250   -3.2220   -2.8940 O   0  0  0  0  0  0  0  0  0  0  0  0
    0.6090   -1.3270   -1.7590 C   0  0  0  0  0  0  0  0  0  0  0  0
  1  2  1  0
  2  3  2  0
  2  4  1  0
  4  5  2  3
  5  6  1  0
  5  9  1  0
  6  7  1  0
  7  8  2  0
  8  9  1  0
  8 26  1  0
  9 10  2  0
 10 11  1  0
 11 12  2  0
 12 13  1  0
 12 18  1  0
 13 14  1  0
 13 15  1  0
 15 16  1  0
 16 17  1  0
 18 19  1  0
 19 20  1  0
 20 21  2  0
 20 22  1  0
 22 23  1  0
 23 24  1  0
 24 25  2  0
 24 26  1  0
M  END
