
     RDKit          3D

 10 11  0  0  0  0  0  0  0  0999 V2000
    2.2070    1.0990    0.1800 N   0  0  0  0  0  0  0  0  0  0  0  0
    1.1220    0.1850    0.0540 C   0  0  0  0  0  0  0  0  0  0  0  0
    1.3320   -1.1760   -0.0670 C   0  0  0  0  0  0  0  0  0  0  0  0
    0.2940   -2.0340   -0.1860 N   0  0  0  0  0  0  0  0  0  0  0  0
   -0.9880   -1.6250   -0.1940 C   0  0  0  0  0  0  0  0  0  0  0  0
   -1.2360   -0.2730   -0.0750 C   0  0  0  0  0  0  0  0  0  0  0  0
   -2.3580    0.4700   -0.0470 N   0  0  0  0  0  0  0  0  0  0  0  0
   -1.9940    1.7440    0.0870 N   0  0  0  0  0  0  0  0  0  0  0  0
   -0.6890    1.8590    0.1450 N   0  0  0  0  0  0  0  0  0  0  0  0
   -0.1860    0.6170    0.0470 C   0  0  0  0  0  0  0  0  0  0  0  0
  1  2  1  0
  2  3  2  0
  2 10  1  0
  3  4  1  0
  4  5  2  0
  5  6  1  0
  6  7  1  0
  6 10  2  0
  7  8  1  0
  8  9  2  0
  9 10  1  0
M  END
