
     RDKit          3D

 10 11  0  0  0  0  0  0  0  0999 V2000
   -1.7390   -1.4450   -0.0130 N   0  0  0  0  0  0  0  0  0  0  0  0
   -1.1160   -0.1690   -0.0210 C   0  0  0  0  0  0  0  0  0  0  0  0
   -1.8500    0.9700   -0.0600 N   0  0  0  0  0  0  0  0  0  0  0  0
   -1.2040    2.1490   -0.0650 C   0  0  0  0  0  0  0  0  0  0  0  0
    0.1410    2.1900   -0.0330 N   0  0  0  0  0  0  0  0  0  0  0  0
    0.9120    1.0880    0.0070 C   0  0  0  0  0  0  0  0  0  0  0  0
    2.2280    0.8240    0.0450 N   0  0  0  0  0  0  0  0  0  0  0  0
    2.4460   -0.5030    0.0750 C   0  0  0  0  0  0  0  0  0  0  0  0
    1.2250   -1.0700    0.0540 N   0  0  0  0  0  0  0  0  0  0  0  0
    0.2630   -0.1270    0.0130 C   0  0  0  0  0  0  0  0  0  0  0  0
  1  2  1  0
  2  3  2  0
  2 10  1  0
  3  4  1  0
  4  5  2  0
  5  6  1  0
  6  7  1  0
  6 10  2  0
  7  8  2  0
  8  9  1  0
  9 10  1  0
M  END
