
     RDKit          3D

 10 11  0  0  0  0  0  0  0  0999 V2000
   -2.9820    0.5210   -0.4300 N   0  0  0  0  0  0  0  0  0  0  0  0
   -1.6150    0.2220   -0.1680 C   0  0  0  0  0  0  0  0  0  0  0  0
   -1.3170   -0.7030    0.8010 C   0  0  0  0  0  0  0  0  0  0  0  0
   -0.0160   -0.9910    1.0540 N   0  0  0  0  0  0  0  0  0  0  0  0
    0.9990   -0.4180    0.4040 C   0  0  0  0  0  0  0  0  0  0  0  0
    2.3790   -0.5400    0.4780 C   0  0  0  0  0  0  0  0  0  0  0  0
    2.8640    0.3080   -0.4420 N   0  0  0  0  0  0  0  0  0  0  0  0
    1.8620    0.9280   -1.0590 N   0  0  0  0  0  0  0  0  0  0  0  0
    0.6790    0.5110   -0.5680 C   0  0  0  0  0  0  0  0  0  0  0  0
   -0.6130    0.8170   -0.8400 N   0  0  0  0  0  0  0  0  0  0  0  0
  1  2  1  0
  2  3  1  0
  2 10  2  0
  3  4  2  0
  4  5  1  0
  5  6  2  0
  5  9  1  0
  6  7  1  0
  7  8  1  0
  8  9  2  0
  9 10  1  0
M  END
