
     RDKit          3D

 21 23  0  0  0  0  0  0  0  0999 V2000
    5.2450   -0.9610   -0.9210 C   0  0  0  0  0  0  0  0  0  0  0  0
    4.4730    0.1740   -0.5710 O   0  0  0  0  0  0  0  0  0  0  0  0
    3.0620    0.0730   -0.3950 C   0  0  0  0  0  0  0  0  0  0  0  0
    2.6200   -1.0700   -0.5770 O   0  0  0  0  0  0  0  0  0  0  0  0
    2.3610    1.2670   -0.0410 C   0  0  0  0  0  0  0  0  0  0  0  0
    1.1200    1.5220    0.2370 C   0  0  0  0  0  0  0  0  0  0  0  0
    0.7540    3.2750    0.5980 S   0  0  0  0  0  0  0  0  0  0  0  0
   -1.0210    3.4850    0.1420 C   0  0  0  0  0  0  0  0  0  0  0  0
   -1.2470    2.7970   -1.1410 C   0  0  0  0  0  0  0  0  0  0  0  0
   -1.6870    1.4130   -1.0910 N   0  0  0  0  0  0  0  0  0  0  0  0
   -1.0690    0.4040   -0.2900 C   0  0  0  0  0  0  0  0  0  0  0  0
    0.1890    0.4450    0.3080 C   0  0  0  0  0  0  0  0  0  0  0  0
    0.6920   -0.5620    1.0540 N   0  0  0  0  0  0  0  0  0  0  0  0
   -0.0550   -1.6600    1.2280 C   0  0  0  0  0  0  0  0  0  0  0  0
    0.4270   -2.6080    1.9300 O   0  0  0  0  0  0  0  0  0  0  0  0
   -1.3080   -1.7610    0.6610 C   0  0  0  0  0  0  0  0  0  0  0  0
   -2.0440   -2.8960    0.8660 C   0  0  0  0  0  0  0  0  0  0  0  0
   -3.2790   -2.9870    0.3130 C   0  0  0  0  0  0  0  0  0  0  0  0
   -3.8080   -1.9820   -0.4400 C   0  0  0  0  0  0  0  0  0  0  0  0
   -3.0830   -0.8150   -0.6660 C   0  0  0  0  0  0  0  0  0  0  0  0
   -1.8370   -0.7180   -0.1130 C   0  0  0  0  0  0  0  0  0  0  0  0
  1  2  1  0
  2  3  1  0
  3  4  2  0
  3  5  1  0
  5  6  2  3
  6  7  1  0
  6 12  1  0
  7  8  1  0
  8  9  1  0
  9 10  1  0
 10 11  1  0
 11 12  2  0
 11 21  1  0
 12 13  1  0
 13 14  1  0
 14 15  2  0
 14 16  1  0
 16 17  2  0
 16 21  1  0
 17 18  1  0
 18 19  2  0
 19 20  1  0
 20 21  2  0
M  END
