
     RDKit          3D

 10 11  0  0  0  0  0  0  0  0999 V2000
   -2.6150   -0.8320    0.0920 N   0  0  0  0  0  0  0  0  0  0  0  0
   -1.5430    0.1100    0.0320 C   0  0  0  0  0  0  0  0  0  0  0  0
   -1.6780    1.4530   -0.0650 N   0  0  0  0  0  0  0  0  0  0  0  0
   -0.4900    2.0090   -0.0960 N   0  0  0  0  0  0  0  0  0  0  0  0
    0.4470    1.0300   -0.0190 C   0  0  0  0  0  0  0  0  0  0  0  0
    1.8020    1.0220   -0.0080 N   0  0  0  0  0  0  0  0  0  0  0  0
    2.4810   -0.1420    0.0800 C   0  0  0  0  0  0  0  0  0  0  0  0
    1.7890   -1.3370    0.1610 C   0  0  0  0  0  0  0  0  0  0  0  0
    0.4400   -1.3640    0.1530 N   0  0  0  0  0  0  0  0  0  0  0  0
   -0.2000   -0.1860    0.0640 C   0  0  0  0  0  0  0  0  0  0  0  0
  1  2  1  0
  2  3  2  0
  2 10  1  0
  3  4  1  0
  4  5  1  0
  5  6  2  0
  5 10  1  0
  6  7  1  0
  7  8  2  0
  8  9  1  0
  9 10  2  0
M  END
