
     RDKit          3D

 10 11  0  0  0  0  0  0  0  0999 V2000
    3.0480   -0.6310    0.2720 N   0  0  0  0  0  0  0  0  0  0  0  0
    1.7200   -0.1530    0.1230 C   0  0  0  0  0  0  0  0  0  0  0  0
    1.4800    1.1650   -0.0960 N   0  0  0  0  0  0  0  0  0  0  0  0
    0.2500    1.6810   -0.2450 C   0  0  0  0  0  0  0  0  0  0  0  0
   -0.8520    0.8520   -0.1790 C   0  0  0  0  0  0  0  0  0  0  0  0
   -2.1710    1.0080   -0.2790 N   0  0  0  0  0  0  0  0  0  0  0  0
   -2.8090   -0.1390   -0.1370 N   0  0  0  0  0  0  0  0  0  0  0  0
   -1.8710   -1.0780    0.0620 C   0  0  0  0  0  0  0  0  0  0  0  0
   -0.6270   -0.4730    0.0390 C   0  0  0  0  0  0  0  0  0  0  0  0
    0.6430   -0.9540    0.1850 N   0  0  0  0  0  0  0  0  0  0  0  0
  1  2  1  0
  2  3  1  0
  2 10  2  0
  3  4  2  0
  4  5  1  0
  5  6  2  0
  5  9  1  0
  6  7  1  0
  7  8  1  0
  8  9  2  0
  9 10  1  0
M  END
