
     RDKit          3D

 16 17  0  0  0  0  0  0  0  0999 V2000
   -4.6910    1.8340    0.1690 C   0  0  0  0  0  0  0  0  0  0  0  0
   -3.5060    1.1870    0.5410 O   0  0  0  0  0  0  0  0  0  0  0  0
   -2.8730    0.2820   -0.2740 C   0  0  0  0  0  0  0  0  0  0  0  0
   -3.3740    0.0270   -1.3890 O   0  0  0  0  0  0  0  0  0  0  0  0
   -1.6650   -0.3660    0.1250 N   0  0  0  0  0  0  0  0  0  0  0  0
   -1.0300   -0.1250    1.3900 C   0  0  0  0  0  0  0  0  0  0  0  0
    0.4360   -0.4380    1.3750 C   0  0  0  0  0  0  0  0  0  0  0  0
    1.0340   -0.3060    0.0850 N   0  0  0  0  0  0  0  0  0  0  0  0
    2.3070    0.2740   -0.0560 C   0  0  0  0  0  0  0  0  0  0  0  0
    2.6490    1.5640    0.0940 C   0  0  0  0  0  0  0  0  0  0  0  0
    4.0290    1.7590   -0.1300 N   0  0  0  0  0  0  0  0  0  0  0  0
    4.5560    0.4950   -0.4370 C   0  0  0  0  0  0  0  0  0  0  0  0
    3.5790   -0.3970   -0.4030 C   0  0  0  0  0  0  0  0  0  0  0  0
    0.3440   -0.7650   -1.0810 C   0  0  0  0  0  0  0  0  0  0  0  0
   -1.0270   -1.3190   -0.7710 C   0  0  1  0  0  0  0  0  0  0  0  0
   -0.9870   -2.6780   -0.1530 C   0  0  0  0  0  0  0  0  0  0  0  0
  1  2  1  0
  2  3  1  0
  3  4  2  0
  3  5  1  0
  5  6  1  0
  5 15  1  0
  6  7  1  0
  7  8  1  0
  8  9  1  0
  8 14  1  0
  9 10  2  0
  9 13  1  0
 10 11  1  0
 11 12  1  0
 12 13  2  0
 14 15  1  0
 15 16  1  1
M  CHG  1  11   1
M  END
