
     RDKit          3D

 16 17  0  0  0  0  0  0  0  0999 V2000
   -4.3150    0.2070    0.1400 C   0  0  0  0  0  0  0  0  0  0  0  0
   -3.3020   -0.8920   -0.0220 C   0  0  0  0  0  0  0  0  0  0  0  0
   -1.9020   -0.3660   -0.0500 C   0  0  0  0  0  0  0  0  0  0  0  0
   -1.5930    0.9180    0.0560 N   0  0  0  0  0  0  0  0  0  0  0  0
   -0.3240    1.3900    0.0300 C   0  0  0  0  0  0  0  0  0  0  0  0
   -0.0080    2.7270    0.1400 O   0  0  0  0  0  0  0  0  0  0  0  0
   -0.9840    3.7420    0.2920 C   0  0  0  0  0  0  0  0  0  0  0  0
    0.6790    0.4730   -0.1140 C   0  0  0  0  0  0  0  0  0  0  0  0
    0.3340   -0.8590   -0.2220 C   0  0  0  0  0  0  0  0  0  0  0  0
   -0.9270   -1.2860   -0.1920 N   0  0  0  0  0  0  0  0  0  0  0  0
    1.3450   -1.9650   -0.3840 C   0  0  2  0  0  0  0  0  0  0  0  0
    0.6830   -3.1450   -0.0450 O   0  0  0  0  0  0  0  0  0  0  0  0
    2.4670   -1.7260    0.5540 C   0  0  0  0  0  0  0  0  0  0  0  0
    3.5330   -0.8190    0.1390 C   0  0  0  0  0  0  0  0  0  0  0  0
    3.1700    0.4070   -0.6030 C   0  0  0  0  0  0  0  0  0  0  0  0
    1.9850    1.0810   -0.1290 N   0  0  0  0  0  0  0  0  0  0  0  0
  1  2  1  0
  2  3  1  0
  3  4  2  0
  3 10  1  0
  4  5  1  0
  5  6  1  0
  5  8  2  0
  6  7  1  0
  8  9  1  0
  8 16  1  0
  9 10  2  0
  9 11  1  0
 11 12  1  1
 11 13  1  0
 13 14  1  0
 14 15  1  0
 15 16  1  0
M  CHG  1  10   1
M  END
