
     RDKit          3D

 16 17  0  0  0  0  0  0  0  0999 V2000
    3.6880    0.2070   -0.3620 C   0  0  0  0  0  0  0  0  0  0  0  0
    2.3330    0.5280   -0.8910 C   0  0  0  0  0  0  0  0  0  0  0  0
    1.3090    0.3130    0.2000 C   0  0  2  0  0  0  0  0  0  0  0  0
    1.6350    1.2250    1.3660 C   0  0  0  0  0  0  0  0  0  0  0  0
    1.3590   -1.0540    0.6770 N   0  0  0  0  0  0  0  0  0  0  0  0
    0.6970   -1.9630   -0.2650 C   0  0  0  0  0  0  0  0  0  0  0  0
   -0.7520   -1.6450   -0.3540 C   0  0  0  0  0  0  0  0  0  0  0  0
   -1.6370   -2.5340   -0.4100 O   0  0  0  0  0  0  0  0  0  0  0  0
   -1.1150   -0.2700   -0.3750 N   0  0  0  0  0  0  0  0  0  0  0  0
   -2.4900    0.1010   -0.5170 C   0  0  0  0  0  0  0  0  0  0  0  0
   -3.2950   -0.1790   -1.5090 C   0  0  0  0  0  0  0  0  0  0  0  0
   -4.5990    0.4150   -1.2020 C   0  0  0  0  0  0  0  0  0  0  0  0
   -4.4520    1.0650    0.0700 N   0  0  0  0  0  0  0  0  0  0  0  0
   -3.2420    0.8790    0.4540 C   0  0  0  0  0  0  0  0  0  0  0  0
   -0.0660    0.6770   -0.2500 C   0  0  0  0  0  0  0  0  0  0  0  0
   -0.3100    1.8700   -0.5300 O   0  0  0  0  0  0  0  0  0  0  0  0
  1  2  1  0
  2  3  1  0
  3  4  1  1
  3  5  1  0
  3 15  1  0
  5  6  1  0
  6  7  1  0
  7  8  2  0
  7  9  1  0
  9 10  1  0
  9 15  1  0
 10 11  2  0
 10 14  1  0
 11 12  1  0
 12 13  1  0
 13 14  2  0
 15 16  2  0
M  CHG  1   5   1
M  END
