
     RDKit          3D

 16 17  0  0  0  0  0  0  0  0999 V2000
    2.7270   -1.1200   -1.5100 C   0  0  0  0  0  0  0  0  0  0  0  0
    2.8010   -0.5370   -0.3040 C   0  0  0  0  0  0  0  0  0  0  0  0
    3.9040   -0.6550    0.6740 C   0  0  0  0  0  0  0  0  0  0  0  0
    3.4580    0.1840    1.8060 C   0  0  0  0  0  0  0  0  0  0  0  0
    2.2850    0.7090    1.5400 C   0  0  0  0  0  0  0  0  0  0  0  0
    1.8310    0.3020    0.2600 N   0  0  0  0  0  0  0  0  0  0  0  0
    0.6030    0.6870   -0.3380 C   0  0  0  0  0  0  0  0  0  0  0  0
    0.5250    1.7970   -0.9960 N   0  0  0  0  0  0  0  0  0  0  0  0
   -0.6950    2.2230   -1.6150 C   0  0  0  0  0  0  0  0  0  0  0  0
   -0.8150    3.2900   -2.2550 O   0  0  0  0  0  0  0  0  0  0  0  0
   -1.8650    1.3180   -1.4660 C   0  0  0  0  0  0  0  0  0  0  0  0
   -1.7410    0.7160   -0.1360 N   0  0  1  0  0  0  0  0  0  0  0  0
   -2.9390    0.0970    0.3030 C   0  0  0  0  0  0  0  0  0  0  0  0
   -2.7520   -1.2640    0.9140 C   0  0  0  0  0  0  0  0  0  0  0  0
   -4.0020   -1.7520    1.2990 O   0  0  0  0  0  0  0  0  0  0  0  0
   -0.6010   -0.1790   -0.2160 C   0  0  0  0  0  0  0  0  0  0  0  0
  1  2  2  0
  2  3  1  0
  2  6  1  0
  3  4  1  0
  4  5  2  0
  5  6  1  0
  6  7  1  0
  7  8  2  0
  7 16  1  0
  8  9  1  0
  9 10  2  0
  9 11  1  0
 11 12  1  0
 12 13  1  6
 12 16  1  0
 13 14  1  0
 14 15  1  0
M  CHG  1  12   1
M  END
