
     RDKit          3D

 16 17  0  0  0  0  0  0  0  0999 V2000
   -3.8940    0.1290    0.2920 C   0  0  0  0  0  0  0  0  0  0  0  0
   -2.7600    0.9150   -0.0940 N   0  0  2  0  0  0  0  0  0  0  0  0
   -3.2480    1.9440   -1.0230 C   0  0  0  0  0  0  0  0  0  0  0  0
   -1.6720    0.1940   -0.6380 C   0  0  2  0  0  0  0  0  0  0  0  0
   -1.8800   -1.2630   -0.8320 C   0  0  0  0  0  0  0  0  0  0  0  0
   -0.9260   -1.9150    0.0510 N   0  0  0  0  0  0  0  0  0  0  0  0
    0.2320   -1.0490   -0.0640 C   0  0  2  0  0  0  0  0  0  0  0  0
    1.2800   -1.3810    0.9760 C   0  0  0  0  0  0  0  0  0  0  0  0
    2.4480   -0.4780    0.8280 C   0  0  0  0  0  0  0  0  0  0  0  0
    2.7690    0.2720    1.8220 N   0  0  0  0  0  0  0  0  0  0  0  0
    3.8300    1.1430    1.7910 O   0  0  0  0  0  0  0  0  0  0  0  0
    4.5800    1.2060    0.6270 C   0  0  0  0  0  0  0  0  0  0  0  0
    5.2120    2.2610    0.2950 O   0  0  0  0  0  0  0  0  0  0  0  0
    4.6190   -0.0150   -0.2250 C   0  0  0  0  0  0  0  0  0  0  0  0
    3.1960   -0.4760   -0.4600 C   0  0  0  0  0  0  0  0  0  0  0  0
   -0.3920    0.3150    0.1890 C   0  0  0  0  0  0  0  0  0  0  0  0
  2  1  1  6
  2  3  1  0
  2  4  1  0
  4  5  1  1
  4 16  1  0
  5  6  1  0
  6  7  1  0
  7  8  1  1
  7 16  1  0
  8  9  1  0
  9 10  2  0
  9 15  1  0
 10 11  1  0
 11 12  1  0
 12 13  2  0
 12 14  1  0
 14 15  1  0
M  CHG  1   2   1
M  END
