
     RDKit          3D

 16 17  0  0  0  0  0  0  0  0999 V2000
   -2.0610   -2.1950   -1.3890 C   0  0  0  0  0  0  0  0  0  0  0  0
   -2.6080   -0.9470   -0.9490 C   0  0  0  0  0  0  0  0  0  0  0  0
   -2.0620    0.0870   -0.3100 C   0  0  0  0  0  0  0  0  0  0  0  0
   -2.9730    1.1910   -0.0400 N   0  0  0  0  0  0  0  0  0  0  0  0
   -2.3920    2.2860    0.5770 C   0  0  0  0  0  0  0  0  0  0  0  0
   -1.1160    2.3740    0.9390 C   0  0  0  0  0  0  0  0  0  0  0  0
   -0.2760    1.2730    0.6780 N   0  0  0  0  0  0  0  0  0  0  0  0
   -0.6890    0.1940    0.1010 C   0  0  0  0  0  0  0  0  0  0  0  0
    0.2460   -0.9250   -0.1030 C   0  0  0  0  0  0  0  0  0  0  0  0
    1.6240   -0.5150    0.1950 N   0  0  0  0  0  0  0  0  0  0  0  0
    2.5030    0.0300   -0.7700 C   0  0  0  0  0  0  0  0  0  0  0  0
    2.1610    0.4040   -1.9190 O   0  0  0  0  0  0  0  0  0  0  0  0
    3.8610    0.0600   -0.1480 C   0  0  0  0  0  0  0  0  0  0  0  0
    3.5200    0.2310    1.3070 C   0  0  0  0  0  0  0  0  0  0  0  0
    2.2890   -0.5900    1.4460 C   0  0  0  0  0  0  0  0  0  0  0  0
    1.9490   -1.2030    2.4710 O   0  0  0  0  0  0  0  0  0  0  0  0
  1  2  1  0
  2  3  2  3
  3  4  1  0
  3  8  1  0
  4  5  1  0
  5  6  2  0
  6  7  1  0
  7  8  2  0
  8  9  1  0
  9 10  1  0
 10 11  1  0
 10 15  1  0
 11 12  2  0
 11 13  1  0
 13 14  1  0
 14 15  1  0
 15 16  2  0
M  CHG  1   4   1
M  END
