
     RDKit          3D

 26 28  0  0  0  0  0  0  0  0999 V2000
    6.4920   -0.7860    2.8740 C   0  0  0  0  0  0  0  0  0  0  0  0
    5.0970   -0.6970    2.7070 O   0  0  0  0  0  0  0  0  0  0  0  0
    4.4900   -0.3130    1.5230 C   0  0  0  0  0  0  0  0  0  0  0  0
    5.2480    0.0120    0.4080 C   0  0  0  0  0  0  0  0  0  0  0  0
    4.6290    0.3900   -0.7600 C   0  0  0  0  0  0  0  0  0  0  0  0
    3.2150    0.4400   -0.8000 C   0  0  0  0  0  0  0  0  0  0  0  0
    2.6310    0.8260   -1.9960 O   0  0  0  0  0  0  0  0  0  0  0  0
    2.4510    0.1240    0.2840 C   0  0  0  0  0  0  0  0  0  0  0  0
    1.0100    0.1540    0.2860 C   0  0  0  0  0  0  0  0  0  0  0  0
    0.3680   -0.1600    1.3590 O   0  0  0  0  0  0  0  0  0  0  0  0
    0.2310    0.5060   -0.8140 N   0  0  0  0  0  0  0  0  0  0  0  0
   -1.2310    0.5090   -0.7430 C   0  0  0  0  0  0  0  0  0  0  0  0
   -1.8490    1.6250   -0.9700 C   0  0  0  0  0  0  0  0  0  0  0  0
   -3.2850    1.7940   -0.9470 C   0  0  0  0  0  0  0  0  0  0  0  0
   -4.2430    1.0830   -1.6110 C   0  0  0  0  0  0  0  0  0  0  0  0
   -5.5030    1.5790   -1.2650 C   0  0  0  0  0  0  0  0  0  0  0  0
   -5.2970    2.5630   -0.4160 O   0  0  0  0  0  0  0  0  0  0  0  0
   -4.0160    2.7250   -0.2010 C   0  0  0  0  0  0  0  0  0  0  0  0
   -3.2620    3.9430    0.8800 S   0  0  0  0  0  0  0  0  0  0  0  0
   -1.8660   -0.7360   -0.3540 C   0  0  0  0  0  0  0  0  0  0  0  0
   -3.1440   -0.9430   -0.1090 N   0  0  0  0  0  0  0  0  0  0  0  0
   -3.3490   -2.2210    0.2210 C   0  0  0  0  0  0  0  0  0  0  0  0
   -4.6330   -2.8930    0.5720 C   0  0  0  0  0  0  0  0  0  0  0  0
   -2.1200   -2.8250    0.1730 C   0  0  0  0  0  0  0  0  0  0  0  0
   -1.2580   -1.9050   -0.1750 O   0  0  0  0  0  0  0  0  0  0  0  0
    3.1230   -0.2580    1.4610 C   0  0  0  0  0  0  0  0  0  0  0  0
  1  2  1  0
  2  3  1  0
  3  4  2  0
  3 26  1  0
  4  5  1  0
  5  6  2  0
  6  7  1  0
  6  8  1  0
  8  9  1  0
  8 26  2  0
  9 10  2  0
  9 11  1  0
 11 12  1  0
 12 13  2  3
 12 20  1  0
 13 14  1  0
 14 15  1  0
 14 18  2  0
 15 16  2  0
 16 17  1  0
 17 18  1  0
 18 19  1  0
 20 21  2  0
 20 25  1  0
 21 22  1  0
 22 23  1  0
 22 24  2  0
 24 25  1  0
M  END
