
     RDKit          3D

 26 28  0  0  0  0  0  0  0  0999 V2000
   -6.1170   -2.6570    0.3190 C   0  0  0  0  0  0  0  0  0  0  0  0
   -5.1390   -1.8950    0.7320 C   0  0  0  0  0  0  0  0  0  0  0  0
   -4.1860   -1.2560   -0.2370 C   0  0  0  0  0  0  0  0  0  0  0  0
   -3.1940   -0.4910    0.0770 C   0  0  0  0  0  0  0  0  0  0  0  0
   -2.7260   -0.0390    1.4220 C   0  0  0  0  0  0  0  0  0  0  0  0
   -3.3380   -0.4190    2.4440 O   0  0  0  0  0  0  0  0  0  0  0  0
   -1.5930    0.8120    1.4770 N   0  0  0  0  0  0  0  0  0  0  0  0
   -0.9170    1.2410    0.4770 C   0  0  0  0  0  0  0  0  0  0  0  0
    0.2620    2.1350    0.6360 C   0  0  1  0  0  0  0  0  0  0  0  0
   -0.0260    3.4260   -0.1050 C   0  0  0  0  0  0  0  0  0  0  0  0
    0.4200    2.4990    2.0900 C   0  0  0  0  0  0  0  0  0  0  0  0
    1.4300    1.6060    0.0650 O   0  0  0  0  0  0  0  0  0  0  0  0
    1.9990    0.3720    0.4720 C   0  0  0  0  0  0  0  0  0  0  0  0
    1.3340   -0.1630    1.3830 O   0  0  0  0  0  0  0  0  0  0  0  0
    3.2000   -0.1350   -0.1420 C   0  0  0  0  0  0  0  0  0  0  0  0
    3.8210    0.6010   -1.1580 C   0  0  0  0  0  0  0  0  0  0  0  0
    4.9540    0.1850   -1.7790 C   0  0  0  0  0  0  0  0  0  0  0  0
    5.5290   -1.0240   -1.3950 C   0  0  0  0  0  0  0  0  0  0  0  0
    6.6860   -1.3940   -2.0700 O   0  0  0  0  0  0  0  0  0  0  0  0
    4.9520   -1.7650   -0.4120 C   0  0  0  0  0  0  0  0  0  0  0  0
    3.7660   -1.3120    0.2270 C   0  0  0  0  0  0  0  0  0  0  0  0
    3.2760   -2.1200    1.1890 O   0  0  0  0  0  0  0  0  0  0  0  0
   -1.3530    0.8190   -0.7990 N   0  0  0  0  0  0  0  0  0  0  0  0
   -2.3850    0.0330   -0.9920 C   0  0  0  0  0  0  0  0  0  0  0  0
   -3.1120   -0.6240   -2.4940 S   0  0  0  0  0  0  0  0  0  0  0  0
   -4.4180   -1.5370   -1.6710 C   0  0  0  0  0  0  0  0  0  0  0  0
  1  2  2  0
  2  3  1  0
  3  4  2  0
  3 26  1  0
  4  5  1  0
  4 24  1  0
  5  6  2  0
  5  7  1  0
  7  8  2  0
  8  9  1  0
  8 23  1  0
  9 10  1  6
  9 11  1  0
  9 12  1  0
 12 13  1  0
 13 14  2  0
 13 15  1  0
 15 16  2  0
 15 21  1  0
 16 17  1  0
 17 18  2  0
 18 19  1  0
 18 20  1  0
 20 21  2  0
 21 22  1  0
 23 24  2  0
 24 25  1  0
 25 26  1  0
M  END
