
     RDKit          3D

 26 28  0  0  0  0  0  0  0  0999 V2000
   -4.2010   -0.9210   -2.1460 C   0  0  0  0  0  0  0  0  0  0  0  0
   -4.3370    0.4530   -1.5810 C   0  0  0  0  0  0  0  0  0  0  0  0
   -5.3260    1.3330   -1.6700 N   0  0  0  0  0  0  0  0  0  0  0  0
   -5.0220    2.4070   -1.0200 O   0  0  0  0  0  0  0  0  0  0  0  0
   -3.8410    2.3160   -0.4690 C   0  0  0  0  0  0  0  0  0  0  0  0
   -3.1150    3.3220    0.3610 C   0  0  0  0  0  0  0  0  0  0  0  0
   -3.3540    1.0710   -0.8000 C   0  0  0  0  0  0  0  0  0  0  0  0
   -2.0680    0.4940   -0.4230 C   0  0  0  0  0  0  0  0  0  0  0  0
   -0.9980    0.5260   -1.2690 C   0  0  0  0  0  0  0  0  0  0  0  0
    0.2410   -0.0150   -0.9400 C   0  0  0  0  0  0  0  0  0  0  0  0
    1.3030    0.0710   -1.8500 N   0  0  0  0  0  0  0  0  0  0  0  0
    2.8730    0.6620   -1.5810 S   0  0  2  0  0  0  0  0  0  0  0  0
    2.8760    2.1290   -1.2180 O   0  0  0  0  0  0  0  0  0  0  0  0
    3.6650    0.5120   -2.8750 O   0  0  0  0  0  0  0  0  0  0  0  0
    3.6850   -0.2820   -0.3670 C   0  0  0  0  0  0  0  0  0  0  0  0
    3.8120    0.1380    0.9600 C   0  0  0  0  0  0  0  0  0  0  0  0
    4.4770   -0.6710    1.8830 C   0  0  0  0  0  0  0  0  0  0  0  0
    5.0180   -1.8820    1.5250 C   0  0  0  0  0  0  0  0  0  0  0  0
    4.8970   -2.3010    0.2190 C   0  0  0  0  0  0  0  0  0  0  0  0
    4.2330   -1.4980   -0.7120 C   0  0  0  0  0  0  0  0  0  0  0  0
    0.3760   -0.6010    0.2870 C   0  0  0  0  0  0  0  0  0  0  0  0
   -0.6890   -0.6620    1.1950 C   0  0  0  0  0  0  0  0  0  0  0  0
   -0.4800   -1.2970    2.4780 C   0  0  0  0  0  0  0  0  0  0  0  0
    0.6420   -1.7750    2.7520 O   0  0  0  0  0  0  0  0  0  0  0  0
   -1.4780   -1.4030    3.4320 O   0  0  0  0  0  0  0  0  0  0  0  0
   -1.8920   -0.1080    0.8100 C   0  0  0  0  0  0  0  0  0  0  0  0
  1  2  1  0
  2  3  2  0
  2  7  1  0
  3  4  1  0
  4  5  1  0
  5  6  1  0
  5  7  2  0
  7  8  1  0
  8  9  2  0
  8 26  1  0
  9 10  1  0
 10 11  1  0
 10 21  2  0
 12 11  1  6
 12 13  2  0
 12 14  2  0
 12 15  1  0
 15 16  2  0
 15 20  1  0
 16 17  1  0
 17 18  2  0
 18 19  1  0
 19 20  2  0
 21 22  1  0
 22 23  1  0
 22 26  2  0
 23 24  2  0
 23 25  1  0
M  END
