
     RDKit          3D

  8  7  0  0  0  0  0  0  0  0999 V2000
    1.3830    0.1270   -1.3240 O   0  0  0  0  0  0  0  0  0  0  0  0
    1.3340   -0.3230   -0.1490 C   0  0  0  0  0  0  0  0  0  0  0  0
    2.4070   -0.1150    0.6870 O   0  0  0  0  0  0  0  0  0  0  0  0
    3.4940    0.5450    0.2940 O   0  0  0  0  0  0  0  0  0  0  0  0
    0.1860   -1.0020    0.2150 O   0  0  0  0  0  0  0  0  0  0  0  0
   -0.8880   -1.1850   -0.6900 C   0  0  0  0  0  0  0  0  0  0  0  0
   -1.4200    0.0210   -1.1350 O   0  0  0  0  0  0  0  0  0  0  0  0
   -2.0330    0.9900    0.1500 P   0  0  0  0  0  0  0  0  0  0  0  0
  1  2  2  0
  2  3  1  0
  2  5  1  0
  3  4  1  0
  5  6  1  0
  6  7  1  0
  7  8  1  0
M  END
