
     RDKit          3D

  8  8  0  0  0  0  0  0  0  0999 V2000
    2.8120    0.0040   -0.3160 O   0  0  0  0  0  0  0  0  0  0  0  0
    1.8520   -0.8280   -0.0280 O   0  0  0  0  0  0  0  0  0  0  0  0
    0.6080   -0.6100   -1.2440 P   0  0  0  0  0  0  0  0  0  0  0  0
   -0.7180   -1.6370   -0.7150 O   0  0  0  0  0  0  0  0  0  0  0  0
   -1.2850   -0.9430    0.3800 C   0  0  0  0  0  0  0  0  0  0  0  0
   -1.7700    0.2590   -0.1720 O   0  0  0  0  0  0  0  0  0  0  0  0
   -0.7480    1.2010   -0.0320 C   0  0  0  0  0  0  0  0  0  0  0  0
    0.1100    1.0580   -1.1330 O   0  0  0  0  0  0  0  0  0  0  0  0
  1  2  1  0
  2  3  1  0
  3  4  1  0
  3  8  1  0
  4  5  1  0
  5  6  1  0
  6  7  1  0
  7  8  1  0
M  END
