
     RDKit          3D

  8  7  0  0  0  0  0  0  0  0999 V2000
   -2.0020    0.0120   -1.3980 O   0  0  0  0  0  0  0  0  0  0  0  0
   -1.0110   -0.2770   -0.7110 C   0  0  0  0  0  0  0  0  0  0  0  0
    0.3790   -0.2000   -1.2630 C   0  0  0  0  0  0  0  0  0  0  0  0
    1.5250    0.6170   -0.0800 P   0  0  0  0  0  0  0  0  0  0  0  0
    2.2480   -0.4800    1.0370 O   0  0  0  0  0  0  0  0  0  0  0  0
    0.7950    1.9000    0.8300 O   0  0  0  0  0  0  0  0  0  0  0  0
   -1.2350   -0.6830    0.5890 O   0  0  0  0  0  0  0  0  0  0  0  0
   -2.3860   -0.8170    1.2030 O   0  0  0  0  0  0  0  0  0  0  0  0
  1  2  2  0
  2  3  1  0
  2  7  1  0
  3  4  1  0
  4  5  1  0
  4  6  1  0
  7  8  1  0
M  END
