
     RDKit          3D

  8  7  0  0  0  0  0  0  0  0999 V2000
   -3.3840   -0.1510    0.4340 O   0  0  0  0  0  0  0  0  0  0  0  0
   -2.1190    0.3590    0.5860 C   0  0  0  0  0  0  0  0  0  0  0  0
   -1.1460   -0.2300   -0.4450 C   0  0  0  0  0  0  0  0  0  0  0  0
    0.0770    0.3590   -0.1870 O   0  0  0  0  0  0  0  0  0  0  0  0
    1.0350   -0.0290   -0.9770 O   0  0  0  0  0  0  0  0  0  0  0  0
    2.5130    0.1830   -0.0760 P   0  0  0  0  0  0  0  0  0  0  0  0
    3.5640    1.3260   -0.7960 O   0  0  0  0  0  0  0  0  0  0  0  0
    3.2620   -1.2990    0.3200 O   0  0  0  0  0  0  0  0  0  0  0  0
  1  2  1  0
  2  3  1  0
  3  4  1  0
  4  5  1  0
  5  6  1  0
  6  7  1  0
  6  8  1  0
M  END
