
     RDKit          3D

 10  9  0  0  0  0  0  0  0  0999 V2000
    2.6670   -0.8300   -0.5340 C   0  0  0  0  0  0  0  0  0  0  0  0
    1.5900    0.0880    0.0410 C   0  0  0  0  0  0  0  0  0  0  0  0
    2.1000    1.3630    0.5730 C   0  0  0  0  0  0  0  0  0  0  0  0
    0.3770   -0.3370   -0.0020 C   0  0  0  0  0  0  0  0  0  0  0  0
    0.2380   -1.6630   -0.6120 N   0  0  0  0  0  0  0  0  0  0  0  0
   -0.7980    0.3270    0.4710 C   0  0  0  0  0  0  0  0  0  0  0  0
   -0.7850    1.6420    1.1050 C   0  0  0  0  0  0  0  0  0  0  0  0
   -2.0140   -0.2610    0.3480 C   0  0  0  0  0  0  0  0  0  0  0  0
   -2.1430   -1.5440   -0.2530 N   0  0  0  0  0  0  0  0  0  0  0  0
   -3.2080    0.3600    0.8030 N   0  0  0  0  0  0  0  0  0  0  0  0
  1  2  1  0
  2  3  1  0
  2  4  2  3
  4  5  1  0
  4  6  1  0
  6  7  1  0
  6  8  2  3
  8  9  1  0
  8 10  1  0
M  END
