
     RDKit          3D

 10  9  0  0  0  0  0  0  0  0999 V2000
   -2.2700    1.8440   -0.4220 C   0  0  0  0  0  0  0  0  0  0  0  0
   -0.9320    1.3490    0.0760 C   0  0  0  0  0  0  0  0  0  0  0  0
   -0.9980   -0.0210    0.6060 C   0  0  0  0  0  0  0  0  0  0  0  0
   -1.8530   -0.3210    1.7100 N   0  0  0  0  0  0  0  0  0  0  0  0
   -0.2620   -0.9560    0.0500 C   0  0  0  0  0  0  0  0  0  0  0  0
   -0.3230   -2.3390    0.5780 C   0  0  0  0  0  0  0  0  0  0  0  0
    0.5730   -0.6700   -1.0250 N   0  0  0  0  0  0  0  0  0  0  0  0
    1.7550   -0.2090   -0.9890 C   0  0  0  0  0  0  0  0  0  0  0  0
    2.4720    0.1160    0.2770 C   0  0  0  0  0  0  0  0  0  0  0  0
    2.4480    0.0160   -2.2000 N   0  0  0  0  0  0  0  0  0  0  0  0
  1  2  1  0
  2  3  1  0
  3  4  1  0
  3  5  2  3
  5  6  1  0
  5  7  1  0
  7  8  2  3
  8  9  1  0
  8 10  1  0
M  END
