
     RDKit          3D

 10  9  0  0  0  0  0  0  0  0999 V2000
   -0.0750   -1.2170   -1.2670 C   0  0  0  0  0  0  0  0  0  0  0  0
   -0.1480   -0.1930   -0.2030 C   0  0  0  0  0  0  0  0  0  0  0  0
    0.9550    0.2270    0.3880 C   0  0  0  0  0  0  0  0  0  0  0  0
    0.8660    1.2300    1.4270 N   0  0  0  0  0  0  0  0  0  0  0  0
    2.2830   -0.2500    0.0700 C   0  0  0  0  0  0  0  0  0  0  0  0
    2.4870   -1.1430   -0.8380 N   0  0  0  0  0  0  0  0  0  0  0  0
    3.4310    0.2340    0.7350 N   0  0  0  0  0  0  0  0  0  0  0  0
   -1.4380    0.3750    0.2150 C   0  0  1  0  0  0  0  0  0  0  0  0
   -2.1400    1.0770   -0.9490 C   0  0  0  0  0  0  0  0  0  0  0  0
   -2.4010   -0.6500    0.7450 C   0  0  0  0  0  0  0  0  0  0  0  0
  1  2  1  0
  2  3  2  3
  2  8  1  0
  3  4  1  0
  3  5  1  0
  5  6  2  0
  5  7  1  0
  8  9  1  6
  8 10  1  0
M  END
