
     RDKit          3D

 10  9  0  0  0  0  0  0  0  0999 V2000
   -1.8830    0.4900    1.6410 C   0  0  0  0  0  0  0  0  0  0  0  0
   -1.5050    0.5540    0.2320 C   0  0  0  0  0  0  0  0  0  0  0  0
   -2.5080    1.0670   -0.7310 C   0  0  0  0  0  0  0  0  0  0  0  0
   -0.3170    0.1760   -0.2090 C   0  0  0  0  0  0  0  0  0  0  0  0
   -0.0470    0.2910   -1.7040 C   0  0  0  0  0  0  0  0  0  0  0  0
    0.7430   -0.3270    0.6050 C   0  0  0  0  0  0  0  0  0  0  0  0
    0.5450   -0.4420    2.0130 N   0  0  0  0  0  0  0  0  0  0  0  0
    1.9150   -0.7040    0.1870 C   0  0  0  0  0  0  0  0  0  0  0  0
    2.3690   -0.6910   -1.1450 N   0  0  0  0  0  0  0  0  0  0  0  0
    2.8980   -1.1980    1.1440 N   0  0  0  0  0  0  0  0  0  0  0  0
  1  2  1  0
  2  3  1  0
  2  4  2  3
  4  5  1  0
  4  6  1  0
  6  7  1  0
  6  8  2  3
  8  9  1  0
  8 10  1  0
M  END
