
     RDKit          3D

  6  5  0  0  0  0  0  0  0  0999 V2000
    0.2660    1.6740    0.4670 N   0  0  0  0  0  0  0  0  0  0  0  0
   -0.0790    0.4020   -0.0170 C   0  0  0  0  0  0  0  0  0  0  0  0
   -1.2950   -0.0540    0.1350 C   0  0  0  0  0  0  0  0  0  0  0  0
   -1.6980   -1.3080   -0.3230 O   0  0  0  0  0  0  0  0  0  0  0  0
    0.9290   -0.4270   -0.7010 C   0  0  0  0  0  0  0  0  0  0  0  0
    1.9800   -0.6550    0.1990 O   0  0  0  0  0  0  0  0  0  0  0  0
  1  2  1  0
  2  3  2  3
  2  5  1  0
  3  4  1  0
  5  6  1  0
M  END
