
     RDKit          3D

  6  5  0  0  0  0  0  0  0  0999 V2000
   -2.1150    0.0510    0.0240 N   0  0  0  0  0  0  0  0  0  0  0  0
   -0.9370   -0.7210   -0.3130 C   0  0  0  0  0  0  0  0  0  0  0  0
    0.3060    0.0710   -0.2600 C   0  0  0  0  0  0  0  0  0  0  0  0
    0.4700    1.1790   -1.0650 O   0  0  0  0  0  0  0  0  0  0  0  0
    1.2810   -0.2680    0.5580 C   0  0  0  0  0  0  0  0  0  0  0  0
    2.4660    0.4540    0.6360 O   0  0  0  0  0  0  0  0  0  0  0  0
  1  2  1  0
  2  3  1  0
  3  4  1  0
  3  5  2  3
  5  6  1  0
M  END
