
     RDKit          3D

  7  7  0  0  0  0  0  0  0  0999 V2000
   -1.4900   -0.2540    0.5010 N   0  0  0  0  0  0  0  0  0  0  0  0
   -0.3110   -0.0470   -0.2750 C   0  0  2  0  0  0  0  0  0  0  0  0
    0.6160   -1.2700   -0.2680 C   0  0  0  0  0  0  0  0  0  0  0  0
    1.8590   -0.6230   -0.4480 O   0  0  0  0  0  0  0  0  0  0  0  0
    1.8720    0.3670    0.4180 O   0  0  0  0  0  0  0  0  0  0  0  0
    0.6240    0.9950    0.3220 C   0  0  1  0  0  0  0  0  0  0  0  0
    0.6800    2.1330   -0.4900 O   0  0  0  0  0  0  0  0  0  0  0  0
  2  1  1  1
  2  3  1  0
  2  6  1  0
  3  4  1  0
  4  5  1  0
  5  6  1  0
  6  7  1  6
M  CHG  1   1   1
M  END
