
     RDKit          3D

 23 25  0  0  0  0  0  0  0  0999 V2000
   -3.6590   -2.5690   -2.0190 C   0  0  0  0  0  0  0  0  0  0  0  0
   -3.0540   -1.5060   -1.1520 C   0  0  0  0  0  0  0  0  0  0  0  0
   -3.7410   -0.3580   -0.7990 C   0  0  0  0  0  0  0  0  0  0  0  0
   -3.2020    0.6120    0.0030 C   0  0  0  0  0  0  0  0  0  0  0  0
   -3.9430    1.8410    0.3730 C   0  0  1  0  0  0  0  0  0  0  0  0
   -4.6280    2.4820   -0.8090 C   0  0  0  0  0  0  0  0  0  0  0  0
   -4.9520    1.3990    1.4400 C   0  0  0  0  0  0  0  0  0  0  0  0
   -1.9200    0.4740    0.4990 C   0  0  0  0  0  0  0  0  0  0  0  0
   -1.2090   -0.6480    0.1710 C   0  0  0  0  0  0  0  0  0  0  0  0
    0.1650   -0.8670    0.6970 C   0  0  2  0  0  0  0  0  0  0  0  0
   -0.0200   -1.4020    1.9960 O   0  0  0  0  0  0  0  0  0  0  0  0
    0.9540    0.3750    0.8120 C   0  0  0  0  0  0  0  0  0  0  0  0
    2.0930    0.3560   -0.2050 C   0  0  0  0  0  0  0  0  0  0  0  0
    3.0340   -0.7470    0.2190 C   0  0  2  0  0  0  0  0  0  0  0  0
    4.2860   -0.7300   -0.3590 O   0  0  0  0  0  0  0  0  0  0  0  0
    5.2240    0.2730   -0.2840 C   0  0  0  0  0  0  0  0  0  0  0  0
    5.2250    1.4520   -0.8680 C   0  0  0  0  0  0  0  0  0  0  0  0
    6.4570    2.2120   -0.4930 C   0  0  0  0  0  0  0  0  0  0  0  0
    7.1260    1.2910    0.3690 N   0  0  0  0  0  0  0  0  0  0  0  0
    6.4500    0.2110    0.4910 C   0  0  0  0  0  0  0  0  0  0  0  0
    2.3160   -2.0630    0.1010 C   0  0  0  0  0  0  0  0  0  0  0  0
    0.8560   -1.9230   -0.1480 C   0  0  0  0  0  0  0  0  0  0  0  0
   -1.7760   -1.6240   -0.6470 C   0  0  0  0  0  0  0  0  0  0  0  0
  1  2  1  0
  2  3  2  0
  2 23  1  0
  3  4  1  0
  4  5  1  0
  4  8  2  0
  5  6  1  6
  5  7  1  0
  8  9  1  0
  9 10  1  0
  9 23  2  0
 10 11  1  1
 10 12  1  0
 10 22  1  0
 12 13  1  0
 13 14  1  0
 14 15  1  6
 14 21  1  0
 15 16  1  0
 16 17  2  0
 16 20  1  0
 17 18  1  0
 18 19  1  0
 19 20  2  0
 21 22  1  0
M  END
