
     RDKit          3D

 23 25  0  0  0  0  0  0  0  0999 V2000
    3.9650   -1.3810    2.1610 C   0  0  0  0  0  0  0  0  0  0  0  0
    3.7360   -0.6710    0.8240 C   0  0  1  0  0  0  0  0  0  0  0  0
    3.7870   -1.6080   -0.3370 C   0  0  0  0  0  0  0  0  0  0  0  0
    2.4760   -1.5520   -1.0660 C   0  0  0  0  0  0  0  0  0  0  0  0
    1.9090   -0.1760   -0.6210 C   0  0  1  0  0  0  0  0  0  0  0  0
    2.6050    0.8060   -1.5270 C   0  0  0  0  0  0  0  0  0  0  0  0
    3.9810    0.8470   -1.3340 O   0  0  0  0  0  0  0  0  0  0  0  0
    0.5000   -0.2240   -0.8020 N   0  0  0  0  0  0  0  0  0  0  0  0
   -0.4850    0.7430   -0.4870 C   0  0  0  0  0  0  0  0  0  0  0  0
   -0.1710    1.9770    0.0190 C   0  0  0  0  0  0  0  0  0  0  0  0
   -1.1210    2.9400    0.2830 C   0  0  0  0  0  0  0  0  0  0  0  0
   -2.4400    2.6680    0.0340 C   0  0  0  0  0  0  0  0  0  0  0  0
   -2.7820    1.4320   -0.4740 C   0  0  0  0  0  0  0  0  0  0  0  0
   -1.8100    0.4630   -0.7370 C   0  0  0  0  0  0  0  0  0  0  0  0
   -2.3260   -0.8240   -1.2070 C   0  0  0  0  0  0  0  0  0  0  0  0
   -2.5780   -1.8600   -0.1780 C   0  0  1  0  0  0  0  0  0  0  0  0
   -3.0960   -3.0970   -0.9270 C   0  0  0  0  0  0  0  0  0  0  0  0
   -1.4610   -2.2920    0.6880 C   0  0  0  0  0  0  0  0  0  0  0  0
   -3.7320   -1.4800    0.7500 C   0  0  0  0  0  0  0  0  0  0  0  0
   -3.2140    3.7910    0.3750 O   0  0  0  0  0  0  0  0  0  0  0  0
   -2.3520    4.9060    0.5510 C   0  0  0  0  0  0  0  0  0  0  0  0
   -1.0010    4.3440    0.8380 C   0  0  0  0  0  0  0  0  0  0  0  0
    2.3060   -0.1560    0.8020 C   0  0  0  0  0  0  0  0  0  0  0  0
  2  1  1  1
  2  3  1  0
  2 23  1  0
  3  4  1  0
  4  5  1  0
  5  6  1  6
  5  8  1  0
  5 23  1  0
  6  7  1  0
  8  9  1  0
  9 10  2  0
  9 14  1  0
 10 11  1  0
 11 12  2  0
 11 22  1  0
 12 13  1  0
 12 20  1  0
 13 14  2  0
 14 15  1  0
 15 16  1  0
 16 17  1  6
 16 18  1  0
 16 19  1  0
 20 21  1  0
 21 22  1  0
M  END
