
     RDKit          3D

 23 25  0  0  0  0  0  0  0  0999 V2000
   -1.2440    3.9540   -0.1150 C   0  0  0  0  0  0  0  0  0  0  0  0
   -0.7590    2.5700    0.0680 C   0  0  0  0  0  0  0  0  0  0  0  0
    0.5140    2.1480    0.0200 N   0  0  0  0  0  0  0  0  0  0  0  0
    0.5940    0.8380    0.2280 C   0  0  0  0  0  0  0  0  0  0  0  0
    1.8190    0.0080    0.2490 C   0  0  0  0  0  0  0  0  0  0  0  0
    1.6470   -1.1970    0.4660 O   0  0  0  0  0  0  0  0  0  0  0  0
    3.0750    0.6170    0.0260 C   0  0  0  0  0  0  0  0  0  0  0  0
    4.2430    0.0630    0.0090 C   0  0  0  0  0  0  0  0  0  0  0  0
    4.5000   -1.3570    0.2250 C   0  0  2  0  0  0  0  0  0  0  0  0
    5.6150   -1.5480    1.2570 C   0  0  0  0  0  0  0  0  0  0  0  0
    6.8630   -1.1760    0.5180 C   0  0  0  0  0  0  0  0  0  0  0  0
    6.5480   -1.3240   -0.9600 C   0  0  0  0  0  0  0  0  0  0  0  0
    5.1670   -1.9630   -1.0060 C   0  0  0  0  0  0  0  0  0  0  0  0
   -0.7090    0.4120    0.4190 C   0  0  0  0  0  0  0  0  0  0  0  0
   -1.5880    1.4690    0.3250 C   0  0  0  0  0  0  0  0  0  0  0  0
   -3.0600    1.5020    0.4890 C   0  0  1  0  0  0  0  0  0  0  0  0
   -3.6100    2.2850   -0.5520 O   0  0  0  0  0  0  0  0  0  0  0  0
   -3.7210    0.1590    0.3820 C   0  0  2  0  0  0  0  0  0  0  0  0
   -3.4870   -0.4090   -0.9720 C   0  0  0  0  0  0  0  0  0  0  0  0
   -4.1990   -1.7230   -1.1960 C   0  0  0  0  0  0  0  0  0  0  0  0
   -5.6140   -1.7000   -0.6850 C   0  0  0  0  0  0  0  0  0  0  0  0
   -5.7810   -1.0820    0.6630 C   0  0  0  0  0  0  0  0  0  0  0  0
   -5.2150    0.3420    0.5920 C   0  0  0  0  0  0  0  0  0  0  0  0
  1  2  1  0
  2  3  1  0
  2 15  2  0
  3  4  1  0
  4  5  1  0
  4 14  2  0
  5  6  2  0
  5  7  1  0
  7  8  2  3
  9  8  1  6
  9 10  1  0
  9 13  1  0
 10 11  1  0
 11 12  1  0
 12 13  1  0
 14 15  1  0
 15 16  1  0
 16 17  1  6
 16 18  1  0
 18 19  1  6
 18 23  1  0
 19 20  1  0
 20 21  1  0
 21 22  1  0
 22 23  1  0
M  END
