
     RDKit          3D

 23 25  0  0  0  0  0  0  0  0999 V2000
   -5.9330    1.2840   -0.1340 C   0  0  0  0  0  0  0  0  0  0  0  0
   -5.0340    0.0480   -0.4310 C   0  0  0  0  0  0  0  0  0  0  0  0
   -3.8320    0.5690   -1.0330 C   0  0  0  0  0  0  0  0  0  0  0  0
   -2.5600    0.5850   -0.7590 C   0  0  0  0  0  0  0  0  0  0  0  0
   -1.6990    1.3020   -1.7790 C   0  0  0  0  0  0  0  0  0  0  0  0
   -1.9230    0.0120    0.4010 C   0  0  0  0  0  0  0  0  0  0  0  0
   -0.6200   -0.0100    0.7390 C   0  0  0  0  0  0  0  0  0  0  0  0
    0.5800    0.5130    0.0910 C   0  0  0  0  0  0  0  0  0  0  0  0
    1.8130    0.3830    0.6040 C   0  0  0  0  0  0  0  0  0  0  0  0
    2.9890    0.9330   -0.0960 C   0  0  2  0  0  0  0  0  0  0  0  0
    2.5890    1.5460   -1.2910 O   0  0  0  0  0  0  0  0  0  0  0  0
    3.9860   -0.0940   -0.4510 C   0  0  0  0  0  0  0  0  0  0  0  0
    4.9840    0.2240   -1.3500 C   0  0  0  0  0  0  0  0  0  0  0  0
    5.9570   -0.6990   -1.7290 C   0  0  0  0  0  0  0  0  0  0  0  0
    5.9380   -1.9790   -1.1980 C   0  0  0  0  0  0  0  0  0  0  0  0
    4.9250   -2.2570   -0.3030 C   0  0  0  0  0  0  0  0  0  0  0  0
    3.9970   -1.3440    0.0450 N   0  0  0  0  0  0  0  0  0  0  0  0
    1.9470   -0.3160    1.8670 C   0  0  0  0  0  0  0  0  0  0  0  0
    3.0730   -0.4870    2.4270 O   0  0  0  0  0  0  0  0  0  0  0  0
    0.7700   -0.8480    2.5360 C   0  0  0  0  0  0  0  0  0  0  0  0
   -0.4550   -0.7090    2.0090 C   0  0  0  0  0  0  0  0  0  0  0  0
   -1.7770   -1.1520    2.4800 C   0  0  0  0  0  0  0  0  0  0  0  0
   -2.7230   -0.6730    1.4540 C   0  0  0  0  0  0  0  0  0  0  0  0
  1  2  1  0
  2  3  1  0
  3  4  2  3
  4  5  1  0
  4  6  1  0
  6  7  2  0
  6 23  1  0
  7  8  1  0
  7 21  1  0
  8  9  2  0
  9 10  1  0
  9 18  1  0
 10 11  1  6
 10 12  1  0
 12 13  2  0
 12 17  1  0
 13 14  1  0
 14 15  2  0
 15 16  1  0
 16 17  2  0
 18 19  2  0
 18 20  1  0
 20 21  2  0
 21 22  1  0
 22 23  1  0
M  END
