
     RDKit          3D

 33 37  0  0  0  0  0  0  0  0999 V2000
   -9.0210    0.7950    0.4660 O   0  0  0  0  0  0  0  0  0  0  0  0
   -8.2500   -0.1170    0.0930 C   0  0  0  0  0  0  0  0  0  0  0  0
   -6.7630    0.0950    0.1190 C   0  0  0  0  0  0  0  0  0  0  0  0
   -6.1360   -1.2110    0.1650 N   0  0  2  0  0  0  0  0  0  0  0  0
   -4.7020   -1.1110    0.1030 C   0  0  0  0  0  0  0  0  0  0  0  0
   -4.2040    0.2450    0.4960 C   0  0  0  0  0  0  0  0  0  0  0  0
   -2.7000    0.2890    0.4110 C   0  0  0  0  0  0  0  0  0  0  0  0
   -2.1170   -0.7410    0.0500 O   0  0  0  0  0  0  0  0  0  0  0  0
   -2.0360    1.4590    0.7350 N   0  0  0  0  0  0  0  0  0  0  0  0
   -0.6450    1.6510    0.7080 C   0  0  0  0  0  0  0  0  0  0  0  0
   -0.1560    2.9500    0.9250 C   0  0  0  0  0  0  0  0  0  0  0  0
    1.1810    3.2260    0.9230 C   0  0  0  0  0  0  0  0  0  0  0  0
    2.1190    2.2400    0.7080 C   0  0  0  0  0  0  0  0  0  0  0  0
    1.6490    0.9650    0.4950 C   0  0  0  0  0  0  0  0  0  0  0  0
    0.2760    0.6600    0.4930 C   0  0  0  0  0  0  0  0  0  0  0  0
    2.5810   -0.0390    0.2770 O   0  0  0  0  0  0  0  0  0  0  0  0
    3.9630    0.2070    0.2680 C   0  0  0  0  0  0  0  0  0  0  0  0
    4.8770   -0.7950    0.0510 C   0  0  0  0  0  0  0  0  0  0  0  0
    6.2480   -0.5780    0.0370 C   0  0  0  0  0  0  0  0  0  0  0  0
    7.2960   -1.3450   -0.1430 O   0  0  0  0  0  0  0  0  0  0  0  0
    8.4150   -0.6770   -0.0650 C   0  0  0  0  0  0  0  0  0  0  0  0
    9.8150   -1.2150   -0.2170 C   0  0  0  0  0  0  0  0  0  0  0  0
   10.2030   -1.1450   -1.5900 N   0  0  0  0  0  0  0  0  0  0  0  0
    9.4260   -0.6890   -2.4550 O   0  0  0  0  0  0  0  0  0  0  0  0
   11.4290   -1.5720   -1.9850 O   0  0  0  0  0  0  0  0  0  0  0  0
    8.0670    0.6330    0.1860 C   0  0  0  0  0  0  0  0  0  0  0  0
    6.6940    0.7090    0.2530 C   0  0  0  0  0  0  0  0  0  0  0  0
    5.7810    1.7270    0.4730 C   0  0  0  0  0  0  0  0  0  0  0  0
    4.4180    1.4890    0.4830 C   0  0  0  0  0  0  0  0  0  0  0  0
    3.4920    2.4860    0.6990 O   0  0  0  0  0  0  0  0  0  0  0  0
   -6.5900   -2.0570   -0.9010 C   0  0  0  0  0  0  0  0  0  0  0  0
   -7.9830   -2.5180   -0.5820 C   0  0  0  0  0  0  0  0  0  0  0  0
   -8.8100   -1.3490   -0.3530 N   0  0  0  0  0  0  0  0  0  0  0  0
  1  2  2  0
  2  3  1  0
  2 33  1  0
  3  4  1  0
  4  5  1  6
  4 31  1  0
  5  6  1  0
  6  7  1  0
  7  8  2  0
  7  9  1  0
  9 10  1  0
 10 11  2  0
 10 15  1  0
 11 12  1  0
 12 13  2  0
 13 14  1  0
 13 30  1  0
 14 15  2  0
 14 16  1  0
 16 17  1  0
 17 18  2  0
 17 29  1  0
 18 19  1  0
 19 20  1  0
 19 27  2  0
 20 21  1  0
 21 22  1  0
 21 26  2  0
 22 23  1  0
 23 24  2  0
 23 25  1  0
 26 27  1  0
 27 28  1  0
 28 29  2  0
 29 30  1  0
 31 32  1  0
 32 33  1  0
M  CHG  3   4   1  23   1  25  -1
M  END
