
     RDKit          3D

 33 37  0  0  0  0  0  0  0  0999 V2000
   -8.8660   -0.6400    2.3230 C   0  0  0  0  0  0  0  0  0  0  0  0
   -7.4990   -0.5320    1.7150 C   0  0  0  0  0  0  0  0  0  0  0  0
   -7.3860    0.1690    0.6050 C   0  0  0  0  0  0  0  0  0  0  0  0
   -8.5500    0.8210   -0.0150 C   0  0  0  0  0  0  0  0  0  0  0  0
   -8.3580    1.5080   -1.1290 C   0  0  0  0  0  0  0  0  0  0  0  0
   -7.0450    1.6350   -1.7500 C   0  0  0  0  0  0  0  0  0  0  0  0
   -5.9640    1.0720   -1.2380 C   0  0  0  0  0  0  0  0  0  0  0  0
   -6.0740    0.2940   -0.0120 C   0  0  0  0  0  0  0  0  0  0  0  0
   -5.0260   -0.2720    0.5150 N   0  0  0  0  0  0  0  0  0  0  0  0
   -3.7390   -0.1400   -0.1050 C   0  0  0  0  0  0  0  0  0  0  0  0
   -3.1940   -1.1680   -0.8520 C   0  0  0  0  0  0  0  0  0  0  0  0
   -1.9550   -0.9840   -1.4260 C   0  0  0  0  0  0  0  0  0  0  0  0
   -1.2310    0.1930   -1.2840 C   0  0  0  0  0  0  0  0  0  0  0  0
    0.0890    0.3580   -1.9090 C   0  0  0  0  0  0  0  0  0  0  0  0
    1.2090    0.0220   -1.1090 N   0  0  0  0  0  0  0  0  0  0  0  0
    1.2970   -1.3100   -0.6310 C   0  0  0  0  0  0  0  0  0  0  0  0
    2.1370   -1.4530    0.6170 C   0  0  0  0  0  0  0  0  0  0  0  0
    3.3030   -0.6220    0.5090 N   0  0  0  0  0  0  0  0  0  0  0  0
    3.1450    0.6410    0.0700 C   0  0  0  0  0  0  0  0  0  0  0  0
    4.3370    1.2700    0.0320 N   0  0  0  0  0  0  0  0  0  0  0  0
    5.2780    0.4050    0.4510 C   0  0  0  0  0  0  0  0  0  0  0  0
    6.7180    0.5750    0.6010 C   0  0  0  0  0  0  0  0  0  0  0  0
    7.6250   -0.3620    0.1670 C   0  0  0  0  0  0  0  0  0  0  0  0
    8.9840   -0.1800    0.3220 C   0  0  0  0  0  0  0  0  0  0  0  0
    9.4760    0.9580    0.9200 C   0  0  0  0  0  0  0  0  0  0  0  0
    8.5930    1.9040    1.3590 C   0  0  0  0  0  0  0  0  0  0  0  0
    9.2240    3.3560    2.1230 Cl  0  0  0  0  0  0  0  0  0  0  0  0
    7.2190    1.7070    1.1970 C   0  0  0  0  0  0  0  0  0  0  0  0
    4.6230   -0.7790    0.7480 C   0  0  0  0  0  0  0  0  0  0  0  0
    5.2280   -2.0190    1.2430 C   0  0  0  0  0  0  0  0  0  0  0  0
    1.7330    1.0320   -0.2620 C   0  0  0  0  0  0  0  0  0  0  0  0
   -1.8200    1.1540   -0.5420 N   0  0  0  0  0  0  0  0  0  0  0  0
   -3.0090    0.9840    0.0110 N   0  0  0  0  0  0  0  0  0  0  0  0
  1  2  1  0
  2  3  2  3
  3  4  1  0
  3  8  1  0
  4  5  2  0
  5  6  1  0
  6  7  2  0
  7  8  1  0
  8  9  2  3
  9 10  1  0
 10 11  2  0
 10 33  1  0
 11 12  1  0
 12 13  2  0
 13 14  1  0
 13 32  1  0
 14 15  1  0
 15 16  1  0
 15 31  1  0
 16 17  1  0
 17 18  1  0
 18 19  1  0
 18 29  1  0
 19 20  2  0
 19 31  1  0
 20 21  1  0
 21 22  1  0
 21 29  2  0
 22 23  2  0
 22 28  1  0
 23 24  1  0
 24 25  2  0
 25 26  1  0
 26 27  1  0
 26 28  2  0
 29 30  1  0
 32 33  2  0
M  END
