
     RDKit          3D

 33 37  0  0  0  0  0  0  0  0999 V2000
    1.5890    2.7700    2.8710 C   0  0  0  0  0  0  0  0  0  0  0  0
    2.0770    2.2580    1.5170 C   0  0  0  0  0  0  0  0  0  0  0  0
    3.3090    2.4710    1.2250 C   0  0  0  0  0  0  0  0  0  0  0  0
    4.7560    2.8510    1.1500 C   0  0  0  0  0  0  0  0  0  0  0  0
    4.0650    2.0410    0.0640 C   0  0  0  0  0  0  0  0  0  0  0  0
    3.6290    1.3840   -0.8800 N   0  0  0  0  0  0  0  0  0  0  0  0
    3.9400    0.8090   -2.0580 C   0  0  0  0  0  0  0  0  0  0  0  0
    4.5840   -0.3770   -2.1880 C   0  0  0  0  0  0  0  0  0  0  0  0
    5.0540   -1.2380   -1.1500 C   0  0  0  0  0  0  0  0  0  0  0  0
    4.5090   -2.0890   -0.3210 C   0  0  0  0  0  0  0  0  0  0  0  0
    5.6860   -2.9340    0.8300 Cl  0  0  0  0  0  0  0  0  0  0  0  0
    3.1360   -2.5510   -0.1380 C   0  0  0  0  0  0  0  0  0  0  0  0
    2.7320   -3.8930   -0.4190 C   0  0  0  0  0  0  0  0  0  0  0  0
    1.4200   -3.9820   -0.1310 C   0  0  0  0  0  0  0  0  0  0  0  0
    1.0040   -2.8140    0.2990 N   0  0  0  0  0  0  0  0  0  0  0  0
    2.0450   -1.9430    0.2970 N   0  0  0  0  0  0  0  0  0  0  0  0
    1.8940   -0.5970    0.7810 C   0  0  0  0  0  0  0  0  0  0  0  0
    1.3870    0.4060   -0.0090 N   0  0  0  0  0  0  0  0  0  0  0  0
    0.6820    0.2290   -1.1960 C   0  0  0  0  0  0  0  0  0  0  0  0
   -0.7030   -0.3090   -1.1890 C   0  0  0  0  0  0  0  0  0  0  0  0
   -1.6760    0.5170   -0.5200 N   0  0  0  0  0  0  0  0  0  0  0  0
   -2.9780   -0.0510   -0.3570 C   0  0  0  0  0  0  0  0  0  0  0  0
   -3.2460   -1.2930   -0.8140 N   0  0  0  0  0  0  0  0  0  0  0  0
   -4.4380   -1.8750   -0.6910 C   0  0  0  0  0  0  0  0  0  0  0  0
   -4.6890   -3.2480   -1.2110 C   0  0  0  0  0  0  0  0  0  0  0  0
   -5.4280   -1.1620   -0.0670 C   0  0  0  0  0  0  0  0  0  0  0  0
   -5.2180    0.1120    0.4220 C   0  0  0  0  0  0  0  0  0  0  0  0
   -6.2540    0.7820    1.0420 C   0  0  0  0  0  0  0  0  0  0  0  0
   -6.0670    2.0540    1.5380 C   0  0  0  0  0  0  0  0  0  0  0  0
   -4.8380    2.6230    1.3980 C   0  0  0  0  0  0  0  0  0  0  0  0
   -3.7940    1.9390    0.7690 C   0  0  0  0  0  0  0  0  0  0  0  0
   -3.9590    0.6610    0.2640 C   0  0  0  0  0  0  0  0  0  0  0  0
    1.0480    1.6040    0.7040 C   0  0  0  0  0  0  0  0  0  0  0  0
  1  2  1  0
  2  3  2  0
  2 33  1  0
  3  4  1  0
  3  5  1  0
  4  5  1  0
  5  6  2  0
  6  7  1  0
  7  8  2  0
  8  9  1  0
  9 10  2  0
 10 11  1  0
 10 12  1  0
 12 13  2  0
 12 16  1  0
 13 14  1  0
 14 15  2  0
 15 16  1  0
 16 17  1  0
 17 18  1  0
 18 19  1  0
 18 33  1  0
 19 20  1  0
 20 21  1  0
 21 22  1  0
 22 23  2  0
 22 32  1  0
 23 24  1  0
 24 25  1  0
 24 26  2  0
 26 27  1  0
 27 28  2  0
 27 32  1  0
 28 29  1  0
 29 30  2  0
 30 31  1  0
 31 32  2  0
M  END
