
     RDKit          3D

 32 35  0  0  0  0  0  0  0  0999 V2000
    0.5800   -2.4340   -1.3320 O   0  0  0  0  0  0  0  0  0  0  0  0
   -0.1950   -1.3690   -1.3660 C   0  0  0  0  0  0  0  0  0  0  0  0
   -0.2020   -0.7800   -2.7270 C   0  0  0  0  0  0  0  0  0  0  0  0
    1.2230   -0.8000   -3.2560 C   0  0  0  0  0  0  0  0  0  0  0  0
    2.1120    0.2260   -2.6950 C   0  0  0  0  0  0  0  0  0  0  0  0
    2.3350    1.2360   -3.4550 O   0  0  0  0  0  0  0  0  0  0  0  0
    2.7110    0.2130   -1.4890 O   0  0  0  0  0  0  0  0  0  0  0  0
    2.3550    0.0340   -0.1860 C   0  0  0  0  0  0  0  0  0  0  0  0
    2.8890   -1.0820    0.4760 C   0  0  0  0  0  0  0  0  0  0  0  0
    2.5630   -1.3070    1.7920 C   0  0  0  0  0  0  0  0  0  0  0  0
    3.1440   -2.4990    2.4630 C   0  0  0  0  0  0  0  0  0  0  0  0
    3.9570   -3.2160    1.6040 O   0  0  0  0  0  0  0  0  0  0  0  0
    1.7270   -0.4540    2.4550 C   0  0  0  0  0  0  0  0  0  0  0  0
    1.3890   -0.6700    3.7870 O   0  0  0  0  0  0  0  0  0  0  0  0
    1.2030    0.6330    1.8220 C   0  0  0  0  0  0  0  0  0  0  0  0
    1.4870    0.9200    0.5000 C   0  0  0  0  0  0  0  0  0  0  0  0
    1.0330    1.9410   -0.1920 O   0  0  0  0  0  0  0  0  0  0  0  0
    0.1870    2.4870   -1.0850 C   0  0  0  0  0  0  0  0  0  0  0  0
    0.6410    3.3970   -2.0460 C   0  0  0  0  0  0  0  0  0  0  0  0
   -0.1240    3.9860   -2.9630 N   0  0  0  0  0  0  0  0  0  0  0  0
   -1.4320    3.7010   -2.9880 C   0  0  0  0  0  0  0  0  0  0  0  0
   -1.9220    2.8230   -2.0740 C   0  0  0  0  0  0  0  0  0  0  0  0
   -1.1670    2.1700   -1.0830 C   0  0  0  0  0  0  0  0  0  0  0  0
   -1.8590    1.2660   -0.1720 C   0  0  0  0  0  0  0  0  0  0  0  0
   -1.7360    0.0180    0.1850 C   0  0  0  0  0  0  0  0  0  0  0  0
   -2.7420   -0.4730    1.2090 C   0  0  0  0  0  0  0  0  0  0  0  0
   -2.8370   -1.6610    1.7290 C   0  0  0  0  0  0  0  0  0  0  0  0
   -3.9680   -1.7190    2.6980 C   0  0  0  0  0  0  0  0  0  0  0  0
   -4.4640   -0.3770    2.6160 N   0  0  0  0  0  0  0  0  0  0  0  0
   -5.5430    0.0820    3.3490 O   0  0  0  0  0  0  0  0  0  0  0  0
   -3.7850    0.3030    1.7950 N   0  0  0  0  0  0  0  0  0  0  0  0
   -0.8360   -1.0030   -0.1880 N   0  0  0  0  0  0  0  0  0  0  0  0
  1  2  2  0
  2  3  1  0
  2 32  1  0
  3  4  1  0
  4  5  1  0
  5  6  2  0
  5  7  1  0
  7  8  1  0
  8  9  2  0
  8 16  1  0
  9 10  1  0
 10 11  1  0
 10 13  2  0
 11 12  1  0
 13 14  1  0
 13 15  1  0
 15 16  2  0
 16 17  1  0
 17 18  1  0
 18 19  2  0
 18 23  1  0
 19 20  1  0
 20 21  2  0
 21 22  1  0
 22 23  2  0
 23 24  1  0
 24 25  2  0
 25 26  1  0
 25 32  1  0
 26 27  2  0
 26 31  1  0
 27 28  1  0
 28 29  1  0
 29 30  1  0
 29 31  2  0
M  CHG  3  20   1  29   1  30  -1
M  END
