
     RDKit          3D

 32 36  0  0  0  0  0  0  0  0999 V2000
    6.8570    1.0910    1.5430 C   0  0  0  0  0  0  0  0  0  0  0  0
    5.6240    0.4910    0.9430 C   0  0  0  0  0  0  0  0  0  0  0  0
    5.7470   -0.2370   -0.2130 C   0  0  0  0  0  0  0  0  0  0  0  0
    4.6110   -0.8080   -0.7930 C   0  0  0  0  0  0  0  0  0  0  0  0
    4.7710   -1.5170   -1.9380 N   0  0  0  0  0  0  0  0  0  0  0  0
    3.6670   -2.0450   -2.4670 C   0  0  0  0  0  0  0  0  0  0  0  0
    3.7890   -2.8410   -3.7390 C   0  0  0  0  0  0  0  0  0  0  0  0
    2.4230   -1.8920   -1.9010 C   0  0  0  0  0  0  0  0  0  0  0  0
    1.1680   -2.3530   -2.2850 C   0  0  0  0  0  0  0  0  0  0  0  0
    0.3430   -1.8970   -1.3550 N   0  0  0  0  0  0  0  0  0  0  0  0
    1.0150   -1.1660   -0.3960 C   0  0  0  0  0  0  0  0  0  0  0  0
    0.2970   -0.5760    0.7200 C   0  0  0  0  0  0  0  0  0  0  0  0
   -0.0600    0.8020    0.5410 N   0  0  0  0  0  0  0  0  0  0  0  0
   -0.8490    1.0720   -0.6040 C   0  0  0  0  0  0  0  0  0  0  0  0
   -2.1630    1.6770   -0.2260 C   0  0  0  0  0  0  0  0  0  0  0  0
   -3.0350    0.6870    0.5160 C   0  0  2  0  0  0  0  0  0  0  0  0
   -4.4160    1.1770    0.7250 C   0  0  0  0  0  0  0  0  0  0  0  0
   -5.1520    1.4570   -0.5640 C   0  0  0  0  0  0  0  0  0  0  0  0
   -5.2650    0.2610   -1.3580 N   0  0  0  0  0  0  0  0  0  0  0  0
   -4.4010   -0.1610   -2.2770 C   0  0  0  0  0  0  0  0  0  0  0  0
   -4.8630   -1.3650   -2.8280 C   0  0  0  0  0  0  0  0  0  0  0  0
   -6.0500   -1.6500   -2.1980 C   0  0  0  0  0  0  0  0  0  0  0  0
   -6.2700   -0.6270   -1.2960 C   0  0  0  0  0  0  0  0  0  0  0  0
   -2.3360    0.3210    1.7050 N   0  0  0  0  0  0  0  0  0  0  0  0
   -3.0370   -0.5890    2.5580 C   0  0  0  0  0  0  0  0  0  0  0  0
   -1.6370    1.3620    2.3490 C   0  0  0  0  0  0  0  0  0  0  0  0
   -0.2910    1.5720    1.7010 C   0  0  0  0  0  0  0  0  0  0  0  0
    2.2970   -1.1730   -0.7490 N   0  0  0  0  0  0  0  0  0  0  0  0
    3.3900   -0.6180   -0.1760 C   0  0  0  0  0  0  0  0  0  0  0  0
    3.2690    0.1110    0.9800 C   0  0  0  0  0  0  0  0  0  0  0  0
    4.4080    0.6720    1.5430 C   0  0  0  0  0  0  0  0  0  0  0  0
    4.3360    1.4800    2.8100 C   0  0  0  0  0  0  0  0  0  0  0  0
  1  2  1  0
  2  3  2  0
  2 31  1  0
  3  4  1  0
  4  5  1  0
  4 29  2  0
  5  6  2  0
  6  7  1  0
  6  8  1  0
  8  9  2  0
  8 28  1  0
  9 10  1  0
 10 11  2  0
 11 12  1  0
 11 28  1  0
 12 13  1  0
 13 14  1  0
 13 27  1  0
 14 15  1  0
 15 16  1  0
 16 17  1  1
 16 24  1  0
 17 18  1  0
 18 19  1  0
 19 20  1  0
 19 23  1  0
 20 21  2  0
 21 22  1  0
 22 23  2  0
 24 25  1  0
 24 26  1  0
 26 27  1  0
 28 29  1  0
 29 30  1  0
 30 31  2  0
 31 32  1  0
M  END
