
     RDKit          3D

 34 37  0  0  0  0  0  0  0  0999 V2000
   -4.2600   -2.0270    2.9060 C   0  0  0  0  0  0  0  0  0  0  0  0
   -3.1250   -1.4280    2.1480 C   0  0  0  0  0  0  0  0  0  0  0  0
   -1.8220   -1.8030    2.4320 C   0  0  0  0  0  0  0  0  0  0  0  0
   -0.8250   -1.2410    1.7280 N   0  0  0  0  0  0  0  0  0  0  0  0
   -0.9970   -0.3360    0.7610 C   0  0  0  0  0  0  0  0  0  0  0  0
    0.1120    0.2760   -0.0090 C   0  0  0  0  0  0  0  0  0  0  0  0
    1.4030   -0.1850    0.3720 N   0  0  0  0  0  0  0  0  0  0  0  0
    1.6910    0.1020    1.7280 C   0  0  0  0  0  0  0  0  0  0  0  0
    3.0980    0.4930    2.0390 C   0  0  0  0  0  0  0  0  0  0  0  0
    4.0870   -0.0590    1.1800 N   0  0  0  0  0  0  0  0  0  0  0  0
    5.4520    0.0050    1.4920 C   0  0  0  0  0  0  0  0  0  0  0  0
    6.0540    0.5560    2.5850 N   0  0  0  0  0  0  0  0  0  0  0  0
    7.3780    0.3790    2.4480 C   0  0  0  0  0  0  0  0  0  0  0  0
    7.6270   -0.2650    1.3040 N   0  0  0  0  0  0  0  0  0  0  0  0
    6.4460   -0.4840    0.7360 N   0  0  0  0  0  0  0  0  0  0  0  0
    3.6650   -0.7000   -0.0410 C   0  0  0  0  0  0  0  0  0  0  0  0
    2.4620    0.1430   -0.4940 C   0  0  1  0  0  0  0  0  0  0  0  0
    2.2650   -0.1180   -1.9380 C   0  0  1  0  0  0  0  0  0  0  0  0
    3.4520    0.2880   -2.5970 O   0  0  0  0  0  0  0  0  0  0  0  0
    2.1030   -1.5830   -2.2750 C   0  0  2  0  0  0  0  0  0  0  0  0
    1.0410   -2.1780   -1.6680 F   0  0  0  0  0  0  0  0  0  0  0  0
    3.2420   -2.3030   -1.9750 F   0  0  0  0  0  0  0  0  0  0  0  0
   -2.3160    0.0420    0.4760 C   0  0  0  0  0  0  0  0  0  0  0  0
   -2.5600    0.9730   -0.5110 O   0  0  0  0  0  0  0  0  0  0  0  0
   -3.7680    1.4470   -0.9200 C   0  0  0  0  0  0  0  0  0  0  0  0
   -3.9850    2.8170   -0.7750 C   0  0  0  0  0  0  0  0  0  0  0  0
   -5.1950    3.3190   -1.1800 C   0  0  0  0  0  0  0  0  0  0  0  0
   -5.4240    4.6560   -1.0460 F   0  0  0  0  0  0  0  0  0  0  0  0
   -6.1590    2.4880   -1.7120 C   0  0  0  0  0  0  0  0  0  0  0  0
   -5.9400    1.1420   -1.8520 C   0  0  0  0  0  0  0  0  0  0  0  0
   -6.8590    0.2800   -2.3700 F   0  0  0  0  0  0  0  0  0  0  0  0
   -4.7110    0.6180   -1.4430 C   0  0  0  0  0  0  0  0  0  0  0  0
   -4.4240   -0.8330   -1.5820 C   0  0  0  0  0  0  0  0  0  0  0  0
   -3.3190   -0.5160    1.1760 N   0  0  0  0  0  0  0  0  0  0  0  0
  1  2  1  0
  2  3  2  0
  2 34  1  0
  3  4  1  0
  4  5  2  0
  5  6  1  0
  5 23  1  0
  6  7  1  0
  7  8  1  0
  7 17  1  0
  8  9  1  0
  9 10  1  0
 10 11  1  0
 10 16  1  0
 11 12  1  0
 11 15  2  0
 12 13  2  0
 13 14  1  0
 14 15  1  0
 17 16  1  1
 17 18  1  0
 18 19  1  6
 18 20  1  0
 20 21  1  1
 20 22  1  0
 23 24  1  0
 23 34  2  0
 24 25  1  0
 25 26  2  0
 25 32  1  0
 26 27  1  0
 27 28  1  0
 27 29  2  0
 29 30  1  0
 30 31  1  0
 30 32  2  0
 32 33  1  0
M  END
