
     RDKit          3D

 34 37  0  0  0  0  0  0  0  0999 V2000
    5.3630    3.0420   -0.0230 C   0  0  0  0  0  0  0  0  0  0  0  0
    4.3290    2.1760    0.4270 O   0  0  0  0  0  0  0  0  0  0  0  0
    3.3180    1.8350   -0.4170 C   0  0  0  0  0  0  0  0  0  0  0  0
    3.3020    2.3350   -1.7000 C   0  0  0  0  0  0  0  0  0  0  0  0
    2.2810    2.0080   -2.5470 C   0  0  0  0  0  0  0  0  0  0  0  0
    1.2870    1.1840   -2.1080 C   0  0  0  0  0  0  0  0  0  0  0  0
    1.2840    0.6600   -0.7900 C   0  0  0  0  0  0  0  0  0  0  0  0
    0.1230   -0.1990   -0.4420 C   0  0  0  0  0  0  0  0  0  0  0  0
   -0.6070    0.4500    0.6150 N   0  0  0  0  0  0  0  0  0  0  0  0
   -1.9440    0.2200    0.8560 C   0  0  2  0  0  0  0  0  0  0  0  0
   -2.3650   -1.1840    0.9640 C   0  0  0  0  0  0  0  0  0  0  0  0
   -1.8270   -2.0840    1.9050 N   0  0  0  0  0  0  0  0  0  0  0  0
   -2.1630   -3.5120    1.7260 C   0  0  0  0  0  0  0  0  0  0  0  0
   -0.9890   -1.7270    3.0000 C   0  0  1  0  0  0  0  0  0  0  0  0
   -1.5690   -0.8670    3.9220 F   0  0  0  0  0  0  0  0  0  0  0  0
   -0.7170   -2.8950    3.7310 F   0  0  0  0  0  0  0  0  0  0  0  0
    0.2370   -1.2430    2.5900 F   0  0  0  0  0  0  0  0  0  0  0  0
   -3.2770   -1.5820    0.1650 N   0  0  0  0  0  0  0  0  0  0  0  0
   -3.9580   -0.8280   -0.8220 C   0  0  0  0  0  0  0  0  0  0  0  0
   -4.8690   -1.3720   -1.6300 C   0  0  0  0  0  0  0  0  0  0  0  0
   -5.4910   -0.6230   -2.5550 F   0  0  0  0  0  0  0  0  0  0  0  0
   -3.6160    0.5420   -0.9550 N   0  0  0  0  0  0  0  0  0  0  0  0
   -3.8500    1.5100   -1.9910 C   0  0  0  0  0  0  0  0  0  0  0  0
   -3.2990    2.8150   -1.4160 C   0  0  0  0  0  0  0  0  0  0  0  0
   -2.1630    2.2930   -0.5290 C   0  0  0  0  0  0  0  0  0  0  0  0
   -2.8890    1.1340    0.1380 C   0  0  2  0  0  0  0  0  0  0  0  0
    2.2790    0.9710    0.0360 C   0  0  0  0  0  0  0  0  0  0  0  0
    2.3590    0.5180    1.3140 O   0  0  0  0  0  0  0  0  0  0  0  0
    3.2170   -0.4800    1.7970 C   0  0  0  0  0  0  0  0  0  0  0  0
    3.1160   -1.7840    1.1060 C   0  0  0  0  0  0  0  0  0  0  0  0
    3.6430   -2.0780   -0.1430 N   0  0  0  0  0  0  0  0  0  0  0  0
    3.4030   -3.3340   -0.4640 C   0  0  0  0  0  0  0  0  0  0  0  0
    2.7290   -3.8930    0.5520 N   0  0  0  0  0  0  0  0  0  0  0  0
    2.5590   -2.9500    1.4980 N   0  0  0  0  0  0  0  0  0  0  0  0
  1  2  1  0
  2  3  1  0
  3  4  2  0
  3 27  1  0
  4  5  1  0
  5  6  2  0
  6  7  1  0
  7  8  1  0
  7 27  2  0
  8  9  1  0
 10  9  1  6
 10 11  1  0
 10 26  1  0
 11 12  1  0
 11 18  2  0
 12 13  1  0
 12 14  1  0
 14 15  1  1
 14 16  1  0
 14 17  1  0
 18 19  1  0
 19 20  2  3
 19 22  1  0
 20 21  1  0
 22 23  1  0
 22 26  1  0
 23 24  1  0
 24 25  1  0
 26 25  1  6
 27 28  1  0
 28 29  1  0
 29 30  1  0
 30 31  1  0
 30 34  2  0
 31 32  2  0
 32 33  1  0
 33 34  1  0
M  END
