
     RDKit          3D

 34 36  0  0  0  0  0  0  0  0999 V2000
    4.7280    0.5810   -1.4280 C   0  0  0  0  0  0  0  0  0  0  0  0
    3.4320    0.7490   -0.6460 C   0  0  0  0  0  0  0  0  0  0  0  0
    2.9240   -0.6390   -0.3430 C   0  0  2  0  0  0  0  0  0  0  0  0
    2.6960   -1.3050   -1.6940 C   0  0  0  0  0  0  0  0  0  0  0  0
    1.7390   -0.5660    0.4370 N   0  0  0  0  0  0  0  0  0  0  0  0
    0.5590    0.0290   -0.1010 C   0  0  0  0  0  0  0  0  0  0  0  0
    0.6240    0.4590   -1.2610 O   0  0  0  0  0  0  0  0  0  0  0  0
   -0.6610    0.1200    0.6610 C   0  0  0  0  0  0  0  0  0  0  0  0
   -0.8170   -0.3810    1.9040 C   0  0  0  0  0  0  0  0  0  0  0  0
   -2.1150   -0.2530    2.5430 C   0  0  0  0  0  0  0  0  0  0  0  0
   -3.1970    0.2860    2.0060 C   0  0  0  0  0  0  0  0  0  0  0  0
   -4.3440    0.3620    2.7400 F   0  0  0  0  0  0  0  0  0  0  0  0
   -3.1740    0.6080    0.5480 C   0  0  2  0  0  0  0  0  0  0  0  0
   -3.4380   -0.4820   -0.2480 N   0  0  0  0  0  0  0  0  0  0  0  0
   -4.5530   -1.2460   -0.4160 C   0  0  1  0  0  0  0  0  0  0  0  0
   -4.0830   -2.6070   -1.0200 C   0  0  0  0  0  0  0  0  0  0  0  0
   -5.4870   -1.6180    0.6700 C   0  0  1  0  0  0  0  0  0  0  0  0
   -4.9330   -2.3140    1.7090 F   0  0  0  0  0  0  0  0  0  0  0  0
   -6.3850   -0.6660    1.0570 F   0  0  0  0  0  0  0  0  0  0  0  0
   -6.3390   -2.6110    0.0560 F   0  0  0  0  0  0  0  0  0  0  0  0
   -1.7360    1.0220    0.2600 C   0  0  0  0  0  0  0  0  0  0  0  0
   -1.4910    2.2090   -0.2320 C   0  0  0  0  0  0  0  0  0  0  0  0
   -0.2390    2.9130   -0.4910 C   0  0  0  0  0  0  0  0  0  0  0  0
   -2.6760    2.9640   -0.6020 N   0  0  0  0  0  0  0  0  0  0  0  0
   -3.2050    3.9590    0.1340 C   0  0  0  0  0  0  0  0  0  0  0  0
   -4.2900    4.4540   -0.4770 N   0  0  0  0  0  0  0  0  0  0  0  0
   -4.4330    3.7610   -1.5970 N   0  0  0  0  0  0  0  0  0  0  0  0
   -3.4420    2.8410   -1.6800 C   0  0  0  0  0  0  0  0  0  0  0  0
    4.0190   -1.3830    0.3500 C   0  0  0  0  0  0  0  0  0  0  0  0
    3.9220   -2.6160    0.8710 N   0  0  0  0  0  0  0  0  0  0  0  0
    5.0890   -2.9380    1.3940 N   0  0  0  0  0  0  0  0  0  0  0  0
    5.9220   -1.9040    1.2020 C   0  0  0  0  0  0  0  0  0  0  0  0
    7.3660   -1.8170    1.6310 C   0  0  0  0  0  0  0  0  0  0  0  0
    5.2410   -0.9840    0.5680 O   0  0  0  0  0  0  0  0  0  0  0  0
  1  2  1  0
  2  3  1  0
  3  4  1  6
  3  5  1  0
  3 29  1  0
  5  6  1  0
  6  7  2  0
  6  8  1  0
  8  9  2  0
  8 21  1  0
  9 10  1  0
 10 11  2  0
 11 12  1  0
 11 13  1  0
 13 14  1  6
 13 21  1  0
 14 15  1  0
 15 16  1  1
 15 17  1  0
 17 18  1  1
 17 19  1  0
 17 20  1  0
 21 22  2  3
 22 23  1  0
 22 24  1  0
 24 25  1  0
 24 28  1  0
 25 26  2  0
 26 27  1  0
 27 28  2  0
 29 30  2  0
 29 34  1  0
 30 31  1  0
 31 32  2  0
 32 33  1  0
 32 34  1  0
M  END
