
     RDKit          3D

 34 37  0  0  0  0  0  0  0  0999 V2000
    8.3160    1.2770   -1.1610 C   0  0  0  0  0  0  0  0  0  0  0  0
    7.9860    0.7360   -0.0040 C   0  0  0  0  0  0  0  0  0  0  0  0
    7.2430   -0.4570    0.0240 N   0  0  0  0  0  0  0  0  0  0  0  0
    5.9280   -0.5150    0.6050 C   0  0  0  0  0  0  0  0  0  0  0  0
    5.7900   -0.8180    1.9400 C   0  0  0  0  0  0  0  0  0  0  0  0
    4.5410   -0.8800    2.5200 C   0  0  0  0  0  0  0  0  0  0  0  0
    3.3850   -0.6370    1.7690 C   0  0  0  0  0  0  0  0  0  0  0  0
    2.0690   -0.6180    2.0230 N   0  0  0  0  0  0  0  0  0  0  0  0
    1.4080   -0.3170    0.8950 C   0  0  0  0  0  0  0  0  0  0  0  0
    0.0810   -0.1770    0.6290 N   0  0  0  0  0  0  0  0  0  0  0  0
   -0.3880    0.1350   -0.5900 C   0  0  0  0  0  0  0  0  0  0  0  0
   -1.7590    0.2790   -0.9110 N   0  0  0  0  0  0  0  0  0  0  0  0
   -2.8100    0.1050    0.1580 C   0  0  1  0  0  0  0  0  0  0  0  0
   -2.5620    1.3300    1.0020 C   0  0  0  0  0  0  0  0  0  0  0  0
   -3.3890    1.5420    2.2050 C   0  0  0  0  0  0  0  0  0  0  0  0
   -3.2840    0.5250    3.1640 O   0  0  0  0  0  0  0  0  0  0  0  0
   -4.0870    0.1960   -0.5840 C   0  0  1  0  0  0  0  0  0  0  0  0
   -4.1820   -0.8470   -1.7260 C   0  0  0  0  0  0  0  0  0  0  0  0
   -5.2840   -0.3830   -2.6310 C   0  0  0  0  0  0  0  0  0  0  0  0
   -6.3130    0.5080   -2.0320 C   0  0  0  0  0  0  0  0  0  0  0  0
   -6.4760    0.3370   -0.5490 C   0  0  0  0  0  0  0  0  0  0  0  0
   -7.5380    0.5710    0.0500 O   0  0  0  0  0  0  0  0  0  0  0  0
   -5.2980   -0.1260    0.1510 N   0  0  0  0  0  0  0  0  0  0  0  0
   -5.4360   -0.8500    1.3630 C   0  0  0  0  0  0  0  0  0  0  0  0
    0.5610    0.3100   -1.5820 C   0  0  0  0  0  0  0  0  0  0  0  0
    0.1370    0.6250   -2.8280 F   0  0  0  0  0  0  0  0  0  0  0  0
    1.9220    0.1650   -1.3030 C   0  0  0  0  0  0  0  0  0  0  0  0
    2.3360   -0.1490   -0.0570 N   0  0  0  0  0  0  0  0  0  0  0  0
    3.5710   -0.3370    0.4370 C   0  0  0  0  0  0  0  0  0  0  0  0
    4.8170   -0.2860   -0.0950 N   0  0  0  0  0  0  0  0  0  0  0  0
    7.8230   -1.6590   -0.5520 C   0  0  1  0  0  0  0  0  0  0  0  0
    6.9290   -2.7020   -0.4170 F   0  0  0  0  0  0  0  0  0  0  0  0
    8.1660   -1.4730   -1.8730 F   0  0  0  0  0  0  0  0  0  0  0  0
    8.9250   -1.9800    0.2250 F   0  0  0  0  0  0  0  0  0  0  0  0
  1  2  2  0
  2  3  1  0
  3  4  1  0
  3 31  1  0
  4  5  2  0
  4 30  1  0
  5  6  1  0
  6  7  2  0
  7  8  1  0
  7 29  1  0
  8  9  2  0
  9 10  1  0
  9 28  1  0
 10 11  2  0
 11 12  1  0
 11 25  1  0
 12 13  1  0
 13 14  1  1
 13 17  1  0
 14 15  1  0
 15 16  1  0
 17 18  1  6
 17 23  1  0
 18 19  1  0
 19 20  1  0
 20 21  1  0
 21 22  2  0
 21 23  1  0
 23 24  1  0
 25 26  1  0
 25 27  2  0
 27 28  1  0
 28 29  1  0
 29 30  2  0
 31 32  1  6
 31 33  1  0
 31 34  1  0
M  END
