
     RDKit          3D

 34 37  0  0  0  0  0  0  0  0999 V2000
    5.6350   -2.5770   -0.2430 C   0  0  0  0  0  0  0  0  0  0  0  0
    6.4600   -1.6760    0.2380 C   0  0  0  0  0  0  0  0  0  0  0  0
    6.1410   -0.3900    0.7760 C   0  0  0  0  0  0  0  0  0  0  0  0
    7.1150    0.3980    1.2580 C   0  0  0  0  0  0  0  0  0  0  0  0
    8.5030   -0.0590    1.2340 C   0  0  1  0  0  0  0  0  0  0  0  0
    9.2950    0.9640    1.7880 F   0  0  0  0  0  0  0  0  0  0  0  0
    8.7020   -1.2300    1.9400 F   0  0  0  0  0  0  0  0  0  0  0  0
    8.8760   -0.2340   -0.1020 F   0  0  0  0  0  0  0  0  0  0  0  0
    4.7580    0.1740    0.8720 C   0  0  0  0  0  0  0  0  0  0  0  0
    4.1880    0.4140   -0.4970 C   0  0  0  0  0  0  0  0  0  0  0  0
    2.8250    0.9530   -0.3980 N   0  0  0  0  0  0  0  0  0  0  0  0
    2.4620    2.2080   -0.3350 N   0  0  0  0  0  0  0  0  0  0  0  0
    1.1220    2.3170   -0.2520 C   0  0  0  0  0  0  0  0  0  0  0  0
    0.6270    1.0760   -0.2650 N   0  0  0  0  0  0  0  0  0  0  0  0
    1.7010    0.2270   -0.3570 C   0  0  0  0  0  0  0  0  0  0  0  0
    1.6390   -1.0280   -0.3960 O   0  0  0  0  0  0  0  0  0  0  0  0
   -0.7700    0.7910   -0.1920 C   0  0  0  0  0  0  0  0  0  0  0  0
   -1.1600   -0.4340   -0.2110 N   0  0  0  0  0  0  0  0  0  0  0  0
   -2.5540   -0.7970   -0.1410 C   0  0  0  0  0  0  0  0  0  0  0  0
   -3.4590    0.1410   -0.0560 C   0  0  0  0  0  0  0  0  0  0  0  0
   -3.1410    1.6020   -0.0250 C   0  0  0  0  0  0  0  0  0  0  0  0
   -1.7140    1.8450   -0.1010 N   0  0  0  0  0  0  0  0  0  0  0  0
   -1.1860    3.1660   -0.0870 C   0  0  0  0  0  0  0  0  0  0  0  0
   -2.0080    4.1100   -0.0070 O   0  0  0  0  0  0  0  0  0  0  0  0
    0.2400    3.5010   -0.1600 C   0  0  0  0  0  0  0  0  0  0  0  0
   -4.8960   -0.1820    0.0180 C   0  0  1  0  0  0  0  0  0  0  0  0
   -5.6670    0.5950   -1.0140 C   0  0  0  0  0  0  0  0  0  0  0  0
   -6.9810    0.6690   -0.9210 C   0  0  0  0  0  0  0  0  0  0  0  0
   -7.7070   -0.0020    0.1830 C   0  0  0  0  0  0  0  0  0  0  0  0
   -7.6880    1.3630   -1.8390 F   0  0  0  0  0  0  0  0  0  0  0  0
   -5.1940   -1.5600   -0.0120 N   0  0  0  0  0  0  0  0  0  0  0  0
   -4.3240   -2.4800   -0.0940 C   0  0  0  0  0  0  0  0  0  0  0  0
   -4.7570   -3.9260   -0.1180 C   0  0  0  0  0  0  0  0  0  0  0  0
   -2.9450   -2.1590   -0.1640 N   0  0  0  0  0  0  0  0  0  0  0  0
  1  2  2  0
  2  3  1  0
  3  4  2  3
  3  9  1  0
  4  5  1  0
  5  6  1  1
  5  7  1  0
  5  8  1  0
  9 10  1  0
 10 11  1  0
 11 12  1  0
 11 15  1  0
 12 13  2  0
 13 14  1  0
 13 25  1  0
 14 15  1  0
 14 17  1  0
 15 16  2  0
 17 18  2  0
 17 22  1  0
 18 19  1  0
 19 20  2  0
 19 34  1  0
 20 21  1  0
 20 26  1  0
 21 22  1  0
 22 23  1  0
 23 24  2  0
 23 25  1  0
 26 27  1  6
 26 31  1  0
 27 28  2  3
 28 29  1  0
 28 30  1  0
 31 32  2  0
 32 33  1  0
 32 34  1  0
M  END
