
     RDKit          3D

 33 36  0  0  0  0  0  0  0  0999 V2000
    6.6360   -2.3620    3.1260 C   0  0  0  0  0  0  0  0  0  0  0  0
    5.4520   -1.9150    2.8320 C   0  0  0  0  0  0  0  0  0  0  0  0
    4.3320   -1.7970    3.7360 N   0  0  0  0  0  0  0  0  0  0  0  0
    3.1520   -1.2140    3.2920 C   0  0  0  0  0  0  0  0  0  0  0  0
    2.1360   -1.1140    4.0710 O   0  0  0  0  0  0  0  0  0  0  0  0
    2.9420   -0.6700    1.9410 C   0  0  0  0  0  0  0  0  0  0  0  0
    1.9880   -0.6880    1.1900 C   0  0  0  0  0  0  0  0  0  0  0  0
    0.6470   -1.3610    1.4410 N   0  0  0  0  0  0  0  0  0  0  0  0
   -0.2200   -1.0130    0.4610 N   0  0  0  0  0  0  0  0  0  0  0  0
    0.3070   -0.2360   -0.3790 C   0  0  0  0  0  0  0  0  0  0  0  0
   -0.0090    0.4770   -1.5770 N   0  0  0  0  0  0  0  0  0  0  0  0
   -1.3130    0.4050   -2.2400 C   0  0  0  0  0  0  0  0  0  0  0  0
   -2.2660    1.0360   -1.2760 C   0  0  1  0  0  0  0  0  0  0  0  0
   -1.9590    2.4720   -1.0430 C   0  0  0  0  0  0  0  0  0  0  0  0
   -3.6490    0.7230   -1.4030 N   0  0  0  0  0  0  0  0  0  0  0  0
   -4.5940    1.1900   -2.4280 C   0  0  0  0  0  0  0  0  0  0  0  0
   -5.9550    0.9550   -1.7900 C   0  0  2  0  0  0  0  0  0  0  0  0
   -6.2260    1.9700   -0.7020 C   0  0  0  0  0  0  0  0  0  0  0  0
   -7.5810    1.6940   -0.0740 C   0  0  0  0  0  0  0  0  0  0  0  0
   -5.7440   -0.3870   -1.0630 C   0  0  0  0  0  0  0  0  0  0  0  0
   -4.3960   -0.1040   -0.4860 C   0  0  0  0  0  0  0  0  0  0  0  0
   -3.9620   -0.5150    0.6290 O   0  0  0  0  0  0  0  0  0  0  0  0
    1.1090    1.1490   -1.9080 N   0  0  0  0  0  0  0  0  0  0  0  0
    2.0990    0.9240   -1.0380 C   0  0  0  0  0  0  0  0  0  0  0  0
    3.4160    1.5740   -1.1950 C   0  0  0  0  0  0  0  0  0  0  0  0
    1.6660    0.0390   -0.0370 N   0  0  0  0  0  0  0  0  0  0  0  0
    4.3190   -0.1910    1.3670 C   0  0  0  0  0  0  0  0  0  0  0  0
    5.2050   -1.4130    1.4910 C   0  0  0  0  0  0  0  0  0  0  0  0
    5.6100   -1.9820    0.3860 C   0  0  0  0  0  0  0  0  0  0  0  0
    6.3730   -3.2080    0.1600 C   0  0  2  0  0  0  0  0  0  0  0  0
    6.1080   -4.1260    1.1400 F   0  0  0  0  0  0  0  0  0  0  0  0
    7.7090   -3.0320   -0.0740 F   0  0  0  0  0  0  0  0  0  0  0  0
    5.8880   -3.8510   -1.0090 F   0  0  0  0  0  0  0  0  0  0  0  0
  1  2  2  0
  2  3  1  0
  2 28  1  0
  3  4  1  0
  4  5  2  0
  4  6  1  0
  6  7  2  3
  6 27  1  0
  7  8  1  0
  7 26  1  0
  8  9  1  0
  9 10  2  0
 10 11  1  0
 10 26  1  0
 11 12  1  0
 11 23  1  0
 12 13  1  0
 13 14  1  6
 13 15  1  0
 15 16  1  0
 15 21  1  0
 16 17  1  0
 17 18  1  1
 17 20  1  0
 18 19  1  0
 20 21  1  0
 21 22  2  0
 23 24  2  0
 24 25  1  0
 24 26  1  0
 27 28  1  0
 28 29  2  3
 29 30  1  0
 30 31  1  1
 30 32  1  0
 30 33  1  0
M  END
