
     RDKit          3D

 34 37  0  0  0  0  0  0  0  0999 V2000
    2.2780   -1.2110    4.6280 C   0  0  0  0  0  0  0  0  0  0  0  0
    2.5510   -0.8100    3.2290 C   0  0  0  0  0  0  0  0  0  0  0  0
    1.5670   -0.6690    2.3140 N   0  0  0  0  0  0  0  0  0  0  0  0
    1.8170   -0.3050    1.0470 C   0  0  0  0  0  0  0  0  0  0  0  0
    0.7640   -0.1660    0.1100 N   0  0  0  0  0  0  0  0  0  0  0  0
   -0.6120   -0.4120    0.4900 C   0  0  0  0  0  0  0  0  0  0  0  0
   -0.7520   -0.7450    1.6860 O   0  0  0  0  0  0  0  0  0  0  0  0
   -1.6790   -0.2630   -0.4890 C   0  0  0  0  0  0  0  0  0  0  0  0
   -1.3310    0.1080   -1.6770 O   0  0  0  0  0  0  0  0  0  0  0  0
   -3.0540   -0.4830   -0.2670 N   0  0  0  0  0  0  0  0  0  0  0  0
   -3.5620   -0.9260    0.9930 C   0  0  0  0  0  0  0  0  0  0  0  0
   -4.7000   -1.9080    0.7750 C   0  0  0  0  0  0  0  0  0  0  0  0
   -5.7710   -1.4300   -0.1260 C   0  0  0  0  0  0  0  0  0  0  0  0
   -5.3760   -0.4330   -1.1350 C   0  0  1  0  0  0  0  0  0  0  0  0
   -6.1050   -0.6580   -2.4700 C   0  0  0  0  0  0  0  0  0  0  0  0
   -5.5160    1.0180   -0.7660 C   0  0  0  0  0  0  0  0  0  0  0  0
   -4.2080    1.2590   -1.5030 C   0  0  1  0  0  0  0  0  0  0  0  0
   -3.2610    2.1820   -0.8060 C   0  0  0  0  0  0  0  0  0  0  0  0
   -3.9430   -0.2230   -1.3860 C   0  0  1  0  0  0  0  0  0  0  0  0
    3.0730   -0.0770    0.6830 N   0  0  0  0  0  0  0  0  0  0  0  0
    4.1210   -0.1980    1.5500 C   0  0  0  0  0  0  0  0  0  0  0  0
    5.4440    0.0610    1.1010 N   0  0  0  0  0  0  0  0  0  0  0  0
    5.6770    0.4430   -0.2430 C   0  0  0  0  0  0  0  0  0  0  0  0
    4.6360    0.5570   -1.0780 N   0  0  0  0  0  0  0  0  0  0  0  0
    4.8520    0.9190   -2.3540 C   0  0  0  0  0  0  0  0  0  0  0  0
    6.0980    1.1780   -2.8370 N   0  0  0  0  0  0  0  0  0  0  0  0
    7.1720    1.0780   -2.0360 C   0  0  0  0  0  0  0  0  0  0  0  0
    8.5410    1.3560   -2.5420 C   0  0  2  0  0  0  0  0  0  0  0  0
    8.6750    2.6550   -2.9950 F   0  0  0  0  0  0  0  0  0  0  0  0
    8.9020    0.4610   -3.5420 F   0  0  0  0  0  0  0  0  0  0  0  0
    6.9310    0.7020   -0.7220 C   0  0  0  0  0  0  0  0  0  0  0  0
    7.9840    0.5900    0.1140 F   0  0  0  0  0  0  0  0  0  0  0  0
    3.8500   -0.5710    2.8430 C   0  0  0  0  0  0  0  0  0  0  0  0
    4.8990   -0.6900    3.7030 F   0  0  0  0  0  0  0  0  0  0  0  0
  1  2  1  0
  2  3  2  0
  2 33  1  0
  3  4  1  0
  4  5  1  0
  4 20  2  0
  5  6  1  0
  6  7  2  0
  6  8  1  0
  8  9  2  0
  8 10  1  0
 10 11  1  0
 19 10  1  1
 11 12  1  0
 12 13  1  0
 13 14  1  0
 14 15  1  6
 14 16  1  0
 14 19  1  0
 16 17  1  0
 17 18  1  1
 17 19  1  0
 20 21  1  0
 21 22  1  0
 21 33  2  0
 22 23  1  0
 23 24  2  0
 23 31  1  0
 24 25  1  0
 25 26  2  0
 26 27  1  0
 27 28  1  0
 27 31  2  0
 28 29  1  6
 28 30  1  0
 31 32  1  0
 33 34  1  0
M  END
