
     RDKit          3D

 23 24  0  0  0  0  0  0  0  0999 V2000
    1.7720   -0.1750   -1.0250 O   0  0  0  0  0  0  0  0  0  0  0  0
    1.8560   -0.3170    0.1950 C   0  0  0  0  0  0  0  0  0  0  0  0
    0.6030   -0.4880    0.8850 N   0  0  0  0  0  0  0  0  0  0  0  0
   -0.6540   -0.4860    0.1520 C   0  0  0  0  0  0  0  0  0  0  0  0
   -1.7520   -0.6860    1.1730 C   0  0  0  0  0  0  0  0  0  0  0  0
   -3.1040   -0.7150    0.6350 C   0  0  0  0  0  0  0  0  0  0  0  0
   -3.8960   -1.7750    0.6810 C   0  0  0  0  0  0  0  0  0  0  0  0
   -3.6360   -3.0030    1.2100 F   0  0  0  0  0  0  0  0  0  0  0  0
   -5.1730   -1.4510    0.0590 C   0  0  0  0  0  0  0  0  0  0  0  0
   -5.1480   -0.1980   -0.3590 C   0  0  0  0  0  0  0  0  0  0  0  0
   -3.8190    0.3590   -0.0170 C   0  0  0  0  0  0  0  0  0  0  0  0
   -3.4480    1.6100   -0.2770 C   0  0  0  0  0  0  0  0  0  0  0  0
   -4.3470    2.5580   -0.9650 C   0  0  1  0  0  0  0  0  0  0  0  0
   -4.4360    2.2590   -2.3140 F   0  0  0  0  0  0  0  0  0  0  0  0
   -5.6100    2.5820   -0.4100 F   0  0  0  0  0  0  0  0  0  0  0  0
    3.0790   -0.3160    0.8830 N   0  0  0  0  0  0  0  0  0  0  0  0
    4.3580   -0.1480    0.3080 C   0  0  0  0  0  0  0  0  0  0  0  0
    4.5430    0.2390   -0.9840 C   0  0  0  0  0  0  0  0  0  0  0  0
    5.8460    0.3710   -1.4890 C   0  0  0  0  0  0  0  0  0  0  0  0
    6.8940    0.1240   -0.7240 N   0  0  0  0  0  0  0  0  0  0  0  0
    6.7520   -0.2630    0.5660 C   0  0  0  0  0  0  0  0  0  0  0  0
    8.1330   -0.5930    1.5880 Cl  0  0  0  0  0  0  0  0  0  0  0  0
    5.4970   -0.3970    1.0730 C   0  0  0  0  0  0  0  0  0  0  0  0
  1  2  2  0
  2  3  1  0
  2 16  1  0
  3  4  1  0
  4  5  1  0
  5  6  1  0
  6  7  2  0
  6 11  1  0
  7  8  1  0
  7  9  1  0
  9 10  2  0
 10 11  1  0
 11 12  2  3
 12 13  1  0
 13 14  1  6
 13 15  1  0
 16 17  1  0
 17 18  2  0
 17 23  1  0
 18 19  1  0
 19 20  2  0
 20 21  1  0
 21 22  1  0
 21 23  2  0
M  END
