
     RDKit          3D

 18 20  0  0  0  0  0  0  0  0999 V2000
    4.1230   -0.0670   -1.3600 C   0  0  0  0  0  0  0  0  0  0  0  0
    2.7620    0.3300   -0.9100 C   0  0  0  0  0  0  0  0  0  0  0  0
    2.3860    1.6310   -0.8050 C   0  0  0  0  0  0  0  0  0  0  0  0
    1.1140    1.9350   -0.3840 C   0  0  0  0  0  0  0  0  0  0  0  0
    0.2040    0.9500   -0.0650 C   0  0  0  0  0  0  0  0  0  0  0  0
   -1.0860    1.2050    0.3600 C   0  0  0  0  0  0  0  0  0  0  0  0
   -1.5120    2.6130    0.4910 C   0  0  0  0  0  0  0  0  0  0  0  0
   -1.8560    3.4630   -1.1810 Br  0  0  0  0  0  0  0  0  0  0  0  0
   -1.9890    0.2120    0.6740 C   0  0  0  0  0  0  0  0  0  0  0  0
   -3.3500    0.5940    1.1190 C   0  0  0  0  0  0  0  0  0  0  0  0
   -1.5780   -1.1030    0.5560 C   0  0  0  0  0  0  0  0  0  0  0  0
   -0.3030   -1.4000    0.1370 C   0  0  0  0  0  0  0  0  0  0  0  0
    0.5810   -0.3970   -0.1700 C   0  0  0  0  0  0  0  0  0  0  0  0
    1.8720   -0.6690   -0.5980 C   0  0  0  0  0  0  0  0  0  0  0  0
   -0.2150   -2.8420    0.1300 C   0  0  0  0  0  0  0  0  0  0  0  0
    0.7950   -3.5050   -0.2050 O   0  0  0  0  0  0  0  0  0  0  0  0
   -1.5230   -3.4190    0.5860 C   0  0  0  0  0  0  0  0  0  0  0  0
   -2.2970   -2.2710    0.8110 O   0  0  0  0  0  0  0  0  0  0  0  0
  1  2  1  0
  2  3  2  0
  2 14  1  0
  3  4  1  0
  4  5  2  0
  5  6  1  0
  5 13  1  0
  6  7  1  0
  6  9  2  0
  7  8  1  0
  9 10  1  0
  9 11  1  0
 11 12  2  0
 11 18  1  0
 12 13  1  0
 12 15  1  0
 13 14  2  0
 15 16  2  0
 15 17  1  0
 17 18  1  0
M  END
