
     RDKit          3D

 18 20  0  0  0  0  0  0  0  0999 V2000
   -0.0680    3.8120   -0.3990 C   0  0  0  0  0  0  0  0  0  0  0  0
   -0.7290    2.8790   -1.3510 C   0  0  0  0  0  0  0  0  0  0  0  0
   -0.9920    1.5940   -0.8270 O   0  0  0  0  0  0  0  0  0  0  0  0
   -0.0700    0.7040   -0.3830 C   0  0  0  0  0  0  0  0  0  0  0  0
    1.2760    1.0940   -0.4640 C   0  0  0  0  0  0  0  0  0  0  0  0
    2.2910    0.2670   -0.0330 C   0  0  0  0  0  0  0  0  0  0  0  0
    1.9620   -0.9620    0.4840 C   0  0  0  0  0  0  0  0  0  0  0  0
    0.6360   -1.3160    0.5500 C   0  0  0  0  0  0  0  0  0  0  0  0
   -0.4260   -0.5050    0.1220 C   0  0  0  0  0  0  0  0  0  0  0  0
   -1.7970   -1.0400    0.1750 C   0  0  0  0  0  0  0  0  0  0  0  0
   -2.0890   -2.0840    0.9800 C   0  0  0  0  0  0  0  0  0  0  0  0
   -3.5070   -2.4450    0.8640 C   0  0  0  0  0  0  0  0  0  0  0  0
   -4.0280   -1.5180   -0.1250 C   0  0  0  0  0  0  0  0  0  0  0  0
   -3.0070   -0.7210   -0.4960 C   0  0  0  0  0  0  0  0  0  0  0  0
   -3.2800    0.5980   -1.8360 Br  0  0  0  0  0  0  0  0  0  0  0  0
    3.2380   -1.6600    0.8770 C   0  0  0  0  0  0  0  0  0  0  0  0
    4.2700   -0.8920    0.1290 C   0  0  0  0  0  0  0  0  0  0  0  0
    3.6810    0.3880    0.0060 O   0  0  0  0  0  0  0  0  0  0  0  0
  1  2  1  0
  2  3  1  0
  3  4  1  0
  4  5  2  0
  4  9  1  0
  5  6  1  0
  6  7  2  0
  6 18  1  0
  7  8  1  0
  7 16  1  0
  8  9  2  0
  9 10  1  0
 10 11  2  0
 10 14  1  0
 11 12  1  0
 12 13  1  0
 13 14  2  0
 14 15  1  0
 16 17  1  0
 17 18  1  0
M  END
