
     RDKit          3D

 18 20  0  0  0  0  0  0  0  0999 V2000
    4.0840   -1.5230   -0.5140 C   0  0  0  0  0  0  0  0  0  0  0  0
    2.7830   -0.8050   -0.3010 C   0  0  0  0  0  0  0  0  0  0  0  0
    2.7590    0.5420   -0.0090 C   0  0  0  0  0  0  0  0  0  0  0  0
    1.5810    1.2320    0.1930 C   0  0  0  0  0  0  0  0  0  0  0  0
    1.5490    2.6820    0.5070 C   0  0  0  0  0  0  0  0  0  0  0  0
    0.3740    0.5350    0.0960 C   0  0  0  0  0  0  0  0  0  0  0  0
   -0.7250    1.2080    0.2900 O   0  0  0  0  0  0  0  0  0  0  0  0
   -1.8800    0.5880    0.2080 C   0  0  0  0  0  0  0  0  0  0  0  0
   -3.0730    1.2730    0.4090 C   0  0  0  0  0  0  0  0  0  0  0  0
   -4.3030    0.6560    0.3310 C   0  0  0  0  0  0  0  0  0  0  0  0
   -5.9150    1.6420    0.6160 Br  0  0  0  0  0  0  0  0  0  0  0  0
   -4.3180   -0.7000    0.0390 C   0  0  0  0  0  0  0  0  0  0  0  0
   -3.1510   -1.4070   -0.1650 C   0  0  0  0  0  0  0  0  0  0  0  0
   -1.9270   -0.7730   -0.0830 C   0  0  0  0  0  0  0  0  0  0  0  0
   -0.7710   -1.4940   -0.2910 C   0  0  0  0  0  0  0  0  0  0  0  0
   -0.7660   -2.7250   -0.5560 O   0  0  0  0  0  0  0  0  0  0  0  0
    0.4250   -0.8110   -0.1970 C   0  0  0  0  0  0  0  0  0  0  0  0
    1.6070   -1.4930   -0.3970 C   0  0  0  0  0  0  0  0  0  0  0  0
  1  2  1  0
  2  3  2  0
  2 18  1  0
  3  4  1  0
  4  5  1  0
  4  6  2  0
  6  7  1  0
  6 17  1  0
  7  8  1  0
  8  9  2  0
  8 14  1  0
  9 10  1  0
 10 11  1  0
 10 12  2  0
 12 13  1  0
 13 14  2  0
 14 15  1  0
 15 16  2  0
 15 17  1  0
 17 18  2  0
M  END
