
     RDKit          3D

 18 20  0  0  0  0  0  0  0  0999 V2000
    4.8360    0.2690    0.1560 C   0  0  0  0  0  0  0  0  0  0  0  0
    3.3380    0.1420    0.1630 C   0  0  0  0  0  0  0  0  0  0  0  0
    2.5940    0.5760   -0.8950 C   0  0  0  0  0  0  0  0  0  0  0  0
    1.1960    0.4850   -0.9510 C   0  0  0  0  0  0  0  0  0  0  0  0
    0.4390    0.9650   -2.1080 C   0  0  0  0  0  0  0  0  0  0  0  0
    0.5410   -0.0690    0.1150 C   0  0  0  0  0  0  0  0  0  0  0  0
   -0.8250   -0.1780    0.1050 C   0  0  0  0  0  0  0  0  0  0  0  0
   -1.5210   -0.7440    1.1890 C   0  0  0  0  0  0  0  0  0  0  0  0
   -0.7700   -1.1770    2.2440 C   0  0  0  0  0  0  0  0  0  0  0  0
    0.6040   -1.0760    2.2730 C   0  0  0  0  0  0  0  0  0  0  0  0
    1.6510   -1.6810    3.7510 Br  0  0  0  0  0  0  0  0  0  0  0  0
    1.2840   -0.5200    1.2100 C   0  0  0  0  0  0  0  0  0  0  0  0
    2.6760   -0.4150    1.2320 C   0  0  0  0  0  0  0  0  0  0  0  0
   -2.8870   -0.9240    1.3310 O   0  0  0  0  0  0  0  0  0  0  0  0
   -3.9360   -0.2090    0.7030 C   0  0  0  0  0  0  0  0  0  0  0  0
   -3.7680   -0.3460   -0.7810 C   0  0  0  0  0  0  0  0  0  0  0  0
   -2.7690    0.6380   -1.3450 C   0  0  0  0  0  0  0  0  0  0  0  0
   -1.4420    0.3000   -1.0240 O   0  0  0  0  0  0  0  0  0  0  0  0
  1  2  1  0
  2  3  2  0
  2 13  1  0
  3  4  1  0
  4  5  1  0
  4  6  2  0
  6  7  1  0
  6 12  1  0
  7  8  2  0
  7 18  1  0
  8  9  1  0
  8 14  1  0
  9 10  2  0
 10 11  1  0
 10 12  1  0
 12 13  2  0
 14 15  1  0
 15 16  1  0
 16 17  1  0
 17 18  1  0
M  END
