
     RDKit          3D

 26 28  0  0  0  0  0  0  0  0999 V2000
   -2.2690    2.8260   -0.3270 C   0  0  0  0  0  0  0  0  0  0  0  0
   -1.9060    2.0490    0.9060 C   0  0  1  0  0  0  0  0  0  0  0  0
   -3.0540    1.8470    1.8460 C   0  0  0  0  0  0  0  0  0  0  0  0
   -4.1450    0.9910    1.2740 C   0  0  0  0  0  0  0  0  0  0  0  0
   -3.6970   -0.2190    0.5620 C   0  0  0  0  0  0  0  0  0  0  0  0
   -2.3920   -0.1550   -0.1220 C   0  0  2  0  0  0  0  0  0  0  0  0
   -1.7770   -1.5240   -0.3350 C   0  0  0  0  0  0  0  0  0  0  0  0
   -2.8070   -2.5730   -1.3220 S   0  0  2  0  0  0  0  0  0  0  0  0
   -2.1400   -3.9190   -1.3900 O   0  0  0  0  0  0  0  0  0  0  0  0
   -2.9420   -2.0790   -2.7280 O   0  0  0  0  0  0  0  0  0  0  0  0
   -4.3100   -2.8120   -0.5980 O   0  0  0  0  0  0  0  0  0  0  0  0
   -1.3510    0.6820    0.5870 C   0  0  1  0  0  0  0  0  0  0  0  0
   -0.1650    0.7250   -0.2060 N   0  0  0  0  0  0  0  0  0  0  0  0
    1.0480    0.1690    0.2820 C   0  0  0  0  0  0  0  0  0  0  0  0
    1.0440   -0.3600    1.4290 O   0  0  0  0  0  0  0  0  0  0  0  0
    2.2380    0.2040   -0.4960 N   0  0  0  0  0  0  0  0  0  0  0  0
    3.4460   -0.3540   -0.0000 C   0  0  0  0  0  0  0  0  0  0  0  0
    3.5200   -0.9330    1.2090 N   0  0  0  0  0  0  0  0  0  0  0  0
    4.6910   -1.4620    1.6640 C   0  0  0  0  0  0  0  0  0  0  0  0
    5.8160   -1.4310    0.9340 N   0  0  0  0  0  0  0  0  0  0  0  0
    5.7800   -0.8570   -0.2890 C   0  0  0  0  0  0  0  0  0  0  0  0
    6.7150   -0.6820   -1.2190 N   0  0  0  0  0  0  0  0  0  0  0  0
    6.1490   -0.0510   -2.2510 C   0  0  0  0  0  0  0  0  0  0  0  0
    6.7580    0.2710   -3.3080 O   0  0  0  0  0  0  0  0  0  0  0  0
    4.8590    0.1740   -1.9770 N   0  0  0  0  0  0  0  0  0  0  0  0
    4.5960   -0.3180   -0.7580 C   0  0  0  0  0  0  0  0  0  0  0  0
  2  1  1  6
  2  3  1  0
  2 12  1  0
  3  4  1  0
  4  5  1  0
  5  6  1  0
  6  7  1  1
  6 12  1  0
  7  8  1  0
  8  9  2  0
  8 10  2  0
  8 11  1  1
 12 13  1  6
 13 14  1  0
 14 15  2  0
 14 16  1  0
 16 17  1  0
 17 18  2  0
 17 26  1  0
 18 19  1  0
 19 20  2  0
 20 21  1  0
 21 22  1  0
 21 26  2  0
 22 23  1  0
 23 24  2  0
 23 25  1  0
 25 26  1  0
M  END
