
     RDKit          3D

 26 27  0  0  0  0  0  0  0  0999 V2000
   -3.4520   -0.2750    1.7290 C   0  0  0  0  0  0  0  0  0  0  0  0
   -3.3250   -0.9990    0.3920 C   0  0  2  0  0  0  0  0  0  0  0  0
   -4.3840   -2.0610    0.2760 C   0  0  0  0  0  0  0  0  0  0  0  0
   -1.9660   -1.6810    0.3750 C   0  0  0  0  0  0  0  0  0  0  0  0
   -1.1870   -0.9830   -0.6270 N   0  0  0  0  0  0  0  0  0  0  0  0
    0.1890   -0.7040   -0.6880 C   0  0  0  0  0  0  0  0  0  0  0  0
    0.6410   -0.0790   -1.6610 O   0  0  0  0  0  0  0  0  0  0  0  0
    1.0550   -1.1510    0.3820 C   0  0  0  0  0  0  0  0  0  0  0  0
    2.4380   -0.8230    0.2390 N   0  0  0  0  0  0  0  0  0  0  0  0
    2.9320    0.4920    0.1400 C   0  0  0  0  0  0  0  0  0  0  0  0
    2.0590    1.4050    0.1840 O   0  0  0  0  0  0  0  0  0  0  0  0
    4.3810    0.8000   -0.0060 C   0  0  0  0  0  0  0  0  0  0  0  0
    4.8460    1.9940   -0.1000 C   0  0  0  0  0  0  0  0  0  0  0  0
    4.0160    3.1880   -0.0740 N   0  0  0  0  0  0  0  0  0  0  0  0
    6.2450    2.1330   -0.2380 N   0  0  0  0  0  0  0  0  0  0  0  0
    6.7610    0.5520   -0.7900 S   0  0  2  0  0  0  0  0  0  0  0  0
    8.0480    0.1470   -0.1770 O   0  0  0  0  0  0  0  0  0  0  0  0
    6.7170    0.4500   -2.2690 O   0  0  0  0  0  0  0  0  0  0  0  0
    5.3630   -0.3070   -0.0450 C   0  0  1  0  0  0  0  0  0  0  0  0
    5.7160   -0.7810    1.2730 N   0  0  0  0  0  0  0  0  0  0  0  0
   -2.1910   -0.6000   -1.6270 C   0  0  0  0  0  0  0  0  0  0  0  0
   -3.2570   -0.0370   -0.7220 C   0  0  1  0  0  0  0  0  0  0  0  0
   -4.5260    0.2780   -1.4390 C   0  0  0  0  0  0  0  0  0  0  0  0
   -5.5030    0.8470   -0.5160 C   0  0  0  0  0  0  0  0  0  0  0  0
   -5.5990    2.2800   -0.3900 N   0  0  0  0  0  0  0  0  0  0  0  0
   -6.3030    0.2030    0.2120 O   0  0  0  0  0  0  0  0  0  0  0  0
  2  1  1  1
  2  3  1  0
  2  4  1  0
  2 22  1  0
  4  5  1  0
  5  6  1  0
  5 21  1  0
  6  7  2  0
  6  8  1  0
  8  9  1  0
  9 10  1  0
 10 11  2  0
 10 12  1  0
 12 13  2  0
 12 19  1  0
 13 14  1  0
 13 15  1  0
 16 15  1  6
 16 17  2  0
 16 18  2  0
 16 19  1  0
 19 20  1  1
 21 22  1  0
 22 23  1  6
 23 24  1  0
 24 25  1  0
 24 26  2  0
M  END
