
     RDKit          3D

 26 27  0  0  0  0  0  0  0  0999 V2000
    5.6760   -1.4150   -0.8630 C   0  0  0  0  0  0  0  0  0  0  0  0
    6.1020   -0.6580    0.1240 C   0  0  0  0  0  0  0  0  0  0  0  0
    7.9060   -0.5260    0.3160 S   0  0  0  0  0  0  0  0  0  0  0  0
    8.1640    0.0410    1.9660 C   0  0  0  0  0  0  0  0  0  0  0  0
    7.1410    0.4160    2.6990 C   0  0  0  0  0  0  0  0  0  0  0  0
    5.7580    0.3910    2.3050 C   0  0  0  0  0  0  0  0  0  0  0  0
    5.2820   -0.0640    1.1440 C   0  0  0  0  0  0  0  0  0  0  0  0
    3.8340    0.0980    1.0040 C   0  0  0  0  0  0  0  0  0  0  0  0
    3.1440    0.4370    2.0200 O   0  0  0  0  0  0  0  0  0  0  0  0
    3.1340   -0.0750   -0.1800 N   0  0  0  0  0  0  0  0  0  0  0  0
    1.7040    0.0460   -0.3040 C   0  0  0  0  0  0  0  0  0  0  0  0
    0.8310    0.3420    0.6920 C   0  0  0  0  0  0  0  0  0  0  0  0
   -0.5610    0.4470    0.5100 C   0  0  0  0  0  0  0  0  0  0  0  0
   -1.0970    0.2470   -0.7220 C   0  0  0  0  0  0  0  0  0  0  0  0
   -2.4810    0.3130   -1.0060 N   0  0  0  0  0  0  0  0  0  0  0  0
   -3.4920    0.3250   -0.0270 C   0  0  0  0  0  0  0  0  0  0  0  0
   -3.2600    0.2660    1.2000 O   0  0  0  0  0  0  0  0  0  0  0  0
   -4.8890    0.4080   -0.4030 N   0  0  0  0  0  0  0  0  0  0  0  0
   -5.9070    0.4180    0.6230 C   0  0  0  0  0  0  0  0  0  0  0  0
   -7.2500    0.5080    0.0080 C   0  0  0  0  0  0  0  0  0  0  0  0
   -7.3320    0.5600   -1.2430 O   0  0  0  0  0  0  0  0  0  0  0  0
   -8.4260    0.5370    0.7380 O   0  0  0  0  0  0  0  0  0  0  0  0
   -9.7000    0.6240    0.0970 C   0  0  0  0  0  0  0  0  0  0  0  0
   -0.2040   -0.0610   -1.7640 C   0  0  0  0  0  0  0  0  0  0  0  0
    1.1450   -0.1600   -1.5720 C   0  0  0  0  0  0  0  0  0  0  0  0
    2.0030   -0.4930   -2.7510 C   0  0  0  0  0  0  0  0  0  0  0  0
  1  2  2  0
  2  3  1  0
  2  7  1  0
  3  4  1  0
  4  5  2  0
  5  6  1  0
  6  7  2  0
  7  8  1  0
  8  9  2  0
  8 10  1  0
 10 11  1  0
 11 12  2  0
 11 25  1  0
 12 13  1  0
 13 14  2  0
 14 15  1  0
 14 24  1  0
 15 16  1  0
 16 17  2  0
 16 18  1  0
 18 19  1  0
 19 20  1  0
 20 21  2  0
 20 22  1  0
 22 23  1  0
 24 25  2  0
 25 26  1  0
M  END
