
     RDKit          3D

 26 28  0  0  0  0  0  0  0  0999 V2000
   -1.9650    2.2490   -1.1250 C   0  0  0  0  0  0  0  0  0  0  0  0
   -1.9100    1.1150   -0.1160 C   0  0  2  0  0  0  0  0  0  0  0  0
   -3.0460    1.2290    0.7960 N   0  0  0  0  0  0  0  0  0  0  0  0
   -3.9800   -0.2340    0.6020 S   0  0  1  0  0  0  0  0  0  0  0  0
   -3.2200   -1.2220   -0.2470 O   0  0  0  0  0  0  0  0  0  0  0  0
   -4.2630   -0.7920    1.9850 O   0  0  0  0  0  0  0  0  0  0  0  0
   -5.5150    0.1400   -0.1650 C   0  0  0  0  0  0  0  0  0  0  0  0
   -6.7600    0.3180    0.4400 C   0  0  0  0  0  0  0  0  0  0  0  0
   -7.6170    0.6080   -0.5250 N   0  0  0  0  0  0  0  0  0  0  0  0
   -6.9500    0.6180   -1.7240 C   0  0  0  0  0  0  0  0  0  0  0  0
   -7.4370    0.8530   -2.8510 O   0  0  0  0  0  0  0  0  0  0  0  0
   -5.6600    0.3270   -1.4790 N   0  0  0  0  0  0  0  0  0  0  0  0
   -0.6740    1.1640    0.6860 C   0  0  0  0  0  0  0  0  0  0  0  0
   -0.7380    1.6100    1.8700 O   0  0  0  0  0  0  0  0  0  0  0  0
    0.5870    0.7210    0.1910 N   0  0  0  0  0  0  0  0  0  0  0  0
    1.7150    0.8030    1.0610 C   0  0  0  0  0  0  0  0  0  0  0  0
    2.9390    0.2270    0.4540 C   0  0  0  0  0  0  0  0  0  0  0  0
    2.8380   -0.2260   -0.7360 O   0  0  0  0  0  0  0  0  0  0  0  0
    4.1920    0.1340    1.0810 N   0  0  0  0  0  0  0  0  0  0  0  0
    5.3290   -0.4680    0.4270 C   0  0  0  0  0  0  0  0  0  0  0  0
    6.5410   -0.1130    0.0780 C   0  0  0  0  0  0  0  0  0  0  0  0
    6.8020   -1.4120   -0.4760 C   0  0  0  0  0  0  0  0  0  0  0  0
    7.4040   -2.5120   -1.0910 C   0  0  0  0  0  0  0  0  0  0  0  0
    6.5050   -3.5260   -1.0950 N   0  0  0  0  0  0  0  0  0  0  0  0
    5.3780   -3.1170   -0.5160 C   0  0  0  0  0  0  0  0  0  0  0  0
    5.5520   -1.8150   -0.1310 C   0  0  0  0  0  0  0  0  0  0  0  0
  2  1  1  6
  2  3  1  0
  2 13  1  0
  4  3  1  1
  4  5  2  0
  4  6  2  0
  4  7  1  0
  7  8  2  0
  7 12  1  0
  8  9  1  0
  9 10  1  0
 10 11  2  0
 10 12  1  0
 13 14  2  0
 13 15  1  0
 15 16  1  0
 16 17  1  0
 17 18  2  0
 17 19  1  0
 19 20  1  0
 20 21  2  0
 20 26  1  0
 21 22  1  0
 22 23  2  0
 22 26  1  0
 23 24  1  0
 24 25  1  0
 25 26  2  0
M  END
