
     RDKit          3D

 26 28  0  0  0  0  0  0  0  0999 V2000
   -5.7080    0.7880    2.5020 C   0  0  0  0  0  0  0  0  0  0  0  0
   -5.3930    0.5640    1.1090 N   0  0  0  0  0  0  0  0  0  0  0  0
   -4.4100   -0.4060    0.6730 C   0  0  0  0  0  0  0  0  0  0  0  0
   -3.5130    0.2560   -0.3410 C   0  0  1  0  0  0  0  0  0  0  0  0
   -2.4850   -0.6930   -0.7490 N   0  0  0  0  0  0  0  0  0  0  0  0
   -1.0980   -0.3790   -0.5110 C   0  0  0  0  0  0  0  0  0  0  0  0
   -0.8520    0.6950    0.0340 O   0  0  0  0  0  0  0  0  0  0  0  0
   -0.0590   -1.2550   -0.8820 N   0  0  0  0  0  0  0  0  0  0  0  0
    1.3270   -1.0170   -0.6820 C   0  0  0  0  0  0  0  0  0  0  0  0
    1.8900    0.0290   -0.1320 C   0  0  0  0  0  0  0  0  0  0  0  0
    3.3580   -0.1500   -0.1320 C   0  0  0  0  0  0  0  0  0  0  0  0
    4.3680    0.5900    0.2910 C   0  0  0  0  0  0  0  0  0  0  0  0
    4.0540    1.8980    0.9130 C   0  0  0  0  0  0  0  0  0  0  0  0
    4.9860    2.6420    1.3340 O   0  0  0  0  0  0  0  0  0  0  0  0
    2.7830    2.3530    1.0590 O   0  0  0  0  0  0  0  0  0  0  0  0
    5.7360    0.2040    0.1990 N   0  0  0  0  0  0  0  0  0  0  0  0
    6.3240   -0.6640   -0.7870 C   0  0  1  0  0  0  0  0  0  0  0  0
    7.5940   -1.1630   -0.3210 N   0  0  0  0  0  0  0  0  0  0  0  0
    5.2250   -2.1260   -1.0010 S   0  0  0  0  0  0  0  0  0  0  0  0
    3.5610   -1.4490   -0.7630 C   0  0  0  0  0  0  0  0  0  0  0  0
    2.3870   -1.9410   -1.0770 C   0  0  0  0  0  0  0  0  0  0  0  0
   -4.3040    0.7410   -1.4990 C   0  0  0  0  0  0  0  0  0  0  0  0
   -3.8980    0.5560   -2.6550 O   0  0  0  0  0  0  0  0  0  0  0  0
   -5.5210    1.4110   -1.2260 N   0  0  0  0  0  0  0  0  0  0  0  0
   -6.0630    1.3170    0.0930 C   0  0  0  0  0  0  0  0  0  0  0  0
   -7.1460    1.9050    0.3610 O   0  0  0  0  0  0  0  0  0  0  0  0
  1  2  1  0
  2  3  1  0
  2 25  1  0
  3  4  1  0
  4  5  1  6
  4 22  1  0
  5  6  1  0
  6  7  2  0
  6  8  1  0
  8  9  1  0
  9 10  2  0
  9 21  1  0
 10 11  1  0
 11 12  2  0
 11 20  1  0
 12 13  1  0
 12 16  1  0
 13 14  2  0
 13 15  1  0
 16 17  1  0
 17 18  1  1
 17 19  1  0
 19 20  1  0
 20 21  2  0
 22 23  2  0
 22 24  1  0
 24 25  1  0
 25 26  2  0
M  END
