
     RDKit          3D

 39 42  0  0  0  0  0  0  0  0999 V2000
   -2.2810    7.7940    0.9140 C   0  0  0  0  0  0  0  0  0  0  0  0
   -1.5000    7.3080   -0.2770 C   0  0  0  0  0  0  0  0  0  0  0  0
   -0.9370    5.9490   -0.0900 C   0  0  0  0  0  0  0  0  0  0  0  0
    0.4240    5.8750    0.1780 C   0  0  0  0  0  0  0  0  0  0  0  0
    1.0600    4.6700    0.3700 C   0  0  0  0  0  0  0  0  0  0  0  0
    2.4080    4.6180    0.6330 F   0  0  0  0  0  0  0  0  0  0  0  0
    0.3130    3.5130    0.2930 C   0  0  0  0  0  0  0  0  0  0  0  0
    0.9350    2.2540    0.4770 N   0  0  0  0  0  0  0  0  0  0  0  0
    0.2760    0.9780    0.4670 C   0  0  1  0  0  0  0  0  0  0  0  0
    1.3050   -0.0620    0.5900 N   0  0  0  0  0  0  0  0  0  0  0  0
    1.5200   -1.0690   -0.3830 C   0  0  0  0  0  0  0  0  0  0  0  0
    0.7930   -1.0650   -1.4020 O   0  0  0  0  0  0  0  0  0  0  0  0
    2.5720   -2.0930   -0.1980 C   0  0  0  0  0  0  0  0  0  0  0  0
    2.8380   -3.0910   -1.0980 C   0  0  0  0  0  0  0  0  0  0  0  0
    3.8660   -3.8350   -0.5800 C   0  0  0  0  0  0  0  0  0  0  0  0
    4.4980   -5.0110   -1.1840 C   0  0  0  0  0  0  0  0  0  0  0  0
    4.0120   -5.5100   -2.4770 C   0  0  0  0  0  0  0  0  0  0  0  0
    5.4440   -5.5990   -0.6180 O   0  0  0  0  0  0  0  0  0  0  0  0
    4.2200   -3.2820    0.6380 C   0  0  0  0  0  0  0  0  0  0  0  0
    5.2830   -3.7580    1.5570 C   0  0  0  0  0  0  0  0  0  0  0  0
    3.4010   -2.2170    0.8320 N   0  0  0  0  0  0  0  0  0  0  0  0
   -0.5470    0.8980    1.7010 C   0  0  0  0  0  0  0  0  0  0  0  0
   -0.0600    1.2990    2.9190 C   0  0  0  0  0  0  0  0  0  0  0  0
   -0.8290    1.2180    4.0350 N   0  0  0  0  0  0  0  0  0  0  0  0
   -2.0830    0.7400    3.9500 C   0  0  0  0  0  0  0  0  0  0  0  0
   -2.6350    0.3210    2.7630 C   0  0  0  0  0  0  0  0  0  0  0  0
   -3.8790   -0.1640    2.6170 F   0  0  0  0  0  0  0  0  0  0  0  0
   -1.8250    0.4130    1.6260 C   0  0  0  0  0  0  0  0  0  0  0  0
   -2.3150    0.0010    0.3600 N   0  0  0  0  0  0  0  0  0  0  0  0
   -2.1280   -1.3520   -0.0390 C   0  0  0  0  0  0  0  0  0  0  0  0
   -1.5250   -2.1380    0.7580 O   0  0  0  0  0  0  0  0  0  0  0  0
   -2.5640   -1.8930   -1.2590 N   0  0  0  0  0  0  0  0  0  0  0  0
   -2.3510   -3.2940   -1.6330 C   0  0  2  0  0  0  0  0  0  0  0  0
   -2.0420   -3.5320   -3.0720 C   0  0  0  0  0  0  0  0  0  0  0  0
   -3.5510   -3.4910   -3.3430 C   0  0  0  0  0  0  0  0  0  0  0  0
   -3.7380   -3.8990   -1.8990 C   0  0  0  0  0  0  0  0  0  0  0  0
   -1.0280    3.5840    0.0300 C   0  0  0  0  0  0  0  0  0  0  0  0
   -1.6620    4.8030   -0.1630 C   0  0  0  0  0  0  0  0  0  0  0  0
   -2.9690    4.8550   -0.4180 F   0  0  0  0  0  0  0  0  0  0  0  0
  1  2  1  0
  2  3  1  0
  3  4  2  0
  3 38  1  0
  4  5  1  0
  5  6  1  0
  5  7  2  0
  7  8  1  0
  7 37  1  0
  9  8  1  1
  9 10  1  0
  9 22  1  0
 10 11  1  0
 11 12  2  0
 11 13  1  0
 13 14  2  0
 13 21  1  0
 14 15  1  0
 15 16  1  0
 15 19  2  0
 16 17  1  0
 16 18  2  0
 19 20  1  0
 19 21  1  0
 22 23  2  0
 22 28  1  0
 23 24  1  0
 24 25  2  0
 25 26  1  0
 26 27  1  0
 26 28  2  0
 28 29  1  0
 29 30  1  0
 30 31  2  0
 30 32  1  0
 33 32  1  6
 33 34  1  0
 33 36  1  0
 34 35  1  0
 35 36  1  0
 37 38  2  0
 38 39  1  0
M  CHG  1  24   1
M  END
