
     RDKit          3D

 39 43  0  0  0  0  0  0  0  0999 V2000
    6.1330   -2.4470    1.5320 C   0  0  0  0  0  0  0  0  0  0  0  0
    4.7820   -2.0200    1.0770 C   0  0  0  0  0  0  0  0  0  0  0  0
    3.6500   -2.7270    1.4240 C   0  0  0  0  0  0  0  0  0  0  0  0
    2.4320   -2.2580    0.9540 C   0  0  0  0  0  0  0  0  0  0  0  0
    2.3250   -1.1370    0.1740 C   0  0  0  0  0  0  0  0  0  0  0  0
    1.0260   -0.6360   -0.3180 C   0  0  0  0  0  0  0  0  0  0  0  0
    1.0410    0.1720   -1.2560 O   0  0  0  0  0  0  0  0  0  0  0  0
   -0.1610   -1.0650    0.2640 N   0  0  0  0  0  0  0  0  0  0  0  0
   -1.4830   -0.6800   -0.1000 C   0  0  0  0  0  0  0  0  0  0  0  0
   -2.5640   -1.0810    0.6660 C   0  0  0  0  0  0  0  0  0  0  0  0
   -3.8580   -0.7300    0.3340 C   0  0  0  0  0  0  0  0  0  0  0  0
   -4.1380    0.0370   -0.7740 C   0  0  0  0  0  0  0  0  0  0  0  0
   -5.4830    0.3970   -1.1710 C   0  0  0  0  0  0  0  0  0  0  0  0
   -6.5460   -0.0220   -0.2750 N   0  0  0  0  0  0  0  0  0  0  0  0
   -7.8530    0.2160   -0.9280 C   0  0  0  0  0  0  0  0  0  0  0  0
   -8.9060    0.5310    0.0960 C   0  0  0  0  0  0  0  0  0  0  0  0
   -8.7140   -0.1480    1.3640 N   0  0  0  0  0  0  0  0  0  0  0  0
   -9.7920    0.2780    2.2370 C   0  0  0  0  0  0  0  0  0  0  0  0
   -7.4290    0.1880    1.9640 C   0  0  0  0  0  0  0  0  0  0  0  0
   -6.5290    0.8190    0.9370 C   0  0  0  0  0  0  0  0  0  0  0  0
   -3.0790    0.4430   -1.5440 C   0  0  0  0  0  0  0  0  0  0  0  0
   -3.3330    1.2660   -2.7410 C   0  0  2  0  0  0  0  0  0  0  0  0
   -3.9440    2.4690   -2.4830 F   0  0  0  0  0  0  0  0  0  0  0  0
   -4.0500    0.5400   -3.7060 F   0  0  0  0  0  0  0  0  0  0  0  0
   -2.1300    1.5880   -3.3900 F   0  0  0  0  0  0  0  0  0  0  0  0
   -1.7620    0.0830   -1.2030 C   0  0  0  0  0  0  0  0  0  0  0  0
    3.4760   -0.4400   -0.1640 C   0  0  0  0  0  0  0  0  0  0  0  0
    4.6830   -0.8810    0.2840 C   0  0  0  0  0  0  0  0  0  0  0  0
    5.8470   -0.1110   -0.1040 C   0  0  0  0  0  0  0  0  0  0  0  0
    6.8070    0.5480   -0.4270 C   0  0  0  0  0  0  0  0  0  0  0  0
    7.9660    1.3260   -0.7950 C   0  0  0  0  0  0  0  0  0  0  0  0
    7.9170    2.5450   -1.4430 C   0  0  0  0  0  0  0  0  0  0  0  0
    9.1840    2.9560   -1.6130 N   0  0  0  0  0  0  0  0  0  0  0  0
   10.0370    2.0350   -1.0910 C   0  0  0  0  0  0  0  0  0  0  0  0
   11.4160    1.9710   -1.0040 C   0  0  0  0  0  0  0  0  0  0  0  0
   12.0040    0.8790   -0.4030 C   0  0  0  0  0  0  0  0  0  0  0  0
   11.1950   -0.1200    0.0960 C   0  0  0  0  0  0  0  0  0  0  0  0
    9.8800    0.0100   -0.0230 N   0  0  0  0  0  0  0  0  0  0  0  0
    9.2760    1.0470   -0.5970 N   0  0  0  0  0  0  0  0  0  0  0  0
  1  2  1  0
  2  3  2  0
  2 28  1  0
  3  4  1  0
  4  5  2  0
  5  6  1  0
  5 27  1  0
  6  7  2  0
  6  8  1  0
  8  9  1  0
  9 10  2  0
  9 26  1  0
 10 11  1  0
 11 12  2  0
 12 13  1  0
 12 21  1  0
 13 14  1  0
 14 15  1  0
 14 20  1  0
 15 16  1  0
 16 17  1  0
 17 18  1  0
 17 19  1  0
 19 20  1  0
 21 22  1  0
 21 26  2  0
 22 23  1  1
 22 24  1  0
 22 25  1  0
 27 28  2  0
 28 29  1  0
 29 30  3  0
 30 31  1  0
 31 32  2  0
 31 39  1  0
 32 33  1  0
 33 34  2  0
 34 35  1  0
 34 39  1  0
 35 36  2  0
 36 37  1  0
 37 38  2  0
 38 39  1  0
M  END
