
     RDKit          3D

 39 42  0  0  0  0  0  0  0  0999 V2000
   -5.6380    3.8240    0.0690 C   0  0  0  0  0  0  0  0  0  0  0  0
   -5.3480    2.4310   -0.3200 C   0  0  0  0  0  0  0  0  0  0  0  0
   -4.2790    1.6960   -0.2760 C   0  0  0  0  0  0  0  0  0  0  0  0
   -4.4320    0.2990   -0.8090 C   0  0  0  0  0  0  0  0  0  0  0  0
   -5.5170   -0.0830   -1.2900 O   0  0  0  0  0  0  0  0  0  0  0  0
   -3.3270   -0.5800   -0.7560 N   0  0  0  0  0  0  0  0  0  0  0  0
   -2.2830   -0.4730    0.1600 C   0  0  1  0  0  0  0  0  0  0  0  0
   -2.9810   -0.6900    1.5810 C   0  0  0  0  0  0  0  0  0  0  0  0
   -3.9440   -1.8210    1.5080 C   0  0  0  0  0  0  0  0  0  0  0  0
   -3.5340   -3.1410    1.0010 C   0  0  0  0  0  0  0  0  0  0  0  0
   -4.7520   -3.9700    0.9890 N   0  0  0  0  0  0  0  0  0  0  0  0
   -4.5490   -5.1430    0.2040 C   0  0  0  0  0  0  0  0  0  0  0  0
   -1.0940   -1.2190    0.1300 C   0  0  0  0  0  0  0  0  0  0  0  0
   -0.4650   -2.0220    0.6800 O   0  0  0  0  0  0  0  0  0  0  0  0
   -0.2010   -0.7340   -1.3350 N   0  0  0  0  0  0  0  0  0  0  0  0
    1.1400   -0.9990   -0.8680 C   0  0  0  0  0  0  0  0  0  0  0  0
    1.6110   -1.6730   -0.1020 O   0  0  0  0  0  0  0  0  0  0  0  0
    1.9680   -0.0280   -1.6740 N   0  0  0  0  0  0  0  0  0  0  0  0
    3.2460    0.3940   -1.4400 C   0  0  0  0  0  0  0  0  0  0  0  0
    3.3250    1.8350   -1.5500 C   0  0  0  0  0  0  0  0  0  0  0  0
    4.4320    2.5300   -1.3350 C   0  0  0  0  0  0  0  0  0  0  0  0
    5.5560    1.7960   -1.0110 C   0  0  0  0  0  0  0  0  0  0  0  0
    6.7190    2.4910   -0.7440 F   0  0  0  0  0  0  0  0  0  0  0  0
    5.5690    0.4170   -0.8950 C   0  0  0  0  0  0  0  0  0  0  0  0
    6.8100   -0.1800   -0.4680 C   0  0  0  0  0  0  0  0  0  0  0  0
    6.9580   -1.2380    0.2890 C   0  0  0  0  0  0  0  0  0  0  0  0
    8.2190   -1.7440    0.7660 C   0  0  0  0  0  0  0  0  0  0  0  0
    9.2730   -0.9900    0.3650 N   0  0  0  0  0  0  0  0  0  0  0  0
    9.1380    0.1080   -0.4140 C   0  0  0  0  0  0  0  0  0  0  0  0
    7.9710    0.5010   -0.8170 N   0  0  0  0  0  0  0  0  0  0  0  0
    4.3960   -0.2400   -1.1180 C   0  0  0  0  0  0  0  0  0  0  0  0
   -1.9800    1.0400    0.3190 C   0  0  0  0  0  0  0  0  0  0  0  0
   -0.7220    1.4530    0.6830 C   0  0  0  0  0  0  0  0  0  0  0  0
   -0.4100    2.7670    1.0030 C   0  0  0  0  0  0  0  0  0  0  0  0
    0.8540    3.0750    1.3420 F   0  0  0  0  0  0  0  0  0  0  0  0
   -1.4010    3.6790    0.9480 C   0  0  0  0  0  0  0  0  0  0  0  0
   -1.1260    5.0010    1.2480 F   0  0  0  0  0  0  0  0  0  0  0  0
   -2.6680    3.2940    0.5830 C   0  0  0  0  0  0  0  0  0  0  0  0
   -2.9690    1.9580    0.2650 C   0  0  0  0  0  0  0  0  0  0  0  0
  1  2  1  0
  2  3  2  3
  3  4  1  0
  3 39  1  0
  4  5  2  0
  4  6  1  0
  6  7  1  0
  7  8  1  1
  7 13  1  0
  7 32  1  0
  8  9  1  0
  9 10  1  0
 10 11  1  0
 11 12  1  0
 13 14  2  0
 13 15  1  0
 15 16  1  0
 16 17  2  0
 16 18  1  0
 18 19  1  0
 19 20  2  0
 19 31  1  0
 20 21  1  0
 21 22  2  0
 22 23  1  0
 22 24  1  0
 24 25  1  0
 24 31  2  0
 25 26  2  0
 25 30  1  0
 26 27  1  0
 27 28  2  0
 28 29  1  0
 29 30  2  0
 32 33  2  0
 32 39  1  0
 33 34  1  0
 34 35  1  0
 34 36  2  0
 36 37  1  0
 36 38  1  0
 38 39  2  0
M  CHG  1  28   1
M  END
