
     RDKit          3D

 39 43  0  0  0  0  0  0  0  0999 V2000
    9.2800    0.6110   -0.2350 C   0  0  0  0  0  0  0  0  0  0  0  0
    8.3700   -0.5590    0.0380 C   0  0  0  0  0  0  0  0  0  0  0  0
    7.0840   -0.4980   -0.8050 C   0  0  1  0  0  0  0  0  0  0  0  0
    6.3460    0.6340   -0.5630 O   0  0  0  0  0  0  0  0  0  0  0  0
    5.1070    0.7410    0.0350 C   0  0  0  0  0  0  0  0  0  0  0  0
    4.5950   -0.3450    0.4010 O   0  0  0  0  0  0  0  0  0  0  0  0
    4.4060    2.0220    0.2480 C   0  0  0  0  0  0  0  0  0  0  0  0
    3.2450    2.3160   -1.1080 S   0  0  0  0  0  0  0  0  0  0  0  0
    1.8730    1.0980   -1.0570 C   0  0  0  0  0  0  0  0  0  0  0  0
    1.1080    1.3720    0.1860 C   0  0  0  0  0  0  0  0  0  0  0  0
   -0.0400    0.4910    0.4010 N   0  0  0  0  0  0  0  0  0  0  0  0
    0.1600   -0.6620    1.0560 C   0  0  0  0  0  0  0  0  0  0  0  0
    1.3190   -0.9790    1.4650 O   0  0  0  0  0  0  0  0  0  0  0  0
   -0.8550   -1.5410    1.3140 C   0  0  0  0  0  0  0  0  0  0  0  0
   -0.6960   -2.6810    1.9560 N   0  0  0  0  0  0  0  0  0  0  0  0
   -1.6940   -3.4930    2.1830 N   0  0  0  0  0  0  0  0  0  0  0  0
   -2.9490   -3.2200    1.7780 C   0  0  0  0  0  0  0  0  0  0  0  0
   -3.9710   -4.1310    2.0530 C   0  0  0  0  0  0  0  0  0  0  0  0
   -5.2520   -3.8650    1.6470 C   0  0  0  0  0  0  0  0  0  0  0  0
   -5.5400   -2.7070    0.9700 C   0  0  0  0  0  0  0  0  0  0  0  0
   -4.5370   -1.7810    0.6830 C   0  0  0  0  0  0  0  0  0  0  0  0
   -3.2640   -2.0560    1.0910 C   0  0  0  0  0  0  0  0  0  0  0  0
   -2.2260   -1.1760    0.8350 C   0  0  0  0  0  0  0  0  0  0  0  0
   -2.4060   -0.0180    0.1810 C   0  0  0  0  0  0  0  0  0  0  0  0
   -3.6260    0.5110   -0.3660 C   0  0  0  0  0  0  0  0  0  0  0  0
   -4.0310    0.2580   -1.6800 C   0  0  0  0  0  0  0  0  0  0  0  0
   -5.1380    0.8740   -2.1910 C   0  0  0  0  0  0  0  0  0  0  0  0
   -5.9110    1.7670   -1.4590 C   0  0  0  0  0  0  0  0  0  0  0  0
   -5.4890    1.9960   -0.1730 C   0  0  0  0  0  0  0  0  0  0  0  0
   -4.3860    1.4000    0.3800 C   0  0  0  0  0  0  0  0  0  0  0  0
   -6.4620    2.9660    0.3920 C   0  0  0  0  0  0  0  0  0  0  0  0
   -7.3760    3.2700   -0.5090 C   0  0  0  0  0  0  0  0  0  0  0  0
   -7.1400    2.5550   -1.7740 C   0  0  0  0  0  0  0  0  0  0  0  0
   -1.2530    0.7880   -0.0090 C   0  0  0  0  0  0  0  0  0  0  0  0
   -1.4290    1.8660   -0.6200 O   0  0  0  0  0  0  0  0  0  0  0  0
    7.4830   -0.7870   -2.2060 C   0  0  2  0  0  0  0  0  0  0  0  0
    8.0530   -2.0720   -2.1980 F   0  0  0  0  0  0  0  0  0  0  0  0
    8.5360    0.0340   -2.6370 F   0  0  0  0  0  0  0  0  0  0  0  0
    6.4520   -0.8400   -3.0980 F   0  0  0  0  0  0  0  0  0  0  0  0
  1  2  1  0
  3  2  1  1
  3  4  1  0
  3 36  1  0
  4  5  1  0
  5  6  2  0
  5  7  1  0
  7  8  1  0
  8  9  1  0
  9 10  1  0
 10 11  1  0
 11 12  1  0
 11 34  1  0
 12 13  2  0
 12 14  1  0
 14 15  2  0
 14 23  1  0
 15 16  1  0
 16 17  1  0
 17 18  2  0
 17 22  1  0
 18 19  1  0
 19 20  2  0
 20 21  1  0
 21 22  2  0
 22 23  1  0
 23 24  2  0
 24 25  1  0
 24 34  1  0
 25 26  2  0
 25 30  1  0
 26 27  1  0
 27 28  2  0
 28 29  1  0
 28 33  1  0
 29 30  2  0
 29 31  1  0
 31 32  2  0
 32 33  1  0
 34 35  2  0
 36 37  1  1
 36 38  1  0
 36 39  1  0
M  END
