
     RDKit          3D

 27 27  0  0  0  0  0  0  0  0999 V2000
    6.4970    1.3330   -1.1610 C   0  0  0  0  0  0  0  0  0  0  0  0
    5.3090    0.7120   -0.7100 O   0  0  0  0  0  0  0  0  0  0  0  0
    4.2080    0.5870   -1.5280 C   0  0  0  0  0  0  0  0  0  0  0  0
    4.3300    1.0550   -2.6830 O   0  0  0  0  0  0  0  0  0  0  0  0
    2.9310   -0.0740   -1.0630 C   0  0  0  0  0  0  0  0  0  0  0  0
    2.9350   -0.5240    0.1480 C   0  0  0  0  0  0  0  0  0  0  0  0
    2.0040   -1.2030    1.0070 C   0  0  0  0  0  0  0  0  0  0  0  0
    2.1210   -0.8810    2.4190 O   0  0  0  0  0  0  0  0  0  0  0  0
    2.3010    0.3730    2.8090 O   0  0  0  0  0  0  0  0  0  0  0  0
    1.0480   -2.0750    0.7650 C   0  0  0  0  0  0  0  0  0  0  0  0
    0.5150   -2.7070   -0.3830 C   0  0  0  0  0  0  0  0  0  0  0  0
   -0.6100   -2.5840   -1.0720 C   0  0  0  0  0  0  0  0  0  0  0  0
   -1.7430   -1.7150   -0.8610 C   0  0  0  0  0  0  0  0  0  0  0  0
   -2.8550   -1.9670   -1.5500 C   0  0  0  0  0  0  0  0  0  0  0  0
   -4.0990   -1.1530   -1.4300 C   0  0  0  0  0  0  0  0  0  0  0  0
   -4.3580   -0.6360   -2.7090 O   0  0  0  0  0  0  0  0  0  0  0  0
   -1.7840   -0.6240    0.0410 N   0  0  0  0  0  0  0  0  0  0  0  0
   -0.8210    0.4560    0.1020 C   0  0  0  0  0  0  0  0  0  0  0  0
   -0.9230    1.3770    1.3090 C   0  0  2  0  0  0  0  0  0  0  0  0
   -0.8100    0.5590    2.5040 N   0  0  0  0  0  0  0  0  0  0  0  0
   -2.2640    2.0120    1.3270 C   0  0  0  0  0  0  0  0  0  0  0  0
   -2.6390    2.7920    0.3890 O   0  0  0  0  0  0  0  0  0  0  0  0
   -3.1480    1.7870    2.3490 O   0  0  0  0  0  0  0  0  0  0  0  0
   -4.4120    2.4060    2.3350 C   0  0  0  0  0  0  0  0  0  0  0  0
    0.0610    0.6900   -0.7340 N   0  0  0  0  0  0  0  0  0  0  0  0
    0.6000    0.2700   -1.9060 C   0  0  0  0  0  0  0  0  0  0  0  0
    1.8970   -0.0800   -2.0700 C   0  0  0  0  0  0  0  0  0  0  0  0
  1  2  1  0
  2  3  1  0
  3  4  2  0
  3  5  1  0
  5  6  2  0
  5 27  1  0
  6  7  1  0
  7  8  1  0
  7 10  2  0
  8  9  1  0
 10 11  1  0
 11 12  2  0
 12 13  1  0
 13 14  2  3
 13 17  1  0
 14 15  1  0
 15 16  1  0
 17 18  1  0
 18 19  1  0
 18 25  2  0
 19 20  1  1
 19 21  1  0
 21 22  2  0
 21 23  1  0
 23 24  1  0
 25 26  1  0
 26 27  2  0
M  END
