
     RDKit          3D

 27 28  0  0  0  0  0  0  0  0999 V2000
   -4.5660   -2.0240    2.4950 O   0  0  0  0  0  0  0  0  0  0  0  0
   -4.8230   -2.5280    1.3880 C   0  0  0  0  0  0  0  0  0  0  0  0
   -3.9410   -2.3340    0.3090 N   0  0  0  0  0  0  0  0  0  0  0  0
   -2.6950   -1.5150    0.5180 C   0  0  1  0  0  0  0  0  0  0  0  0
   -1.5980   -2.5620    0.2160 C   0  0  0  0  0  0  0  0  0  0  0  0
   -1.7710   -3.6440    1.1180 O   0  0  0  0  0  0  0  0  0  0  0  0
   -2.6500   -0.4810   -0.4870 C   0  0  0  0  0  0  0  0  0  0  0  0
   -3.4180   -0.6040   -1.5010 O   0  0  0  0  0  0  0  0  0  0  0  0
   -1.8280    0.6830   -0.4520 N   0  0  0  0  0  0  0  0  0  0  0  0
   -0.9540    0.8430    0.6600 C   0  0  0  0  0  0  0  0  0  0  0  0
    0.4110    0.3450    0.2820 C   0  0  0  0  0  0  0  0  0  0  0  0
    0.6210   -0.1090   -0.8660 O   0  0  0  0  0  0  0  0  0  0  0  0
    1.4780    0.3800    1.2100 N   0  0  0  0  0  0  0  0  0  0  0  0
    2.7880   -0.0670    0.9540 C   0  0  0  0  0  0  0  0  0  0  0  0
    3.7640    0.3380    1.8840 C   0  0  0  0  0  0  0  0  0  0  0  0
    5.0780   -0.0270    1.7820 C   0  0  0  0  0  0  0  0  0  0  0  0
    5.4290   -0.8210    0.7190 C   0  0  0  0  0  0  0  0  0  0  0  0
    4.5270   -1.2510   -0.2220 C   0  0  0  0  0  0  0  0  0  0  0  0
    4.9030   -2.0610   -1.3000 O   0  0  0  0  0  0  0  0  0  0  0  0
    3.2000   -0.8540   -0.0770 C   0  0  0  0  0  0  0  0  0  0  0  0
   -1.9210    1.5970   -1.5310 C   0  0  0  0  0  0  0  0  0  0  0  0
   -2.7960    1.2840   -2.4240 O   0  0  0  0  0  0  0  0  0  0  0  0
   -1.1840    2.8110   -1.7640 C   0  0  0  0  0  0  0  0  0  0  0  0
   -0.1680    3.4140   -1.0770 C   0  0  0  0  0  0  0  0  0  0  0  0
    0.1590    4.5870   -1.7520 C   0  0  0  0  0  0  0  0  0  0  0  0
   -0.6130    4.6910   -2.7880 O   0  0  0  0  0  0  0  0  0  0  0  0
   -1.4200    3.6750   -2.8440 C   0  0  0  0  0  0  0  0  0  0  0  0
  1  2  2  0
  2  3  1  0
  3  4  1  0
  4  5  1  6
  4  7  1  0
  5  6  1  0
  7  8  2  0
  7  9  1  0
  9 10  1  0
  9 21  1  0
 10 11  1  0
 11 12  2  0
 11 13  1  0
 13 14  1  0
 14 15  2  0
 14 20  1  0
 15 16  1  0
 16 17  2  0
 17 18  1  0
 18 19  1  0
 18 20  2  0
 21 22  2  0
 21 23  1  0
 23 24  1  0
 23 27  2  0
 24 25  2  0
 25 26  1  0
 26 27  1  0
M  END
