
     RDKit          3D

 27 27  0  0  0  0  0  0  0  0999 V2000
    2.3060   -2.8190    3.0290 C   0  0  0  0  0  0  0  0  0  0  0  0
    2.4090   -2.1550    1.8650 C   0  0  0  0  0  0  0  0  0  0  0  0
    3.3120   -2.6110    0.8390 C   0  0  0  0  0  0  0  0  0  0  0  0
    3.5210   -2.0750   -0.3360 C   0  0  0  0  0  0  0  0  0  0  0  0
    4.4630   -2.6870   -1.2050 O   0  0  0  0  0  0  0  0  0  0  0  0
    1.5700   -0.9890    1.7360 C   0  0  0  0  0  0  0  0  0  0  0  0
    0.7840   -0.6220    2.6800 O   0  0  0  0  0  0  0  0  0  0  0  0
    1.5450   -0.1970    0.6170 O   0  0  0  0  0  0  0  0  0  0  0  0
    0.7190    0.9100    0.5560 C   0  0  0  0  0  0  0  0  0  0  0  0
    1.2290    2.1910    1.0120 C   0  0  0  0  0  0  0  0  0  0  0  0
    2.4360    2.2490    1.4560 N   0  0  0  0  0  0  0  0  0  0  0  0
    2.9400    3.5320    1.9090 C   0  0  0  0  0  0  0  0  0  0  0  0
    2.7900    4.5000    0.7870 C   0  0  0  0  0  0  0  0  0  0  0  0
    2.2990    4.1470   -0.3310 O   0  0  0  0  0  0  0  0  0  0  0  0
    3.1680    5.8330    0.8800 O   0  0  0  0  0  0  0  0  0  0  0  0
   -0.5220    0.8120    0.0920 C   0  0  0  0  0  0  0  0  0  0  0  0
   -1.0810   -0.4470   -0.3760 C   0  0  0  0  0  0  0  0  0  0  0  0
   -2.3150   -0.5110   -0.8310 C   0  0  0  0  0  0  0  0  0  0  0  0
   -3.1040    0.6620   -0.8640 N   0  0  0  0  0  0  0  0  0  0  0  0
   -3.6390    1.2040   -2.0700 C   0  0  0  0  0  0  0  0  0  0  0  0
   -4.4270    2.3720   -2.1060 N   0  0  0  0  0  0  0  0  0  0  0  0
   -3.3910    0.6060   -3.1440 O   0  0  0  0  0  0  0  0  0  0  0  0
   -2.8410   -1.7960   -1.2890 C   0  0  0  0  0  0  0  0  0  0  0  0
   -4.1190   -2.0320   -1.7880 C   0  0  0  0  0  0  0  0  0  0  0  0
   -4.2310   -3.3680   -2.1110 C   0  0  0  0  0  0  0  0  0  0  0  0
   -3.0030   -3.9050   -1.7940 C   0  0  0  0  0  0  0  0  0  0  0  0
   -2.2340   -2.9560   -1.3220 O   0  0  0  0  0  0  0  0  0  0  0  0
  1  2  2  0
  2  3  1  0
  2  6  1  0
  3  4  2  3
  4  5  1  0
  6  7  2  0
  6  8  1  0
  8  9  1  0
  9 10  1  0
  9 16  2  3
 10 11  2  3
 11 12  1  0
 12 13  1  0
 13 14  2  0
 13 15  1  0
 16 17  1  0
 17 18  2  3
 18 19  1  0
 18 23  1  0
 19 20  1  0
 20 21  1  0
 20 22  2  0
 23 24  2  0
 23 27  1  0
 24 25  1  0
 25 26  2  0
 26 27  1  0
M  END
