
     RDKit          3D

 27 28  0  0  0  0  0  0  0  0999 V2000
   -7.2040    1.8580    0.9210 C   0  0  0  0  0  0  0  0  0  0  0  0
   -6.0780    2.4300    0.1770 N   0  0  0  0  0  0  0  0  0  0  0  0
   -4.9250    1.5770    0.0240 C   0  0  0  0  0  0  0  0  0  0  0  0
   -4.9380    0.4220    0.5180 O   0  0  0  0  0  0  0  0  0  0  0  0
   -3.7950    2.1680   -0.7310 C   0  0  0  0  0  0  0  0  0  0  0  0
   -2.6030    1.2570   -0.8470 C   0  0  0  0  0  0  0  0  0  0  0  0
   -2.0270    0.8980    0.4870 C   0  0  0  0  0  0  0  0  0  0  0  0
   -0.8930    0.0180    0.3310 N   0  0  0  0  0  0  0  0  0  0  0  0
    0.4260    0.5700    0.1900 C   0  0  0  0  0  0  0  0  0  0  0  0
    0.6180    1.8090    0.1580 O   0  0  0  0  0  0  0  0  0  0  0  0
    1.5580   -0.3230    0.0820 N   0  0  0  0  0  0  0  0  0  0  0  0
    2.8990    0.1910   -0.0700 C   0  0  0  0  0  0  0  0  0  0  0  0
    2.9310    1.4470   -0.1140 O   0  0  0  0  0  0  0  0  0  0  0  0
    4.0370   -0.6760   -0.1540 C   0  0  0  0  0  0  0  0  0  0  0  0
    3.8320   -2.0090   -0.0780 C   0  0  0  0  0  0  0  0  0  0  0  0
    4.9900   -2.8970   -0.1630 C   0  0  0  0  0  0  0  0  0  0  0  0
    6.2140   -2.4260   -0.3100 C   0  0  0  0  0  0  0  0  0  0  0  0
    6.4850   -1.0740   -0.3940 O   0  0  0  0  0  0  0  0  0  0  0  0
    5.3830   -0.1790   -0.3150 C   0  0  0  0  0  0  0  0  0  0  0  0
    5.6770    1.0960   -0.4000 C   0  0  0  0  0  0  0  0  0  0  0  0
    7.0220    1.5090   -0.5570 O   0  0  0  0  0  0  0  0  0  0  0  0
    7.3280    2.7400   -0.1730 O   0  0  0  0  0  0  0  0  0  0  0  0
   -1.0640   -1.3920    0.3220 C   0  0  0  0  0  0  0  0  0  0  0  0
   -0.9650   -2.1120   -0.8730 C   0  0  0  0  0  0  0  0  0  0  0  0
   -1.1770   -3.4360   -0.5550 C   0  0  0  0  0  0  0  0  0  0  0  0
   -1.3930   -3.4640    0.8030 C   0  0  0  0  0  0  0  0  0  0  0  0
   -1.3190   -2.2290    1.2950 O   0  0  0  0  0  0  0  0  0  0  0  0
  1  2  1  0
  2  3  1  0
  3  4  2  0
  3  5  1  0
  5  6  1  0
  6  7  1  0
  7  8  1  0
  8  9  1  0
  8 23  1  0
  9 10  2  0
  9 11  1  0
 11 12  1  0
 12 13  2  0
 12 14  1  0
 14 15  2  0
 14 19  1  0
 15 16  1  0
 16 17  2  0
 17 18  1  0
 18 19  1  0
 19 20  2  3
 20 21  1  0
 21 22  1  0
 23 24  2  0
 23 27  1  0
 24 25  1  0
 25 26  2  0
 26 27  1  0
M  END
