
     RDKit          3D

 10  9  0  0  0  0  0  0  0  0999 V2000
    2.6180    1.2680    0.0860 O   0  0  0  0  0  0  0  0  0  0  0  0
    3.0670    0.2560   -0.5010 C   0  0  0  0  0  0  0  0  0  0  0  0
    2.4260   -0.9210   -0.3900 O   0  0  0  0  0  0  0  0  0  0  0  0
    1.2950   -1.2570    0.2760 C   0  0  0  0  0  0  0  0  0  0  0  0
    0.0910   -0.7960    0.0380 O   0  0  0  0  0  0  0  0  0  0  0  0
   -0.4460    0.3930    0.0680 C   0  0  1  0  0  0  0  0  0  0  0  0
   -0.9750    0.6810   -1.2410 O   0  0  0  0  0  0  0  0  0  0  0  0
   -2.0450    0.2730    1.0980 P   0  0  0  0  0  0  0  0  0  0  0  0
   -3.0390    1.6540    0.7720 O   0  0  0  0  0  0  0  0  0  0  0  0
   -2.8950   -1.1260    0.5220 O   0  0  0  0  0  0  0  0  0  0  0  0
  1  2  2  0
  2  3  1  0
  3  4  1  0
  4  5  1  0
  5  6  1  0
  6  7  1  6
  6  8  1  0
  8  9  1  0
  8 10  1  0
M  END
