
     RDKit          3D

 10  9  0  0  0  0  0  0  0  0999 V2000
    2.5970    0.1070    1.2100 O   0  0  0  0  0  0  0  0  0  0  0  0
    2.8020    0.2110   -0.0240 C   0  0  0  0  0  0  0  0  0  0  0  0
    3.7480    1.1170   -0.4420 O   0  0  0  0  0  0  0  0  0  0  0  0
    2.0580   -0.5960   -0.8640 O   0  0  0  0  0  0  0  0  0  0  0  0
    1.1020   -1.5050   -0.3840 C   0  0  0  0  0  0  0  0  0  0  0  0
   -0.0040   -0.8580    0.3760 C   0  0  0  0  0  0  0  0  0  0  0  0
   -0.7020    0.0660   -0.4140 O   0  0  0  0  0  0  0  0  0  0  0  0
   -1.6480    0.5910    0.3060 O   0  0  0  0  0  0  0  0  0  0  0  0
   -2.7700    0.9240   -0.4290 C   0  0  0  0  0  0  0  0  0  0  0  0
   -3.7200    1.4760    0.4280 O   0  0  0  0  0  0  0  0  0  0  0  0
  1  2  2  0
  2  3  1  0
  2  4  1  0
  4  5  1  0
  5  6  1  0
  6  7  1  0
  7  8  1  0
  8  9  1  0
  9 10  1  0
M  END
