
     RDKit          3D

 10  9  0  0  0  0  0  0  0  0999 V2000
    2.6030   -0.1310   -1.3660 O   0  0  0  0  0  0  0  0  0  0  0  0
    1.9680    0.3910   -0.4210 C   0  0  0  0  0  0  0  0  0  0  0  0
    0.9040    1.3950   -0.5860 C   0  0  0  0  0  0  0  0  0  0  0  0
   -0.7710    0.5910   -0.6980 P   0  0  0  0  0  0  0  0  0  0  0  0
   -1.9430    1.7610   -0.1260 O   0  0  0  0  0  0  0  0  0  0  0  0
   -0.8050   -0.7100    0.4790 O   0  0  0  0  0  0  0  0  0  0  0  0
   -2.1250   -1.1740    0.5460 C   0  0  0  0  0  0  0  0  0  0  0  0
   -2.4740   -1.6310   -0.7390 O   0  0  0  0  0  0  0  0  0  0  0  0
    2.2960   -0.0070    0.8640 O   0  0  0  0  0  0  0  0  0  0  0  0
    3.2190   -0.8920    1.1730 O   0  0  0  0  0  0  0  0  0  0  0  0
  1  2  2  0
  2  3  1  0
  2  9  1  0
  3  4  1  0
  4  5  1  0
  4  6  1  0
  6  7  1  0
  7  8  1  0
  9 10  1  0
M  END
