
     RDKit          3D

 27 27  0  0  0  0  0  0  0  0999 V2000
   -4.9130   -2.3950    0.3410 C   0  0  0  0  0  0  0  0  0  0  0  0
   -4.1490   -1.6990    1.3580 N   0  0  0  0  0  0  0  0  0  0  0  0
   -3.1390   -0.6780    1.1120 C   0  0  0  0  0  0  0  0  0  0  0  0
   -2.2320   -0.8830    2.2690 C   0  0  0  0  0  0  0  0  0  0  0  0
   -0.9480   -0.6640    2.2570 N   0  0  0  0  0  0  0  0  0  0  0  0
   -0.3000   -0.1880    1.0660 C   0  0  0  0  0  0  0  0  0  0  0  0
   -0.7630    0.8060    0.4960 N   0  0  0  0  0  0  0  0  0  0  0  0
   -0.4320    1.5380   -0.6320 C   0  0  0  0  0  0  0  0  0  0  0  0
   -0.8690    1.2590   -1.8610 C   0  0  0  0  0  0  0  0  0  0  0  0
   -0.4800    2.0610   -2.9580 N   0  0  0  0  0  0  0  0  0  0  0  0
   -1.2650    3.0670   -3.4360 O   0  0  0  0  0  0  0  0  0  0  0  0
    0.4500    2.7080   -0.4780 C   0  0  0  0  0  0  0  0  0  0  0  0
    0.7890    3.4250   -1.4510 O   0  0  0  0  0  0  0  0  0  0  0  0
    0.9350    3.0460    0.7730 O   0  0  0  0  0  0  0  0  0  0  0  0
    1.7610    4.1220    0.9920 C   0  0  0  0  0  0  0  0  0  0  0  0
    2.1060    4.8420    0.0400 O   0  0  0  0  0  0  0  0  0  0  0  0
    2.2040    4.3980    2.2630 O   0  0  0  0  0  0  0  0  0  0  0  0
    0.7990   -0.8710    0.6350 O   0  0  0  0  0  0  0  0  0  0  0  0
    1.2430   -0.8260   -0.6770 C   0  0  0  0  0  0  0  0  0  0  0  0
    2.4850   -1.7420   -0.7170 C   0  0  0  0  0  0  0  0  0  0  0  0
    3.4920   -1.2500    0.1950 N   0  0  0  0  0  0  0  0  0  0  0  0
    4.9040   -2.3170    0.1290 P   0  0  0  0  0  0  0  0  0  0  0  0
    6.3800   -1.4500    0.2450 O   0  0  0  0  0  0  0  0  0  0  0  0
    4.8730   -3.3800   -1.2390 O   0  0  0  0  0  0  0  0  0  0  0  0
   -3.0150   -1.3360    3.3130 O   0  0  0  0  0  0  0  0  0  0  0  0
   -4.2070   -1.8460    2.7710 C   0  0  0  0  0  0  0  0  0  0  0  0
   -5.1860   -2.3530    3.3780 O   0  0  0  0  0  0  0  0  0  0  0  0
  1  2  1  0
  2  3  1  0
  2 26  1  0
  3  4  1  0
  4  5  2  3
  4 25  1  0
  5  6  1  0
  6  7  2  3
  6 18  1  0
  7  8  1  0
  8  9  2  3
  8 12  1  0
  9 10  1  0
 10 11  1  0
 12 13  2  0
 12 14  1  0
 14 15  1  0
 15 16  2  0
 15 17  1  0
 18 19  1  0
 19 20  1  0
 20 21  1  0
 21 22  1  0
 22 23  1  0
 22 24  1  0
 25 26  1  0
 26 27  2  0
M  END
