
     RDKit          3D

 21 22  0  0  0  0  0  0  0  0999 V2000
    1.6260    3.1100    2.0070 O   0  0  0  0  0  0  0  0  0  0  0  0
    1.0800    2.1490    1.3920 C   0  0  0  0  0  0  0  0  0  0  0  0
    1.9280    1.1170    0.8900 N   0  0  0  0  0  0  0  0  0  0  0  0
    1.6110    0.0220    0.0400 C   0  0  0  0  0  0  0  0  0  0  0  0
    2.7220   -0.7680   -0.5100 C   0  0  0  0  0  0  0  0  0  0  0  0
    2.4590   -1.7390   -1.2640 O   0  0  0  0  0  0  0  0  0  0  0  0
    4.0360   -0.5040   -0.2450 O   0  0  0  0  0  0  0  0  0  0  0  0
    5.3730   -1.4510   -0.9040 P   0  0  0  0  0  0  0  0  0  0  0  0
    5.9350   -2.6090    0.2860 O   0  0  0  0  0  0  0  0  0  0  0  0
    6.6850   -0.3370   -1.1530 O   0  0  0  0  0  0  0  0  0  0  0  0
    0.4350   -0.3430   -0.2960 N   0  0  0  0  0  0  0  0  0  0  0  0
   -0.8680    0.1790    0.0400 C   0  0  0  0  0  0  0  0  0  0  0  0
   -1.1430    1.2830    0.7170 C   0  0  0  0  0  0  0  0  0  0  0  0
   -2.5640    1.6490    0.9600 C   0  0  0  0  0  0  0  0  0  0  0  0
   -3.3100    1.2880   -0.2920 C   0  0  0  0  0  0  0  0  0  0  0  0
   -3.9140    2.1160   -0.9410 O   0  0  0  0  0  0  0  0  0  0  0  0
   -3.2530   -0.1520   -0.6720 C   0  0  2  0  0  0  0  0  0  0  0  0
   -4.2630   -0.8690    0.2170 C   0  0  0  0  0  0  0  0  0  0  0  0
   -4.3090   -2.2260   -0.0250 O   0  0  0  0  0  0  0  0  0  0  0  0
   -1.9170   -0.6660   -0.4620 N   0  0  0  0  0  0  0  0  0  0  0  0
   -0.3100    2.2320    1.2850 O   0  0  0  0  0  0  0  0  0  0  0  0
  1  2  2  0
  2  3  1  0
  2 21  1  0
  3  4  1  0
  4  5  1  0
  4 11  2  0
  5  6  2  0
  5  7  1  0
  7  8  1  0
  8  9  1  0
  8 10  1  0
 11 12  1  0
 12 13  2  0
 12 20  1  0
 13 14  1  0
 13 21  1  0
 14 15  1  0
 15 16  2  0
 15 17  1  0
 17 18  1  1
 17 20  1  0
 18 19  1  0
M  END
