
     RDKit          3D

 16 18  0  0  0  0  0  0  0  0999 V2000
   -4.9570    0.3410   -0.2920 C   0  0  0  0  0  0  0  0  0  0  0  0
   -3.7510   -0.1230   -0.7900 C   0  0  0  0  0  0  0  0  0  0  0  0
   -2.7790    0.3270    0.0250 N   0  0  0  0  0  0  0  0  0  0  0  0
   -1.3740    0.1290   -0.0480 C   0  0  0  0  0  0  0  0  0  0  0  0
   -0.5760    1.1630   -0.4950 C   0  0  0  0  0  0  0  0  0  0  0  0
    0.7980    1.0360   -0.5910 C   0  0  0  0  0  0  0  0  0  0  0  0
    1.4070   -0.1380   -0.2380 C   0  0  0  0  0  0  0  0  0  0  0  0
    2.8640   -0.3180   -0.3240 C   0  0  0  0  0  0  0  0  0  0  0  0
    3.7710    0.5960   -0.7390 N   0  0  0  0  0  0  0  0  0  0  0  0
    5.0060    0.0740   -0.6810 C   0  0  0  0  0  0  0  0  0  0  0  0
    4.8540   -1.1760   -0.2240 N   0  0  0  0  0  0  0  0  0  0  0  0
    3.5770   -1.4110   -0.0100 N   0  0  0  0  0  0  0  0  0  0  0  0
    0.6410   -1.1740    0.2060 C   0  0  0  0  0  0  0  0  0  0  0  0
   -0.7350   -1.0410    0.3000 C   0  0  0  0  0  0  0  0  0  0  0  0
   -3.3750    1.0460    0.9930 C   0  0  0  0  0  0  0  0  0  0  0  0
   -4.7020    1.0740    0.8290 N   0  0  0  0  0  0  0  0  0  0  0  0
  1  2  2  0
  1 16  1  0
  2  3  1  0
  3  4  1  0
  3 15  1  0
  4  5  2  0
  4 14  1  0
  5  6  1  0
  6  7  2  0
  7  8  1  0
  7 13  1  0
  8  9  1  0
  8 12  2  0
  9 10  2  0
 10 11  1  0
 11 12  1  0
 13 14  2  0
 15 16  2  0
M  END
