
     RDKit          3D

 16 18  0  0  0  0  0  0  0  0999 V2000
   -0.0630    0.9140   -1.0040 C   0  0  0  0  0  0  0  0  0  0  0  0
    0.0320   -0.0500    0.0550 N   0  0  0  0  0  0  0  0  0  0  0  0
   -0.9800   -0.5900    0.7450 C   0  0  0  0  0  0  0  0  0  0  0  0
   -2.4190   -0.3840    0.6460 C   0  0  0  0  0  0  0  0  0  0  0  0
   -3.1260    0.4370   -0.1990 C   0  0  0  0  0  0  0  0  0  0  0  0
   -4.4820    0.2970    0.0790 C   0  0  0  0  0  0  0  0  0  0  0  0
   -4.5880   -0.6050    1.0860 C   0  0  0  0  0  0  0  0  0  0  0  0
   -3.3520   -1.0020    1.4130 N   0  0  0  0  0  0  0  0  0  0  0  0
   -0.3910   -1.4440    1.6360 N   0  0  0  0  0  0  0  0  0  0  0  0
    0.8980   -1.4040    1.4760 N   0  0  0  0  0  0  0  0  0  0  0  0
    1.2290   -0.5450    0.4950 C   0  0  0  0  0  0  0  0  0  0  0  0
    2.5110   -0.1920   -0.0100 N   0  0  0  0  0  0  0  0  0  0  0  0
    2.9100   -0.3130   -1.2860 C   0  0  0  0  0  0  0  0  0  0  0  0
    4.2290    0.1310   -1.4080 C   0  0  0  0  0  0  0  0  0  0  0  0
    4.6260    0.5300   -0.1590 C   0  0  0  0  0  0  0  0  0  0  0  0
    3.5640    0.3230    0.6730 C   0  0  0  0  0  0  0  0  0  0  0  0
  1  2  1  0
  2  3  1  0
  2 11  1  0
  3  4  1  0
  3  9  2  0
  4  5  2  0
  4  8  1  0
  5  6  1  0
  6  7  2  0
  7  8  1  0
  9 10  1  0
 10 11  2  0
 11 12  1  0
 12 13  1  0
 12 16  1  0
 13 14  2  0
 14 15  1  0
 15 16  2  0
M  END
