
     RDKit          3D

 16 18  0  0  0  0  0  0  0  0999 V2000
   -5.1370   -0.4760   -0.0900 C   0  0  0  0  0  0  0  0  0  0  0  0
   -3.8380   -0.5550   -0.6010 C   0  0  0  0  0  0  0  0  0  0  0  0
   -2.9530   -0.2530    0.3490 N   0  0  0  0  0  0  0  0  0  0  0  0
   -1.5300   -0.1980    0.3080 C   0  0  0  0  0  0  0  0  0  0  0  0
   -0.8720    0.8270   -0.3500 C   0  0  0  0  0  0  0  0  0  0  0  0
    0.5000    0.9220   -0.4160 C   0  0  0  0  0  0  0  0  0  0  0  0
    1.2470   -0.0550    0.2050 C   0  0  0  0  0  0  0  0  0  0  0  0
    2.7080   -0.0190    0.1770 C   0  0  0  0  0  0  0  0  0  0  0  0
    3.5090   -0.9270    0.7540 N   0  0  0  0  0  0  0  0  0  0  0  0
    4.7850   -0.5810    0.5280 C   0  0  0  0  0  0  0  0  0  0  0  0
    4.7390    0.5810   -0.2150 C   0  0  0  0  0  0  0  0  0  0  0  0
    3.4690    0.9060   -0.4180 N   0  0  0  0  0  0  0  0  0  0  0  0
    0.5730   -1.0560    0.8480 C   0  0  0  0  0  0  0  0  0  0  0  0
   -0.7680   -1.1340    0.9030 N   0  0  0  0  0  0  0  0  0  0  0  0
   -3.6810    0.0190    1.4650 C   0  0  0  0  0  0  0  0  0  0  0  0
   -4.9850   -0.1170    1.1900 N   0  0  0  0  0  0  0  0  0  0  0  0
  1  2  2  0
  1 16  1  0
  2  3  1  0
  3  4  1  0
  3 15  1  0
  4  5  2  0
  4 14  1  0
  5  6  1  0
  6  7  2  0
  7  8  1  0
  7 13  1  0
  8  9  2  0
  8 12  1  0
  9 10  1  0
 10 11  2  0
 11 12  1  0
 13 14  2  0
 15 16  2  0
M  END
