
     RDKit          3D

 16 18  0  0  0  0  0  0  0  0999 V2000
    4.0670    1.1160    0.1440 C   0  0  0  0  0  0  0  0  0  0  0  0
    4.5160   -0.1860    0.2270 C   0  0  0  0  0  0  0  0  0  0  0  0
    3.6530   -1.2190    0.2250 N   0  0  0  0  0  0  0  0  0  0  0  0
    2.3040   -0.9980    0.1390 C   0  0  0  0  0  0  0  0  0  0  0  0
    1.7850    0.2700    0.0530 C   0  0  0  0  0  0  0  0  0  0  0  0
    0.4280    0.5270   -0.0350 N   0  0  0  0  0  0  0  0  0  0  0  0
   -0.6460   -0.3940   -0.0550 C   0  0  0  0  0  0  0  0  0  0  0  0
   -0.5440   -1.7240    0.0110 N   0  0  0  0  0  0  0  0  0  0  0  0
   -1.5850   -2.5690   -0.0100 C   0  0  0  0  0  0  0  0  0  0  0  0
   -2.8180   -2.0290   -0.1040 N   0  0  0  0  0  0  0  0  0  0  0  0
   -3.0190   -0.7290   -0.1740 N   0  0  0  0  0  0  0  0  0  0  0  0
   -4.1640   -0.0230   -0.2700 C   0  0  0  0  0  0  0  0  0  0  0  0
   -3.8570    1.3210   -0.3130 C   0  0  0  0  0  0  0  0  0  0  0  0
   -2.4820    1.3730   -0.2380 C   0  0  0  0  0  0  0  0  0  0  0  0
   -1.9610    0.0920   -0.1510 C   0  0  0  0  0  0  0  0  0  0  0  0
    2.7060    1.2990    0.0580 C   0  0  0  0  0  0  0  0  0  0  0  0
  1  2  2  0
  1 16  1  0
  2  3  1  0
  3  4  2  0
  4  5  1  0
  5  6  1  0
  5 16  2  0
  6  7  1  0
  7  8  2  0
  7 15  1  0
  8  9  1  0
  9 10  2  0
 10 11  1  0
 11 12  1  0
 11 15  1  0
 12 13  2  0
 13 14  1  0
 14 15  2  0
M  END
