
     RDKit          3D

 16 18  0  0  0  0  0  0  0  0999 V2000
   -1.9200   -0.8890    1.6780 C   0  0  0  0  0  0  0  0  0  0  0  0
   -0.6300   -0.6620    1.1920 C   0  0  0  0  0  0  0  0  0  0  0  0
   -0.4560    0.0130    0.0100 C   0  0  0  0  0  0  0  0  0  0  0  0
    0.7790    0.3060   -0.5870 N   0  0  0  0  0  0  0  0  0  0  0  0
    2.0580   -0.0320   -0.0950 C   0  0  0  0  0  0  0  0  0  0  0  0
    3.2030    0.3430   -0.8260 C   0  0  0  0  0  0  0  0  0  0  0  0
    4.4540    0.0210   -0.3600 C   0  0  0  0  0  0  0  0  0  0  0  0
    4.5690   -0.6500    0.7930 N   0  0  0  0  0  0  0  0  0  0  0  0
    3.4810   -1.0100    1.4960 C   0  0  0  0  0  0  0  0  0  0  0  0
    2.2590   -0.6970    1.0430 N   0  0  0  0  0  0  0  0  0  0  0  0
   -1.6300    0.4380   -0.6390 C   0  0  0  0  0  0  0  0  0  0  0  0
   -1.8210    1.1140   -1.7970 N   0  0  0  0  0  0  0  0  0  0  0  0
   -3.1240    1.3100   -2.0410 C   0  0  0  0  0  0  0  0  0  0  0  0
   -3.7830    0.7270   -0.9840 C   0  0  0  0  0  0  0  0  0  0  0  0
   -2.8510    0.2100   -0.1560 N   0  0  0  0  0  0  0  0  0  0  0  0
   -3.0260   -0.4600    1.0160 C   0  0  0  0  0  0  0  0  0  0  0  0
  1  2  1  0
  1 16  2  0
  2  3  2  0
  3  4  1  0
  3 11  1  0
  4  5  1  0
  5  6  2  0
  5 10  1  0
  6  7  1  0
  7  8  2  0
  8  9  1  0
  9 10  2  0
 11 12  2  0
 11 15  1  0
 12 13  1  0
 13 14  2  0
 14 15  1  0
 15 16  1  0
M  END
