
     RDKit          3D

 18 18  0  0  0  0  0  0  0  0999 V2000
    4.2850    2.0520    1.1040 C   0  0  0  0  0  0  0  0  0  0  0  0
    2.8780    1.8270    0.6980 C   0  0  0  0  0  0  0  0  0  0  0  0
    2.5940    0.9730   -0.3130 C   0  0  0  0  0  0  0  0  0  0  0  0
    3.7340    0.3080   -0.9580 C   0  0  0  0  0  0  0  0  0  0  0  0
    1.1960    0.8440   -0.6900 C   0  0  0  0  0  0  0  0  0  0  0  0
    0.5130   -0.4730   -0.5440 C   0  0  1  0  0  0  0  0  0  0  0  0
   -0.9050   -0.3750   -0.9510 C   0  0  0  0  0  0  0  0  0  0  0  0
   -1.1210   -0.7940   -2.1100 O   0  0  0  0  0  0  0  0  0  0  0  0
   -2.0730    0.1300   -0.2170 C   0  0  2  0  0  0  0  0  0  0  0  0
   -2.0040    1.4500    0.4200 C   0  0  0  0  0  0  0  0  0  0  0  0
   -2.5390   -0.9090    0.8260 C   0  0  0  0  0  0  0  0  0  0  0  0
   -3.2330    0.1750   -1.2190 C   0  0  0  0  0  0  0  0  0  0  0  0
   -4.5200    0.6770   -0.7240 C   0  0  0  0  0  0  0  0  0  0  0  0
   -4.4270    1.9970   -0.3020 O   0  0  0  0  0  0  0  0  0  0  0  0
    1.2130   -1.5000   -1.3960 C   0  0  0  0  0  0  0  0  0  0  0  0
    0.5410   -2.7790   -0.8710 C   0  0  0  0  0  0  0  0  0  0  0  0
    0.7560   -2.5960    0.6170 C   0  0  0  0  0  0  0  0  0  0  0  0
    0.7010   -1.0970    0.8140 C   0  0  0  0  0  0  0  0  0  0  0  0
  1  2  1  0
  2  3  2  3
  3  4  1  0
  3  5  1  0
  6  5  1  1
  6  7  1  0
  6 15  1  0
  6 18  1  0
  7  8  2  0
  7  9  1  0
  9 10  1  1
  9 11  1  0
  9 12  1  0
 12 13  1  0
 13 14  1  0
 15 16  1  0
 16 17  1  0
 17 18  1  0
M  END
