
     RDKit          3D

 18 18  0  0  0  0  0  0  0  0999 V2000
   -6.3180   -0.0190    0.0330 C   0  0  0  0  0  0  0  0  0  0  0  0
   -5.0270   -0.7220   -0.2100 C   0  0  0  0  0  0  0  0  0  0  0  0
   -3.8630    0.3050   -0.0670 C   0  0  1  0  0  0  0  0  0  0  0  0
   -4.1600    1.3180   -1.1110 C   0  0  0  0  0  0  0  0  0  0  0  0
   -4.0400    0.8240    1.2250 O   0  0  0  0  0  0  0  0  0  0  0  0
   -2.6450   -0.5020   -0.1620 C   0  0  0  0  0  0  0  0  0  0  0  0
   -1.3040    0.1330   -0.0580 C   0  0  1  0  0  0  0  0  0  0  0  0
   -1.1460    1.1140   -1.1930 C   0  0  0  0  0  0  0  0  0  0  0  0
   -1.0580    0.7990    1.2820 C   0  0  0  0  0  0  0  0  0  0  0  0
   -0.2210   -0.9170   -0.1770 C   0  0  0  0  0  0  0  0  0  0  0  0
    1.1150   -0.2880   -0.0290 C   0  0  0  0  0  0  0  0  0  0  0  0
    2.1560   -1.2560   -0.1350 O   0  0  0  0  0  0  0  0  0  0  0  0
    3.3390   -0.5390    0.0210 C   0  0  1  0  0  0  0  0  0  0  0  0
    4.1350   -1.0400    1.2230 C   0  0  0  0  0  0  0  0  0  0  0  0
    5.1050    0.0690    1.5830 C   0  0  0  0  0  0  0  0  0  0  0  0
    5.8840    0.4340    0.3550 C   0  0  0  0  0  0  0  0  0  0  0  0
    5.6740   -0.5220   -0.7830 C   0  0  0  0  0  0  0  0  0  0  0  0
    4.2450   -0.6740   -1.1810 C   0  0  0  0  0  0  0  0  0  0  0  0
  1  2  1  0
  2  3  1  0
  3  4  1  6
  3  5  1  0
  3  6  1  0
  6  7  1  0
  7  8  1  6
  7  9  1  0
  7 10  1  0
 10 11  1  0
 11 12  1  0
 13 12  1  6
 13 14  1  0
 13 18  1  0
 14 15  1  0
 15 16  1  0
 16 17  1  0
 17 18  1  0
M  END
