
     RDKit          3D

 22 23  0  0  0  0  0  0  0  0999 V2000
   -6.1070    1.8810    1.0130 C   0  0  0  0  0  0  0  0  0  0  0  0
   -5.3410    0.9090    1.8630 C   0  0  0  0  0  0  0  0  0  0  0  0
   -4.1230    0.5080    1.2320 O   0  0  0  0  0  0  0  0  0  0  0  0
   -4.0930   -0.1210    0.0130 C   0  0  0  0  0  0  0  0  0  0  0  0
   -5.1770   -0.3570   -0.5780 O   0  0  0  0  0  0  0  0  0  0  0  0
   -2.8580   -0.5410   -0.6540 C   0  0  2  0  0  0  0  0  0  0  0  0
   -2.7350   -2.0710   -0.7030 C   0  0  0  0  0  0  0  0  0  0  0  0
   -1.4180   -2.3500   -0.3350 O   0  0  0  0  0  0  0  0  0  0  0  0
   -0.7920   -1.0970   -0.5210 C   0  0  2  0  0  0  0  0  0  0  0  0
   -0.7320   -0.7550   -1.9990 C   0  0  0  0  0  0  0  0  0  0  0  0
    0.5470   -1.1320    0.0880 C   0  0  0  0  0  0  0  0  0  0  0  0
    0.9400   -2.2070    0.6590 O   0  0  0  0  0  0  0  0  0  0  0  0
    1.4650   -0.0550    0.0980 N   0  0  0  0  0  0  0  0  0  0  0  0
    2.7260   -0.1710    0.6960 N   0  0  0  0  0  0  0  0  0  0  0  0
    3.9200    0.1230   -0.0190 C   0  0  0  0  0  0  0  0  0  0  0  0
    3.7610    0.4990   -1.2250 O   0  0  0  0  0  0  0  0  0  0  0  0
    5.2810    0.0120    0.5650 C   0  0  1  0  0  0  0  0  0  0  0  0
    6.2690    0.4860   -0.4690 C   0  0  0  0  0  0  0  0  0  0  0  0
    6.1150    1.8690   -0.6070 O   0  0  0  0  0  0  0  0  0  0  0  0
    6.1850    2.3620    1.0610 S   0  0  0  0  0  0  0  0  0  0  0  0
    5.4650    0.8470    1.8070 C   0  0  0  0  0  0  0  0  0  0  0  0
   -1.6930   -0.2420    0.0630 O   0  0  0  0  0  0  0  0  0  0  0  0
  1  2  1  0
  2  3  1  0
  3  4  1  0
  4  5  2  0
  6  4  1  1
  6  7  1  0
  6 22  1  0
  7  8  1  0
  8  9  1  0
  9 10  1  6
  9 11  1  0
  9 22  1  0
 11 12  2  0
 11 13  1  0
 13 14  1  0
 14 15  1  0
 15 16  2  0
 17 15  1  6
 17 18  1  0
 17 21  1  0
 18 19  1  0
 19 20  1  0
 20 21  1  0
M  END
