
     RDKit          3D

 15 15  0  0  0  0  0  0  0  0999 V2000
    4.7800   -1.6870    0.2380 C   0  0  0  0  0  0  0  0  0  0  0  0
    3.3110   -1.5210    0.3560 C   0  0  0  0  0  0  0  0  0  0  0  0
    2.6980   -0.3790    0.1060 C   0  0  0  0  0  0  0  0  0  0  0  0
    1.2620   -0.2470    0.2290 C   0  0  0  0  0  0  0  0  0  0  0  0
    0.5800    0.8560   -0.0050 C   0  0  0  0  0  0  0  0  0  0  0  0
    1.4170    2.0290   -0.4310 C   0  0  0  0  0  0  0  0  0  0  0  0
    0.7170    3.1050   -0.8880 O   0  0  0  0  0  0  0  0  0  0  0  0
   -0.4410    3.2760   -0.1800 C   0  0  0  0  0  0  0  0  0  0  0  0
   -1.4400    2.1470   -0.4970 C   0  0  0  0  0  0  0  0  0  0  0  0
   -0.8220    0.9720    0.1300 N   0  0  0  0  0  0  0  0  0  0  0  0
   -1.5560   -0.0000    0.8500 C   0  0  0  0  0  0  0  0  0  0  0  0
   -2.4920   -0.8470    0.0440 C   0  0  1  0  0  0  0  0  0  0  0  0
   -1.6880   -1.6320   -0.9670 C   0  0  0  0  0  0  0  0  0  0  0  0
   -3.1550   -1.8650    0.9530 C   0  0  0  0  0  0  0  0  0  0  0  0
   -3.4690   -0.1370   -0.6060 O   0  0  0  0  0  0  0  0  0  0  0  0
  1  2  1  0
  2  3  2  3
  3  4  1  0
  4  5  2  3
  5  6  1  0
  5 10  1  0
  6  7  1  0
  7  8  1  0
  8  9  1  0
  9 10  1  0
 10 11  1  0
 11 12  1  0
 12 13  1  6
 12 14  1  0
 12 15  1  0
M  END
