
     RDKit          3D

 22 23  0  0  0  0  0  0  0  0999 V2000
    0.9720    0.0930    1.4140 O   0  0  0  0  0  0  0  0  0  0  0  0
    0.9160   -0.4420    0.3520 C   0  0  0  0  0  0  0  0  0  0  0  0
    2.1210   -1.2320   -0.0950 N   0  0  0  0  0  0  0  0  0  0  0  0
    3.2350   -1.2570    0.7710 C   0  0  0  0  0  0  0  0  0  0  0  0
    3.8250    0.1470    0.9160 C   0  0  1  0  0  0  0  0  0  0  0  0
    4.9250    0.1300    1.7740 O   0  0  0  0  0  0  0  0  0  0  0  0
    6.1110    0.3650    1.0890 C   0  0  0  0  0  0  0  0  0  0  0  0
    6.3600   -0.6740    0.0080 C   0  0  0  0  0  0  0  0  0  0  0  0
    5.2740   -0.4600   -0.9300 O   0  0  0  0  0  0  0  0  0  0  0  0
    4.3270    0.4570   -0.4760 C   0  0  0  0  0  0  0  0  0  0  0  0
    3.9010    1.4250   -1.0770 O   0  0  0  0  0  0  0  0  0  0  0  0
   -0.0390   -0.5590   -0.6810 N   0  0  0  0  0  0  0  0  0  0  0  0
   -1.3400    0.2000    0.1420 C   0  0  0  0  0  0  0  0  0  0  0  0
   -1.0860    0.6230    1.1780 O   0  0  0  0  0  0  0  0  0  0  0  0
   -2.5780    0.1690   -0.6450 C   0  0  1  0  0  0  0  0  0  0  0  0
   -2.8860   -1.3260   -0.8510 C   0  0  0  0  0  0  0  0  0  0  0  0
   -4.6250   -1.5420   -1.2580 S   0  0  0  0  0  0  0  0  0  0  0  0
   -5.5530   -0.3570   -0.2470 C   0  0  0  0  0  0  0  0  0  0  0  0
   -4.7700    0.9530   -0.3830 C   0  0  1  0  0  0  0  0  0  0  0  0
   -5.4760    1.9610    0.4960 C   0  0  0  0  0  0  0  0  0  0  0  0
   -6.7680    2.2440    0.1400 O   0  0  0  0  0  0  0  0  0  0  0  0
   -3.5100    0.8190    0.1090 O   0  0  0  0  0  0  0  0  0  0  0  0
  1  2  2  0
  2  3  1  0
  2 12  1  0
  3  4  1  0
  5  4  1  6
  5  6  1  0
  5 10  1  0
  6  7  1  0
  7  8  1  0
  8  9  1  0
  9 10  1  0
 10 11  2  0
 12 13  1  0
 13 14  2  0
 15 13  1  1
 15 16  1  0
 15 22  1  0
 16 17  1  0
 17 18  1  0
 18 19  1  0
 19 20  1  1
 19 22  1  0
 20 21  1  0
M  END
