
     RDKit          3D

 17 18  0  0  0  0  0  0  0  0999 V2000
   -2.9100    1.9380    0.2810 C   0  0  0  0  0  0  0  0  0  0  0  0
   -2.3550    0.5810    0.1910 C   0  0  0  0  0  0  0  0  0  0  0  0
   -0.9800    0.3610    0.3680 C   0  0  0  0  0  0  0  0  0  0  0  0
   -0.4050   -0.8830    0.2920 C   0  0  0  0  0  0  0  0  0  0  0  0
    0.9810   -1.2270    0.3400 C   0  0  0  0  0  0  0  0  0  0  0  0
    1.1840   -2.4900    0.6470 O   0  0  0  0  0  0  0  0  0  0  0  0
    2.1670   -0.4130    0.1050 C   0  0  0  0  0  0  0  0  0  0  0  0
    2.3760    0.8100   -0.2880 C   0  0  0  0  0  0  0  0  0  0  0  0
    1.4060    1.7040   -0.6100 F   0  0  0  0  0  0  0  0  0  0  0  0
    3.8480    1.1330   -0.3480 C   0  0  0  0  0  0  0  0  0  0  0  0
    4.4610   -0.1210    0.0800 C   0  0  0  0  0  0  0  0  0  0  0  0
    3.5210   -0.9990    0.3370 C   0  0  0  0  0  0  0  0  0  0  0  0
   -1.3080   -1.9440    0.0240 C   0  0  0  0  0  0  0  0  0  0  0  0
   -2.6580   -1.7600   -0.1520 C   0  0  0  0  0  0  0  0  0  0  0  0
   -3.5030   -2.8000   -0.4090 F   0  0  0  0  0  0  0  0  0  0  0  0
   -3.1790   -0.4880   -0.0680 C   0  0  0  0  0  0  0  0  0  0  0  0
   -4.5350   -0.2570   -0.2400 O   0  0  0  0  0  0  0  0  0  0  0  0
  1  2  1  0
  2  3  2  0
  2 16  1  0
  3  4  1  0
  4  5  1  0
  4 13  2  0
  5  6  2  0
  5  7  1  0
  7  8  2  0
  7 12  1  0
  8  9  1  0
  8 10  1  0
 10 11  1  0
 11 12  2  0
 13 14  1  0
 14 15  1  0
 14 16  2  0
 16 17  1  0
M  END
