
     RDKit          3D

 16 17  0  0  0  0  0  0  0  0999 V2000
   -0.7210   -2.6140   -0.1030 C   0  0  0  0  0  0  0  0  0  0  0  0
    0.2100   -1.4710   -0.1020 C   0  0  0  0  0  0  0  0  0  0  0  0
    1.5580   -1.7240   -0.2120 C   0  0  0  0  0  0  0  0  0  0  0  0
    2.4450   -0.6700   -0.2120 C   0  0  0  0  0  0  0  0  0  0  0  0
    3.7480   -0.6230   -0.3010 O   0  0  0  0  0  0  0  0  0  0  0  0
    4.1540    0.6240   -0.2570 C   0  0  0  0  0  0  0  0  0  0  0  0
    3.0500    1.4430   -0.1310 C   0  0  0  0  0  0  0  0  0  0  0  0
    1.9460    0.6190   -0.1010 C   0  0  0  0  0  0  0  0  0  0  0  0
    0.5960    0.8760    0.0090 C   0  0  0  0  0  0  0  0  0  0  0  0
    0.2180    2.1970    0.1130 O   0  0  0  0  0  0  0  0  0  0  0  0
   -0.3010   -0.1600    0.0110 C   0  0  0  0  0  0  0  0  0  0  0  0
   -1.7260    0.0290    0.1220 C   0  0  0  0  0  0  0  0  0  0  0  0
   -2.3770    1.1450    0.2340 C   0  0  0  0  0  0  0  0  0  0  0  0
   -3.8880    1.1340    0.3380 C   0  0  2  0  0  0  0  0  0  0  0  0
   -4.1900    0.7890    1.6270 F   0  0  0  0  0  0  0  0  0  0  0  0
   -4.2920    0.1390   -0.5590 F   0  0  0  0  0  0  0  0  0  0  0  0
  1  2  1  0
  2  3  2  0
  2 11  1  0
  3  4  1  0
  4  5  1  0
  4  8  2  0
  5  6  1  0
  6  7  2  0
  7  8  1  0
  8  9  1  0
  9 10  1  0
  9 11  2  0
 11 12  1  0
 12 13  2  3
 13 14  1  0
 14 15  1  1
 14 16  1  0
M  END
