
     RDKit          3D

 17 18  0  0  0  0  0  0  0  0999 V2000
   -4.7230    0.9100    0.2750 C   0  0  0  0  0  0  0  0  0  0  0  0
   -4.3810   -0.5680    0.3930 C   0  0  0  0  0  0  0  0  0  0  0  0
   -2.8850   -0.6830    0.7150 C   0  0  0  0  0  0  0  0  0  0  0  0
   -2.1930   -0.0840   -0.3360 O   0  0  0  0  0  0  0  0  0  0  0  0
   -0.8390    0.0320   -0.4500 C   0  0  0  0  0  0  0  0  0  0  0  0
    0.0130   -0.4570    0.5120 C   0  0  0  0  0  0  0  0  0  0  0  0
    1.3990   -0.3440    0.4060 C   0  0  0  0  0  0  0  0  0  0  0  0
    1.9090    0.2790   -0.7020 C   0  0  0  0  0  0  0  0  0  0  0  0
    1.0820    0.7900   -1.7020 C   0  0  0  0  0  0  0  0  0  0  0  0
   -0.2790    0.6510   -1.5470 C   0  0  0  0  0  0  0  0  0  0  0  0
   -1.1650    1.1410   -2.5150 O   0  0  0  0  0  0  0  0  0  0  0  0
    3.3830    0.2760   -0.5880 C   0  0  1  0  0  0  0  0  0  0  0  0
    3.9010   -0.4820   -1.6360 F   0  0  0  0  0  0  0  0  0  0  0  0
    3.9030    1.5610   -0.6190 F   0  0  0  0  0  0  0  0  0  0  0  0
    3.6540   -0.4040    0.6840 C   0  0  0  0  0  0  0  0  0  0  0  0
    5.0470   -0.6350    1.2110 C   0  0  0  0  0  0  0  0  0  0  0  0
    2.5150   -0.7530    1.2410 C   0  0  0  0  0  0  0  0  0  0  0  0
  1  2  1  0
  2  3  1  0
  3  4  1  0
  4  5  1  0
  5  6  2  0
  5 10  1  0
  6  7  1  0
  7  8  2  0
  7 17  1  0
  8  9  1  0
  8 12  1  0
  9 10  2  0
 10 11  1  0
 12 13  1  6
 12 14  1  0
 12 15  1  0
 15 16  1  0
 15 17  2  0
M  END
