
     RDKit          3D

 17 18  0  0  0  0  0  0  0  0999 V2000
   -3.5530    0.1900    0.8260 C   0  0  0  0  0  0  0  0  0  0  0  0
   -2.7860    0.4320   -0.4580 C   0  0  0  0  0  0  0  0  0  0  0  0
   -1.3680    0.0550   -0.2670 C   0  0  0  0  0  0  0  0  0  0  0  0
   -1.0590   -1.2900   -0.2600 C   0  0  0  0  0  0  0  0  0  0  0  0
   -2.0010   -2.2940   -0.4210 O   0  0  0  0  0  0  0  0  0  0  0  0
    0.2510   -1.6960   -0.0860 C   0  0  0  0  0  0  0  0  0  0  0  0
    0.6310   -3.1400   -0.0720 C   0  0  0  0  0  0  0  0  0  0  0  0
    1.2230   -0.7150    0.0780 C   0  0  0  0  0  0  0  0  0  0  0  0
    2.5030   -0.8060    0.2570 O   0  0  0  0  0  0  0  0  0  0  0  0
    3.0850    0.3570    0.3710 C   0  0  0  0  0  0  0  0  0  0  0  0
    4.5210    0.6780    0.5830 C   0  0  1  0  0  0  0  0  0  0  0  0
    5.0030    1.4560   -0.4770 F   0  0  0  0  0  0  0  0  0  0  0  0
    4.7450    1.3820    1.7370 F   0  0  0  0  0  0  0  0  0  0  0  0
    2.0900    1.3050    0.2560 C   0  0  0  0  0  0  0  0  0  0  0  0
    0.9010    0.6300    0.0690 C   0  0  0  0  0  0  0  0  0  0  0  0
   -0.4060    1.0340   -0.1050 C   0  0  0  0  0  0  0  0  0  0  0  0
   -0.7270    2.4640   -0.1110 C   0  0  0  0  0  0  0  0  0  0  0  0
  1  2  1  0
  2  3  1  0
  3  4  2  0
  3 16  1  0
  4  5  1  0
  4  6  1  0
  6  7  1  0
  6  8  2  0
  8  9  1  0
  8 15  1  0
  9 10  1  0
 10 11  1  0
 10 14  2  0
 11 12  1  6
 11 13  1  0
 14 15  1  0
 15 16  2  0
 16 17  1  0
M  END
