
     RDKit          3D

 14 13  0  0  0  0  0  0  0  0999 V2000
   -3.7520    1.4810    0.3130 C   0  0  0  0  0  0  0  0  0  0  0  0
   -2.3930    1.2620   -0.0920 O   0  0  0  0  0  0  0  0  0  0  0  0
   -1.8080    0.0130    0.0940 C   0  0  0  0  0  0  0  0  0  0  0  0
   -2.5260   -0.8690    0.6190 O   0  0  0  0  0  0  0  0  0  0  0  0
   -0.4420   -0.3240   -0.2770 C   0  0  2  0  0  0  0  0  0  0  0  0
   -0.2610   -0.1190   -1.7730 C   0  0  0  0  0  0  0  0  0  0  0  0
   -0.2060   -1.7680    0.0090 C   0  0  0  0  0  0  0  0  0  0  0  0
    0.6780   -2.1730    0.8050 O   0  0  0  0  0  0  0  0  0  0  0  0
   -0.9980   -2.6910   -0.6360 O   0  0  0  0  0  0  0  0  0  0  0  0
    0.6000    0.4300    0.4140 C   0  0  0  0  0  0  0  0  0  0  0  0
    0.3650    1.3120    1.2700 O   0  0  0  0  0  0  0  0  0  0  0  0
    1.9970    0.1470    0.0940 C   0  0  0  0  0  0  0  0  0  0  0  0
    2.9990    0.7730    0.6630 C   0  0  0  0  0  0  0  0  0  0  0  0
    4.7200    0.3870    0.2330 P   0  0  0  0  0  0  0  0  0  0  0  0
  1  2  1  0
  2  3  1  0
  3  4  2  0
  3  5  1  0
  5  6  1  6
  5  7  1  0
  5 10  1  0
  7  8  2  0
  7  9  1  0
 10 11  2  0
 10 12  1  0
 12 13  2  3
 13 14  1  0
M  END
