
     RDKit          3D

 16 16  0  0  0  0  0  0  0  0999 V2000
    5.4880    0.7830    0.0940 O   0  0  0  0  0  0  0  0  0  0  0  0
    4.3650    0.5880    0.6100 C   0  0  0  0  0  0  0  0  0  0  0  0
    4.0190   -0.7090    0.9580 O   0  0  0  0  0  0  0  0  0  0  0  0
    3.3870    1.6670    0.8660 C   0  0  0  0  0  0  0  0  0  0  0  0
    2.2740    1.9300   -0.5410 S   0  0  0  0  0  0  0  0  0  0  0  0
    1.2110    0.4510   -0.7630 C   0  0  0  0  0  0  0  0  0  0  0  0
    0.1170    0.3290    0.6960 P   0  0  0  0  0  0  0  0  0  0  0  0
   -1.6420    0.1580    0.2880 C   0  0  0  0  0  0  0  0  0  0  0  0
   -2.0200   -0.9310   -0.3720 C   0  0  0  0  0  0  0  0  0  0  0  0
   -1.0500   -1.9310   -0.7420 C   0  0  0  0  0  0  0  0  0  0  0  0
   -1.5400   -3.2740   -1.5610 P   0  0  0  0  0  0  0  0  0  0  0  0
   -3.3770   -1.0350   -0.6730 O   0  0  0  0  0  0  0  0  0  0  0  0
   -4.2820   -0.0520   -0.3010 C   0  0  0  0  0  0  0  0  0  0  0  0
   -5.3820    0.1570   -0.8730 O   0  0  0  0  0  0  0  0  0  0  0  0
   -3.8990    0.7960    0.8560 C   0  0  0  0  0  0  0  0  0  0  0  0
   -2.5220    1.1440    0.6670 O   0  0  0  0  0  0  0  0  0  0  0  0
  1  2  2  0
  2  3  1  0
  2  4  1  0
  4  5  1  0
  5  6  1  0
  6  7  1  0
  7  8  1  0
  8  9  2  0
  8 16  1  0
  9 10  1  0
  9 12  1  0
 10 11  2  0
 12 13  1  0
 13 14  2  0
 13 15  1  0
 15 16  1  0
M  END
