
     RDKit          3D

 14 13  0  0  0  0  0  0  0  0999 V2000
    5.7440   -0.1070   -0.3170 C   0  0  0  0  0  0  0  0  0  0  0  0
    4.4060   -0.2330    0.3150 C   0  0  0  0  0  0  0  0  0  0  0  0
    3.3190    0.2260   -0.2740 C   0  0  0  0  0  0  0  0  0  0  0  0
    3.4440    0.8370   -1.5090 O   0  0  0  0  0  0  0  0  0  0  0  0
    1.7060    0.0720    0.4930 P   0  0  0  0  0  0  0  0  0  0  0  0
    1.5320    0.8380    1.9940 O   0  0  0  0  0  0  0  0  0  0  0  0
    0.3830    0.1920   -0.5620 O   0  0  0  0  0  0  0  0  0  0  0  0
   -0.7710   -0.4040   -0.1670 C   0  0  1  0  0  0  0  0  0  0  0  0
   -1.9340    0.5330    0.0290 C   0  0  0  0  0  0  0  0  0  0  0  0
   -3.0240   -0.2400    0.4300 O   0  0  0  0  0  0  0  0  0  0  0  0
   -4.1590    0.5390    0.6390 C   0  0  0  0  0  0  0  0  0  0  0  0
   -4.5490    1.2700   -0.6470 C   0  0  0  0  0  0  0  0  0  0  0  0
   -1.1750   -1.4170   -1.0280 O   0  0  0  0  0  0  0  0  0  0  0  0
   -1.2140   -2.6550   -0.3800 C   0  0  0  0  0  0  0  0  0  0  0  0
  1  2  1  0
  2  3  2  3
  3  4  1  0
  3  5  1  0
  5  6  1  0
  5  7  1  0
  7  8  1  0
  8  9  1  6
  8 13  1  0
  9 10  1  0
 10 11  1  0
 11 12  1  0
 13 14  1  0
M  END
