
     RDKit          3D

 15 15  0  0  0  0  0  0  0  0999 V2000
   -2.7470   -0.2480   -0.6910 C   0  0  0  0  0  0  0  0  0  0  0  0
   -1.4220    0.2950   -1.1310 C   0  0  0  0  0  0  0  0  0  0  0  0
   -0.5760    0.5180   -0.0060 O   0  0  0  0  0  0  0  0  0  0  0  0
    0.7060    1.0170   -0.1310 C   0  0  0  0  0  0  0  0  0  0  0  0
    1.7970    0.3510    0.1440 C   0  0  0  0  0  0  0  0  0  0  0  0
    1.8020   -1.0730    0.6440 C   0  0  0  0  0  0  0  0  0  0  0  0
    3.3610   -1.8530    0.9630 P   0  0  0  0  0  0  0  0  0  0  0  0
    2.3310   -3.8640    1.6530 S   0  0  0  0  0  0  0  0  0  0  0  0
    0.8200   -2.8580    2.0500 C   0  0  0  0  0  0  0  0  0  0  0  0
    0.7600   -1.9380    0.8660 C   0  0  0  0  0  0  0  0  0  0  0  0
    0.8160    2.3930   -0.6090 C   0  0  0  0  0  0  0  0  0  0  0  0
    1.9540    2.8890   -0.7390 O   0  0  0  0  0  0  0  0  0  0  0  0
   -0.2990    3.1340   -0.9120 O   0  0  0  0  0  0  0  0  0  0  0  0
   -0.2430    4.7790   -1.4860 P   0  0  0  0  0  0  0  0  0  0  0  0
   -1.3780    5.8010   -1.2860 O   0  0  0  0  0  0  0  0  0  0  0  0
  1  2  1  0
  2  3  1  0
  3  4  1  0
  4  5  2  3
  4 11  1  0
  5  6  1  0
  6  7  2  0
  6 10  1  0
  7  8  1  0
  8  9  1  0
  9 10  1  0
 11 12  2  0
 11 13  1  0
 13 14  1  0
 14 15  2  0
M  END
