
     RDKit          3D

 16 15  0  0  0  0  0  0  0  0999 V2000
    0.6590    2.3230    1.4780 C   0  0  0  0  0  0  0  0  0  0  0  0
    0.6420    1.3750    0.5690 C   0  0  0  0  0  0  0  0  0  0  0  0
   -0.8420    0.4340    0.3660 S   0  0  0  0  0  0  0  0  0  0  0  0
   -2.3650    1.4920    0.9340 P   0  0  0  0  0  0  0  0  0  0  0  0
   -3.9430    0.7710    0.8260 O   0  0  0  0  0  0  0  0  0  0  0  0
   -4.3410   -0.1230    2.2330 P   0  0  0  0  0  0  0  0  0  0  0  0
   -4.1700    0.8910    3.7820 C   0  0  0  0  0  0  0  0  0  0  0  0
   -3.3590   -1.6990    2.3620 C   0  0  0  0  0  0  0  0  0  0  0  0
    1.8220    1.1250   -0.2340 C   0  0  0  0  0  0  0  0  0  0  0  0
    2.8430    1.8280   -0.0380 O   0  0  0  0  0  0  0  0  0  0  0  0
    1.8990    0.1560   -1.2090 O   0  0  0  0  0  0  0  0  0  0  0  0
    3.0520   -0.0810   -1.9860 C   0  0  0  0  0  0  0  0  0  0  0  0
    2.8330   -1.1850   -2.9550 C   0  0  0  0  0  0  0  0  0  0  0  0
    1.7000   -1.7730   -2.9940 O   0  0  0  0  0  0  0  0  0  0  0  0
    3.7900   -1.6220   -3.8270 O   0  0  0  0  0  0  0  0  0  0  0  0
    3.5630   -2.6850   -4.7540 C   0  0  0  0  0  0  0  0  0  0  0  0
  1  2  2  0
  2  3  1  0
  2  9  1  0
  3  4  2  3
  4  5  1  0
  5  6  1  0
  6  7  1  0
  6  8  1  0
  9 10  2  0
  9 11  1  0
 11 12  1  0
 12 13  1  0
 13 14  2  0
 13 15  1  0
 15 16  1  0
M  END
