
     RDKit          3D

 15 14  0  0  0  0  0  0  0  0999 V2000
    1.2520   -0.8760    1.2410 C   0  0  0  0  0  0  0  0  0  0  0  0
    1.4580   -0.5380   -0.0020 C   0  0  0  0  0  0  0  0  0  0  0  0
    2.8500   -0.3800   -0.4760 C   0  0  0  0  0  0  0  0  0  0  0  0
    3.0570   -0.0570   -1.6670 O   0  0  0  0  0  0  0  0  0  0  0  0
    3.9140   -0.5890    0.3880 O   0  0  0  0  0  0  0  0  0  0  0  0
    5.2220   -0.4220   -0.1280 C   0  0  0  0  0  0  0  0  0  0  0  0
    0.0510   -0.2720   -1.1090 P   0  0  0  0  0  0  0  0  0  0  0  0
   -0.6560    1.2780   -0.8500 O   0  0  0  0  0  0  0  0  0  0  0  0
    0.2790    2.2770   -0.6300 C   0  0  0  0  0  0  0  0  0  0  0  0
   -1.1730   -1.4760   -0.8430 O   0  0  0  0  0  0  0  0  0  0  0  0
   -2.2270   -1.0230    0.4590 P   0  0  0  0  0  0  0  0  0  0  0  0
   -2.6590    0.7470    0.3100 C   0  0  0  0  0  0  0  0  0  0  0  0
   -2.4010    1.5580    1.1620 O   0  0  0  0  0  0  0  0  0  0  0  0
   -4.0630   -2.1540    0.3770 S   0  0  0  0  0  0  0  0  0  0  0  0
   -5.3950   -1.1050    1.0560 C   0  0  0  0  0  0  0  0  0  0  0  0
  1  2  2  0
  2  3  1  0
  2  7  1  0
  3  4  2  0
  3  5  1  0
  5  6  1  0
  7  8  1  0
  7 10  1  0
  8  9  1  0
 10 11  1  0
 11 12  1  0
 11 14  1  0
 12 13  2  0
 14 15  1  0
M  END
