
     RDKit          3D

 28 30  0  0  0  0  0  0  0  0999 V2000
    5.9530   -0.6160    1.3590 C   0  0  0  0  0  0  0  0  0  0  0  0
    5.6100   -1.7050    0.3730 C   0  0  0  0  0  0  0  0  0  0  0  0
    4.6020   -1.2060   -0.5280 N   0  0  0  0  0  0  0  0  0  0  0  0
    3.2730   -0.9180   -0.1060 C   0  0  0  0  0  0  0  0  0  0  0  0
    2.3530   -0.4640   -0.9390 C   0  0  0  0  0  0  0  0  0  0  0  0
    1.0080   -0.1860   -0.4580 C   0  0  0  0  0  0  0  0  0  0  0  0
   -0.0160    0.2560   -1.1080 C   0  0  0  0  0  0  0  0  0  0  0  0
   -1.2780    0.4530   -0.3770 C   0  0  0  0  0  0  0  0  0  0  0  0
   -1.7250   -0.4850    0.4100 C   0  0  0  0  0  0  0  0  0  0  0  0
   -1.2000   -1.7670    0.7230 C   0  0  0  0  0  0  0  0  0  0  0  0
   -1.8700   -2.5470    1.5920 C   0  0  0  0  0  0  0  0  0  0  0  0
   -1.4720   -3.7960    1.9740 O   0  0  0  0  0  0  0  0  0  0  0  0
   -2.3770   -4.7340    2.5170 C   0  0  0  0  0  0  0  0  0  0  0  0
   -2.0170    1.7380   -0.6540 C   0  0  2  0  0  0  0  0  0  0  0  0
   -1.3630    2.8530   -0.1840 O   0  0  0  0  0  0  0  0  0  0  0  0
   -2.2720    3.6270    0.5330 C   0  0  0  0  0  0  0  0  0  0  0  0
   -3.2220    2.5560    1.0290 C   0  0  1  0  0  0  0  0  0  0  0  0
   -4.5680    3.1210    1.4000 C   0  0  0  0  0  0  0  0  0  0  0  0
   -4.3180    4.3190    2.6900 Cl  0  0  0  0  0  0  0  0  0  0  0  0
   -3.2770    1.7110   -0.0660 O   0  0  0  0  0  0  0  0  0  0  0  0
   -2.1030    1.8470   -2.1330 C   0  0  0  0  0  0  0  0  0  0  0  0
   -3.2040    2.1490   -2.7020 O   0  0  0  0  0  0  0  0  0  0  0  0
   -0.9320    1.6060   -2.8900 N   0  0  0  0  0  0  0  0  0  0  0  0
    0.0140    0.5870   -2.5680 C   0  0  2  0  0  0  0  0  0  0  0  0
   -0.4860   -0.8920   -3.4560 Cl  0  0  0  0  0  0  0  0  0  0  0  0
    1.7300    0.9860   -3.0700 P   0  0  0  0  0  0  0  0  0  0  0  0
    1.9330    0.7810   -4.7870 O   0  0  0  0  0  0  0  0  0  0  0  0
    2.7330   -0.2690   -2.2820 O   0  0  0  0  0  0  0  0  0  0  0  0
  1  2  1  0
  2  3  1  0
  3  4  1  0
  4  5  2  3
  5  6  1  0
  5 28  1  0
  6  7  2  0
  7  8  1  0
  7 24  1  0
  8  9  2  3
  8 14  1  0
  9 10  1  0
 10 11  2  3
 11 12  1  0
 12 13  1  0
 14 15  1  1
 14 20  1  0
 14 21  1  0
 15 16  1  0
 16 17  1  0
 17 18  1  6
 17 20  1  0
 18 19  1  0
 21 22  2  0
 21 23  1  0
 23 24  1  0
 24 25  1  6
 24 26  1  0
 26 27  1  0
 26 28  1  0
M  END
