
     RDKit          3D

 14 14  0  0  0  0  0  0  0  0999 V2000
   -2.6400   -1.7920    0.8550 N   0  0  0  0  0  0  0  0  0  0  0  0
   -2.7490   -0.8150   -0.0170 O   0  0  0  0  0  0  0  0  0  0  0  0
   -1.6840    0.0380   -0.1200 C   0  0  2  0  0  0  0  0  0  0  0  0
   -0.4050   -0.6740   -0.5260 C   0  0  0  0  0  0  0  0  0  0  0  0
    0.6140    0.2810   -0.6020 O   0  0  0  0  0  0  0  0  0  0  0  0
    1.9080   -0.0590   -0.9510 C   0  0  0  0  0  0  0  0  0  0  0  0
    2.1840   -1.2390   -1.2060 O   0  0  0  0  0  0  0  0  0  0  0  0
    2.9230    0.9100   -1.0240 O   0  0  0  0  0  0  0  0  0  0  0  0
    4.1550    0.5140   -1.3680 O   0  0  0  0  0  0  0  0  0  0  0  0
    4.6300   -0.3030   -0.4400 O   0  0  0  0  0  0  0  0  0  0  0  0
    5.3030    0.3700    0.4690 O   0  0  0  0  0  0  0  0  0  0  0  0
   -1.5140    1.0380    0.9910 C   0  0  0  0  0  0  0  0  0  0  0  0
   -2.5430    1.7490    0.1360 C   0  0  0  0  0  0  0  0  0  0  0  0
   -1.9890    1.1020   -0.9690 O   0  0  0  0  0  0  0  0  0  0  0  0
  1  2  1  0
  2  3  1  0
  3  4  1  6
  3 12  1  0
  3 14  1  0
  4  5  1  0
  5  6  1  0
  6  7  2  0
  6  8  1  0
  8  9  1  0
  9 10  1  0
 10 11  1  0
 12 13  1  0
 13 14  1  0
M  END
