
     RDKit          3D

 28 30  0  0  0  0  0  0  0  0999 V2000
    3.6230    2.7910   -0.1130 C   0  0  0  0  0  0  0  0  0  0  0  0
    2.3700    2.5610   -0.4840 C   0  0  0  0  0  0  0  0  0  0  0  0
    2.0130    1.3200   -1.0630 C   0  0  0  0  0  0  0  0  0  0  0  0
    0.7660    1.1750   -1.3990 C   0  0  0  0  0  0  0  0  0  0  0  0
   -0.4810    1.0910   -1.7440 C   0  0  0  0  0  0  0  0  0  0  0  0
   -0.7770    1.5510   -2.9900 O   0  0  0  0  0  0  0  0  0  0  0  0
   -1.3160    0.5410   -0.7790 N   0  0  0  0  0  0  0  0  0  0  0  0
   -1.7750   -0.7930   -1.0420 C   0  0  0  0  0  0  0  0  0  0  0  0
   -2.0050   -1.3970   -2.6790 Cl  0  0  0  0  0  0  0  0  0  0  0  0
   -2.0560   -1.6590   -0.1050 C   0  0  0  0  0  0  0  0  0  0  0  0
   -2.5010   -2.9720    0.1990 C   0  0  0  0  0  0  0  0  0  0  0  0
   -3.0060   -3.1830    1.3720 C   0  0  0  0  0  0  0  0  0  0  0  0
   -2.9580   -4.3680    0.4820 C   0  0  0  0  0  0  0  0  0  0  0  0
   -3.0990   -2.0860    2.3200 C   0  0  0  0  0  0  0  0  0  0  0  0
   -1.7680   -0.9480    1.6130 P   0  0  0  0  0  0  0  0  0  0  0  0
   -2.3440    0.6640    1.3750 O   0  0  0  0  0  0  0  0  0  0  0  0
   -1.6610    1.3150    0.3630 C   0  0  1  0  0  0  0  0  0  0  0  0
   -0.4660    1.8730    1.0190 N   0  0  0  0  0  0  0  0  0  0  0  0
   -0.8520    2.6440    2.1760 C   0  0  0  0  0  0  0  0  0  0  0  0
   -2.4660    2.4440   -0.0660 N   0  0  0  0  0  0  0  0  0  0  0  0
   -3.6840    2.0650   -0.7140 C   0  0  0  0  0  0  0  0  0  0  0  0
   -1.7270    3.3190   -0.7840 O   0  0  0  0  0  0  0  0  0  0  0  0
    2.7770    0.2300   -1.3330 O   0  0  0  0  0  0  0  0  0  0  0  0
    3.1790   -0.6940   -0.3370 C   0  0  0  0  0  0  0  0  0  0  0  0
    3.9620   -1.7180   -0.9250 O   0  0  0  0  0  0  0  0  0  0  0  0
    4.4910   -2.7590   -0.1800 C   0  0  0  0  0  0  0  0  0  0  0  0
    5.3170   -3.8540   -0.7570 C   0  0  0  0  0  0  0  0  0  0  0  0
    4.2680   -2.7980    1.0640 O   0  0  0  0  0  0  0  0  0  0  0  0
  1  2  2  0
  2  3  1  0
  3  4  2  0
  3 23  1  0
  4  5  2  0
  5  6  1  0
  5  7  1  0
  7  8  1  0
  7 17  1  0
  8  9  1  0
  8 10  2  0
 10 11  1  0
 10 15  1  0
 11 12  2  0
 11 13  1  0
 12 13  1  0
 12 14  1  0
 14 15  1  0
 15 16  1  0
 16 17  1  0
 17 18  1  1
 17 20  1  0
 18 19  1  0
 20 21  1  0
 20 22  1  0
 23 24  1  0
 24 25  1  0
 25 26  1  0
 26 27  1  0
 26 28  2  0
M  END
