
     RDKit          3D

 28 29  0  0  0  0  0  0  0  0999 V2000
   -1.1870   -3.1710    0.2750 C   0  0  0  0  0  0  0  0  0  0  0  0
   -2.0840   -2.2090   -0.7470 P   0  0  0  0  0  0  0  0  0  0  0  0
   -2.5780   -0.5490   -0.1790 C   0  0  0  0  0  0  0  0  0  0  0  0
   -1.8880    0.5310   -0.4720 C   0  0  0  0  0  0  0  0  0  0  0  0
   -2.2960    1.8360   -0.0130 C   0  0  0  0  0  0  0  0  0  0  0  0
   -1.6130    2.9240   -0.3010 C   0  0  0  0  0  0  0  0  0  0  0  0
   -1.9900    4.2750    0.1460 C   0  0  0  0  0  0  0  0  0  0  0  0
   -0.7250    0.3920   -1.2550 O   0  0  0  0  0  0  0  0  0  0  0  0
    0.8230    0.6740   -0.4790 P   0  0  0  0  0  0  0  0  0  0  0  0
    1.0180   -0.5790    0.7350 O   0  0  0  0  0  0  0  0  0  0  0  0
    2.1670   -0.2630    1.4430 C   0  0  0  0  0  0  0  0  0  0  0  0
    3.3520   -0.9030    0.8980 N   0  0  0  0  0  0  0  0  0  0  0  0
    3.8080   -0.9410   -0.4410 C   0  0  0  0  0  0  0  0  0  0  0  0
    4.7650   -1.8590   -0.5050 C   0  0  0  0  0  0  0  0  0  0  0  0
    4.9700   -2.4360    0.7300 O   0  0  0  0  0  0  0  0  0  0  0  0
    4.3070   -1.6470    1.6970 C   0  0  2  0  0  0  0  0  0  0  0  0
    3.6800   -2.4510    2.6490 O   0  0  0  0  0  0  0  0  0  0  0  0
    5.4970   -0.3580    2.5180 Br  0  0  0  0  0  0  0  0  0  0  0  0
    3.3950   -0.1980   -1.5570 O   0  0  0  0  0  0  0  0  0  0  0  0
    2.1330    0.3490   -1.7430 C   0  0  0  0  0  0  0  0  0  0  0  0
    1.8460    0.6730   -2.9890 C   0  0  0  0  0  0  0  0  0  0  0  0
    0.3000    1.3710   -3.3930 Cl  0  0  0  0  0  0  0  0  0  0  0  0
    2.8340    0.4410   -4.0250 C   0  0  0  0  0  0  0  0  0  0  0  0
    3.9460   -0.0560   -3.7650 O   0  0  0  0  0  0  0  0  0  0  0  0
    2.4880    0.8590   -5.6910 Cl  0  0  0  0  0  0  0  0  0  0  0  0
   -3.7520   -0.4280    0.6080 N   0  0  0  0  0  0  0  0  0  0  0  0
   -4.9970   -0.1390   -0.0770 C   0  0  0  0  0  0  0  0  0  0  0  0
   -3.6410   -0.5980    2.0340 C   0  0  0  0  0  0  0  0  0  0  0  0
  1  2  2  0
  2  3  1  0
  3  4  2  3
  3 26  1  0
  4  5  1  0
  4  8  1  0
  5  6  2  3
  6  7  1  0
  8  9  1  0
  9 10  1  0
  9 20  1  0
 10 11  1  0
 11 12  1  0
 12 13  1  0
 12 16  1  0
 13 14  2  0
 13 19  1  0
 14 15  1  0
 15 16  1  0
 16 17  1  1
 16 18  1  0
 19 20  1  0
 20 21  2  3
 21 22  1  0
 21 23  1  0
 23 24  2  0
 23 25  1  0
 26 27  1  0
 26 28  1  0
M  END
