
     RDKit          3D

 20 21  0  0  0  0  0  0  0  0999 V2000
   -4.3610   -1.0370   -1.5350 N   0  0  0  0  0  0  0  0  0  0  0  0
   -3.3670   -0.0120   -1.2760 C   0  0  2  0  0  0  0  0  0  0  0  0
   -2.0200   -0.5100   -1.6860 C   0  0  0  0  0  0  0  0  0  0  0  0
   -1.8960   -1.1000   -2.8090 O   0  0  0  0  0  0  0  0  0  0  0  0
   -0.8610   -0.3550   -0.8750 N   0  0  0  0  0  0  0  0  0  0  0  0
    0.3290   -1.0290   -1.2620 C   0  0  0  0  0  0  0  0  0  0  0  0
    0.3740   -1.7480   -2.2930 O   0  0  0  0  0  0  0  0  0  0  0  0
    1.5200   -0.9030   -0.4780 N   0  0  0  0  0  0  0  0  0  0  0  0
    2.7540   -1.5890   -0.8610 C   0  0  0  0  0  0  0  0  0  0  0  0
    3.8000   -1.2330    0.1870 C   0  0  0  0  0  0  0  0  0  0  0  0
    3.9340    0.1550    0.1490 O   0  0  0  0  0  0  0  0  0  0  0  0
    5.0890    0.7460    1.2810 P   0  0  0  0  0  0  0  0  0  0  0  0
    5.3590    2.4260    0.9550 O   0  0  0  0  0  0  0  0  0  0  0  0
    6.5790   -0.1450    1.2010 O   0  0  0  0  0  0  0  0  0  0  0  0
   -0.8560    0.4610    0.3250 C   0  0  0  0  0  0  0  0  0  0  0  0
   -2.1390    1.2090    0.4290 C   0  0  2  0  0  0  0  0  0  0  0  0
   -2.4560    1.6570    1.6890 O   0  0  0  0  0  0  0  0  0  0  0  0
   -3.8220    1.9040    1.6110 C   0  0  0  0  0  0  0  0  0  0  0  0
   -4.3500    1.0070    0.6850 O   0  0  0  0  0  0  0  0  0  0  0  0
   -3.3200    0.2570    0.1850 C   0  0  1  0  0  0  0  0  0  0  0  0
  2  1  1  1
  2  3  1  0
  2 20  1  0
  3  4  2  0
  3  5  1  0
  5  6  1  0
  5 15  1  0
  6  7  2  0
  6  8  1  0
  8  9  1  0
  9 10  1  0
 10 11  1  0
 11 12  1  0
 12 13  1  0
 12 14  1  0
 16 15  1  1
 16 17  1  0
 16 20  1  0
 17 18  1  0
 18 19  1  0
 20 19  1  6
M  END
