
     RDKit          3D

 21 22  0  0  0  0  0  0  0  0999 V2000
    1.1000   -3.9460   -0.0220 O   0  0  0  0  0  0  0  0  0  0  0  0
    0.7150   -2.7700    0.1560 C   0  0  0  0  0  0  0  0  0  0  0  0
    1.7360   -1.7530    0.0820 N   0  0  0  0  0  0  0  0  0  0  0  0
    1.6260   -0.3520    0.2950 C   0  0  0  0  0  0  0  0  0  0  0  0
    2.8830    0.3930    0.4820 C   0  0  0  0  0  0  0  0  0  0  0  0
    2.8150    1.6330    0.6720 O   0  0  0  0  0  0  0  0  0  0  0  0
    4.1110   -0.2080    0.4560 O   0  0  0  0  0  0  0  0  0  0  0  0
    5.5960    0.7250    0.6850 P   0  0  0  0  0  0  0  0  0  0  0  0
    5.4780    2.2620   -0.0950 O   0  0  0  0  0  0  0  0  0  0  0  0
    6.9570   -0.1150   -0.0050 O   0  0  0  0  0  0  0  0  0  0  0  0
    0.5340    0.3320    0.3420 N   0  0  0  0  0  0  0  0  0  0  0  0
   -0.8330   -0.1010    0.1980 C   0  0  0  0  0  0  0  0  0  0  0  0
   -1.3170   -1.3380    0.2280 C   0  0  0  0  0  0  0  0  0  0  0  0
   -2.7950   -1.5740    0.0550 C   0  0  0  0  0  0  0  0  0  0  0  0
   -3.4970   -0.4810    0.7440 C   0  0  0  0  0  0  0  0  0  0  0  0
   -4.4220   -0.7160    1.5120 O   0  0  0  0  0  0  0  0  0  0  0  0
   -3.0750    0.9120    0.5020 C   0  0  2  0  0  0  0  0  0  0  0  0
   -4.0550    1.5070   -0.5060 C   0  0  0  0  0  0  0  0  0  0  0  0
   -3.6980    2.8240   -0.7000 O   0  0  0  0  0  0  0  0  0  0  0  0
   -1.7220    0.9870    0.0010 N   0  0  0  0  0  0  0  0  0  0  0  0
   -0.6400   -2.5360    0.4060 O   0  0  0  0  0  0  0  0  0  0  0  0
  1  2  2  0
  2  3  1  0
  2 21  1  0
  3  4  1  0
  4  5  1  0
  4 11  2  0
  5  6  2  0
  5  7  1  0
  7  8  1  0
  8  9  1  0
  8 10  1  0
 11 12  1  0
 12 13  2  0
 12 20  1  0
 13 14  1  0
 13 21  1  0
 14 15  1  0
 15 16  2  0
 15 17  1  0
 17 18  1  6
 17 20  1  0
 18 19  1  0
M  END
