
     RDKit          3D

 27 28  0  0  0  0  0  0  0  0999 V2000
   -4.0920    4.1190   -1.0680 O   0  0  0  0  0  0  0  0  0  0  0  0
   -3.1750    3.7010   -0.3220 C   0  0  0  0  0  0  0  0  0  0  0  0
   -1.9260    4.2850   -0.4360 O   0  0  0  0  0  0  0  0  0  0  0  0
   -3.4890    2.6130    0.6300 C   0  0  0  0  0  0  0  0  0  0  0  0
   -2.3700    2.2420    1.4050 O   0  0  0  0  0  0  0  0  0  0  0  0
   -1.1960    1.7640    0.8850 C   0  0  0  0  0  0  0  0  0  0  0  0
   -1.0170    0.4700    0.6860 C   0  0  0  0  0  0  0  0  0  0  0  0
   -1.9440   -0.6240    0.9520 C   0  0  0  0  0  0  0  0  0  0  0  0
   -3.1210   -0.5140    1.4380 N   0  0  0  0  0  0  0  0  0  0  0  0
   -3.9500   -1.6350    1.6630 C   0  0  0  0  0  0  0  0  0  0  0  0
   -4.0060   -2.4580    2.7740 C   0  0  0  0  0  0  0  0  0  0  0  0
   -4.9540   -3.3820    2.5050 N   0  0  0  0  0  0  0  0  0  0  0  0
   -5.4340   -3.1120    1.2860 C   0  0  0  0  0  0  0  0  0  0  0  0
   -4.8290   -2.0630    0.7840 O   0  0  0  0  0  0  0  0  0  0  0  0
   -1.2470   -1.8020    0.5560 N   0  0  0  0  0  0  0  0  0  0  0  0
    0.0080   -1.4290    0.0870 N   0  0  0  0  0  0  0  0  0  0  0  0
    0.1940   -0.1680    0.1350 C   0  0  0  0  0  0  0  0  0  0  0  0
    1.3550    0.4960   -0.2680 O   0  0  0  0  0  0  0  0  0  0  0  0
    2.4390   -0.2120   -0.7770 C   0  0  0  0  0  0  0  0  0  0  0  0
    2.4000   -1.4600   -0.8850 O   0  0  0  0  0  0  0  0  0  0  0  0
    3.6380    0.4490   -1.1950 N   0  0  0  0  0  0  0  0  0  0  0  0
    4.7640   -0.2290   -1.7180 C   0  0  0  0  0  0  0  0  0  0  0  0
    4.7090   -1.4790   -1.8210 O   0  0  0  0  0  0  0  0  0  0  0  0
    5.9020    0.4390   -2.1100 O   0  0  0  0  0  0  0  0  0  0  0  0
    7.2480   -0.4880   -2.7460 P   0  0  0  0  0  0  0  0  0  0  0  0
    8.7360    0.1500   -2.0990 O   0  0  0  0  0  0  0  0  0  0  0  0
    7.0600   -2.1460   -2.3490 O   0  0  0  0  0  0  0  0  0  0  0  0
  1  2  2  0
  2  3  1  0
  2  4  1  0
  4  5  1  0
  5  6  1  0
  6  7  2  3
  7  8  1  0
  7 17  1  0
  8  9  2  3
  8 15  1  0
  9 10  1  0
 10 11  2  0
 10 14  1  0
 11 12  1  0
 12 13  2  0
 13 14  1  0
 15 16  1  0
 16 17  2  0
 17 18  1  0
 18 19  1  0
 19 20  2  0
 19 21  1  0
 21 22  1  0
 22 23  2  0
 22 24  1  0
 24 25  1  0
 25 26  1  0
 25 27  1  0
M  END
