
     RDKit          3D

 27 27  0  0  0  0  0  0  0  0999 V2000
   -0.8020   -3.2620    2.1440 C   0  0  0  0  0  0  0  0  0  0  0  0
   -1.1340   -2.3130    1.1440 N   0  0  0  0  0  0  0  0  0  0  0  0
   -0.1000   -1.5020    0.4620 C   0  0  0  0  0  0  0  0  0  0  0  0
   -0.5220   -0.0600    0.3290 C   0  0  1  0  0  0  0  0  0  0  0  0
    0.6400    0.6840   -0.0510 O   0  0  0  0  0  0  0  0  0  0  0  0
    1.7550    0.1600    0.4220 O   0  0  0  0  0  0  0  0  0  0  0  0
    2.4410   -0.3520   -0.6670 C   0  0  0  0  0  0  0  0  0  0  0  0
    3.7530   -0.9540   -0.2360 C   0  0  0  0  0  0  0  0  0  0  0  0
    4.2800    0.1930    0.3870 O   0  0  0  0  0  0  0  0  0  0  0  0
    5.7990    0.6690   -0.0660 P   0  0  0  0  0  0  0  0  0  0  0  0
    7.2090   -0.1130    0.1930 O   0  0  0  0  0  0  0  0  0  0  0  0
    5.9050    2.4890   -0.0280 O   0  0  0  0  0  0  0  0  0  0  0  0
   -1.5960    0.4200   -0.4150 C   0  0  0  0  0  0  0  0  0  0  0  0
   -1.8840    1.5230   -0.5700 N   0  0  0  0  0  0  0  0  0  0  0  0
   -1.9240    2.8110   -0.5440 C   0  0  0  0  0  0  0  0  0  0  0  0
   -3.3320    3.2000   -0.8450 O   0  0  0  0  0  0  0  0  0  0  0  0
   -1.1130    3.8410   -0.3070 N   0  0  0  0  0  0  0  0  0  0  0  0
   -1.7240    5.0890   -0.4160 C   0  0  0  0  0  0  0  0  0  0  0  0
   -0.7890    6.0200   -0.5700 O   0  0  0  0  0  0  0  0  0  0  0  0
   -2.8990    5.6810   -0.4450 O   0  0  0  0  0  0  0  0  0  0  0  0
   -2.8260   -0.3440   -1.1080 N   0  0  0  0  0  0  0  0  0  0  0  0
   -2.9780   -1.5580   -0.5560 C   0  0  0  0  0  0  0  0  0  0  0  0
   -4.1950   -2.0860   -1.2290 N   0  0  0  0  0  0  0  0  0  0  0  0
   -3.8490   -2.7730   -2.5160 C   0  0  0  0  0  0  0  0  0  0  0  0
   -2.6680   -2.7380   -2.8730 O   0  0  0  0  0  0  0  0  0  0  0  0
   -2.3770   -2.1510    0.6700 C   0  0  0  0  0  0  0  0  0  0  0  0
   -3.4150   -2.6420    1.4720 O   0  0  0  0  0  0  0  0  0  0  0  0
  1  2  1  0
  2  3  1  0
  2 26  1  0
  3  4  1  0
  4  5  1  6
  4 13  1  0
  5  6  1  0
  6  7  1  0
  7  8  1  0
  8  9  1  0
  9 10  1  0
 10 11  1  0
 10 12  1  0
 13 14  2  3
 13 21  1  0
 14 15  1  0
 15 16  1  0
 15 17  2  3
 17 18  1  0
 18 19  2  0
 18 20  1  0
 21 22  2  0
 22 23  1  0
 22 26  1  0
 23 24  1  0
 24 25  2  0
 26 27  2  0
M  END
