
     RDKit          3D

 20 21  0  0  0  0  0  0  0  0999 V2000
   -0.4570   -0.5180   -1.5690 C   0  0  0  0  0  0  0  0  0  0  0  0
   -0.5960   -0.4450   -0.0600 C   0  0  2  0  0  0  0  0  0  0  0  0
    0.6450   -0.7800    0.5810 O   0  0  0  0  0  0  0  0  0  0  0  0
    1.7950   -0.0620    0.3650 C   0  0  0  0  0  0  0  0  0  0  0  0
    1.7140    0.9050   -0.4200 O   0  0  0  0  0  0  0  0  0  0  0  0
    3.0430   -0.3510    0.9720 N   0  0  0  0  0  0  0  0  0  0  0  0
    4.2200    0.4080    0.7330 C   0  0  0  0  0  0  0  0  0  0  0  0
    4.1260    1.3830   -0.0630 O   0  0  0  0  0  0  0  0  0  0  0  0
    5.4430    0.1150    1.3350 O   0  0  0  0  0  0  0  0  0  0  0  0
    6.8110    1.1460    0.9390 P   0  0  0  0  0  0  0  0  0  0  0  0
    7.1730    2.1520    2.3300 O   0  0  0  0  0  0  0  0  0  0  0  0
    6.4440    2.1940   -0.4010 O   0  0  0  0  0  0  0  0  0  0  0  0
   -1.5760   -1.4830    0.3620 C   0  0  0  0  0  0  0  0  0  0  0  0
   -2.9300   -1.1070    0.3630 N   0  0  0  0  0  0  0  0  0  0  0  0
   -3.7510   -1.6590   -0.6680 C   0  0  0  0  0  0  0  0  0  0  0  0
   -4.6550   -0.6510   -1.1330 N   0  0  0  0  0  0  0  0  0  0  0  0
   -4.5930    0.4240   -0.1300 C   0  0  0  0  0  0  0  0  0  0  0  0
   -3.2460    0.2610    0.5340 C   0  0  2  0  0  0  0  0  0  0  0  0
   -2.2170    1.2060    0.0090 C   0  0  0  0  0  0  0  0  0  0  0  0
   -0.9220    0.8370    0.2650 O   0  0  0  0  0  0  0  0  0  0  0  0
  2  1  1  6
  2  3  1  0
  2 13  1  0
  2 20  1  0
  3  4  1  0
  4  5  2  0
  4  6  1  0
  6  7  1  0
  7  8  2  0
  7  9  1  0
  9 10  1  0
 10 11  1  0
 10 12  1  0
 13 14  1  0
 14 15  1  0
 14 18  1  0
 15 16  1  0
 16 17  1  0
 18 17  1  6
 18 19  1  0
 19 20  1  0
M  END
