
     RDKit          3D

 18 18  0  0  0  0  0  0  0  0999 V2000
   -4.1660   -1.3370    1.6050 C   0  0  0  0  0  0  0  0  0  0  0  0
   -3.4450   -0.5540    0.5200 C   0  0  0  0  0  0  0  0  0  0  0  0
   -2.3250    0.0210    1.1040 O   0  0  0  0  0  0  0  0  0  0  0  0
   -1.3930    0.9520   -0.0060 P   0  0  0  0  0  0  0  0  0  0  0  0
   -0.5020   -0.0970   -1.2360 C   0  0  0  0  0  0  0  0  0  0  0  0
   -0.0590   -1.4170   -0.6800 C   0  0  1  0  0  0  0  0  0  0  0  0
    0.6210   -2.1360   -1.7380 N   0  0  0  0  0  0  0  0  0  0  0  0
    0.9400   -1.2580    0.7690 S   0  0  1  0  0  0  0  0  0  0  0  0
    0.1100   -0.6570    1.8590 O   0  0  0  0  0  0  0  0  0  0  0  0
    1.3210   -2.6440    1.2150 O   0  0  0  0  0  0  0  0  0  0  0  0
    2.4020   -0.3730    0.4760 C   0  0  0  0  0  0  0  0  0  0  0  0
    2.5150    0.9390    0.6010 C   0  0  0  0  0  0  0  0  0  0  0  0
    3.7550    1.6940    0.3530 C   0  0  0  0  0  0  0  0  0  0  0  0
    4.8190    0.8780   -0.0340 O   0  0  0  0  0  0  0  0  0  0  0  0
    4.7540   -0.4940   -0.1800 C   0  0  0  0  0  0  0  0  0  0  0  0
    3.6070   -1.0930    0.0610 C   0  0  0  0  0  0  0  0  0  0  0  0
   -2.3570    2.0970   -0.8740 O   0  0  0  0  0  0  0  0  0  0  0  0
   -1.9730    3.4070   -0.6060 C   0  0  0  0  0  0  0  0  0  0  0  0
  1  2  1  0
  2  3  1  0
  3  4  1  0
  4  5  1  0
  4 17  1  0
  5  6  1  0
  6  7  1  6
  6  8  1  0
  8  9  2  0
  8 10  2  0
  8 11  1  6
 11 12  2  0
 11 16  1  0
 12 13  1  0
 13 14  1  0
 14 15  1  0
 15 16  2  0
 17 18  1  0
M  END
