
     RDKit          3D

 17 17  0  0  0  0  0  0  0  0999 V2000
   -3.9170    0.9860   -0.1020 C   0  0  0  0  0  0  0  0  0  0  0  0
   -2.8410    1.2150    0.9330 C   0  0  0  0  0  0  0  0  0  0  0  0
   -1.6310    0.7030    0.4050 O   0  0  0  0  0  0  0  0  0  0  0  0
   -1.5370   -0.6190    0.0730 C   0  0  0  0  0  0  0  0  0  0  0  0
   -2.5740   -1.3460    0.2600 O   0  0  0  0  0  0  0  0  0  0  0  0
   -0.3780   -1.3230   -0.4820 C   0  0  2  0  0  0  0  0  0  0  0  0
    0.7510   -0.5930   -0.6880 O   0  0  0  0  0  0  0  0  0  0  0  0
    1.3320   -0.1240    0.4590 C   0  0  0  0  0  0  0  0  0  0  0  0
    2.5790    0.6790    0.2230 C   0  0  0  0  0  0  0  0  0  0  0  0
    3.5700   -0.0520   -0.4230 O   0  0  0  0  0  0  0  0  0  0  0  0
    4.6520    0.6200   -0.6360 O   0  0  0  0  0  0  0  0  0  0  0  0
    4.6850    1.8080   -0.1240 O   0  0  0  0  0  0  0  0  0  0  0  0
    5.9250    2.1930    0.1720 O   0  0  0  0  0  0  0  0  0  0  0  0
   -0.8680   -2.0140   -1.7530 C   0  0  0  0  0  0  0  0  0  0  0  0
   -1.2960   -3.2380   -1.2420 O   0  0  0  0  0  0  0  0  0  0  0  0
   -1.3000   -3.1220    0.0700 O   0  0  0  0  0  0  0  0  0  0  0  0
   -0.1630   -2.4690    0.3180 O   0  0  0  0  0  0  0  0  0  0  0  0
  1  2  1  0
  2  3  1  0
  3  4  1  0
  4  5  2  0
  4  6  1  0
  6  7  1  6
  6 14  1  0
  6 17  1  0
  7  8  1  0
  8  9  1  0
  9 10  1  0
 10 11  1  0
 11 12  1  0
 12 13  1  0
 14 15  1  0
 15 16  1  0
 16 17  1  0
M  END
