
     RDKit          3D

 16 15  0  0  0  0  0  0  0  0999 V2000
    2.7130   -2.3590   -1.0280 O   0  0  0  0  0  0  0  0  0  0  0  0
    3.2560   -1.9130    0.0050 C   0  0  0  0  0  0  0  0  0  0  0  0
    4.5700   -2.3530    0.2470 O   0  0  0  0  0  0  0  0  0  0  0  0
    2.5850   -1.0270    0.8650 N   0  0  0  0  0  0  0  0  0  0  0  0
    1.3490   -0.5460    0.7380 O   0  0  0  0  0  0  0  0  0  0  0  0
    0.8150   -0.4590   -0.5060 C   0  0  0  0  0  0  0  0  0  0  0  0
   -0.5960    0.1510   -0.4720 C   0  0  1  0  0  0  0  0  0  0  0  0
   -1.5960   -0.7810    0.1260 C   0  0  0  0  0  0  0  0  0  0  0  0
   -1.5350   -1.9870   -0.5390 O   0  0  0  0  0  0  0  0  0  0  0  0
   -2.6470   -3.1540    0.0620 P   0  0  0  0  0  0  0  0  0  0  0  0
   -2.9210   -3.0040    1.7630 O   0  0  0  0  0  0  0  0  0  0  0  0
   -4.1430   -3.1700   -0.8020 O   0  0  0  0  0  0  0  0  0  0  0  0
   -0.5220    1.4280    0.0850 N   0  0  0  0  0  0  0  0  0  0  0  0
    0.2150    2.4410   -0.5430 C   0  0  0  0  0  0  0  0  0  0  0  0
    0.1210    3.7370    0.2480 C   0  0  0  0  0  0  0  0  0  0  0  0
    0.8710    4.7090   -0.4190 O   0  0  0  0  0  0  0  0  0  0  0  0
  1  2  2  0
  2  3  1  0
  2  4  1  0
  4  5  1  0
  5  6  1  0
  7  6  1  1
  7  8  1  0
  7 13  1  0
  8  9  1  0
  9 10  1  0
 10 11  1  0
 10 12  1  0
 13 14  1  0
 14 15  1  0
 15 16  1  0
M  END
