
     RDKit          3D

 21 21  0  0  0  0  0  0  0  0999 V2000
   -1.1610    3.3310   -1.0380 C   0  0  0  0  0  0  0  0  0  0  0  0
   -0.9730    2.1570   -0.1690 C   0  0  0  0  0  0  0  0  0  0  0  0
   -0.6380    2.2200    1.0280 O   0  0  0  0  0  0  0  0  0  0  0  0
   -1.1850    0.8670   -0.7160 N   0  0  0  0  0  0  0  0  0  0  0  0
   -1.0410   -0.3500    0.0030 C   0  0  2  0  0  0  0  0  0  0  0  0
   -0.1480   -1.3700   -0.6020 C   0  0  0  0  0  0  0  0  0  0  0  0
    1.1760   -0.9760   -0.7880 O   0  0  0  0  0  0  0  0  0  0  0  0
    2.0240   -0.5800    0.2370 C   0  0  0  0  0  0  0  0  0  0  0  0
    1.5180   -0.5950    1.3880 O   0  0  0  0  0  0  0  0  0  0  0  0
    3.3710   -0.1860    0.0020 N   0  0  0  0  0  0  0  0  0  0  0  0
    4.2740    0.2270    1.0160 C   0  0  0  0  0  0  0  0  0  0  0  0
    4.0700    0.5870    2.2020 O   0  0  0  0  0  0  0  0  0  0  0  0
    5.6290    0.1600    0.3990 C   0  0  0  0  0  0  0  0  0  0  0  0
    5.3800    0.3260   -0.9650 O   0  0  0  0  0  0  0  0  0  0  0  0
    4.0940   -0.1110   -1.2090 C   0  0  0  0  0  0  0  0  0  0  0  0
    3.6470   -0.3940   -2.3440 O   0  0  0  0  0  0  0  0  0  0  0  0
   -2.4200   -0.9850    0.1170 C   0  0  0  0  0  0  0  0  0  0  0  0
   -3.3050   -0.1460    0.7910 O   0  0  0  0  0  0  0  0  0  0  0  0
   -4.8430   -0.9050    0.8940 P   0  0  0  0  0  0  0  0  0  0  0  0
   -5.3010   -1.0410    2.5470 O   0  0  0  0  0  0  0  0  0  0  0  0
   -4.8770   -2.4530    0.1610 O   0  0  0  0  0  0  0  0  0  0  0  0
  1  2  1  0
  2  3  2  0
  2  4  1  0
  4  5  1  0
  5  6  1  6
  5 17  1  0
  6  7  1  0
  7  8  1  0
  8  9  2  0
  8 10  1  0
 10 11  1  0
 10 15  1  0
 11 12  2  0
 11 13  1  0
 13 14  1  0
 14 15  1  0
 15 16  2  0
 17 18  1  0
 18 19  1  0
 19 20  1  0
 19 21  1  0
M  END
