
     RDKit          3D

 16 15  0  0  0  0  0  0  0  0999 V2000
   -5.3260    0.9350   -0.9860 O   0  0  0  0  0  0  0  0  0  0  0  0
   -4.8740    1.3340    0.1120 C   0  0  0  0  0  0  0  0  0  0  0  0
   -5.4930    2.4350    0.7180 O   0  0  0  0  0  0  0  0  0  0  0  0
   -3.7790    0.7270    0.7550 N   0  0  0  0  0  0  0  0  0  0  0  0
   -3.1360   -0.4100    0.1340 C   0  0  2  0  0  0  0  0  0  0  0  0
   -3.1320   -1.5230    0.9810 O   0  0  0  0  0  0  0  0  0  0  0  0
   -1.6890   -0.0250   -0.2140 C   0  0  0  0  0  0  0  0  0  0  0  0
   -1.1210   -1.1120   -0.7920 O   0  0  0  0  0  0  0  0  0  0  0  0
    0.1700   -1.0370   -1.2080 C   0  0  0  0  0  0  0  0  0  0  0  0
    1.1870   -0.7760   -0.1850 C   0  0  0  0  0  0  0  0  0  0  0  0
    0.8620   -0.6590    1.0190 O   0  0  0  0  0  0  0  0  0  0  0  0
    2.5620   -0.6500   -0.5230 N   0  0  0  0  0  0  0  0  0  0  0  0
    3.5240   -0.3890    0.5530 C   0  0  0  0  0  0  0  0  0  0  0  0
    5.2400   -0.2580   -0.0790 P   0  0  0  0  0  0  0  0  0  0  0  0
    6.3460   -0.5590    1.2040 O   0  0  0  0  0  0  0  0  0  0  0  0
    5.5530    1.2080   -0.9080 O   0  0  0  0  0  0  0  0  0  0  0  0
  1  2  2  0
  2  3  1  0
  2  4  1  0
  4  5  1  0
  5  6  1  1
  5  7  1  0
  7  8  1  0
  8  9  1  0
  9 10  1  0
 10 11  2  0
 10 12  1  0
 12 13  1  0
 13 14  1  0
 14 15  1  0
 14 16  1  0
M  END
