
     RDKit          3D

 16 15  0  0  0  0  0  0  0  0999 V2000
   -2.6880    2.0930   -1.6760 O   0  0  0  0  0  0  0  0  0  0  0  0
   -2.8660    2.0360   -0.4510 C   0  0  0  0  0  0  0  0  0  0  0  0
   -3.2720    3.2430    0.2160 O   0  0  0  0  0  0  0  0  0  0  0  0
   -2.6590    0.8390    0.2680 N   0  0  0  0  0  0  0  0  0  0  0  0
   -2.2340   -0.3650   -0.3590 C   0  0  2  0  0  0  0  0  0  0  0  0
   -3.4890   -1.2650   -0.3320 C   0  0  0  0  0  0  0  0  0  0  0  0
   -3.3260   -2.5110   -0.7950 O   0  0  0  0  0  0  0  0  0  0  0  0
   -1.0560   -0.9860    0.2250 C   0  0  0  0  0  0  0  0  0  0  0  0
   -1.0960   -2.0500    0.9300 O   0  0  0  0  0  0  0  0  0  0  0  0
    0.1910   -0.4010    0.0480 N   0  0  0  0  0  0  0  0  0  0  0  0
    1.4020   -1.0490    0.6030 C   0  0  0  0  0  0  0  0  0  0  0  0
    2.6040   -0.1490    0.5080 C   0  0  0  0  0  0  0  0  0  0  0  0
    3.7470   -0.7630    0.9840 O   0  0  0  0  0  0  0  0  0  0  0  0
    5.1010    0.2840    0.8660 P   0  0  0  0  0  0  0  0  0  0  0  0
    4.6020    1.9210    0.6190 O   0  0  0  0  0  0  0  0  0  0  0  0
    6.1530   -0.1470   -0.4390 O   0  0  0  0  0  0  0  0  0  0  0  0
  1  2  2  0
  2  3  1  0
  2  4  1  0
  4  5  1  0
  5  6  1  1
  5  8  1  0
  6  7  1  0
  8  9  2  0
  8 10  1  0
 10 11  1  0
 11 12  1  0
 12 13  1  0
 13 14  1  0
 14 15  1  0
 14 16  1  0
M  END
