
     RDKit          3D

 15 14  0  0  0  0  0  0  0  0999 V2000
   -3.3300    0.8050   -0.3050 N   0  0  0  0  0  0  0  0  0  0  0  0
   -1.9490    0.4920    0.1930 C   0  0  2  0  0  0  0  0  0  0  0  0
   -2.0310    0.8770    1.6810 C   0  0  0  0  0  0  0  0  0  0  0  0
   -0.8200    0.6520    2.3210 O   0  0  0  0  0  0  0  0  0  0  0  0
   -1.0160    1.3910   -0.5220 C   0  0  0  0  0  0  0  0  0  0  0  0
    0.3810    1.3060   -0.2770 N   0  0  0  0  0  0  0  0  0  0  0  0
    1.2440    0.2290   -0.6140 C   0  0  0  0  0  0  0  0  0  0  0  0
    0.7960   -0.7690   -1.2080 O   0  0  0  0  0  0  0  0  0  0  0  0
    2.6750    0.3610   -0.2240 C   0  0  0  0  0  0  0  0  0  0  0  0
    3.6660   -1.1110   -0.7270 P   0  0  0  0  0  0  0  0  0  0  0  0
    5.2940   -0.8710   -0.1510 O   0  0  0  0  0  0  0  0  0  0  0  0
    2.9910   -2.5910   -0.1550 O   0  0  0  0  0  0  0  0  0  0  0  0
   -1.8090   -0.9440    0.0350 C   0  0  0  0  0  0  0  0  0  0  0  0
   -1.0670   -1.6590    0.7880 O   0  0  0  0  0  0  0  0  0  0  0  0
   -2.4900   -1.6490   -0.9680 O   0  0  0  0  0  0  0  0  0  0  0  0
  2  1  1  6
  2  3  1  0
  2  5  1  0
  2 13  1  0
  3  4  1  0
  5  6  1  0
  6  7  1  0
  7  8  2  0
  7  9  1  0
  9 10  1  0
 10 11  1  0
 10 12  1  0
 13 14  2  0
 13 15  1  0
M  END
