
     RDKit          3D

 12 12  0  0  0  0  0  0  0  0999 V2000
    1.1780   -1.6140   -1.1350 N   0  0  0  0  0  0  0  0  0  0  0  0
    1.1170   -0.1630   -0.8060 C   0  0  1  0  0  0  0  0  0  0  0  0
   -0.3160    0.0300   -0.3370 C   0  0  2  0  0  0  0  0  0  0  0  0
   -0.6350    1.4500    0.0550 C   0  0  0  0  0  0  0  0  0  0  0  0
   -2.1100    1.6250    0.1610 C   0  0  0  0  0  0  0  0  0  0  0  0
   -2.8140    0.3280    0.0170 C   0  0  0  0  0  0  0  0  0  0  0  0
   -2.2630   -0.8090    0.8230 C   0  0  0  0  0  0  0  0  0  0  0  0
   -0.7410   -0.8280    0.8110 C   0  0  0  0  0  0  0  0  0  0  0  0
    2.3390    0.2680    0.2080 P   0  0  0  0  0  0  0  0  0  0  0  0
    3.5230   -0.2610   -0.8560 O   0  0  0  0  0  0  0  0  0  0  0  0
    1.8960    1.8590    0.1610 O   0  0  0  0  0  0  0  0  0  0  0  0
    1.8190   -0.6890    1.4070 O   0  0  0  0  0  0  0  0  0  0  0  0
  2  1  1  1
  2  3  1  0
  2  9  1  0
  3  4  1  1
  3  8  1  0
  4  5  1  0
  5  6  1  0
  6  7  1  0
  7  8  1  0
  9 10  1  0
  9 11  1  0
  9 12  1  0
M  CHG  1   1   1
M  END
