
     RDKit          3D

 25 25  0  0  0  0  0  0  0  0999 V2000
   -2.2500   -4.5510    0.0170 C   0  0  0  0  0  0  0  0  0  0  0  0
   -1.3280   -3.2450    0.0540 C   0  0  0  0  0  0  0  0  0  0  0  0
   -2.2270   -2.1090   -0.0980 C   0  0  0  0  0  0  0  0  0  0  0  0
   -2.0280   -0.7240   -0.1860 C   0  0  0  0  0  0  0  0  0  0  0  0
   -3.2910   -0.0150   -0.3560 O   0  0  0  0  0  0  0  0  0  0  0  0
   -4.3840   -0.4720    0.3770 C   0  0  0  0  0  0  0  0  0  0  0  0
   -1.0150    0.1530   -0.1500 C   0  0  0  0  0  0  0  0  0  0  0  0
    0.3410   -0.2990    0.0400 C   0  0  0  0  0  0  0  0  0  0  0  0
    0.5100   -1.5040    0.4820 O   0  0  0  0  0  0  0  0  0  0  0  0
    1.5930    0.3530   -0.1990 C   0  0  0  0  0  0  0  0  0  0  0  0
    1.8300    1.3460   -0.9190 O   0  0  0  0  0  0  0  0  0  0  0  0
    2.7770   -0.1500    0.4440 O   0  0  0  0  0  0  0  0  0  0  0  0
    4.2960    0.6690    0.1380 P   0  0  0  0  0  0  0  0  0  0  0  0
    5.5480   -0.6010   -0.2790 C   0  0  0  0  0  0  0  0  0  0  0  0
    5.3880   -2.0800    0.2770 S   0  0  0  0  0  0  0  0  0  0  0  0
    6.7190   -3.1520   -0.2510 C   0  0  0  0  0  0  0  0  0  0  0  0
    4.1730    1.8460   -1.1250 O   0  0  0  0  0  0  0  0  0  0  0  0
    4.5660    3.0330   -0.7120 O   0  0  0  0  0  0  0  0  0  0  0  0
   -1.3140    1.5650   -0.3810 C   0  0  0  0  0  0  0  0  0  0  0  0
   -0.4280    2.5260   -0.1680 C   0  0  0  0  0  0  0  0  0  0  0  0
   -0.8510    3.9440   -0.4620 C   0  0  0  0  0  0  0  0  0  0  0  0
   -2.1950    4.2640    0.1730 C   0  0  0  0  0  0  0  0  0  0  0  0
   -3.1560    3.0930    0.0120 C   0  0  2  0  0  0  0  0  0  0  0  0
   -3.3660    2.4910    1.2270 F   0  0  0  0  0  0  0  0  0  0  0  0
   -2.5600    2.0810   -0.9590 C   0  0  0  0  0  0  0  0  0  0  0  0
  1  2  1  0
  2  3  1  0
  3  4  1  0
  4  5  1  0
  4  7  2  3
  5  6  1  0
  7  8  1  0
  7 19  1  0
  8  9  2  0
  8 10  1  0
 10 11  2  0
 10 12  1  0
 12 13  1  0
 13 14  1  0
 13 17  1  0
 14 15  2  3
 15 16  1  0
 17 18  1  0
 19 20  2  0
 19 25  1  0
 20 21  1  0
 21 22  1  0
 22 23  1  0
 23 24  1  1
 23 25  1  0
M  END
