
     RDKit          3D

 24 23  0  0  0  0  0  0  0  0999 V2000
   -3.3890    3.8350    0.2280 C   0  0  0  0  0  0  0  0  0  0  0  0
   -2.9840    4.0840    1.6310 C   0  0  0  0  0  0  0  0  0  0  0  0
   -2.4760    3.1030    2.3490 C   0  0  0  0  0  0  0  0  0  0  0  0
   -2.2870    1.4910    1.6100 S   0  0  0  0  0  0  0  0  0  0  0  0
   -0.5610    1.2860    1.2010 C   0  0  0  0  0  0  0  0  0  0  0  0
   -0.1580    0.8340    0.0270 C   0  0  0  0  0  0  0  0  0  0  0  0
   -1.0820    0.4920   -0.9580 O   0  0  0  0  0  0  0  0  0  0  0  0
   -1.3380   -1.2060   -1.3250 P   0  0  0  0  0  0  0  0  0  0  0  0
   -0.8260   -2.2680    0.0890 C   0  0  0  0  0  0  0  0  0  0  0  0
   -0.8550   -1.5210    1.2650 O   0  0  0  0  0  0  0  0  0  0  0  0
   -2.9480   -1.4940   -1.8480 O   0  0  0  0  0  0  0  0  0  0  0  0
   -3.1820   -2.8660   -1.9060 C   0  0  0  0  0  0  0  0  0  0  0  0
   -4.6320   -3.0230   -2.3780 C   0  0  0  0  0  0  0  0  0  0  0  0
    1.2500    0.6950   -0.2310 C   0  0  0  0  0  0  0  0  0  0  0  0
    1.6600    0.2460   -1.3950 C   0  0  0  0  0  0  0  0  0  0  0  0
    3.0760    0.0920   -1.6920 C   0  0  0  0  0  0  0  0  0  0  0  0
    3.4710   -0.3550   -2.8540 C   0  0  0  0  0  0  0  0  0  0  0  0
    2.5090   -0.7200   -3.9030 C   0  0  0  0  0  0  0  0  0  0  0  0
    4.8470   -0.4860   -3.0930 O   0  0  0  0  0  0  0  0  0  0  0  0
    2.1630    1.0320    0.7420 O   0  0  0  0  0  0  0  0  0  0  0  0
    3.0920   -0.0950    1.6780 P   0  0  0  0  0  0  0  0  0  0  0  0
    2.0670   -0.9910    2.9350 C   0  0  0  0  0  0  0  0  0  0  0  0
    4.2950    0.8210    2.5680 O   0  0  0  0  0  0  0  0  0  0  0  0
    3.7580    1.3020    3.7680 C   0  0  0  0  0  0  0  0  0  0  0  0
  1  2  1  0
  2  3  2  3
  3  4  1  0
  4  5  1  0
  5  6  2  3
  6  7  1  0
  6 14  1  0
  7  8  1  0
  8  9  1  0
  8 11  1  0
  9 10  1  0
 11 12  1  0
 12 13  1  0
 14 15  2  3
 14 20  1  0
 15 16  1  0
 16 17  2  3
 17 18  1  0
 17 19  1  0
 20 21  1  0
 21 22  1  0
 21 23  1  0
 23 24  1  0
M  END
