
     RDKit          3D

 22 23  0  0  0  0  0  0  0  0999 V2000
   -3.4250    0.9720   -1.9090 C   0  0  0  0  0  0  0  0  0  0  0  0
   -3.2740    1.1640   -0.4960 N   0  0  0  0  0  0  0  0  0  0  0  0
   -4.1040    2.0980    0.1430 C   0  0  0  0  0  0  0  0  0  0  0  0
   -4.9760    2.7780   -0.4660 O   0  0  0  0  0  0  0  0  0  0  0  0
   -3.9420    2.2720    1.5220 O   0  0  0  0  0  0  0  0  0  0  0  0
   -2.3160    0.4340    0.2450 C   0  0  0  0  0  0  0  0  0  0  0  0
   -2.2020    0.6260    1.5100 O   0  0  0  0  0  0  0  0  0  0  0  0
   -1.4720   -0.4990   -0.3310 O   0  0  0  0  0  0  0  0  0  0  0  0
   -0.5390   -1.1850    0.4950 C   0  0  1  0  0  0  0  0  0  0  0  0
   -0.7550   -2.5350    0.5490 O   0  0  0  0  0  0  0  0  0  0  0  0
    0.1470   -3.5140    0.3350 C   0  0  0  0  0  0  0  0  0  0  0  0
   -0.1570   -4.7510    0.4100 O   0  0  0  0  0  0  0  0  0  0  0  0
    1.4840   -3.1760    0.0130 N   0  0  0  0  0  0  0  0  0  0  0  0
    1.7940   -1.7620   -0.0630 C   0  0  0  0  0  0  0  0  0  0  0  0
    3.0830   -1.3650   -0.3730 C   0  0  0  0  0  0  0  0  0  0  0  0
    3.4130   -0.0340   -0.4550 C   0  0  0  0  0  0  0  0  0  0  0  0
    4.7030    0.3680   -0.7650 O   0  0  0  0  0  0  0  0  0  0  0  0
    5.0550    1.6390   -0.8510 O   0  0  0  0  0  0  0  0  0  0  0  0
    4.9000    2.2400    0.2910 O   0  0  0  0  0  0  0  0  0  0  0  0
    2.4340    0.9050   -0.2210 C   0  0  0  0  0  0  0  0  0  0  0  0
    1.1960    0.5120    0.0760 N   0  0  0  0  0  0  0  0  0  0  0  0
    0.8470   -0.8150    0.1620 C   0  0  0  0  0  0  0  0  0  0  0  0
  1  2  1  0
  2  3  1  0
  2  6  1  0
  3  4  2  0
  3  5  1  0
  6  7  2  0
  6  8  1  0
  9  8  1  6
  9 10  1  0
  9 22  1  0
 10 11  1  0
 11 12  2  0
 11 13  1  0
 13 14  1  0
 14 15  2  0
 14 22  1  0
 15 16  1  0
 16 17  1  0
 16 20  2  0
 17 18  1  0
 18 19  1  0
 20 21  1  0
 21 22  2  0
M  END
