
     RDKit          3D

 22 23  0  0  0  0  0  0  0  0999 V2000
    4.1980    0.8940    1.4720 O   0  0  0  0  0  0  0  0  0  0  0  0
    4.3110    0.2990    0.3490 C   0  0  0  0  0  0  0  0  0  0  0  0
    3.1610   -0.2740   -0.2750 N   0  0  0  0  0  0  0  0  0  0  0  0
    1.9020   -0.1520    0.4040 C   0  0  0  0  0  0  0  0  0  0  0  0
    0.8220   -0.8170   -0.4120 C   0  0  0  0  0  0  0  0  0  0  0  0
    1.0510   -1.3640   -1.5170 O   0  0  0  0  0  0  0  0  0  0  0  0
   -0.4790   -0.8410    0.0470 O   0  0  0  0  0  0  0  0  0  0  0  0
   -1.5500   -1.4390   -0.6520 C   0  0  1  0  0  0  0  0  0  0  0  0
   -2.2260   -2.5130    0.1670 C   0  0  0  0  0  0  0  0  0  0  0  0
   -3.2370   -2.0940    0.9760 O   0  0  0  0  0  0  0  0  0  0  0  0
   -4.0350   -1.1820    0.5300 O   0  0  0  0  0  0  0  0  0  0  0  0
   -3.2810   -0.0290    0.3310 C   0  0  2  0  0  0  0  0  0  0  0  0
   -4.0290    1.2180    0.2990 C   0  0  0  0  0  0  0  0  0  0  0  0
   -3.9100    2.2510   -0.5490 N   0  0  0  0  0  0  0  0  0  0  0  0
   -4.7970    3.2080   -0.2230 C   0  0  0  0  0  0  0  0  0  0  0  0
   -5.4740    2.7180    0.8700 C   0  0  0  0  0  0  0  0  0  0  0  0
   -4.9820    1.5390    1.1380 O   0  0  0  0  0  0  0  0  0  0  0  0
   -2.5090   -0.3000   -0.9680 C   0  0  0  0  0  0  0  0  0  0  0  0
    5.6070    0.2410   -0.2260 N   0  0  0  0  0  0  0  0  0  0  0  0
    6.6580    0.8170    0.4420 O   0  0  0  0  0  0  0  0  0  0  0  0
    7.2720   -0.1650    1.0790 O   0  0  0  0  0  0  0  0  0  0  0  0
    8.4980   -0.3030    0.6480 O   0  0  0  0  0  0  0  0  0  0  0  0
  1  2  2  0
  2  3  1  0
  2 19  1  0
  3  4  1  0
  4  5  1  0
  5  6  2  0
  5  7  1  0
  8  7  1  1
  8  9  1  0
  8 18  1  0
  9 10  1  0
 10 11  1  0
 11 12  1  0
 12 13  1  6
 12 18  1  0
 13 14  2  0
 13 17  1  0
 14 15  1  0
 15 16  2  0
 16 17  1  0
 19 20  1  0
 20 21  1  0
 21 22  1  0
M  END
