
     RDKit          3D

 22 22  0  0  0  0  0  0  0  0999 V2000
   -2.9500   -2.2420   -0.9890 C   0  0  0  0  0  0  0  0  0  0  0  0
   -2.2300   -1.2450   -0.1770 N   0  0  0  0  0  0  0  0  0  0  0  0
   -0.8420   -1.2380   -0.3130 C   0  0  0  0  0  0  0  0  0  0  0  0
   -0.2680   -2.0680   -1.1100 O   0  0  0  0  0  0  0  0  0  0  0  0
    0.0340   -0.3710    0.3680 N   0  0  0  0  0  0  0  0  0  0  0  0
    1.4560   -0.4220    0.1760 C   0  0  0  0  0  0  0  0  0  0  0  0
    1.9320   -1.2560   -0.6140 O   0  0  0  0  0  0  0  0  0  0  0  0
    2.3350    0.5050    0.9100 C   0  0  0  0  0  0  0  0  0  0  0  0
    3.6610    0.4340    0.6140 O   0  0  0  0  0  0  0  0  0  0  0  0
    3.9220    0.7800   -0.6920 C   0  0  0  0  0  0  0  0  0  0  0  0
    5.4300    0.6780   -0.9680 C   0  0  0  0  0  0  0  0  0  0  0  0
    6.0420    1.5560   -0.0940 O   0  0  0  0  0  0  0  0  0  0  0  0
    7.3340    1.5960   -0.1930 O   0  0  0  0  0  0  0  0  0  0  0  0
    7.8480    0.9450    0.8110 O   0  0  0  0  0  0  0  0  0  0  0  0
   -2.9360   -0.3760    0.6690 C   0  0  0  0  0  0  0  0  0  0  0  0
   -2.4540    0.5060    1.4100 O   0  0  0  0  0  0  0  0  0  0  0  0
   -4.4340   -0.4940    0.7110 C   0  0  2  0  0  0  0  0  0  0  0  0
   -5.0770   -0.0100   -0.5660 C   0  0  0  0  0  0  0  0  0  0  0  0
   -5.0320    1.4100   -0.3940 O   0  0  0  0  0  0  0  0  0  0  0  0
   -4.9660    1.7130    0.9630 C   0  0  0  0  0  0  0  0  0  0  0  0
   -4.9120    2.8630    1.5110 O   0  0  0  0  0  0  0  0  0  0  0  0
   -4.9710    0.4690    1.6650 N   0  0  0  0  0  0  0  0  0  0  0  0
  1  2  1  0
  2  3  1  0
  2 15  1  0
  3  4  2  0
  3  5  1  0
  5  6  1  0
  6  7  2  0
  6  8  1  0
  8  9  1  0
  9 10  1  0
 10 11  1  0
 11 12  1  0
 12 13  1  0
 13 14  1  0
 15 16  2  0
 17 15  1  6
 17 18  1  0
 17 22  1  0
 18 19  1  0
 19 20  1  0
 20 21  2  0
 20 22  1  0
M  END
