
     RDKit          3D

  5  5  0  0  0  0  0  0  0  0999 V2000
   -0.8000    0.0570   -0.0200 C   0  0  0  0  0  0  0  0  0  0  0  0
    0.0920   -0.9520   -0.4700 O   0  0  0  0  0  0  0  0  0  0  0  0
    1.1520   -0.8390    0.2800 O   0  0  0  0  0  0  0  0  0  0  0  0
    1.8010    0.2690   -0.1030 O   0  0  0  0  0  0  0  0  0  0  0  0
    0.4720    1.3920    0.0680 S   0  0  0  0  0  0  0  0  0  0  0  0
  1  2  1  0
  1  5  1  0
  2  3  1  0
  3  4  1  0
  4  5  1  0
M  END
