
     RDKit          3D

 39 41  0  0  0  0  0  0  0  0999 V2000
    9.7710   -2.9590    1.3230 C   0  0  0  0  0  0  0  0  0  0  0  0
    9.5790   -1.7440    0.4020 C   0  0  0  0  0  0  0  0  0  0  0  0
   10.1970   -0.5820    0.6310 C   0  0  0  0  0  0  0  0  0  0  0  0
    9.9540    0.4600   -0.2700 C   0  0  0  0  0  0  0  0  0  0  0  0
    8.8420   -0.2650   -1.4200 S   0  0  0  0  0  0  0  0  0  0  0  0
    8.7570   -1.8720   -0.6690 C   0  0  0  0  0  0  0  0  0  0  0  0
    7.9600   -3.0220   -1.1480 C   0  0  0  0  0  0  0  0  0  0  0  0
    6.7230   -3.2430   -0.3390 C   0  0  0  0  0  0  0  0  0  0  0  0
    5.8580   -2.0580   -0.3890 N   0  0  0  0  0  0  0  0  0  0  0  0
    4.6310   -2.0110    0.2890 C   0  0  0  0  0  0  0  0  0  0  0  0
    4.2650   -3.0310    0.9660 O   0  0  0  0  0  0  0  0  0  0  0  0
    3.7330   -0.8610    0.2750 C   0  0  0  0  0  0  0  0  0  0  0  0
    4.0580    0.2640   -0.4150 C   0  0  0  0  0  0  0  0  0  0  0  0
    3.2160    1.3330   -0.4200 C   0  0  0  0  0  0  0  0  0  0  0  0
    1.9950    1.3160    0.2780 C   0  0  0  0  0  0  0  0  0  0  0  0
    1.1950    2.4600    0.2190 N   0  0  0  0  0  0  0  0  0  0  0  0
   -0.0470    2.6340    0.8750 C   0  0  0  0  0  0  0  0  0  0  0  0
   -0.5490    1.7410    1.5860 O   0  0  0  0  0  0  0  0  0  0  0  0
   -0.7710    3.8620    0.7390 N   0  0  0  0  0  0  0  0  0  0  0  0
   -2.0290    4.1590    1.3420 C   0  0  0  0  0  0  0  0  0  0  0  0
   -3.1090    3.2000    0.8550 C   0  0  0  0  0  0  0  0  0  0  0  0
   -3.2860    3.2890   -0.6030 C   0  0  0  0  0  0  0  0  0  0  0  0
   -2.4000    4.0170   -1.2370 O   0  0  0  0  0  0  0  0  0  0  0  0
   -4.2540    2.7170   -1.4220 N   0  0  0  0  0  0  0  0  0  0  0  0
   -4.1230    3.0040   -2.8820 C   0  0  0  0  0  0  0  0  0  0  0  0
   -5.3430    1.9100   -1.0400 C   0  0  2  0  0  0  0  0  0  0  0  0
   -6.4520    2.6700   -0.3450 C   0  0  0  0  0  0  0  0  0  0  0  0
   -6.9640    3.6690   -1.1770 O   0  0  0  0  0  0  0  0  0  0  0  0
   -5.0770    0.5800   -0.4610 C   0  0  0  0  0  0  0  0  0  0  0  0
   -5.0490   -0.5300   -1.2380 C   0  0  0  0  0  0  0  0  0  0  0  0
   -4.7730   -1.8060   -0.5370 C   0  0  2  0  0  0  0  0  0  0  0  0
   -4.8170   -2.9870   -1.4790 C   0  0  0  0  0  0  0  0  0  0  0  0
   -3.8430   -2.7710   -2.4540 O   0  0  0  0  0  0  0  0  0  0  0  0
   -5.8690   -1.9090    0.5240 C   0  0  1  0  0  0  0  0  0  0  0  0
   -5.9960   -3.2760    1.1040 C   0  0  0  0  0  0  0  0  0  0  0  0
   -5.6000   -0.8310    1.5420 C   0  0  0  0  0  0  0  0  0  0  0  0
   -4.8120    0.3130    0.9730 C   0  0  0  0  0  0  0  0  0  0  0  0
    1.6520    0.1900    0.9780 C   0  0  0  0  0  0  0  0  0  0  0  0
    2.5250   -0.8840    0.9680 C   0  0  0  0  0  0  0  0  0  0  0  0
  1  2  1  0
  2  3  1  0
  2  6  2  0
  3  4  2  0
  4  5  1  0
  5  6  1  0
  6  7  1  0
  7  8  1  0
  8  9  1  0
  9 10  1  0
 10 11  2  0
 10 12  1  0
 12 13  2  0
 12 39  1  0
 13 14  1  0
 14 15  2  0
 15 16  1  0
 15 38  1  0
 16 17  1  0
 17 18  2  0
 17 19  1  0
 19 20  1  0
 20 21  1  0
 21 22  1  0
 22 23  2  0
 22 24  1  0
 24 25  1  0
 24 26  1  0
 26 27  1  1
 26 29  1  0
 27 28  1  0
 29 30  2  0
 29 37  1  0
 30 31  1  0
 31 32  1  6
 31 34  1  0
 32 33  1  0
 34 35  1  1
 34 36  1  0
 36 37  1  0
 38 39  2  0
M  END
