
     RDKit          3D

 40 42  0  0  0  0  0  0  0  0999 V2000
    7.7860   -2.2100   -1.5050 C   0  0  0  0  0  0  0  0  0  0  0  0
    7.8710   -0.7800   -1.5730 N   0  0  0  0  0  0  0  0  0  0  0  0
    6.7290    0.0070   -1.2330 C   0  0  0  0  0  0  0  0  0  0  0  0
    5.7020   -0.5870   -0.8900 O   0  0  0  0  0  0  0  0  0  0  0  0
    6.7470    1.4800   -1.2830 C   0  0  2  0  0  0  0  0  0  0  0  0
    6.8510    1.9010   -2.7340 C   0  0  0  0  0  0  0  0  0  0  0  0
    8.0690    1.9840   -0.6520 C   0  0  0  0  0  0  0  0  0  0  0  0
    8.0370    3.4880   -0.7280 C   0  0  0  0  0  0  0  0  0  0  0  0
    9.2060    4.0470   -0.1940 O   0  0  0  0  0  0  0  0  0  0  0  0
    5.5950    2.1130   -0.5930 C   0  0  0  0  0  0  0  0  0  0  0  0
    5.4560    1.8850    0.7960 N   0  0  0  0  0  0  0  0  0  0  0  0
    4.9280    0.7810    1.4950 C   0  0  0  0  0  0  0  0  0  0  0  0
    5.7000    0.1890    2.5010 C   0  0  0  0  0  0  0  0  0  0  0  0
    5.1760   -0.8430    3.2170 C   0  0  0  0  0  0  0  0  0  0  0  0
    3.8730   -1.3100    2.9510 C   0  0  0  0  0  0  0  0  0  0  0  0
    3.1250   -0.7500    1.9920 C   0  0  0  0  0  0  0  0  0  0  0  0
    1.7630   -1.1860    1.7160 C   0  0  0  0  0  0  0  0  0  0  0  0
    0.7740   -0.5160    0.4090 S   0  0  0  0  0  0  0  0  0  0  0  0
   -0.6390   -1.3870    0.6390 C   0  0  0  0  0  0  0  0  0  0  0  0
   -1.9380   -1.3680   -0.0540 C   0  0  0  0  0  0  0  0  0  0  0  0
   -2.0790   -0.5590   -1.0010 O   0  0  0  0  0  0  0  0  0  0  0  0
   -3.0090   -2.2040    0.2930 N   0  0  0  0  0  0  0  0  0  0  0  0
   -4.3010   -2.2070   -0.3580 C   0  0  2  0  0  0  0  0  0  0  0  0
   -5.1420   -3.2740    0.3070 C   0  0  0  0  0  0  0  0  0  0  0  0
   -4.2280   -2.5530   -1.8270 C   0  0  0  0  0  0  0  0  0  0  0  0
   -4.9490   -0.8720   -0.2780 C   0  0  0  0  0  0  0  0  0  0  0  0
   -4.3130    0.0560    0.2700 O   0  0  0  0  0  0  0  0  0  0  0  0
   -6.2310   -0.5540   -0.7700 N   0  0  0  0  0  0  0  0  0  0  0  0
   -6.8470    0.7280   -0.6880 C   0  0  1  0  0  0  0  0  0  0  0  0
   -7.2320    1.3920   -1.9580 C   0  0  0  0  0  0  0  0  0  0  0  0
   -7.6030    2.8180   -1.6270 C   0  0  0  0  0  0  0  0  0  0  0  0
   -8.4830    2.9310   -0.5700 O   0  0  0  0  0  0  0  0  0  0  0  0
   -8.0250    2.3540    0.6130 C   0  0  0  0  0  0  0  0  0  0  0  0
   -7.9640    0.8580    0.3050 C   0  0  1  0  0  0  0  0  0  0  0  0
   -9.3180    0.5050   -0.2230 C   0  0  0  0  0  0  0  0  0  0  0  0
   -7.6170    0.1010    1.5770 C   0  0  0  0  0  0  0  0  0  0  0  0
   -0.3340   -2.2060    1.7450 C   0  0  0  0  0  0  0  0  0  0  0  0
    0.8870   -2.0920    2.2790 C   0  0  0  0  0  0  0  0  0  0  0  0
    1.3020   -2.9290    3.4920 C   0  0  0  0  0  0  0  0  0  0  0  0
    3.6670    0.3030    1.2630 C   0  0  0  0  0  0  0  0  0  0  0  0
  1  2  1  0
  2  3  1  0
  3  4  2  0
  3  5  1  0
  5  6  1  6
  5  7  1  0
  5 10  1  0
  7  8  1  0
  8  9  1  0
 10 11  1  0
 11 12  1  0
 12 13  2  0
 12 40  1  0
 13 14  1  0
 14 15  2  0
 15 16  1  0
 16 17  1  0
 16 40  2  0
 17 18  1  0
 17 38  2  0
 18 19  1  0
 19 20  1  0
 19 37  2  0
 20 21  2  0
 20 22  1  0
 22 23  1  0
 23 24  1  1
 23 25  1  0
 23 26  1  0
 26 27  2  0
 26 28  1  0
 29 28  1  6
 29 30  1  0
 29 34  1  0
 30 31  1  0
 31 32  1  0
 32 33  1  0
 33 34  1  0
 34 35  1  6
 34 36  1  0
 37 38  1  0
 38 39  1  0
M  END
