
     RDKit          3D

 40 42  0  0  0  0  0  0  0  0999 V2000
   -0.7010    8.1410   -0.3120 C   0  0  0  0  0  0  0  0  0  0  0  0
   -0.7700    6.8370   -0.3920 C   0  0  0  0  0  0  0  0  0  0  0  0
   -0.4140    6.0470    0.7780 C   0  0  0  0  0  0  0  0  0  0  0  0
   -0.4910    4.7200    0.7060 C   0  0  0  0  0  0  0  0  0  0  0  0
   -0.1090    4.0010    1.9580 C   0  0  0  0  0  0  0  0  0  0  0  0
   -0.9080    3.9930   -0.4660 C   0  0  0  0  0  0  0  0  0  0  0  0
   -0.9610    2.5440   -0.5510 C   0  0  0  0  0  0  0  0  0  0  0  0
   -1.3970    2.0120   -1.6460 O   0  0  0  0  0  0  0  0  0  0  0  0
   -0.5890    1.6570    0.4360 O   0  0  0  0  0  0  0  0  0  0  0  0
   -0.7240    0.2920    0.2170 C   0  0  0  0  0  0  0  0  0  0  0  0
   -1.6270   -0.4090    1.0110 C   0  0  0  0  0  0  0  0  0  0  0  0
   -2.3540    0.2510    2.0140 O   0  0  0  0  0  0  0  0  0  0  0  0
   -3.2700   -0.4640    2.8160 C   0  0  0  0  0  0  0  0  0  0  0  0
   -1.7910   -1.7640    0.7850 C   0  0  0  0  0  0  0  0  0  0  0  0
   -1.1320   -2.4930   -0.1790 C   0  0  0  0  0  0  0  0  0  0  0  0
   -1.4870   -3.8650   -0.3950 C   0  0  1  0  0  0  0  0  0  0  0  0
   -0.9690   -4.8980    0.5670 C   0  0  0  0  0  0  0  0  0  0  0  0
   -2.9350   -3.9410   -0.0280 N   0  0  0  0  0  0  0  0  0  0  0  0
   -4.0280   -3.9790   -0.8750 C   0  0  0  0  0  0  0  0  0  0  0  0
   -3.8360   -3.9290   -2.1090 O   0  0  0  0  0  0  0  0  0  0  0  0
   -5.4020   -4.0890   -0.2410 C   0  0  0  0  0  0  0  0  0  0  0  0
   -6.5200   -4.0890   -1.2020 C   0  0  0  0  0  0  0  0  0  0  0  0
   -0.2410   -1.7550   -0.9500 C   0  0  0  0  0  0  0  0  0  0  0  0
   -0.0420   -0.3810   -0.7360 C   0  0  0  0  0  0  0  0  0  0  0  0
    1.1070    0.2230   -1.4630 C   0  0  2  0  0  0  0  0  0  0  0  0
    1.7940    1.7100   -0.8780 S   0  0  0  0  0  0  0  0  0  0  0  0
    2.8040    1.4290    0.5900 C   0  0  1  0  0  0  0  0  0  0  0  0
    2.1280    0.8930    1.7950 C   0  0  0  0  0  0  0  0  0  0  0  0
    4.0610    0.6750    0.2340 C   0  0  0  0  0  0  0  0  0  0  0  0
    4.3740    0.5960   -0.9770 O   0  0  0  0  0  0  0  0  0  0  0  0
    4.8850    0.0720    1.1990 N   0  0  0  0  0  0  0  0  0  0  0  0
    6.0940   -0.6350    0.9830 C   0  0  0  0  0  0  0  0  0  0  0  0
    6.6870   -1.1190    2.0610 C   0  0  0  0  0  0  0  0  0  0  0  0
    6.6900   -0.8460   -0.3050 C   0  0  0  0  0  0  0  0  0  0  0  0
    7.7990   -1.4820   -0.4330 N   0  0  0  0  0  0  0  0  0  0  0  0
    0.9720   -0.1320   -2.8990 C   0  0  0  0  0  0  0  0  0  0  0  0
    1.3130   -1.6280   -2.9200 C   0  0  0  0  0  0  0  0  0  0  0  0
    0.3950   -2.4310   -2.0640 C   0  0  0  0  0  0  0  0  0  0  0  0
   -1.2430    4.7010   -1.5590 C   0  0  0  0  0  0  0  0  0  0  0  0
   -1.1800    6.1390   -1.5460 N   0  0  0  0  0  0  0  0  0  0  0  0
  1  2  2  0
  2  3  1  0
  2 40  1  0
  3  4  2  0
  4  5  1  0
  4  6  1  0
  6  7  1  0
  6 39  2  0
  7  8  2  0
  7  9  1  0
  9 10  1  0
 10 11  2  0
 10 24  1  0
 11 12  1  0
 11 14  1  0
 12 13  1  0
 14 15  2  0
 15 16  1  0
 15 23  1  0
 16 17  1  1
 16 18  1  0
 18 19  1  0
 19 20  2  0
 19 21  1  0
 21 22  1  0
 23 24  2  0
 23 38  1  0
 24 25  1  0
 25 26  1  6
 25 36  1  0
 26 27  1  0
 27 28  1  1
 27 29  1  0
 29 30  2  0
 29 31  1  0
 31 32  1  0
 32 33  2  0
 32 34  1  0
 34 35  2  0
 36 37  1  0
 37 38  1  0
 39 40  1  0
M  END
