
     RDKit          3D

 40 42  0  0  0  0  0  0  0  0999 V2000
    8.2280   -7.0470    1.2550 C   0  0  0  0  0  0  0  0  0  0  0  0
    6.8160   -7.4520    1.2050 C   0  0  0  0  0  0  0  0  0  0  0  0
    5.8270   -6.5640    1.1420 C   0  0  0  0  0  0  0  0  0  0  0  0
    6.1600   -5.1530    1.1230 C   0  0  0  0  0  0  0  0  0  0  0  0
    5.1430   -4.2550    1.0590 C   0  0  0  0  0  0  0  0  0  0  0  0
    5.4890   -2.8750    1.0410 C   0  0  0  0  0  0  0  0  0  0  0  0
    4.7690   -1.8300    0.9960 C   0  0  0  0  0  0  0  0  0  0  0  0
    3.3460   -1.6200    0.9530 C   0  0  0  0  0  0  0  0  0  0  0  0
    2.8740   -0.3170    0.6460 C   0  0  0  0  0  0  0  0  0  0  0  0
    1.5640    0.0440    0.6140 C   0  0  0  0  0  0  0  0  0  0  0  0
    1.0370    1.3140    0.3090 N   0  0  0  0  0  0  0  0  0  0  0  0
    1.7510    2.4970    0.0500 C   0  0  0  0  0  0  0  0  0  0  0  0
    3.3570    2.6690    0.0720 S   0  0  0  0  0  0  0  0  0  0  0  0
    1.0180    3.7160   -0.2560 N   0  0  0  0  0  0  0  0  0  0  0  0
    1.6590    4.9320   -0.5060 C   0  0  0  0  0  0  0  0  0  0  0  0
    2.9190    4.9850   -0.4660 O   0  0  0  0  0  0  0  0  0  0  0  0
    0.9340    6.1910   -0.8240 C   0  0  1  0  0  0  0  0  0  0  0  0
    1.8810    7.3550   -0.9710 C   0  0  0  0  0  0  0  0  0  0  0  0
    1.1480    8.2530   -1.8340 N   0  0  0  0  0  0  0  0  0  0  0  0
    0.1170    7.5760   -2.5160 C   0  0  0  0  0  0  0  0  0  0  0  0
   -0.7420    8.1090   -3.2530 O   0  0  0  0  0  0  0  0  0  0  0  0
    0.2690    6.1360   -2.1780 C   0  0  0  0  0  0  0  0  0  0  0  0
    0.6010   -0.9500    0.9080 C   0  0  0  0  0  0  0  0  0  0  0  0
   -0.8310   -0.6320    0.8940 C   0  0  0  0  0  0  0  0  0  0  0  0
   -1.3780    0.1190    1.9250 C   0  0  0  0  0  0  0  0  0  0  0  0
   -2.7210    0.4310    1.9370 C   0  0  0  0  0  0  0  0  0  0  0  0
   -3.5860    0.0190    0.9360 C   0  0  0  0  0  0  0  0  0  0  0  0
   -4.9350    0.3490    0.9770 O   0  0  0  0  0  0  0  0  0  0  0  0
   -5.5580    1.0870    1.9820 C   0  0  0  0  0  0  0  0  0  0  0  0
   -5.4740    0.4590    3.3390 C   0  0  0  0  0  0  0  0  0  0  0  0
   -3.0540   -0.7250   -0.0890 C   0  0  0  0  0  0  0  0  0  0  0  0
   -3.8160   -1.1810   -1.1220 O   0  0  0  0  0  0  0  0  0  0  0  0
   -5.1230   -1.0790   -1.4770 C   0  0  2  0  0  0  0  0  0  0  0  0
   -5.8430   -2.4540   -1.4470 C   0  0  0  0  0  0  0  0  0  0  0  0
   -5.1780   -0.6070   -2.9440 C   0  0  0  0  0  0  0  0  0  0  0  0
   -6.6020   -0.4710   -3.4080 C   0  0  0  0  0  0  0  0  0  0  0  0
   -1.6740   -1.0410   -0.0950 C   0  0  0  0  0  0  0  0  0  0  0  0
    1.0630   -2.1980    1.2020 C   0  0  0  0  0  0  0  0  0  0  0  0
    0.2680   -3.1240    1.4700 O   0  0  0  0  0  0  0  0  0  0  0  0
    2.3940   -2.5060    1.2200 N   0  0  0  0  0  0  0  0  0  0  0  0
  1  2  1  0
  2  3  2  3
  3  4  1  0
  4  5  2  3
  5  6  1  0
  6  7  2  3
  7  8  1  0
  8  9  2  0
  8 40  1  0
  9 10  1  0
 10 11  1  0
 10 23  2  0
 11 12  1  0
 12 13  2  0
 12 14  1  0
 14 15  1  0
 15 16  2  0
 17 15  1  6
 17 18  1  0
 17 22  1  0
 18 19  1  0
 19 20  1  0
 20 21  2  0
 20 22  1  0
 23 24  1  0
 23 38  1  0
 24 25  2  0
 24 37  1  0
 25 26  1  0
 26 27  2  0
 27 28  1  0
 27 31  1  0
 28 29  1  0
 29 30  1  0
 31 32  1  0
 31 37  2  0
 32 33  1  0
 33 34  1  6
 33 35  1  0
 35 36  1  0
 38 39  2  0
 38 40  1  0
M  END
