
     RDKit          3D

 40 42  0  0  0  0  0  0  0  0999 V2000
   -0.0950    3.5120    2.1470 C   0  0  0  0  0  0  0  0  0  0  0  0
    1.0090    3.2260    1.0900 C   0  0  0  0  0  0  0  0  0  0  0  0
    0.3490    3.0370   -0.2150 C   0  0  1  0  0  0  0  0  0  0  0  0
    1.1280    2.7940   -1.4250 C   0  0  0  0  0  0  0  0  0  0  0  0
    1.9700    1.6450   -1.4120 N   0  0  0  0  0  0  0  0  0  0  0  0
    3.1540    1.5020   -0.6640 C   0  0  0  0  0  0  0  0  0  0  0  0
    3.5290    2.4950    0.0380 O   0  0  0  0  0  0  0  0  0  0  0  0
    3.9220    0.2620   -0.6900 C   0  0  0  0  0  0  0  0  0  0  0  0
    3.5030   -0.7520   -1.4240 C   0  0  0  0  0  0  0  0  0  0  0  0
    4.1520   -2.0420   -1.5660 C   0  0  0  0  0  0  0  0  0  0  0  0
    5.4210   -2.2290   -2.0540 C   0  0  0  0  0  0  0  0  0  0  0  0
    5.9970   -3.4400   -2.1540 N   0  0  0  0  0  0  0  0  0  0  0  0
    5.3570   -4.5500   -1.7790 C   0  0  0  0  0  0  0  0  0  0  0  0
    4.0790   -4.4260   -1.2820 C   0  0  0  0  0  0  0  0  0  0  0  0
    3.4750   -3.1990   -1.1720 C   0  0  0  0  0  0  0  0  0  0  0  0
    2.1050   -3.0710   -0.6380 C   0  0  0  0  0  0  0  0  0  0  0  0
    5.0770    0.0990    0.1510 C   0  0  0  0  0  0  0  0  0  0  0  0
    5.6740   -1.0340    0.2240 O   0  0  0  0  0  0  0  0  0  0  0  0
    5.6460    1.1110    0.9400 N   0  0  0  0  0  0  0  0  0  0  0  0
    6.8370    0.8370    1.7740 C   0  0  0  0  0  0  0  0  0  0  0  0
    7.2580    2.0470    2.5150 C   0  0  0  0  0  0  0  0  0  0  0  0
    6.5390    3.2570    2.3690 N   0  0  0  0  0  0  0  0  0  0  0  0
    8.2440    2.0050    3.2680 O   0  0  0  0  0  0  0  0  0  0  0  0
   -0.7660    2.0040   -0.0970 C   0  0  0  0  0  0  0  0  0  0  0  0
   -0.4520    0.6750    0.0950 C   0  0  0  0  0  0  0  0  0  0  0  0
   -1.4210   -0.3000    0.2090 C   0  0  0  0  0  0  0  0  0  0  0  0
   -2.7240    0.0540    0.1300 C   0  0  0  0  0  0  0  0  0  0  0  0
   -3.0860    1.3660   -0.0600 C   0  0  0  0  0  0  0  0  0  0  0  0
   -2.0930    2.3260   -0.1710 C   0  0  0  0  0  0  0  0  0  0  0  0
   -4.4920    1.8240   -0.1550 C   0  0  0  0  0  0  0  0  0  0  0  0
   -5.4640    0.7820   -0.5630 C   0  0  0  0  0  0  0  0  0  0  0  0
   -4.8080   -0.5500   -0.8400 C   0  0  2  0  0  0  0  0  0  0  0  0
   -4.0280   -0.3280   -2.0060 O   0  0  0  0  0  0  0  0  0  0  0  0
   -5.7850   -1.6040   -1.2280 C   0  0  0  0  0  0  0  0  0  0  0  0
   -6.8380   -1.9180   -0.2250 C   0  0  0  0  0  0  0  0  0  0  0  0
   -7.9000   -3.2080   -0.8980 S   0  0  0  0  0  0  0  0  0  0  0  0
   -7.0980   -4.3470   -1.4630 O   0  0  0  0  0  0  0  0  0  0  0  0
   -3.8600   -0.9190    0.2420 C   0  0  2  0  0  0  0  0  0  0  0  0
   -4.4130   -0.7550    1.6350 C   0  0  0  0  0  0  0  0  0  0  0  0
   -3.3700   -2.3400    0.1080 C   0  0  0  0  0  0  0  0  0  0  0  0
  1  2  1  0
  3  2  1  1
  3  4  1  0
  3 24  1  0
  4  5  1  0
  5  6  1  0
  6  7  2  0
  6  8  1  0
  8  9  2  3
  8 17  1  0
  9 10  1  0
 10 11  2  0
 10 15  1  0
 11 12  1  0
 12 13  2  0
 13 14  1  0
 14 15  2  0
 15 16  1  0
 17 18  2  0
 17 19  1  0
 19 20  1  0
 20 21  1  0
 21 22  1  0
 21 23  2  0
 24 25  2  0
 24 29  1  0
 25 26  1  0
 26 27  2  0
 27 28  1  0
 27 38  1  0
 28 29  2  0
 28 30  1  0
 30 31  1  0
 31 32  1  0
 32 33  1  6
 32 34  1  0
 32 38  1  0
 34 35  1  0
 35 36  1  0
 36 37  2  0
 38 39  1  1
 38 40  1  0
M  END
