
     RDKit          3D

 40 42  0  0  0  0  0  0  0  0999 V2000
   -6.9560    2.0890   -3.0570 C   0  0  0  0  0  0  0  0  0  0  0  0
   -7.5090    1.0430   -2.5630 C   0  0  0  0  0  0  0  0  0  0  0  0
   -7.4060    0.3490   -1.3290 C   0  0  0  0  0  0  0  0  0  0  0  0
   -8.2590   -0.7340   -1.2600 C   0  0  0  0  0  0  0  0  0  0  0  0
   -8.3290   -1.5880   -0.0860 C   0  0  0  0  0  0  0  0  0  0  0  0
   -8.1600   -1.3070    1.1880 C   0  0  0  0  0  0  0  0  0  0  0  0
   -7.7910    0.1910    1.9650 S   0  0  1  0  0  0  0  0  0  0  0  0
   -9.1230    0.7380    2.4950 O   0  0  0  0  0  0  0  0  0  0  0  0
   -6.9050   -0.0090    3.1760 O   0  0  0  0  0  0  0  0  0  0  0  0
   -7.0900    1.3040    0.8890 N   0  0  0  0  0  0  0  0  0  0  0  0
   -6.5040    0.7370   -0.2890 C   0  0  2  0  0  0  0  0  0  0  0  0
   -5.2280    1.3710   -0.6750 C   0  0  2  0  0  0  0  0  0  0  0  0
   -4.7660    0.7560   -1.8390 O   0  0  0  0  0  0  0  0  0  0  0  0
   -4.1580    0.9680    0.3880 C   0  0  0  0  0  0  0  0  0  0  0  0
   -2.8830    1.4680   -0.0560 N   0  0  0  0  0  0  0  0  0  0  0  0
   -1.7500    1.2160    0.7440 C   0  0  0  0  0  0  0  0  0  0  0  0
   -1.9050    0.5680    1.8080 O   0  0  0  0  0  0  0  0  0  0  0  0
   -0.3630    1.6760    0.4020 C   0  0  2  0  0  0  0  0  0  0  0  0
    0.0720    1.1840   -0.8980 C   0  0  0  0  0  0  0  0  0  0  0  0
    0.1590   -0.2320   -1.2360 C   0  0  0  0  0  0  0  0  0  0  0  0
   -1.1280   -1.0160   -1.1450 C   0  0  0  0  0  0  0  0  0  0  0  0
    0.5130    1.7770    1.5620 C   0  0  0  0  0  0  0  0  0  0  0  0
    0.8370    0.6380    2.4260 C   0  0  0  0  0  0  0  0  0  0  0  0
    1.5180   -0.4770    1.8570 N   0  0  0  0  0  0  0  0  0  0  0  0
    2.8310   -0.3370    1.2750 C   0  0  0  0  0  0  0  0  0  0  0  0
    3.3860    0.7670    1.2680 O   0  0  0  0  0  0  0  0  0  0  0  0
    3.4670   -1.4820    0.7160 N   0  0  0  0  0  0  0  0  0  0  0  0
    4.7250   -1.5420    0.1170 C   0  0  0  0  0  0  0  0  0  0  0  0
    5.5750   -0.4900    0.0200 C   0  0  0  0  0  0  0  0  0  0  0  0
    6.8410   -0.5920   -0.5880 C   0  0  0  0  0  0  0  0  0  0  0  0
    7.7250    0.6140   -0.6470 C   0  0  0  0  0  0  0  0  0  0  0  0
    8.6300    0.6270    0.5310 C   0  0  0  0  0  0  0  0  0  0  0  0
    8.7080    1.5450    1.4780 C   0  0  0  0  0  0  0  0  0  0  0  0
    9.7450    1.1130    2.4150 C   0  0  0  0  0  0  0  0  0  0  0  0
   10.2660    0.0380    1.8790 C   0  0  0  0  0  0  0  0  0  0  0  0
    9.6180   -0.4250    0.8270 C   0  0  0  0  0  0  0  0  0  0  0  0
    7.1880   -1.8140   -1.0890 C   0  0  0  0  0  0  0  0  0  0  0  0
    6.3620   -2.9090   -1.0150 C   0  0  0  0  0  0  0  0  0  0  0  0
    5.1380   -2.7550   -0.4110 C   0  0  0  0  0  0  0  0  0  0  0  0
    4.2410   -3.9490   -0.3390 C   0  0  0  0  0  0  0  0  0  0  0  0
  1  2  2  0
  2  3  1  0
  3  4  2  0
  3 11  1  0
  4  5  1  0
  5  6  2  0
  6  7  1  0
  7  8  2  0
  7  9  2  0
  7 10  1  6
 11 10  1  1
 11 12  1  0
 12 13  1  6
 12 14  1  0
 14 15  1  0
 15 16  1  0
 16 17  2  0
 16 18  1  0
 18 19  1  6
 18 22  1  0
 19 20  1  0
 20 21  1  0
 22 23  1  0
 23 24  1  0
 24 25  1  0
 25 26  2  0
 25 27  1  0
 27 28  1  0
 28 29  2  0
 28 39  1  0
 29 30  1  0
 30 31  1  0
 30 37  2  0
 31 32  1  0
 32 33  2  0
 32 36  1  0
 33 34  1  0
 34 35  2  0
 35 36  2  0
 37 38  1  0
 38 39  2  0
 39 40  1  0
M  END
