
     RDKit          3D

 40 41  0  0  0  0  0  0  0  0999 V2000
   -1.0510    1.9910    5.1960 C   0  0  0  0  0  0  0  0  0  0  0  0
   -0.5800    0.7070    4.6450 C   0  0  0  0  0  0  0  0  0  0  0  0
   -1.2060    0.1700    3.5700 C   0  0  0  0  0  0  0  0  0  0  0  0
   -2.2990    0.8550    2.9990 C   0  0  0  0  0  0  0  0  0  0  0  0
   -3.0480    0.5240    2.0020 C   0  0  0  0  0  0  0  0  0  0  0  0
   -2.9200   -0.6980    1.2130 C   0  0  0  0  0  0  0  0  0  0  0  0
   -4.1090    1.4690    1.5070 C   0  0  0  0  0  0  0  0  0  0  0  0
   -4.1380    2.5520    2.0760 O   0  0  0  0  0  0  0  0  0  0  0  0
   -4.9940    1.1670    0.4980 N   0  0  0  0  0  0  0  0  0  0  0  0
   -6.0380    1.8690   -0.1410 C   0  0  1  0  0  0  0  0  0  0  0  0
   -6.6890    1.1230   -1.2560 C   0  0  0  0  0  0  0  0  0  0  0  0
   -7.0990    2.5450    0.7090 C   0  0  2  0  0  0  0  0  0  0  0  0
   -8.1270    3.0640   -0.3680 C   0  0  0  0  0  0  0  0  0  0  0  0
   -6.5460    3.8430    1.2960 C   0  0  0  0  0  0  0  0  0  0  0  0
   -0.5820   -1.0470    3.1220 N   0  0  0  0  0  0  0  0  0  0  0  0
    0.5740   -0.8890    2.2970 C   0  0  0  0  0  0  0  0  0  0  0  0
    0.9990    0.3240    2.1270 N   0  0  0  0  0  0  0  0  0  0  0  0
    2.1490    0.6620    1.3210 C   0  0  0  0  0  0  0  0  0  0  0  0
    2.5630    2.0820    1.2030 C   0  0  0  0  0  0  0  0  0  0  0  0
    2.8230   -0.2760    0.7160 C   0  0  0  0  0  0  0  0  0  0  0  0
    4.0070    0.0680   -0.1190 C   0  0  0  0  0  0  0  0  0  0  0  0
    4.3660    1.2530   -0.2400 O   0  0  0  0  0  0  0  0  0  0  0  0
    4.7210   -0.8870   -0.7660 O   0  0  0  0  0  0  0  0  0  0  0  0
    5.8040   -0.8880   -1.5860 C   0  0  0  0  0  0  0  0  0  0  0  0
    5.7340   -0.2430   -2.9360 C   0  0  2  0  0  0  0  0  0  0  0  0
    5.4700    1.2230   -2.9880 C   0  0  0  0  0  0  0  0  0  0  0  0
    5.9280    1.7650   -4.3350 C   0  0  0  0  0  0  0  0  0  0  0  0
    4.7770    2.0880   -5.2690 C   0  0  0  0  0  0  0  0  0  0  0  0
    4.1330    0.5540   -5.9880 S   0  0  0  0  0  0  0  0  0  0  0  0
    4.3910    0.4820   -7.4700 O   0  0  0  0  0  0  0  0  0  0  0  0
    4.9900   -0.8430   -5.2060 C   0  0  0  0  0  0  0  0  0  0  0  0
    4.6390   -0.9260   -3.7650 C   0  0  0  0  0  0  0  0  0  0  0  0
    2.4120   -1.6590    0.8580 C   0  0  0  0  0  0  0  0  0  0  0  0
    3.0500   -2.5580    0.2860 O   0  0  0  0  0  0  0  0  0  0  0  0
    1.2110   -2.0110    1.7010 C   0  0  0  0  0  0  0  0  0  0  0  0
    0.8840   -3.2660    1.7880 C   0  0  0  0  0  0  0  0  0  0  0  0
    1.7840   -4.1620    1.0140 N   0  0  0  0  0  0  0  0  0  0  0  0
   -0.1010   -4.0590    2.5030 C   0  0  2  0  0  0  0  0  0  0  0  0
    0.6440   -5.3730    3.0320 C   0  0  0  0  0  0  0  0  0  0  0  0
   -1.0220   -4.6930    1.4300 C   0  0  0  0  0  0  0  0  0  0  0  0
  1  2  1  0
  2  3  2  3
  3  4  1  0
  3 15  1  0
  4  5  2  3
  5  6  1  0
  5  7  1  0
  7  8  2  0
  7  9  1  0
  9 10  1  0
 10 11  1  6
 10 12  1  0
 12 13  1  6
 12 14  1  0
 15 16  1  0
 16 17  2  0
 16 35  1  0
 17 18  1  0
 18 19  1  0
 18 20  2  0
 20 21  1  0
 20 33  1  0
 21 22  2  0
 21 23  1  0
 23 24  1  0
 25 24  1  1
 25 26  1  0
 25 32  1  0
 26 27  1  0
 27 28  1  0
 29 28  1  1
 29 30  2  0
 29 31  1  0
 31 32  1  0
 33 34  2  0
 33 35  1  0
 35 36  2  3
 36 37  1  0
 36 38  1  0
 38 39  1  6
 38 40  1  0
M  END
