
     RDKit          3D

 34 36  0  0  0  0  0  0  0  0999 V2000
   -5.7860   -3.7430    1.3470 C   0  0  0  0  0  0  0  0  0  0  0  0
   -4.6400   -2.8600    1.2240 N   0  0  0  0  0  0  0  0  0  0  0  0
   -4.7110   -1.5980    0.5600 C   0  0  0  0  0  0  0  0  0  0  0  0
   -5.8210   -1.2630    0.0710 O   0  0  0  0  0  0  0  0  0  0  0  0
   -3.5890   -0.7380    0.4430 N   0  0  0  0  0  0  0  0  0  0  0  0
   -3.6390    0.5130   -0.2100 C   0  0  0  0  0  0  0  0  0  0  0  0
   -4.7320    1.0430   -0.7900 N   0  0  0  0  0  0  0  0  0  0  0  0
   -4.7150    2.2610   -1.4030 C   0  0  0  0  0  0  0  0  0  0  0  0
   -5.8680    2.8050   -2.0070 N   0  0  0  0  0  0  0  0  0  0  0  0
   -7.0910    2.1060   -2.0010 C   0  0  0  0  0  0  0  0  0  0  0  0
   -7.2290    0.9870   -1.4730 O   0  0  0  0  0  0  0  0  0  0  0  0
   -3.5700    2.9450   -1.4240 O   0  0  0  0  0  0  0  0  0  0  0  0
   -2.4640    2.5150   -0.8910 C   0  0  0  0  0  0  0  0  0  0  0  0
   -1.3890    3.1840   -0.9240 O   0  0  0  0  0  0  0  0  0  0  0  0
   -2.4930    1.2790   -0.2730 C   0  0  0  0  0  0  0  0  0  0  0  0
   -1.3030    0.7610    0.3230 N   0  0  0  0  0  0  0  0  0  0  0  0
   -0.4100   -0.0170   -0.5080 C   0  0  0  0  0  0  0  0  0  0  0  0
    0.8800   -0.2450   -0.2830 C   0  0  0  0  0  0  0  0  0  0  0  0
    1.6590    0.2430    0.8470 C   0  0  0  0  0  0  0  0  0  0  0  0
    1.1750    0.9510    1.7590 O   0  0  0  0  0  0  0  0  0  0  0  0
    3.0260   -0.0750    0.9570 O   0  0  0  0  0  0  0  0  0  0  0  0
    3.7620    0.4190    2.0860 C   0  0  0  0  0  0  0  0  0  0  0  0
    5.1750   -0.0270    1.9930 C   0  0  0  0  0  0  0  0  0  0  0  0
    5.9080    0.4200    0.8450 N   0  0  1  0  0  0  0  0  0  0  0  0
    7.1620    0.7660    1.2540 O   0  0  0  0  0  0  0  0  0  0  0  0
    5.9660   -0.6810   -0.0970 C   0  0  0  0  0  0  0  0  0  0  0  0
    6.9330   -0.2420   -1.1940 C   0  0  0  0  0  0  0  0  0  0  0  0
    6.3790    1.5050   -1.3720 S   0  0  0  0  0  0  0  0  0  0  0  0
    5.3710    1.5600    0.1710 C   0  0  0  0  0  0  0  0  0  0  0  0
    1.3840   -1.0790   -1.3760 C   0  0  0  0  0  0  0  0  0  0  0  0
    2.5740   -1.5140   -1.5240 O   0  0  0  0  0  0  0  0  0  0  0  0
    0.3380   -1.3450   -2.2750 N   0  0  0  0  0  0  0  0  0  0  0  0
   -0.7960   -0.6840   -1.7430 C   0  0  0  0  0  0  0  0  0  0  0  0
   -1.9760   -0.6620   -2.2450 O   0  0  0  0  0  0  0  0  0  0  0  0
  1  2  1  0
  2  3  1  0
  3  4  2  0
  3  5  1  0
  5  6  1  0
  6  7  1  0
  6 15  2  0
  7  8  2  0
  8  9  1  0
  8 12  1  0
  9 10  1  0
 10 11  2  0
 12 13  1  0
 13 14  2  0
 13 15  1  0
 15 16  1  0
 16 17  1  0
 17 18  2  0
 17 33  1  0
 18 19  1  0
 18 30  1  0
 19 20  2  0
 19 21  1  0
 21 22  1  0
 22 23  1  0
 23 24  1  0
 24 25  1  1
 24 26  1  0
 24 29  1  0
 26 27  1  0
 27 28  1  0
 28 29  1  0
 30 31  2  0
 30 32  1  0
 32 33  1  0
 33 34  2  0
M  CHG  2  24   1  25  -1
M  END
