
     RDKit          3D

 34 36  0  0  0  0  0  0  0  0999 V2000
    8.6520   -4.2400   -0.3870 C   0  0  0  0  0  0  0  0  0  0  0  0
    7.9630   -3.0230   -0.4490 O   0  0  0  0  0  0  0  0  0  0  0  0
    8.5790   -1.7910   -0.5990 C   0  0  0  0  0  0  0  0  0  0  0  0
    9.8290   -1.7870   -0.6810 O   0  0  0  0  0  0  0  0  0  0  0  0
    7.8610   -0.5390   -0.6630 C   0  0  0  0  0  0  0  0  0  0  0  0
    8.5530    0.6400   -0.8120 C   0  0  0  0  0  0  0  0  0  0  0  0
    7.8860    1.8450   -0.8750 C   0  0  0  0  0  0  0  0  0  0  0  0
    6.5220    1.8560   -0.7860 N   0  0  0  0  0  0  0  0  0  0  0  0
    5.9590    3.0930   -0.8600 O   0  0  0  0  0  0  0  0  0  0  0  0
    5.8040    0.7530   -0.6410 C   0  0  0  0  0  0  0  0  0  0  0  0
    4.4070    0.7140   -0.5440 N   0  0  0  0  0  0  0  0  0  0  0  0
    3.4520    1.7400   -0.5640 C   0  0  0  0  0  0  0  0  0  0  0  0
    3.8000    2.9210   -0.6850 O   0  0  0  0  0  0  0  0  0  0  0  0
    2.0420    1.4680   -0.4470 N   0  0  0  0  0  0  0  0  0  0  0  0
    1.0830    2.5400   -0.4710 C   0  0  0  0  0  0  0  0  0  0  0  0
   -0.2950    1.9970   -0.3350 C   0  0  0  0  0  0  0  0  0  0  0  0
   -0.5050    0.7730   -0.2200 O   0  0  0  0  0  0  0  0  0  0  0  0
   -1.4090    2.8760   -0.3320 N   0  0  0  0  0  0  0  0  0  0  0  0
   -2.7590    2.4360   -0.2060 C   0  0  0  0  0  0  0  0  0  0  0  0
   -3.8950    2.8210   -0.1610 N   0  0  0  0  0  0  0  0  0  0  0  0
   -4.9320    2.0550   -0.0290 N   0  0  0  0  0  0  0  0  0  0  0  0
   -4.9240    0.9040    0.0640 C   0  0  0  0  0  0  0  0  0  0  0  0
   -5.7760   -0.2660    0.2160 N   0  0  0  0  0  0  0  0  0  0  0  0
   -7.1460    0.0140    0.2860 C   0  0  0  0  0  0  0  0  0  0  0  0
   -7.5940    1.1920    0.2210 O   0  0  0  0  0  0  0  0  0  0  0  0
   -8.1180   -1.0900    0.4410 C   0  0  0  0  0  0  0  0  0  0  0  0
   -9.4370   -0.9750    0.5200 C   0  0  0  0  0  0  0  0  0  0  0  0
  -10.1760    0.2000    0.4750 O   0  0  0  0  0  0  0  0  0  0  0  0
  -10.0180   -2.2430    0.6620 O   0  0  0  0  0  0  0  0  0  0  0  0
   -8.9590   -3.0750    1.1290 C   0  0  2  0  0  0  0  0  0  0  0  0
   -8.7970   -2.9690    2.6270 C   0  0  0  0  0  0  0  0  0  0  0  0
   -7.8410   -2.4450    0.5320 O   0  0  0  0  0  0  0  0  0  0  0  0
   -3.0700    0.5720   -0.0330 S   0  0  0  0  0  0  0  0  0  0  0  0
    6.4990   -0.4850   -0.5780 C   0  0  0  0  0  0  0  0  0  0  0  0
  1  2  1  0
  2  3  1  0
  3  4  2  0
  3  5  1  0
  5  6  2  0
  5 34  1  0
  6  7  1  0
  7  8  2  0
  8  9  1  0
  8 10  1  0
 10 11  1  0
 10 34  2  0
 11 12  1  0
 12 13  2  0
 12 14  1  0
 14 15  1  0
 15 16  1  0
 16 17  2  0
 16 18  1  0
 18 19  1  0
 19 20  2  0
 19 33  1  0
 20 21  1  0
 21 22  2  0
 22 23  1  0
 22 33  1  0
 23 24  1  0
 24 25  2  0
 24 26  1  0
 26 27  2  0
 26 32  1  0
 27 28  1  0
 27 29  1  0
 29 30  1  0
 30 31  1  1
 30 32  1  0
M  CHG  2   8   1   9  -1
M  END
