
     RDKit          3D

 34 36  0  0  0  0  0  0  0  0999 V2000
    6.2600   -1.6450   -2.4700 C   0  0  0  0  0  0  0  0  0  0  0  0
    6.2320   -0.2820   -2.1730 O   0  0  0  0  0  0  0  0  0  0  0  0
    5.5570    0.1390   -1.0360 C   0  0  0  0  0  0  0  0  0  0  0  0
    4.9130   -0.7770   -0.1940 C   0  0  0  0  0  0  0  0  0  0  0  0
    4.2490   -0.3680    0.9230 C   0  0  0  0  0  0  0  0  0  0  0  0
    3.6100   -1.3000    1.7570 N   0  0  1  0  0  0  0  0  0  0  0  0
    3.9410   -2.6520    1.3520 C   0  0  0  0  0  0  0  0  0  0  0  0
    4.0910   -1.1900    3.0410 O   0  0  0  0  0  0  0  0  0  0  0  0
    2.1950   -1.0880    1.7610 C   0  0  0  0  0  0  0  0  0  0  0  0
    1.5570   -1.1450    0.4370 C   0  0  0  0  0  0  0  0  0  0  0  0
    2.2590   -1.2740   -0.5920 O   0  0  0  0  0  0  0  0  0  0  0  0
    0.1840   -1.0600    0.2850 O   0  0  0  0  0  0  0  0  0  0  0  0
   -0.3560   -1.1240   -1.0270 C   0  0  0  0  0  0  0  0  0  0  0  0
   -1.8470   -1.0400   -0.9920 C   0  0  0  0  0  0  0  0  0  0  0  0
   -2.4930   -1.0770   -2.0690 O   0  0  0  0  0  0  0  0  0  0  0  0
   -2.5680   -0.9220    0.2240 N   0  0  0  0  0  0  0  0  0  0  0  0
   -3.9570   -0.8460    0.3140 N   0  0  0  0  0  0  0  0  0  0  0  0
   -4.7210    0.2910   -0.0870 C   0  0  0  0  0  0  0  0  0  0  0  0
   -4.0910    1.2670   -0.5430 O   0  0  0  0  0  0  0  0  0  0  0  0
   -6.1760    0.3110    0.0320 C   0  0  0  0  0  0  0  0  0  0  0  0
   -6.7810   -0.6910    0.4910 O   0  0  0  0  0  0  0  0  0  0  0  0
   -6.9520    1.4310   -0.3540 N   0  0  0  0  0  0  0  0  0  0  0  0
   -8.3500    1.4470   -0.2370 C   0  0  0  0  0  0  0  0  0  0  0  0
   -9.0770    0.4060    0.2480 N   0  0  0  0  0  0  0  0  0  0  0  0
  -10.3440    0.7160    0.2380 N   0  0  0  0  0  0  0  0  0  0  0  0
  -10.4820    1.9470   -0.2460 C   0  0  0  0  0  0  0  0  0  0  0  0
  -11.8970    2.7590   -0.4440 S   0  0  0  0  0  0  0  0  0  0  0  0
   -9.2490    2.3940   -0.5380 N   0  0  0  0  0  0  0  0  0  0  0  0
    4.2140    0.9770    1.2250 C   0  0  0  0  0  0  0  0  0  0  0  0
    4.8520    1.8820    0.3910 C   0  0  0  0  0  0  0  0  0  0  0  0
    5.5230    1.4820   -0.7350 C   0  0  0  0  0  0  0  0  0  0  0  0
    6.0680    2.6030   -1.3850 O   0  0  0  0  0  0  0  0  0  0  0  0
    6.0150    3.6530   -0.4110 C   0  0  0  0  0  0  0  0  0  0  0  0
    4.9710    3.2640    0.4590 O   0  0  0  0  0  0  0  0  0  0  0  0
  1  2  1  0
  2  3  1  0
  3  4  2  0
  3 31  1  0
  4  5  1  0
  5  6  1  0
  5 29  2  0
  6  7  1  6
  6  8  1  0
  6  9  1  0
  9 10  1  0
 10 11  2  0
 10 12  1  0
 12 13  1  0
 13 14  1  0
 14 15  2  0
 14 16  1  0
 16 17  1  0
 17 18  1  0
 18 19  2  0
 18 20  1  0
 20 21  2  0
 20 22  1  0
 22 23  1  0
 23 24  2  0
 23 28  1  0
 24 25  1  0
 25 26  1  0
 26 27  2  0
 26 28  1  0
 29 30  1  0
 30 31  2  0
 30 34  1  0
 31 32  1  0
 32 33  1  0
 33 34  1  0
M  CHG  2   6   1   8  -1
M  END
