
     RDKit          3D

 15 15  0  0  0  0  0  0  0  0999 V2000
    1.6520    2.4280   -1.0480 O   0  0  0  0  0  0  0  0  0  0  0  0
    1.1640    2.2540    0.2460 C   0  0  2  0  0  0  0  0  0  0  0  0
    1.5920    0.9380    0.8350 C   0  0  0  0  0  0  0  0  0  0  0  0
    1.8480   -0.0130   -0.2070 N   0  0  0  0  0  0  0  0  0  0  0  0
    1.7120   -1.3770    0.2430 C   0  0  2  0  0  0  0  0  0  0  0  0
    2.5150   -1.4890    1.4030 O   0  0  0  0  0  0  0  0  0  0  0  0
    2.2920   -2.1970   -0.7070 O   0  0  0  0  0  0  0  0  0  0  0  0
    0.4410   -1.7300    0.6010 O   0  0  0  0  0  0  0  0  0  0  0  0
   -0.3960   -2.0380   -0.4500 C   0  0  0  0  0  0  0  0  0  0  0  0
   -1.8050   -2.1710    0.1240 C   0  0  0  0  0  0  0  0  0  0  0  0
   -2.3250   -0.9370    0.4970 O   0  0  0  0  0  0  0  0  0  0  0  0
   -2.7250   -0.1760   -0.5950 C   0  0  0  0  0  0  0  0  0  0  0  0
   -2.2510    1.2490   -0.3380 C   0  0  0  0  0  0  0  0  0  0  0  0
   -0.8890    1.3310   -0.6050 O   0  0  0  0  0  0  0  0  0  0  0  0
   -0.3360    2.3430    0.1850 C   0  0  0  0  0  0  0  0  0  0  0  0
  2  1  1  6
  2  3  1  0
  2 15  1  0
  3  4  1  0
  4  5  1  0
  5  6  1  1
  5  7  1  0
  5  8  1  0
  8  9  1  0
  9 10  1  0
 10 11  1  0
 11 12  1  0
 12 13  1  0
 13 14  1  0
 14 15  1  0
M  END
