
     RDKit          3D

 22 22  0  0  0  0  0  0  0  0999 V2000
   -0.0800    2.6360   -1.4660 C   0  0  0  0  0  0  0  0  0  0  0  0
    0.4550    2.4590   -0.0800 C   0  0  0  0  0  0  0  0  0  0  0  0
    0.7390    1.0090    0.2500 C   0  0  2  0  0  0  0  0  0  0  0  0
    1.7150    0.5230   -0.6910 N   0  0  0  0  0  0  0  0  0  0  0  0
    2.9870    0.0130   -0.3320 C   0  0  0  0  0  0  0  0  0  0  0  0
    3.2670   -0.0100    0.8930 O   0  0  0  0  0  0  0  0  0  0  0  0
    3.9800   -0.4820   -1.3010 C   0  0  0  0  0  0  0  0  0  0  0  0
    5.2340   -0.9800   -0.6770 C   0  0  0  0  0  0  0  0  0  0  0  0
    4.9350   -2.0990    0.2310 C   0  0  0  0  0  0  0  0  0  0  0  0
    5.9970   -2.7300    0.9700 N   0  0  0  0  0  0  0  0  0  0  0  0
    3.7750   -2.5390    0.3970 O   0  0  0  0  0  0  0  0  0  0  0  0
   -0.5240    0.2290    0.2080 C   0  0  0  0  0  0  0  0  0  0  0  0
   -0.7090   -0.7360   -0.5610 O   0  0  0  0  0  0  0  0  0  0  0  0
   -1.5650    0.6110    1.0940 N   0  0  0  0  0  0  0  0  0  0  0  0
   -2.8370   -0.0350    1.1710 C   0  0  0  0  0  0  0  0  0  0  0  0
   -3.2150   -0.6650    2.2780 C   0  0  0  0  0  0  0  0  0  0  0  0
   -4.4870   -1.3570    2.4680 C   0  0  0  0  0  0  0  0  0  0  0  0
   -5.3820   -1.3070    1.2890 C   0  0  0  0  0  0  0  0  0  0  0  0
   -5.0660   -0.6980    0.1690 C   0  0  0  0  0  0  0  0  0  0  0  0
   -3.7720   -0.0290    0.0530 C   0  0  0  0  0  0  0  0  0  0  0  0
   -3.4620    0.6140   -1.0810 C   0  0  0  0  0  0  0  0  0  0  0  0
   -4.6240    0.6000   -2.4260 S   0  0  0  0  0  0  0  0  0  0  0  0
  1  2  1  0
  3  2  1  6
  3  4  1  0
  3 12  1  0
  4  5  1  0
  5  6  2  0
  5  7  1  0
  7  8  1  0
  8  9  1  0
  9 10  1  0
  9 11  2  0
 12 13  2  0
 12 14  1  0
 14 15  1  0
 15 16  2  0
 15 20  1  0
 16 17  1  0
 17 18  1  0
 18 19  2  0
 19 20  1  0
 20 21  2  3
 21 22  1  0
M  END
