
     RDKit          3D

 24 26  0  0  0  0  0  0  0  0999 V2000
   -3.3590    0.2420   -1.5850 C   0  0  0  0  0  0  0  0  0  0  0  0
   -3.3690    1.1730   -0.4610 N   0  0  0  0  0  0  0  0  0  0  0  0
   -4.7130    1.6470   -0.3090 C   0  0  0  0  0  0  0  0  0  0  0  0
   -5.7570    0.6120   -0.1250 C   0  0  0  0  0  0  0  0  0  0  0  0
   -5.3220   -0.6130    0.6230 C   0  0  0  0  0  0  0  0  0  0  0  0
   -3.8670   -0.7580    0.7400 C   0  0  0  0  0  0  0  0  0  0  0  0
   -3.3230   -1.9410    0.7980 C   0  0  0  0  0  0  0  0  0  0  0  0
   -4.3250   -3.4390    0.7370 S   0  0  0  0  0  0  0  0  0  0  0  0
   -3.0470    0.4580    0.7870 C   0  0  1  0  0  0  0  0  0  0  0  0
   -1.5900    0.2280    0.9180 C   0  0  0  0  0  0  0  0  0  0  0  0
   -1.2020   -0.3380    1.9610 O   0  0  0  0  0  0  0  0  0  0  0  0
   -0.6600    0.6050   -0.0460 N   0  0  0  0  0  0  0  0  0  0  0  0
    0.7480    0.4330   -0.0230 C   0  0  0  0  0  0  0  0  0  0  0  0
    1.4570   -0.2030    0.9590 C   0  0  0  0  0  0  0  0  0  0  0  0
    2.8590   -0.3240    0.9010 C   0  0  0  0  0  0  0  0  0  0  0  0
    3.5840    0.1910   -0.1440 C   0  0  0  0  0  0  0  0  0  0  0  0
    5.0470    0.0720   -0.2160 C   0  0  0  0  0  0  0  0  0  0  0  0
    5.7610   -0.5680    0.7800 C   0  0  0  0  0  0  0  0  0  0  0  0
    7.1570   -0.6870    0.7230 C   0  0  0  0  0  0  0  0  0  0  0  0
    7.8570   -0.1660   -0.3330 C   0  0  0  0  0  0  0  0  0  0  0  0
    7.1280    0.4640   -1.3100 C   0  0  0  0  0  0  0  0  0  0  0  0
    5.7810    0.5630   -1.2260 N   0  0  0  0  0  0  0  0  0  0  0  0
    2.8860    0.8290   -1.1330 C   0  0  0  0  0  0  0  0  0  0  0  0
    1.5120    0.9450   -1.0710 C   0  0  0  0  0  0  0  0  0  0  0  0
  1  2  1  0
  2  3  1  0
  2  9  1  0
  3  4  1  0
  4  5  1  0
  5  6  1  0
  6  7  2  3
  6  9  1  0
  7  8  1  0
  9 10  1  6
 10 11  2  0
 10 12  1  0
 12 13  1  0
 13 14  2  0
 13 24  1  0
 14 15  1  0
 15 16  2  0
 16 17  1  0
 16 23  1  0
 17 18  2  0
 17 22  1  0
 18 19  1  0
 19 20  2  0
 20 21  1  0
 21 22  2  0
 23 24  2  0
M  CHG  1  22   1
M  END
