
     RDKit          3D

 24 27  0  0  0  0  0  0  0  0999 V2000
   -6.4890   -1.8420    0.5910 C   0  0  0  0  0  0  0  0  0  0  0  0
   -5.1290   -1.9750    0.0910 C   0  0  0  0  0  0  0  0  0  0  0  0
   -4.1460   -1.1360   -0.1350 C   0  0  0  0  0  0  0  0  0  0  0  0
   -2.8980   -1.7540   -0.6570 C   0  0  0  0  0  0  0  0  0  0  0  0
   -1.7450   -0.9110   -0.3650 C   0  0  0  0  0  0  0  0  0  0  0  0
    0.0190   -1.3190   -0.4080 S   0  0  0  0  0  0  0  0  0  0  0  0
    0.5490    0.4140   -0.0650 C   0  0  0  0  0  0  0  0  0  0  0  0
    1.9800    0.8220    0.0390 C   0  0  1  0  0  0  0  0  0  0  0  0
    2.6570    0.1450    1.2170 C   0  0  0  0  0  0  0  0  0  0  0  0
    4.1530    0.1540    0.9850 C   0  0  0  0  0  0  0  0  0  0  0  0
    4.4860   -0.8390   -0.0780 C   0  0  2  0  0  0  0  0  0  0  0  0
    5.6400   -0.4750   -0.8730 N   0  0  0  0  0  0  0  0  0  0  0  0
    6.8060   -0.2180   -0.0850 C   0  0  0  0  0  0  0  0  0  0  0  0
    3.3000   -0.9200   -1.0430 C   0  0  0  0  0  0  0  0  0  0  0  0
    2.7550    0.4670   -1.2000 C   0  0  0  0  0  0  0  0  0  0  0  0
   -0.5210    0.9680    0.0230 N   0  0  0  0  0  0  0  0  0  0  0  0
   -1.7010    0.4140   -0.1040 C   0  0  0  0  0  0  0  0  0  0  0  0
   -3.0130    1.0700    0.1320 C   0  0  0  0  0  0  0  0  0  0  0  0
   -3.1180    2.4130    0.3500 C   0  0  0  0  0  0  0  0  0  0  0  0
   -4.3160    3.0680    0.5400 C   0  0  0  0  0  0  0  0  0  0  0  0
   -4.3600    4.4440    0.7600 O   0  0  0  0  0  0  0  0  0  0  0  0
   -5.4110    2.2950    0.4990 N   0  0  0  0  0  0  0  0  0  0  0  0
   -5.3520    0.9670    0.2880 C   0  0  0  0  0  0  0  0  0  0  0  0
   -4.1540    0.2870    0.0970 C   0  0  0  0  0  0  0  0  0  0  0  0
  1  2  1  0
  2  3  2  3
  3  4  1  0
  3 24  1  0
  4  5  1  0
  5  6  1  0
  5 17  2  0
  6  7  1  0
  8  7  1  6
  7 16  2  0
  8  9  1  0
  8 15  1  0
  9 10  1  0
 10 11  1  0
 11 12  1  6
 11 14  1  0
 12 13  1  0
 14 15  1  0
 16 17  1  0
 17 18  1  0
 18 19  2  0
 18 24  1  0
 19 20  1  0
 20 21  1  0
 20 22  2  0
 22 23  1  0
 23 24  2  0
M  CHG  1  12   1
M  END
