
     RDKit          3D

 24 26  0  0  0  0  0  0  0  0999 V2000
   -5.2020    2.1700   -0.0690 C   0  0  0  0  0  0  0  0  0  0  0  0
   -4.2020    1.0760   -0.1160 C   0  0  0  0  0  0  0  0  0  0  0  0
   -2.8170    1.3390   -0.0520 C   0  0  0  0  0  0  0  0  0  0  0  0
   -1.8990    0.3260   -0.0950 C   0  0  0  0  0  0  0  0  0  0  0  0
   -0.4700    0.6470   -0.0260 C   0  0  0  0  0  0  0  0  0  0  0  0
    0.4560   -0.2750   -0.0620 C   0  0  0  0  0  0  0  0  0  0  0  0
    1.9010    0.0250    0.0070 C   0  0  0  0  0  0  0  0  0  0  0  0
    2.7180   -0.9770   -0.0740 C   0  0  0  0  0  0  0  0  0  0  0  0
    4.1730   -1.0150   -0.0300 C   0  0  0  0  0  0  0  0  0  0  0  0
    4.8920   -1.4910   -1.1030 C   0  0  0  0  0  0  0  0  0  0  0  0
    6.2490   -1.6020   -1.0620 C   0  0  0  0  0  0  0  0  0  0  0  0
    6.9610   -1.2370    0.0730 C   0  0  0  0  0  0  0  0  0  0  0  0
    6.1900   -0.7690    1.1140 C   0  0  0  0  0  0  0  0  0  0  0  0
    4.8580   -0.6610    1.0710 N   0  0  0  0  0  0  0  0  0  0  0  0
    2.2600    1.3740    0.1130 N   0  0  0  0  0  0  0  0  0  0  0  0
    3.6520    1.8310    0.1360 C   0  0  0  0  0  0  0  0  0  0  0  0
    1.2220    2.3180    0.1480 N   0  0  0  0  0  0  0  0  0  0  0  0
   -0.0330    2.0260    0.0870 C   0  0  0  0  0  0  0  0  0  0  0  0
   -2.3730   -0.9630   -0.2040 C   0  0  0  0  0  0  0  0  0  0  0  0
   -3.7450   -1.2400   -0.2690 C   0  0  0  0  0  0  0  0  0  0  0  0
   -4.6630   -0.2170   -0.2250 C   0  0  0  0  0  0  0  0  0  0  0  0
   -6.1210   -0.4760   -0.2910 C   0  0  0  0  0  0  0  0  0  0  0  0
   -6.3550   -2.2540   -0.4270 S   0  0  0  0  0  0  0  0  0  0  0  0
   -6.0180   -2.8850    0.9140 O   0  0  0  0  0  0  0  0  0  0  0  0
  1  2  1  0
  2  3  2  0
  2 21  1  0
  3  4  1  0
  4  5  1  0
  4 19  2  0
  5  6  2  0
  5 18  1  0
  6  7  1  0
  7  8  2  3
  7 15  1  0
  8  9  1  0
  9 10  2  0
  9 14  1  0
 10 11  1  0
 11 12  2  0
 12 13  1  0
 13 14  2  0
 15 16  1  0
 15 17  1  0
 17 18  2  0
 19 20  1  0
 20 21  2  0
 21 22  1  0
 22 23  1  0
 23 24  2  0
M  CHG  1  14   1
M  END
