
     RDKit          3D

 20 21  0  0  0  0  0  0  0  0999 V2000
   -2.2840    2.5600   -2.7770 O   0  0  0  0  0  0  0  0  0  0  0  0
   -2.8640    1.9780   -1.8490 C   0  0  0  0  0  0  0  0  0  0  0  0
   -4.1220    2.3570   -1.4650 O   0  0  0  0  0  0  0  0  0  0  0  0
   -2.1830    0.8710   -1.1640 C   0  0  0  0  0  0  0  0  0  0  0  0
   -2.6980    0.1410   -0.1270 C   0  0  0  0  0  0  0  0  0  0  0  0
   -1.7310   -0.7990    0.2140 C   0  0  0  0  0  0  0  0  0  0  0  0
   -2.0310   -1.7870    1.2620 C   0  0  0  0  0  0  0  0  0  0  0  0
   -1.2220   -2.6740    1.5420 O   0  0  0  0  0  0  0  0  0  0  0  0
   -3.2270   -1.7750    1.9820 O   0  0  0  0  0  0  0  0  0  0  0  0
   -0.6800   -0.6420   -0.5740 N   0  0  0  0  0  0  0  0  0  0  0  0
    0.5780   -1.3130   -0.4970 C   0  0  0  0  0  0  0  0  0  0  0  0
    1.7120   -0.5570    0.0050 C   0  0  0  0  0  0  0  0  0  0  0  0
    2.6560   -0.1030   -0.9410 C   0  0  0  0  0  0  0  0  0  0  0  0
    3.7700    0.6210   -0.5940 C   0  0  0  0  0  0  0  0  0  0  0  0
    4.0040    0.9310    0.7030 C   0  0  0  0  0  0  0  0  0  0  0  0
    5.4480    1.8620    1.1030 Cl  0  0  0  0  0  0  0  0  0  0  0  0
    3.1130    0.5100    1.6590 C   0  0  0  0  0  0  0  0  0  0  0  0
    1.9720   -0.2330    1.2860 C   0  0  0  0  0  0  0  0  0  0  0  0
    0.9390   -0.6850    2.6180 Cl  0  0  0  0  0  0  0  0  0  0  0  0
   -0.9800    0.3730   -1.4010 N   0  0  0  0  0  0  0  0  0  0  0  0
  1  2  2  0
  2  3  1  0
  2  4  1  0
  4  5  1  0
  4 20  2  0
  5  6  2  0
  6  7  1  0
  6 10  1  0
  7  8  2  0
  7  9  1  0
 10 11  1  0
 10 20  1  0
 11 12  1  0
 12 13  2  0
 12 18  1  0
 13 14  1  0
 14 15  2  0
 15 16  1  0
 15 17  1  0
 17 18  2  0
 18 19  1  0
M  END
