
     RDKit          3D

 24 27  0  0  0  0  0  0  0  0999 V2000
   -4.8140    1.2370    2.5890 C   0  0  0  0  0  0  0  0  0  0  0  0
   -3.9070    0.5940    1.5710 C   0  0  0  0  0  0  0  0  0  0  0  0
   -4.4810   -0.0760    0.5120 C   0  0  0  0  0  0  0  0  0  0  0  0
   -3.6370   -0.6380   -0.3760 N   0  0  0  0  0  0  0  0  0  0  0  0
   -2.2930   -0.5140   -0.1820 C   0  0  0  0  0  0  0  0  0  0  0  0
   -0.9350   -1.1330   -1.1620 S   0  0  0  0  0  0  0  0  0  0  0  0
    0.3550   -0.4840   -0.1370 C   0  0  0  0  0  0  0  0  0  0  0  0
    1.8150   -0.6410   -0.3870 C   0  0  1  0  0  0  0  0  0  0  0  0
    1.9870   -1.1460   -1.7940 C   0  0  0  0  0  0  0  0  0  0  0  0
    2.4390    0.6390   -0.1750 N   0  0  0  0  0  0  0  0  0  0  0  0
    3.6160    0.8450   -0.9480 C   0  0  0  0  0  0  0  0  0  0  0  0
    4.8630    0.3480   -0.3230 C   0  0  0  0  0  0  0  0  0  0  0  0
    4.9120   -0.3110    0.8940 C   0  0  0  0  0  0  0  0  0  0  0  0
    6.1150   -0.7420    1.4090 C   0  0  0  0  0  0  0  0  0  0  0  0
    7.2920   -0.5400    0.7480 N   0  0  0  0  0  0  0  0  0  0  0  0
    7.2750    0.1030   -0.4470 C   0  0  0  0  0  0  0  0  0  0  0  0
    6.0780    0.5350   -0.9650 C   0  0  0  0  0  0  0  0  0  0  0  0
   -0.3220    0.1340    0.8400 C   0  0  0  0  0  0  0  0  0  0  0  0
   -1.6730    0.1260    0.8290 C   0  0  0  0  0  0  0  0  0  0  0  0
   -2.5610    0.7180    1.7650 C   0  0  0  0  0  0  0  0  0  0  0  0
   -2.1330    1.3470    2.7590 O   0  0  0  0  0  0  0  0  0  0  0  0
   -4.4060   -1.3020   -1.4250 C   0  0  0  0  0  0  0  0  0  0  0  0
   -5.6950   -0.5160   -1.4150 C   0  0  0  0  0  0  0  0  0  0  0  0
   -5.8780   -0.3390    0.0990 C   0  0  0  0  0  0  0  0  0  0  0  0
  1  2  1  0
  2  3  2  0
  2 20  1  0
  3  4  1  0
  3 24  1  0
  4  5  1  0
  4 22  1  0
  5  6  1  0
  5 19  2  0
  6  7  1  0
  7  8  1  0
  7 18  2  0
  8  9  1  6
  8 10  1  0
 10 11  1  0
 11 12  1  0
 12 13  2  0
 12 17  1  0
 13 14  1  0
 14 15  2  0
 15 16  1  0
 16 17  2  0
 18 19  1  0
 19 20  1  0
 20 21  2  0
 22 23  1  0
 23 24  1  0
M  CHG  1  10   1
M  END
