
     RDKit          3D

 24 27  0  0  0  0  0  0  0  0999 V2000
   -1.6380   -1.8440    3.3170 C   0  0  0  0  0  0  0  0  0  0  0  0
   -1.4810   -1.0650    2.1850 O   0  0  0  0  0  0  0  0  0  0  0  0
   -2.4460   -1.0480    1.1700 C   0  0  0  0  0  0  0  0  0  0  0  0
   -3.5980   -1.7570    1.1640 C   0  0  0  0  0  0  0  0  0  0  0  0
   -4.4620   -1.6580    0.0910 C   0  0  0  0  0  0  0  0  0  0  0  0
   -4.1600   -0.8350   -0.9800 C   0  0  0  0  0  0  0  0  0  0  0  0
   -5.1230   -0.7030   -2.0010 C   0  0  0  0  0  0  0  0  0  0  0  0
   -4.8950    0.1680   -3.0070 C   0  0  0  0  0  0  0  0  0  0  0  0
   -3.7310    0.9000   -3.0240 C   0  0  0  0  0  0  0  0  0  0  0  0
   -2.7700    0.7920   -2.0470 C   0  0  0  0  0  0  0  0  0  0  0  0
   -2.9900   -0.1050   -0.9830 C   0  0  0  0  0  0  0  0  0  0  0  0
   -2.1320   -0.1960    0.0620 C   0  0  0  0  0  0  0  0  0  0  0  0
   -0.9580    0.6350    0.3040 C   0  0  0  0  0  0  0  0  0  0  0  0
    0.2420    0.2760   -0.4310 N   0  0  0  0  0  0  0  0  0  0  0  0
    1.5090    0.6470    0.1560 C   0  0  0  0  0  0  0  0  0  0  0  0
    1.5010    1.4310    1.2950 C   0  0  0  0  0  0  0  0  0  0  0  0
    2.7390    1.7270    1.8640 C   0  0  0  0  0  0  0  0  0  0  0  0
    3.8960    1.2960    1.3560 N   0  0  0  0  0  0  0  0  0  0  0  0
    3.9010    0.5210    0.2170 C   0  0  0  0  0  0  0  0  0  0  0  0
    2.6660    0.2180   -0.3540 C   0  0  0  0  0  0  0  0  0  0  0  0
    3.1020   -0.8620   -1.7470 S   0  0  0  0  0  0  0  0  0  0  0  0
    4.7720   -1.2930   -1.0400 C   0  0  0  0  0  0  0  0  0  0  0  0
    5.0200    0.0260   -0.4640 N   0  0  0  0  0  0  0  0  0  0  0  0
    6.2880    0.7470   -0.6170 C   0  0  0  0  0  0  0  0  0  0  0  0
  1  2  1  0
  2  3  1  0
  3  4  2  0
  3 12  1  0
  4  5  1  0
  5  6  2  0
  6  7  1  0
  6 11  1  0
  7  8  2  0
  8  9  1  0
  9 10  2  0
 10 11  1  0
 11 12  2  0
 12 13  1  0
 13 14  1  0
 14 15  1  0
 15 16  2  0
 15 20  1  0
 16 17  1  0
 17 18  2  0
 18 19  1  0
 19 20  2  0
 19 23  1  0
 20 21  1  0
 21 22  1  0
 22 23  1  0
 23 24  1  0
M  CHG  1  18   1
M  END
