
     RDKit          3D

 10 10  0  0  0  0  0  0  0  0999 V2000
    2.8460    0.8480    0.1110 O   0  0  0  0  0  0  0  0  0  0  0  0
    2.0700   -0.2490   -0.2930 C   0  0  0  0  0  0  0  0  0  0  0  0
    0.7140   -0.0900    0.3290 C   0  0  1  0  0  0  0  0  0  0  0  0
    0.8620   -0.0680    1.7030 O   0  0  0  0  0  0  0  0  0  0  0  0
    0.1220    1.2050   -0.1340 C   0  0  0  0  0  0  0  0  0  0  0  0
   -1.3240    1.3280    0.2330 C   0  0  0  0  0  0  0  0  0  0  0  0
   -2.0950    0.1580   -0.1030 N   0  0  0  0  0  0  0  0  0  0  0  0
   -1.5680   -1.0370    0.5190 C   0  0  0  0  0  0  0  0  0  0  0  0
   -0.1870   -1.2570   -0.0750 C   0  0  1  0  0  0  0  0  0  0  0  0
   -0.3560   -1.2290   -1.4670 O   0  0  0  0  0  0  0  0  0  0  0  0
  1  2  1  0
  2  3  1  0
  3  4  1  1
  3  5  1  0
  3  9  1  0
  5  6  1  0
  6  7  1  0
  7  8  1  0
  8  9  1  0
  9 10  1  6
M  CHG  1   7   1
M  END
