
     RDKit          3D

 10 10  0  0  0  0  0  0  0  0999 V2000
   -1.1510   -1.8190   -0.7240 N   0  0  0  0  0  0  0  0  0  0  0  0
   -0.7050   -0.7750    0.2070 C   0  0  2  0  0  0  0  0  0  0  0  0
   -1.8230    0.2180    0.4000 C   0  0  0  0  0  0  0  0  0  0  0  0
   -1.4330    1.2010    1.2740 O   0  0  0  0  0  0  0  0  0  0  0  0
   -2.3760    2.0900    1.4740 O   0  0  0  0  0  0  0  0  0  0  0  0
    0.5180   -0.0790   -0.3530 C   0  0  1  0  0  0  0  0  0  0  0  0
    1.1870    0.8020    0.6340 C   0  0  0  0  0  0  0  0  0  0  0  0
    2.5000    0.7710    0.3340 C   0  0  0  0  0  0  0  0  0  0  0  0
    2.6030   -0.1400   -0.8440 C   0  0  0  0  0  0  0  0  0  0  0  0
    1.5540   -1.0310   -0.5610 O   0  0  0  0  0  0  0  0  0  0  0  0
  2  1  1  6
  2  3  1  0
  2  6  1  0
  3  4  1  0
  4  5  1  0
  6  7  1  0
  6 10  1  1
  7  8  2  0
  8  9  1  0
  9 10  1  0
M  CHG  1   1   1
M  END
