
     RDKit          3D

 10 10  0  0  0  0  0  0  0  0999 V2000
   -0.3520   -2.1650    0.4730 N   0  0  0  0  0  0  0  0  0  0  0  0
   -0.1270   -0.9820   -0.3370 C   0  0  1  0  0  0  0  0  0  0  0  0
   -1.3940   -0.6420   -1.0980 C   0  0  0  0  0  0  0  0  0  0  0  0
   -2.1010    0.3440   -0.4320 O   0  0  0  0  0  0  0  0  0  0  0  0
   -1.4430    1.5590   -0.5110 C   0  0  0  0  0  0  0  0  0  0  0  0
   -0.0400    1.5040   -0.0010 C   0  0  0  0  0  0  0  0  0  0  0  0
    0.3450    0.1420    0.5240 C   0  0  1  0  0  0  0  0  0  0  0  0
   -0.1490    0.0460    1.8210 O   0  0  0  0  0  0  0  0  0  0  0  0
    1.8790    0.1180    0.5590 C   0  0  0  0  0  0  0  0  0  0  0  0
    2.4010    0.2120   -0.7100 O   0  0  0  0  0  0  0  0  0  0  0  0
  2  1  1  1
  2  3  1  0
  2  7  1  0
  3  4  1  0
  4  5  1  0
  5  6  1  0
  6  7  1  0
  7  8  1  1
  7  9  1  0
  9 10  1  0
M  CHG  1   1   1
M  END
