
     RDKit          3D

 10 10  0  0  0  0  0  0  0  0999 V2000
    2.5610    0.2130    0.4190 N   0  0  0  0  0  0  0  0  0  0  0  0
    1.1860    0.5150    0.8430 C   0  0  0  0  0  0  0  0  0  0  0  0
    0.2860   -0.1390   -0.1530 C   0  0  1  0  0  0  0  0  0  0  0  0
    0.4800    0.3210   -1.4340 O   0  0  0  0  0  0  0  0  0  0  0  0
    0.4640   -1.6450   -0.1340 C   0  0  0  0  0  0  0  0  0  0  0  0
   -0.7130   -2.1890   -0.6130 O   0  0  0  0  0  0  0  0  0  0  0  0
   -1.6370   -1.1800   -0.7510 C   0  0  0  0  0  0  0  0  0  0  0  0
   -1.1730   -0.0890    0.1970 C   0  0  2  0  0  0  0  0  0  0  0  0
   -1.8130    1.2350   -0.0770 C   0  0  0  0  0  0  0  0  0  0  0  0
   -1.1630    2.2000    0.6730 O   0  0  0  0  0  0  0  0  0  0  0  0
  1  2  1  0
  2  3  1  0
  3  4  1  6
  3  5  1  0
  3  8  1  0
  5  6  1  0
  6  7  1  0
  7  8  1  0
  8  9  1  6
  9 10  1  0
M  CHG  1   1   1
M  END
