
     RDKit          3D

  9  8  0  0  0  0  0  0  0  0999 V2000
    2.9440    0.3670    0.1530 C   0  0  0  0  0  0  0  0  0  0  0  0
    1.5920    0.4790   -0.3310 N   0  0  0  0  0  0  0  0  0  0  0  0
    0.6100    0.2120    0.6920 C   0  0  0  0  0  0  0  0  0  0  0  0
   -0.5870   -0.4940    0.0720 C   0  0  2  0  0  0  0  0  0  0  0  0
   -0.1180   -1.6810   -0.4820 O   0  0  0  0  0  0  0  0  0  0  0  0
   -1.1270    0.3760   -1.0110 C   0  0  0  0  0  0  0  0  0  0  0  0
   -1.6400    1.6280   -0.5680 N   0  0  0  0  0  0  0  0  0  0  0  0
   -1.6340   -0.8200    1.1050 C   0  0  0  0  0  0  0  0  0  0  0  0
   -1.1460   -1.6100    2.1270 O   0  0  0  0  0  0  0  0  0  0  0  0
  1  2  1  0
  2  3  1  0
  3  4  1  0
  4  5  1  6
  4  6  1  0
  4  8  1  0
  6  7  1  0
  8  9  1  0
M  CHG  1   2   1
M  END
