
     RDKit          3D

  9  9  0  0  0  0  0  0  0  0999 V2000
   -1.0120    1.9390   -0.1340 N   0  0  0  0  0  0  0  0  0  0  0  0
    0.0410    0.9940   -0.0250 C   0  0  0  0  0  0  0  0  0  0  0  0
    1.2780    1.4090    0.2470 C   0  0  0  0  0  0  0  0  0  0  0  0
    2.2750    0.5070    0.3490 O   0  0  0  0  0  0  0  0  0  0  0  0
    2.1380   -0.8630    0.1950 C   0  0  0  0  0  0  0  0  0  0  0  0
    0.7610   -1.2770   -0.1030 C   0  0  0  0  0  0  0  0  0  0  0  0
   -0.2160   -0.4280   -0.2070 C   0  0  0  0  0  0  0  0  0  0  0  0
   -1.6050   -0.8800   -0.5110 C   0  0  0  0  0  0  0  0  0  0  0  0
   -2.5010   -0.5310    0.4930 O   0  0  0  0  0  0  0  0  0  0  0  0
  1  2  1  0
  2  3  2  0
  2  7  1  0
  3  4  1  0
  4  5  1  0
  5  6  1  0
  6  7  2  0
  7  8  1  0
  8  9  1  0
M  END
