
     RDKit          3D

  9  9  0  0  0  0  0  0  0  0999 V2000
   -3.2920    0.3550    0.7690 N   0  0  0  0  0  0  0  0  0  0  0  0
   -2.4640    0.3620   -0.4150 C   0  0  0  0  0  0  0  0  0  0  0  0
   -1.0530    0.3820    0.0070 C   0  0  0  0  0  0  0  0  0  0  0  0
   -0.1940   -0.5670   -0.3150 C   0  0  0  0  0  0  0  0  0  0  0  0
    1.2060   -0.5160    0.1230 C   0  0  0  0  0  0  0  0  0  0  0  0
    2.1700   -1.3840   -0.1190 C   0  0  0  0  0  0  0  0  0  0  0  0
    3.3520   -0.9940    0.4590 O   0  0  0  0  0  0  0  0  0  0  0  0
    3.1970    0.3940    0.7360 C   0  0  0  0  0  0  0  0  0  0  0  0
    1.7960    0.4830    0.8960 O   0  0  0  0  0  0  0  0  0  0  0  0
  1  2  1  0
  2  3  1  0
  3  4  2  3
  4  5  1  0
  5  6  2  0
  5  9  1  0
  6  7  1  0
  7  8  1  0
  8  9  1  0
M  END
