
     RDKit          3D

 11 11  0  0  0  0  0  0  0  0999 V2000
   -3.2860    1.0110   -0.1810 O   0  0  0  0  0  0  0  0  0  0  0  0
   -2.0660    0.7370   -0.0450 C   0  0  0  0  0  0  0  0  0  0  0  0
   -1.1270    1.8060   -0.0590 N   0  0  0  0  0  0  0  0  0  0  0  0
    0.2700    1.4340   -0.2730 C   0  0  0  0  0  0  0  0  0  0  0  0
    0.5730    0.2910    0.6380 C   0  0  2  0  0  0  0  0  0  0  0  0
    2.0290   -0.1160    0.3760 C   0  0  0  0  0  0  0  0  0  0  0  0
    2.8790    0.9600    0.6410 O   0  0  0  0  0  0  0  0  0  0  0  0
   -0.2680   -0.9140    0.4400 C   0  0  2  0  0  0  0  0  0  0  0  0
    0.3160   -1.6860   -0.5820 O   0  0  0  0  0  0  0  0  0  0  0  0
   -1.6910   -0.6720    0.1170 C   0  0  2  0  0  0  0  0  0  0  0  0
   -2.0560   -1.3350   -1.0760 O   0  0  0  0  0  0  0  0  0  0  0  0
  1  2  2  0
  2  3  1  0
  2 10  1  0
  3  4  1  0
  4  5  1  0
  5  6  1  6
  5  8  1  0
  6  7  1  0
  8  9  1  6
  8 10  1  0
 10 11  1  6
M  END
