
     RDKit          3D

  9  9  0  0  0  0  0  0  0  0999 V2000
    3.1210    0.4410   -0.1740 C   0  0  0  0  0  0  0  0  0  0  0  0
    1.7380    0.6800   -0.2650 O   0  0  0  0  0  0  0  0  0  0  0  0
    1.1110   -0.4380    0.2570 C   0  0  0  0  0  0  0  0  0  0  0  0
   -0.3700   -0.3160    0.2220 C   0  0  0  0  0  0  0  0  0  0  0  0
   -0.9590    0.7550   -0.2620 C   0  0  0  0  0  0  0  0  0  0  0  0
   -2.4400    0.8540   -0.2870 C   0  0  0  0  0  0  0  0  0  0  0  0
   -3.0810   -0.2730    0.2390 O   0  0  0  0  0  0  0  0  0  0  0  0
   -2.4370   -1.3940    0.7450 C   0  0  0  0  0  0  0  0  0  0  0  0
   -1.1470   -1.3880    0.7240 N   0  0  0  0  0  0  0  0  0  0  0  0
  1  2  1  0
  2  3  1  0
  3  4  1  0
  4  5  2  0
  4  9  1  0
  5  6  1  0
  6  7  1  0
  7  8  1  0
  8  9  2  0
M  END
