
     RDKit          3D

 13 13  0  0  0  0  0  0  0  0999 V2000
    4.4340    0.2000   -0.2860 C   0  0  0  0  0  0  0  0  0  0  0  0
    3.3410    0.8680    0.5060 C   0  0  0  0  0  0  0  0  0  0  0  0
    2.0570    0.6390    0.0010 O   0  0  0  0  0  0  0  0  0  0  0  0
    1.4780   -0.6130   -0.1340 C   0  0  0  0  0  0  0  0  0  0  0  0
    2.2000   -1.5750    0.2390 O   0  0  0  0  0  0  0  0  0  0  0  0
    0.1610   -0.8950   -0.6500 C   0  0  0  0  0  0  0  0  0  0  0  0
   -0.7210    0.1580   -0.9730 N   0  0  0  0  0  0  0  0  0  0  0  0
   -1.9180   -0.4850   -1.5840 C   0  0  0  0  0  0  0  0  0  0  0  0
   -2.6110   -1.4070   -0.6530 C   0  0  0  0  0  0  0  0  0  0  0  0
   -2.7820   -0.9790    0.6760 N   0  0  0  0  0  0  0  0  0  0  0  0
   -1.9450    0.0650    1.1590 C   0  0  0  0  0  0  0  0  0  0  0  0
   -1.2990    0.9050    0.0950 C   0  0  1  0  0  0  0  0  0  0  0  0
   -0.4490    1.9710    0.7130 C   0  0  0  0  0  0  0  0  0  0  0  0
  1  2  1  0
  2  3  1  0
  3  4  1  0
  4  5  2  0
  4  6  1  0
  6  7  1  0
  7  8  1  0
  7 12  1  0
  8  9  1  0
  9 10  1  0
 10 11  1  0
 11 12  1  0
 12 13  1  1
M  CHG  1  10   1
M  END
