
     RDKit          3D

 30 33  0  0  0  0  0  0  0  0999 V2000
   -6.2120   -3.3490   -1.3990 C   0  0  0  0  0  0  0  0  0  0  0  0
   -4.9150   -2.8500   -0.9140 C   0  0  0  0  0  0  0  0  0  0  0  0
   -4.7160   -1.6060   -0.5630 C   0  0  0  0  0  0  0  0  0  0  0  0
   -3.3850   -1.1210   -0.0690 C   0  0  0  0  0  0  0  0  0  0  0  0
   -3.5610   -0.0410    0.8750 N   0  0  0  0  0  0  0  0  0  0  0  0
   -2.4440    0.6990    1.3030 C   0  0  0  0  0  0  0  0  0  0  0  0
   -2.5820    1.6570    2.1380 O   0  0  0  0  0  0  0  0  0  0  0  0
   -1.0570    0.4490    0.8440 C   0  0  0  0  0  0  0  0  0  0  0  0
   -0.0640    1.3870    1.4330 C   0  0  0  0  0  0  0  0  0  0  0  0
    1.2550    1.0450    0.9090 N   0  0  0  0  0  0  0  0  0  0  0  0
    2.1410    0.2070    1.4130 N   0  0  0  0  0  0  0  0  0  0  0  0
    3.2300    0.1750    0.6370 C   0  0  0  0  0  0  0  0  0  0  0  0
    4.4420   -0.6630    0.8960 C   0  0  0  0  0  0  0  0  0  0  0  0
    5.5720    0.2610    1.9060 S   0  0  0  0  0  0  0  0  0  0  0  0
    6.2880    1.6710    1.1070 C   0  0  0  0  0  0  0  0  0  0  0  0
    7.3690    1.3800    0.1540 C   0  0  0  0  0  0  0  0  0  0  0  0
    7.0440    0.5060   -0.9490 C   0  0  0  0  0  0  0  0  0  0  0  0
    7.3140   -0.8650   -1.0250 C   0  0  0  0  0  0  0  0  0  0  0  0
    6.8820   -1.3530   -2.1810 N   0  0  0  0  0  0  0  0  0  0  0  0
    6.3430   -0.3420   -2.8470 N   0  0  0  0  0  0  0  0  0  0  0  0
    6.4120    0.7960   -2.1580 C   0  0  0  0  0  0  0  0  0  0  0  0
    3.0410    1.0090   -0.3860 N   0  0  0  0  0  0  0  0  0  0  0  0
    1.8260    1.5430   -0.2160 C   0  0  0  0  0  0  0  0  0  0  0  0
    1.2550    2.3860   -0.9650 O   0  0  0  0  0  0  0  0  0  0  0  0
   -4.8720    0.3070    1.3940 C   0  0  0  0  0  0  0  0  0  0  0  0
   -5.8860    0.3270    0.3290 C   0  0  0  0  0  0  0  0  0  0  0  0
   -6.9530    1.1000    0.0340 C   0  0  0  0  0  0  0  0  0  0  0  0
   -7.5330    0.6110   -1.1450 C   0  0  0  0  0  0  0  0  0  0  0  0
   -6.8080   -0.4520   -1.5470 N   0  0  0  0  0  0  0  0  0  0  0  0
   -5.7960   -0.6350   -0.6520 C   0  0  0  0  0  0  0  0  0  0  0  0
  1  2  1  0
  2  3  2  3
  3  4  1  0
  3 30  1  0
  4  5  1  0
  5  6  1  0
  5 25  1  0
  6  7  2  0
  6  8  1  0
  8  9  1  0
  9 10  1  0
 10 11  1  0
 10 23  1  0
 11 12  2  0
 12 13  1  0
 12 22  1  0
 13 14  1  0
 14 15  1  0
 15 16  1  0
 16 17  1  0
 17 18  1  0
 17 21  2  0
 18 19  2  0
 19 20  1  0
 20 21  1  0
 22 23  1  0
 23 24  2  0
 25 26  1  0
 26 27  1  0
 26 30  2  0
 27 28  2  0
 28 29  1  0
 29 30  1  0
M  END
