
     RDKit          3D

 30 33  0  0  0  0  0  0  0  0999 V2000
   -9.4590    2.4070   -2.2760 C   0  0  0  0  0  0  0  0  0  0  0  0
   -8.4850    1.4570   -1.7520 N   0  0  0  0  0  0  0  0  0  0  0  0
   -8.1230    1.2810   -0.4450 C   0  0  0  0  0  0  0  0  0  0  0  0
   -7.1770    0.2870   -0.3770 C   0  0  0  0  0  0  0  0  0  0  0  0
   -6.5550   -0.1890    0.7740 N   0  0  0  0  0  0  0  0  0  0  0  0
   -5.2870   -0.3960    0.8920 C   0  0  0  0  0  0  0  0  0  0  0  0
   -4.7400   -0.8590    2.0310 N   0  0  0  0  0  0  0  0  0  0  0  0
   -3.4040   -0.9820    1.8800 C   0  0  0  0  0  0  0  0  0  0  0  0
   -2.3760   -1.3970    2.6960 C   0  0  0  0  0  0  0  0  0  0  0  0
   -1.0880   -1.4020    2.2190 C   0  0  0  0  0  0  0  0  0  0  0  0
   -0.7420   -1.0150    0.9590 C   0  0  0  0  0  0  0  0  0  0  0  0
    0.5650   -0.9980    0.4090 N   0  0  0  0  0  0  0  0  0  0  0  0
    1.7490   -1.3720    1.0430 C   0  0  0  0  0  0  0  0  0  0  0  0
    1.7240   -1.7750    2.2230 O   0  0  0  0  0  0  0  0  0  0  0  0
    3.0840   -1.3030    0.3320 C   0  0  0  0  0  0  0  0  0  0  0  0
    4.1320   -1.7780    1.3090 C   0  0  0  0  0  0  0  0  0  0  0  0
    5.4530   -1.7620    0.7550 N   0  0  0  0  0  0  0  0  0  0  0  0
    6.0770   -0.5770    0.2760 C   0  0  0  0  0  0  0  0  0  0  0  0
    5.4230    0.4930    0.3510 O   0  0  0  0  0  0  0  0  0  0  0  0
    7.4480   -0.6070   -0.2920 C   0  0  0  0  0  0  0  0  0  0  0  0
    7.8390    0.7600   -0.7080 C   0  0  0  0  0  0  0  0  0  0  0  0
    8.4600    1.7500   -0.0280 C   0  0  0  0  0  0  0  0  0  0  0  0
    8.7050    2.9120   -0.6350 C   0  0  0  0  0  0  0  0  0  0  0  0
    8.3200    3.0780   -1.9420 C   0  0  0  0  0  0  0  0  0  0  0  0
    7.5550    1.4650   -2.3320 S   0  0  0  0  0  0  0  0  0  0  0  0
   -1.8120   -0.5970    0.1480 C   0  0  0  0  0  0  0  0  0  0  0  0
   -3.1110   -0.5770    0.5870 C   0  0  0  0  0  0  0  0  0  0  0  0
   -4.2970   -0.2280    0.0250 N   0  0  0  0  0  0  0  0  0  0  0  0
   -6.9700   -0.1380   -1.6630 C   0  0  0  0  0  0  0  0  0  0  0  0
   -7.7690    0.5860   -2.4430 N   0  0  0  0  0  0  0  0  0  0  0  0
  1  2  1  0
  2  3  1  0
  2 30  1  0
  3  4  2  0
  4  5  1  0
  4 29  1  0
  5  6  2  3
  6  7  1  0
  6 28  1  0
  7  8  1  0
  8  9  2  0
  8 27  1  0
  9 10  1  0
 10 11  2  0
 11 12  1  0
 11 26  1  0
 12 13  1  0
 13 14  2  0
 13 15  1  0
 15 16  1  0
 16 17  1  0
 17 18  1  0
 18 19  2  0
 18 20  1  0
 20 21  1  0
 21 22  2  0
 21 25  1  0
 22 23  1  0
 23 24  2  0
 24 25  1  0
 26 27  2  0
 27 28  1  0
 29 30  2  0
M  END
