
     RDKit          3D

 30 33  0  0  0  0  0  0  0  0999 V2000
   -5.5280    1.8750    2.7670 C   0  0  0  0  0  0  0  0  0  0  0  0
   -4.4090    1.3560    1.9640 C   0  0  0  0  0  0  0  0  0  0  0  0
   -4.6690    0.4790    0.9730 C   0  0  0  0  0  0  0  0  0  0  0  0
   -5.9810    0.0500    0.6890 N   0  0  0  0  0  0  0  0  0  0  0  0
   -5.8270   -1.0460   -0.6270 S   0  0  1  0  0  0  0  0  0  0  0  0
   -6.2690   -2.4100   -0.1980 O   0  0  0  0  0  0  0  0  0  0  0  0
   -6.5380   -0.5740   -1.8530 O   0  0  0  0  0  0  0  0  0  0  0  0
   -4.0890   -0.9410   -0.7960 C   0  0  0  0  0  0  0  0  0  0  0  0
   -3.3250   -1.7050   -1.8250 C   0  0  0  0  0  0  0  0  0  0  0  0
   -3.8510   -1.2750   -3.1810 C   0  0  0  0  0  0  0  0  0  0  0  0
   -3.6570   -0.1090    0.1100 C   0  0  0  0  0  0  0  0  0  0  0  0
   -2.2370    0.1770    0.2080 N   0  0  0  0  0  0  0  0  0  0  0  0
   -1.4330   -0.6910    1.0030 C   0  0  0  0  0  0  0  0  0  0  0  0
    0.0120   -0.3260    1.0490 C   0  0  0  0  0  0  0  0  0  0  0  0
    0.6820   -0.3230   -0.2840 C   0  0  0  0  0  0  0  0  0  0  0  0
    2.0970    0.0420   -0.1850 N   0  0  0  0  0  0  0  0  0  0  0  0
    3.0440   -0.8890   -0.0060 C   0  0  0  0  0  0  0  0  0  0  0  0
    2.7280   -2.3300    0.1390 C   0  0  2  0  0  0  0  0  0  0  0  0
    3.7840   -3.1600    0.7980 C   0  0  0  0  0  0  0  0  0  0  0  0
    3.6360   -3.3080   -0.6570 C   0  0  0  0  0  0  0  0  0  0  0  0
    4.3410   -0.5200    0.0640 N   0  0  0  0  0  0  0  0  0  0  0  0
    4.7530    0.7330   -0.0340 C   0  0  0  0  0  0  0  0  0  0  0  0
    6.0500    1.0760    0.0390 N   0  0  0  0  0  0  0  0  0  0  0  0
    6.4370    2.3710   -0.0650 C   0  0  0  0  0  0  0  0  0  0  0  0
    7.8330    2.6290    0.0250 N   0  0  0  0  0  0  0  0  0  0  0  0
    5.5350    3.3950   -0.2500 C   0  0  0  0  0  0  0  0  0  0  0  0
    4.2000    3.0560   -0.3260 C   0  0  0  0  0  0  0  0  0  0  0  0
    3.8220    1.7280   -0.2180 C   0  0  0  0  0  0  0  0  0  0  0  0
    2.4780    1.3320   -0.2890 C   0  0  0  0  0  0  0  0  0  0  0  0
    1.6510    2.2810   -0.4410 N   0  0  0  0  0  0  0  0  0  0  0  0
  1  2  1  0
  2  3  2  3
  3  4  1  0
  3 11  1  0
  5  4  1  1
  5  6  2  0
  5  7  2  0
  5  8  1  0
  8  9  1  0
  8 11  2  0
  9 10  1  0
 11 12  1  0
 12 13  1  0
 13 14  1  0
 14 15  1  0
 15 16  1  0
 16 17  1  0
 16 29  1  0
 18 17  1  6
 17 21  2  0
 18 19  1  0
 18 20  1  0
 19 20  1  0
 21 22  1  0
 22 23  2  0
 22 28  1  0
 23 24  1  0
 24 25  1  0
 24 26  2  0
 26 27  1  0
 27 28  2  0
 28 29  1  0
 29 30  2  0
M  END
