
     RDKit          3D

 23 26  0  0  0  0  0  0  0  0999 V2000
    6.8170    1.8510    0.4490 C   0  0  0  0  0  0  0  0  0  0  0  0
    5.7720    0.8800    0.1030 C   0  0  0  0  0  0  0  0  0  0  0  0
    4.5480    1.1760   -0.4030 C   0  0  0  0  0  0  0  0  0  0  0  0
    3.8700   -0.0970   -0.5790 C   0  0  0  0  0  0  0  0  0  0  0  0
    2.8160   -0.8320   -0.6200 C   0  0  0  0  0  0  0  0  0  0  0  0
    1.4520   -0.3000   -0.4040 C   0  0  0  0  0  0  0  0  0  0  0  0
    1.3060    0.9150   -0.1700 O   0  0  0  0  0  0  0  0  0  0  0  0
    0.3250   -1.1390   -0.4580 N   0  0  0  0  0  0  0  0  0  0  0  0
   -1.0240   -0.7900   -0.2820 C   0  0  0  0  0  0  0  0  0  0  0  0
   -2.0080   -1.7790   -0.1670 C   0  0  0  0  0  0  0  0  0  0  0  0
   -3.3420   -1.4700   -0.0030 C   0  0  0  0  0  0  0  0  0  0  0  0
   -3.7420   -0.1580    0.0510 C   0  0  0  0  0  0  0  0  0  0  0  0
   -5.1320    0.1540    0.2170 N   0  0  0  0  0  0  0  0  0  0  0  0
   -5.5850    1.4710    0.3670 C   0  0  0  0  0  0  0  0  0  0  0  0
   -6.8290    1.7160    0.0450 C   0  0  0  0  0  0  0  0  0  0  0  0
   -7.5170    0.1600   -0.4980 S   0  0  0  0  0  0  0  0  0  0  0  0
   -6.1600   -0.8580    0.2410 C   0  0  0  0  0  0  0  0  0  0  0  0
   -2.8060    0.7790   -0.0590 N   0  0  0  0  0  0  0  0  0  0  0  0
   -1.4690    0.4890   -0.2230 C   0  0  0  0  0  0  0  0  0  0  0  0
    3.1750   -2.2130   -0.8370 N   0  0  0  0  0  0  0  0  0  0  0  0
    4.4590   -2.2560   -0.9380 N   0  0  0  0  0  0  0  0  0  0  0  0
    5.0630   -1.0300   -0.8360 C   0  0  2  0  0  0  0  0  0  0  0  0
    5.8330   -0.5590    0.2270 O   0  0  0  0  0  0  0  0  0  0  0  0
  1  2  1  0
  2  3  2  0
  2 23  1  0
  3  4  1  0
  4  5  2  0
  4 22  1  0
  5  6  1  0
  5 20  1  0
  6  7  2  0
  6  8  1  0
  8  9  1  0
  9 10  2  0
  9 19  1  0
 10 11  1  0
 11 12  2  0
 12 13  1  0
 12 18  1  0
 13 14  1  0
 13 17  1  0
 14 15  2  0
 15 16  1  0
 16 17  1  0
 18 19  2  0
 20 21  2  0
 21 22  1  0
 22 23  1  1
M  END
