
     RDKit          3D

 23 25  0  0  0  0  0  0  0  0999 V2000
    1.8720    3.9240    0.6560 C   0  0  0  0  0  0  0  0  0  0  0  0
    2.6020    2.7180    0.6590 N   0  0  0  0  0  0  0  0  0  0  0  0
    2.2900    1.5220    0.4840 C   0  0  0  0  0  0  0  0  0  0  0  0
    3.3730    0.5490    0.5690 N   0  0  0  0  0  0  0  0  0  0  0  0
    3.7310   -0.1320   -0.4450 C   0  0  0  0  0  0  0  0  0  0  0  0
    3.1780   -0.0920   -1.8110 C   0  0  0  0  0  0  0  0  0  0  0  0
    3.3560   -1.3740   -2.3050 O   0  0  0  0  0  0  0  0  0  0  0  0
    4.3820   -1.9910   -1.6520 C   0  0  0  0  0  0  0  0  0  0  0  0
    4.8060   -1.1400   -0.4880 C   0  0  2  0  0  0  0  0  0  0  0  0
    4.9440   -1.8970    0.7130 N   0  0  0  0  0  0  0  0  0  0  0  0
    3.7220   -2.6450    0.9370 C   0  0  0  0  0  0  0  0  0  0  0  0
    0.6910    0.8730    0.1440 S   0  0  0  0  0  0  0  0  0  0  0  0
   -0.6410    2.0460    0.0640 C   0  0  0  0  0  0  0  0  0  0  0  0
   -1.9560    1.3640   -0.2550 C   0  0  0  0  0  0  0  0  0  0  0  0
   -2.8600    0.8550    0.6010 N   0  0  0  0  0  0  0  0  0  0  0  0
   -3.8970    0.3330   -0.0780 C   0  0  0  0  0  0  0  0  0  0  0  0
   -5.0970   -0.3190    0.4310 C   0  0  0  0  0  0  0  0  0  0  0  0
   -5.4200   -0.5340    1.6850 C   0  0  0  0  0  0  0  0  0  0  0  0
   -6.7350   -1.2320    1.7910 C   0  0  0  0  0  0  0  0  0  0  0  0
   -7.1160   -1.3830    0.3660 C   0  0  0  0  0  0  0  0  0  0  0  0
   -6.1760   -0.8610   -0.3810 C   0  0  0  0  0  0  0  0  0  0  0  0
   -3.5890    0.5430   -1.3770 N   0  0  0  0  0  0  0  0  0  0  0  0
   -2.4290    1.1580   -1.4550 O   0  0  0  0  0  0  0  0  0  0  0  0
  1  2  1  0
  2  3  2  3
  3  4  1  0
  3 12  1  0
  4  5  2  3
  5  6  1  0
  5  9  1  0
  6  7  1  0
  7  8  1  0
  8  9  1  0
  9 10  1  1
 10 11  1  0
 12 13  1  0
 13 14  1  0
 14 15  2  0
 14 23  1  0
 15 16  1  0
 16 17  1  0
 16 22  2  0
 17 18  2  0
 17 21  1  0
 18 19  1  0
 19 20  1  0
 20 21  2  0
 22 23  1  0
M  END
