
     RDKit          3D

 23 26  0  0  0  0  0  0  0  0999 V2000
   -6.1700   -2.3560    0.3520 O   0  0  0  0  0  0  0  0  0  0  0  0
   -5.3320   -1.3170    0.0010 C   0  0  0  0  0  0  0  0  0  0  0  0
   -5.7670   -0.3790   -0.9010 C   0  0  0  0  0  0  0  0  0  0  0  0
   -4.9270    0.6430   -1.2390 C   0  0  0  0  0  0  0  0  0  0  0  0
   -3.7020    0.7330   -0.7040 N   0  0  0  0  0  0  0  0  0  0  0  0
   -3.2100   -0.1530    0.1880 C   0  0  0  0  0  0  0  0  0  0  0  0
   -1.8980   -0.0220    0.7390 N   0  0  0  0  0  0  0  0  0  0  0  0
   -1.4350   -1.0450    1.6480 C   0  0  0  0  0  0  0  0  0  0  0  0
    0.0650   -0.8920    1.7720 C   0  0  0  0  0  0  0  0  0  0  0  0
    0.3080    0.4410    2.1270 O   0  0  0  0  0  0  0  0  0  0  0  0
    0.1770    1.2650    1.0070 C   0  0  1  0  0  0  0  0  0  0  0  0
    1.3380    0.9950    0.1210 C   0  0  0  0  0  0  0  0  0  0  0  0
    2.6250    0.8900    0.5770 N   0  0  0  0  0  0  0  0  0  0  0  0
    3.4220    0.6470   -0.4480 C   0  0  0  0  0  0  0  0  0  0  0  0
    4.8660    0.4630   -0.4170 C   0  0  0  0  0  0  0  0  0  0  0  0
    5.7560    0.2150   -1.3880 C   0  0  0  0  0  0  0  0  0  0  0  0
    7.0590    0.0870   -1.0840 C   0  0  0  0  0  0  0  0  0  0  0  0
    7.4720    0.2060    0.1930 C   0  0  0  0  0  0  0  0  0  0  0  0
    5.8660    0.5320    1.0550 S   0  0  0  0  0  0  0  0  0  0  0  0
    2.6990    0.5900   -1.5610 N   0  0  0  0  0  0  0  0  0  0  0  0
    1.4200    0.8050   -1.2040 N   0  0  0  0  0  0  0  0  0  0  0  0
   -1.1370    1.1410    0.3370 C   0  0  0  0  0  0  0  0  0  0  0  0
   -4.0710   -1.1930    0.5290 C   0  0  0  0  0  0  0  0  0  0  0  0
  1  2  1  0
  2  3  2  0
  2 23  1  0
  3  4  1  0
  4  5  2  0
  5  6  1  0
  6  7  1  0
  6 23  2  0
  7  8  1  0
  7 22  1  0
  8  9  1  0
  9 10  1  0
 10 11  1  0
 11 12  1  6
 11 22  1  0
 12 13  2  0
 12 21  1  0
 13 14  1  0
 14 15  1  0
 14 20  2  0
 15 16  2  0
 15 19  1  0
 16 17  1  0
 17 18  2  0
 18 19  1  0
 20 21  1  0
M  END
