
     RDKit          3D

 23 25  0  0  0  0  0  0  0  0999 V2000
   -3.3680    1.8240   -0.2590 C   0  0  0  0  0  0  0  0  0  0  0  0
   -4.0020    0.5100    0.1230 C   0  0  0  0  0  0  0  0  0  0  0  0
   -5.3280    0.5460    0.1870 C   0  0  0  0  0  0  0  0  0  0  0  0
   -6.1240   -1.0030    0.6420 S   0  0  0  0  0  0  0  0  0  0  0  0
   -5.0590   -2.2170    0.9070 C   0  0  0  0  0  0  0  0  0  0  0  0
   -3.6700   -1.8550    0.7350 C   0  0  0  0  0  0  0  0  0  0  0  0
   -3.1950   -0.6710    0.3930 C   0  0  0  0  0  0  0  0  0  0  0  0
   -1.7610   -0.4900    0.2770 N   0  0  0  0  0  0  0  0  0  0  0  0
   -1.2260   -0.1660   -0.9870 C   0  0  0  0  0  0  0  0  0  0  0  0
   -1.9470   -0.0340   -2.0020 O   0  0  0  0  0  0  0  0  0  0  0  0
    0.2190    0.0340   -1.1650 C   0  0  0  0  0  0  0  0  0  0  0  0
    1.0710   -0.0880   -0.1280 N   0  0  0  0  0  0  0  0  0  0  0  0
    2.3780    0.0770   -0.2140 N   0  0  0  0  0  0  0  0  0  0  0  0
    3.1660   -0.0610    0.8680 C   0  0  0  0  0  0  0  0  0  0  0  0
    2.5310   -0.4070    2.1810 C   0  0  0  0  0  0  0  0  0  0  0  0
    4.5380    0.1140    0.7710 C   0  0  0  0  0  0  0  0  0  0  0  0
    5.0270    0.4310   -0.4790 C   0  0  0  0  0  0  0  0  0  0  0  0
    6.5160    0.6180   -0.5720 C   0  0  0  0  0  0  0  0  0  0  0  0
    4.2280    0.5670   -1.5600 N   0  0  0  0  0  0  0  0  0  0  0  0
    2.8860    0.3880   -1.4220 C   0  0  0  0  0  0  0  0  0  0  0  0
    2.0720    0.5210   -2.4970 N   0  0  0  0  0  0  0  0  0  0  0  0
    0.7530    0.3510   -2.3930 C   0  0  0  0  0  0  0  0  0  0  0  0
   -0.0420    0.4630   -3.3530 O   0  0  0  0  0  0  0  0  0  0  0  0
  1  2  1  0
  2  3  2  0
  2  7  1  0
  3  4  1  0
  4  5  2  0
  5  6  1  0
  6  7  2  0
  7  8  1  0
  8  9  1  0
  9 10  2  0
  9 11  1  0
 11 12  2  0
 11 22  1  0
 12 13  1  0
 13 14  1  0
 13 20  1  0
 14 15  1  0
 14 16  2  0
 16 17  1  0
 17 18  1  0
 17 19  2  0
 19 20  1  0
 20 21  2  0
 21 22  1  0
 22 23  2  0
M  END
