
     RDKit          3D

 11 11  0  0  0  0  0  0  0  0999 V2000
   -0.5000   -1.7980   -0.5060 N   0  0  0  0  0  0  0  0  0  0  0  0
    0.0640   -0.4870   -0.5300 C   0  0  2  0  0  0  0  0  0  0  0  0
    1.4300   -0.6290    0.1570 C   0  0  2  0  0  0  0  0  0  0  0  0
    1.2850   -0.7400    1.5320 O   0  0  0  0  0  0  0  0  0  0  0  0
    2.1570    0.6620   -0.1200 C   0  0  0  0  0  0  0  0  0  0  0  0
    1.2520    1.8400   -0.2420 C   0  0  0  0  0  0  0  0  0  0  0  0
    0.0020    1.7390    0.2080 O   0  0  0  0  0  0  0  0  0  0  0  0
   -0.6570    0.5600    0.2040 C   0  0  2  0  0  0  0  0  0  0  0  0
   -0.7890    0.1420    1.5500 O   0  0  0  0  0  0  0  0  0  0  0  0
   -2.0610    0.8380   -0.2800 C   0  0  0  0  0  0  0  0  0  0  0  0
   -2.8540   -0.2930   -0.3350 O   0  0  0  0  0  0  0  0  0  0  0  0
  2  1  1  1
  2  3  1  0
  2  8  1  0
  3  4  1  1
  3  5  1  0
  5  6  1  0
  6  7  1  0
  7  8  1  0
  8  9  1  1
  8 10  1  0
 10 11  1  0
M  CHG  1   1   1
M  END
