
     RDKit          3D

 11 11  0  0  0  0  0  0  0  0999 V2000
    2.8280    0.8820    0.4350 N   0  0  0  0  0  0  0  0  0  0  0  0
    2.0310    0.0540   -0.4120 C   0  0  1  0  0  0  0  0  0  0  0  0
    2.6900   -1.1300   -0.6700 O   0  0  0  0  0  0  0  0  0  0  0  0
    0.6750   -0.2740    0.2230 C   0  0  2  0  0  0  0  0  0  0  0  0
   -0.1110   -1.1240   -0.7570 C   0  0  0  0  0  0  0  0  0  0  0  0
   -0.7570   -0.3250   -1.6410 O   0  0  0  0  0  0  0  0  0  0  0  0
   -1.9280    0.2270   -1.2740 C   0  0  0  0  0  0  0  0  0  0  0  0
   -2.2610    0.2460    0.1700 C   0  0  1  0  0  0  0  0  0  0  0  0
   -2.7100   -1.0100    0.6310 O   0  0  0  0  0  0  0  0  0  0  0  0
   -1.1940    0.8150    1.0430 C   0  0  0  0  0  0  0  0  0  0  0  0
    0.0390    0.9380    0.4320 O   0  0  0  0  0  0  0  0  0  0  0  0
  2  1  1  1
  2  3  1  0
  2  4  1  0
  4  5  1  6
  4 11  1  0
  5  6  1  0
  6  7  1  0
  7  8  1  0
  8  9  1  1
  8 10  1  0
 10 11  1  0
M  CHG  1   1   1
M  END
