
     RDKit          3D

 23 25  0  0  0  0  0  0  0  0999 V2000
    2.0550    2.4280   -1.3070 O   0  0  0  0  0  0  0  0  0  0  0  0
    1.7710    1.6840   -0.3370 C   0  0  0  0  0  0  0  0  0  0  0  0
    0.5200    1.1620   -0.2610 O   0  0  0  0  0  0  0  0  0  0  0  0
   -0.4010    1.0800    0.7950 C   0  0  0  0  0  0  0  0  0  0  0  0
   -1.5660    0.2660    0.3550 C   0  0  0  0  0  0  0  0  0  0  0  0
   -1.8200   -1.0490    0.6320 C   0  0  0  0  0  0  0  0  0  0  0  0
   -2.9680   -1.6340    0.1220 C   0  0  0  0  0  0  0  0  0  0  0  0
   -3.3350   -3.3250    0.4540 Cl  0  0  0  0  0  0  0  0  0  0  0  0
   -3.8890   -0.9580   -0.6630 C   0  0  0  0  0  0  0  0  0  0  0  0
   -3.6300    0.3560   -0.9370 C   0  0  0  0  0  0  0  0  0  0  0  0
   -2.4930    0.9570   -0.4390 C   0  0  0  0  0  0  0  0  0  0  0  0
   -2.5560    2.3550   -0.9430 C   0  0  0  0  0  0  0  0  0  0  0  0
   -3.8980    2.5830   -1.2200 O   0  0  0  0  0  0  0  0  0  0  0  0
   -4.3950    1.3540   -1.7250 C   0  0  0  0  0  0  0  0  0  0  0  0
   -0.9550   -1.9450    1.4600 C   0  0  0  0  0  0  0  0  0  0  0  0
    0.4910   -1.9090    1.1280 C   0  0  0  0  0  0  0  0  0  0  0  0
    1.2740   -2.2290    0.1750 C   0  0  0  0  0  0  0  0  0  0  0  0
    2.7220   -2.1910   -0.1520 C   0  0  0  0  0  0  0  0  0  0  0  0
    3.2510   -0.7900   -0.4670 C   0  0  1  0  0  0  0  0  0  0  0  0
    2.4650   -0.1660   -1.4290 O   0  0  0  0  0  0  0  0  0  0  0  0
    3.3910    0.0890    0.7260 C   0  0  0  0  0  0  0  0  0  0  0  0
    2.8880    1.4770    0.6160 C   0  0  1  0  0  0  0  0  0  0  0  0
    3.9220    2.4220    0.4190 O   0  0  0  0  0  0  0  0  0  0  0  0
  1  2  2  0
  2  3  1  0
  2 22  1  0
  3  4  1  0
  4  5  1  0
  5  6  2  0
  5 11  1  0
  6  7  1  0
  6 15  1  0
  7  8  1  0
  7  9  2  0
  9 10  1  0
 10 11  2  0
 10 14  1  0
 11 12  1  0
 12 13  1  0
 13 14  1  0
 15 16  1  0
 16 17  2  0
 17 18  1  0
 18 19  1  0
 19 20  1  6
 19 21  1  0
 21 22  1  0
 22 23  1  6
M  END
