
     RDKit          3D

 22 23  0  0  0  0  0  0  0  0999 V2000
   -5.4750    1.0380    1.7370 C   0  0  0  0  0  0  0  0  0  0  0  0
   -4.8440    0.3480    0.5580 C   0  0  1  0  0  0  0  0  0  0  0  0
   -5.1900    0.9780   -0.6320 O   0  0  0  0  0  0  0  0  0  0  0  0
   -4.8170    0.2210   -1.7150 C   0  0  0  0  0  0  0  0  0  0  0  0
   -3.7290   -0.7650   -1.4630 C   0  0  0  0  0  0  0  0  0  0  0  0
   -2.6410   -0.2260   -0.5300 C   0  0  0  0  0  0  0  0  0  0  0  0
   -3.3600    0.3500    0.6230 C   0  0  0  0  0  0  0  0  0  0  0  0
   -2.6920    0.8340    1.6420 C   0  0  0  0  0  0  0  0  0  0  0  0
   -1.2350    0.8030    1.6370 C   0  0  0  0  0  0  0  0  0  0  0  0
   -0.5630    1.2640    2.6120 O   0  0  0  0  0  0  0  0  0  0  0  0
   -0.4510    0.2960    0.6250 O   0  0  0  0  0  0  0  0  0  0  0  0
    0.9350    0.2760    0.6390 C   0  0  1  0  0  0  0  0  0  0  0  0
    1.5300   -1.1090    0.6180 C   0  0  0  0  0  0  0  0  0  0  0  0
    2.6440   -1.2360   -0.3930 C   0  0  0  0  0  0  0  0  0  0  0  0
    3.6750   -0.1610   -0.2840 C   0  0  2  0  0  0  0  0  0  0  0  0
    4.3990   -0.0360   -1.6340 C   0  0  0  0  0  0  0  0  0  0  0  0
    4.7220   -0.4340    0.7420 C   0  0  0  0  0  0  0  0  0  0  0  0
    5.4540   -1.6700    0.4430 C   0  0  0  0  0  0  0  0  0  0  0  0
    5.1000   -2.7850    0.8190 O   0  0  0  0  0  0  0  0  0  0  0  0
    6.9460   -1.6490   -0.5080 Cl  0  0  0  0  0  0  0  0  0  0  0  0
    3.0450    1.2250   -0.0740 C   0  0  0  0  0  0  0  0  0  0  0  0
    1.5860    1.0810   -0.4530 C   0  0  0  0  0  0  0  0  0  0  0  0
  2  1  1  1
  2  3  1  0
  2  7  1  0
  3  4  1  0
  4  5  1  0
  5  6  1  0
  6  7  1  0
  7  8  2  3
  8  9  1  0
  9 10  2  0
  9 11  1  0
 12 11  1  6
 12 13  1  0
 12 22  1  0
 13 14  1  0
 14 15  1  0
 15 16  1  6
 15 17  1  0
 15 21  1  0
 17 18  1  0
 18 19  2  0
 18 20  1  0
 21 22  1  0
M  END
