
     RDKit          3D

 23 23  0  0  0  0  0  0  0  0999 V2000
    5.6480    1.7100    1.2240 C   0  0  0  0  0  0  0  0  0  0  0  0
    4.6850    0.5790    1.3820 C   0  0  0  0  0  0  0  0  0  0  0  0
    3.8730    0.3970    0.2230 O   0  0  0  0  0  0  0  0  0  0  0  0
    2.9380   -0.6300    0.2550 C   0  0  0  0  0  0  0  0  0  0  0  0
    1.7340   -0.5640   -0.3350 C   0  0  0  0  0  0  0  0  0  0  0  0
    0.8600   -1.7210   -0.2150 C   0  0  0  0  0  0  0  0  0  0  0  0
    1.4380   -2.8610    0.0100 O   0  0  0  0  0  0  0  0  0  0  0  0
   -0.4510   -1.7160   -0.3110 O   0  0  0  0  0  0  0  0  0  0  0  0
   -1.5260   -1.6250   -1.1170 C   0  0  1  0  0  0  0  0  0  0  0  0
   -1.6250   -2.7220   -2.1930 C   0  0  0  0  0  0  0  0  0  0  0  0
   -2.7620   -1.7570   -0.1950 C   0  0  0  0  0  0  0  0  0  0  0  0
   -2.3500   -1.8200    1.2390 C   0  0  2  0  0  0  0  0  0  0  0  0
   -3.1350   -2.7690    1.9390 O   0  0  0  0  0  0  0  0  0  0  0  0
   -2.3880   -0.5550    2.0080 C   0  0  0  0  0  0  0  0  0  0  0  0
   -2.2140    0.7110    1.2740 C   0  0  0  0  0  0  0  0  0  0  0  0
   -0.8080    1.1820    1.0490 C   0  0  0  0  0  0  0  0  0  0  0  0
   -0.7260    1.6430   -0.3600 C   0  0  0  0  0  0  0  0  0  0  0  0
   -1.9170    2.4830   -0.7690 C   0  0  0  0  0  0  0  0  0  0  0  0
    0.2390    1.4020   -1.2140 C   0  0  0  0  0  0  0  0  0  0  0  0
    0.0450    2.0080   -2.5970 C   0  0  0  0  0  0  0  0  0  0  0  0
   -0.0000    0.7510   -3.8470 Cl  0  0  0  0  0  0  0  0  0  0  0  0
    1.4680    0.6820   -1.0380 C   0  0  0  0  0  0  0  0  0  0  0  0
    2.4990    1.2540   -1.6070 O   0  0  0  0  0  0  0  0  0  0  0  0
  1  2  1  0
  2  3  1  0
  3  4  1  0
  4  5  2  3
  5  6  1  0
  5 22  1  0
  6  7  2  0
  6  8  1  0
  8  9  1  0
  9 10  1  6
  9 11  1  0
 11 12  1  0
 12 13  1  1
 12 14  1  0
 14 15  1  0
 15 16  1  0
 16 17  1  0
 17 18  1  0
 17 19  2  0
 19 20  1  0
 19 22  1  0
 20 21  1  0
 22 23  2  0
M  END
