
     RDKit          3D

 23 25  0  0  0  0  0  0  0  0999 V2000
   -0.6070   -2.4070   -1.3870 C   0  0  0  0  0  0  0  0  0  0  0  0
    0.3010   -1.4710   -0.6880 C   0  0  0  0  0  0  0  0  0  0  0  0
    1.6230   -1.7280   -0.7240 C   0  0  0  0  0  0  0  0  0  0  0  0
    2.1360   -2.9370   -1.4590 C   0  0  0  0  0  0  0  0  0  0  0  0
    2.6040   -0.8710   -0.0830 C   0  0  0  0  0  0  0  0  0  0  0  0
    3.9240   -0.9170    0.0150 O   0  0  0  0  0  0  0  0  0  0  0  0
    4.3830    0.0800    0.6950 C   0  0  0  0  0  0  0  0  0  0  0  0
    5.7810    0.3920    1.0290 C   0  0  0  0  0  0  0  0  0  0  0  0
    6.6750   -0.3780    0.6230 O   0  0  0  0  0  0  0  0  0  0  0  0
    6.1350    1.4900    1.7630 O   0  0  0  0  0  0  0  0  0  0  0  0
    3.3210    0.8650    1.0930 C   0  0  0  0  0  0  0  0  0  0  0  0
    3.3070    2.3310    2.0270 Cl  0  0  0  0  0  0  0  0  0  0  0  0
    2.1930    0.2510    0.5930 C   0  0  0  0  0  0  0  0  0  0  0  0
    0.8070    0.5580    0.6560 C   0  0  0  0  0  0  0  0  0  0  0  0
    0.4080    1.5910    1.2770 O   0  0  0  0  0  0  0  0  0  0  0  0
   -0.2180   -0.3130    0.0020 C   0  0  0  0  0  0  0  0  0  0  0  0
   -1.4900    0.0000    0.1210 C   0  0  0  0  0  0  0  0  0  0  0  0
   -2.6830   -0.6890   -0.3750 C   0  0  0  0  0  0  0  0  0  0  0  0
   -3.8530   -0.2050    0.5010 C   0  0  0  0  0  0  0  0  0  0  0  0
   -4.1230    1.2450    0.3100 C   0  0  0  0  0  0  0  0  0  0  0  0
   -2.8530    2.0180    0.3230 C   0  0  1  0  0  0  0  0  0  0  0  0
   -2.9040    3.2120    1.2530 C   0  0  0  0  0  0  0  0  0  0  0  0
   -1.8140    1.1810    0.8290 O   0  0  0  0  0  0  0  0  0  0  0  0
  1  2  1  0
  2  3  2  0
  2 16  1  0
  3  4  1  0
  3  5  1  0
  5  6  1  0
  5 13  2  0
  6  7  1  0
  7  8  1  0
  7 11  2  0
  8  9  2  0
  8 10  1  0
 11 12  1  0
 11 13  1  0
 13 14  1  0
 14 15  2  0
 14 16  1  0
 16 17  2  3
 17 18  1  0
 17 23  1  0
 18 19  1  0
 19 20  1  0
 20 21  1  0
 21 22  1  1
 21 23  1  0
M  END
