
     RDKit          3D

  8  8  0  0  0  0  0  0  0  0999 V2000
    2.6600   -0.6480    0.3320 C   0  0  0  0  0  0  0  0  0  0  0  0
    1.5460    0.2210    0.2290 N   0  0  0  0  0  0  0  0  0  0  0  0
    0.3260   -0.1110    0.0240 C   0  0  0  0  0  0  0  0  0  0  0  0
   -0.2450   -1.3590   -0.1480 O   0  0  0  0  0  0  0  0  0  0  0  0
   -1.6020   -1.2620   -0.3430 N   0  0  0  0  0  0  0  0  0  0  0  0
   -1.8930    0.1260   -0.2880 C   0  0  0  0  0  0  0  0  0  0  0  0
   -0.7780    0.8320   -0.0730 C   0  0  0  0  0  0  0  0  0  0  0  0
   -0.7020    2.2520    0.0390 N   0  0  0  0  0  0  0  0  0  0  0  0
  1  2  1  0
  2  3  2  3
  3  4  1  0
  3  7  1  0
  4  5  1  0
  5  6  1  0
  6  7  2  0
  7  8  1  0
M  CHG  1   5   1
M  END
