
     RDKit          3D

 25 28  0  0  0  0  0  0  0  0999 V2000
    1.0250    1.1470   -2.3880 O   0  0  0  0  0  0  0  0  0  0  0  0
    1.4670    0.4060   -1.4340 C   0  0  0  0  0  0  0  0  0  0  0  0
    2.6340    0.8830   -0.7300 C   0  0  0  0  0  0  0  0  0  0  0  0
    3.2370    0.1900    0.2910 C   0  0  0  0  0  0  0  0  0  0  0  0
    4.3570    0.6890    0.9470 C   0  0  0  0  0  0  0  0  0  0  0  0
    4.8960    1.8940    0.5920 C   0  0  0  0  0  0  0  0  0  0  0  0
    4.3110    2.6010   -0.4230 C   0  0  0  0  0  0  0  0  0  0  0  0
    5.0010    4.1430   -0.8770 Cl  0  0  0  0  0  0  0  0  0  0  0  0
    3.2050    2.1020   -1.0660 C   0  0  0  0  0  0  0  0  0  0  0  0
    0.7370   -0.8310   -1.1730 C   0  0  1  0  0  0  0  0  0  0  0  0
    1.5480   -2.0920   -1.2770 C   0  0  0  0  0  0  0  0  0  0  0  0
    1.2350   -2.9080   -0.1440 N   0  0  0  0  0  0  0  0  0  0  0  0
    0.3680   -2.1950    0.7480 C   0  0  0  0  0  0  0  0  0  0  0  0
    0.1440   -0.8170    0.1990 C   0  0  2  0  0  0  0  0  0  0  0  0
   -1.3130   -0.4710    0.1720 C   0  0  0  0  0  0  0  0  0  0  0  0
   -2.1590   -1.2410   -0.5990 C   0  0  0  0  0  0  0  0  0  0  0  0
   -3.5030   -0.9270   -0.6280 C   0  0  0  0  0  0  0  0  0  0  0  0
   -4.0530    0.1230    0.0750 C   0  0  0  0  0  0  0  0  0  0  0  0
   -5.4070    0.4260    0.0360 C   0  0  0  0  0  0  0  0  0  0  0  0
   -6.1860   -0.2820   -0.6730 O   0  0  0  0  0  0  0  0  0  0  0  0
   -5.8230    1.4610    0.7550 N   0  0  0  0  0  0  0  0  0  0  0  0
   -5.0140    2.2330    1.5190 C   0  0  0  0  0  0  0  0  0  0  0  0
   -3.7040    1.9180    1.5400 N   0  0  0  0  0  0  0  0  0  0  0  0
   -3.1940    0.8880    0.8450 C   0  0  0  0  0  0  0  0  0  0  0  0
   -1.8490    0.5830    0.8810 C   0  0  0  0  0  0  0  0  0  0  0  0
  1  2  2  0
  2  3  1  0
 10  2  1  1
  3  4  2  0
  3  9  1  0
  4  5  1  0
  5  6  2  0
  6  7  1  0
  7  8  1  0
  7  9  2  0
 10 11  1  0
 10 14  1  0
 11 12  1  0
 12 13  1  0
 13 14  1  0
 14 15  1  6
 15 16  2  0
 15 25  1  0
 16 17  1  0
 17 18  2  0
 18 19  1  0
 18 24  1  0
 19 20  2  0
 19 21  1  0
 21 22  2  0
 22 23  1  0
 23 24  1  0
 24 25  2  0
M  CHG  1  12   1
M  END
