
     RDKit          3D

  7  7  0  0  0  0  0  0  0  0999 V2000
   -1.0630    1.7300    0.0220 C   0  0  0  0  0  0  0  0  0  0  0  0
   -0.4420    0.4280    0.0130 N   0  0  0  0  0  0  0  0  0  0  0  0
   -1.1190   -0.8540   -0.2240 C   0  0  0  0  0  0  0  0  0  0  0  0
   -0.2810   -1.7910    0.6050 C   0  0  0  0  0  0  0  0  0  0  0  0
    1.0180   -1.1610    0.5560 N   0  0  0  0  0  0  0  0  0  0  0  0
    0.9210    0.0830    0.2230 C   0  0  0  0  0  0  0  0  0  0  0  0
    2.0160    0.9790    0.0860 N   0  0  0  0  0  0  0  0  0  0  0  0
  1  2  1  0
  2  3  1  0
  2  6  1  0
  3  4  1  0
  4  5  1  0
  5  6  2  0
  6  7  1  0
M  CHG  1   5   1
M  END
