
     RDKit          3D

  8  8  0  0  0  0  0  0  0  0999 V2000
   -2.4280   -0.3440   -0.0190 C   0  0  0  0  0  0  0  0  0  0  0  0
   -1.0410   -0.0130   -0.0910 N   0  0  0  0  0  0  0  0  0  0  0  0
    0.0770   -0.9500   -0.2790 C   0  0  0  0  0  0  0  0  0  0  0  0
    1.1930   -0.1900    0.4070 C   0  0  1  0  0  0  0  0  0  0  0  0
    2.4870   -0.4800   -0.1500 N   0  0  0  0  0  0  0  0  0  0  0  0
    0.8010    1.1840    0.2840 N   0  0  0  0  0  0  0  0  0  0  0  0
   -0.4540    1.2880    0.0040 C   0  0  0  0  0  0  0  0  0  0  0  0
   -1.0990    2.4990   -0.1710 O   0  0  0  0  0  0  0  0  0  0  0  0
  1  2  1  0
  2  3  1  0
  2  7  1  0
  3  4  1  0
  4  5  1  6
  4  6  1  0
  6  7  2  0
  7  8  1  0
M  CHG  1   5   1
M  END
