
     RDKit          3D

 25 28  0  0  0  0  0  0  0  0999 V2000
    1.8490   -2.0410    1.2450 O   0  0  0  0  0  0  0  0  0  0  0  0
    1.9740   -0.9510    0.6320 C   0  0  0  0  0  0  0  0  0  0  0  0
    3.2760   -0.2770    0.5650 C   0  0  0  0  0  0  0  0  0  0  0  0
    4.3910   -0.8490    1.1380 C   0  0  0  0  0  0  0  0  0  0  0  0
    5.6320   -0.2640    1.1160 C   0  0  0  0  0  0  0  0  0  0  0  0
    5.8070    0.9560    0.4990 C   0  0  0  0  0  0  0  0  0  0  0  0
    4.7010    1.5470   -0.0820 C   0  0  0  0  0  0  0  0  0  0  0  0
    4.9810    3.4070   -1.0200 I   0  0  0  0  0  0  0  0  0  0  0  0
    3.4500    0.9390   -0.0500 C   0  0  0  0  0  0  0  0  0  0  0  0
    0.7670   -0.3750   -0.0170 C   0  0  1  0  0  0  0  0  0  0  0  0
    0.9740   -0.2940   -1.5090 C   0  0  0  0  0  0  0  0  0  0  0  0
    0.2130   -1.3400   -2.1340 N   0  0  0  0  0  0  0  0  0  0  0  0
   -0.3680   -2.1330   -1.1000 C   0  0  0  0  0  0  0  0  0  0  0  0
   -0.3840   -1.3140    0.1380 C   0  0  2  0  0  0  0  0  0  0  0  0
   -1.6630   -0.6430    0.4040 C   0  0  0  0  0  0  0  0  0  0  0  0
   -2.3620   -0.9470    1.5500 C   0  0  0  0  0  0  0  0  0  0  0  0
   -3.5690   -0.3330    1.8340 C   0  0  0  0  0  0  0  0  0  0  0  0
   -4.0830    0.6010    0.9540 C   0  0  0  0  0  0  0  0  0  0  0  0
   -5.2770    1.2480    1.1770 C   0  0  0  0  0  0  0  0  0  0  0  0
   -5.8950    0.9510    2.2330 O   0  0  0  0  0  0  0  0  0  0  0  0
   -5.7340    2.1430    0.2980 N   0  0  0  0  0  0  0  0  0  0  0  0
   -5.0690    2.4550   -0.8270 C   0  0  0  0  0  0  0  0  0  0  0  0
   -3.9070    1.8380   -1.0620 N   0  0  0  0  0  0  0  0  0  0  0  0
   -3.4100    0.9350   -0.2100 C   0  0  0  0  0  0  0  0  0  0  0  0
   -2.2040    0.2850   -0.4400 C   0  0  0  0  0  0  0  0  0  0  0  0
  1  2  2  0
  2  3  1  0
 10  2  1  1
  3  4  2  0
  3  9  1  0
  4  5  1  0
  5  6  2  0
  6  7  1  0
  7  8  1  0
  7  9  2  0
 10 11  1  0
 10 14  1  0
 11 12  1  0
 12 13  1  0
 13 14  1  0
 14 15  1  6
 15 16  2  0
 15 25  1  0
 16 17  1  0
 17 18  2  0
 18 19  1  0
 18 24  1  0
 19 20  2  0
 19 21  1  0
 21 22  2  0
 22 23  1  0
 23 24  1  0
 24 25  2  0
M  CHG  1  12   1
M  END
