
     RDKit          3D

 19 20  0  0  0  0  0  0  0  0999 V2000
    4.3090    3.0010   -0.2780 N   0  0  0  0  0  0  0  0  0  0  0  0
    3.9090    1.6720   -0.5010 C   0  0  0  0  0  0  0  0  0  0  0  0
    4.3500    1.0280   -1.4860 O   0  0  0  0  0  0  0  0  0  0  0  0
    2.9570    1.0540    0.4520 C   0  0  0  0  0  0  0  0  0  0  0  0
    2.6640   -0.2750    0.0800 O   0  0  0  0  0  0  0  0  0  0  0  0
    1.7830   -0.8190    0.9790 C   0  0  2  0  0  0  0  0  0  0  0  0
    2.2980   -2.1130    1.5620 C   0  0  0  0  0  0  0  0  0  0  0  0
    1.9990   -3.0940    0.4480 C   0  0  0  0  0  0  0  0  0  0  0  0
    0.6860   -2.6090   -0.0540 C   0  0  0  0  0  0  0  0  0  0  0  0
   -0.4160   -2.9720   -0.6910 N   0  0  0  0  0  0  0  0  0  0  0  0
   -1.2450   -1.9300   -0.8020 N   0  0  0  0  0  0  0  0  0  0  0  0
   -0.6950   -0.8630   -0.2360 C   0  0  0  0  0  0  0  0  0  0  0  0
   -1.1720    0.4090   -0.1120 O   0  0  0  0  0  0  0  0  0  0  0  0
   -2.3640    0.9610   -0.5360 C   0  0  2  0  0  0  0  0  0  0  0  0
   -3.6110    0.4010    0.0680 C   0  0  0  0  0  0  0  0  0  0  0  0
   -3.6590    0.5450    1.5060 N   0  0  0  0  0  0  0  0  0  0  0  0
   -2.5370    1.0050   -2.0460 C   0  0  0  0  0  0  0  0  0  0  0  0
   -3.7630    1.5750   -2.3670 O   0  0  0  0  0  0  0  0  0  0  0  0
    0.5560   -1.2760    0.2550 C   0  0  0  0  0  0  0  0  0  0  0  0
  1  2  1  0
  2  3  2  0
  2  4  1  0
  4  5  1  0
  6  5  1  6
  6  7  1  0
  6 19  1  0
  7  8  1  0
  8  9  1  0
  9 10  2  0
  9 19  1  0
 10 11  1  0
 11 12  1  0
 12 13  1  0
 12 19  2  0
 13 14  1  0
 14 15  1  1
 14 17  1  0
 15 16  1  0
 17 18  1  0
M  CHG  1  16   1
M  END
