
     RDKit          3D

 19 19  0  0  0  0  0  0  0  0999 V2000
    3.9360    2.2310    1.3320 C   0  0  0  0  0  0  0  0  0  0  0  0
    3.7030    0.8590    1.2630 O   0  0  0  0  0  0  0  0  0  0  0  0
    2.8040    0.6680    0.1880 C   0  0  0  0  0  0  0  0  0  0  0  0
    2.5490   -0.8410    0.1150 C   0  0  2  0  0  0  0  0  0  0  0  0
    3.7970   -1.4680   -0.1110 O   0  0  0  0  0  0  0  0  0  0  0  0
    1.6990   -1.1790   -1.0630 C   0  0  0  0  0  0  0  0  0  0  0  0
    0.3650   -0.6400   -1.0360 N   0  0  0  0  0  0  0  0  0  0  0  0
   -0.5590   -1.2110   -0.1410 C   0  0  2  0  0  0  0  0  0  0  0  0
   -0.5150   -2.7480   -0.0960 C   0  0  0  0  0  0  0  0  0  0  0  0
    0.6740   -3.2680    0.3080 O   0  0  0  0  0  0  0  0  0  0  0  0
   -2.0070   -0.8550   -0.3150 C   0  0  2  0  0  0  0  0  0  0  0  0
   -2.4510   -1.2650   -1.6540 N   0  0  0  0  0  0  0  0  0  0  0  0
   -2.4230    0.4970    0.0160 C   0  0  0  0  0  0  0  0  0  0  0  0
   -3.0630    0.7590    1.1770 C   0  0  0  0  0  0  0  0  0  0  0  0
   -3.5020    2.1170    1.5490 C   0  0  0  0  0  0  0  0  0  0  0  0
   -3.1170    3.1270    0.6620 O   0  0  0  0  0  0  0  0  0  0  0  0
   -2.4850    2.8530   -0.4930 N   0  0  0  0  0  0  0  0  0  0  0  0
   -2.1590    1.6440   -0.8030 C   0  0  0  0  0  0  0  0  0  0  0  0
   -1.5380    1.4990   -2.0820 N   0  0  0  0  0  0  0  0  0  0  0  0
  1  2  1  0
  2  3  1  0
  3  4  1  0
  4  5  1  6
  4  6  1  0
  6  7  1  0
  7  8  1  0
  8  9  1  6
  8 11  1  0
  9 10  1  0
 11 12  1  6
 11 13  1  0
 13 14  2  0
 13 18  1  0
 14 15  1  0
 15 16  1  0
 16 17  1  0
 17 18  2  0
 18 19  1  0
M  CHG  1   7   1
M  END
