
     RDKit          3D

 19 19  0  0  0  0  0  0  0  0999 V2000
   -5.2590   -1.3140   -0.1500 C   0  0  0  0  0  0  0  0  0  0  0  0
   -3.7660   -1.4060    0.0290 C   0  0  0  0  0  0  0  0  0  0  0  0
   -3.0190   -0.3150    0.0710 C   0  0  0  0  0  0  0  0  0  0  0  0
   -1.5960   -0.6250    0.2500 C   0  0  0  0  0  0  0  0  0  0  0  0
   -0.6140    0.2550    0.3600 C   0  0  0  0  0  0  0  0  0  0  0  0
    0.6780   -0.2240    0.5250 O   0  0  0  0  0  0  0  0  0  0  0  0
    1.5270   -0.2200   -0.6080 C   0  0  0  0  0  0  0  0  0  0  0  0
    2.8690   -0.7650   -0.2550 C   0  0  0  0  0  0  0  0  0  0  0  0
    3.0750   -1.1370    0.9200 O   0  0  0  0  0  0  0  0  0  0  0  0
    3.9070   -0.8720   -1.2020 N   0  0  0  0  0  0  0  0  0  0  0  0
    5.2100   -1.3880   -0.9080 C   0  0  0  0  0  0  0  0  0  0  0  0
    5.8950   -0.5790    0.1550 C   0  0  0  0  0  0  0  0  0  0  0  0
    5.2170    0.5400    0.7150 N   0  0  0  0  0  0  0  0  0  0  0  0
    7.0500   -0.9060    0.5260 O   0  0  0  0  0  0  0  0  0  0  0  0
   -0.7210    1.7080    0.3290 C   0  0  0  0  0  0  0  0  0  0  0  0
    0.3610    2.3530    0.3090 O   0  0  0  0  0  0  0  0  0  0  0  0
   -1.9360    2.4620    0.3190 N   0  0  0  0  0  0  0  0  0  0  0  0
   -3.2340    1.9990    0.6930 C   0  0  0  0  0  0  0  0  0  0  0  0
   -3.7290    0.8780   -0.0630 N   0  0  0  0  0  0  0  0  0  0  0  0
  1  2  1  0
  2  3  2  3
  3  4  1  0
  3 19  1  0
  4  5  2  0
  5  6  1  0
  5 15  1  0
  6  7  1  0
  7  8  1  0
  8  9  2  0
  8 10  1  0
 10 11  1  0
 11 12  1  0
 12 13  1  0
 12 14  2  0
 15 16  2  0
 15 17  1  0
 17 18  1  0
 18 19  1  0
M  CHG  1  19   1
M  END
