
     RDKit          3D

 18 19  0  0  0  0  0  0  0  0999 V2000
   -1.6440   -0.0580   -3.2080 C   0  0  0  0  0  0  0  0  0  0  0  0
   -2.6810    0.1100   -2.4210 C   0  0  0  0  0  0  0  0  0  0  0  0
   -2.6300   -0.2990   -1.0270 C   0  0  0  0  0  0  0  0  0  0  0  0
   -3.7420   -0.0860   -0.3070 C   0  0  0  0  0  0  0  0  0  0  0  0
   -3.9430   -0.3930    1.0570 N   0  0  0  0  0  0  0  0  0  0  0  0
   -3.0360    0.2950    1.9280 C   0  0  0  0  0  0  0  0  0  0  0  0
   -1.6150   -0.1100    1.5960 C   0  0  0  0  0  0  0  0  0  0  0  0
   -1.5400   -1.3020    0.7920 N   0  0  0  0  0  0  0  0  0  0  0  0
   -1.3240   -0.9060   -0.5910 C   0  0  2  0  0  0  0  0  0  0  0  0
   -0.3260    0.1540   -0.5840 N   0  0  0  0  0  0  0  0  0  0  0  0
    1.0400   -0.0980   -0.3110 C   0  0  0  0  0  0  0  0  0  0  0  0
    1.4940   -1.3900   -0.2580 C   0  0  0  0  0  0  0  0  0  0  0  0
    2.8380   -1.5900    0.0270 C   0  0  0  0  0  0  0  0  0  0  0  0
    3.6880   -0.5240    0.2490 C   0  0  0  0  0  0  0  0  0  0  0  0
    5.0210   -0.7710    0.5300 O   0  0  0  0  0  0  0  0  0  0  0  0
    5.8800    0.3270    0.7550 C   0  0  0  0  0  0  0  0  0  0  0  0
    3.1940    0.7710    0.1870 C   0  0  0  0  0  0  0  0  0  0  0  0
    1.8820    0.9740   -0.0910 C   0  0  0  0  0  0  0  0  0  0  0  0
  1  2  2  0
  2  3  1  0
  3  4  2  0
  3  9  1  0
  4  5  1  0
  5  6  1  0
  6  7  1  0
  7  8  1  0
  8  9  1  0
  9 10  1  1
 10 11  1  0
 11 12  2  0
 11 18  1  0
 12 13  1  0
 13 14  2  0
 14 15  1  0
 14 17  1  0
 15 16  1  0
 17 18  2  0
M  CHG  1   5   1
M  END
