
     RDKit          3D

 24 27  0  0  0  0  0  0  0  0999 V2000
    0.9680   -0.0870   -2.7610 O   0  0  0  0  0  0  0  0  0  0  0  0
    1.5930   -0.2230   -1.6540 C   0  0  0  0  0  0  0  0  0  0  0  0
    2.8780    0.3920   -1.5310 C   0  0  0  0  0  0  0  0  0  0  0  0
    3.8040    0.4650   -0.5250 C   0  0  0  0  0  0  0  0  0  0  0  0
    4.9360    1.1350   -0.7450 C   0  0  0  0  0  0  0  0  0  0  0  0
    5.1940    1.7380   -1.9220 C   0  0  0  0  0  0  0  0  0  0  0  0
    6.6250    2.7350   -2.5760 Br  0  0  0  0  0  0  0  0  0  0  0  0
    3.6710    1.3360   -2.8710 S   0  0  0  0  0  0  0  0  0  0  0  0
    0.9200   -1.0040   -0.6210 C   0  0  1  0  0  0  0  0  0  0  0  0
    1.6750   -2.2480   -0.1970 C   0  0  0  0  0  0  0  0  0  0  0  0
    1.1380   -2.5010    1.1210 N   0  0  0  0  0  0  0  0  0  0  0  0
    1.0350   -1.2040    1.7210 C   0  0  0  0  0  0  0  0  0  0  0  0
    0.6560   -0.2420    0.6630 C   0  0  2  0  0  0  0  0  0  0  0  0
   -0.7380    0.2680    0.7430 C   0  0  0  0  0  0  0  0  0  0  0  0
   -0.9580    1.6470    0.8610 C   0  0  0  0  0  0  0  0  0  0  0  0
   -2.2500    2.1400    0.9350 C   0  0  0  0  0  0  0  0  0  0  0  0
   -3.3390    1.3010    0.8950 C   0  0  0  0  0  0  0  0  0  0  0  0
   -4.6470    1.7240    0.9630 C   0  0  0  0  0  0  0  0  0  0  0  0
   -4.9060    2.9470    1.0690 O   0  0  0  0  0  0  0  0  0  0  0  0
   -5.6640    0.8450    0.9170 N   0  0  0  0  0  0  0  0  0  0  0  0
   -5.3980   -0.4840    0.8020 C   0  0  0  0  0  0  0  0  0  0  0  0
   -4.1370   -0.9430    0.7320 N   0  0  0  0  0  0  0  0  0  0  0  0
   -3.1050   -0.0490    0.7780 C   0  0  0  0  0  0  0  0  0  0  0  0
   -1.8310   -0.5600    0.7040 C   0  0  0  0  0  0  0  0  0  0  0  0
  1  2  2  0
  2  3  1  0
  9  2  1  6
  3  4  2  0
  3  8  1  0
  4  5  1  0
  5  6  2  0
  6  7  1  0
  6  8  1  0
  9 10  1  0
  9 13  1  0
 10 11  1  0
 11 12  1  0
 12 13  1  0
 13 14  1  1
 14 15  2  0
 14 24  1  0
 15 16  1  0
 16 17  2  0
 17 18  1  0
 17 23  1  0
 18 19  2  0
 18 20  1  0
 20 21  1  0
 21 22  2  0
 22 23  1  0
 23 24  2  0
M  CHG  1  11   1
M  END
