
     RDKit          3D

 21 23  0  0  0  0  0  0  0  0999 V2000
    1.1000    1.6270    0.7940 O   0  0  0  0  0  0  0  0  0  0  0  0
    0.5830    0.5480    0.4420 C   0  0  0  0  0  0  0  0  0  0  0  0
    1.4420   -0.5340    0.1040 N   0  0  0  0  0  0  0  0  0  0  0  0
    2.8580   -0.4570    0.1430 C   0  0  0  0  0  0  0  0  0  0  0  0
    3.6890    0.5600    0.4790 C   0  0  0  0  0  0  0  0  0  0  0  0
    4.9670    0.1300    0.3540 N   0  0  0  0  0  0  0  0  0  0  0  0
    6.0790    0.9540    0.6300 N   0  0  0  0  0  0  0  0  0  0  0  0
    5.9450    2.1330    1.0070 O   0  0  0  0  0  0  0  0  0  0  0  0
    7.3300    0.4140    0.4700 O   0  0  0  0  0  0  0  0  0  0  0  0
    4.9920   -1.1370   -0.0520 C   0  0  0  0  0  0  0  0  0  0  0  0
    6.0860   -1.9250   -0.2940 F   0  0  0  0  0  0  0  0  0  0  0  0
    3.6770   -1.5340   -0.1940 C   0  0  0  0  0  0  0  0  0  0  0  0
    3.1340   -3.1210   -0.7090 Cl  0  0  0  0  0  0  0  0  0  0  0  0
   -0.8910    0.3870    0.3750 C   0  0  0  0  0  0  0  0  0  0  0  0
   -1.5720   -0.7450    0.0040 C   0  0  0  0  0  0  0  0  0  0  0  0
   -2.9250   -0.5010    0.0680 C   0  0  0  0  0  0  0  0  0  0  0  0
   -3.0550    0.8020    0.4850 C   0  0  0  0  0  0  0  0  0  0  0  0
   -1.8100    1.3120    0.6620 N   0  0  0  0  0  0  0  0  0  0  0  0
   -4.5200    1.1130    0.5710 C   0  0  0  0  0  0  0  0  0  0  0  0
   -5.0810    0.1740   -0.4750 C   0  0  0  0  0  0  0  0  0  0  0  0
   -4.2990   -1.0930   -0.1370 C   0  0  0  0  0  0  0  0  0  0  0  0
  1  2  2  0
  2  3  1  0
  2 14  1  0
  3  4  1  0
  4  5  2  0
  4 12  1  0
  5  6  1  0
  6  7  1  0
  6 10  1  0
  7  8  2  0
  7  9  1  0
 10 11  1  0
 10 12  2  0
 12 13  1  0
 14 15  2  0
 14 18  1  0
 15 16  1  0
 16 17  2  0
 16 21  1  0
 17 18  1  0
 17 19  1  0
 19 20  1  0
 20 21  1  0
M  CHG  2   7   1   9  -1
M  END
