
     RDKit          3D

 25 28  0  0  0  0  0  0  0  0999 V2000
    5.0090    2.1680   -2.3080 O   0  0  0  0  0  0  0  0  0  0  0  0
    4.6380    1.7330   -1.1800 C   0  0  0  0  0  0  0  0  0  0  0  0
    5.4120    2.0400   -0.0260 N   0  0  0  0  0  0  0  0  0  0  0  0
    5.1500    1.2910    1.1760 C   0  0  0  0  0  0  0  0  0  0  0  0
    3.8110    0.7790    1.2380 N   0  0  0  0  0  0  0  0  0  0  0  0
    3.0250    0.4610    0.0980 C   0  0  0  0  0  0  0  0  0  0  0  0
    1.8800   -0.3060    0.2130 C   0  0  0  0  0  0  0  0  0  0  0  0
    1.1130   -0.6180   -0.8840 C   0  0  0  0  0  0  0  0  0  0  0  0
   -0.1130   -1.4280   -0.8250 C   0  0  1  0  0  0  0  0  0  0  0  0
    0.1180   -2.7990   -0.2350 C   0  0  0  0  0  0  0  0  0  0  0  0
   -1.2410   -3.2190    0.0610 N   0  0  0  0  0  0  0  0  0  0  0  0
   -1.7670   -2.0590    0.7660 C   0  0  0  0  0  0  0  0  0  0  0  0
   -1.1270   -0.8460    0.1350 C   0  0  2  0  0  0  0  0  0  0  0  0
   -2.0990   -0.0520   -0.6590 C   0  0  0  0  0  0  0  0  0  0  0  0
   -1.9930    0.0450   -1.9130 O   0  0  0  0  0  0  0  0  0  0  0  0
   -3.1960    0.6260    0.0310 C   0  0  0  0  0  0  0  0  0  0  0  0
   -3.3220    0.5260    1.4070 C   0  0  0  0  0  0  0  0  0  0  0  0
   -4.3580    1.1640    2.0710 C   0  0  0  0  0  0  0  0  0  0  0  0
   -5.2370    1.8900    1.2970 C   0  0  0  0  0  0  0  0  0  0  0  0
   -5.1170    1.9920   -0.0690 C   0  0  0  0  0  0  0  0  0  0  0  0
   -5.9870    2.7100   -0.8350 F   0  0  0  0  0  0  0  0  0  0  0  0
   -4.0950    1.3600   -0.7130 C   0  0  0  0  0  0  0  0  0  0  0  0
    1.5150   -0.1450   -2.1140 C   0  0  0  0  0  0  0  0  0  0  0  0
    2.6700    0.6320   -2.2510 C   0  0  0  0  0  0  0  0  0  0  0  0
    3.4210    0.9300   -1.1300 C   0  0  0  0  0  0  0  0  0  0  0  0
  1  2  2  0
  2  3  1  0
  2 25  1  0
  3  4  1  0
  4  5  1  0
  5  6  1  0
  6  7  2  0
  6 25  1  0
  7  8  1  0
  9  8  1  1
  8 23  2  0
  9 10  1  0
  9 13  1  0
 10 11  1  0
 11 12  1  0
 12 13  1  0
 13 14  1  6
 14 15  2  0
 14 16  1  0
 16 17  2  0
 16 22  1  0
 17 18  1  0
 18 19  2  0
 19 20  1  0
 20 21  1  0
 20 22  2  0
 23 24  1  0
 24 25  2  0
M  CHG  1  11   1
M  END
