
     RDKit          3D

 28 29  0  0  0  0  0  0  0  0999 V2000
   -3.6420   -2.1670   -1.9260 C   0  0  0  0  0  0  0  0  0  0  0  0
   -3.0290   -2.5390   -0.7070 O   0  0  0  0  0  0  0  0  0  0  0  0
   -2.0800   -1.6870   -0.0900 C   0  0  0  0  0  0  0  0  0  0  0  0
   -0.4910   -1.7300   -0.4490 P   0  0  0  0  0  0  0  0  0  0  0  0
    0.9520   -0.7940    0.1520 C   0  0  1  0  0  0  0  0  0  0  0  0
    0.8190   -0.1940    1.4050 O   0  0  0  0  0  0  0  0  0  0  0  0
    0.5850   -1.1250    2.2920 O   0  0  0  0  0  0  0  0  0  0  0  0
    1.5540   -1.9860    2.4260 O   0  0  0  0  0  0  0  0  0  0  0  0
    2.0180   -1.7170    0.3110 O   0  0  0  0  0  0  0  0  0  0  0  0
    3.3470   -0.6010    0.4060 P   0  0  0  0  0  0  0  0  0  0  0  0
    4.7760   -1.2350   -0.3240 O   0  0  0  0  0  0  0  0  0  0  0  0
    5.5190   -1.7570    0.6140 O   0  0  0  0  0  0  0  0  0  0  0  0
    6.8240   -1.8120    0.2770 N   0  0  0  0  0  0  0  0  0  0  0  0
    2.6620    0.6900   -0.5280 O   0  0  0  0  0  0  0  0  0  0  0  0
    1.3730    0.2530   -0.8100 C   0  0  1  0  0  0  0  0  0  0  0  0
    1.1970   -0.0940   -2.1510 O   0  0  0  0  0  0  0  0  0  0  0  0
    0.5370    1.4390   -0.4910 N   0  0  0  0  0  0  0  0  0  0  0  0
    1.1050    2.5840   -1.0550 N   0  0  0  0  0  0  0  0  0  0  0  0
    0.2880    3.2630   -1.8560 O   0  0  0  0  0  0  0  0  0  0  0  0
   -1.3300    3.3930   -1.3120 P   0  0  0  0  0  0  0  0  0  0  0  0
   -1.9300    5.0980   -1.1730 C   0  0  0  0  0  0  0  0  0  0  0  0
   -2.0310    5.7570   -2.1950 O   0  0  0  0  0  0  0  0  0  0  0  0
   -1.5250    2.4960    0.1570 O   0  0  0  0  0  0  0  0  0  0  0  0
   -2.0880    1.3560   -0.1640 O   0  0  0  0  0  0  0  0  0  0  0  0
   -2.2170    0.5970    0.9360 O   0  0  0  0  0  0  0  0  0  0  0  0
   -2.6000   -0.7520    0.8970 C   0  0  0  0  0  0  0  0  0  0  0  0
   -3.4730   -1.1540    1.8110 C   0  0  0  0  0  0  0  0  0  0  0  0
   -3.9920   -0.2940    2.7710 O   0  0  0  0  0  0  0  0  0  0  0  0
  1  2  1  0
  2  3  1  0
  3  4  2  0
  3 26  1  0
  4  5  1  0
  5  6  1  1
  5  9  1  0
  5 15  1  0
  6  7  1  0
  7  8  1  0
  9 10  1  0
 10 11  1  0
 10 14  1  0
 11 12  1  0
 12 13  1  0
 14 15  1  0
 15 16  1  6
 15 17  1  0
 17 18  1  0
 18 19  1  0
 19 20  1  0
 20 21  1  0
 20 23  1  0
 21 22  2  0
 23 24  1  0
 24 25  1  0
 25 26  1  0
 26 27  2  3
 27 28  1  0
M  END
