
     RDKit          3D

 10  9  0  0  0  0  0  0  0  0999 V2000
    2.3080   -1.2880    0.0740 C   0  0  0  0  0  0  0  0  0  0  0  0
    1.7380   -0.6000   -0.9870 O   0  0  0  0  0  0  0  0  0  0  0  0
    1.2470    0.9860   -0.6010 P   0  0  0  0  0  0  0  0  0  0  0  0
    2.2210    1.7600    0.5750 O   0  0  0  0  0  0  0  0  0  0  0  0
    1.4500    2.5350    1.3240 O   0  0  0  0  0  0  0  0  0  0  0  0
   -0.4230    1.2010   -0.3950 O   0  0  0  0  0  0  0  0  0  0  0  0
   -1.1570    0.0140   -0.3690 C   0  0  0  0  0  0  0  0  0  0  0  0
   -2.5090    0.3690   -0.1930 O   0  0  0  0  0  0  0  0  0  0  0  0
   -3.5510   -0.5290   -0.1160 C   0  0  0  0  0  0  0  0  0  0  0  0
   -3.3040   -1.7530   -0.2060 O   0  0  0  0  0  0  0  0  0  0  0  0
  1  2  1  0
  2  3  1  0
  3  4  1  0
  3  6  1  0
  4  5  1  0
  6  7  1  0
  7  8  1  0
  8  9  1  0
  9 10  2  0
M  END
