
     RDKit          3D

 10  9  0  0  0  0  0  0  0  0999 V2000
   -1.3020   -1.3190    0.9420 C   0  0  0  0  0  0  0  0  0  0  0  0
   -1.1690   -0.7640   -0.4360 C   0  0  2  0  0  0  0  0  0  0  0  0
    0.2790   -0.6170   -0.8890 C   0  0  0  0  0  0  0  0  0  0  0  0
    1.3260    0.3990    0.0220 P   0  0  0  0  0  0  0  0  0  0  0  0
    2.5590   -0.3340    0.9700 O   0  0  0  0  0  0  0  0  0  0  0  0
    2.4260    0.6350   -1.0240 O   0  0  0  0  0  0  0  0  0  0  0  0
    1.0450    1.9980    0.1690 O   0  0  0  0  0  0  0  0  0  0  0  0
   -1.8850    0.5290   -0.5150 C   0  0  0  0  0  0  0  0  0  0  0  0
   -2.8370    0.7230   -1.3280 O   0  0  0  0  0  0  0  0  0  0  0  0
   -1.5490    1.5910    0.2970 O   0  0  0  0  0  0  0  0  0  0  0  0
  2  1  1  1
  2  3  1  0
  2  8  1  0
  3  4  1  0
  4  5  1  0
  4  6  1  0
  4  7  1  0
  8  9  2  0
  8 10  1  0
M  END
