
     RDKit          3D

 24 24  0  0  0  0  0  0  0  0999 V2000
    5.8660   -2.2820   -1.5240 C   0  0  0  0  0  0  0  0  0  0  0  0
    4.8470   -1.2210   -1.1640 C   0  0  0  0  0  0  0  0  0  0  0  0
    4.7640   -1.1460    0.2070 O   0  0  0  0  0  0  0  0  0  0  0  0
    3.6390    0.0240    0.7650 P   0  0  0  0  0  0  0  0  0  0  0  0
    2.4500    0.5730   -0.5240 C   0  0  0  0  0  0  0  0  0  0  0  0
    1.0570    0.1000   -0.2600 C   0  0  0  0  0  0  0  0  0  0  0  0
    0.6660   -1.1040   -0.7710 C   0  0  0  0  0  0  0  0  0  0  0  0
   -0.6070   -1.5720   -0.5480 C   0  0  0  0  0  0  0  0  0  0  0  0
   -1.4880   -0.7870    0.2120 C   0  0  0  0  0  0  0  0  0  0  0  0
   -2.7800   -1.2960    0.3940 N   0  0  0  0  0  0  0  0  0  0  0  0
   -3.6460   -0.7940    1.3950 C   0  0  0  0  0  0  0  0  0  0  0  0
   -3.3900    0.1080    2.2010 O   0  0  0  0  0  0  0  0  0  0  0  0
   -5.0120   -1.4300    1.4740 C   0  0  1  0  0  0  0  0  0  0  0  0
   -5.7530   -0.8030    2.5370 N   0  0  0  0  0  0  0  0  0  0  0  0
   -5.6880   -1.0930    0.1450 C   0  0  0  0  0  0  0  0  0  0  0  0
   -5.7700    0.3350    0.0160 N   0  0  0  0  0  0  0  0  0  0  0  0
   -6.3540    0.9400   -1.1240 C   0  0  0  0  0  0  0  0  0  0  0  0
   -6.8230    0.2540   -2.0690 O   0  0  0  0  0  0  0  0  0  0  0  0
   -6.4160    2.3210   -1.2150 O   0  0  0  0  0  0  0  0  0  0  0  0
   -1.0780    0.4090    0.7110 C   0  0  0  0  0  0  0  0  0  0  0  0
    0.2230    0.8740    0.4770 C   0  0  0  0  0  0  0  0  0  0  0  0
    4.4270    1.3850    1.5060 O   0  0  0  0  0  0  0  0  0  0  0  0
    5.0190    2.1600    0.5130 C   0  0  0  0  0  0  0  0  0  0  0  0
    5.7150    3.3540    1.1180 C   0  0  0  0  0  0  0  0  0  0  0  0
  1  2  1  0
  2  3  1  0
  3  4  1  0
  4  5  1  0
  4 22  1  0
  5  6  1  0
  6  7  2  0
  6 21  1  0
  7  8  1  0
  8  9  2  0
  9 10  1  0
  9 20  1  0
 10 11  1  0
 11 12  2  0
 11 13  1  0
 13 14  1  1
 13 15  1  0
 15 16  1  0
 16 17  1  0
 17 18  2  0
 17 19  1  0
 20 21  2  0
 22 23  1  0
 23 24  1  0
M  END
