
     RDKit          3D

 27 29  0  0  0  0  0  0  0  0999 V2000
   -0.4240    1.2960   -4.0490 O   0  0  0  0  0  0  0  0  0  0  0  0
    0.1120    1.1570   -2.9320 C   0  0  0  0  0  0  0  0  0  0  0  0
    0.7820   -0.0620   -2.4290 C   0  0  0  0  0  0  0  0  0  0  0  0
    0.6890    0.1890   -0.9070 C   0  0  2  0  0  0  0  0  0  0  0  0
    1.8140   -0.6380   -0.2970 C   0  0  0  0  0  0  0  0  0  0  0  0
    1.8330   -0.6080    1.0530 O   0  0  0  0  0  0  0  0  0  0  0  0
    2.7850   -1.3830    1.6210 C   0  0  0  0  0  0  0  0  0  0  0  0
    4.2110   -1.1150    1.3150 C   0  0  0  0  0  0  0  0  0  0  0  0
    4.5870   -1.2250   -0.0110 O   0  0  0  0  0  0  0  0  0  0  0  0
    5.8720   -0.9530   -0.0760 O   0  0  0  0  0  0  0  0  0  0  0  0
    6.1330    0.1780    0.5440 O   0  0  0  0  0  0  0  0  0  0  0  0
    6.1130    1.1540   -0.3360 O   0  0  0  0  0  0  0  0  0  0  0  0
   -0.5860   -0.2100   -0.5390 O   0  0  0  0  0  0  0  0  0  0  0  0
   -1.1760   -0.1760    0.6940 C   0  0  0  0  0  0  0  0  0  0  0  0
   -0.5260    0.2670    1.6490 O   0  0  0  0  0  0  0  0  0  0  0  0
   -2.5660   -0.6730    0.8260 C   0  0  1  0  0  0  0  0  0  0  0  0
   -3.0420   -0.5830    2.1220 O   0  0  0  0  0  0  0  0  0  0  0  0
   -4.4230   -0.6330    1.9780 C   0  0  1  0  0  0  0  0  0  0  0  0
   -5.0710    0.0550    3.0140 O   0  0  0  0  0  0  0  0  0  0  0  0
   -4.7430   -0.1110    0.7500 O   0  0  0  0  0  0  0  0  0  0  0  0
   -3.5630    0.1360    0.0610 C   0  0  1  0  0  0  0  0  0  0  0  0
   -3.2580    1.6160    0.0530 C   0  0  0  0  0  0  0  0  0  0  0  0
   -2.8710    1.7960   -1.2950 O   0  0  0  0  0  0  0  0  0  0  0  0
   -3.7590    1.0920   -1.9700 O   0  0  0  0  0  0  0  0  0  0  0  0
   -3.6380   -0.1910   -1.3940 C   0  0  0  0  0  0  0  0  0  0  0  0
    0.9450    1.6650   -0.8540 C   0  0  0  0  0  0  0  0  0  0  0  0
    0.1690    2.1400   -1.9610 O   0  0  0  0  0  0  0  0  0  0  0  0
  1  2  2  0
  2  3  1  0
  2 27  1  0
  3  4  1  0
  4  5  1  1
  4 13  1  0
  4 26  1  0
  5  6  1  0
  6  7  1  0
  7  8  1  0
  8  9  1  0
  9 10  1  0
 10 11  1  0
 11 12  1  0
 13 14  1  0
 14 15  2  0
 16 14  1  1
 16 17  1  0
 16 21  1  0
 17 18  1  0
 18 19  1  1
 18 20  1  0
 20 21  1  0
 21 22  1  6
 21 25  1  0
 22 23  1  0
 23 24  1  0
 24 25  1  0
 26 27  1  0
M  END
