
     RDKit          3D

 27 28  0  0  0  0  0  0  0  0999 V2000
   -0.1290   -0.9160   -2.5810 O   0  0  0  0  0  0  0  0  0  0  0  0
    0.4840   -1.3430   -1.5490 C   0  0  0  0  0  0  0  0  0  0  0  0
    0.5880   -2.6340   -1.1600 O   0  0  0  0  0  0  0  0  0  0  0  0
    0.0680   -3.3290   -0.0840 C   0  0  0  0  0  0  0  0  0  0  0  0
   -1.1270   -2.8850    0.4270 O   0  0  0  0  0  0  0  0  0  0  0  0
   -2.1880   -3.4200   -0.3200 C   0  0  0  0  0  0  0  0  0  0  0  0
   -3.2840   -2.3940   -0.3760 C   0  0  0  0  0  0  0  0  0  0  0  0
   -2.7710   -1.2530   -0.9960 O   0  0  0  0  0  0  0  0  0  0  0  0
   -3.0910   -0.0980   -0.2850 C   0  0  0  0  0  0  0  0  0  0  0  0
   -2.0580    0.9550   -0.6620 C   0  0  1  0  0  0  0  0  0  0  0  0
   -2.5730    2.2580   -0.1910 C   0  0  0  0  0  0  0  0  0  0  0  0
   -3.3140    3.0340   -0.8820 O   0  0  0  0  0  0  0  0  0  0  0  0
   -2.0950    2.4320    1.0970 O   0  0  0  0  0  0  0  0  0  0  0  0
   -0.7340    1.9850    1.0600 C   0  0  2  0  0  0  0  0  0  0  0  0
    0.0730    3.0890    0.4990 C   0  0  0  0  0  0  0  0  0  0  0  0
    1.3170    2.9580    0.3570 O   0  0  0  0  0  0  0  0  0  0  0  0
   -0.5340    4.2750    0.1250 O   0  0  0  0  0  0  0  0  0  0  0  0
    0.2200    5.2630   -0.3820 O   0  0  0  0  0  0  0  0  0  0  0  0
   -0.7770    0.7790    0.1140 C   0  0  2  0  0  0  0  0  0  0  0  0
    0.3190    0.8420   -0.6910 O   0  0  0  0  0  0  0  0  0  0  0  0
    1.1280   -0.2770   -0.7340 C   0  0  1  0  0  0  0  0  0  0  0  0
    1.6100   -0.7560    0.5840 C   0  0  0  0  0  0  0  0  0  0  0  0
    2.3580    0.1640    1.2800 O   0  0  0  0  0  0  0  0  0  0  0  0
    3.5120    0.5940    0.6780 C   0  0  0  0  0  0  0  0  0  0  0  0
    4.1790    1.5300    1.5080 O   0  0  0  0  0  0  0  0  0  0  0  0
    5.2790    1.9490    0.9510 O   0  0  0  0  0  0  0  0  0  0  0  0
    6.0090    0.9710    0.4680 O   0  0  0  0  0  0  0  0  0  0  0  0
  1  2  2  0
  2  3  1  0
  2 21  1  0
  3  4  1  0
  4  5  1  0
  5  6  1  0
  6  7  1  0
  7  8  1  0
  8  9  1  0
 10  9  1  1
 10 11  1  0
 10 19  1  0
 11 12  2  0
 11 13  1  0
 13 14  1  0
 14 15  1  6
 14 19  1  0
 15 16  2  0
 15 17  1  0
 17 18  1  0
 19 20  1  6
 20 21  1  0
 21 22  1  1
 22 23  1  0
 23 24  1  0
 24 25  1  0
 25 26  1  0
 26 27  1  0
M  END
