
     RDKit          3D

 27 28  0  0  0  0  0  0  0  0999 V2000
   -0.1170    1.9740    3.2610 O   0  0  0  0  0  0  0  0  0  0  0  0
   -0.2060    1.4260    2.1300 C   0  0  0  0  0  0  0  0  0  0  0  0
   -1.4210    1.6790    1.2440 C   0  0  0  0  0  0  0  0  0  0  0  0
   -1.8470    0.6480    0.6010 O   0  0  0  0  0  0  0  0  0  0  0  0
   -1.4250    0.0880   -0.5570 C   0  0  2  0  0  0  0  0  0  0  0  0
   -2.8320    0.0430   -1.2400 C   0  0  0  0  0  0  0  0  0  0  0  0
   -3.5910   -0.5490   -0.2130 O   0  0  0  0  0  0  0  0  0  0  0  0
   -4.4920    0.4060    0.0690 O   0  0  0  0  0  0  0  0  0  0  0  0
   -5.4150   -0.0220    0.8490 O   0  0  0  0  0  0  0  0  0  0  0  0
   -6.0380   -0.9690    0.1070 O   0  0  0  0  0  0  0  0  0  0  0  0
   -1.0430   -1.3090   -0.2780 C   0  0  0  0  0  0  0  0  0  0  0  0
    0.0950   -1.8540   -0.8830 O   0  0  0  0  0  0  0  0  0  0  0  0
    0.7650   -2.8110   -0.1150 C   0  0  0  0  0  0  0  0  0  0  0  0
    2.2890   -2.5420   -0.0430 C   0  0  0  0  0  0  0  0  0  0  0  0
    2.6940   -1.6710    0.9040 O   0  0  0  0  0  0  0  0  0  0  0  0
    3.7070   -0.7370    0.5790 C   0  0  0  0  0  0  0  0  0  0  0  0
    3.2330    0.7130    0.8680 C   0  0  1  0  0  0  0  0  0  0  0  0
    3.4190    1.5560   -0.2480 O   0  0  0  0  0  0  0  0  0  0  0  0
    2.4490    2.0600   -1.1350 C   0  0  0  0  0  0  0  0  0  0  0  0
    2.7790    2.0260   -2.3850 O   0  0  0  0  0  0  0  0  0  0  0  0
    1.1250    2.6250   -0.8380 C   0  0  0  0  0  0  0  0  0  0  0  0
   -0.0240    2.1230   -1.3470 O   0  0  0  0  0  0  0  0  0  0  0  0
   -0.6760    0.9120   -1.4720 C   0  0  0  0  0  0  0  0  0  0  0  0
   -0.6610    0.4020   -2.6630 O   0  0  0  0  0  0  0  0  0  0  0  0
    1.7170    0.4600    0.8240 C   0  0  0  0  0  0  0  0  0  0  0  0
    1.7200    0.0640   -0.4060 O   0  0  0  0  0  0  0  0  0  0  0  0
    0.8330    0.6170    1.7220 O   0  0  0  0  0  0  0  0  0  0  0  0
  1  2  2  0
  2  3  1  0
  2 27  1  0
  3  4  1  0
  4  5  1  0
  5  6  1  6
  5 11  1  0
  5 23  1  0
  6  7  1  0
  7  8  1  0
  8  9  1  0
  9 10  1  0
 11 12  1  0
 12 13  1  0
 13 14  1  0
 14 15  1  0
 15 16  1  0
 17 16  1  6
 17 18  1  0
 17 25  1  0
 18 19  1  0
 19 20  2  0
 19 21  1  0
 21 22  1  0
 22 23  1  0
 23 24  2  0
 25 26  2  0
 25 27  1  0
M  END
