
     RDKit          3D

 18 18  0  0  0  0  0  0  0  0999 V2000
    3.4380   -2.8070    0.1230 C   0  0  0  0  0  0  0  0  0  0  0  0
    2.7090   -1.5460    0.4790 C   0  0  2  0  0  0  0  0  0  0  0  0
    1.6720   -1.7950    1.4080 O   0  0  0  0  0  0  0  0  0  0  0  0
    1.0580   -0.5460    1.4180 C   0  0  0  0  0  0  0  0  0  0  0  0
    0.9700   -0.2250   -0.0480 C   0  0  1  0  0  0  0  0  0  0  0  0
   -0.1780   -0.6200   -0.6610 O   0  0  0  0  0  0  0  0  0  0  0  0
   -1.3180    0.0940   -0.3870 C   0  0  0  0  0  0  0  0  0  0  0  0
   -2.4330   -0.5580   -1.1840 C   0  0  0  0  0  0  0  0  0  0  0  0
   -3.6770    0.0320   -1.0350 O   0  0  0  0  0  0  0  0  0  0  0  0
   -4.3420    0.1260    0.1670 C   0  0  0  0  0  0  0  0  0  0  0  0
   -3.8020   -0.3480    1.1920 O   0  0  0  0  0  0  0  0  0  0  0  0
   -5.5910    0.7240    0.3000 O   0  0  0  0  0  0  0  0  0  0  0  0
    1.3780    1.0770   -0.3250 O   0  0  0  0  0  0  0  0  0  0  0  0
    0.6780    2.0120    0.2840 O   0  0  0  0  0  0  0  0  0  0  0  0
    1.2220    3.2830    0.3890 C   0  0  0  0  0  0  0  0  0  0  0  0
    2.3560    3.5440   -0.0840 O   0  0  0  0  0  0  0  0  0  0  0  0
    0.4890    4.2780    1.0310 O   0  0  0  0  0  0  0  0  0  0  0  0
    1.9980   -1.0410   -0.5840 O   0  0  0  0  0  0  0  0  0  0  0  0
  2  1  1  6
  2  3  1  0
  2 18  1  0
  3  4  1  0
  4  5  1  0
  5  6  1  6
  5 13  1  0
  5 18  1  0
  6  7  1  0
  7  8  1  0
  8  9  1  0
  9 10  1  0
 10 11  2  0
 10 12  1  0
 13 14  1  0
 14 15  1  0
 15 16  2  0
 15 17  1  0
M  END
