
     RDKit          3D

 28 29  0  0  0  0  0  0  0  0999 V2000
    0.8340   -4.9300    2.4140 C   0  0  0  0  0  0  0  0  0  0  0  0
    0.2240   -3.5610    2.3330 C   0  0  0  0  0  0  0  0  0  0  0  0
    0.2690   -3.0150    0.9070 C   0  0  0  0  0  0  0  0  0  0  0  0
   -0.3680   -1.6540    0.9520 C   0  0  0  0  0  0  0  0  0  0  0  0
   -0.4170   -0.9640   -0.3730 C   0  0  1  0  0  0  0  0  0  0  0  0
    0.9270   -0.7970   -0.8710 N   0  0  0  0  0  0  0  0  0  0  0  0
    1.8940   -0.0470   -0.1850 C   0  0  0  0  0  0  0  0  0  0  0  0
    1.6720    0.5350    0.9010 O   0  0  0  0  0  0  0  0  0  0  0  0
    3.2390    0.1100   -0.6900 N   0  0  0  0  0  0  0  0  0  0  0  0
    4.2250    0.8850    0.0360 C   0  0  0  0  0  0  0  0  0  0  0  0
    5.5080    0.8730   -0.7300 C   0  0  0  0  0  0  0  0  0  0  0  0
    6.8470    1.8370    0.1170 P   0  0  0  0  0  0  0  0  0  0  0  0
    8.3560    1.6170   -0.6810 O   0  0  0  0  0  0  0  0  0  0  0  0
    6.4310    3.4890    0.3190 O   0  0  0  0  0  0  0  0  0  0  0  0
   -1.1930   -1.7600   -1.4030 C   0  0  0  0  0  0  0  0  0  0  0  0
   -2.5320   -2.1070   -0.8070 C   0  0  0  0  0  0  0  0  0  0  0  0
   -3.1730   -0.8270   -0.3700 C   0  0  0  0  0  0  0  0  0  0  0  0
   -2.4080    0.3390   -0.7690 N   0  0  0  0  0  0  0  0  0  0  0  0
   -3.1610    1.5390   -0.6950 C   0  0  1  0  0  0  0  0  0  0  0  0
   -3.6380    1.9600    0.6420 C   0  0  0  0  0  0  0  0  0  0  0  0
   -4.8580    2.5400    0.7370 O   0  0  0  0  0  0  0  0  0  0  0  0
   -5.1730    3.6260    0.0080 C   0  0  0  0  0  0  0  0  0  0  0  0
   -4.0640    4.4820   -0.4640 C   0  0  0  0  0  0  0  0  0  0  0  0
   -4.1950    5.6990   -0.1960 O   0  0  0  0  0  0  0  0  0  0  0  0
   -2.9440    4.0400   -1.1520 O   0  0  0  0  0  0  0  0  0  0  0  0
   -2.5430    2.7020   -1.3780 C   0  0  0  0  0  0  0  0  0  0  0  0
   -1.6150    2.5300   -2.2050 O   0  0  0  0  0  0  0  0  0  0  0  0
   -1.1000    0.3780   -0.2060 C   0  0  0  0  0  0  0  0  0  0  0  0
  1  2  1  0
  2  3  1  0
  3  4  1  0
  5  4  1  1
  5  6  1  0
  5 15  1  0
  5 28  1  0
  6  7  1  0
  7  8  2  0
  7  9  1  0
  9 10  1  0
 10 11  1  0
 11 12  1  0
 12 13  1  0
 12 14  1  0
 15 16  1  0
 16 17  1  0
 17 18  1  0
 19 18  1  1
 18 28  1  0
 19 20  1  0
 19 26  1  0
 20 21  1  0
 21 22  1  0
 22 23  1  0
 23 24  2  0
 23 25  1  0
 25 26  1  0
 26 27  2  0
M  END
