
     RDKit          3D

 28 28  0  0  0  0  0  0  0  0999 V2000
    4.2310    0.3220   -3.7240 C   0  0  0  0  0  0  0  0  0  0  0  0
    3.8940    0.2260   -2.3320 O   0  0  0  0  0  0  0  0  0  0  0  0
    4.7700    0.7310   -1.3790 C   0  0  0  0  0  0  0  0  0  0  0  0
    6.0020    1.3550   -1.6000 C   0  0  0  0  0  0  0  0  0  0  0  0
    6.5030    1.6810   -0.3930 N   0  0  0  0  0  0  0  0  0  0  0  0
    5.6470    1.2930    0.5800 C   0  0  0  0  0  0  0  0  0  0  0  0
    4.5520    0.6940   -0.0190 C   0  0  0  0  0  0  0  0  0  0  0  0
    3.3840    0.1300    0.6770 C   0  0  0  0  0  0  0  0  0  0  0  0
    3.4270   -1.0750    1.0070 O   0  0  0  0  0  0  0  0  0  0  0  0
    2.2730    0.9480    0.9450 N   0  0  0  0  0  0  0  0  0  0  0  0
    2.2560    2.3340    0.5500 C   0  0  0  0  0  0  0  0  0  0  0  0
    1.1250    0.3520    1.6400 C   0  0  0  0  0  0  0  0  0  0  0  0
    0.1600   -0.2140    0.6840 C   0  0  0  0  0  0  0  0  0  0  0  0
    0.4680   -0.1060   -0.5510 O   0  0  0  0  0  0  0  0  0  0  0  0
   -1.0240   -0.8260    1.1080 N   0  0  0  0  0  0  0  0  0  0  0  0
   -1.9460   -1.2880    0.0540 C   0  0  0  0  0  0  0  0  0  0  0  0
   -2.9050   -0.2230   -0.3090 C   0  0  0  0  0  0  0  0  0  0  0  0
   -2.8380    0.8460    0.2600 O   0  0  0  0  0  0  0  0  0  0  0  0
   -3.9520   -0.4010   -1.3420 C   0  0  0  0  0  0  0  0  0  0  0  0
   -4.7970    0.8160   -1.5290 C   0  0  0  0  0  0  0  0  0  0  0  0
   -5.7430    0.5820   -2.4970 O   0  0  0  0  0  0  0  0  0  0  0  0
   -6.6930    2.0390   -2.6660 P   0  0  0  0  0  0  0  0  0  0  0  0
   -7.2760    2.0750   -4.2980 O   0  0  0  0  0  0  0  0  0  0  0  0
   -5.6330    3.3950   -2.4600 O   0  0  0  0  0  0  0  0  0  0  0  0
   -1.3420   -1.0520    2.4610 C   0  0  0  0  0  0  0  0  0  0  0  0
   -1.0270   -2.3620    3.0640 C   0  0  2  0  0  0  0  0  0  0  0  0
    0.3900   -2.8010    3.0740 C   0  0  0  0  0  0  0  0  0  0  0  0
   -1.8580   -3.5070    2.5260 C   0  0  0  0  0  0  0  0  0  0  0  0
  1  2  1  0
  2  3  1  0
  3  4  2  0
  3  7  1  0
  4  5  1  0
  5  6  1  0
  6  7  2  0
  7  8  1  0
  8  9  2  0
  8 10  1  0
 10 11  1  0
 10 12  1  0
 12 13  1  0
 13 14  2  0
 13 15  1  0
 15 16  1  0
 15 25  1  0
 16 17  1  0
 17 18  2  0
 17 19  1  0
 19 20  1  0
 20 21  1  0
 21 22  1  0
 22 23  1  0
 22 24  1  0
 25 26  1  0
 26 27  1  6
 26 28  1  0
M  END
