
     RDKit          3D

 19 19  0  0  0  0  0  0  0  0999 V2000
   -4.5780    1.0500    0.4200 O   0  0  0  0  0  0  0  0  0  0  0  0
   -3.7170    0.9720   -0.5180 C   0  0  0  0  0  0  0  0  0  0  0  0
   -3.9620    1.7030   -1.6660 O   0  0  0  0  0  0  0  0  0  0  0  0
   -2.5920    0.1750   -0.3560 O   0  0  0  0  0  0  0  0  0  0  0  0
   -2.4520   -0.5170    0.8480 C   0  0  0  0  0  0  0  0  0  0  0  0
   -1.2340   -1.3530    0.9700 C   0  0  1  0  0  0  0  0  0  0  0  0
   -1.1280   -2.4130   -0.0650 C   0  0  0  0  0  0  0  0  0  0  0  0
   -2.0120   -2.5610   -0.9480 O   0  0  0  0  0  0  0  0  0  0  0  0
    0.0010   -3.2200    0.0050 O   0  0  0  0  0  0  0  0  0  0  0  0
    1.0940   -2.8030    0.7370 O   0  0  0  0  0  0  0  0  0  0  0  0
    1.0820   -1.5940    1.4010 C   0  0  0  0  0  0  0  0  0  0  0  0
    1.8500   -1.2920    2.3370 O   0  0  0  0  0  0  0  0  0  0  0  0
    0.0750   -0.5940    0.9550 C   0  0  1  0  0  0  0  0  0  0  0  0
    0.3690   -0.2990   -0.3640 O   0  0  0  0  0  0  0  0  0  0  0  0
    0.6150    1.0160   -0.6370 C   0  0  0  0  0  0  0  0  0  0  0  0
    1.7670    1.6380    0.0700 C   0  0  0  0  0  0  0  0  0  0  0  0
    3.0910    0.9750   -0.2370 C   0  0  0  0  0  0  0  0  0  0  0  0
    3.3950    1.0290   -1.5940 O   0  0  0  0  0  0  0  0  0  0  0  0
    4.5730    0.4160   -1.7240 O   0  0  0  0  0  0  0  0  0  0  0  0
  1  2  2  0
  2  3  1  0
  2  4  1  0
  4  5  1  0
  6  5  1  6
  6  7  1  0
  6 13  1  0
  7  8  2  0
  7  9  1  0
  9 10  1  0
 10 11  1  0
 11 12  2  0
 11 13  1  0
 13 14  1  6
 14 15  1  0
 15 16  1  0
 16 17  1  0
 17 18  1  0
 18 19  1  0
M  END
