
     RDKit          3D

 28 31  0  0  0  0  0  0  0  0999 V2000
   -3.4340   -3.6180   -3.0980 C   0  0  0  0  0  0  0  0  0  0  0  0
   -2.5690   -2.6080   -2.3130 C   0  0  0  0  0  0  0  0  0  0  0  0
   -1.2420   -2.9640   -2.3490 F   0  0  0  0  0  0  0  0  0  0  0  0
   -3.0240   -1.5460   -1.7750 C   0  0  0  0  0  0  0  0  0  0  0  0
   -2.0330   -0.6980   -1.0510 C   0  0  0  0  0  0  0  0  0  0  0  0
   -2.1070    0.7010   -1.1830 C   0  0  0  0  0  0  0  0  0  0  0  0
   -1.0790    1.2570   -0.5650 N   0  0  0  0  0  0  0  0  0  0  0  0
   -0.3230    0.2850   -0.0170 N   0  0  0  0  0  0  0  0  0  0  0  0
   -0.9040   -0.9210   -0.3060 C   0  0  0  0  0  0  0  0  0  0  0  0
   -0.3650   -2.0920    0.1140 N   0  0  0  0  0  0  0  0  0  0  0  0
    0.8050   -2.0740    0.8410 C   0  0  0  0  0  0  0  0  0  0  0  0
    1.3160   -3.1480    1.2400 O   0  0  0  0  0  0  0  0  0  0  0  0
    1.3630   -0.8510    1.0990 C   0  0  0  0  0  0  0  0  0  0  0  0
    2.4900   -0.5320    1.7220 N   0  0  0  0  0  0  0  0  0  0  0  0
    2.7070    0.7770    1.7360 C   0  0  0  0  0  0  0  0  0  0  0  0
    3.8560    1.5650    2.2350 C   0  0  0  0  0  0  0  0  0  0  0  0
    4.9870    0.6150    2.6020 C   0  0  0  0  0  0  0  0  0  0  0  0
    6.1840    1.4440    3.0740 C   0  0  0  0  0  0  0  0  0  0  0  0
    7.2970    0.7380    3.3650 C   0  0  0  0  0  0  0  0  0  0  0  0
    8.3700    0.0600    3.6680 N   0  0  0  0  0  0  0  0  0  0  0  0
    1.6350    1.3210    1.0720 N   0  0  0  0  0  0  0  0  0  0  0  0
    1.4370    2.7300    0.8110 C   0  0  0  0  0  0  0  0  0  0  0  0
    0.8120    0.3380    0.6790 C   0  0  0  0  0  0  0  0  0  0  0  0
   -3.3330    1.1800   -1.9070 C   0  0  1  0  0  0  0  0  0  0  0  0
   -3.2070    1.1430   -3.3980 C   0  0  0  0  0  0  0  0  0  0  0  0
   -4.5040    0.3790   -1.4570 C   0  0  0  0  0  0  0  0  0  0  0  0
   -4.4140   -1.0620   -1.8180 C   0  0  2  0  0  0  0  0  0  0  0  0
   -5.2180   -1.8590   -0.9970 F   0  0  0  0  0  0  0  0  0  0  0  0
  1  2  1  0
  2  3  1  0
  2  4  2  3
  4  5  1  0
  4 27  1  0
  5  6  1  0
  5  9  2  0
  6  7  2  0
  6 24  1  0
  7  8  1  0
  8  9  1  0
  8 23  1  0
  9 10  1  0
 10 11  1  0
 11 12  2  0
 11 13  1  0
 13 14  1  0
 13 23  2  0
 14 15  2  0
 15 16  1  0
 15 21  1  0
 16 17  1  0
 17 18  1  0
 18 19  1  0
 19 20  3  0
 21 22  1  0
 21 23  1  0
 24 25  1  6
 24 26  1  0
 26 27  1  0
 27 28  1  1
M  END
