
     RDKit          3D

 28 31  0  0  0  0  0  0  0  0999 V2000
   -3.0020   -2.4130    1.5310 C   0  0  0  0  0  0  0  0  0  0  0  0
   -3.6500   -1.8990    0.2860 C   0  0  0  0  0  0  0  0  0  0  0  0
   -3.3960   -0.7100   -0.2050 C   0  0  0  0  0  0  0  0  0  0  0  0
   -4.0760   -0.2970   -1.4240 C   0  0  0  0  0  0  0  0  0  0  0  0
   -4.3630   -1.1250   -2.4020 C   0  0  0  0  0  0  0  0  0  0  0  0
   -5.0060   -0.6780   -3.5260 F   0  0  0  0  0  0  0  0  0  0  0  0
   -4.0640   -2.4470   -2.4180 F   0  0  0  0  0  0  0  0  0  0  0  0
   -4.4730    1.1470   -1.6240 C   0  0  0  0  0  0  0  0  0  0  0  0
   -3.2150    1.9330   -1.2590 C   0  0  0  0  0  0  0  0  0  0  0  0
   -2.9130    1.6590    0.1740 C   0  0  0  0  0  0  0  0  0  0  0  0
   -2.4220    0.2540    0.4640 C   0  0  2  0  0  0  0  0  0  0  0  0
   -1.1030    0.0650   -0.1920 C   0  0  0  0  0  0  0  0  0  0  0  0
   -0.0210    0.7390    0.5740 C   0  0  2  0  0  0  0  0  0  0  0  0
    1.2880    0.4340    0.0060 N   0  0  0  0  0  0  0  0  0  0  0  0
    2.4490    0.8900    0.4780 C   0  0  0  0  0  0  0  0  0  0  0  0
    3.4980    0.3900   -0.3200 C   0  0  0  0  0  0  0  0  0  0  0  0
    4.8720    0.6770   -0.1620 N   0  0  0  0  0  0  0  0  0  0  0  0
    5.9790   -0.0780   -0.5190 C   0  0  0  0  0  0  0  0  0  0  0  0
    5.9770   -1.3440   -1.0430 C   0  0  0  0  0  0  0  0  0  0  0  0
    7.1430   -1.9750   -1.3790 N   0  0  0  0  0  0  0  0  0  0  0  0
    8.2950   -1.3900   -1.2100 N   0  0  0  0  0  0  0  0  0  0  0  0
    8.3540   -0.1520   -0.7000 C   0  0  0  0  0  0  0  0  0  0  0  0
    7.2200    0.4800   -0.3660 N   0  0  0  0  0  0  0  0  0  0  0  0
    2.8560   -0.3690   -1.2630 C   0  0  0  0  0  0  0  0  0  0  0  0
    1.5030   -0.3240   -1.0390 N   0  0  0  0  0  0  0  0  0  0  0  0
   -0.0690    0.2170    1.9990 C   0  0  0  0  0  0  0  0  0  0  0  0
   -1.4320    0.6250    2.5320 C   0  0  0  0  0  0  0  0  0  0  0  0
   -2.4670    0.1180    1.8190 O   0  0  0  0  0  0  0  0  0  0  0  0
  1  2  1  0
  2  3  2  3
  3  4  1  0
  3 11  1  0
  4  5  2  3
  4  8  1  0
  5  6  1  0
  5  7  1  0
  8  9  1  0
  9 10  1  0
 11 10  1  1
 11 12  1  0
 11 28  1  0
 12 13  1  0
 13 14  1  6
 13 26  1  0
 14 15  1  0
 14 25  1  0
 15 16  2  0
 16 17  1  0
 16 24  1  0
 17 18  1  0
 18 19  2  0
 18 23  1  0
 19 20  1  0
 20 21  2  0
 21 22  1  0
 22 23  2  0
 24 25  2  0
 26 27  1  0
 27 28  1  0
M  END
