
     RDKit          3D

 28 32  0  0  0  0  0  0  0  0999 V2000
    0.1940    0.1910   -1.2000 O   0  0  0  0  0  0  0  0  0  0  0  0
   -0.0430   -0.7760   -0.4090 C   0  0  0  0  0  0  0  0  0  0  0  0
    1.0980   -1.3010    0.2540 N   0  0  0  0  0  0  0  0  0  0  0  0
    2.3910   -0.7610    0.0260 C   0  0  0  0  0  0  0  0  0  0  0  0
    3.4740   -1.2910    0.6830 C   0  0  0  0  0  0  0  0  0  0  0  0
    4.7560   -0.7730    0.4720 C   0  0  0  0  0  0  0  0  0  0  0  0
    5.9590   -1.2960    1.1430 C   0  0  1  0  0  0  0  0  0  0  0  0
    6.8840   -1.7990    0.2500 F   0  0  0  0  0  0  0  0  0  0  0  0
    6.5430   -0.3340    1.9410 F   0  0  0  0  0  0  0  0  0  0  0  0
    4.8560    0.2760   -0.4150 C   0  0  0  0  0  0  0  0  0  0  0  0
    6.0920    0.8220   -0.6580 C   0  0  0  0  0  0  0  0  0  0  0  0
    6.2670    1.8670   -1.5280 C   0  0  0  0  0  0  0  0  0  0  0  0
    5.1520    2.3740   -2.1710 C   0  0  0  0  0  0  0  0  0  0  0  0
    3.8910    1.8630   -1.9620 C   0  0  0  0  0  0  0  0  0  0  0  0
    3.7600    0.8110   -1.0790 C   0  0  0  0  0  0  0  0  0  0  0  0
    2.5470    0.2450   -0.8140 N   0  0  0  0  0  0  0  0  0  0  0  0
   -1.3280   -1.2850   -0.2070 N   0  0  0  0  0  0  0  0  0  0  0  0
   -1.6260   -2.3900    0.6820 C   0  0  0  0  0  0  0  0  0  0  0  0
   -2.7100   -2.0030    1.6610 C   0  0  0  0  0  0  0  0  0  0  0  0
   -3.3250   -0.6830    1.3500 C   0  0  2  0  0  0  0  0  0  0  0  0
   -4.6630   -0.5160    1.8910 N   0  0  0  0  0  0  0  0  0  0  0  0
   -5.3140    0.3650    1.0170 N   0  0  0  0  0  0  0  0  0  0  0  0
   -4.9290    1.7400    1.2680 C   0  0  0  0  0  0  0  0  0  0  0  0
   -5.1500    2.4470   -0.0520 C   0  0  0  0  0  0  0  0  0  0  0  0
   -4.8830    1.3610   -1.0810 C   0  0  0  0  0  0  0  0  0  0  0  0
   -4.8510    0.0700   -0.3230 C   0  0  1  0  0  0  0  0  0  0  0  0
   -3.5030   -0.4670   -0.1050 C   0  0  0  0  0  0  0  0  0  0  0  0
   -2.4790   -0.7720   -0.8640 N   0  0  0  0  0  0  0  0  0  0  0  0
  1  2  2  0
  2  3  1  0
  2 17  1  0
  3  4  1  0
  4  5  2  0
  4 16  1  0
  5  6  1  0
  6  7  1  0
  6 10  2  0
  7  8  1  6
  7  9  1  0
 10 11  1  0
 10 15  1  0
 11 12  2  0
 12 13  1  0
 13 14  2  0
 14 15  1  0
 15 16  2  0
 17 18  1  0
 17 28  1  0
 18 19  1  0
 20 19  1  6
 20 21  1  0
 20 27  1  0
 21 22  1  0
 22 23  1  0
 22 26  1  0
 23 24  1  0
 24 25  1  0
 26 25  1  6
 26 27  1  0
 27 28  2  0
M  END
