
     RDKit          3D

 28 31  0  0  0  0  0  0  0  0999 V2000
    4.9400    3.2860   -1.8830 C   0  0  0  0  0  0  0  0  0  0  0  0
    4.6480    2.3800   -0.7280 C   0  0  0  0  0  0  0  0  0  0  0  0
    5.6590    1.6290   -0.2670 F   0  0  0  0  0  0  0  0  0  0  0  0
    3.4610    2.3950   -0.2750 N   0  0  0  0  0  0  0  0  0  0  0  0
    2.9710    1.6180    0.8110 C   0  0  0  0  0  0  0  0  0  0  0  0
    3.5490    1.8120    1.9930 C   0  0  0  0  0  0  0  0  0  0  0  0
    4.5540    2.6990    2.1750 F   0  0  0  0  0  0  0  0  0  0  0  0
    1.9160    0.6860    0.6320 N   0  0  0  0  0  0  0  0  0  0  0  0
    2.2070   -0.5690    0.6840 C   0  0  0  0  0  0  0  0  0  0  0  0
    3.5310   -1.0180    0.9110 N   0  0  0  0  0  0  0  0  0  0  0  0
    3.7840   -2.3860    0.9580 N   0  0  0  0  0  0  0  0  0  0  0  0
    2.7030   -3.2710    0.7770 C   0  0  0  0  0  0  0  0  0  0  0  0
    2.9150   -4.4640    0.4780 O   0  0  0  0  0  0  0  0  0  0  0  0
    1.2700   -2.8280    0.9310 C   0  0  0  0  0  0  0  0  0  0  0  0
    1.0980   -1.4800    0.4960 N   0  0  0  0  0  0  0  0  0  0  0  0
   -0.0780   -0.9560   -0.1190 C   0  0  0  0  0  0  0  0  0  0  0  0
   -1.3010   -0.8320    0.7070 C   0  0  2  0  0  0  0  0  0  0  0  0
   -1.8720   -2.0760    1.2850 C   0  0  0  0  0  0  0  0  0  0  0  0
   -2.4460   -3.0610    0.3320 C   0  0  0  0  0  0  0  0  0  0  0  0
   -2.9330   -2.5140   -0.9680 C   0  0  0  0  0  0  0  0  0  0  0  0
   -3.1120   -1.0350   -0.9300 C   0  0  0  0  0  0  0  0  0  0  0  0
   -3.9790   -0.2560   -1.5980 N   0  0  0  0  0  0  0  0  0  0  0  0
   -3.8030    1.0400   -1.2670 C   0  0  0  0  0  0  0  0  0  0  0  0
   -2.7790    1.0800   -0.3490 C   0  0  0  0  0  0  0  0  0  0  0  0
   -2.3560   -0.2150   -0.1460 C   0  0  0  0  0  0  0  0  0  0  0  0
   -2.5740    2.5260    0.0290 C   0  0  0  0  0  0  0  0  0  0  0  0
   -3.9520    3.1290   -0.2300 C   0  0  0  0  0  0  0  0  0  0  0  0
   -4.3160    2.4170   -1.5370 C   0  0  0  0  0  0  0  0  0  0  0  0
  1  2  1  0
  2  3  1  0
  2  4  2  3
  4  5  1  0
  5  6  2  3
  5  8  1  0
  6  7  1  0
  8  9  2  3
  9 10  1  0
  9 15  1  0
 10 11  1  0
 11 12  1  0
 12 13  2  0
 12 14  1  0
 14 15  1  0
 15 16  1  0
 17 16  1  6
 17 18  1  0
 17 25  1  0
 18 19  1  0
 19 20  1  0
 20 21  1  0
 21 22  1  0
 21 25  2  0
 22 23  1  0
 23 24  2  0
 23 28  1  0
 24 25  1  0
 24 26  1  0
 26 27  1  0
 27 28  1  0
M  END
