
     RDKit          3D

 28 31  0  0  0  0  0  0  0  0999 V2000
   -4.6420    3.1880    1.2370 C   0  0  0  0  0  0  0  0  0  0  0  0
   -3.4000    3.5570    1.0810 C   0  0  0  0  0  0  0  0  0  0  0  0
   -2.2490    2.6550    0.8930 C   0  0  0  0  0  0  0  0  0  0  0  0
   -2.5570    1.2430    0.6150 C   0  0  1  0  0  0  0  0  0  0  0  0
   -3.3260    1.0420   -0.7030 C   0  0  0  0  0  0  0  0  0  0  0  0
   -3.2790   -0.4640   -0.7880 C   0  0  0  0  0  0  0  0  0  0  0  0
   -4.0830   -1.3920   -1.2510 C   0  0  0  0  0  0  0  0  0  0  0  0
   -3.7840   -2.8160   -1.2090 C   0  0  0  0  0  0  0  0  0  0  0  0
   -2.5770   -3.1880   -0.4580 C   0  0  2  0  0  0  0  0  0  0  0  0
   -1.7840   -3.9630   -1.3580 F   0  0  0  0  0  0  0  0  0  0  0  0
   -2.8820   -4.0700    0.6060 F   0  0  0  0  0  0  0  0  0  0  0  0
   -1.7430   -2.0950    0.0180 C   0  0  0  0  0  0  0  0  0  0  0  0
   -2.0310   -0.8230   -0.1160 C   0  0  0  0  0  0  0  0  0  0  0  0
   -1.3860    0.4020    0.2700 N   0  0  0  0  0  0  0  0  0  0  0  0
   -0.0500    0.7440    0.2290 C   0  0  0  0  0  0  0  0  0  0  0  0
    0.2010    1.8590    0.9120 O   0  0  0  0  0  0  0  0  0  0  0  0
    1.1430    0.1610   -0.3980 C   0  0  2  0  0  0  0  0  0  0  0  0
    0.9790   -1.0420   -1.2270 C   0  0  0  0  0  0  0  0  0  0  0  0
    2.1800    0.1270    0.6030 N   0  0  0  0  0  0  0  0  0  0  0  0
    3.5680    0.0510    0.3350 C   0  0  0  0  0  0  0  0  0  0  0  0
    4.0790    0.1230   -0.9220 C   0  0  0  0  0  0  0  0  0  0  0  0
    5.4080    0.0070   -1.1140 N   0  0  0  0  0  0  0  0  0  0  0  0
    6.2260   -0.1790   -0.0650 C   0  0  0  0  0  0  0  0  0  0  0  0
    7.5660   -0.3270    0.0610 N   0  0  0  0  0  0  0  0  0  0  0  0
    7.9110   -0.4860    1.3290 N   0  0  0  0  0  0  0  0  0  0  0  0
    6.8070   -0.4480    2.0820 C   0  0  0  0  0  0  0  0  0  0  0  0
    5.7240   -0.2540    1.2340 C   0  0  0  0  0  0  0  0  0  0  0  0
    4.4180   -0.1390    1.3990 N   0  0  0  0  0  0  0  0  0  0  0  0
  1  2  2  0
  2  3  1  0
  4  3  1  6
  4  5  1  0
  4 14  1  0
  5  6  1  0
  6  7  2  0
  6 13  1  0
  7  8  1  0
  8  9  1  0
  9 10  1  6
  9 11  1  0
  9 12  1  0
 12 13  2  0
 13 14  1  0
 14 15  1  0
 15 16  2  0
 15 17  1  0
 17 18  1  1
 17 19  1  0
 19 20  1  0
 20 21  2  0
 20 28  1  0
 21 22  1  0
 22 23  2  0
 23 24  1  0
 23 27  1  0
 24 25  1  0
 25 26  2  0
 26 27  1  0
 27 28  2  0
M  END
