
     RDKit          3D

 27 30  0  0  0  0  0  0  0  0999 V2000
    7.9150   -0.5620    1.5700 C   0  0  0  0  0  0  0  0  0  0  0  0
    6.5340   -0.3660    1.2480 N   0  0  0  0  0  0  0  0  0  0  0  0
    6.0990    0.0640    0.1300 C   0  0  0  0  0  0  0  0  0  0  0  0
    4.7350    0.2450   -0.1530 N   0  0  0  0  0  0  0  0  0  0  0  0
    4.2960    0.6780   -1.2720 C   0  0  0  0  0  0  0  0  0  0  0  0
    2.8570    0.8290   -1.4690 N   0  0  0  0  0  0  0  0  0  0  0  0
    2.0500    0.8530   -0.2890 C   0  0  1  0  0  0  0  0  0  0  0  0
    0.5860    1.0180   -0.7220 C   0  0  0  0  0  0  0  0  0  0  0  0
   -0.1370    0.0470    0.1230 C   0  0  0  0  0  0  0  0  0  0  0  0
   -1.5830   -0.0380    0.2710 C   0  0  0  0  0  0  0  0  0  0  0  0
   -2.1570   -0.9370    1.0490 C   0  0  0  0  0  0  0  0  0  0  0  0
   -3.5980   -1.0450    1.2160 C   0  0  0  0  0  0  0  0  0  0  0  0
   -4.5030   -0.2250    0.5840 C   0  0  0  0  0  0  0  0  0  0  0  0
   -5.8720   -0.3710    0.7780 C   0  0  0  0  0  0  0  0  0  0  0  0
   -6.9680    0.3170    0.2660 C   0  0  0  0  0  0  0  0  0  0  0  0
   -6.8560    1.4540   -0.6850 C   0  0  0  0  0  0  0  0  0  0  0  0
   -8.1120   -0.2410    0.7910 C   0  0  0  0  0  0  0  0  0  0  0  0
   -7.7470   -1.2460    1.6070 N   0  0  0  0  0  0  0  0  0  0  0  0
   -6.3990   -1.3350    1.6080 C   0  0  0  0  0  0  0  0  0  0  0  0
   -5.4930   -2.1590    2.2440 C   0  0  0  0  0  0  0  0  0  0  0  0
   -4.1370   -2.0250    2.0600 C   0  0  0  0  0  0  0  0  0  0  0  0
   -3.2710   -2.8450    2.6950 F   0  0  0  0  0  0  0  0  0  0  0  0
    0.6970   -0.7140    0.7110 N   0  0  0  0  0  0  0  0  0  0  0  0
    1.9890   -0.3950    0.3760 O   0  0  0  0  0  0  0  0  0  0  0  0
    5.2130    1.0480   -2.3600 C   0  0  0  0  0  0  0  0  0  0  0  0
    6.5330    0.3340   -2.2890 C   0  0  0  0  0  0  0  0  0  0  0  0
    7.0380    0.3890   -0.9120 N   0  0  0  0  0  0  0  0  0  0  0  0
  1  2  1  0
  2  3  2  3
  3  4  1  0
  3 27  1  0
  4  5  2  0
  5  6  1  0
  5 25  1  0
  7  6  1  6
  7  8  1  0
  7 24  1  0
  8  9  1  0
  9 10  1  0
  9 23  2  0
 10 11  2  3
 11 12  1  0
 12 13  2  0
 12 21  1  0
 13 14  1  0
 14 15  1  0
 14 19  2  0
 15 16  1  0
 15 17  2  0
 17 18  1  0
 18 19  1  0
 19 20  1  0
 20 21  2  0
 21 22  1  0
 23 24  1  0
 25 26  1  0
 26 27  1  0
M  END
