
     RDKit          3D

 28 31  0  0  0  0  0  0  0  0999 V2000
   -5.4770    1.9950    2.6490 C   0  0  0  0  0  0  0  0  0  0  0  0
   -6.4610    1.2620    1.8210 C   0  0  0  0  0  0  0  0  0  0  0  0
   -6.0930    0.5280    0.7670 C   0  0  0  0  0  0  0  0  0  0  0  0
   -4.7000    0.4090    0.3780 C   0  0  0  0  0  0  0  0  0  0  0  0
   -4.3680   -0.3200   -0.6690 C   0  0  0  0  0  0  0  0  0  0  0  0
   -2.9750   -0.4750   -1.1020 N   0  0  0  0  0  0  0  0  0  0  0  0
   -1.9080   -0.4490   -0.1700 C   0  0  0  0  0  0  0  0  0  0  0  0
   -2.1130   -0.3280    1.0790 O   0  0  0  0  0  0  0  0  0  0  0  0
   -0.5150   -0.5560   -0.5830 C   0  0  0  0  0  0  0  0  0  0  0  0
    0.5830   -0.5860    0.2970 C   0  0  0  0  0  0  0  0  0  0  0  0
    1.7490   -0.7060   -0.4120 C   0  0  0  0  0  0  0  0  0  0  0  0
    3.0830   -0.7740    0.0830 N   0  0  0  0  0  0  0  0  0  0  0  0
    3.4280   -0.7230    1.4830 C   0  0  0  0  0  0  0  0  0  0  0  0
    4.8310   -1.2490    1.5250 C   0  0  0  0  0  0  0  0  0  0  0  0
    5.4280   -0.8490    0.2040 C   0  0  2  0  0  0  0  0  0  0  0  0
    5.9860    0.5280    0.2490 C   0  0  0  0  0  0  0  0  0  0  0  0
    5.3750    1.7480    0.3870 C   0  0  0  0  0  0  0  0  0  0  0  0
    6.3470    2.7490    0.3770 C   0  0  0  0  0  0  0  0  0  0  0  0
    7.5070    2.1170    0.2350 N   0  0  0  0  0  0  0  0  0  0  0  0
    7.3070    0.8130    0.1590 N   0  0  0  0  0  0  0  0  0  0  0  0
    4.2540   -0.9010   -0.7370 C   0  0  0  0  0  0  0  0  0  0  0  0
    1.3810   -0.7500   -1.6920 N   0  0  0  0  0  0  0  0  0  0  0  0
    0.0520   -0.6620   -1.7900 N   0  0  0  0  0  0  0  0  0  0  0  0
   -2.9860   -0.6740   -2.5160 C   0  0  0  0  0  0  0  0  0  0  0  0
   -4.4470   -0.7500   -2.9390 C   0  0  0  0  0  0  0  0  0  0  0  0
   -5.1820   -1.0950   -1.6400 C   0  0  1  0  0  0  0  0  0  0  0  0
   -4.9530   -2.4360   -1.3600 F   0  0  0  0  0  0  0  0  0  0  0  0
   -6.4920   -0.7910   -1.7110 F   0  0  0  0  0  0  0  0  0  0  0  0
  1  2  1  0
  2  3  2  3
  3  4  1  0
  4  5  2  3
  5  6  1  0
  5 26  1  0
  6  7  1  0
  6 24  1  0
  7  8  2  0
  7  9  1  0
  9 10  2  0
  9 23  1  0
 10 11  1  0
 11 12  1  0
 11 22  2  0
 12 13  1  0
 12 21  1  0
 13 14  1  0
 14 15  1  0
 15 16  1  1
 15 21  1  0
 16 17  2  0
 16 20  1  0
 17 18  1  0
 18 19  2  0
 19 20  1  0
 22 23  1  0
 24 25  1  0
 25 26  1  0
 26 27  1  1
 26 28  1  0
M  END
