
     RDKit          3D

 20 21  0  0  0  0  0  0  0  0999 V2000
    4.4330   -0.1240    0.8480 C   0  0  0  0  0  0  0  0  0  0  0  0
    2.9630    0.2530    0.8160 C   0  0  1  0  0  0  0  0  0  0  0  0
    2.6790    0.8740   -0.5100 C   0  0  0  0  0  0  0  0  0  0  0  0
    1.1550    1.0850   -0.6100 C   0  0  0  0  0  0  0  0  0  0  0  0
    0.5290   -0.2590   -0.5130 C   0  0  2  0  0  0  0  0  0  0  0  0
    1.3780   -1.1220   -1.2650 O   0  0  0  0  0  0  0  0  0  0  0  0
   -0.8850   -0.4220   -0.9200 C   0  0  2  0  0  0  0  0  0  0  0  0
   -1.2310   -0.0560   -2.3040 C   0  0  0  0  0  0  0  0  0  0  0  0
   -2.5580   -0.1510   -2.7530 N   0  0  0  0  0  0  0  0  0  0  0  0
   -0.3600    0.3420   -3.1030 O   0  0  0  0  0  0  0  0  0  0  0  0
   -1.9380   -0.3040    0.0900 C   0  0  0  0  0  0  0  0  0  0  0  0
   -2.3290   -1.3610    0.8270 C   0  0  0  0  0  0  0  0  0  0  0  0
   -3.3510   -1.3560    1.8450 C   0  0  0  0  0  0  0  0  0  0  0  0
   -3.9800   -0.2290    2.0980 C   0  0  0  0  0  0  0  0  0  0  0  0
   -3.6460    0.8880    1.3920 O   0  0  0  0  0  0  0  0  0  0  0  0
   -2.6470    0.9370    0.3780 C   0  0  0  0  0  0  0  0  0  0  0  0
   -2.4670    2.0870   -0.1970 C   0  0  0  0  0  0  0  0  0  0  0  0
   -1.5860    2.3510   -1.1790 O   0  0  0  0  0  0  0  0  0  0  0  0
    0.7680   -0.7100    0.9370 C   0  0  0  0  0  0  0  0  0  0  0  0
    2.2150   -0.9670    1.0340 N   0  0  0  0  0  0  0  0  0  0  0  0
  2  1  1  6
  2  3  1  0
  2 20  1  0
  3  4  1  0
  4  5  1  0
  5  6  1  6
  5  7  1  0
  5 19  1  0
  7  8  1  6
  7 11  1  0
  8  9  1  0
  8 10  2  0
 11 12  2  0
 11 16  1  0
 12 13  1  0
 13 14  2  0
 14 15  1  0
 15 16  1  0
 16 17  2  3
 17 18  1  0
 19 20  1  0
M  CHG  1  20   1
M  END
