
     RDKit          3D

 20 21  0  0  0  0  0  0  0  0999 V2000
    3.3460    0.8320   -1.7040 C   0  0  0  0  0  0  0  0  0  0  0  0
    3.2390    0.3350   -0.2840 C   0  0  2  0  0  0  0  0  0  0  0  0
    4.5160    0.6180    0.4590 C   0  0  0  0  0  0  0  0  0  0  0  0
    5.4620   -0.3130    0.0230 O   0  0  0  0  0  0  0  0  0  0  0  0
    5.1600   -1.5160    0.6380 C   0  0  0  0  0  0  0  0  0  0  0  0
    3.8710   -2.0770    0.1390 C   0  0  0  0  0  0  0  0  0  0  0  0
    2.9020   -1.0730   -0.2290 N   0  0  0  0  0  0  0  0  0  0  0  0
    1.5820   -1.4780   -0.5460 C   0  0  0  0  0  0  0  0  0  0  0  0
    1.2710   -2.6900   -0.5040 O   0  0  0  0  0  0  0  0  0  0  0  0
    0.5420   -0.4680   -0.9340 C   0  0  0  0  0  0  0  0  0  0  0  0
   -0.6370   -1.1240   -1.1870 O   0  0  0  0  0  0  0  0  0  0  0  0
   -1.6930   -0.3950   -1.6010 C   0  0  0  0  0  0  0  0  0  0  0  0
   -2.1270    0.6340   -0.6490 C   0  0  1  0  0  0  0  0  0  0  0  0
   -1.2090    1.6050   -0.3690 O   0  0  0  0  0  0  0  0  0  0  0  0
   -3.5070    1.2560   -0.9360 C   0  0  0  0  0  0  0  0  0  0  0  0
   -3.6110    1.4000    0.5700 C   0  0  1  0  0  0  0  0  0  0  0  0
   -4.9180    1.3000    1.1240 N   0  0  0  0  0  0  0  0  0  0  0  0
   -2.7580    0.1430    0.6450 C   0  0  2  0  0  0  0  0  0  0  0  0
   -1.7660    0.1400    1.7870 C   0  0  0  0  0  0  0  0  0  0  0  0
   -3.6090   -1.0770    0.5180 C   0  0  0  0  0  0  0  0  0  0  0  0
  2  1  1  6
  2  3  1  0
  2  7  1  0
  3  4  1  0
  4  5  1  0
  5  6  1  0
  6  7  1  0
  7  8  1  0
  8  9  2  0
  8 10  1  0
 10 11  1  0
 11 12  1  0
 12 13  1  0
 13 14  1  1
 13 15  1  0
 13 18  1  0
 15 16  1  0
 16 17  1  6
 16 18  1  0
 18 19  1  1
 18 20  1  0
M  CHG  1  17   1
M  END
