
     RDKit          3D

 20 21  0  0  0  0  0  0  0  0999 V2000
   -1.5820    3.7480    1.1330 C   0  0  0  0  0  0  0  0  0  0  0  0
   -1.7340    2.1960    1.4820 C   0  0  0  0  0  0  0  0  0  0  0  0
   -0.6480    1.5160    0.7550 C   0  0  0  0  0  0  0  0  0  0  0  0
   -0.7240    0.3880    0.1570 C   0  0  0  0  0  0  0  0  0  0  0  0
   -1.9050   -0.4940    0.0720 C   0  0  0  0  0  0  0  0  0  0  0  0
   -1.7010   -1.5870   -0.6880 C   0  0  0  0  0  0  0  0  0  0  0  0
   -2.4560   -2.6520   -1.0570 N   0  0  0  0  0  0  0  0  0  0  0  0
   -3.1420   -0.3220    0.8090 C   0  0  2  0  0  0  0  0  0  0  0  0
   -2.8880   -0.3590    2.3370 C   0  0  0  0  0  0  0  0  0  0  0  0
   -4.1750   -1.3600    0.6030 N   0  0  0  0  0  0  0  0  0  0  0  0
    0.4610   -0.0850   -0.5070 O   0  0  0  0  0  0  0  0  0  0  0  0
    1.6810    0.3630    0.0420 C   0  0  1  0  0  0  0  0  0  0  0  0
    2.8730   -0.1880   -0.6770 C   0  0  1  0  0  0  0  0  0  0  0  0
    4.1350    0.2270    0.0480 C   0  0  0  0  0  0  0  0  0  0  0  0
    5.1530    0.1590   -0.9050 O   0  0  0  0  0  0  0  0  0  0  0  0
    4.9190   -0.8630   -1.8260 C   0  0  0  0  0  0  0  0  0  0  0  0
    4.0880   -1.9770   -1.2460 C   0  0  0  0  0  0  0  0  0  0  0  0
    2.8970   -1.5810   -0.6910 O   0  0  0  0  0  0  0  0  0  0  0  0
    1.6030    1.8800   -0.0960 C   0  0  0  0  0  0  0  0  0  0  0  0
    0.5750    2.2720    0.7760 O   0  0  0  0  0  0  0  0  0  0  0  0
  1  2  1  0
  2  3  1  0
  3  4  2  0
  3 20  1  0
  4  5  1  0
  4 11  1  0
  5  6  2  3
  5  8  1  0
  6  7  1  0
  8  9  1  1
  8 10  1  0
 11 12  1  0
 12 13  1  0
 12 19  1  6
 13 14  1  1
 13 18  1  0
 14 15  1  0
 15 16  1  0
 16 17  1  0
 17 18  1  0
 19 20  1  0
M  CHG  2   7   1  10   1
M  END
