
     RDKit          3D

 20 21  0  0  0  0  0  0  0  0999 V2000
    0.2550    2.4300   -0.3860 C   0  0  0  0  0  0  0  0  0  0  0  0
    0.6170    1.0570   -0.7080 N   0  0  2  0  0  0  0  0  0  0  0  0
   -0.3690    0.1130   -0.2560 C   0  0  0  0  0  0  0  0  0  0  0  0
   -1.7320    0.6990   -0.4190 C   0  0  0  0  0  0  0  0  0  0  0  0
   -2.8650   -0.1480    0.0010 C   0  0  1  0  0  0  0  0  0  0  0  0
   -4.1540    0.6110   -0.2390 C   0  0  0  0  0  0  0  0  0  0  0  0
   -4.2380    1.8420    0.4830 N   0  0  0  0  0  0  0  0  0  0  0  0
   -2.9890   -1.4680   -0.6990 C   0  0  0  0  0  0  0  0  0  0  0  0
   -3.7540   -2.2810    0.3270 C   0  0  0  0  0  0  0  0  0  0  0  0
   -3.9320   -1.4860    1.4380 O   0  0  0  0  0  0  0  0  0  0  0  0
   -2.8490   -0.5730    1.4390 C   0  0  0  0  0  0  0  0  0  0  0  0
    1.9280    0.8230   -0.1790 C   0  0  2  0  0  0  0  0  0  0  0  0
    2.9430    1.2000   -1.2370 C   0  0  0  0  0  0  0  0  0  0  0  0
    4.0900    0.4770   -0.8290 O   0  0  0  0  0  0  0  0  0  0  0  0
    3.7170   -0.6510   -0.1150 C   0  0  0  0  0  0  0  0  0  0  0  0
    4.5610   -1.5520    0.3350 C   0  0  0  0  0  0  0  0  0  0  0  0
    6.0140   -1.5030    0.1510 C   0  0  0  0  0  0  0  0  0  0  0  0
    6.6610   -1.4690    1.4090 O   0  0  0  0  0  0  0  0  0  0  0  0
    2.2410   -0.6400    0.0340 C   0  0  1  0  0  0  0  0  0  0  0  0
    1.8800   -1.0790    1.3070 O   0  0  0  0  0  0  0  0  0  0  0  0
  2  1  1  1
  2  3  1  0
  2 12  1  0
  3  4  1  0
  5  4  1  6
  5  6  1  0
  5  8  1  0
  5 11  1  0
  6  7  1  0
  8  9  1  0
  9 10  1  0
 10 11  1  0
 12 13  1  6
 12 19  1  0
 13 14  1  0
 14 15  1  0
 15 16  2  3
 15 19  1  0
 16 17  1  0
 17 18  1  0
 19 20  1  1
M  CHG  2   2   1   7   1
M  END
