
     RDKit          3D

 20 21  0  0  0  0  0  0  0  0999 V2000
   -4.3720    1.2660    0.3760 C   0  0  0  0  0  0  0  0  0  0  0  0
   -3.0540    0.7360   -0.1460 C   0  0  1  0  0  0  0  0  0  0  0  0
   -2.5550    1.6490   -1.0750 O   0  0  0  0  0  0  0  0  0  0  0  0
   -2.1350    0.5380    1.0110 C   0  0  0  0  0  0  0  0  0  0  0  0
   -0.8680   -0.2030    0.7030 C   0  0  0  0  0  0  0  0  0  0  0  0
   -0.9170   -0.7900   -0.5990 N   0  0  1  0  0  0  0  0  0  0  0  0
    0.1330   -1.7420   -0.8510 C   0  0  0  0  0  0  0  0  0  0  0  0
    1.0590   -1.9660    0.2830 C   0  0  0  0  0  0  0  0  0  0  0  0
    1.7740   -0.9160    0.7800 O   0  0  0  0  0  0  0  0  0  0  0  0
    2.7220   -0.1280    0.2110 C   0  0  0  0  0  0  0  0  0  0  0  0
    3.2320   -0.2000   -1.0500 C   0  0  0  0  0  0  0  0  0  0  0  0
    4.2090    0.6580   -1.5480 C   0  0  0  0  0  0  0  0  0  0  0  0
    4.6810    0.5160   -2.8590 O   0  0  0  0  0  0  0  0  0  0  0  0
    4.6940    1.6420   -0.7160 C   0  0  0  0  0  0  0  0  0  0  0  0
    4.1890    1.7300    0.5690 C   0  0  0  0  0  0  0  0  0  0  0  0
    3.2300    0.8840    1.0460 C   0  0  0  0  0  0  0  0  0  0  0  0
    2.7650    1.0410    2.3740 N   0  0  0  0  0  0  0  0  0  0  0  0
   -2.1720   -1.5030   -0.7400 C   0  0  0  0  0  0  0  0  0  0  0  0
   -3.3490   -0.5690   -0.8540 C   0  0  2  0  0  0  0  0  0  0  0  0
   -3.6070   -0.3210   -2.1840 O   0  0  0  0  0  0  0  0  0  0  0  0
  2  1  1  1
  2  3  1  0
  2  4  1  0
  2 19  1  0
  4  5  1  0
  5  6  1  0
  6  7  1  1
  6 18  1  0
  7  8  1  0
  8  9  1  0
  9 10  1  0
 10 11  2  0
 10 16  1  0
 11 12  1  0
 12 13  1  0
 12 14  2  0
 14 15  1  0
 15 16  2  0
 16 17  1  0
 18 19  1  0
 19 20  1  6
M  CHG  1   6   1
M  END
