
     RDKit          3D

 13 13  0  0  0  0  0  0  0  0999 V2000
   -3.3250    0.7770    0.4750 C   0  0  0  0  0  0  0  0  0  0  0  0
   -2.3040   -0.2130    0.8860 C   0  0  0  0  0  0  0  0  0  0  0  0
   -1.2270   -0.3770    0.1800 C   0  0  0  0  0  0  0  0  0  0  0  0
   -0.7070    0.4950   -1.3930 P   0  0  0  0  0  0  0  0  0  0  0  0
   -1.1410    2.2350   -1.1710 N   0  0  0  0  0  0  0  0  0  0  0  0
    1.0720    0.3390   -0.9820 C   0  0  0  0  0  0  0  0  0  0  0  0
    1.1770   -0.6060   -0.0890 C   0  0  0  0  0  0  0  0  0  0  0  0
    2.4300   -1.0220    0.4870 O   0  0  0  0  0  0  0  0  0  0  0  0
    3.4930   -0.1250    0.5060 C   0  0  0  0  0  0  0  0  0  0  0  0
    4.4020    0.0560    1.8630 P   0  0  0  0  0  0  0  0  0  0  0  0
   -0.0530   -1.2720    0.3380 C   0  0  2  0  0  0  0  0  0  0  0  0
   -0.3320   -2.7760   -0.7410 P   0  0  0  0  0  0  0  0  0  0  0  0
    0.0420   -1.7530    2.0410 Cl  0  0  0  0  0  0  0  0  0  0  0  0
  1  2  1  0
  2  3  2  3
  3  4  1  0
  3 11  1  0
  4  5  1  0
  4  6  1  0
  6  7  2  0
  7  8  1  0
  7 11  1  0
  8  9  1  0
  9 10  2  0
 11 12  1  6
 11 13  1  0
M  END
