
     RDKit          3D

 13 13  0  0  0  0  0  0  0  0999 V2000
   -3.4390   -0.8440    0.1670 C   0  0  0  0  0  0  0  0  0  0  0  0
   -2.6410    0.2730    0.7990 C   0  0  0  0  0  0  0  0  0  0  0  0
   -1.7070    0.9190   -0.1610 C   0  0  0  0  0  0  0  0  0  0  0  0
   -1.8560    2.1680   -0.3970 N   0  0  0  0  0  0  0  0  0  0  0  0
   -0.8760    3.0650   -1.4670 Cl  0  0  0  0  0  0  0  0  0  0  0  0
   -0.3810    0.0170   -0.9990 P   0  0  0  0  0  0  0  0  0  0  0  0
   -0.5660   -1.7990   -0.6010 C   0  0  0  0  0  0  0  0  0  0  0  0
    1.2780    0.5220   -0.4300 C   0  0  0  0  0  0  0  0  0  0  0  0
    2.3950   -0.2320   -0.4100 C   0  0  0  0  0  0  0  0  0  0  0  0
    3.7710    0.5310    0.1770 P   0  0  0  0  0  0  0  0  0  0  0  0
    5.3910   -0.2300    0.3150 O   0  0  0  0  0  0  0  0  0  0  0  0
    3.4320    2.1050    0.6170 C   0  0  0  0  0  0  0  0  0  0  0  0
    1.6750    2.1350    0.2010 P   0  0  0  0  0  0  0  0  0  0  0  0
  1  2  1  0
  2  3  1  0
  3  4  2  3
  3  6  1  0
  4  5  1  0
  6  7  1  0
  6  8  1  0
  8  9  2  0
  8 13  1  0
  9 10  1  0
 10 11  1  0
 10 12  1  0
 12 13  2  0
M  END
