
     RDKit          3D

 27 27  0  0  0  0  0  0  0  0999 V2000
   -1.1630    0.3220    2.1880 C   0  0  0  0  0  0  0  0  0  0  0  0
   -1.5480    0.6890    0.8520 N   0  0  0  0  0  0  0  0  0  0  0  0
   -2.0680    1.9670    0.5930 C   0  0  0  0  0  0  0  0  0  0  0  0
   -3.2510    2.3580    0.9980 N   0  0  0  0  0  0  0  0  0  0  0  0
   -1.3420    2.9680   -0.1460 N   0  0  0  0  0  0  0  0  0  0  0  0
   -2.1700    4.4100   -0.8020 P   0  0  0  0  0  0  0  0  0  0  0  0
   -1.4510    4.7760   -2.3440 O   0  0  0  0  0  0  0  0  0  0  0  0
   -3.8620    4.1280   -1.0290 O   0  0  0  0  0  0  0  0  0  0  0  0
   -1.3770   -0.3070   -0.2040 C   0  0  2  0  0  0  0  0  0  0  0  0
   -2.1700   -1.5380    0.0720 C   0  0  0  0  0  0  0  0  0  0  0  0
   -2.0630   -2.6180   -0.9640 C   0  0  0  0  0  0  0  0  0  0  0  0
   -2.8540   -3.7490   -0.6380 O   0  0  0  0  0  0  0  0  0  0  0  0
   -2.6890   -4.5120    0.4990 C   0  0  0  0  0  0  0  0  0  0  0  0
   -1.7840   -4.1980    1.3060 O   0  0  0  0  0  0  0  0  0  0  0  0
   -3.4770   -5.6100    0.7920 O   0  0  0  0  0  0  0  0  0  0  0  0
    0.0770   -0.5530   -0.3620 C   0  0  0  0  0  0  0  0  0  0  0  0
    0.5560   -1.3000   -1.2450 O   0  0  0  0  0  0  0  0  0  0  0  0
    1.0170    0.0490    0.4850 O   0  0  0  0  0  0  0  0  0  0  0  0
    2.3730   -0.1740    0.3460 C   0  0  0  0  0  0  0  0  0  0  0  0
    3.1570   -1.1450    0.9240 C   0  0  0  0  0  0  0  0  0  0  0  0
    4.4300   -0.9940    0.5110 N   0  0  0  0  0  0  0  0  0  0  0  0
    4.4910    0.0520   -0.3220 N   0  0  0  0  0  0  0  0  0  0  0  0
    5.6750    0.4890   -0.9380 C   0  0  0  0  0  0  0  0  0  0  0  0
    5.6600    1.4890   -1.7180 O   0  0  0  0  0  0  0  0  0  0  0  0
    6.8910   -0.1350   -0.7310 O   0  0  0  0  0  0  0  0  0  0  0  0
    8.0150    0.3000   -1.3320 O   0  0  0  0  0  0  0  0  0  0  0  0
    3.2330    0.5650   -0.4330 C   0  0  0  0  0  0  0  0  0  0  0  0
  1  2  1  0
  2  3  1  0
  2  9  1  0
  3  4  2  0
  3  5  1  0
  5  6  1  0
  6  7  1  0
  6  8  1  0
  9 10  1  1
  9 16  1  0
 10 11  1  0
 11 12  1  0
 12 13  1  0
 13 14  2  0
 13 15  1  0
 16 17  2  0
 16 18  1  0
 18 19  1  0
 19 20  1  0
 19 27  2  0
 20 21  2  0
 21 22  1  0
 22 23  1  0
 22 27  1  0
 23 24  2  0
 23 25  1  0
 25 26  1  0
M  END
