
     RDKit          3D

 27 28  0  0  0  0  0  0  0  0999 V2000
    4.1350    0.8960   -2.0220 N   0  0  0  0  0  0  0  0  0  0  0  0
    3.7530    0.1370   -1.0780 C   0  0  0  0  0  0  0  0  0  0  0  0
    4.5860    0.0870    0.0940 N   0  0  0  0  0  0  0  0  0  0  0  0
    5.8700    1.2990    0.4010 P   0  0  0  0  0  0  0  0  0  0  0  0
    5.8550    1.6180    2.1210 O   0  0  0  0  0  0  0  0  0  0  0  0
    5.6670    2.7360   -0.5020 O   0  0  0  0  0  0  0  0  0  0  0  0
    2.5690   -0.6570   -1.1100 N   0  0  0  0  0  0  0  0  0  0  0  0
    2.4980   -2.0990   -0.9980 C   0  0  0  0  0  0  0  0  0  0  0  0
    1.2320   -2.2820   -0.2550 C   0  0  0  0  0  0  0  0  0  0  0  0
    0.9570   -3.1720    0.6250 O   0  0  0  0  0  0  0  0  0  0  0  0
    0.3590   -1.2600   -0.7160 N   0  0  0  0  0  0  0  0  0  0  0  0
   -1.0990   -1.2310   -0.6560 C   0  0  0  0  0  0  0  0  0  0  0  0
   -1.4930   -0.5900    0.6400 C   0  0  0  0  0  0  0  0  0  0  0  0
   -2.8800   -0.4690    0.8800 N   0  0  0  0  0  0  0  0  0  0  0  0
   -3.6740    0.5360    0.5460 C   0  0  0  0  0  0  0  0  0  0  0  0
   -3.1430    1.6780   -0.1620 C   0  0  0  0  0  0  0  0  0  0  0  0
   -1.9590    1.7690   -0.4890 O   0  0  0  0  0  0  0  0  0  0  0  0
   -3.9900    2.7240   -0.4950 O   0  0  0  0  0  0  0  0  0  0  0  0
   -3.5750    3.8160   -1.1500 O   0  0  0  0  0  0  0  0  0  0  0  0
   -5.0260    0.4640    0.8800 C   0  0  0  0  0  0  0  0  0  0  0  0
   -5.5740   -0.5400    1.5070 O   0  0  0  0  0  0  0  0  0  0  0  0
   -4.8080   -1.5340    1.8410 C   0  0  0  0  0  0  0  0  0  0  0  0
   -5.3120   -2.5330    2.4560 O   0  0  0  0  0  0  0  0  0  0  0  0
   -3.4850   -1.5070    1.5370 C   0  0  0  0  0  0  0  0  0  0  0  0
   -2.7930   -2.5170    1.8950 O   0  0  0  0  0  0  0  0  0  0  0  0
    1.2170   -0.2400   -1.2530 C   0  0  0  0  0  0  0  0  0  0  0  0
    0.8620    0.8560   -1.7730 O   0  0  0  0  0  0  0  0  0  0  0  0
  1  2  2  0
  2  3  1  0
  2  7  1  0
  3  4  1  0
  4  5  1  0
  4  6  1  0
  7  8  1  0
  7 26  1  0
  8  9  1  0
  9 10  2  0
  9 11  1  0
 11 12  1  0
 11 26  1  0
 12 13  1  0
 13 14  1  0
 14 15  1  0
 14 24  1  0
 15 16  1  0
 15 20  2  0
 16 17  2  0
 16 18  1  0
 18 19  1  0
 20 21  1  0
 21 22  1  0
 22 23  2  0
 22 24  1  0
 24 25  2  0
 26 27  2  0
M  END
