
     RDKit          3D

 20 20  0  0  0  0  0  0  0  0999 V2000
   -2.3620   -1.7380   -1.1820 N   0  0  0  0  0  0  0  0  0  0  0  0
   -2.5700   -1.1910    0.1460 C   0  0  2  0  0  0  0  0  0  0  0  0
   -4.0220   -1.0410    0.4870 C   0  0  0  0  0  0  0  0  0  0  0  0
   -4.7730   -1.0620   -0.6950 O   0  0  0  0  0  0  0  0  0  0  0  0
   -4.7690    0.5480   -1.3400 P   0  0  0  0  0  0  0  0  0  0  0  0
   -5.6130    1.6130   -0.2710 O   0  0  0  0  0  0  0  0  0  0  0  0
   -3.1230    1.0800   -1.4390 O   0  0  0  0  0  0  0  0  0  0  0  0
   -2.5500    1.2970   -0.2070 C   0  0  0  0  0  0  0  0  0  0  0  0
   -1.7890    0.0960    0.3160 C   0  0  1  0  0  0  0  0  0  0  0  0
   -1.5510    0.2760    1.6770 O   0  0  0  0  0  0  0  0  0  0  0  0
   -0.5160   -0.0720   -0.4330 C   0  0  0  0  0  0  0  0  0  0  0  0
   -0.5800   -0.2430   -1.6720 O   0  0  0  0  0  0  0  0  0  0  0  0
    0.7620   -0.0480    0.1770 N   0  0  0  0  0  0  0  0  0  0  0  0
    1.9970   -0.2130   -0.5680 C   0  0  0  0  0  0  0  0  0  0  0  0
    3.2120   -0.1510    0.2920 C   0  0  0  0  0  0  0  0  0  0  0  0
    4.4100   -0.3370   -0.6180 C   0  0  0  0  0  0  0  0  0  0  0  0
    5.6330   -0.3030    0.0450 O   0  0  0  0  0  0  0  0  0  0  0  0
    6.1170    0.7530    0.7750 C   0  0  0  0  0  0  0  0  0  0  0  0
    5.4090    1.7890    0.8620 O   0  0  0  0  0  0  0  0  0  0  0  0
    7.3610    0.7220    1.4210 O   0  0  0  0  0  0  0  0  0  0  0  0
  2  1  1  6
  2  3  1  0
  2  9  1  0
  3  4  1  0
  4  5  1  0
  5  6  1  0
  5  7  1  0
  7  8  1  0
  8  9  1  0
  9 10  1  1
  9 11  1  0
 11 12  2  0
 11 13  1  0
 13 14  1  0
 14 15  1  0
 15 16  1  0
 16 17  1  0
 17 18  1  0
 18 19  2  0
 18 20  1  0
M  END
