
     RDKit          3D

 20 20  0  0  0  0  0  0  0  0999 V2000
    6.0090   -0.4100    1.9430 C   0  0  0  0  0  0  0  0  0  0  0  0
    4.7660    0.2090    1.7240 O   0  0  0  0  0  0  0  0  0  0  0  0
    3.7830   -0.4910    1.0390 C   0  0  0  0  0  0  0  0  0  0  0  0
    4.0330   -1.6620    0.6320 O   0  0  0  0  0  0  0  0  0  0  0  0
    2.5250    0.0240    0.7690 O   0  0  0  0  0  0  0  0  0  0  0  0
    1.5950   -0.7480    0.0730 C   0  0  0  0  0  0  0  0  0  0  0  0
    1.9170   -1.9100   -0.3010 O   0  0  0  0  0  0  0  0  0  0  0  0
    0.3140   -0.2130   -0.1970 N   0  0  0  0  0  0  0  0  0  0  0  0
   -0.1010    1.1260    0.2290 C   0  0  0  0  0  0  0  0  0  0  0  0
   -1.6170    0.9840    0.2300 C   0  0  1  0  0  0  0  0  0  0  0  0
   -2.4690    2.6150    0.1360 P   0  0  0  0  0  0  0  0  0  0  0  0
   -4.1570    2.3800    0.3810 O   0  0  0  0  0  0  0  0  0  0  0  0
   -1.8750    3.7290    1.2930 O   0  0  0  0  0  0  0  0  0  0  0  0
   -1.8040    0.1680   -1.0250 C   0  0  2  0  0  0  0  0  0  0  0  0
   -3.2050   -0.3930   -1.0820 C   0  0  0  0  0  0  0  0  0  0  0  0
   -3.5090   -1.2440    0.0280 N   0  0  0  0  0  0  0  0  0  0  0  0
   -0.7530   -0.8780   -0.9020 C   0  0  1  0  0  0  0  0  0  0  0  0
   -0.3130   -1.4030   -2.2180 C   0  0  0  0  0  0  0  0  0  0  0  0
   -1.0470   -2.0640   -2.9880 O   0  0  0  0  0  0  0  0  0  0  0  0
    0.9860   -1.1420   -2.6090 O   0  0  0  0  0  0  0  0  0  0  0  0
  1  2  1  0
  2  3  1  0
  3  4  2  0
  3  5  1  0
  5  6  1  0
  6  7  2  0
  6  8  1  0
  8  9  1  0
  8 17  1  0
  9 10  1  0
 10 11  1  6
 10 14  1  0
 11 12  1  0
 11 13  1  0
 14 15  1  1
 14 17  1  0
 15 16  1  0
 17 18  1  6
 18 19  2  0
 18 20  1  0
M  END
