
     RDKit          3D

 21 22  0  0  0  0  0  0  0  0999 V2000
    1.2610    0.2050    1.4570 O   0  0  0  0  0  0  0  0  0  0  0  0
    0.6400    0.9700    0.6800 C   0  0  0  0  0  0  0  0  0  0  0  0
    1.3800    1.9290    0.0130 O   0  0  0  0  0  0  0  0  0  0  0  0
    2.7610    2.1020    0.1450 C   0  0  0  0  0  0  0  0  0  0  0  0
    3.5630    0.8980   -0.2440 C   0  0  0  0  0  0  0  0  0  0  0  0
    3.3760    0.5110   -1.5620 O   0  0  0  0  0  0  0  0  0  0  0  0
    4.3780   -0.8950   -1.8370 P   0  0  0  0  0  0  0  0  0  0  0  0
    4.0010   -2.0390   -0.5690 O   0  0  0  0  0  0  0  0  0  0  0  0
    6.0540   -0.4680   -1.6520 O   0  0  0  0  0  0  0  0  0  0  0  0
   -0.7850    0.8500    0.4940 N   0  0  0  0  0  0  0  0  0  0  0  0
   -1.5060    1.7220   -0.3940 C   0  0  0  0  0  0  0  0  0  0  0  0
   -2.5360    1.0470   -1.2220 C   0  0  0  0  0  0  0  0  0  0  0  0
   -3.1770   -0.1430   -0.6020 C   0  0  1  0  0  0  0  0  0  0  0  0
   -3.8080   -0.9400   -1.5290 O   0  0  0  0  0  0  0  0  0  0  0  0
   -4.6440   -1.7960   -1.0330 O   0  0  0  0  0  0  0  0  0  0  0  0
   -4.3140   -2.2760    0.1690 N   0  0  0  0  0  0  0  0  0  0  0  0
   -2.9950   -2.1350    0.7370 C   0  0  0  0  0  0  0  0  0  0  0  0
   -2.5890   -2.8750    1.6440 O   0  0  0  0  0  0  0  0  0  0  0  0
   -2.1770   -1.0310    0.1380 C   0  0  1  0  0  0  0  0  0  0  0  0
   -1.1810   -1.5000   -0.6860 O   0  0  0  0  0  0  0  0  0  0  0  0
   -1.5490   -0.1610    1.2010 C   0  0  0  0  0  0  0  0  0  0  0  0
  1  2  2  0
  2  3  1  0
  2 10  1  0
  3  4  1  0
  4  5  1  0
  5  6  1  0
  6  7  1  0
  7  8  1  0
  7  9  1  0
 10 11  1  0
 10 21  1  0
 11 12  1  0
 13 12  1  6
 13 14  1  0
 13 19  1  0
 14 15  1  0
 15 16  1  0
 16 17  1  0
 17 18  2  0
 17 19  1  0
 19 20  1  6
 19 21  1  0
M  END
