
     RDKit          3D

 12 13  0  0  0  0  0  0  0  0999 V2000
    3.7490    0.7810   -0.5350 C   0  0  0  0  0  0  0  0  0  0  0  0
    3.0140    0.1420    0.4550 O   0  0  0  0  0  0  0  0  0  0  0  0
    1.6480   -0.0460    0.4510 C   0  0  0  0  0  0  0  0  0  0  0  0
    1.0100   -0.6950    1.4850 C   0  0  0  0  0  0  0  0  0  0  0  0
   -0.3320   -0.9220    1.5580 C   0  0  0  0  0  0  0  0  0  0  0  0
   -1.1750   -0.4860    0.5360 C   0  0  0  0  0  0  0  0  0  0  0  0
   -2.4770   -0.5930    0.3960 N   0  0  0  0  0  0  0  0  0  0  0  0
   -3.1810   -0.2440   -0.4290 C   0  0  0  0  0  0  0  0  0  0  0  0
   -4.5680   -0.1870   -0.8920 N   0  0  0  0  0  0  0  0  0  0  0  0
   -1.8980    0.5740   -1.6080 S   0  0  0  0  0  0  0  0  0  0  0  0
   -0.5560    0.1640   -0.5060 C   0  0  0  0  0  0  0  0  0  0  0  0
    0.8160    0.3920   -0.5730 C   0  0  0  0  0  0  0  0  0  0  0  0
  1  2  1  0
  2  3  1  0
  3  4  2  0
  3 12  1  0
  4  5  1  0
  5  6  2  0
  6  7  1  0
  6 11  1  0
  7  8  2  0
  8  9  1  0
  8 10  1  0
 10 11  1  0
 11 12  2  0
M  END
