
     RDKit          3D

 21 24  0  0  0  0  0  0  0  0999 V2000
    5.7130   -1.7070    0.3220 C   0  0  0  0  0  0  0  0  0  0  0  0
    4.5010   -0.8560    0.1280 C   0  0  0  0  0  0  0  0  0  0  0  0
    4.5730    0.4660   -0.2170 C   0  0  0  0  0  0  0  0  0  0  0  0
    3.2710    0.9570   -0.3150 C   0  0  0  0  0  0  0  0  0  0  0  0
    2.9700    2.3500   -0.6730 C   0  0  0  0  0  0  0  0  0  0  0  0
    2.4160   -0.0810   -0.0270 C   0  0  0  0  0  0  0  0  0  0  0  0
    0.9700   -0.1150    0.0130 C   0  0  0  0  0  0  0  0  0  0  0  0
    0.3310   -1.3020    0.3180 C   0  0  0  0  0  0  0  0  0  0  0  0
   -1.0630   -1.3940    0.3730 C   0  0  0  0  0  0  0  0  0  0  0  0
   -1.8600   -0.3000    0.1240 C   0  0  0  0  0  0  0  0  0  0  0  0
   -1.2200    0.8810   -0.1800 C   0  0  0  0  0  0  0  0  0  0  0  0
    0.1820    0.9550   -0.2310 C   0  0  0  0  0  0  0  0  0  0  0  0
   -2.0330    2.0890   -0.4570 C   0  0  0  0  0  0  0  0  0  0  0  0
   -3.4060    1.8900   -0.3760 O   0  0  0  0  0  0  0  0  0  0  0  0
   -4.0660    0.7370   -0.0780 C   0  0  0  0  0  0  0  0  0  0  0  0
   -5.4550    0.6570   -0.0270 C   0  0  0  0  0  0  0  0  0  0  0  0
   -6.0380   -0.5470    0.2820 C   0  0  0  0  0  0  0  0  0  0  0  0
   -5.2930   -1.6740    0.5400 C   0  0  0  0  0  0  0  0  0  0  0  0
   -3.9150   -1.6050    0.4910 C   0  0  0  0  0  0  0  0  0  0  0  0
   -3.3240   -0.4110    0.1850 C   0  0  0  0  0  0  0  0  0  0  0  0
    3.2200   -1.1600    0.2360 N   0  0  0  0  0  0  0  0  0  0  0  0
  1  2  1  0
  2  3  2  0
  2 21  1  0
  3  4  1  0
  4  5  1  0
  4  6  2  0
  6  7  1  0
  6 21  1  0
  7  8  2  0
  7 12  1  0
  8  9  1  0
  9 10  2  0
 10 11  1  0
 10 20  1  0
 11 12  2  0
 11 13  1  0
 13 14  1  0
 14 15  1  0
 15 16  2  0
 15 20  1  0
 16 17  1  0
 17 18  2  0
 18 19  1  0
 19 20  2  0
M  END
