
     RDKit          3D

 12 13  0  0  0  0  0  0  0  0999 V2000
    0.8040    2.7580   -0.4200 O   0  0  0  0  0  0  0  0  0  0  0  0
    0.9740    1.5210   -0.2620 C   0  0  0  0  0  0  0  0  0  0  0  0
    2.2270    1.0300   -0.2680 N   0  0  0  0  0  0  0  0  0  0  0  0
    2.3800   -0.2970   -0.0960 C   0  0  0  0  0  0  0  0  0  0  0  0
    3.8960   -0.8820   -0.1040 S   0  0  0  0  0  0  0  0  0  0  0  0
    1.3390   -1.1400    0.0780 N   0  0  0  0  0  0  0  0  0  0  0  0
    0.0680   -0.6860    0.0890 C   0  0  0  0  0  0  0  0  0  0  0  0
   -0.9800   -1.5560    0.2670 C   0  0  0  0  0  0  0  0  0  0  0  0
   -2.2630   -1.0500    0.2720 C   0  0  0  0  0  0  0  0  0  0  0  0
   -2.4710    0.3090    0.1000 C   0  0  0  0  0  0  0  0  0  0  0  0
   -1.4080    1.1690   -0.0780 C   0  0  0  0  0  0  0  0  0  0  0  0
   -0.1120    0.6850   -0.0870 C   0  0  0  0  0  0  0  0  0  0  0  0
  1  2  2  0
  2  3  1  0
  2 12  1  0
  3  4  1  0
  4  5  2  0
  4  6  1  0
  6  7  1  0
  7  8  2  0
  7 12  1  0
  8  9  1  0
  9 10  2  0
 10 11  1  0
 11 12  2  0
M  END
