
     RDKit          3D

 23 24  0  0  0  0  0  0  0  0999 V2000
    2.2790   -2.7290    1.9780 O   0  0  0  0  0  0  0  0  0  0  0  0
    2.4380   -1.9360    0.9880 C   0  0  0  0  0  0  0  0  0  0  0  0
    1.4520   -2.0360   -0.0970 C   0  0  0  0  0  0  0  0  0  0  0  0
    0.2240   -1.5910    0.4140 O   0  0  0  0  0  0  0  0  0  0  0  0
   -0.7230   -1.4150   -0.5950 C   0  0  0  0  0  0  0  0  0  0  0  0
   -1.9940   -0.9340    0.0290 C   0  0  2  0  0  0  0  0  0  0  0  0
   -3.1090   -1.1080   -0.7610 O   0  0  0  0  0  0  0  0  0  0  0  0
   -3.9330   -0.0190   -0.5970 C   0  0  1  0  0  0  0  0  0  0  0  0
   -5.3540   -0.4440   -0.2060 C   0  0  0  0  0  0  0  0  0  0  0  0
   -6.1240    0.7120   -0.0580 O   0  0  0  0  0  0  0  0  0  0  0  0
   -3.3820    0.8090    0.3610 O   0  0  0  0  0  0  0  0  0  0  0  0
   -1.9990    0.5450    0.3250 C   0  0  1  0  0  0  0  0  0  0  0  0
   -1.4080    0.7650    1.5500 O   0  0  0  0  0  0  0  0  0  0  0  0
   -1.3620    1.3410   -0.7430 C   0  0  0  0  0  0  0  0  0  0  0  0
   -2.1150    1.8530   -1.6420 O   0  0  0  0  0  0  0  0  0  0  0  0
   -0.0200    1.5720   -0.8400 O   0  0  0  0  0  0  0  0  0  0  0  0
    0.8700    1.7890    0.2140 C   0  0  0  0  0  0  0  0  0  0  0  0
    2.2760    1.8330   -0.3930 C   0  0  0  0  0  0  0  0  0  0  0  0
    2.6960    0.5050   -0.4720 O   0  0  0  0  0  0  0  0  0  0  0  0
    3.5570    0.2220    0.5570 C   0  0  2  0  0  0  0  0  0  0  0  0
    4.9790    0.4440    0.0240 C   0  0  0  0  0  0  0  0  0  0  0  0
    5.1360   -0.4400   -1.0600 O   0  0  0  0  0  0  0  0  0  0  0  0
    3.5010   -1.0820    1.0390 O   0  0  0  0  0  0  0  0  0  0  0  0
  1  2  2  0
  2  3  1  0
  2 23  1  0
  3  4  1  0
  4  5  1  0
  6  5  1  6
  6  7  1  0
  6 12  1  0
  7  8  1  0
  8  9  1  1
  8 11  1  0
  9 10  1  0
 11 12  1  0
 12 13  1  1
 12 14  1  0
 14 15  2  0
 14 16  1  0
 16 17  1  0
 17 18  1  0
 18 19  1  0
 19 20  1  0
 20 21  1  6
 20 23  1  0
 21 22  1  0
M  END
