
     RDKit          3D

 23 23  0  0  0  0  0  0  0  0999 V2000
   -4.4430    2.7760    1.1520 C   0  0  0  0  0  0  0  0  0  0  0  0
   -3.9570    1.8960    0.1510 O   0  0  0  0  0  0  0  0  0  0  0  0
   -2.5870    1.6710   -0.0200 C   0  0  0  0  0  0  0  0  0  0  0  0
   -1.8290    2.2950    0.7660 O   0  0  0  0  0  0  0  0  0  0  0  0
   -2.0550    0.7590   -1.0560 C   0  0  1  0  0  0  0  0  0  0  0  0
   -0.6640    0.7600   -0.9600 O   0  0  0  0  0  0  0  0  0  0  0  0
   -0.2190   -0.5010   -1.2730 C   0  0  1  0  0  0  0  0  0  0  0  0
    0.8840   -0.9740   -0.3340 C   0  0  2  0  0  0  0  0  0  0  0  0
    0.4090   -1.0010    0.9800 O   0  0  0  0  0  0  0  0  0  0  0  0
    1.9830    0.0580   -0.4220 C   0  0  0  0  0  0  0  0  0  0  0  0
    1.4380    1.2920   -0.0680 O   0  0  0  0  0  0  0  0  0  0  0  0
    2.3550    2.3220   -0.1110 C   0  0  1  0  0  0  0  0  0  0  0  0
    2.0200    3.2860   -1.0720 O   0  0  0  0  0  0  0  0  0  0  0  0
    2.5570    2.9960    1.2210 C   0  0  0  0  0  0  0  0  0  0  0  0
    1.3810    3.5510    1.7130 O   0  0  0  0  0  0  0  0  0  0  0  0
    1.3060   -2.2310   -0.7420 O   0  0  0  0  0  0  0  0  0  0  0  0
    2.3130   -2.7840    0.0010 C   0  0  2  0  0  0  0  0  0  0  0  0
    3.4040   -3.0150   -0.8460 O   0  0  0  0  0  0  0  0  0  0  0  0
    1.8880   -4.1270    0.6030 C   0  0  0  0  0  0  0  0  0  0  0  0
    2.9120   -4.6650    1.3450 O   0  0  0  0  0  0  0  0  0  0  0  0
   -1.2750   -1.3790   -1.1980 O   0  0  0  0  0  0  0  0  0  0  0  0
   -2.3800   -0.6870   -0.7720 C   0  0  2  0  0  0  0  0  0  0  0  0
   -3.6410   -1.0450   -1.5250 C   0  0  0  0  0  0  0  0  0  0  0  0
  1  2  1  0
  2  3  1  0
  3  4  2  0
  5  3  1  1
  5  6  1  0
  5 22  1  0
  7  6  1  1
  7  8  1  0
  7 21  1  0
  8  9  1  1
  8 10  1  0
  8 16  1  0
 10 11  1  0
 11 12  1  0
 12 13  1  6
 12 14  1  0
 14 15  1  0
 16 17  1  0
 17 18  1  6
 17 19  1  0
 19 20  1  0
 21 22  1  0
 22 23  1  6
M  END
