
     RDKit          3D

 23 23  0  0  0  0  0  0  0  0999 V2000
   -2.8410    1.4270    1.7390 C   0  0  0  0  0  0  0  0  0  0  0  0
   -3.0430    0.1670    0.9250 C   0  0  1  0  0  0  0  0  0  0  0  0
   -4.1380   -0.5960    1.5660 C   0  0  0  0  0  0  0  0  0  0  0  0
   -4.5750   -1.7300    0.9670 O   0  0  0  0  0  0  0  0  0  0  0  0
   -3.3820    0.5860   -0.3550 O   0  0  0  0  0  0  0  0  0  0  0  0
   -2.4730    1.4590   -0.8970 C   0  0  0  0  0  0  0  0  0  0  0  0
   -1.2620    1.5390   -0.2830 O   0  0  0  0  0  0  0  0  0  0  0  0
   -0.7310    0.3710    0.2010 C   0  0  2  0  0  0  0  0  0  0  0  0
    0.0980    0.7180    1.3040 O   0  0  0  0  0  0  0  0  0  0  0  0
    0.1170   -0.1960   -0.8810 C   0  0  0  0  0  0  0  0  0  0  0  0
   -0.3020   -0.5010   -2.0250 O   0  0  0  0  0  0  0  0  0  0  0  0
    1.4910   -0.4320   -0.6740 O   0  0  0  0  0  0  0  0  0  0  0  0
    2.2820   -0.9720   -1.7160 C   0  0  0  0  0  0  0  0  0  0  0  0
    3.7140   -1.1510   -1.3120 C   0  0  1  0  0  0  0  0  0  0  0  0
    4.3910   -1.6890   -2.4170 O   0  0  0  0  0  0  0  0  0  0  0  0
    4.3710    0.1950   -1.0370 C   0  0  0  0  0  0  0  0  0  0  0  0
    3.7690    0.8390    0.0670 O   0  0  0  0  0  0  0  0  0  0  0  0
    4.2650    2.0750    0.4330 C   0  0  0  0  0  0  0  0  0  0  0  0
    5.2140    2.6530   -0.1570 O   0  0  0  0  0  0  0  0  0  0  0  0
    3.7170    2.7770    1.5210 O   0  0  0  0  0  0  0  0  0  0  0  0
   -1.7400   -0.5940    0.7670 C   0  0  2  0  0  0  0  0  0  0  0  0
   -1.8530   -1.7410   -0.1690 C   0  0  0  0  0  0  0  0  0  0  0  0
   -0.6090   -2.3860   -0.2640 O   0  0  0  0  0  0  0  0  0  0  0  0
  2  1  1  1
  2  3  1  0
  2  5  1  0
  2 21  1  0
  3  4  1  0
  5  6  1  0
  6  7  1  0
  7  8  1  0
  8  9  1  1
  8 10  1  0
  8 21  1  0
 10 11  2  0
 10 12  1  0
 12 13  1  0
 13 14  1  0
 14 15  1  6
 14 16  1  0
 16 17  1  0
 17 18  1  0
 18 19  2  0
 18 20  1  0
 21 22  1  6
 22 23  1  0
M  END
