
     RDKit          3D

 13 14  0  0  0  0  0  0  0  0999 V2000
    5.1370    1.8640    1.6590 Br  0  0  0  0  0  0  0  0  0  0  0  0
    3.5790    0.9580    1.0610 C   0  0  0  0  0  0  0  0  0  0  0  0
    3.2030   -0.2880    1.5280 C   0  0  0  0  0  0  0  0  0  0  0  0
    2.0850   -0.9420    1.1010 C   0  0  0  0  0  0  0  0  0  0  0  0
    1.2710   -0.3390    0.1480 C   0  0  0  0  0  0  0  0  0  0  0  0
    0.0700   -1.0810   -0.2960 C   0  0  0  0  0  0  0  0  0  0  0  0
   -0.8680   -0.0980   -0.8590 N   0  0  0  0  0  0  0  0  0  0  0  0
   -2.0550   -0.8010   -1.3320 C   0  0  0  0  0  0  0  0  0  0  0  0
   -2.9590   -0.8370   -0.0900 C   0  0  0  0  0  0  0  0  0  0  0  0
   -2.7960    0.5960    0.3570 C   0  0  0  0  0  0  0  0  0  0  0  0
   -1.3190    0.8230    0.1480 C   0  0  0  0  0  0  0  0  0  0  0  0
    1.6290    0.8880   -0.3220 C   0  0  0  0  0  0  0  0  0  0  0  0
    2.7740    1.5580    0.1150 C   0  0  0  0  0  0  0  0  0  0  0  0
  1  2  1  0
  2  3  2  0
  2 13  1  0
  3  4  1  0
  4  5  2  0
  5  6  1  0
  5 12  1  0
  6  7  1  0
  7  8  1  0
  7 11  1  0
  8  9  1  0
  9 10  1  0
 10 11  1  0
 12 13  2  0
M  END
