
     RDKit          3D

 23 23  0  0  0  0  0  0  0  0999 V2000
    2.8180   -0.0120   -2.3860 C   0  0  0  0  0  0  0  0  0  0  0  0
    2.1970   -0.2410   -1.0170 C   0  0  1  0  0  0  0  0  0  0  0  0
    0.8770   -0.6720   -1.0840 O   0  0  0  0  0  0  0  0  0  0  0  0
   -0.2240    0.0060   -0.6340 C   0  0  0  0  0  0  0  0  0  0  0  0
   -0.0040    1.1420   -0.1050 O   0  0  0  0  0  0  0  0  0  0  0  0
   -1.5880   -0.5180   -0.7420 C   0  0  0  0  0  0  0  0  0  0  0  0
   -2.6320    0.1590   -0.2990 C   0  0  0  0  0  0  0  0  0  0  0  0
   -2.6690    1.3930    0.3060 O   0  0  0  0  0  0  0  0  0  0  0  0
   -3.9910    1.8860    0.4070 C   0  0  2  0  0  0  0  0  0  0  0  0
   -4.4490    1.8470    1.8690 C   0  0  0  0  0  0  0  0  0  0  0  0
   -4.4270    0.5680    2.3730 O   0  0  0  0  0  0  0  0  0  0  0  0
   -4.8220    0.9530   -0.4280 C   0  0  2  0  0  0  0  0  0  0  0  0
   -4.8980    1.4380   -1.7330 O   0  0  0  0  0  0  0  0  0  0  0  0
   -6.1080    0.7890    0.0820 O   0  0  0  0  0  0  0  0  0  0  0  0
   -4.0290   -0.3250   -0.3830 C   0  0  1  0  0  0  0  0  0  0  0  0
   -4.2380   -1.1150   -1.5120 O   0  0  0  0  0  0  0  0  0  0  0  0
    3.0840   -1.1840   -0.2860 C   0  0  0  0  0  0  0  0  0  0  0  0
    2.5920   -2.2410    0.1870 O   0  0  0  0  0  0  0  0  0  0  0  0
    4.4290   -0.9670   -0.0950 O   0  0  0  0  0  0  0  0  0  0  0  0
    5.2810   -1.8660    0.6030 C   0  0  0  0  0  0  0  0  0  0  0  0
    6.6730   -1.2230    0.5680 C   0  0  1  0  0  0  0  0  0  0  0  0
    6.6440    0.0390    1.1970 O   0  0  0  0  0  0  0  0  0  0  0  0
    7.6060   -1.9850    1.2460 O   0  0  0  0  0  0  0  0  0  0  0  0
  2  1  1  6
  2  3  1  0
  2 17  1  0
  3  4  1  0
  4  5  2  0
  4  6  1  0
  6  7  2  3
  7  8  1  0
  7 15  1  0
  8  9  1  0
  9 10  1  1
  9 12  1  0
 10 11  1  0
 12 13  1  6
 12 14  1  0
 12 15  1  0
 15 16  1  6
 17 18  2  0
 17 19  1  0
 19 20  1  0
 20 21  1  0
 21 22  1  1
 21 23  1  0
M  END
