
     RDKit          3D

 23 23  0  0  0  0  0  0  0  0999 V2000
    6.0890    1.8600   -0.1920 C   0  0  0  0  0  0  0  0  0  0  0  0
    4.8310    2.4540   -0.2720 O   0  0  0  0  0  0  0  0  0  0  0  0
    3.8300    1.5480    0.1420 C   0  0  1  0  0  0  0  0  0  0  0  0
    3.2520    2.1860    1.2550 O   0  0  0  0  0  0  0  0  0  0  0  0
    2.9070    1.3980   -1.0180 C   0  0  1  0  0  0  0  0  0  0  0  0
    3.7230    0.9530   -2.0950 O   0  0  0  0  0  0  0  0  0  0  0  0
    1.8050    0.3520   -0.8090 C   0  0  2  0  0  0  0  0  0  0  0  0
    1.1380    0.3190   -2.0380 O   0  0  0  0  0  0  0  0  0  0  0  0
    0.9100    0.6320    0.3370 C   0  0  0  0  0  0  0  0  0  0  0  0
   -0.1210   -0.2100    0.5550 O   0  0  0  0  0  0  0  0  0  0  0  0
   -1.1110   -0.3950   -0.3200 C   0  0  1  0  0  0  0  0  0  0  0  0
   -1.3380   -1.8140   -0.7830 C   0  0  0  0  0  0  0  0  0  0  0  0
   -2.4320   -1.7910   -1.6900 O   0  0  0  0  0  0  0  0  0  0  0  0
   -3.5670   -1.3040   -1.0280 C   0  0  1  0  0  0  0  0  0  0  0  0
   -4.7640   -2.1860   -1.1700 C   0  0  1  0  0  0  0  0  0  0  0  0
   -5.1380   -2.3470   -2.5020 O   0  0  0  0  0  0  0  0  0  0  0  0
   -4.5260   -3.4800   -0.6740 O   0  0  0  0  0  0  0  0  0  0  0  0
   -3.2590   -1.0570    0.3280 O   0  0  0  0  0  0  0  0  0  0  0  0
   -2.4060    0.0660    0.3150 C   0  0  1  0  0  0  0  0  0  0  0  0
   -2.2450    0.6540    1.6770 C   0  0  0  0  0  0  0  0  0  0  0  0
   -1.6810   -0.2240    2.6950 C   0  0  0  0  0  0  0  0  0  0  0  0
   -1.3600   -1.4190    2.4990 O   0  0  0  0  0  0  0  0  0  0  0  0
   -1.4770    0.2760    3.9700 O   0  0  0  0  0  0  0  0  0  0  0  0
  1  2  1  0
  2  3  1  0
  3  4  1  1
  3  5  1  0
  5  6  1  6
  5  7  1  0
  7  8  1  6
  7  9  1  0
  9 10  1  0
 11 10  1  1
 11 12  1  0
 11 19  1  0
 12 13  1  0
 14 13  1  1
 14 15  1  0
 14 18  1  0
 15 16  1  6
 15 17  1  0
 18 19  1  0
 19 20  1  1
 20 21  1  0
 21 22  2  0
 21 23  1  0
M  END
