
     RDKit          3D

 23 23  0  0  0  0  0  0  0  0999 V2000
    4.6550   -0.4370    3.8530 C   0  0  0  0  0  0  0  0  0  0  0  0
    3.8320   -0.1770    2.7310 O   0  0  0  0  0  0  0  0  0  0  0  0
    3.8950    1.0350    2.0900 C   0  0  0  0  0  0  0  0  0  0  0  0
    4.7140    1.8880    2.5500 O   0  0  0  0  0  0  0  0  0  0  0  0
    3.1100    1.4460    0.9250 C   0  0  0  0  0  0  0  0  0  0  0  0
    2.1650    0.4080    0.4040 C   0  0  1  0  0  0  0  0  0  0  0  0
    2.8580   -0.8560   -0.0330 C   0  0  0  0  0  0  0  0  0  0  0  0
    1.9180   -1.7640   -0.5120 O   0  0  0  0  0  0  0  0  0  0  0  0
    1.0720    0.1070    1.4010 C   0  0  0  0  0  0  0  0  0  0  0  0
   -0.0530    0.7440    0.8740 O   0  0  0  0  0  0  0  0  0  0  0  0
    0.1690    0.6390   -0.4920 C   0  0  1  0  0  0  0  0  0  0  0  0
   -0.6880    1.3690   -1.2580 O   0  0  0  0  0  0  0  0  0  0  0  0
   -1.4790    0.6910   -2.1570 C   0  0  2  0  0  0  0  0  0  0  0  0
   -0.9050    0.9010   -3.4850 O   0  0  0  0  0  0  0  0  0  0  0  0
   -2.8620    1.1790   -2.3020 C   0  0  2  0  0  0  0  0  0  0  0  0
   -2.7100    2.5510   -2.7090 O   0  0  0  0  0  0  0  0  0  0  0  0
   -3.8380    1.0940   -1.2080 C   0  0  0  0  0  0  0  0  0  0  0  0
   -4.2430   -0.0850   -0.7010 O   0  0  0  0  0  0  0  0  0  0  0  0
   -3.3500   -0.8510   -0.0680 C   0  0  1  0  0  0  0  0  0  0  0  0
   -3.8430   -1.1350    1.2330 O   0  0  0  0  0  0  0  0  0  0  0  0
   -3.1870   -2.2440   -0.7030 C   0  0  0  0  0  0  0  0  0  0  0  0
   -2.2260   -2.9030    0.0580 O   0  0  0  0  0  0  0  0  0  0  0  0
    1.4970    0.9630   -0.6810 O   0  0  0  0  0  0  0  0  0  0  0  0
  1  2  1  0
  2  3  1  0
  3  4  2  0
  3  5  1  0
  6  5  1  1
  6  7  1  0
  6  9  1  0
  6 23  1  0
  7  8  1  0
  9 10  1  0
 10 11  1  0
 11 12  1  6
 11 23  1  0
 12 13  1  0
 13 14  1  6
 13 15  1  0
 15 16  1  1
 15 17  1  0
 17 18  1  0
 18 19  1  0
 19 20  1  1
 19 21  1  0
 21 22  1  0
M  END
