
     RDKit          3D

 16 17  0  0  0  0  0  0  0  0999 V2000
   -4.6670   -1.5200   -0.7220 N   0  0  0  0  0  0  0  0  0  0  0  0
   -3.4480   -0.8190   -0.6300 C   0  0  0  0  0  0  0  0  0  0  0  0
   -3.0340   -0.3110    0.5940 C   0  0  0  0  0  0  0  0  0  0  0  0
   -1.8630    0.3710    0.7190 C   0  0  0  0  0  0  0  0  0  0  0  0
   -1.0320    0.5920   -0.3610 C   0  0  0  0  0  0  0  0  0  0  0  0
    0.4340    1.4690   -0.1070 S   0  0  1  0  0  0  0  0  0  0  0  0
    0.8180    2.2730   -1.3400 O   0  0  0  0  0  0  0  0  0  0  0  0
    0.2270    2.4220    1.0450 O   0  0  0  0  0  0  0  0  0  0  0  0
    1.7710    0.4710    0.2980 N   0  0  0  0  0  0  0  0  0  0  0  0
    3.0220    1.1190    0.5100 C   0  0  0  0  0  0  0  0  0  0  0  0
    3.1290    2.3880    0.4010 O   0  0  0  0  0  0  0  0  0  0  0  0
    4.2260    0.3590    0.8600 C   0  0  2  0  0  0  0  0  0  0  0  0
    4.3290   -1.0650    0.5320 C   0  0  0  0  0  0  0  0  0  0  0  0
    4.0680   -0.7360    1.8410 C   0  0  0  0  0  0  0  0  0  0  0  0
   -1.4300    0.0900   -1.5990 C   0  0  0  0  0  0  0  0  0  0  0  0
   -2.6180   -0.5990   -1.7110 C   0  0  0  0  0  0  0  0  0  0  0  0
  1  2  1  0
  2  3  2  0
  2 16  1  0
  3  4  1  0
  4  5  2  0
  5  6  1  0
  5 15  1  0
  6  7  2  0
  6  8  2  0
  6  9  1  1
  9 10  1  0
 10 11  2  0
 12 10  1  6
 12 13  1  0
 12 14  1  0
 13 14  2  0
 15 16  2  0
M  END
