
     RDKit          3D

 21 23  0  0  0  0  0  0  0  0999 V2000
    5.6860    0.5830    0.3150 C   0  0  0  0  0  0  0  0  0  0  0  0
    5.1150   -0.1860   -0.8480 C   0  0  0  0  0  0  0  0  0  0  0  0
    3.7630   -0.4950   -0.7040 O   0  0  0  0  0  0  0  0  0  0  0  0
    2.8040    0.4750   -0.5640 C   0  0  0  0  0  0  0  0  0  0  0  0
    3.1680    1.6790   -0.5680 O   0  0  0  0  0  0  0  0  0  0  0  0
    1.4050    0.1080   -0.4170 C   0  0  0  0  0  0  0  0  0  0  0  0
    0.4310    1.1040   -0.2750 C   0  0  0  0  0  0  0  0  0  0  0  0
    0.9660    2.7860   -0.2830 Cl  0  0  0  0  0  0  0  0  0  0  0  0
   -0.9060    0.8170   -0.1320 C   0  0  0  0  0  0  0  0  0  0  0  0
   -1.8710    1.7930    0.0090 C   0  0  0  0  0  0  0  0  0  0  0  0
   -3.2040    1.4920    0.1510 C   0  0  0  0  0  0  0  0  0  0  0  0
   -4.2150    2.5650    0.2990 C   0  0  0  0  0  0  0  0  0  0  0  0
   -3.6100    0.1520    0.1550 C   0  0  0  0  0  0  0  0  0  0  0  0
   -5.0560   -0.1440    0.3110 C   0  0  0  0  0  0  0  0  0  0  0  0
   -2.6490   -0.8340    0.0150 C   0  0  0  0  0  0  0  0  0  0  0  0
   -1.3160   -0.5180   -0.1270 C   0  0  0  0  0  0  0  0  0  0  0  0
   -0.3580   -1.5000   -0.2660 C   0  0  0  0  0  0  0  0  0  0  0  0
   -0.4250   -2.8890   -0.3020 C   0  0  0  0  0  0  0  0  0  0  0  0
    0.8310   -3.4090   -0.4610 C   0  0  0  0  0  0  0  0  0  0  0  0
    1.6940   -2.3720   -0.5270 N   0  0  0  0  0  0  0  0  0  0  0  0
    1.0060   -1.2100   -0.4120 C   0  0  0  0  0  0  0  0  0  0  0  0
  1  2  1  0
  2  3  1  0
  3  4  1  0
  4  5  2  0
  4  6  1  0
  6  7  2  0
  6 21  1  0
  7  8  1  0
  7  9  1  0
  9 10  2  0
  9 16  1  0
 10 11  1  0
 11 12  1  0
 11 13  2  0
 13 14  1  0
 13 15  1  0
 15 16  2  0
 16 17  1  0
 17 18  1  0
 17 21  2  0
 18 19  2  0
 19 20  1  0
 20 21  1  0
M  END
