
     RDKit          3D

 16 17  0  0  0  0  0  0  0  0999 V2000
   -4.0450   -1.4660    0.7710 C   0  0  0  0  0  0  0  0  0  0  0  0
   -3.0760   -0.4610    1.3880 C   0  0  0  0  0  0  0  0  0  0  0  0
   -3.0320    0.7700    0.5770 C   0  0  0  0  0  0  0  0  0  0  0  0
   -1.9260    1.2240    0.0080 C   0  0  0  0  0  0  0  0  0  0  0  0
   -0.5880    0.6740    0.0340 C   0  0  0  0  0  0  0  0  0  0  0  0
    0.2610    1.1630   -0.8040 C   0  0  0  0  0  0  0  0  0  0  0  0
    1.6770    0.6980   -0.8960 C   0  0  0  0  0  0  0  0  0  0  0  0
    2.4550    1.2150   -1.7350 O   0  0  0  0  0  0  0  0  0  0  0  0
    2.1890   -0.3240   -0.0580 N   0  0  0  0  0  0  0  0  0  0  0  0
    3.5850   -0.7400   -0.1910 C   0  0  2  0  0  0  0  0  0  0  0  0
    3.9550   -2.1620    0.0050 C   0  0  0  0  0  0  0  0  0  0  0  0
    4.3500   -1.1090    1.0270 C   0  0  0  0  0  0  0  0  0  0  0  0
   -0.2160    2.1870   -1.6630 N   0  0  0  0  0  0  0  0  0  0  0  0
   -1.7340    2.6680   -0.9790 S   0  0  1  0  0  0  0  0  0  0  0  0
   -2.7890    2.7860   -2.0140 O   0  0  0  0  0  0  0  0  0  0  0  0
   -1.5860    3.8940   -0.1350 O   0  0  0  0  0  0  0  0  0  0  0  0
  1  2  1  0
  2  3  1  0
  3  4  2  3
  4  5  1  0
  4 14  1  0
  5  6  2  0
  6  7  1  0
  6 13  1  0
  7  8  2  0
  7  9  1  0
 10  9  1  1
 10 11  1  0
 10 12  1  0
 11 12  1  0
 14 13  1  6
 14 15  2  0
 14 16  2  0
M  END
