
     RDKit          3D

 16 17  0  0  0  0  0  0  0  0999 V2000
    4.9590    1.0670   -0.3500 N   0  0  0  0  0  0  0  0  0  0  0  0
    4.5840   -0.2150    0.0510 C   0  0  0  0  0  0  0  0  0  0  0  0
    5.4100   -1.1840   -0.1980 O   0  0  0  0  0  0  0  0  0  0  0  0
    3.3630   -0.6440    0.7410 C   0  0  0  0  0  0  0  0  0  0  0  0
    2.0620    0.5350    0.9730 S   0  0  0  0  0  0  0  0  0  0  0  0
    0.5210    0.1310    0.1610 C   0  0  0  0  0  0  0  0  0  0  0  0
    0.4100   -0.8980   -0.7000 C   0  0  0  0  0  0  0  0  0  0  0  0
   -0.8330   -1.2720   -1.1590 C   0  0  0  0  0  0  0  0  0  0  0  0
   -1.9670   -0.5890   -0.7380 C   0  0  0  0  0  0  0  0  0  0  0  0
   -1.8570    0.4550    0.1390 C   0  0  0  0  0  0  0  0  0  0  0  0
   -0.6200    0.8300    0.5940 C   0  0  0  0  0  0  0  0  0  0  0  0
   -3.0250    1.0860    0.7070 N   0  0  0  0  0  0  0  0  0  0  0  0
   -4.2850    0.5510    0.3120 C   0  0  0  0  0  0  0  0  0  0  0  0
   -5.2760    0.5360    1.0760 O   0  0  0  0  0  0  0  0  0  0  0  0
   -4.3370   -0.0050   -1.0960 C   0  0  0  0  0  0  0  0  0  0  0  0
   -3.2480   -0.9040   -1.1740 O   0  0  0  0  0  0  0  0  0  0  0  0
  1  2  1  0
  2  3  2  0
  2  4  1  0
  4  5  1  0
  5  6  1  0
  6  7  2  0
  6 11  1  0
  7  8  1  0
  8  9  2  0
  9 10  1  0
  9 16  1  0
 10 11  2  0
 10 12  1  0
 12 13  1  0
 13 14  2  0
 13 15  1  0
 15 16  1  0
M  END
