
     RDKit          3D

 18 18  0  0  0  0  0  0  0  0999 V2000
    3.6040   -2.0300   -1.5390 C   0  0  0  0  0  0  0  0  0  0  0  0
    2.8330   -0.8580   -1.2950 O   0  0  0  0  0  0  0  0  0  0  0  0
    1.5130   -0.9550   -0.8420 C   0  0  0  0  0  0  0  0  0  0  0  0
    1.1080   -2.1050   -0.6840 O   0  0  0  0  0  0  0  0  0  0  0  0
    0.7340    0.2270   -0.5960 C   0  0  0  0  0  0  0  0  0  0  0  0
   -0.4830    0.4400   -0.1670 C   0  0  0  0  0  0  0  0  0  0  0  0
   -1.5630   -0.4420    0.2480 C   0  0  2  0  0  0  0  0  0  0  0  0
   -2.6860   -0.1160   -0.6150 O   0  0  0  0  0  0  0  0  0  0  0  0
   -2.0820   -0.0970    1.6540 C   0  0  0  0  0  0  0  0  0  0  0  0
   -2.4180    1.2320    1.6960 O   0  0  0  0  0  0  0  0  0  0  0  0
   -1.4520   -1.8900    0.1230 C   0  0  0  0  0  0  0  0  0  0  0  0
   -1.9100   -2.5850   -1.0500 N   0  0  0  0  0  0  0  0  0  0  0  0
   -0.9400   -2.6090    1.0620 O   0  0  0  0  0  0  0  0  0  0  0  0
   -0.7380    1.9260   -0.2320 C   0  0  0  0  0  0  0  0  0  0  0  0
   -1.8170    2.4790   -0.3810 O   0  0  0  0  0  0  0  0  0  0  0  0
    0.6100    2.5300   -0.0780 C   0  0  1  0  0  0  0  0  0  0  0  0
    1.0280    2.6010    1.3560 C   0  0  0  0  0  0  0  0  0  0  0  0
    1.3570    1.5340   -0.8310 N   0  0  0  0  0  0  0  0  0  0  0  0
  1  2  1  0
  2  3  1  0
  3  4  2  0
  3  5  1  0
  5  6  2  0
  5 18  1  0
  6  7  1  0
  6 14  1  0
  7  8  1  6
  7  9  1  0
  7 11  1  0
  9 10  1  0
 11 12  1  0
 11 13  2  0
 14 15  2  0
 14 16  1  0
 16 17  1  1
 16 18  1  0
M  END
