
     RDKit          3D

 17 17  0  0  0  0  0  0  0  0999 V2000
   -2.7420    2.3290    0.0810 N   0  0  0  0  0  0  0  0  0  0  0  0
   -1.7380    2.3060   -0.9620 C   0  0  1  0  0  0  0  0  0  0  0  0
   -1.4040    3.6210   -1.2940 O   0  0  0  0  0  0  0  0  0  0  0  0
   -0.5490    1.6080   -0.4150 C   0  0  0  0  0  0  0  0  0  0  0  0
   -0.4810    0.2930   -0.5090 C   0  0  0  0  0  0  0  0  0  0  0  0
   -1.5710   -0.3470   -1.1350 O   0  0  0  0  0  0  0  0  0  0  0  0
   -1.8950   -1.7100   -0.9260 C   0  0  0  0  0  0  0  0  0  0  0  0
   -1.6270   -2.2280    0.4290 C   0  0  2  0  0  0  0  0  0  0  0  0
   -2.1490   -1.3100    1.3600 O   0  0  0  0  0  0  0  0  0  0  0  0
   -0.2230   -2.5800    0.7600 C   0  0  0  0  0  0  0  0  0  0  0  0
    0.7040   -1.5380    0.7180 O   0  0  0  0  0  0  0  0  0  0  0  0
    0.7230   -0.3030    0.0540 C   0  0  0  0  0  0  0  0  0  0  0  0
    1.8580    0.3490   -0.0740 C   0  0  0  0  0  0  0  0  0  0  0  0
    3.1080   -0.1680    0.4570 C   0  0  0  0  0  0  0  0  0  0  0  0
    3.0830   -1.3860    1.1130 O   0  0  0  0  0  0  0  0  0  0  0  0
    4.2460    0.4640    0.3400 C   0  0  0  0  0  0  0  0  0  0  0  0
    4.3050    1.6810   -0.3090 O   0  0  0  0  0  0  0  0  0  0  0  0
  2  1  1  1
  2  3  1  0
  2  4  1  0
  4  5  2  3
  5  6  1  0
  5 12  1  0
  6  7  1  0
  7  8  1  0
  8  9  1  1
  8 10  1  0
 10 11  1  0
 11 12  1  0
 12 13  2  3
 13 14  1  0
 14 15  1  0
 14 16  2  3
 16 17  1  0
M  END
