
     RDKit          3D

 17 17  0  0  0  0  0  0  0  0999 V2000
   -2.9170   -0.5270   -2.2270 C   0  0  0  0  0  0  0  0  0  0  0  0
   -2.6390   -0.1540   -0.7700 C   0  0  2  0  0  0  0  0  0  0  0  0
   -1.8640    0.9780   -0.7860 O   0  0  0  0  0  0  0  0  0  0  0  0
   -1.2240    1.2540    0.4060 C   0  0  0  0  0  0  0  0  0  0  0  0
   -0.4010    0.1670    0.9630 C   0  0  2  0  0  0  0  0  0  0  0  0
   -0.9300   -0.0200    2.4290 C   0  0  0  0  0  0  0  0  0  0  0  0
    1.0750    0.4260    1.0460 C   0  0  2  0  0  0  0  0  0  0  0  0
    1.3840    1.6820    1.5620 O   0  0  0  0  0  0  0  0  0  0  0  0
    1.8940   -0.0080   -0.0840 C   0  0  0  0  0  0  0  0  0  0  0  0
    2.7920   -0.9720    0.0730 C   0  0  0  0  0  0  0  0  0  0  0  0
    2.9420   -1.5660    1.3410 N   0  0  0  0  0  0  0  0  0  0  0  0
    1.7950    0.5370   -1.4230 C   0  0  0  0  0  0  0  0  0  0  0  0
    2.5920    0.0730   -2.5050 N   0  0  0  0  0  0  0  0  0  0  0  0
    0.9960    1.4480   -1.6820 O   0  0  0  0  0  0  0  0  0  0  0  0
   -0.6760   -1.0830    0.3610 O   0  0  0  0  0  0  0  0  0  0  0  0
   -1.9370   -1.3000   -0.1450 C   0  0  0  0  0  0  0  0  0  0  0  0
   -2.4390   -2.4470   -0.0610 O   0  0  0  0  0  0  0  0  0  0  0  0
  2  1  1  6
  2  3  1  0
  2 16  1  0
  3  4  1  0
  4  5  1  0
  5  6  1  1
  5  7  1  0
  5 15  1  0
  7  8  1  6
  7  9  1  0
  9 10  2  3
  9 12  1  0
 10 11  1  0
 12 13  1  0
 12 14  2  0
 15 16  1  0
 16 17  2  0
M  END
