
     RDKit          3D

 18 18  0  0  0  0  0  0  0  0999 V2000
    1.6060   -1.8180   -1.2640 C   0  0  0  0  0  0  0  0  0  0  0  0
    1.6260   -0.2860   -1.1210 C   0  0  1  0  0  0  0  0  0  0  0  0
    0.2170    0.1710   -1.0760 C   0  0  0  0  0  0  0  0  0  0  0  0
   -0.5160   -0.4050    0.0150 O   0  0  0  0  0  0  0  0  0  0  0  0
   -1.8520   -0.0640    0.1770 C   0  0  0  0  0  0  0  0  0  0  0  0
   -2.2780    1.1510    0.4760 C   0  0  0  0  0  0  0  0  0  0  0  0
   -3.6850    1.5480    0.6540 C   0  0  2  0  0  0  0  0  0  0  0  0
   -3.9100    2.1100    1.9200 O   0  0  0  0  0  0  0  0  0  0  0  0
   -4.6150    0.5120    0.4810 O   0  0  0  0  0  0  0  0  0  0  0  0
   -4.1920   -0.7500    0.1720 C   0  0  0  0  0  0  0  0  0  0  0  0
   -2.9180   -1.0700    0.0190 C   0  0  0  0  0  0  0  0  0  0  0  0
   -2.6160   -2.4210   -0.3030 N   0  0  0  0  0  0  0  0  0  0  0  0
    2.4330   -0.0260   -0.0420 O   0  0  0  0  0  0  0  0  0  0  0  0
    3.6470    0.5950   -0.0170 C   0  0  0  0  0  0  0  0  0  0  0  0
    4.0470    0.9640   -1.1510 O   0  0  0  0  0  0  0  0  0  0  0  0
    4.4290    0.8230    1.1970 C   0  0  0  0  0  0  0  0  0  0  0  0
    5.6870    1.4760    1.1560 N   0  0  0  0  0  0  0  0  0  0  0  0
    4.0010    0.4430    2.3140 O   0  0  0  0  0  0  0  0  0  0  0  0
  2  1  1  1
  2  3  1  0
  2 13  1  0
  3  4  1  0
  4  5  1  0
  5  6  2  0
  5 11  1  0
  6  7  1  0
  7  8  1  1
  7  9  1  0
  9 10  1  0
 10 11  2  0
 11 12  1  0
 13 14  1  0
 14 15  2  0
 14 16  1  0
 16 17  1  0
 16 18  2  0
M  END
