
     RDKit          3D

 29 31  0  0  0  0  0  0  0  0999 V2000
   -3.5240   -2.4480    3.7460 C   0  0  0  0  0  0  0  0  0  0  0  0
   -4.0420   -1.2350    3.0060 C   0  0  0  0  0  0  0  0  0  0  0  0
   -3.0490   -0.8660    2.0700 O   0  0  0  0  0  0  0  0  0  0  0  0
   -3.3040    0.2380    1.2630 C   0  0  0  0  0  0  0  0  0  0  0  0
   -4.4660    0.9670    1.3440 C   0  0  0  0  0  0  0  0  0  0  0  0
   -4.6840    2.0530    0.5270 C   0  0  0  0  0  0  0  0  0  0  0  0
   -3.7450    2.4560   -0.4050 C   0  0  0  0  0  0  0  0  0  0  0  0
   -4.0040    3.4900   -1.2260 N   0  0  0  0  0  0  0  0  0  0  0  0
   -3.1060    3.8380   -2.1570 C   0  0  0  0  0  0  0  0  0  0  0  0
   -3.3630    4.8200   -2.9350 O   0  0  0  0  0  0  0  0  0  0  0  0
   -1.9190    3.1740   -2.3030 C   0  0  0  0  0  0  0  0  0  0  0  0
   -1.6020    2.0880   -1.4650 C   0  0  0  0  0  0  0  0  0  0  0  0
   -0.3610    1.3870   -1.6740 C   0  0  0  0  0  0  0  0  0  0  0  0
    0.0470    1.2190   -3.1250 C   0  0  0  0  0  0  0  0  0  0  0  0
    0.4320    0.8520   -0.7890 C   0  0  0  0  0  0  0  0  0  0  0  0
    1.6780    0.1480   -1.1020 C   0  0  0  0  0  0  0  0  0  0  0  0
    2.0860    0.0120   -2.2780 O   0  0  0  0  0  0  0  0  0  0  0  0
    2.4940   -0.4190   -0.0760 N   0  0  0  0  0  0  0  0  0  0  0  0
    3.6890   -1.0920   -0.4100 C   0  0  0  0  0  0  0  0  0  0  0  0
    4.0460   -1.1890   -1.6980 N   0  0  0  0  0  0  0  0  0  0  0  0
    5.1710   -1.8150   -2.0940 C   0  0  0  0  0  0  0  0  0  0  0  0
    5.9770   -2.3710   -1.1380 C   0  0  0  0  0  0  0  0  0  0  0  0
    7.1120   -3.0050   -1.5040 F   0  0  0  0  0  0  0  0  0  0  0  0
    5.6210   -2.2770    0.1880 C   0  0  0  0  0  0  0  0  0  0  0  0
    6.5330   -2.9000    1.1910 C   0  0  0  0  0  0  0  0  0  0  0  0
    6.0160   -2.7100    2.4890 O   0  0  0  0  0  0  0  0  0  0  0  0
    4.4960   -1.6450    0.5090 N   0  0  0  0  0  0  0  0  0  0  0  0
   -2.5390    1.7420   -0.5210 C   0  0  0  0  0  0  0  0  0  0  0  0
   -2.3630    0.6580    0.3130 C   0  0  0  0  0  0  0  0  0  0  0  0
  1  2  1  0
  2  3  1  0
  3  4  1  0
  4  5  2  0
  4 29  1  0
  5  6  1  0
  6  7  2  0
  7  8  1  0
  7 28  1  0
  8  9  1  0
  9 10  2  0
  9 11  1  0
 11 12  2  0
 12 13  1  0
 12 28  1  0
 13 14  1  0
 13 15  2  3
 15 16  1  0
 16 17  2  0
 16 18  1  0
 18 19  1  0
 19 20  2  0
 19 27  1  0
 20 21  1  0
 21 22  2  0
 22 23  1  0
 22 24  1  0
 24 25  1  0
 24 27  2  0
 25 26  1  0
 28 29  2  0
M  END
