
     RDKit          3D

 29 31  0  0  0  0  0  0  0  0999 V2000
    0.8890    5.2210   -2.7170 C   0  0  0  0  0  0  0  0  0  0  0  0
    0.9920    4.0390   -1.9820 O   0  0  0  0  0  0  0  0  0  0  0  0
    0.3180    3.8420   -0.7830 C   0  0  0  0  0  0  0  0  0  0  0  0
   -0.5090    4.7670   -0.1910 C   0  0  0  0  0  0  0  0  0  0  0  0
   -0.9480    4.1380    0.9670 C   0  0  0  0  0  0  0  0  0  0  0  0
   -0.4050    2.9580    1.0100 O   0  0  0  0  0  0  0  0  0  0  0  0
    0.3660    2.6980    0.0060 C   0  0  0  0  0  0  0  0  0  0  0  0
    1.1680    1.5390   -0.3640 C   0  0  0  0  0  0  0  0  0  0  0  0
    0.8200    0.2810   -0.3670 C   0  0  0  0  0  0  0  0  0  0  0  0
    1.7880   -0.7180   -0.7710 C   0  0  0  0  0  0  0  0  0  0  0  0
    1.5170   -1.9610   -0.7950 O   0  0  0  0  0  0  0  0  0  0  0  0
    3.1300   -0.4410   -1.1810 N   0  0  0  0  0  0  0  0  0  0  0  0
    4.0580   -1.5030   -1.5730 C   0  0  0  0  0  0  0  0  0  0  0  0
    4.3130   -2.4610   -0.4690 C   0  0  0  0  0  0  0  0  0  0  0  0
    5.1800   -2.2820    0.6150 C   0  0  0  0  0  0  0  0  0  0  0  0
    5.1440   -3.3960    1.4180 C   0  0  0  0  0  0  0  0  0  0  0  0
    4.2740   -4.2390    0.8360 N   0  0  0  0  0  0  0  0  0  0  0  0
    3.7870   -3.6760   -0.2810 N   0  0  0  0  0  0  0  0  0  0  0  0
   -0.5430   -0.1040   -0.0070 C   0  0  0  0  0  0  0  0  0  0  0  0
   -1.3720    0.8240    0.2960 O   0  0  0  0  0  0  0  0  0  0  0  0
   -1.0670   -1.4000    0.0480 N   0  0  0  0  0  0  0  0  0  0  0  0
   -2.4240   -1.6630    0.4000 C   0  0  0  0  0  0  0  0  0  0  0  0
   -3.4480   -0.7990    0.2300 C   0  0  0  0  0  0  0  0  0  0  0  0
   -4.7230   -1.1850    0.6580 C   0  0  0  0  0  0  0  0  0  0  0  0
   -5.8300   -0.2100    0.4600 C   0  0  0  0  0  0  0  0  0  0  0  0
   -4.9800   -2.4000    1.2410 C   0  0  0  0  0  0  0  0  0  0  0  0
   -3.9140   -3.2550    1.3990 C   0  0  0  0  0  0  0  0  0  0  0  0
   -4.1740   -4.4670    1.9820 F   0  0  0  0  0  0  0  0  0  0  0  0
   -2.6530   -2.9260    0.9990 C   0  0  0  0  0  0  0  0  0  0  0  0
  1  2  1  0
  2  3  1  0
  3  4  1  0
  3  7  2  0
  4  5  2  0
  5  6  1  0
  6  7  1  0
  7  8  1  0
  8  9  2  3
  9 10  1  0
  9 19  1  0
 10 11  2  0
 10 12  1  0
 12 13  1  0
 13 14  1  0
 14 15  2  0
 14 18  1  0
 15 16  1  0
 16 17  2  0
 17 18  1  0
 19 20  2  0
 19 21  1  0
 21 22  1  0
 22 23  2  0
 22 29  1  0
 23 24  1  0
 24 25  1  0
 24 26  2  0
 26 27  1  0
 27 28  1  0
 27 29  2  0
M  END
