
     RDKit          3D

 31 34  0  0  0  0  0  0  0  0999 V2000
   -4.9420   -0.9920    3.3620 N   0  0  0  0  0  0  0  0  0  0  0  0
   -5.1360   -0.0000    2.3150 C   0  0  0  0  0  0  0  0  0  0  0  0
   -4.5840   -0.5400    0.9870 C   0  0  0  0  0  0  0  0  0  0  0  0
   -4.7810    0.4480   -0.0280 N   0  0  2  0  0  0  0  0  0  0  0  0
   -5.3490   -0.1440   -1.2190 C   0  0  0  0  0  0  0  0  0  0  0  0
   -4.5700   -1.3080   -1.7490 C   0  0  0  0  0  0  0  0  0  0  0  0
   -2.8460   -1.1190   -1.3020 S   0  0  0  0  0  0  0  0  0  0  0  0
   -2.5150    0.6650   -0.9840 C   0  0  2  0  0  0  0  0  0  0  0  0
   -1.2930    0.6600   -0.1490 C   0  0  0  0  0  0  0  0  0  0  0  0
   -1.4440    0.9570    1.1960 C   0  0  0  0  0  0  0  0  0  0  0  0
   -0.3600    0.9640    2.0280 C   0  0  0  0  0  0  0  0  0  0  0  0
    0.8660    0.6680    1.4920 C   0  0  0  0  0  0  0  0  0  0  0  0
    1.0690    0.3660    0.1690 C   0  0  0  0  0  0  0  0  0  0  0  0
    2.3620    0.0280   -0.3080 N   0  0  0  0  0  0  0  0  0  0  0  0
    3.5870    0.1250    0.3860 C   0  0  0  0  0  0  0  0  0  0  0  0
    3.6120    0.5510    1.5450 O   0  0  0  0  0  0  0  0  0  0  0  0
    4.8310   -0.2520   -0.1910 N   0  0  0  0  0  0  0  0  0  0  0  0
    6.0990   -0.2080    0.3730 C   0  0  0  0  0  0  0  0  0  0  0  0
    6.3960    0.3030    1.5990 C   0  0  0  0  0  0  0  0  0  0  0  0
    7.7080    0.3040    2.1070 C   0  0  0  0  0  0  0  0  0  0  0  0
    8.7460   -0.2170    1.3730 C   0  0  0  0  0  0  0  0  0  0  0  0
    8.4580   -0.7340    0.1360 C   0  0  0  0  0  0  0  0  0  0  0  0
    7.1720   -0.7290   -0.3480 C   0  0  0  0  0  0  0  0  0  0  0  0
   -0.0360    0.3610   -0.6760 C   0  0  0  0  0  0  0  0  0  0  0  0
    0.0720    0.0530   -2.0800 C   0  0  0  0  0  0  0  0  0  0  0  0
    1.1450   -0.1960   -2.8650 N   0  0  0  0  0  0  0  0  0  0  0  0
    0.7890   -0.4360   -4.1280 C   0  0  0  0  0  0  0  0  0  0  0  0
    1.8090   -0.8060   -5.5010 Cl  0  0  0  0  0  0  0  0  0  0  0  0
   -0.5960   -0.3290   -4.1250 C   0  0  0  0  0  0  0  0  0  0  0  0
   -0.9300   -0.0480   -2.9190 O   0  0  0  0  0  0  0  0  0  0  0  0
   -3.6660    1.3030   -0.3130 C   0  0  0  0  0  0  0  0  0  0  0  0
  1  2  1  0
  2  3  1  0
  4  3  1  1
  4  5  1  0
  4 31  1  0
  5  6  1  0
  6  7  1  0
  7  8  1  0
  8  9  1  1
  8 31  1  0
  9 10  2  0
  9 24  1  0
 10 11  1  0
 11 12  2  0
 12 13  1  0
 13 14  1  0
 13 24  2  0
 14 15  1  0
 15 16  2  0
 15 17  1  0
 17 18  1  0
 18 19  2  0
 18 23  1  0
 19 20  1  0
 20 21  2  0
 21 22  1  0
 22 23  2  0
 24 25  1  0
 25 26  2  0
 25 30  1  0
 26 27  1  0
 27 28  1  0
 27 29  2  0
 29 30  1  0
M  CHG  1   4   1
M  END
