
     RDKit          3D

 31 34  0  0  0  0  0  0  0  0999 V2000
    8.7540    1.3000   -0.8110 C   0  0  0  0  0  0  0  0  0  0  0  0
    7.3810    1.1430   -0.2140 C   0  0  2  0  0  0  0  0  0  0  0  0
    7.0680    2.2550    1.3000 Br  0  0  0  0  0  0  0  0  0  0  0  0
    7.1050   -0.3000    0.0040 C   0  0  0  0  0  0  0  0  0  0  0  0
    5.7110   -0.6210   -0.2480 C   0  0  0  0  0  0  0  0  0  0  0  0
    4.9890   -1.7120    0.2760 C   0  0  0  0  0  0  0  0  0  0  0  0
    3.6870   -1.9000   -0.0470 C   0  0  0  0  0  0  0  0  0  0  0  0
    2.9800   -1.0630   -0.8920 C   0  0  0  0  0  0  0  0  0  0  0  0
    1.5630   -1.2630   -1.2470 C   0  0  0  0  0  0  0  0  0  0  0  0
    0.6930   -0.6060   -0.3520 O   0  0  0  0  0  0  0  0  0  0  0  0
   -0.6590   -0.6760   -0.5190 C   0  0  0  0  0  0  0  0  0  0  0  0
   -1.0560   -1.3640   -1.5220 O   0  0  0  0  0  0  0  0  0  0  0  0
   -1.5830   -0.0250    0.3640 C   0  0  0  0  0  0  0  0  0  0  0  0
   -2.9370   -0.1850    0.0680 C   0  0  0  0  0  0  0  0  0  0  0  0
   -3.9520    0.3850    0.8320 C   0  0  0  0  0  0  0  0  0  0  0  0
   -5.2840    0.1680    0.4480 N   0  0  0  0  0  0  0  0  0  0  0  0
   -6.4610    0.5670    1.0990 C   0  0  0  0  0  0  0  0  0  0  0  0
   -6.3840    1.2030    2.1700 O   0  0  0  0  0  0  0  0  0  0  0  0
   -7.8000    0.2570    0.5540 C   0  0  0  0  0  0  0  0  0  0  0  0
   -8.1310   -0.4220   -0.5930 C   0  0  0  0  0  0  0  0  0  0  0  0
   -9.5090   -0.4530   -0.6690 C   0  0  0  0  0  0  0  0  0  0  0  0
   -9.9570    0.2090    0.4370 C   0  0  0  0  0  0  0  0  0  0  0  0
   -8.9120    0.6090    1.1280 O   0  0  0  0  0  0  0  0  0  0  0  0
   -3.5460    1.1230    1.9050 C   0  0  0  0  0  0  0  0  0  0  0  0
   -2.2130    1.3040    2.2310 C   0  0  0  0  0  0  0  0  0  0  0  0
   -1.7490    2.2580    3.6170 Cl  0  0  0  0  0  0  0  0  0  0  0  0
   -1.2030    0.7190    1.4460 C   0  0  0  0  0  0  0  0  0  0  0  0
    0.1040    0.9060    1.7780 O   0  0  0  0  0  0  0  0  0  0  0  0
    3.6810    0.0050   -1.4080 C   0  0  0  0  0  0  0  0  0  0  0  0
    5.0150    0.2020   -1.0800 C   0  0  0  0  0  0  0  0  0  0  0  0
    6.1870    1.4910   -1.5740 S   0  0  0  0  0  0  0  0  0  0  0  0
  2  1  1  6
  2  3  1  0
  2  4  1  0
  2 31  1  0
  4  5  1  0
  5  6  2  0
  5 30  1  0
  6  7  1  0
  7  8  2  0
  8  9  1  0
  8 29  1  0
  9 10  1  0
 10 11  1  0
 11 12  2  0
 11 13  1  0
 13 14  2  0
 13 27  1  0
 14 15  1  0
 15 16  1  0
 15 24  2  0
 16 17  1  0
 17 18  2  0
 17 19  1  0
 19 20  2  0
 19 23  1  0
 20 21  1  0
 21 22  2  0
 22 23  1  0
 24 25  1  0
 25 26  1  0
 25 27  2  0
 27 28  1  0
 29 30  2  0
 30 31  1  0
M  END
