
     RDKit          3D

 29 32  0  0  0  0  0  0  0  0999 V2000
   -3.9890   -1.6250   -0.5220 C   0  0  0  0  0  0  0  0  0  0  0  0
   -2.8890   -1.0560   -0.1140 C   0  0  0  0  0  0  0  0  0  0  0  0
   -1.8730   -0.2800   -0.7760 C   0  0  0  0  0  0  0  0  0  0  0  0
   -1.8880    0.1900   -1.9910 C   0  0  0  0  0  0  0  0  0  0  0  0
   -2.8540    0.1390   -3.0740 C   0  0  0  0  0  0  0  0  0  0  0  0
   -2.1510   -0.7430   -4.5320 S   0  0  0  0  0  0  0  0  0  0  0  0
   -0.7200   -0.0020    0.1590 C   0  0  2  0  0  0  0  0  0  0  0  0
   -0.5310    1.4290    0.4200 C   0  0  0  0  0  0  0  0  0  0  0  0
   -0.2320    2.3500   -0.6030 N   0  0  0  0  0  0  0  0  0  0  0  0
    0.3070    3.5600    0.0820 C   0  0  0  0  0  0  0  0  0  0  0  0
    1.2740    4.2760   -0.8180 C   0  0  0  0  0  0  0  0  0  0  0  0
    0.4220   -0.7270   -0.4370 C   0  0  0  0  0  0  0  0  0  0  0  0
    1.7290   -0.6530    0.1960 C   0  0  0  0  0  0  0  0  0  0  0  0
    2.1610    0.2770    1.0240 N   0  0  0  0  0  0  0  0  0  0  0  0
    3.3840    0.2360    1.5060 N   0  0  0  0  0  0  0  0  0  0  0  0
    4.2750   -0.7210    1.2120 C   0  0  0  0  0  0  0  0  0  0  0  0
    5.4490   -0.7750    1.6640 O   0  0  0  0  0  0  0  0  0  0  0  0
    3.9030   -1.7330    0.3500 C   0  0  0  0  0  0  0  0  0  0  0  0
    4.5330   -2.8220   -0.1500 N   0  0  0  0  0  0  0  0  0  0  0  0
    3.6840   -3.4520   -0.9460 N   0  0  0  0  0  0  0  0  0  0  0  0
    2.5130   -2.7940   -0.9740 C   0  0  0  0  0  0  0  0  0  0  0  0
    2.6250   -1.6810   -0.1470 C   0  0  0  0  0  0  0  0  0  0  0  0
   -1.2150   -0.5910    1.4600 C   0  0  0  0  0  0  0  0  0  0  0  0
   -0.6530   -0.6060    2.7280 C   0  0  0  0  0  0  0  0  0  0  0  0
   -1.2600   -1.2180    3.8010 C   0  0  0  0  0  0  0  0  0  0  0  0
   -0.5220   -1.2190    5.4000 Cl  0  0  0  0  0  0  0  0  0  0  0  0
   -2.4380   -1.8190    3.5970 N   0  0  0  0  0  0  0  0  0  0  0  0
   -3.0090   -1.8230    2.3840 C   0  0  0  0  0  0  0  0  0  0  0  0
   -2.4160   -1.2120    1.2930 C   0  0  0  0  0  0  0  0  0  0  0  0
  1  2  2  0
  2  3  1  0
  2 29  1  0
  3  4  2  3
  3  7  1  0
  4  5  1  0
  5  6  1  0
  7  8  1  1
  7 12  1  0
  7 23  1  0
  8  9  1  0
  9 10  1  0
 10 11  1  0
 12 13  1  0
 13 14  2  0
 13 22  1  0
 14 15  1  0
 15 16  1  0
 16 17  2  0
 16 18  1  0
 18 19  1  0
 18 22  2  0
 19 20  1  0
 20 21  2  0
 21 22  1  0
 23 24  2  0
 23 29  1  0
 24 25  1  0
 25 26  1  0
 25 27  2  0
 27 28  1  0
 28 29  2  0
M  CHG  1   9   1
M  END
