
     RDKit          3D

 31 32  0  0  0  0  0  0  0  0999 V2000
   -2.5650    5.3280   -1.1430 C   0  0  0  0  0  0  0  0  0  0  0  0
   -1.1240    5.0520   -1.1650 C   0  0  0  0  0  0  0  0  0  0  0  0
   -0.4740    4.2310   -0.4330 C   0  0  0  0  0  0  0  0  0  0  0  0
   -0.8960    3.3210    0.6290 C   0  0  2  0  0  0  0  0  0  0  0  0
   -0.3530    1.9450    0.3850 C   0  0  0  0  0  0  0  0  0  0  0  0
    0.6150    1.3460    1.0400 C   0  0  0  0  0  0  0  0  0  0  0  0
    1.2290    2.1170    2.1080 C   0  0  0  0  0  0  0  0  0  0  0  0
    2.1360    1.7140    2.8530 O   0  0  0  0  0  0  0  0  0  0  0  0
    0.9790   -0.0360    0.8300 C   0  0  0  0  0  0  0  0  0  0  0  0
    0.3260   -0.9920   -0.0270 C   0  0  0  0  0  0  0  0  0  0  0  0
   -0.6150   -1.2980   -0.7940 C   0  0  0  0  0  0  0  0  0  0  0  0
   -0.5110   -2.7670   -1.3850 C   0  0  0  0  0  0  0  0  0  0  0  0
   -1.8620   -0.7200   -1.2530 C   0  0  0  0  0  0  0  0  0  0  0  0
   -1.7420   -0.5580   -2.7700 C   0  0  0  0  0  0  0  0  0  0  0  0
   -3.0380    0.0220   -3.2730 C   0  0  0  0  0  0  0  0  0  0  0  0
   -2.8870    0.1520   -4.7800 C   0  0  0  0  0  0  0  0  0  0  0  0
   -4.1520    0.7220   -5.3520 C   0  0  0  0  0  0  0  0  0  0  0  0
    2.0860   -0.4580    1.5100 C   0  0  0  0  0  0  0  0  0  0  0  0
    2.6140   -1.7950    1.4520 C   0  0  0  0  0  0  0  0  0  0  0  0
    3.7170   -2.0870    2.1650 C   0  0  0  0  0  0  0  0  0  0  0  0
    4.2690   -3.4390    2.1210 C   0  0  1  0  0  0  0  0  0  0  0  0
    5.6830   -3.3880    1.6180 C   0  0  0  0  0  0  0  0  0  0  0  0
    6.1550   -4.7750    1.4500 C   0  0  0  0  0  0  0  0  0  0  0  0
    5.7990   -5.6640    2.3680 C   0  0  0  0  0  0  0  0  0  0  0  0
    4.9670   -5.3610    3.5380 C   0  0  0  0  0  0  0  0  0  0  0  0
    4.2820   -4.0410    3.5110 C   0  0  0  0  0  0  0  0  0  0  0  0
   -2.3410    3.2500    0.9580 C   0  0  0  0  0  0  0  0  0  0  0  0
   -2.8710    3.7000    2.0880 C   0  0  0  0  0  0  0  0  0  0  0  0
   -4.3080    3.4690    2.0830 C   0  0  0  0  0  0  0  0  0  0  0  0
   -4.5860    2.8040    0.8100 C   0  0  0  0  0  0  0  0  0  0  0  0
   -3.4360    2.6930    0.1790 C   0  0  0  0  0  0  0  0  0  0  0  0
  1  2  1  0
  2  3  2  3
  4  3  1  6
  4  5  1  0
  4 27  1  0
  5  6  2  3
  6  7  1  0
  6  9  1  0
  7  8  2  0
  9 10  1  0
  9 18  2  3
 10 11  2  3
 11 12  1  0
 11 13  1  0
 13 14  1  0
 14 15  1  0
 15 16  1  0
 16 17  1  0
 18 19  1  0
 19 20  2  3
 21 20  1  1
 21 22  1  0
 21 26  1  0
 22 23  1  0
 23 24  2  0
 24 25  1  0
 25 26  1  0
 27 28  2  0
 27 31  1  0
 28 29  1  0
 29 30  1  0
 30 31  2  0
M  END
