
     RDKit          3D

 31 32  0  0  0  0  0  0  0  0999 V2000
   -1.9440   -5.3780   -3.8070 C   0  0  0  0  0  0  0  0  0  0  0  0
   -2.0500   -5.1640   -2.2970 C   0  0  0  0  0  0  0  0  0  0  0  0
   -2.1630   -3.9620   -1.8290 C   0  0  0  0  0  0  0  0  0  0  0  0
   -2.2720   -3.5120   -0.4590 C   0  0  2  0  0  0  0  0  0  0  0  0
   -1.6470   -2.2250   -0.1610 C   0  0  0  0  0  0  0  0  0  0  0  0
   -2.1530   -1.0350   -0.1690 C   0  0  0  0  0  0  0  0  0  0  0  0
   -3.5490   -0.7780   -0.4960 C   0  0  0  0  0  0  0  0  0  0  0  0
   -4.3680   -1.6810   -0.7990 O   0  0  0  0  0  0  0  0  0  0  0  0
   -1.2590    0.1410   -0.0300 C   0  0  0  0  0  0  0  0  0  0  0  0
    0.1500    0.1950   -0.0660 C   0  0  0  0  0  0  0  0  0  0  0  0
    1.2130   -0.4590   -0.1980 C   0  0  0  0  0  0  0  0  0  0  0  0
    1.6000   -1.8260   -0.4230 C   0  0  0  0  0  0  0  0  0  0  0  0
    2.5170    0.4550   -0.0810 C   0  0  0  0  0  0  0  0  0  0  0  0
    3.2370   -0.1360    1.0780 C   0  0  0  0  0  0  0  0  0  0  0  0
    4.5210    0.5450    1.4130 C   0  0  0  0  0  0  0  0  0  0  0  0
    5.5020    0.5030    0.2600 C   0  0  0  0  0  0  0  0  0  0  0  0
    6.7810    1.1990    0.6400 C   0  0  0  0  0  0  0  0  0  0  0  0
   -1.9270    1.3310    0.0950 C   0  0  0  0  0  0  0  0  0  0  0  0
   -1.2900    2.6050    0.2380 C   0  0  0  0  0  0  0  0  0  0  0  0
   -2.1250    3.6640    0.3470 C   0  0  0  0  0  0  0  0  0  0  0  0
   -1.5860    5.0280    0.4990 C   0  0  1  0  0  0  0  0  0  0  0  0
   -0.0940    5.0370    0.6060 C   0  0  0  0  0  0  0  0  0  0  0  0
    0.3350    6.4560    0.7950 C   0  0  0  0  0  0  0  0  0  0  0  0
   -0.1230    7.3310   -0.1010 C   0  0  0  0  0  0  0  0  0  0  0  0
   -1.0010    6.8060   -1.1800 C   0  0  0  0  0  0  0  0  0  0  0  0
   -2.0630    5.8750   -0.6590 C   0  0  0  0  0  0  0  0  0  0  0  0
   -2.1370   -4.4850    0.6600 C   0  0  0  0  0  0  0  0  0  0  0  0
   -1.4550   -5.6010    0.7300 C   0  0  0  0  0  0  0  0  0  0  0  0
   -1.6690   -6.1980    2.0820 C   0  0  0  0  0  0  0  0  0  0  0  0
   -2.5600   -5.2630    2.7730 C   0  0  0  0  0  0  0  0  0  0  0  0
   -2.8260   -4.2820    1.9490 C   0  0  0  0  0  0  0  0  0  0  0  0
  1  2  1  0
  2  3  2  3
  4  3  1  6
  4  5  1  0
  4 27  1  0
  5  6  2  3
  6  7  1  0
  6  9  1  0
  7  8  2  0
  9 10  1  0
  9 18  2  3
 10 11  2  3
 11 12  1  0
 11 13  1  0
 13 14  1  0
 14 15  1  0
 15 16  1  0
 16 17  1  0
 18 19  1  0
 19 20  2  3
 21 20  1  6
 21 22  1  0
 21 26  1  0
 22 23  1  0
 23 24  2  0
 24 25  1  0
 25 26  1  0
 27 28  2  0
 27 31  1  0
 28 29  1  0
 29 30  1  0
 30 31  2  0
M  END
