
     RDKit          3D

 31 32  0  0  0  0  0  0  0  0999 V2000
   -4.6630    2.3790   -1.1730 C   0  0  0  0  0  0  0  0  0  0  0  0
   -4.4380    2.0120    0.0320 C   0  0  0  0  0  0  0  0  0  0  0  0
   -3.9190    0.7310    0.4760 C   0  0  0  0  0  0  0  0  0  0  0  0
   -3.8560    0.6260    1.8270 C   0  0  0  0  0  0  0  0  0  0  0  0
   -3.4190   -0.4570    2.6590 C   0  0  0  0  0  0  0  0  0  0  0  0
   -3.4310   -0.3610   -0.4160 C   0  0  2  0  0  0  0  0  0  0  0  0
   -2.0860   -0.1160   -1.0580 C   0  0  2  0  0  0  0  0  0  0  0  0
   -1.9220    1.0630   -1.9450 C   0  0  0  0  0  0  0  0  0  0  0  0
   -1.8370   -1.3590   -1.9020 C   0  0  0  0  0  0  0  0  0  0  0  0
   -1.1200    0.0520    0.0830 C   0  0  0  0  0  0  0  0  0  0  0  0
    0.2900    0.3720   -0.1330 C   0  0  2  0  0  0  0  0  0  0  0  0
    1.0450   -0.6280   -0.9010 C   0  0  0  0  0  0  0  0  0  0  0  0
    2.4790   -0.5050   -1.1420 C   0  0  0  0  0  0  0  0  0  0  0  0
    2.9050   -0.1250   -2.3740 C   0  0  0  0  0  0  0  0  0  0  0  0
    4.3670   -0.0690   -2.4420 C   0  0  2  0  0  0  0  0  0  0  0  0
    4.7900   -1.0700   -3.5250 C   0  0  0  0  0  0  0  0  0  0  0  0
    4.7750   -0.5460   -1.1350 C   0  0  0  0  0  0  0  0  0  0  0  0
    6.2030   -0.7270   -0.7050 C   0  0  0  0  0  0  0  0  0  0  0  0
    3.6690   -0.7900   -0.3760 C   0  0  0  0  0  0  0  0  0  0  0  0
    3.8280   -1.4700    0.9160 C   0  0  2  0  0  0  0  0  0  0  0  0
    2.9600   -2.7780    0.8820 C   0  0  0  0  0  0  0  0  0  0  0  0
    3.6020   -0.7700    2.1910 C   0  0  0  0  0  0  0  0  0  0  0  0
    0.9780    0.8460    1.0810 C   0  0  0  0  0  0  0  0  0  0  0  0
    0.5120    2.0850    1.7570 C   0  0  2  0  0  0  0  0  0  0  0  0
    0.5270    3.3150    0.8770 C   0  0  0  0  0  0  0  0  0  0  0  0
    1.6860    2.3800    2.7670 C   0  0  0  0  0  0  0  0  0  0  0  0
   -0.7000    2.0560    2.5840 C   0  0  0  0  0  0  0  0  0  0  0  0
   -4.5130   -0.7290   -1.4050 C   0  0  0  0  0  0  0  0  0  0  0  0
   -4.9360   -2.1120   -1.0520 C   0  0  0  0  0  0  0  0  0  0  0  0
   -3.9880   -2.5170    0.0190 C   0  0  0  0  0  0  0  0  0  0  0  0
   -3.2340   -1.4610    0.4160 O   0  0  0  0  0  0  0  0  0  0  0  0
  1  2  2  0
  2  3  1  0
  3  4  2  3
  6  3  1  1
  4  5  1  0
  6  7  1  0
  6 28  1  0
  6 31  1  0
  7  8  1  6
  7  9  1  0
  7 10  1  0
 11 10  1  1
 11 12  1  0
 11 23  1  0
 12 13  1  0
 13 14  2  0
 13 19  1  0
 14 15  1  0
 15 16  1  6
 15 17  1  0
 17 18  1  0
 17 19  2  0
 19 20  1  0
 20 21  1  6
 20 22  1  0
 23 24  1  0
 24 25  1  6
 24 26  1  0
 24 27  1  0
 28 29  1  0
 29 30  1  0
 30 31  1  0
M  END
