
     RDKit          3D

 31 34  0  0  0  0  0  0  0  0999 V2000
   -3.2200   -4.3170    0.8270 C   0  0  0  0  0  0  0  0  0  0  0  0
   -2.0940   -3.3500    0.8260 C   0  0  0  0  0  0  0  0  0  0  0  0
   -1.5610   -3.2100    1.9940 O   0  0  0  0  0  0  0  0  0  0  0  0
   -1.6110   -2.6350   -0.2850 N   0  0  0  0  0  0  0  0  0  0  0  0
   -0.4150   -1.8380   -0.1100 C   0  0  0  0  0  0  0  0  0  0  0  0
    0.5640   -2.2310    0.7690 C   0  0  0  0  0  0  0  0  0  0  0  0
    1.7040   -1.4320    0.9380 C   0  0  0  0  0  0  0  0  0  0  0  0
    1.7850   -0.2780    0.2030 C   0  0  0  0  0  0  0  0  0  0  0  0
    2.9900    0.5420    0.4030 C   0  0  0  0  0  0  0  0  0  0  0  0
    3.6130    0.5720    1.6360 C   0  0  0  0  0  0  0  0  0  0  0  0
    4.7310    1.3180    1.8660 C   0  0  0  0  0  0  0  0  0  0  0  0
    5.2650    2.0660    0.8530 C   0  0  0  0  0  0  0  0  0  0  0  0
    6.4640    2.8870    1.0480 C   0  0  0  0  0  0  0  0  0  0  0  0
    6.9890    3.5770    0.1660 O   0  0  0  0  0  0  0  0  0  0  0  0
    7.0450    2.8820    2.3230 O   0  0  0  0  0  0  0  0  0  0  0  0
    4.6530    2.0450   -0.3870 C   0  0  0  0  0  0  0  0  0  0  0  0
    3.5320    1.2920   -0.6010 C   0  0  0  0  0  0  0  0  0  0  0  0
    0.7970    0.1320   -0.6940 C   0  0  0  0  0  0  0  0  0  0  0  0
   -0.3100   -0.6610   -0.8470 C   0  0  0  0  0  0  0  0  0  0  0  0
   -1.3550   -0.2410   -1.8120 C   0  0  2  0  0  0  0  0  0  0  0  0
   -1.5910    1.1750   -1.8130 N   0  0  0  0  0  0  0  0  0  0  0  0
   -1.9820    1.9660   -0.7200 C   0  0  0  0  0  0  0  0  0  0  0  0
   -2.1500    1.4210    0.5280 C   0  0  0  0  0  0  0  0  0  0  0  0
   -2.5420    2.2070    1.6170 C   0  0  0  0  0  0  0  0  0  0  0  0
   -2.7640    3.5570    1.4320 C   0  0  0  0  0  0  0  0  0  0  0  0
   -3.2590    4.5900    2.7710 Cl  0  0  0  0  0  0  0  0  0  0  0  0
   -2.6020    4.1180    0.1930 C   0  0  0  0  0  0  0  0  0  0  0  0
   -2.2100    3.3110   -0.8780 C   0  0  0  0  0  0  0  0  0  0  0  0
   -2.6170   -1.0730   -1.7260 C   0  0  0  0  0  0  0  0  0  0  0  0
   -2.1770   -2.5320   -1.5990 C   0  0  2  0  0  0  0  0  0  0  0  0
   -3.2410   -3.4810   -1.9830 C   0  0  0  0  0  0  0  0  0  0  0  0
  1  2  1  0
  2  3  2  0
  2  4  1  0
  4  5  1  0
  4 30  1  0
  5  6  2  0
  5 19  1  0
  6  7  1  0
  7  8  2  0
  8  9  1  0
  8 18  1  0
  9 10  2  0
  9 17  1  0
 10 11  1  0
 11 12  2  0
 12 13  1  0
 12 16  1  0
 13 14  2  0
 13 15  1  0
 16 17  2  0
 18 19  2  0
 19 20  1  0
 20 21  1  1
 20 29  1  0
 21 22  1  0
 22 23  2  0
 22 28  1  0
 23 24  1  0
 24 25  2  0
 25 26  1  0
 25 27  1  0
 27 28  2  0
 29 30  1  0
 30 31  1  1
M  END
