
     RDKit          3D

 28 29  0  0  0  0  0  0  0  0999 V2000
   -1.8310   -1.6200   -2.1550 C   0  0  0  0  0  0  0  0  0  0  0  0
   -2.1450   -0.5300   -1.5000 C   0  0  0  0  0  0  0  0  0  0  0  0
   -3.5450    0.5720   -1.8670 S   0  0  0  0  0  0  0  0  0  0  0  0
   -2.8630    1.9440   -0.8830 C   0  0  1  0  0  0  0  0  0  0  0  0
   -2.2650    2.8990   -1.6970 O   0  0  0  0  0  0  0  0  0  0  0  0
   -3.9900    2.5310   -0.0630 C   0  0  1  0  0  0  0  0  0  0  0  0
   -3.4490    3.4500    0.8330 O   0  0  0  0  0  0  0  0  0  0  0  0
   -4.9200    3.1870   -0.8300 O   0  0  0  0  0  0  0  0  0  0  0  0
   -4.7050    1.4610    0.7270 C   0  0  0  0  0  0  0  0  0  0  0  0
   -5.7120    2.0830    1.4700 O   0  0  0  0  0  0  0  0  0  0  0  0
   -1.8900    1.2760   -0.0900 N   0  0  0  0  0  0  0  0  0  0  0  0
   -1.5350    0.1190   -0.3540 C   0  0  0  0  0  0  0  0  0  0  0  0
   -0.5000   -0.6480    0.4540 C   0  0  1  0  0  0  0  0  0  0  0  0
    0.0250    0.1610    1.5900 C   0  0  0  0  0  0  0  0  0  0  0  0
   -0.9790   -1.9180    0.8170 O   0  0  0  0  0  0  0  0  0  0  0  0
    0.1060   -2.8180    0.7500 C   0  0  0  0  0  0  0  0  0  0  0  0
    0.2070   -4.0730    1.3260 O   0  0  0  0  0  0  0  0  0  0  0  0
    0.8790   -5.1340    0.6600 C   0  0  0  0  0  0  0  0  0  0  0  0
    1.0560   -2.2920    0.0370 N   0  0  0  0  0  0  0  0  0  0  0  0
    0.6340   -1.0250   -0.3920 N   0  0  0  0  0  0  0  0  0  0  0  0
    1.1160   -0.2510   -1.3710 O   0  0  0  0  0  0  0  0  0  0  0  0
    2.6670   -0.7670   -1.8830 S   0  0  0  0  0  0  0  0  0  0  0  0
    3.8690   -0.6420   -0.6120 N   0  0  0  0  0  0  0  0  0  0  0  0
    3.4520   -1.2260    0.5090 F   0  0  0  0  0  0  0  0  0  0  0  0
    4.2410    0.7490   -0.3540 C   0  0  2  0  0  0  0  0  0  0  0  0
    4.8170    1.3850   -1.5910 C   0  0  0  0  0  0  0  0  0  0  0  0
    5.3150    0.7470    0.7110 C   0  0  0  0  0  0  0  0  0  0  0  0
    3.1680    1.4990    0.0670 F   0  0  0  0  0  0  0  0  0  0  0  0
  1  2  2  0
  2  3  1  0
  2 12  1  0
  3  4  1  0
  4  5  1  6
  4  6  1  0
  4 11  1  0
  6  7  1  1
  6  8  1  0
  6  9  1  0
  9 10  1  0
 11 12  2  0
 12 13  1  0
 13 14  1  1
 13 15  1  0
 13 20  1  0
 15 16  1  0
 16 17  1  0
 16 19  2  0
 17 18  1  0
 19 20  1  0
 20 21  1  0
 21 22  1  0
 22 23  1  0
 23 24  1  0
 23 25  1  0
 25 26  1  6
 25 27  1  0
 25 28  1  0
M  CHG  1   5  -1
M  END
