
     RDKit          3D

 39 43  0  0  0  0  0  0  0  0999 V2000
    9.6160    2.9320    1.3220 C   0  0  0  0  0  0  0  0  0  0  0  0
   10.0540    1.6390    0.6770 C   0  0  0  0  0  0  0  0  0  0  0  0
    9.1040    1.3420   -0.4790 C   0  0  2  0  0  0  0  0  0  0  0  0
    7.7070    1.2050   -0.0250 C   0  0  0  0  0  0  0  0  0  0  0  0
    7.2370   -0.0230   -0.2530 C   0  0  0  0  0  0  0  0  0  0  0  0
    5.8940   -0.5170    0.0710 C   0  0  0  0  0  0  0  0  0  0  0  0
    5.5980   -1.7350   -0.1840 O   0  0  0  0  0  0  0  0  0  0  0  0
    4.9430    0.3480    0.6600 N   0  0  0  0  0  0  0  0  0  0  0  0
    3.6720   -0.0010    1.0020 N   0  0  0  0  0  0  0  0  0  0  0  0
    2.7250   -0.4290    0.1910 C   0  0  0  0  0  0  0  0  0  0  0  0
    1.4260   -0.7460    0.7830 C   0  0  0  0  0  0  0  0  0  0  0  0
    0.5660   -1.5450   -0.1210 C   0  0  0  0  0  0  0  0  0  0  0  0
    0.7570   -1.7390   -1.4020 C   0  0  0  0  0  0  0  0  0  0  0  0
   -0.1160   -2.5310   -2.3040 C   0  0  0  0  0  0  0  0  0  0  0  0
   -1.5130   -2.6750   -1.8160 C   0  0  0  0  0  0  0  0  0  0  0  0
   -1.7790   -2.1660   -0.4500 C   0  0  2  0  0  0  0  0  0  0  0  0
   -2.8460   -3.1160    0.1550 C   0  0  0  0  0  0  0  0  0  0  0  0
   -2.4260   -0.8120   -0.4180 C   0  0  0  0  0  0  0  0  0  0  0  0
   -2.0870    0.1590   -1.3290 C   0  0  0  0  0  0  0  0  0  0  0  0
   -2.7090    1.4110   -1.2580 C   0  0  0  0  0  0  0  0  0  0  0  0
   -3.6460    1.6520   -0.2890 C   0  0  0  0  0  0  0  0  0  0  0  0
   -4.0040    0.6660    0.6480 C   0  0  0  0  0  0  0  0  0  0  0  0
   -4.9710    1.0120    1.5930 O   0  0  0  0  0  0  0  0  0  0  0  0
   -6.3330    1.0860    1.2890 C   0  0  0  0  0  0  0  0  0  0  0  0
   -6.9960    2.3170    1.4230 C   0  0  0  0  0  0  0  0  0  0  0  0
   -8.3350    2.4650    1.1410 C   0  0  0  0  0  0  0  0  0  0  0  0
   -9.0240    3.7770    1.2740 C   0  0  0  0  0  0  0  0  0  0  0  0
   -9.0830    1.3900    0.7110 C   0  0  0  0  0  0  0  0  0  0  0  0
   -8.4390    0.1890    0.5800 C   0  0  0  0  0  0  0  0  0  0  0  0
   -7.0830    0.0380    0.8640 C   0  0  0  0  0  0  0  0  0  0  0  0
   -6.5280   -1.3110    0.6790 C   0  0  0  0  0  0  0  0  0  0  0  0
   -3.3880   -0.5540    0.5730 C   0  0  0  0  0  0  0  0  0  0  0  0
   -0.6370   -2.2310    0.4930 C   0  0  0  0  0  0  0  0  0  0  0  0
    1.9970   -1.2440   -2.0010 C   0  0  0  0  0  0  0  0  0  0  0  0
    2.2520   -1.3780   -3.2300 O   0  0  0  0  0  0  0  0  0  0  0  0
    2.9570   -0.5890   -1.1870 N   0  0  0  0  0  0  0  0  0  0  0  0
    8.2940   -0.7750   -0.9130 C   0  0  0  0  0  0  0  0  0  0  0  0
    8.1600   -1.9840   -1.2600 O   0  0  0  0  0  0  0  0  0  0  0  0
    9.4270    0.0650   -1.0770 N   0  0  0  0  0  0  0  0  0  0  0  0
  1  2  1  0
  3  2  1  1
  3  4  1  0
  3 39  1  0
  4  5  2  0
  5  6  1  0
  5 37  1  0
  6  7  2  0
  6  8  1  0
  8  9  1  0
  9 10  2  3
 10 11  1  0
 10 36  1  0
 11 12  1  0
 12 13  2  0
 12 33  1  0
 13 14  1  0
 13 34  1  0
 14 15  1  0
 15 16  1  0
 16 17  1  1
 16 18  1  0
 16 33  1  0
 18 19  2  0
 18 32  1  0
 19 20  1  0
 20 21  2  0
 21 22  1  0
 22 23  1  0
 22 32  2  0
 23 24  1  0
 24 25  2  0
 24 30  1  0
 25 26  1  0
 26 27  1  0
 26 28  2  0
 28 29  1  0
 29 30  2  0
 30 31  1  0
 34 35  2  0
 34 36  1  0
 37 38  2  0
 37 39  1  0
M  END
