
     RDKit          3D

 39 42  0  0  0  0  0  0  0  0999 V2000
   11.1490    1.4460   -0.6950 C   0  0  0  0  0  0  0  0  0  0  0  0
   10.0810    1.7290   -2.1510 S   0  0  0  0  0  0  0  0  0  0  0  0
    8.9350    0.3710   -2.2300 C   0  0  0  0  0  0  0  0  0  0  0  0
    9.2630   -0.7270   -2.9160 N   0  0  0  0  0  0  0  0  0  0  0  0
    8.3920   -1.7670   -2.9820 C   0  0  0  0  0  0  0  0  0  0  0  0
    7.1520   -1.6980   -2.3380 C   0  0  0  0  0  0  0  0  0  0  0  0
    6.3020   -2.7520   -2.4220 F   0  0  0  0  0  0  0  0  0  0  0  0
    6.7970   -0.5740   -1.6260 C   0  0  0  0  0  0  0  0  0  0  0  0
    5.5410   -0.5070   -0.9760 N   0  0  0  0  0  0  0  0  0  0  0  0
    5.3130   -0.9440    0.3460 C   0  0  0  0  0  0  0  0  0  0  0  0
    6.2970   -1.4180    0.9660 O   0  0  0  0  0  0  0  0  0  0  0  0
    4.0310   -0.8800    1.0220 C   0  0  0  0  0  0  0  0  0  0  0  0
    3.9100   -1.3970    2.2910 C   0  0  0  0  0  0  0  0  0  0  0  0
    2.7270   -1.3750    3.0000 C   0  0  0  0  0  0  0  0  0  0  0  0
    1.6280   -0.8090    2.3980 C   0  0  0  0  0  0  0  0  0  0  0  0
    1.6910   -0.2790    1.1360 C   0  0  0  0  0  0  0  0  0  0  0  0
    0.5130    0.3200    0.5090 C   0  0  0  0  0  0  0  0  0  0  0  0
    0.5370    0.8150   -0.6320 O   0  0  0  0  0  0  0  0  0  0  0  0
   -0.6700    0.3370    1.2080 O   0  0  0  0  0  0  0  0  0  0  0  0
   -1.8850    0.8960    0.6990 C   0  0  1  0  0  0  0  0  0  0  0  0
   -2.9660   -0.1280    0.5990 C   0  0  0  0  0  0  0  0  0  0  0  0
   -4.1700    0.2670    1.3440 N   0  0  1  0  0  0  0  0  0  0  0  0
   -5.2350   -0.6510    1.1280 C   0  0  0  0  0  0  0  0  0  0  0  0
   -6.2350   -0.1330    0.1530 C   0  0  0  0  0  0  0  0  0  0  0  0
   -6.4150    1.1520   -0.2960 C   0  0  0  0  0  0  0  0  0  0  0  0
   -7.4640    1.1050   -1.1850 C   0  0  0  0  0  0  0  0  0  0  0  0
   -7.8960   -0.2030   -1.2560 C   0  0  0  0  0  0  0  0  0  0  0  0
   -9.0270   -0.7200   -2.1080 C   0  0  0  0  0  0  0  0  0  0  0  0
  -10.2760   -0.6740   -1.3280 C   0  0  0  0  0  0  0  0  0  0  0  0
  -11.4690   -1.1250   -1.9590 N   0  0  0  0  0  0  0  0  0  0  0  0
  -10.2510   -0.2470   -0.1510 O   0  0  0  0  0  0  0  0  0  0  0  0
   -7.1390   -0.8920   -0.4490 O   0  0  0  0  0  0  0  0  0  0  0  0
   -3.8390    0.4260    2.7550 C   0  0  0  0  0  0  0  0  0  0  0  0
   -3.0050    1.6200    2.8120 N   0  0  0  0  0  0  0  0  0  0  0  0
   -2.2780    1.9470    1.6510 C   0  0  0  0  0  0  0  0  0  0  0  0
   -1.9660    3.1350    1.4300 O   0  0  0  0  0  0  0  0  0  0  0  0
    2.9080   -0.3200    0.4500 C   0  0  0  0  0  0  0  0  0  0  0  0
    7.7140    0.4550   -1.5880 C   0  0  0  0  0  0  0  0  0  0  0  0
    7.3820    1.6120   -0.8730 N   0  0  0  0  0  0  0  0  0  0  0  0
  1  2  1  0
  2  3  1  0
  3  4  2  0
  3 38  1  0
  4  5  1  0
  5  6  2  0
  6  7  1  0
  6  8  1  0
  8  9  1  0
  8 38  2  0
  9 10  1  0
 10 11  2  0
 10 12  1  0
 12 13  2  0
 12 37  1  0
 13 14  1  0
 14 15  2  0
 15 16  1  0
 16 17  1  0
 16 37  2  0
 17 18  2  0
 17 19  1  0
 20 19  1  1
 20 21  1  0
 20 35  1  0
 21 22  1  0
 22 23  1  1
 22 33  1  0
 23 24  1  0
 24 25  2  0
 24 32  1  0
 25 26  1  0
 26 27  2  0
 27 28  1  0
 27 32  1  0
 28 29  1  0
 29 30  1  0
 29 31  2  0
 33 34  1  0
 34 35  1  0
 35 36  2  0
 38 39  1  0
M  CHG  1  22   1
M  END
