
     RDKit          3D

 38 42  0  0  0  0  0  0  0  0999 V2000
   -3.4230    4.4940   -0.5030 C   0  0  0  0  0  0  0  0  0  0  0  0
   -3.0740    3.1830   -1.0660 C   0  0  0  0  0  0  0  0  0  0  0  0
   -2.6590    3.1230   -2.2600 O   0  0  0  0  0  0  0  0  0  0  0  0
   -3.2100    1.9850   -0.2500 C   0  0  0  0  0  0  0  0  0  0  0  0
   -3.6650    2.1040    1.0410 C   0  0  0  0  0  0  0  0  0  0  0  0
   -3.7840    0.9530    1.7910 C   0  0  0  0  0  0  0  0  0  0  0  0
   -3.4570   -0.2840    1.2620 C   0  0  0  0  0  0  0  0  0  0  0  0
   -2.9960   -0.4080   -0.0420 C   0  0  0  0  0  0  0  0  0  0  0  0
   -2.6770   -1.7980   -0.5470 C   0  0  1  0  0  0  0  0  0  0  0  0
   -1.9160   -2.5150    0.5220 C   0  0  0  0  0  0  0  0  0  0  0  0
   -0.6080   -2.0570    0.9540 C   0  0  0  0  0  0  0  0  0  0  0  0
   -0.1370   -2.6960    2.0060 O   0  0  0  0  0  0  0  0  0  0  0  0
    0.2960   -1.0520    0.4860 C   0  0  0  0  0  0  0  0  0  0  0  0
    0.2060   -0.3880   -0.6960 C   0  0  0  0  0  0  0  0  0  0  0  0
    1.1060    0.6320   -1.0500 C   0  0  0  0  0  0  0  0  0  0  0  0
    2.1220    0.9920   -0.1980 C   0  0  0  0  0  0  0  0  0  0  0  0
    3.0950    2.0600   -0.5270 C   0  0  2  0  0  0  0  0  0  0  0  0
    4.4330    1.4910   -0.9540 C   0  0  0  0  0  0  0  0  0  0  0  0
    5.4170    2.3600   -0.2450 C   0  0  2  0  0  0  0  0  0  0  0  0
    6.7190    1.6560    0.0530 C   0  0  2  0  0  0  0  0  0  0  0  0
    7.3100    1.2260   -1.2910 C   0  0  0  0  0  0  0  0  0  0  0  0
    6.5320    0.4070    0.8580 C   0  0  0  0  0  0  0  0  0  0  0  0
    4.7070    2.8590    0.9720 C   0  0  0  0  0  0  0  0  0  0  0  0
    3.3280    2.9550    0.5600 N   0  0  0  0  0  0  0  0  0  0  0  0
    2.2350    0.3340    1.0020 C   0  0  0  0  0  0  0  0  0  0  0  0
    1.3580   -0.6540    1.3410 C   0  0  0  0  0  0  0  0  0  0  0  0
   -2.4360   -3.5680    1.1850 C   0  0  0  0  0  0  0  0  0  0  0  0
   -1.6670   -4.2880    2.2690 C   0  0  0  0  0  0  0  0  0  0  0  0
   -3.7180   -4.0680    0.8310 N   0  0  0  0  0  0  0  0  0  0  0  0
   -4.4580   -3.4930   -0.2020 C   0  0  0  0  0  0  0  0  0  0  0  0
   -5.6640   -4.0750   -0.4940 N   0  0  0  0  0  0  0  0  0  0  0  0
   -6.3700   -3.5580   -1.5170 C   0  0  0  0  0  0  0  0  0  0  0  0
   -7.4640   -4.0780   -1.7900 O   0  0  0  0  0  0  0  0  0  0  0  0
   -5.8960   -2.5190   -2.2090 N   0  0  0  0  0  0  0  0  0  0  0  0
   -4.7090   -1.9130   -1.9530 C   0  0  0  0  0  0  0  0  0  0  0  0
   -4.3260   -0.9570   -2.6300 O   0  0  0  0  0  0  0  0  0  0  0  0
   -3.9630   -2.4420   -0.8880 C   0  0  0  0  0  0  0  0  0  0  0  0
   -2.8820    0.7280   -0.7710 C   0  0  0  0  0  0  0  0  0  0  0  0
  1  2  1  0
  2  3  2  0
  2  4  1  0
  4  5  2  0
  4 38  1  0
  5  6  1  0
  6  7  2  0
  7  8  1  0
  9  8  1  1
  8 38  2  0
  9 10  1  0
  9 37  1  0
 10 11  1  0
 10 27  2  0
 11 12  2  0
 11 13  1  0
 13 14  2  0
 13 26  1  0
 14 15  1  0
 15 16  2  0
 17 16  1  1
 16 25  1  0
 17 18  1  0
 17 24  1  0
 19 18  1  1
 19 20  1  0
 19 23  1  0
 20 21  1  6
 20 22  1  0
 23 24  1  0
 25 26  2  0
 27 28  1  0
 27 29  1  0
 29 30  1  0
 30 31  1  0
 30 37  2  0
 31 32  1  0
 32 33  2  0
 32 34  1  0
 34 35  1  0
 35 36  2  0
 35 37  1  0
M  END
