
     RDKit          3D

 39 43  0  0  0  0  0  0  0  0999 V2000
    7.3310    2.5740   -0.9020 C   0  0  0  0  0  0  0  0  0  0  0  0
    6.8140    1.3750   -0.1900 C   0  0  0  0  0  0  0  0  0  0  0  0
    7.5710    0.4390   -0.0160 O   0  0  0  0  0  0  0  0  0  0  0  0
    5.4280    1.3030    0.2980 C   0  0  0  0  0  0  0  0  0  0  0  0
    5.1400   -0.0010    0.9860 C   0  0  2  0  0  0  0  0  0  0  0  0
    6.0830   -0.1290    2.1640 C   0  0  0  0  0  0  0  0  0  0  0  0
    5.3350   -1.1690    0.0500 C   0  0  0  0  0  0  0  0  0  0  0  0
    3.7230   -0.0210    1.5090 C   0  0  0  0  0  0  0  0  0  0  0  0
    3.5410   -0.2480    2.7350 O   0  0  0  0  0  0  0  0  0  0  0  0
    2.6320    0.2110    0.6410 N   0  0  0  0  0  0  0  0  0  0  0  0
    1.2900    0.2190    1.0430 C   0  0  0  0  0  0  0  0  0  0  0  0
    0.9240    0.7410    2.2750 C   0  0  0  0  0  0  0  0  0  0  0  0
   -0.4040    0.9500    2.5340 C   0  0  0  0  0  0  0  0  0  0  0  0
   -1.4000    0.6760    1.6410 C   0  0  0  0  0  0  0  0  0  0  0  0
   -1.0200    0.1510    0.4050 C   0  0  0  0  0  0  0  0  0  0  0  0
    0.3080   -0.0840    0.1110 C   0  0  0  0  0  0  0  0  0  0  0  0
    0.6100   -0.9010   -1.0620 C   0  0  0  0  0  0  0  0  0  0  0  0
   -0.4160   -1.3890   -1.7860 C   0  0  0  0  0  0  0  0  0  0  0  0
   -0.0350   -2.2060   -2.9710 C   0  0  0  0  0  0  0  0  0  0  0  0
   -0.6190   -2.1020   -4.0340 O   0  0  0  0  0  0  0  0  0  0  0  0
    1.0910   -3.1570   -2.7930 C   0  0  0  0  0  0  0  0  0  0  0  0
    1.8320   -2.8180   -1.5590 N   0  0  0  0  0  0  0  0  0  0  0  0
    1.8890   -1.3340   -1.5240 C   0  0  0  0  0  0  0  0  0  0  0  0
   -1.8430   -1.2220   -1.4450 C   0  0  1  0  0  0  0  0  0  0  0  0
   -2.4310   -2.4430   -0.8410 C   0  0  0  0  0  0  0  0  0  0  0  0
   -3.4230   -3.1400   -1.4950 C   0  0  0  0  0  0  0  0  0  0  0  0
   -4.0000   -4.2800   -0.9770 C   0  0  0  0  0  0  0  0  0  0  0  0
   -3.5800   -4.7610    0.2490 C   0  0  0  0  0  0  0  0  0  0  0  0
   -2.5820   -4.0390    0.8830 C   0  0  0  0  0  0  0  0  0  0  0  0
   -2.0380   -2.9260    0.3470 N   0  0  0  0  0  0  0  0  0  0  0  0
   -2.0200   -0.0050   -0.6590 C   0  0  1  0  0  0  0  0  0  0  0  0
   -3.4110    0.3030   -0.2670 C   0  0  0  0  0  0  0  0  0  0  0  0
   -4.2920   -0.5950   -0.2540 O   0  0  0  0  0  0  0  0  0  0  0  0
   -3.7570    1.6090    0.0920 N   0  0  0  0  0  0  0  0  0  0  0  0
   -5.1150    2.0050    0.4930 C   0  0  1  0  0  0  0  0  0  0  0  0
   -5.1210    2.7610    1.7790 C   0  0  0  0  0  0  0  0  0  0  0  0
   -6.2140    3.7870    1.6370 C   0  0  0  0  0  0  0  0  0  0  0  0
   -6.3460    4.0760    0.1660 C   0  0  0  0  0  0  0  0  0  0  0  0
   -5.6060    2.9930   -0.5440 C   0  0  0  0  0  0  0  0  0  0  0  0
  1  2  1  0
  2  3  2  0
  2  4  1  0
  4  5  1  0
  5  6  1  1
  5  7  1  0
  5  8  1  0
  8  9  2  0
  8 10  1  0
 10 11  1  0
 11 12  2  0
 11 16  1  0
 12 13  1  0
 13 14  2  0
 14 15  1  0
 15 16  2  0
 15 31  1  0
 16 17  1  0
 17 18  2  0
 17 23  1  0
 18 19  1  0
 18 24  1  0
 19 20  2  0
 19 21  1  0
 21 22  1  0
 22 23  1  0
 24 25  1  1
 24 31  1  0
 25 26  2  0
 25 30  1  0
 26 27  1  0
 27 28  2  0
 28 29  1  0
 29 30  2  0
 31 32  1  1
 32 33  2  0
 32 34  1  0
 35 34  1  6
 35 36  1  0
 35 39  1  0
 36 37  1  0
 37 38  1  0
 38 39  1  0
M  END
