
     RDKit          3D

 39 43  0  0  0  0  0  0  0  0999 V2000
   -2.4870   -1.1180    4.7400 C   0  0  0  0  0  0  0  0  0  0  0  0
   -2.8660   -1.0570    3.2940 C   0  0  0  0  0  0  0  0  0  0  0  0
   -3.8060   -1.8520    2.7180 C   0  0  0  0  0  0  0  0  0  0  0  0
   -4.1330   -1.7800    1.3780 C   0  0  0  0  0  0  0  0  0  0  0  0
   -3.5000   -0.8820    0.5760 C   0  0  0  0  0  0  0  0  0  0  0  0
   -3.7170   -0.7040   -0.7510 O   0  0  0  0  0  0  0  0  0  0  0  0
   -4.6060   -1.3260   -1.6020 C   0  0  0  0  0  0  0  0  0  0  0  0
   -6.0530   -1.1040   -1.3040 C   0  0  1  0  0  0  0  0  0  0  0  0
   -6.4230    0.3690   -1.3770 C   0  0  0  0  0  0  0  0  0  0  0  0
   -7.8550    0.3950   -1.8250 C   0  0  0  0  0  0  0  0  0  0  0  0
   -8.2450   -1.0540   -2.1000 C   0  0  0  0  0  0  0  0  0  0  0  0
   -6.8840   -1.6620   -2.4680 C   0  0  0  0  0  0  0  0  0  0  0  0
   -2.5230   -0.0460    1.1450 C   0  0  0  0  0  0  0  0  0  0  0  0
   -1.8420    0.8740    0.3130 N   0  0  0  0  0  0  0  0  0  0  0  0
   -1.0380    1.9650    0.6970 C   0  0  0  0  0  0  0  0  0  0  0  0
   -0.8940    2.2000    1.9270 O   0  0  0  0  0  0  0  0  0  0  0  0
   -0.3510    2.8670   -0.2260 C   0  0  0  0  0  0  0  0  0  0  0  0
   -1.0510    4.0690   -0.5070 C   0  0  0  0  0  0  0  0  0  0  0  0
   -0.5130    4.9690   -1.4150 C   0  0  0  0  0  0  0  0  0  0  0  0
    0.6740    4.7310   -2.0440 C   0  0  0  0  0  0  0  0  0  0  0  0
    1.3440    3.5780   -1.7710 C   0  0  0  0  0  0  0  0  0  0  0  0
    0.8300    2.6200   -0.8450 C   0  0  0  0  0  0  0  0  0  0  0  0
    1.6250    1.4400   -0.5980 C   0  0  0  0  0  0  0  0  0  0  0  0
    1.4920    0.3960    0.1370 C   0  0  0  0  0  0  0  0  0  0  0  0
    2.3710   -0.7420    0.3130 C   0  0  0  0  0  0  0  0  0  0  0  0
    1.8480   -1.6980    1.0860 O   0  0  0  0  0  0  0  0  0  0  0  0
    3.6490   -1.0310   -0.1650 N   0  0  0  0  0  0  0  0  0  0  0  0
    4.1620   -2.3980    0.0300 C   0  0  0  0  0  0  0  0  0  0  0  0
    5.4480   -2.4710    0.7570 C   0  0  0  0  0  0  0  0  0  0  0  0
    6.2370   -1.1970    0.7480 C   0  0  1  0  0  0  0  0  0  0  0  0
    7.7250   -1.5860    0.7440 C   0  0  0  0  0  0  0  0  0  0  0  0
    8.5210   -0.3340    0.8030 C   0  0  0  0  0  0  0  0  0  0  0  0
    9.7300   -0.3910    1.2410 N   0  0  0  0  0  0  0  0  0  0  0  0
    7.9120    0.8990    0.3690 N   0  0  0  0  0  0  0  0  0  0  0  0
    6.7170    0.8910   -0.3790 C   0  0  0  0  0  0  0  0  0  0  0  0
    6.2890    1.9590   -0.8680 O   0  0  0  0  0  0  0  0  0  0  0  0
    6.0190   -0.4320   -0.5390 C   0  0  2  0  0  0  0  0  0  0  0  0
    4.5380   -0.0930   -0.7550 C   0  0  0  0  0  0  0  0  0  0  0  0
   -2.2170   -0.1380    2.4800 C   0  0  0  0  0  0  0  0  0  0  0  0
  1  2  1  0
  2  3  2  0
  2 39  1  0
  3  4  1  0
  4  5  2  0
  5  6  1  0
  5 13  1  0
  6  7  1  0
  8  7  1  6
  8  9  1  0
  8 12  1  0
  9 10  1  0
 10 11  1  0
 11 12  1  0
 13 14  1  0
 13 39  2  0
 14 15  1  0
 15 16  2  0
 15 17  1  0
 17 18  2  0
 17 22  1  0
 18 19  1  0
 19 20  2  0
 20 21  1  0
 21 22  2  0
 22 23  1  0
 23 24  2  3
 24 25  1  0
 25 26  2  0
 25 27  1  0
 27 28  1  0
 27 38  1  0
 28 29  1  0
 30 29  1  6
 30 31  1  0
 30 37  1  0
 31 32  1  0
 32 33  2  0
 32 34  1  0
 34 35  1  0
 35 36  2  0
 35 37  1  0
 37 38  1  1
M  END
