
     RDKit          3D

 39 43  0  0  0  0  0  0  0  0999 V2000
    2.3670   -2.2750    1.5820 C   0  0  0  0  0  0  0  0  0  0  0  0
    2.0250   -0.8440    1.8780 C   0  0  2  0  0  0  0  0  0  0  0  0
    1.1770   -0.3110    0.7990 C   0  0  0  0  0  0  0  0  0  0  0  0
    1.5600    0.6590    0.1120 O   0  0  0  0  0  0  0  0  0  0  0  0
   -0.1030   -0.9110    0.5350 N   0  0  0  0  0  0  0  0  0  0  0  0
   -0.9370   -0.3790   -0.5280 C   0  0  2  0  0  0  0  0  0  0  0  0
   -2.2140    0.0580    0.0850 C   0  0  0  0  0  0  0  0  0  0  0  0
   -2.8410   -0.7820    0.9640 C   0  0  0  0  0  0  0  0  0  0  0  0
   -4.0250   -0.4660    1.5840 C   0  0  0  0  0  0  0  0  0  0  0  0
   -4.6620    0.7620    1.3380 C   0  0  0  0  0  0  0  0  0  0  0  0
   -5.9000    0.9840    2.0250 C   0  0  0  0  0  0  0  0  0  0  0  0
   -6.3330   -0.0120    2.7700 O   0  0  0  0  0  0  0  0  0  0  0  0
   -6.7800    2.1410    2.0430 C   0  0  0  0  0  0  0  0  0  0  0  0
   -6.6980    3.3060    1.4590 C   0  0  0  0  0  0  0  0  0  0  0  0
   -7.8870    4.1830    1.7960 C   0  0  0  0  0  0  0  0  0  0  0  0
   -8.6640    3.3190    2.6740 C   0  0  0  0  0  0  0  0  0  0  0  0
   -8.0530    2.1700    2.8200 C   0  0  0  0  0  0  0  0  0  0  0  0
   -4.0300    1.5990    0.4560 C   0  0  0  0  0  0  0  0  0  0  0  0
   -2.8170    1.2600   -0.1700 C   0  0  0  0  0  0  0  0  0  0  0  0
   -1.2670   -1.4920   -1.4730 C   0  0  1  0  0  0  0  0  0  0  0  0
   -2.1450   -1.0250   -2.6210 C   0  0  0  0  0  0  0  0  0  0  0  0
   -2.7910   -2.2960   -3.1820 C   0  0  0  0  0  0  0  0  0  0  0  0
   -1.7680   -3.2880   -3.6190 C   0  0  0  0  0  0  0  0  0  0  0  0
   -0.6410   -3.5070   -2.6670 C   0  0  0  0  0  0  0  0  0  0  0  0
   -0.1040   -2.1960   -2.0790 C   0  0  0  0  0  0  0  0  0  0  0  0
    3.3050   -0.0790    1.8260 N   0  0  0  0  0  0  0  0  0  0  0  0
    3.6880    0.7010    2.9470 C   0  0  0  0  0  0  0  0  0  0  0  0
    4.0200   -0.2280    0.6410 C   0  0  0  0  0  0  0  0  0  0  0  0
    3.4920   -1.0350   -0.2640 O   0  0  0  0  0  0  0  0  0  0  0  0
    5.2690    0.3590    0.2210 C   0  0  0  0  0  0  0  0  0  0  0  0
    5.9920    1.2800    0.9410 C   0  0  0  0  0  0  0  0  0  0  0  0
    7.2050    1.8170    0.5170 C   0  0  0  0  0  0  0  0  0  0  0  0
    7.7120    1.4150   -0.6780 C   0  0  0  0  0  0  0  0  0  0  0  0
    8.8470    1.7690   -1.3160 N   0  0  0  0  0  0  0  0  0  0  0  0
    8.8610    1.0730   -2.4610 C   0  0  0  0  0  0  0  0  0  0  0  0
    9.7720    1.1480   -3.3130 O   0  0  0  0  0  0  0  0  0  0  0  0
    7.7560    0.2980   -2.5380 N   0  0  0  0  0  0  0  0  0  0  0  0
    7.0160    0.5030   -1.4140 C   0  0  0  0  0  0  0  0  0  0  0  0
    5.8230   -0.0330   -1.0080 C   0  0  0  0  0  0  0  0  0  0  0  0
  2  1  1  6
  2  3  1  0
  2 26  1  0
  3  4  2  0
  3  5  1  0
  6  5  1  1
  6  7  1  0
  6 20  1  0
  7  8  2  0
  7 19  1  0
  8  9  1  0
  9 10  2  0
 10 11  1  0
 10 18  1  0
 11 12  2  0
 11 13  1  0
 13 14  2  0
 13 17  1  0
 14 15  1  0
 15 16  1  0
 16 17  2  0
 18 19  2  0
 20 21  1  6
 20 25  1  0
 21 22  1  0
 22 23  1  0
 23 24  1  0
 24 25  1  0
 26 27  1  0
 26 28  1  0
 28 29  2  0
 28 30  1  0
 30 31  2  0
 30 39  1  0
 31 32  1  0
 32 33  2  0
 33 34  1  0
 33 38  1  0
 34 35  1  0
 35 36  2  0
 35 37  1  0
 37 38  1  0
 38 39  2  0
M  END
