
     RDKit          3D

 39 42  0  0  0  0  0  0  0  0999 V2000
   -4.1940   -2.4310    0.7080 N   0  0  0  0  0  0  0  0  0  0  0  0
   -3.0000   -2.5520   -0.0710 C   0  0  2  0  0  0  0  0  0  0  0  0
   -2.6010   -1.2340   -0.7460 C   0  0  0  0  0  0  0  0  0  0  0  0
   -2.3760   -0.2540    0.2800 N   0  0  0  0  0  0  0  0  0  0  0  0
   -2.0490    1.0420   -0.1770 C   0  0  2  0  0  0  0  0  0  0  0  0
   -0.6440    1.4810    0.0590 C   0  0  0  0  0  0  0  0  0  0  0  0
   -0.2600    1.5040    1.5230 C   0  0  0  0  0  0  0  0  0  0  0  0
    1.2000    1.9640    1.6720 C   0  0  0  0  0  0  0  0  0  0  0  0
    2.0650    1.0500    0.9620 N   0  0  0  0  0  0  0  0  0  0  0  0
    3.4940    1.2580    0.9460 C   0  0  0  0  0  0  0  0  0  0  0  0
    3.9830    2.2370    1.5540 O   0  0  0  0  0  0  0  0  0  0  0  0
    4.3450    0.3640    0.2490 N   0  0  0  0  0  0  0  0  0  0  0  0
    5.7690    0.4810    0.1490 C   0  0  0  0  0  0  0  0  0  0  0  0
    6.3250    1.7420    0.1000 C   0  0  0  0  0  0  0  0  0  0  0  0
    7.6370    1.9780   -0.3230 C   0  0  0  0  0  0  0  0  0  0  0  0
    8.3810    0.9130   -0.6990 C   0  0  0  0  0  0  0  0  0  0  0  0
    7.8440   -0.3610   -0.6530 C   0  0  0  0  0  0  0  0  0  0  0  0
    6.5210   -0.6050   -0.2190 C   0  0  0  0  0  0  0  0  0  0  0  0
    6.1790   -1.8250    0.1000 C   0  0  0  0  0  0  0  0  0  0  0  0
    5.0450   -2.2070    0.8770 C   0  0  0  0  0  0  0  0  0  0  0  0
    4.2150   -1.5950    1.4990 O   0  0  0  0  0  0  0  0  0  0  0  0
    4.8230   -3.5980    0.9420 F   0  0  0  0  0  0  0  0  0  0  0  0
    7.0180   -2.8750   -0.3750 O   0  0  0  0  0  0  0  0  0  0  0  0
    8.1920   -2.6700   -1.0570 C   0  0  0  0  0  0  0  0  0  0  0  0
    8.6190   -1.3110   -1.0500 N   0  0  0  0  0  0  0  0  0  0  0  0
   -3.0260    2.0560    0.3630 C   0  0  0  0  0  0  0  0  0  0  0  0
   -4.4490    1.8170   -0.0480 C   0  0  0  0  0  0  0  0  0  0  0  0
   -5.3520    2.8040    0.4850 N   0  0  0  0  0  0  0  0  0  0  0  0
   -5.7460    4.0370   -0.1000 C   0  0  0  0  0  0  0  0  0  0  0  0
   -5.5690    4.4190   -1.3000 O   0  0  0  0  0  0  0  0  0  0  0  0
   -6.4190    4.8260    0.9590 C   0  0  0  0  0  0  0  0  0  0  0  0
   -6.7920    3.8300    1.8950 O   0  0  0  0  0  0  0  0  0  0  0  0
   -6.0170    2.6900    1.7340 C   0  0  0  0  0  0  0  0  0  0  0  0
   -5.9760    1.7770    2.5950 O   0  0  0  0  0  0  0  0  0  0  0  0
   -3.1180   -3.6290   -1.1150 C   0  0  0  0  0  0  0  0  0  0  0  0
   -4.0960   -3.9140   -1.9690 C   0  0  0  0  0  0  0  0  0  0  0  0
   -3.9770   -4.9380   -2.8260 C   0  0  0  0  0  0  0  0  0  0  0  0
   -2.8260   -5.6710   -2.7900 C   0  0  0  0  0  0  0  0  0  0  0  0
   -1.8930   -4.8280   -1.4580 S   0  0  0  0  0  0  0  0  0  0  0  0
  2  1  1  6
  2  3  1  0
  2 35  1  0
  3  4  1  0
  4  5  1  0
  5  6  1  1
  5 26  1  0
  6  7  1  0
  7  8  1  0
  8  9  1  0
  9 10  1  0
 10 11  2  0
 10 12  1  0
 12 13  1  0
 13 14  2  0
 13 18  1  0
 14 15  1  0
 15 16  2  0
 16 17  1  0
 17 18  1  0
 17 25  2  0
 18 19  2  0
 19 20  1  0
 19 23  1  0
 20 21  2  0
 20 22  1  0
 23 24  1  0
 24 25  1  0
 26 27  1  0
 27 28  1  0
 28 29  1  0
 28 33  1  0
 29 30  2  0
 29 31  1  0
 31 32  1  0
 32 33  1  0
 33 34  2  0
 35 36  2  0
 35 39  1  0
 36 37  1  0
 37 38  2  0
 38 39  1  0
M  CHG  2   1   1   4   1
M  END
