
     RDKit          3D

 33 36  0  0  0  0  0  0  0  0999 V2000
    7.6050    3.1610   -0.8870 N   0  0  0  0  0  0  0  0  0  0  0  0
    8.0460    2.1070   -1.4840 C   0  0  0  0  0  0  0  0  0  0  0  0
    8.6090    1.0470   -0.7400 N   0  0  0  0  0  0  0  0  0  0  0  0
    7.9320    0.5550    0.3930 C   0  0  0  0  0  0  0  0  0  0  0  0
    8.6220   -0.3210    1.2300 C   0  0  0  0  0  0  0  0  0  0  0  0
    7.9990   -0.8340    2.3460 C   0  0  0  0  0  0  0  0  0  0  0  0
    6.6970   -0.4960    2.6550 C   0  0  0  0  0  0  0  0  0  0  0  0
    5.9720    0.3760    1.8460 C   0  0  0  0  0  0  0  0  0  0  0  0
    4.3070    0.8290    2.2310 S   0  0  0  0  0  0  0  0  0  0  0  0
    4.1150    0.9730    3.7400 O   0  0  0  0  0  0  0  0  0  0  0  0
    3.0980   -0.1800    1.4760 C   0  0  0  0  0  0  0  0  0  0  0  0
    2.6210    0.1860    0.2360 C   0  0  0  0  0  0  0  0  0  0  0  0
    1.6430   -0.5640   -0.4420 C   0  0  0  0  0  0  0  0  0  0  0  0
    1.1280   -1.6880    0.1080 C   0  0  0  0  0  0  0  0  0  0  0  0
    0.1110   -2.5290   -0.4930 C   0  0  0  0  0  0  0  0  0  0  0  0
   -1.0110   -2.1020   -1.0130 C   0  0  0  0  0  0  0  0  0  0  0  0
   -1.3740   -0.6860   -1.0430 C   0  0  0  0  0  0  0  0  0  0  0  0
   -2.8460   -0.4310   -1.0510 C   0  0  0  0  0  0  0  0  0  0  0  0
   -3.7110   -1.5730   -0.6530 C   0  0  1  0  0  0  0  0  0  0  0  0
   -5.1120   -1.2340   -1.0560 C   0  0  0  0  0  0  0  0  0  0  0  0
   -5.7280   -1.9400   -1.8850 O   0  0  0  0  0  0  0  0  0  0  0  0
   -5.7620   -0.1050   -0.5030 N   0  0  0  0  0  0  0  0  0  0  0  0
   -7.1210    0.1780   -0.9400 C   0  0  1  0  0  0  0  0  0  0  0  0
   -8.0410    0.1080    0.2500 C   0  0  0  0  0  0  0  0  0  0  0  0
   -8.0480    1.5040    0.7790 C   0  0  0  0  0  0  0  0  0  0  0  0
   -7.4110    2.3480   -0.1810 N   0  0  0  0  0  0  0  0  0  0  0  0
   -7.2340    1.6050   -1.3960 C   0  0  0  0  0  0  0  0  0  0  0  0
   -3.3460   -2.7970   -1.3690 N   0  0  0  0  0  0  0  0  0  0  0  0
   -1.9540   -3.0770   -1.5970 C   0  0  0  0  0  0  0  0  0  0  0  0
   -1.5620   -4.0570   -2.2320 O   0  0  0  0  0  0  0  0  0  0  0  0
    1.6210   -2.0510    1.3670 C   0  0  0  0  0  0  0  0  0  0  0  0
    2.5790   -1.3170    2.0330 C   0  0  0  0  0  0  0  0  0  0  0  0
    6.6340    0.8680    0.7360 C   0  0  0  0  0  0  0  0  0  0  0  0
  1  2  2  0
  2  3  1  0
  3  4  1  0
  4  5  2  0
  4 33  1  0
  5  6  1  0
  6  7  2  0
  7  8  1  0
  9  8  1  1
  8 33  2  0
  9 10  2  0
  9 11  1  0
 11 12  2  0
 11 32  1  0
 12 13  1  0
 13 14  2  0
 14 15  1  0
 14 31  1  0
 15 16  2  3
 16 17  1  0
 16 29  1  0
 17 18  1  0
 18 19  1  0
 19 20  1  6
 19 28  1  0
 20 21  2  0
 20 22  1  0
 23 22  1  1
 23 24  1  0
 23 27  1  0
 24 25  1  0
 25 26  1  0
 26 27  1  0
 28 29  1  0
 29 30  2  0
 31 32  2  0
M  CHG  2   1   1  26   1
M  END
