
     RDKit          3D

 33 36  0  0  0  0  0  0  0  0999 V2000
    8.9420    0.3320    0.7760 C   0  0  0  0  0  0  0  0  0  0  0  0
    7.4670    0.2860    0.8910 C   0  0  0  0  0  0  0  0  0  0  0  0
    6.5440    0.0360   -0.0130 C   0  0  0  0  0  0  0  0  0  0  0  0
    6.8560   -0.2450   -1.3120 C   0  0  0  0  0  0  0  0  0  0  0  0
    8.0180   -0.5200   -1.7670 N   0  0  0  0  0  0  0  0  0  0  0  0
    5.8480   -0.3400   -2.2360 N   0  0  0  0  0  0  0  0  0  0  0  0
    4.5610   -0.1780   -1.9520 C   0  0  0  0  0  0  0  0  0  0  0  0
    3.6350   -0.2960   -2.9790 C   0  0  0  0  0  0  0  0  0  0  0  0
    2.2970   -0.1220   -2.6650 C   0  0  0  0  0  0  0  0  0  0  0  0
    1.9090    0.1550   -1.3850 C   0  0  0  0  0  0  0  0  0  0  0  0
    0.5550    0.3150   -0.9910 N   0  0  0  0  0  0  0  0  0  0  0  0
   -0.5850   -0.1230   -1.6970 C   0  0  0  0  0  0  0  0  0  0  0  0
   -0.4410   -0.7210   -2.7790 O   0  0  0  0  0  0  0  0  0  0  0  0
   -1.9700    0.0980   -1.2050 C   0  0  1  0  0  0  0  0  0  0  0  0
   -2.2000   -0.5260    0.1460 C   0  0  0  0  0  0  0  0  0  0  0  0
   -3.6230   -0.1310    0.5760 C   0  0  0  0  0  0  0  0  0  0  0  0
   -4.3800    0.3750   -0.4920 N   0  0  0  0  0  0  0  0  0  0  0  0
   -5.7050    0.0010   -0.7160 C   0  0  0  0  0  0  0  0  0  0  0  0
   -6.7620    0.4670    0.1920 C   0  0  2  0  0  0  0  0  0  0  0  0
   -6.6990    0.0930    1.6140 C   0  0  0  0  0  0  0  0  0  0  0  0
   -7.0000   -1.3770    1.7420 C   0  0  0  0  0  0  0  0  0  0  0  0
   -8.1710   -1.6260    0.3980 S   0  0  2  0  0  0  0  0  0  0  0  0
   -9.5140   -2.0060    0.8900 O   0  0  0  0  0  0  0  0  0  0  0  0
   -7.6240   -2.6160   -0.5870 O   0  0  0  0  0  0  0  0  0  0  0  0
   -8.1580    0.0380   -0.2960 C   0  0  0  0  0  0  0  0  0  0  0  0
   -3.8990    1.5530   -1.1360 C   0  0  0  0  0  0  0  0  0  0  0  0
   -2.3650    1.5580   -1.1850 C   0  0  0  0  0  0  0  0  0  0  0  0
    2.9000    0.2630   -0.3850 C   0  0  0  0  0  0  0  0  0  0  0  0
    4.2380    0.1020   -0.6310 C   0  0  0  0  0  0  0  0  0  0  0  0
    5.1690    0.2210    0.3920 C   0  0  0  0  0  0  0  0  0  0  0  0
    4.8950    0.3540    1.6440 C   0  0  0  0  0  0  0  0  0  0  0  0
    3.7010    0.5620    2.4350 C   0  0  0  0  0  0  0  0  0  0  0  0
    2.9100   -0.5890    2.7490 N   0  0  0  0  0  0  0  0  0  0  0  0
  1  2  1  0
  2  3  2  3
  3  4  1  0
  3 30  1  0
  4  5  2  0
  4  6  1  0
  6  7  1  0
  7  8  2  0
  7 29  1  0
  8  9  1  0
  9 10  2  0
 10 11  1  0
 10 28  1  0
 11 12  1  0
 12 13  2  0
 14 12  1  1
 14 15  1  0
 14 27  1  0
 15 16  1  0
 16 17  1  0
 17 18  1  0
 17 26  1  0
 19 18  1  6
 19 20  1  0
 19 25  1  0
 20 21  1  0
 22 21  1  1
 22 23  2  0
 22 24  2  0
 22 25  1  0
 26 27  1  0
 28 29  2  0
 29 30  1  0
 30 31  2  3
 31 32  1  0
 32 33  1  0
M  CHG  2   5   1  33   1
M  END
