
     RDKit          3D

 33 36  0  0  0  0  0  0  0  0999 V2000
    1.6010   -2.0950   -2.5980 C   0  0  0  0  0  0  0  0  0  0  0  0
    1.9360   -0.9600   -1.6970 C   0  0  0  0  0  0  0  0  0  0  0  0
    3.0200   -1.0740   -0.8530 C   0  0  0  0  0  0  0  0  0  0  0  0
    3.3470   -0.0180   -0.0020 C   0  0  0  0  0  0  0  0  0  0  0  0
    4.5070   -0.1040    0.9210 C   0  0  0  0  0  0  0  0  0  0  0  0
    5.9170    0.5260    0.0030 S   0  0  1  0  0  0  0  0  0  0  0  0
    6.0310   -0.3150   -1.2250 O   0  0  0  0  0  0  0  0  0  0  0  0
    5.5870    1.9180   -0.4010 O   0  0  0  0  0  0  0  0  0  0  0  0
    7.3490    0.4750    0.9890 C   0  0  0  0  0  0  0  0  0  0  0  0
    8.1470   -0.6570    1.0020 C   0  0  0  0  0  0  0  0  0  0  0  0
    9.2920   -0.7250    1.7740 C   0  0  0  0  0  0  0  0  0  0  0  0
    9.6850    0.3440    2.5670 C   0  0  0  0  0  0  0  0  0  0  0  0
    8.8950    1.4710    2.5570 C   0  0  0  0  0  0  0  0  0  0  0  0
    7.7540    1.5310    1.7850 C   0  0  0  0  0  0  0  0  0  0  0  0
    2.5740    1.1080   -0.0330 C   0  0  0  0  0  0  0  0  0  0  0  0
    1.4790    1.2500   -0.8710 C   0  0  0  0  0  0  0  0  0  0  0  0
    0.7820    2.4240   -0.8110 O   0  0  0  0  0  0  0  0  0  0  0  0
   -0.3640    2.6940   -1.6130 C   0  0  0  0  0  0  0  0  0  0  0  0
   -1.3840    1.6900   -1.2810 C   0  0  0  0  0  0  0  0  0  0  0  0
   -2.4230    1.4790   -2.1510 C   0  0  0  0  0  0  0  0  0  0  0  0
   -3.4150    0.5340   -1.8560 C   0  0  0  0  0  0  0  0  0  0  0  0
   -3.3370   -0.1730   -0.6930 C   0  0  0  0  0  0  0  0  0  0  0  0
   -4.3590   -1.1790   -0.3520 C   0  0  0  0  0  0  0  0  0  0  0  0
   -5.5540   -0.4430    0.0250 N   0  0  1  0  0  0  0  0  0  0  0  0
   -6.7270   -0.9710   -0.6470 C   0  0  0  0  0  0  0  0  0  0  0  0
   -7.0560   -2.1850    0.1900 C   0  0  0  0  0  0  0  0  0  0  0  0
   -6.5100   -1.8650    1.5660 C   0  0  0  0  0  0  0  0  0  0  0  0
   -5.7480   -0.5870    1.4390 C   0  0  2  0  0  0  0  0  0  0  0  0
   -6.4970    0.5970    2.0130 C   0  0  0  0  0  0  0  0  0  0  0  0
   -5.7550    1.7500    1.7720 O   0  0  0  0  0  0  0  0  0  0  0  0
   -2.2930    0.0470    0.1680 C   0  0  0  0  0  0  0  0  0  0  0  0
   -1.3040    0.9830   -0.1160 C   0  0  0  0  0  0  0  0  0  0  0  0
    1.1640    0.2040   -1.7060 C   0  0  0  0  0  0  0  0  0  0  0  0
  1  2  1  0
  2  3  2  0
  2 33  1  0
  3  4  1  0
  4  5  1  0
  4 15  2  0
  6  5  1  1
  6  7  2  0
  6  8  2  0
  6  9  1  0
  9 10  2  0
  9 14  1  0
 10 11  1  0
 11 12  2  0
 12 13  1  0
 13 14  2  0
 15 16  1  0
 16 17  1  0
 16 33  2  0
 17 18  1  0
 18 19  1  0
 19 20  2  0
 19 32  1  0
 20 21  1  0
 21 22  2  0
 22 23  1  0
 22 31  1  0
 24 23  1  6
 24 25  1  0
 24 28  1  0
 25 26  1  0
 26 27  1  0
 27 28  1  0
 28 29  1  6
 29 30  1  0
 31 32  2  0
M  CHG  1  24   1
M  END
