
     RDKit          3D

 32 35  0  0  0  0  0  0  0  0999 V2000
    7.1750   -1.8050   -1.0500 C   0  0  0  0  0  0  0  0  0  0  0  0
    6.0140   -1.4740   -1.4970 N   0  0  0  0  0  0  0  0  0  0  0  0
    5.0920   -0.6460   -0.8080 C   0  0  0  0  0  0  0  0  0  0  0  0
    5.4310    0.6210   -0.6440 C   0  0  0  0  0  0  0  0  0  0  0  0
    6.6730    1.2400   -1.1130 C   0  0  1  0  0  0  0  0  0  0  0  0
    7.5920    1.2610   -0.0830 F   0  0  0  0  0  0  0  0  0  0  0  0
    7.2210    0.6360   -2.2270 F   0  0  0  0  0  0  0  0  0  0  0  0
    6.4020    2.5860   -1.4000 F   0  0  0  0  0  0  0  0  0  0  0  0
    3.8360   -1.2140   -0.3310 C   0  0  0  0  0  0  0  0  0  0  0  0
    2.9560   -0.2700    0.3750 C   0  0  0  0  0  0  0  0  0  0  0  0
    1.9110    0.2920   -0.3360 C   0  0  0  0  0  0  0  0  0  0  0  0
    1.0450    1.2080    0.2230 C   0  0  0  0  0  0  0  0  0  0  0  0
    1.2390    1.5670    1.5380 C   0  0  0  0  0  0  0  0  0  0  0  0
    2.2820    1.0020    2.2400 C   0  0  0  0  0  0  0  0  0  0  0  0
    3.1630    0.0730    1.6800 C   0  0  0  0  0  0  0  0  0  0  0  0
    4.2570   -0.5310    2.4380 C   0  0  0  0  0  0  0  0  0  0  0  0
    3.9690   -1.9510    2.8780 C   0  0  0  0  0  0  0  0  0  0  0  0
    0.2310    2.5300    1.9180 N   0  0  0  0  0  0  0  0  0  0  0  0
   -0.0920    3.1940    0.6430 C   0  0  0  0  0  0  0  0  0  0  0  0
   -0.1300    1.9720   -0.2580 C   0  0  2  0  0  0  0  0  0  0  0  0
   -1.4250    1.2790    0.0100 C   0  0  0  0  0  0  0  0  0  0  0  0
   -2.3390    1.8490    0.6890 O   0  0  0  0  0  0  0  0  0  0  0  0
   -1.7030   -0.0220   -0.4680 N   0  0  0  0  0  0  0  0  0  0  0  0
   -2.9580   -0.7000   -0.2230 C   0  0  0  0  0  0  0  0  0  0  0  0
   -4.0880    0.1000   -0.8400 C   0  0  1  0  0  0  0  0  0  0  0  0
   -3.8030    0.1840   -2.3080 C   0  0  0  0  0  0  0  0  0  0  0  0
   -5.1780    0.1530   -2.9310 C   0  0  0  0  0  0  0  0  0  0  0  0
   -6.1500   -0.0020   -1.7840 C   0  0  0  0  0  0  0  0  0  0  0  0
   -5.3190   -0.6520   -0.7800 N   0  0  2  0  0  0  0  0  0  0  0  0
   -5.9540   -0.5340    0.5200 C   0  0  2  0  0  0  0  0  0  0  0  0
   -6.4420   -1.7060    1.2580 C   0  0  0  0  0  0  0  0  0  0  0  0
   -7.4470   -0.8020    0.5640 C   0  0  0  0  0  0  0  0  0  0  0  0
  1  2  2  0
  2  3  1  0
  3  4  2  3
  3  9  1  0
  4  5  1  0
  5  6  1  1
  5  7  1  0
  5  8  1  0
  9 10  1  0
 10 11  2  0
 10 15  1  0
 11 12  1  0
 12 13  2  0
 12 20  1  0
 13 14  1  0
 13 18  1  0
 14 15  2  0
 15 16  1  0
 16 17  1  0
 18 19  1  0
 19 20  1  0
 20 21  1  1
 21 22  2  0
 21 23  1  0
 23 24  1  0
 25 24  1  1
 25 26  1  0
 25 29  1  0
 26 27  1  0
 27 28  1  0
 29 28  1  6
 29 30  1  0
 30 31  1  1
 30 32  1  0
 31 32  1  0
M  CHG  2   2   1  29   1
M  END
