
     RDKit          3D

 25 28  0  0  0  0  0  0  0  0999 V2000
    5.2260   -0.3640   -2.0340 N   0  0  0  0  0  0  0  0  0  0  0  0
    4.8660   -0.9020   -0.7420 C   0  0  0  0  0  0  0  0  0  0  0  0
    4.2730    0.1910    0.0670 C   0  0  0  0  0  0  0  0  0  0  0  0
    5.0150    1.0080    0.8750 C   0  0  0  0  0  0  0  0  0  0  0  0
    4.3770    2.0030    1.5950 C   0  0  0  0  0  0  0  0  0  0  0  0
    3.0500    2.1750    1.5090 N   0  0  0  0  0  0  0  0  0  0  0  0
    2.2730    1.3840    0.7160 C   0  0  0  0  0  0  0  0  0  0  0  0
    0.8990    1.5950    0.7000 N   0  0  0  0  0  0  0  0  0  0  0  0
   -0.0820    0.9910   -0.1110 C   0  0  0  0  0  0  0  0  0  0  0  0
    0.1220    0.7350   -1.4310 C   0  0  0  0  0  0  0  0  0  0  0  0
   -0.8390    0.1080   -2.2210 C   0  0  0  0  0  0  0  0  0  0  0  0
   -2.0360   -0.2630   -1.6480 C   0  0  0  0  0  0  0  0  0  0  0  0
   -2.9930   -0.8690   -2.3690 N   0  0  0  0  0  0  0  0  0  0  0  0
   -4.1700   -1.2500   -1.8700 C   0  0  0  0  0  0  0  0  0  0  0  0
   -5.0560   -1.8210   -2.5730 O   0  0  0  0  0  0  0  0  0  0  0  0
   -4.4500   -1.0220   -0.5370 C   0  0  0  0  0  0  0  0  0  0  0  0
   -5.6470   -1.3950    0.0280 C   0  0  0  0  0  0  0  0  0  0  0  0
   -5.9080   -1.1600    1.3580 C   0  0  0  0  0  0  0  0  0  0  0  0
   -7.1050   -1.5350    1.9150 F   0  0  0  0  0  0  0  0  0  0  0  0
   -4.9700   -0.5440    2.1460 C   0  0  0  0  0  0  0  0  0  0  0  0
   -3.7620   -0.1660    1.5820 C   0  0  0  0  0  0  0  0  0  0  0  0
   -3.5080   -0.4050    0.2520 C   0  0  0  0  0  0  0  0  0  0  0  0
   -2.2900   -0.0190   -0.2980 C   0  0  0  0  0  0  0  0  0  0  0  0
   -1.3170    0.5960    0.4330 C   0  0  0  0  0  0  0  0  0  0  0  0
    2.8830    0.3970   -0.0000 C   0  0  0  0  0  0  0  0  0  0  0  0
  1  2  1  0
  2  3  1  0
  3  4  2  0
  3 25  1  0
  4  5  1  0
  5  6  2  0
  6  7  1  0
  7  8  1  0
  7 25  2  0
  8  9  1  0
  9 10  2  0
  9 24  1  0
 10 11  1  0
 11 12  2  0
 12 13  1  0
 12 23  1  0
 13 14  1  0
 14 15  2  0
 14 16  1  0
 16 17  2  0
 16 22  1  0
 17 18  1  0
 18 19  1  0
 18 20  2  0
 20 21  1  0
 21 22  2  0
 22 23  1  0
 23 24  2  0
M  CHG  1   1   1
M  END
