
     RDKit          3D

 25 27  0  0  0  0  0  0  0  0999 V2000
    4.5820    3.3500    1.4970 C   0  0  0  0  0  0  0  0  0  0  0  0
    3.7270    2.2150    0.9530 C   0  0  0  0  0  0  0  0  0  0  0  0
    2.4300    2.2500    1.2600 F   0  0  0  0  0  0  0  0  0  0  0  0
    4.2780    1.2860    0.2360 C   0  0  0  0  0  0  0  0  0  0  0  0
    5.7750    1.4090   -0.0090 C   0  0  0  0  0  0  0  0  0  0  0  0
    3.6180    0.1400   -0.3620 C   0  0  0  0  0  0  0  0  0  0  0  0
    4.3200   -0.6920   -1.0460 N   0  0  0  0  0  0  0  0  0  0  0  0
    3.7670   -1.8290   -1.6600 C   0  0  0  0  0  0  0  0  0  0  0  0
    2.4760   -2.0670   -1.5390 C   0  0  0  0  0  0  0  0  0  0  0  0
    1.5600   -1.1800   -0.7740 C   0  0  0  0  0  0  0  0  0  0  0  0
    0.2720   -1.4810   -0.8060 C   0  0  0  0  0  0  0  0  0  0  0  0
   -0.1350   -2.6320   -1.6000 N   0  0  0  0  0  0  0  0  0  0  0  0
   -1.5060   -2.9720   -1.6490 C   0  0  0  0  0  0  0  0  0  0  0  0
   -1.8070   -4.0070   -2.3230 O   0  0  0  0  0  0  0  0  0  0  0  0
   -2.6040   -2.2530   -1.0050 C   0  0  0  0  0  0  0  0  0  0  0  0
   -2.1120   -1.1220   -0.2180 C   0  0  0  0  0  0  0  0  0  0  0  0
   -3.1110   -0.2460    0.4190 C   0  0  0  0  0  0  0  0  0  0  0  0
   -4.3870   -0.4300    0.4550 C   0  0  0  0  0  0  0  0  0  0  0  0
   -5.0630   -1.5580   -0.1370 N   0  0  0  0  0  0  0  0  0  0  0  0
   -5.2980    0.5390    1.1290 C   0  0  2  0  0  0  0  0  0  0  0  0
   -5.6550    1.8350    0.5420 C   0  0  0  0  0  0  0  0  0  0  0  0
   -4.7600    1.7420    1.7610 C   0  0  0  0  0  0  0  0  0  0  0  0
   -0.8150   -0.8030   -0.1440 C   0  0  0  0  0  0  0  0  0  0  0  0
   -0.4880    0.2330    0.9010 C   0  0  0  0  0  0  0  0  0  0  0  0
    2.2060   -0.0770   -0.2040 N   0  0  0  0  0  0  0  0  0  0  0  0
  1  2  1  0
  2  3  1  0
  2  4  2  3
  4  5  1  0
  4  6  1  0
  6  7  2  0
  6 25  1  0
  7  8  1  0
  8  9  2  0
  9 10  1  0
 10 11  2  3
 10 25  1  0
 11 12  1  0
 11 23  1  0
 12 13  1  0
 13 14  2  0
 13 15  1  0
 15 16  1  0
 16 17  1  0
 16 23  2  0
 17 18  2  3
 18 19  1  0
 20 18  1  6
 20 21  1  0
 20 22  1  0
 21 22  1  0
 23 24  1  0
M  CHG  1   7   1
M  END
