
     RDKit          3D

 27 30  0  0  0  0  0  0  0  0999 V2000
   -4.9740   -2.6040    0.0520 C   0  0  0  0  0  0  0  0  0  0  0  0
   -5.8850   -2.1390    0.8410 C   0  0  0  0  0  0  0  0  0  0  0  0
   -5.7470   -0.9270    1.6100 C   0  0  0  0  0  0  0  0  0  0  0  0
   -6.7660   -0.5310    2.4020 C   0  0  0  0  0  0  0  0  0  0  0  0
   -8.2300   -1.4640    2.5000 Cl  0  0  0  0  0  0  0  0  0  0  0  0
   -4.5580   -0.0680    1.6000 C   0  0  0  0  0  0  0  0  0  0  0  0
   -4.5900    1.0730    2.3610 N   0  0  0  0  0  0  0  0  0  0  0  0
   -3.5530    1.9120    2.4210 C   0  0  0  0  0  0  0  0  0  0  0  0
   -2.4210    1.6120    1.6890 C   0  0  0  0  0  0  0  0  0  0  0  0
   -1.2870    2.4110    1.6770 C   0  0  0  0  0  0  0  0  0  0  0  0
   -1.3310    3.4560    2.3800 O   0  0  0  0  0  0  0  0  0  0  0  0
   -0.2310    2.0580    0.9480 N   0  0  0  0  0  0  0  0  0  0  0  0
   -0.2260    0.9310    0.2090 C   0  0  0  0  0  0  0  0  0  0  0  0
    0.7520    0.3470   -0.6310 C   0  0  0  0  0  0  0  0  0  0  0  0
    2.0580    0.9710   -0.8970 C   0  0  0  0  0  0  0  0  0  0  0  0
    2.9340    0.1640   -1.7190 N   0  0  0  0  0  0  0  0  0  0  0  0
    4.0280    1.0090   -2.2130 C   0  0  0  0  0  0  0  0  0  0  0  0
    4.6860    1.7240   -1.0800 C   0  0  0  0  0  0  0  0  0  0  0  0
    5.3750    0.7590   -0.2820 N   0  0  0  0  0  0  0  0  0  0  0  0
    4.9890   -0.5930   -0.5430 C   0  0  0  0  0  0  0  0  0  0  0  0
    3.5130   -0.8130   -0.7820 C   0  0  0  0  0  0  0  0  0  0  0  0
    0.2180   -0.7960   -1.1280 C   0  0  0  0  0  0  0  0  0  0  0  0
    0.7840   -1.8030   -2.0850 C   0  0  0  0  0  0  0  0  0  0  0  0
   -1.0450   -0.8910   -0.5960 N   0  0  0  0  0  0  0  0  0  0  0  0
   -1.2940    0.1260    0.1850 N   0  0  0  0  0  0  0  0  0  0  0  0
   -2.3840    0.4670    0.9220 C   0  0  0  0  0  0  0  0  0  0  0  0
   -3.4510   -0.3320    0.9020 N   0  0  0  0  0  0  0  0  0  0  0  0
  1  2  2  0
  2  3  1  0
  3  4  2  3
  3  6  1  0
  4  5  1  0
  6  7  2  0
  6 27  1  0
  7  8  1  0
  8  9  2  0
  9 10  1  0
  9 26  1  0
 10 11  2  0
 10 12  1  0
 12 13  1  0
 13 14  2  0
 13 25  1  0
 14 15  1  0
 14 22  1  0
 15 16  1  0
 16 17  1  0
 16 21  1  0
 17 18  1  0
 18 19  1  0
 19 20  1  0
 20 21  1  0
 22 23  1  0
 22 24  2  0
 24 25  1  0
 25 26  1  0
 26 27  2  0
M  CHG  1  19   1
M  END
