
     RDKit          3D

 25 28  0  0  0  0  0  0  0  0999 V2000
   -5.4480   -0.8090   -0.1670 C   0  0  0  0  0  0  0  0  0  0  0  0
   -4.0750   -0.4970   -0.0300 C   0  0  0  0  0  0  0  0  0  0  0  0
   -2.9480   -1.1730   -0.3600 C   0  0  0  0  0  0  0  0  0  0  0  0
   -1.7110   -0.9360   -0.2500 C   0  0  0  0  0  0  0  0  0  0  0  0
   -0.7370   -1.6630   -0.8500 C   0  0  0  0  0  0  0  0  0  0  0  0
   -1.2240   -2.5510   -1.8300 F   0  0  0  0  0  0  0  0  0  0  0  0
    0.5180   -1.3680   -0.9050 C   0  0  0  0  0  0  0  0  0  0  0  0
    1.4520   -2.0720   -1.8240 C   0  0  0  0  0  0  0  0  0  0  0  0
    1.6620   -3.2890   -0.9080 N   0  0  0  0  0  0  0  0  0  0  0  0
    0.9680   -0.2020   -0.1950 C   0  0  0  0  0  0  0  0  0  0  0  0
    2.2240    0.1040    0.1770 N   0  0  0  0  0  0  0  0  0  0  0  0
    2.9460    1.2110   -0.2760 C   0  0  0  0  0  0  0  0  0  0  0  0
    2.5180    2.0380   -0.9750 O   0  0  0  0  0  0  0  0  0  0  0  0
    4.2640    1.2540    0.3160 C   0  0  0  0  0  0  0  0  0  0  0  0
    5.3260    0.9650   -0.3960 C   0  0  0  0  0  0  0  0  0  0  0  0
    6.3870    0.9800    0.4010 C   0  0  0  0  0  0  0  0  0  0  0  0
    5.9910    1.2800    1.6190 N   0  0  0  0  0  0  0  0  0  0  0  0
    4.6010    1.4830    1.6230 N   0  0  0  0  0  0  0  0  0  0  0  0
    0.0390    0.5890    0.4280 C   0  0  0  0  0  0  0  0  0  0  0  0
   -1.3240    0.2660    0.3410 C   0  0  0  0  0  0  0  0  0  0  0  0
   -2.3030    1.0970    0.7360 C   0  0  0  0  0  0  0  0  0  0  0  0
   -3.6160    0.7590    0.5910 C   0  0  0  0  0  0  0  0  0  0  0  0
   -4.4480    1.9290    0.9670 C   0  0  0  0  0  0  0  0  0  0  0  0
   -3.4530    2.8460    1.5300 C   0  0  0  0  0  0  0  0  0  0  0  0
   -2.2490    2.3950    1.3420 C   0  0  0  0  0  0  0  0  0  0  0  0
  1  2  1  0
  2  3  2  0
  2 22  1  0
  3  4  1  0
  4  5  2  0
  4 20  1  0
  5  6  1  0
  5  7  1  0
  7  8  1  0
  7 10  2  0
  8  9  1  0
 10 11  1  0
 10 19  1  0
 11 12  1  0
 12 13  2  0
 12 14  1  0
 14 15  1  0
 14 18  2  0
 15 16  2  0
 16 17  1  0
 17 18  1  0
 19 20  2  0
 20 21  1  0
 21 22  2  0
 21 25  1  0
 22 23  1  0
 23 24  1  0
 24 25  2  0
M  CHG  1   9   1
M  END
