
     RDKit          3D

 21 22  0  0  0  0  0  0  0  0999 V2000
   -4.2250    2.3190    0.7680 O   0  0  0  0  0  0  0  0  0  0  0  0
   -3.3870    2.2610   -0.3470 C   0  0  0  0  0  0  0  0  0  0  0  0
   -2.8090    0.8780   -0.4470 C   0  0  1  0  0  0  0  0  0  0  0  0
   -2.0910    0.6160    0.7060 O   0  0  0  0  0  0  0  0  0  0  0  0
   -1.1490   -0.3830    0.3770 C   0  0  2  0  0  0  0  0  0  0  0  0
   -0.1290    0.2530   -0.3070 O   0  0  0  0  0  0  0  0  0  0  0  0
    1.0650    0.1870    0.3450 C   0  0  2  0  0  0  0  0  0  0  0  0
    1.6500    1.5350    0.6900 C   0  0  0  0  0  0  0  0  0  0  0  0
    2.6950    1.2510    1.6700 N   0  0  0  0  0  0  0  0  0  0  0  0
    3.7940    0.6850    0.9570 C   0  0  0  0  0  0  0  0  0  0  0  0
    3.4780   -0.4700    0.0920 C   0  0  2  0  0  0  0  0  0  0  0  0
    4.4490   -0.4410   -1.0960 C   0  0  0  0  0  0  0  0  0  0  0  0
    4.2080    0.7960   -1.7390 O   0  0  0  0  0  0  0  0  0  0  0  0
    2.1070   -0.5520   -0.4460 C   0  0  1  0  0  0  0  0  0  0  0  0
    1.7680   -1.9160   -0.5770 O   0  0  0  0  0  0  0  0  0  0  0  0
   -1.8210   -1.4630   -0.4440 C   0  0  1  0  0  0  0  0  0  0  0  0
   -1.2320   -2.6950   -0.1280 O   0  0  0  0  0  0  0  0  0  0  0  0
   -3.2870   -1.4730   -0.0030 C   0  0  1  0  0  0  0  0  0  0  0  0
   -3.2790   -1.3370    1.3880 O   0  0  0  0  0  0  0  0  0  0  0  0
   -3.8920   -0.1810   -0.5520 C   0  0  2  0  0  0  0  0  0  0  0  0
   -4.1270   -0.3890   -1.9050 O   0  0  0  0  0  0  0  0  0  0  0  0
  1  2  1  0
  3  2  1  1
  3  4  1  0
  3 20  1  0
  4  5  1  0
  5  6  1  6
  5 16  1  0
  7  6  1  6
  7  8  1  0
  7 14  1  0
  8  9  1  0
  9 10  1  0
 10 11  1  0
 11 12  1  6
 11 14  1  0
 12 13  1  0
 14 15  1  1
 16 17  1  1
 16 18  1  0
 18 19  1  1
 18 20  1  0
 20 21  1  6
M  CHG  1   9   1
M  END
