
     RDKit          3D

 12 12  0  0  0  0  0  0  0  0999 V2000
    3.8190   -0.2780    1.4160 O   0  0  0  0  0  0  0  0  0  0  0  0
    3.1880    0.0400    0.2250 C   0  0  0  0  0  0  0  0  0  0  0  0
    1.7530   -0.4610    0.1850 C   0  0  0  0  0  0  0  0  0  0  0  0
    1.1780   -0.0600   -1.1430 C   0  0  0  0  0  0  0  0  0  0  0  0
   -0.1480   -0.4550   -1.3290 O   0  0  0  0  0  0  0  0  0  0  0  0
   -1.2010   -0.0540   -0.5130 C   0  0  0  0  0  0  0  0  0  0  0  0
   -1.2700    1.1530    0.0030 C   0  0  0  0  0  0  0  0  0  0  0  0
   -2.3870    1.5790    0.8680 C   0  0  0  0  0  0  0  0  0  0  0  0
   -3.3150    0.5870    1.0610 O   0  0  0  0  0  0  0  0  0  0  0  0
   -3.2820   -0.6640    0.5500 C   0  0  0  0  0  0  0  0  0  0  0  0
   -2.2620   -1.0050   -0.2210 C   0  0  0  0  0  0  0  0  0  0  0  0
   -2.2090   -2.2960   -0.7600 O   0  0  0  0  0  0  0  0  0  0  0  0
  1  2  1  0
  2  3  1  0
  3  4  1  0
  4  5  1  0
  5  6  1  0
  6  7  2  0
  6 11  1  0
  7  8  1  0
  8  9  1  0
  9 10  1  0
 10 11  2  0
 11 12  1  0
M  END
