
     RDKit          3D

 12 12  0  0  0  0  0  0  0  0999 V2000
    4.4480   -0.4440   -0.6850 O   0  0  0  0  0  0  0  0  0  0  0  0
    3.1200   -0.0270   -0.6080 C   0  0  0  0  0  0  0  0  0  0  0  0
    2.5330   -0.3450    0.7400 C   0  0  0  0  0  0  0  0  0  0  0  0
    1.0970    0.1090    0.8160 C   0  0  0  0  0  0  0  0  0  0  0  0
    0.2920   -0.5290   -0.1680 O   0  0  0  0  0  0  0  0  0  0  0  0
   -1.0570   -0.2010   -0.2100 C   0  0  0  0  0  0  0  0  0  0  0  0
   -1.6340    0.9720   -0.3880 C   0  0  0  0  0  0  0  0  0  0  0  0
   -0.9380    2.1660   -0.5760 O   0  0  0  0  0  0  0  0  0  0  0  0
   -3.1160    0.8490   -0.3600 C   0  0  0  0  0  0  0  0  0  0  0  0
   -3.3060   -0.5890   -0.1370 C   0  0  0  0  0  0  0  0  0  0  0  0
   -2.1330   -1.1710   -0.0550 C   0  0  0  0  0  0  0  0  0  0  0  0
   -1.9920   -2.5510    0.1570 O   0  0  0  0  0  0  0  0  0  0  0  0
  1  2  1  0
  2  3  1  0
  3  4  1  0
  4  5  1  0
  5  6  1  0
  6  7  2  0
  6 11  1  0
  7  8  1  0
  7  9  1  0
  9 10  1  0
 10 11  2  0
 11 12  1  0
M  END
