
     RDKit          3D

 18 18  0  0  0  0  0  0  0  0999 V2000
   -3.0470   -0.7960   -0.1490 C   0  0  0  0  0  0  0  0  0  0  0  0
   -1.5480   -0.8900    0.0380 C   0  0  1  0  0  0  0  0  0  0  0  0
   -1.0770   -1.7120   -0.9850 O   0  0  0  0  0  0  0  0  0  0  0  0
   -1.4000   -1.2500   -2.1990 N   0  0  0  0  0  0  0  0  0  0  0  0
   -1.5810    0.1450   -2.3930 C   0  0  0  0  0  0  0  0  0  0  0  0
   -1.8850    0.6470   -3.5130 O   0  0  0  0  0  0  0  0  0  0  0  0
   -1.4230    1.0650   -1.3020 N   0  0  0  0  0  0  0  0  0  0  0  0
   -0.9840    0.5150   -0.0500 C   0  0  1  0  0  0  0  0  0  0  0  0
   -1.5270    1.2940    1.1350 C   0  0  0  0  0  0  0  0  0  0  0  0
   -2.9010    1.3270    1.2030 O   0  0  0  0  0  0  0  0  0  0  0  0
    0.4930    0.5260    0.0920 C   0  0  0  0  0  0  0  0  0  0  0  0
    1.2470    0.9760   -0.8090 O   0  0  0  0  0  0  0  0  0  0  0  0
    1.0980    0.0180    1.2720 N   0  0  0  0  0  0  0  0  0  0  0  0
    2.5360    0.0160    1.4380 C   0  0  0  0  0  0  0  0  0  0  0  0
    3.1510   -0.7870    0.3700 C   0  0  0  0  0  0  0  0  0  0  0  0
    2.8180   -2.1280    0.2470 O   0  0  0  0  0  0  0  0  0  0  0  0
    4.0040   -0.2630   -0.4670 C   0  0  0  0  0  0  0  0  0  0  0  0
    4.3430    1.0980   -0.3430 O   0  0  0  0  0  0  0  0  0  0  0  0
  2  1  1  6
  2  3  1  0
  2  8  1  0
  3  4  1  0
  4  5  1  0
  5  6  2  0
  5  7  1  0
  7  8  1  0
  8  9  1  1
  8 11  1  0
  9 10  1  0
 11 12  2  0
 11 13  1  0
 13 14  1  0
 14 15  1  0
 15 16  1  0
 15 17  2  3
 17 18  1  0
M  END
