
     RDKit          3D

 12 12  0  0  0  0  0  0  0  0999 V2000
   -1.3420    2.1380   -0.7000 C   0  0  0  0  0  0  0  0  0  0  0  0
   -1.5960    0.9370   -0.2240 C   0  0  0  0  0  0  0  0  0  0  0  0
   -2.9640    0.4500   -0.1000 C   0  0  0  0  0  0  0  0  0  0  0  0
   -3.9560    1.1660   -0.4460 O   0  0  0  0  0  0  0  0  0  0  0  0
   -3.1670   -0.8000    0.3990 O   0  0  0  0  0  0  0  0  0  0  0  0
   -2.2000   -1.6880    0.8130 C   0  0  0  0  0  0  0  0  0  0  0  0
   -0.8460   -1.1470    0.6660 C   0  0  0  0  0  0  0  0  0  0  0  0
   -0.5360    0.0400    0.1990 C   0  0  0  0  0  0  0  0  0  0  0  0
    0.8080    0.4640    0.0980 O   0  0  0  0  0  0  0  0  0  0  0  0
    1.7950   -0.4240    0.5220 C   0  0  0  0  0  0  0  0  0  0  0  0
    3.1850    0.0900    0.3870 C   0  0  0  0  0  0  0  0  0  0  0  0
    3.5300    0.4040   -0.9250 O   0  0  0  0  0  0  0  0  0  0  0  0
  1  2  2  0
  2  3  1  0
  2  8  1  0
  3  4  2  0
  3  5  1  0
  5  6  1  0
  6  7  1  0
  7  8  2  0
  8  9  1  0
  9 10  1  0
 10 11  1  0
 11 12  1  0
M  END
