
     RDKit          3D

 30 32  0  0  0  0  0  0  0  0999 V2000
    6.9170    3.4450    2.3610 C   0  0  0  0  0  0  0  0  0  0  0  0
    6.7640    2.4010    1.2810 C   0  0  0  0  0  0  0  0  0  0  0  0
    5.7220    2.6610    0.4130 O   0  0  0  0  0  0  0  0  0  0  0  0
    5.6690    1.3920   -0.7610 P   0  0  0  0  0  0  0  0  0  0  0  0
    7.0520    0.3590   -0.6580 O   0  0  0  0  0  0  0  0  0  0  0  0
    4.1050    0.4490   -0.6670 C   0  0  0  0  0  0  0  0  0  0  0  0
    3.0740    0.7250   -1.5400 C   0  0  0  0  0  0  0  0  0  0  0  0
    1.8900    0.0210   -1.4790 C   0  0  0  0  0  0  0  0  0  0  0  0
    1.6660   -0.9830   -0.5610 C   0  0  0  0  0  0  0  0  0  0  0  0
    0.4020   -1.7140   -0.5160 C   0  0  0  0  0  0  0  0  0  0  0  0
    0.3300   -3.0760   -0.4050 C   0  0  0  0  0  0  0  0  0  0  0  0
   -0.8570   -3.7870   -0.3620 C   0  0  0  0  0  0  0  0  0  0  0  0
   -2.0580   -3.1130   -0.4320 C   0  0  0  0  0  0  0  0  0  0  0  0
   -3.2480   -3.8260   -0.3890 O   0  0  0  0  0  0  0  0  0  0  0  0
   -3.8550   -4.0830    0.8240 C   0  0  0  0  0  0  0  0  0  0  0  0
   -3.2860   -3.6480    1.8590 O   0  0  0  0  0  0  0  0  0  0  0  0
   -5.0490   -4.7930    0.9430 O   0  0  0  0  0  0  0  0  0  0  0  0
   -5.6120   -5.0160    2.2420 C   0  0  0  0  0  0  0  0  0  0  0  0
   -2.0090   -1.7400   -0.5440 C   0  0  0  0  0  0  0  0  0  0  0  0
   -0.8260   -1.0260   -0.5870 C   0  0  0  0  0  0  0  0  0  0  0  0
   -0.7190    0.3270   -0.6990 O   0  0  0  0  0  0  0  0  0  0  0  0
   -1.6590    1.3360   -0.7760 C   0  0  0  0  0  0  0  0  0  0  0  0
   -2.5430    1.5240    0.4060 C   0  0  0  0  0  0  0  0  0  0  0  0
   -3.7640    2.8920    0.2000 P   0  0  0  0  0  0  0  0  0  0  0  0
   -3.3930    3.8730   -1.2110 O   0  0  0  0  0  0  0  0  0  0  0  0
   -4.7080    4.0590   -1.6890 C   0  0  0  0  0  0  0  0  0  0  0  0
   -5.3510    2.6970   -1.6370 C   0  0  0  0  0  0  0  0  0  0  0  0
   -5.3290    2.2840   -0.3090 O   0  0  0  0  0  0  0  0  0  0  0  0
    2.7030   -1.2530    0.3080 C   0  0  0  0  0  0  0  0  0  0  0  0
    3.8920   -0.5530    0.2550 C   0  0  0  0  0  0  0  0  0  0  0  0
  1  2  1  0
  2  3  1  0
  3  4  1  0
  4  5  1  0
  4  6  1  0
  6  7  2  0
  6 30  1  0
  7  8  1  0
  8  9  2  0
  9 10  1  0
  9 29  1  0
 10 11  2  0
 10 20  1  0
 11 12  1  0
 12 13  2  0
 13 14  1  0
 13 19  1  0
 14 15  1  0
 15 16  2  0
 15 17  1  0
 17 18  1  0
 19 20  2  0
 20 21  1  0
 21 22  1  0
 22 23  1  0
 23 24  1  0
 24 25  1  0
 24 28  1  0
 25 26  1  0
 26 27  1  0
 27 28  1  0
 29 30  2  0
M  END
