
     RDKit          3D

 29 31  0  0  0  0  0  0  0  0999 V2000
    7.2560    2.9700    0.2010 C   0  0  0  0  0  0  0  0  0  0  0  0
    6.5900    1.6420   -0.0030 C   0  0  0  0  0  0  0  0  0  0  0  0
    6.0130    1.1450    1.1780 O   0  0  0  0  0  0  0  0  0  0  0  0
    5.2880   -0.3960    0.7530 P   0  0  0  0  0  0  0  0  0  0  0  0
    6.5680   -1.3300   -0.0540 O   0  0  0  0  0  0  0  0  0  0  0  0
    6.2390   -1.9100   -1.2630 C   0  0  0  0  0  0  0  0  0  0  0  0
    7.1380   -2.1930   -2.0790 O   0  0  0  0  0  0  0  0  0  0  0  0
    4.8360   -2.1900   -1.5770 C   0  0  0  0  0  0  0  0  0  0  0  0
    4.1710   -1.0780   -2.1440 O   0  0  0  0  0  0  0  0  0  0  0  0
    3.7570   -0.0100   -0.8130 P   0  0  0  0  0  0  0  0  0  0  0  0
    2.1260   -0.5600   -0.1670 C   0  0  0  0  0  0  0  0  0  0  0  0
    1.3840   -1.5340   -0.7980 C   0  0  0  0  0  0  0  0  0  0  0  0
    0.1520   -1.9680   -0.3330 C   0  0  0  0  0  0  0  0  0  0  0  0
   -0.3780   -1.4150    0.8120 C   0  0  0  0  0  0  0  0  0  0  0  0
   -1.6990   -1.8190    1.3810 C   0  0  0  0  0  0  0  0  0  0  0  0
   -2.7050   -0.8750    1.0770 O   0  0  0  0  0  0  0  0  0  0  0  0
   -3.1020   -0.5160   -0.1940 C   0  0  0  0  0  0  0  0  0  0  0  0
   -2.5360   -1.0600   -1.1730 O   0  0  0  0  0  0  0  0  0  0  0  0
   -4.1860    0.5030   -0.4030 C   0  0  2  0  0  0  0  0  0  0  0  0
   -4.3860    0.6750   -1.8760 C   0  0  0  0  0  0  0  0  0  0  0  0
   -4.7870   -0.5050   -2.6700 C   0  0  0  0  0  0  0  0  0  0  0  0
   -4.2220    1.7470   -2.3880 O   0  0  0  0  0  0  0  0  0  0  0  0
   -3.8260    1.7750    0.2890 C   0  0  0  0  0  0  0  0  0  0  0  0
   -4.9720    2.4170    1.0170 C   0  0  0  0  0  0  0  0  0  0  0  0
   -5.5770    1.5940    1.9400 O   0  0  0  0  0  0  0  0  0  0  0  0
   -5.5260    0.2540    1.6150 C   0  0  0  0  0  0  0  0  0  0  0  0
   -5.4970   -0.0170    0.1500 C   0  0  0  0  0  0  0  0  0  0  0  0
    0.3640   -0.4300    1.4580 C   0  0  0  0  0  0  0  0  0  0  0  0
    1.5860   -0.0140    0.9790 C   0  0  0  0  0  0  0  0  0  0  0  0
  1  2  1  0
  2  3  1  0
  3  4  1  0
  4  5  1  0
  4 10  1  0
  5  6  1  0
  6  7  2  0
  6  8  1  0
  8  9  1  0
  9 10  1  0
 10 11  1  0
 11 12  2  0
 11 29  1  0
 12 13  1  0
 13 14  2  0
 14 15  1  0
 14 28  1  0
 15 16  1  0
 16 17  1  0
 17 18  2  0
 19 17  1  6
 19 20  1  0
 19 23  1  0
 19 27  1  0
 20 21  1  0
 20 22  2  0
 23 24  1  0
 24 25  1  0
 25 26  1  0
 26 27  1  0
 28 29  2  0
M  END
