
     RDKit          3D

  6  5  0  0  0  0  0  0  0  0999 V2000
    1.1400    1.2250   -0.2230 C   0  0  0  0  0  0  0  0  0  0  0  0
    0.7710   -0.1260    0.3160 C   0  0  2  0  0  0  0  0  0  0  0  0
    1.4930   -1.2280   -0.4170 C   0  0  0  0  0  0  0  0  0  0  0  0
   -0.7110   -0.3740    0.3440 C   0  0  1  0  0  0  0  0  0  0  0  0
   -1.3820    0.6590    1.2190 C   0  0  0  0  0  0  0  0  0  0  0  0
   -1.3480   -0.3690   -1.0070 C   0  0  0  0  0  0  0  0  0  0  0  0
  2  1  1  6
  2  3  1  0
  2  4  1  0
  4  5  1  1
  4  6  1  0
M  END
