
     RDKit          3D

  6  5  0  0  0  0  0  0  0  0999 V2000
    2.0190    0.4770   -0.4190 C   0  0  0  0  0  0  0  0  0  0  0  0
    1.0480   -0.1720    0.5000 C   0  0  0  0  0  0  0  0  0  0  0  0
   -0.3850   -0.0640    0.0790 C   0  0  2  0  0  0  0  0  0  0  0  0
   -0.8860    1.3350   -0.0410 C   0  0  0  0  0  0  0  0  0  0  0  0
   -1.2070   -0.7400    1.1880 C   0  0  0  0  0  0  0  0  0  0  0  0
   -0.6150   -0.8880   -1.1670 C   0  0  0  0  0  0  0  0  0  0  0  0
  1  2  1  0
  2  3  1  0
  3  4  1  6
  3  5  1  0
  3  6  1  0
M  END
