
     RDKit          3D

  6  6  0  0  0  0  0  0  0  0999 V2000
    2.6410    0.2110   -0.3170 C   0  0  0  0  0  0  0  0  0  0  0  0
    1.3530   -0.5790   -0.2230 C   0  0  0  0  0  0  0  0  0  0  0  0
    0.2390    0.3510    0.2340 C   0  0  0  0  0  0  0  0  0  0  0  0
   -1.0650   -0.3990    0.3410 C   0  0  1  0  0  0  0  0  0  0  0  0
   -2.2290    0.4060    0.7800 C   0  0  0  0  0  0  0  0  0  0  0  0
   -2.1610   -0.1920   -0.6250 C   0  0  0  0  0  0  0  0  0  0  0  0
  1  2  1  0
  2  3  1  0
  4  3  1  6
  4  5  1  0
  4  6  1  0
  5  6  1  0
M  END
