
     RDKit          3D

  5  5  0  0  0  0  0  0  0  0999 V2000
    2.0340    0.3410    0.2560 C   0  0  0  0  0  0  0  0  0  0  0  0
    0.5920    0.7000    0.2320 C   0  0  0  0  0  0  0  0  0  0  0  0
   -0.3370   -0.4580    0.0370 C   0  0  2  0  0  0  0  0  0  0  0  0
   -1.8190   -0.0270    0.0200 C   0  0  0  0  0  0  0  0  0  0  0  0
   -1.2680   -0.9260    1.0640 C   0  0  0  0  0  0  0  0  0  0  0  0
  1  2  1  0
  3  2  1  1
  3  4  1  0
  3  5  1  0
  4  5  1  0
M  END
