
     RDKit          3D

  6  6  0  0  0  0  0  0  0  0999 V2000
   -0.2320   -1.3810   -0.0010 C   0  0  0  0  0  0  0  0  0  0  0  0
    1.0650   -0.9010    0.0000 C   0  0  0  0  0  0  0  0  0  0  0  0
    1.2880    0.4630    0.0010 C   0  0  0  0  0  0  0  0  0  0  0  0
    0.2360    1.3750    0.0010 C   0  0  0  0  0  0  0  0  0  0  0  0
   -1.0620    0.9010   -0.0000 C   0  0  0  0  0  0  0  0  0  0  0  0
   -1.2860   -0.4670   -0.0010 C   0  0  0  0  0  0  0  0  0  0  0  0
  1  2  2  0
  1  6  1  0
  2  3  1  0
  3  4  2  0
  4  5  1  0
  5  6  2  0
M  END
