
     RDKit          3D

 26 28  0  0  0  0  0  0  0  0999 V2000
   -0.7320   -1.0720    2.8180 C   0  0  0  0  0  0  0  0  0  0  0  0
   -0.6340   -0.2330    1.7250 O   0  0  0  0  0  0  0  0  0  0  0  0
   -1.7540    0.3210    1.1250 C   0  0  0  0  0  0  0  0  0  0  0  0
   -3.0050    0.0100    1.6710 C   0  0  0  0  0  0  0  0  0  0  0  0
   -4.1550    0.5210    1.1540 C   0  0  0  0  0  0  0  0  0  0  0  0
   -5.4360    0.2210    1.7000 N   0  0  0  0  0  0  0  0  0  0  0  0
   -5.7160    0.0740    2.9280 C   0  0  0  0  0  0  0  0  0  0  0  0
   -4.6190    0.1950    4.2990 S   0  0  0  0  0  0  0  0  0  0  0  0
   -4.0490    1.3560    0.0740 C   0  0  0  0  0  0  0  0  0  0  0  0
   -5.2350    1.8880   -0.4610 O   0  0  0  0  0  0  0  0  0  0  0  0
   -5.1570    2.7440   -1.5670 C   0  0  0  0  0  0  0  0  0  0  0  0
   -2.8460    1.6570   -0.4570 C   0  0  0  0  0  0  0  0  0  0  0  0
   -1.6100    1.1470    0.0460 C   0  0  0  0  0  0  0  0  0  0  0  0
   -0.4170    1.4600   -0.6740 C   0  0  0  0  0  0  0  0  0  0  0  0
    0.7170    0.9710   -0.8940 C   0  0  0  0  0  0  0  0  0  0  0  0
    1.5300   -0.1640   -0.6030 C   0  0  0  0  0  0  0  0  0  0  0  0
    1.1610   -1.1270    0.0830 O   0  0  0  0  0  0  0  0  0  0  0  0
    2.9280   -0.2780   -1.1130 C   0  0  0  0  0  0  0  0  0  0  0  0
    3.4080    0.5040   -2.1300 C   0  0  0  0  0  0  0  0  0  0  0  0
    4.7280    0.3320   -2.5830 C   0  0  0  0  0  0  0  0  0  0  0  0
    5.5760   -0.6060   -2.0410 C   0  0  0  0  0  0  0  0  0  0  0  0
    5.0890   -1.3950   -1.0150 C   0  0  0  0  0  0  0  0  0  0  0  0
    3.8000   -1.2240   -0.5750 C   0  0  0  0  0  0  0  0  0  0  0  0
    3.5410   -2.1350    0.4660 O   0  0  0  0  0  0  0  0  0  0  0  0
    4.4480   -3.2310    0.2630 C   0  0  0  0  0  0  0  0  0  0  0  0
    5.6780   -2.4800   -0.1790 C   0  0  0  0  0  0  0  0  0  0  0  0
  1  2  1  0
  2  3  1  0
  3  4  2  0
  3 13  1  0
  4  5  1  0
  5  6  1  0
  5  9  2  0
  6  7  2  3
  7  8  1  0
  9 10  1  0
  9 12  1  0
 10 11  1  0
 12 13  2  0
 13 14  1  0
 14 15  2  3
 15 16  1  0
 16 17  2  0
 16 18  1  0
 18 19  2  0
 18 23  1  0
 19 20  1  0
 20 21  2  0
 21 22  1  0
 22 23  2  0
 22 26  1  0
 23 24  1  0
 24 25  1  0
 25 26  1  0
M  END
