
     RDKit          3D

 26 28  0  0  0  0  0  0  0  0999 V2000
    4.3480   -1.4390   -2.6260 C   0  0  0  0  0  0  0  0  0  0  0  0
    3.4770   -2.5080   -1.4550 S   0  0  0  0  0  0  0  0  0  0  0  0
    4.0890   -2.1270    0.1830 C   0  0  0  0  0  0  0  0  0  0  0  0
    3.3240   -2.4670    1.1760 N   0  0  0  0  0  0  0  0  0  0  0  0
    3.7890   -2.1760    2.4800 C   0  0  0  0  0  0  0  0  0  0  0  0
    4.3450   -3.0870    3.1330 O   0  0  0  0  0  0  0  0  0  0  0  0
    3.6460   -0.8400    3.1030 C   0  0  0  0  0  0  0  0  0  0  0  0
    3.0120    0.0880    2.2800 O   0  0  0  0  0  0  0  0  0  0  0  0
    1.7190   -0.1230    1.8180 C   0  0  0  0  0  0  0  0  0  0  0  0
    1.1590   -1.1850    2.1790 O   0  0  0  0  0  0  0  0  0  0  0  0
    1.0660    0.8560    0.9560 C   0  0  0  0  0  0  0  0  0  0  0  0
    1.7280    2.0020    0.5920 C   0  0  0  0  0  0  0  0  0  0  0  0
    1.0920    2.9140   -0.2220 C   0  0  0  0  0  0  0  0  0  0  0  0
   -0.2130    2.6380   -0.6540 C   0  0  0  0  0  0  0  0  0  0  0  0
   -0.8990    1.4990   -0.3060 C   0  0  0  0  0  0  0  0  0  0  0  0
   -2.2850    1.2520   -0.6630 C   0  0  0  0  0  0  0  0  0  0  0  0
   -2.9920    2.3330   -0.9640 C   0  0  0  0  0  0  0  0  0  0  0  0
   -4.4120    2.3720   -1.3530 C   0  0  0  0  0  0  0  0  0  0  0  0
   -5.3220    1.4220   -1.3240 C   0  0  0  0  0  0  0  0  0  0  0  0
   -5.2000    0.0120   -0.8900 C   0  0  0  0  0  0  0  0  0  0  0  0
   -4.1040   -0.6340   -0.6350 C   0  0  0  0  0  0  0  0  0  0  0  0
   -3.9450   -2.0410   -0.2060 C   0  0  0  0  0  0  0  0  0  0  0  0
   -2.7350   -2.3500   -0.9460 O   0  0  0  0  0  0  0  0  0  0  0  0
   -1.9540   -1.1800   -0.9720 C   0  0  0  0  0  0  0  0  0  0  0  0
   -2.7240   -0.1300   -0.7300 C   0  0  0  0  0  0  0  0  0  0  0  0
   -0.2340    0.5970    0.5190 C   0  0  0  0  0  0  0  0  0  0  0  0
  1  2  1  0
  2  3  1  0
  3  4  2  3
  4  5  1  0
  5  6  2  0
  5  7  1  0
  7  8  1  0
  8  9  1  0
  9 10  2  0
  9 11  1  0
 11 12  2  0
 11 26  1  0
 12 13  1  0
 13 14  2  0
 14 15  1  0
 15 16  1  0
 15 26  2  0
 16 17  2  0
 16 25  1  0
 17 18  1  0
 18 19  2  0
 19 20  1  0
 20 21  2  0
 21 22  1  0
 21 25  1  0
 22 23  1  0
 23 24  1  0
 24 25  2  0
M  END
