
     RDKit          3D

 26 28  0  0  0  0  0  0  0  0999 V2000
   -8.2010    0.4300    0.5210 C   0  0  0  0  0  0  0  0  0  0  0  0
   -6.8170   -0.0830    0.3130 C   0  0  0  0  0  0  0  0  0  0  0  0
   -6.3920   -1.3390    0.7290 C   0  0  0  0  0  0  0  0  0  0  0  0
   -5.0720   -1.4520    0.3670 C   0  0  0  0  0  0  0  0  0  0  0  0
   -4.7550   -0.2630   -0.2500 C   0  0  0  0  0  0  0  0  0  0  0  0
   -3.4710    0.1520   -0.8280 C   0  0  0  0  0  0  0  0  0  0  0  0
   -2.3110    0.0270   -0.2250 C   0  0  0  0  0  0  0  0  0  0  0  0
   -1.1110    0.4850   -0.9390 C   0  0  0  0  0  0  0  0  0  0  0  0
    0.1070    0.4420   -0.4560 C   0  0  0  0  0  0  0  0  0  0  0  0
    1.2170    0.9170   -1.2370 N   0  0  0  0  0  0  0  0  0  0  0  0
    0.9890    1.8830   -2.2700 C   0  0  0  0  0  0  0  0  0  0  0  0
    2.5210    0.4460   -1.0030 C   0  0  0  0  0  0  0  0  0  0  0  0
    3.0350   -0.6830   -1.6220 C   0  0  0  0  0  0  0  0  0  0  0  0
    4.3160   -1.0490   -1.3340 C   0  0  0  0  0  0  0  0  0  0  0  0
    5.1420   -0.3500   -0.4470 C   0  0  0  0  0  0  0  0  0  0  0  0
    6.4250   -0.7930   -0.2160 O   0  0  0  0  0  0  0  0  0  0  0  0
    7.3650   -0.2360    0.6220 C   0  0  0  0  0  0  0  0  0  0  0  0
    7.0030   -0.1770    2.0570 C   0  0  0  0  0  0  0  0  0  0  0  0
    6.0060   -0.5810    2.5770 O   0  0  0  0  0  0  0  0  0  0  0  0
    4.6060    0.7650    0.1530 C   0  0  0  0  0  0  0  0  0  0  0  0
    3.3080    1.1620   -0.1190 C   0  0  0  0  0  0  0  0  0  0  0  0
    0.4000   -0.2050    1.1790 S   0  0  0  0  0  0  0  0  0  0  0  0
   -1.0150   -1.2750    1.5750 C   0  0  0  0  0  0  0  0  0  0  0  0
   -2.2130   -0.5200    1.1120 C   0  0  0  0  0  0  0  0  0  0  0  0
   -3.1360   -0.3670    1.9140 O   0  0  0  0  0  0  0  0  0  0  0  0
   -5.8230    0.5240   -0.2610 O   0  0  0  0  0  0  0  0  0  0  0  0
  1  2  1  0
  2  3  2  0
  2 26  1  0
  3  4  1  0
  4  5  2  0
  5  6  1  0
  5 26  1  0
  6  7  2  3
  7  8  1  0
  7 24  1  0
  8  9  2  0
  9 10  1  0
  9 22  1  0
 10 11  1  0
 10 12  1  0
 12 13  2  0
 12 21  1  0
 13 14  1  0
 14 15  2  0
 15 16  1  0
 15 20  1  0
 16 17  1  0
 17 18  1  0
 18 19  2  0
 20 21  2  0
 22 23  1  0
 23 24  1  0
 24 25  2  0
M  END
