
     RDKit          3D

 26 28  0  0  0  0  0  0  0  0999 V2000
   -7.7710    0.7540    1.6160 C   0  0  0  0  0  0  0  0  0  0  0  0
   -6.4950    0.2480    1.0460 C   0  0  0  0  0  0  0  0  0  0  0  0
   -6.2290   -1.0850    0.7720 C   0  0  0  0  0  0  0  0  0  0  0  0
   -4.9570   -1.1410    0.2610 C   0  0  0  0  0  0  0  0  0  0  0  0
   -4.4240    0.1080    0.2070 N   0  0  0  0  0  0  0  0  0  0  0  0
   -3.1140    0.4200   -0.2730 C   0  0  0  0  0  0  0  0  0  0  0  0
   -2.9080    1.4650   -1.1460 C   0  0  0  0  0  0  0  0  0  0  0  0
   -1.6190    1.7350   -1.5890 C   0  0  0  0  0  0  0  0  0  0  0  0
   -0.5240    1.0010   -1.1940 C   0  0  0  0  0  0  0  0  0  0  0  0
    0.8390    1.3210   -1.6840 C   0  0  0  0  0  0  0  0  0  0  0  0
    1.7790    0.3270   -1.3620 O   0  0  0  0  0  0  0  0  0  0  0  0
    1.6040   -0.9550   -1.8330 C   0  0  0  0  0  0  0  0  0  0  0  0
    0.6270   -1.2930   -2.5540 O   0  0  0  0  0  0  0  0  0  0  0  0
    2.5890   -1.9930   -1.4930 C   0  0  0  0  0  0  0  0  0  0  0  0
    3.6200   -1.4590   -0.6840 O   0  0  0  0  0  0  0  0  0  0  0  0
    4.4430   -0.4320   -1.0770 C   0  0  0  0  0  0  0  0  0  0  0  0
    4.2940    0.0780   -2.2070 O   0  0  0  0  0  0  0  0  0  0  0  0
    5.4760    0.0650   -0.2020 C   0  0  0  0  0  0  0  0  0  0  0  0
    6.6120    1.3950   -0.5860 S   0  0  0  0  0  0  0  0  0  0  0  0
    7.4830    1.3580    0.9390 C   0  0  0  0  0  0  0  0  0  0  0  0
    6.8570    0.3310    1.6600 C   0  0  0  0  0  0  0  0  0  0  0  0
    5.8490   -0.3000    1.0550 C   0  0  0  0  0  0  0  0  0  0  0  0
    5.0690   -1.4480    1.7230 C   0  0  0  0  0  0  0  0  0  0  0  0
   -0.7650   -0.0440   -0.3140 C   0  0  0  0  0  0  0  0  0  0  0  0
   -2.0290   -0.3460    0.1490 C   0  0  0  0  0  0  0  0  0  0  0  0
   -5.3710    0.9330    0.6870 C   0  0  0  0  0  0  0  0  0  0  0  0
  1  2  1  0
  2  3  1  0
  2 26  2  0
  3  4  2  0
  4  5  1  0
  5  6  1  0
  5 26  1  0
  6  7  2  0
  6 25  1  0
  7  8  1  0
  8  9  2  0
  9 10  1  0
  9 24  1  0
 10 11  1  0
 11 12  1  0
 12 13  2  0
 12 14  1  0
 14 15  1  0
 15 16  1  0
 16 17  2  0
 16 18  1  0
 18 19  1  0
 18 22  2  0
 19 20  1  0
 20 21  2  0
 21 22  1  0
 22 23  1  0
 24 25  2  0
M  END
