
     RDKit          3D

 26 28  0  0  0  0  0  0  0  0999 V2000
   -6.3200    1.4760   -0.2030 C   0  0  0  0  0  0  0  0  0  0  0  0
   -5.4500    0.5230   -1.0050 C   0  0  0  0  0  0  0  0  0  0  0  0
   -4.8310   -0.4430   -0.0590 C   0  0  0  0  0  0  0  0  0  0  0  0
   -3.6140   -0.5680    0.3070 C   0  0  0  0  0  0  0  0  0  0  0  0
   -2.4810    0.3030   -0.1720 C   0  0  0  0  0  0  0  0  0  0  0  0
   -1.2060    0.1690    0.0810 C   0  0  0  0  0  0  0  0  0  0  0  0
   -0.4090   -0.7700    0.8370 C   0  0  0  0  0  0  0  0  0  0  0  0
   -0.6820   -1.7740    1.4740 O   0  0  0  0  0  0  0  0  0  0  0  0
    1.0400   -0.5190    0.8850 N   0  0  0  0  0  0  0  0  0  0  0  0
    1.7190   -0.8810   -0.1400 C   0  0  0  0  0  0  0  0  0  0  0  0
    3.1620   -0.6810   -0.2020 C   0  0  0  0  0  0  0  0  0  0  0  0
    3.8960   -1.0670   -1.2980 C   0  0  0  0  0  0  0  0  0  0  0  0
    5.2620   -0.8660   -1.3290 C   0  0  0  0  0  0  0  0  0  0  0  0
    5.9880   -1.2600   -2.4410 O   0  0  0  0  0  0  0  0  0  0  0  0
    7.3810   -1.0680   -2.5010 C   0  0  0  0  0  0  0  0  0  0  0  0
    5.9140   -0.2790   -0.2720 C   0  0  0  0  0  0  0  0  0  0  0  0
    5.1680    0.1040    0.8210 C   0  0  0  0  0  0  0  0  0  0  0  0
    3.8020   -0.0930    0.8610 C   0  0  0  0  0  0  0  0  0  0  0  0
    3.0340    0.2870    1.9550 O   0  0  0  0  0  0  0  0  0  0  0  0
    3.5840    0.8980    3.1000 C   0  0  0  0  0  0  0  0  0  0  0  0
   -0.5110    1.2540   -0.5900 O   0  0  0  0  0  0  0  0  0  0  0  0
   -1.3910    2.3260   -0.7060 C   0  0  0  0  0  0  0  0  0  0  0  0
   -2.6770    1.5520   -0.9740 C   0  0  0  0  0  0  0  0  0  0  0  0
   -3.3080   -1.5620    1.3690 C   0  0  0  0  0  0  0  0  0  0  0  0
   -5.0010   -1.8140    2.1030 S   0  0  0  0  0  0  0  0  0  0  0  0
   -5.8080   -1.4480    0.5340 C   0  0  0  0  0  0  0  0  0  0  0  0
  1  2  1  0
  2  3  1  0
  3  4  2  0
  3 26  1  0
  4  5  1  0
  4 24  1  0
  5  6  2  0
  5 23  1  0
  6  7  1  0
  6 21  1  0
  7  8  2  0
  7  9  1  0
  9 10  2  3
 10 11  1  0
 11 12  2  0
 11 18  1  0
 12 13  1  0
 13 14  1  0
 13 16  2  0
 14 15  1  0
 16 17  1  0
 17 18  2  0
 18 19  1  0
 19 20  1  0
 21 22  1  0
 22 23  1  0
 24 25  1  0
 25 26  1  0
M  END
