
     RDKit          3D

 25 27  0  0  0  0  0  0  0  0999 V2000
    7.6730   -0.9350   -0.1460 C   0  0  0  0  0  0  0  0  0  0  0  0
    6.4690   -0.2020   -0.1820 O   0  0  0  0  0  0  0  0  0  0  0  0
    5.2370   -0.7870   -0.3370 C   0  0  0  0  0  0  0  0  0  0  0  0
    5.2660   -2.0610   -0.4470 O   0  0  0  0  0  0  0  0  0  0  0  0
    3.9650   -0.0830   -0.3810 C   0  0  0  0  0  0  0  0  0  0  0  0
    2.8270   -0.8440   -0.5440 C   0  0  0  0  0  0  0  0  0  0  0  0
    1.5460   -0.3130   -0.6040 C   0  0  0  0  0  0  0  0  0  0  0  0
    0.3560   -0.8340   -0.7500 O   0  0  0  0  0  0  0  0  0  0  0  0
   -0.5920    0.0690   -0.7500 C   0  0  0  0  0  0  0  0  0  0  0  0
   -2.0290   -0.1370   -0.8880 C   0  0  0  0  0  0  0  0  0  0  0  0
   -2.4900   -1.2870   -1.0280 O   0  0  0  0  0  0  0  0  0  0  0  0
   -2.8580    0.9500   -0.8620 O   0  0  0  0  0  0  0  0  0  0  0  0
   -4.2440    0.9270   -0.9800 C   0  0  0  0  0  0  0  0  0  0  0  0
   -4.8100    0.1160    0.1240 C   0  0  0  0  0  0  0  0  0  0  0  0
   -5.2680   -1.1500   -0.1220 C   0  0  0  0  0  0  0  0  0  0  0  0
   -5.8050   -1.9580    0.8770 C   0  0  0  0  0  0  0  0  0  0  0  0
   -5.8600   -1.4220    2.1490 C   0  0  0  0  0  0  0  0  0  0  0  0
   -5.3970   -0.1440    2.3920 C   0  0  0  0  0  0  0  0  0  0  0  0
   -4.8790    0.6060    1.3750 N   0  0  0  0  0  0  0  0  0  0  0  0
   -4.4210    1.8750    1.6260 O   0  0  0  0  0  0  0  0  0  0  0  0
    0.0620    1.2910   -0.5870 C   0  0  0  0  0  0  0  0  0  0  0  0
    1.4130    1.0550   -0.4950 C   0  0  0  0  0  0  0  0  0  0  0  0
    2.5340    1.8220   -0.3330 C   0  0  0  0  0  0  0  0  0  0  0  0
    3.8360    1.2840   -0.2720 C   0  0  0  0  0  0  0  0  0  0  0  0
    4.9110    2.0970   -0.1100 O   0  0  0  0  0  0  0  0  0  0  0  0
  1  2  1  0
  2  3  1  0
  3  4  2  0
  3  5  1  0
  5  6  2  0
  5 24  1  0
  6  7  1  0
  7  8  1  0
  7 22  2  0
  8  9  1  0
  9 10  1  0
  9 21  2  0
 10 11  2  0
 10 12  1  0
 12 13  1  0
 13 14  1  0
 14 15  2  0
 14 19  1  0
 15 16  1  0
 16 17  2  0
 17 18  1  0
 18 19  2  0
 19 20  1  0
 21 22  1  0
 22 23  1  0
 23 24  2  0
 24 25  1  0
M  CHG  2  19   1  20  -1
M  END
