
     RDKit          3D

 25 28  0  0  0  0  0  0  0  0999 V2000
   -7.1840   -1.8160    0.6360 O   0  0  0  0  0  0  0  0  0  0  0  0
   -6.5900   -0.7860    0.3570 C   0  0  0  0  0  0  0  0  0  0  0  0
   -5.1890   -0.6650    0.0420 C   0  0  0  0  0  0  0  0  0  0  0  0
   -4.3270   -1.7260    0.0420 N   0  0  0  0  0  0  0  0  0  0  0  0
   -3.0700   -1.2480   -0.1320 C   0  0  0  0  0  0  0  0  0  0  0  0
   -1.7610   -1.5550   -0.1950 C   0  0  0  0  0  0  0  0  0  0  0  0
   -1.1080   -0.3150   -0.3370 C   0  0  0  0  0  0  0  0  0  0  0  0
    0.3390   -0.2830   -0.4140 C   0  0  0  0  0  0  0  0  0  0  0  0
    1.0320   -1.2820   -0.7240 O   0  0  0  0  0  0  0  0  0  0  0  0
    0.9980    0.9290   -0.0650 O   0  0  0  0  0  0  0  0  0  0  0  0
    2.3670    0.9590    0.0710 C   0  0  0  0  0  0  0  0  0  0  0  0
    3.1650    2.0290   -0.1760 C   0  0  0  0  0  0  0  0  0  0  0  0
    4.5590    2.0180    0.0150 C   0  0  0  0  0  0  0  0  0  0  0  0
    5.1860    0.8140    0.4880 C   0  0  0  0  0  0  0  0  0  0  0  0
    4.3650   -0.2630    0.7190 C   0  0  0  0  0  0  0  0  0  0  0  0
    3.0070   -0.2150    0.5280 C   0  0  0  0  0  0  0  0  0  0  0  0
    5.1720   -1.2930    1.1340 O   0  0  0  0  0  0  0  0  0  0  0  0
    6.5450   -0.9050    1.0730 C   0  0  0  0  0  0  0  0  0  0  0  0
    6.5030    0.4870    0.7720 O   0  0  0  0  0  0  0  0  0  0  0  0
   -1.9680    0.6220   -0.3600 O   0  0  0  0  0  0  0  0  0  0  0  0
   -3.1630    0.1180   -0.2380 C   0  0  0  0  0  0  0  0  0  0  0  0
   -4.5040    0.5120   -0.1490 C   0  0  0  0  0  0  0  0  0  0  0  0
   -5.0450    1.8370   -0.2840 C   0  0  0  0  0  0  0  0  0  0  0  0
   -5.3710    2.5200    0.6810 O   0  0  0  0  0  0  0  0  0  0  0  0
   -5.2250    2.3660   -1.5880 O   0  0  0  0  0  0  0  0  0  0  0  0
  1  2  2  0
  2  3  1  0
  3  4  1  0
  3 22  2  0
  4  5  1  0
  5  6  1  0
  5 21  2  0
  6  7  2  0
  7  8  1  0
  7 20  1  0
  8  9  2  0
  8 10  1  0
 10 11  1  0
 11 12  2  0
 11 16  1  0
 12 13  1  0
 13 14  2  0
 14 15  1  0
 14 19  1  0
 15 16  2  0
 15 17  1  0
 17 18  1  0
 18 19  1  0
 20 21  1  0
 21 22  1  0
 22 23  1  0
 23 24  2  0
 23 25  1  0
M  CHG  1  25  -1
M  END
