
     RDKit          3D

 29 31  0  0  0  0  0  0  0  0999 V2000
    7.5470   -0.2870   -0.8180 C   0  0  0  0  0  0  0  0  0  0  0  0
    6.1760   -0.8270   -0.4860 C   0  0  0  0  0  0  0  0  0  0  0  0
    5.9990   -2.1000    0.0240 C   0  0  0  0  0  0  0  0  0  0  0  0
    4.7180   -2.5320    0.3910 C   0  0  0  0  0  0  0  0  0  0  0  0
    4.5090   -4.1500    1.0720 Cl  0  0  0  0  0  0  0  0  0  0  0  0
    3.6200   -1.7100    0.2610 C   0  0  0  0  0  0  0  0  0  0  0  0
    2.2850   -2.1290    0.7470 N   0  0  0  0  0  0  0  0  0  0  0  0
    1.5870   -1.0830    1.4070 C   0  0  0  0  0  0  0  0  0  0  0  0
    0.6260   -0.1630    0.8970 C   0  0  0  0  0  0  0  0  0  0  0  0
   -0.5960   -0.3450    0.3260 C   0  0  0  0  0  0  0  0  0  0  0  0
   -1.5070    0.6520    0.0350 C   0  0  0  0  0  0  0  0  0  0  0  0
   -2.9020    0.6700   -0.2710 C   0  0  0  0  0  0  0  0  0  0  0  0
   -3.7880   -0.3920   -0.5740 O   0  0  0  0  0  0  0  0  0  0  0  0
   -5.1170    0.0720   -0.6070 C   0  0  0  0  0  0  0  0  0  0  0  0
   -5.2380    1.3170   -0.4490 O   0  0  0  0  0  0  0  0  0  0  0  0
   -6.3530   -0.7090   -0.7840 C   0  0  0  0  0  0  0  0  0  0  0  0
   -7.6010   -0.1490   -0.8540 C   0  0  0  0  0  0  0  0  0  0  0  0
   -8.6450   -0.9490   -0.8950 C   0  0  0  0  0  0  0  0  0  0  0  0
   -8.4700   -2.3130   -0.8660 C   0  0  0  0  0  0  0  0  0  0  0  0
   -6.6240   -2.3970   -0.7710 S   0  0  0  0  0  0  0  0  0  0  0  0
   -1.0840    2.0080    0.3750 C   0  0  0  0  0  0  0  0  0  0  0  0
   -1.8160    3.0970    0.1360 O   0  0  0  0  0  0  0  0  0  0  0  0
    0.1490    2.2020    0.9530 C   0  0  0  0  0  0  0  0  0  0  0  0
    0.6550    3.5900    1.2760 C   0  0  0  0  0  0  0  0  0  0  0  0
    0.9840    1.2050    1.2290 C   0  0  0  0  0  0  0  0  0  0  0  0
    2.4760    1.5060    2.1350 Cl  0  0  0  0  0  0  0  0  0  0  0  0
    3.8340   -0.4860   -0.2430 C   0  0  0  0  0  0  0  0  0  0  0  0
    5.0930    0.0000   -0.6350 C   0  0  0  0  0  0  0  0  0  0  0  0
    5.3200    1.5830   -1.2660 Cl  0  0  0  0  0  0  0  0  0  0  0  0
  1  2  1  0
  2  3  2  0
  2 28  1  0
  3  4  1  0
  4  5  1  0
  4  6  2  0
  6  7  1  0
  6 27  1  0
  7  8  1  0
  8  9  1  0
  9 10  2  0
  9 25  1  0
 10 11  1  0
 11 12  1  0
 11 21  2  0
 12 13  1  0
 13 14  1  0
 14 15  2  0
 14 16  1  0
 16 17  2  0
 16 20  1  0
 17 18  1  0
 18 19  2  0
 19 20  1  0
 21 22  1  0
 21 23  1  0
 23 24  1  0
 23 25  2  0
 25 26  1  0
 27 28  2  0
 28 29  1  0
M  END
