
     RDKit          3D

 31 34  0  0  0  0  0  0  0  0999 V2000
    3.4780    2.6830   -2.7570 N   0  0  0  0  0  0  0  0  0  0  0  0
    2.8960    1.9050   -2.0910 C   0  0  0  0  0  0  0  0  0  0  0  0
    2.2070    0.9480   -1.2750 C   0  0  0  0  0  0  0  0  0  0  0  0
    0.7960    0.8790   -1.2070 C   0  0  0  0  0  0  0  0  0  0  0  0
    0.4830   -0.1300   -0.3460 C   0  0  0  0  0  0  0  0  0  0  0  0
   -0.8110   -0.7060    0.0400 C   0  0  0  0  0  0  0  0  0  0  0  0
   -0.8300   -2.0450    0.4810 C   0  0  0  0  0  0  0  0  0  0  0  0
   -1.9970   -2.6370    0.8580 C   0  0  0  0  0  0  0  0  0  0  0  0
   -3.1800   -1.9420    0.8160 C   0  0  0  0  0  0  0  0  0  0  0  0
   -4.4770   -2.5730    1.2230 C   0  0  0  0  0  0  0  0  0  0  0  0
   -5.0560   -3.1950   -0.0310 C   0  0  0  0  0  0  0  0  0  0  0  0
   -4.1100   -4.1410   -0.4730 O   0  0  0  0  0  0  0  0  0  0  0  0
   -3.1170   -0.6770    0.3950 N   0  0  0  0  0  0  0  0  0  0  0  0
   -1.9830   -0.0440    0.0130 C   0  0  0  0  0  0  0  0  0  0  0  0
   -2.0970    1.3850   -0.2810 C   0  0  0  0  0  0  0  0  0  0  0  0
   -3.3170    1.9150   -0.4280 C   0  0  0  0  0  0  0  0  0  0  0  0
   -3.4600    3.3350   -0.7210 C   0  0  0  0  0  0  0  0  0  0  0  0
   -4.6060    3.9790   -0.8890 C   0  0  0  0  0  0  0  0  0  0  0  0
   -4.3290    5.3950   -1.1670 C   0  0  0  0  0  0  0  0  0  0  0  0
   -2.8380    5.4420   -1.1280 C   0  0  0  0  0  0  0  0  0  0  0  0
   -2.4010    4.2660   -0.8750 N   0  0  0  0  0  0  0  0  0  0  0  0
    1.6720   -0.6580    0.0930 N   0  0  0  0  0  0  0  0  0  0  0  0
    2.7080   -0.0230   -0.4540 C   0  0  0  0  0  0  0  0  0  0  0  0
    4.1460   -0.2740   -0.2510 C   0  0  0  0  0  0  0  0  0  0  0  0
    4.5750   -1.1880    0.5220 N   0  0  0  0  0  0  0  0  0  0  0  0
    5.9720   -1.3790    0.6740 C   0  0  0  0  0  0  0  0  0  0  0  0
    6.5120   -2.6490    0.6620 C   0  0  0  0  0  0  0  0  0  0  0  0
    7.8500   -2.8480    0.8070 N   0  0  0  0  0  0  0  0  0  0  0  0
    8.6610   -1.7870    0.9650 C   0  0  0  0  0  0  0  0  0  0  0  0
    8.1430   -0.5100    0.9800 C   0  0  0  0  0  0  0  0  0  0  0  0
    6.8140   -0.3410    0.8340 N   0  0  0  0  0  0  0  0  0  0  0  0
  1  2  3  0
  2  3  1  0
  3  4  1  0
  3 23  2  0
  4  5  2  0
  5  6  1  0
  5 22  1  0
  6  7  2  0
  6 14  1  0
  7  8  1  0
  8  9  2  0
  9 10  1  0
  9 13  1  0
 10 11  1  0
 11 12  1  0
 13 14  2  0
 14 15  1  0
 15 16  2  3
 16 17  1  0
 17 18  2  0
 17 21  1  0
 18 19  1  0
 19 20  1  0
 20 21  2  0
 22 23  1  0
 23 24  1  0
 24 25  2  3
 25 26  1  0
 26 27  2  0
 26 31  1  0
 27 28  1  0
 28 29  2  0
 29 30  1  0
 30 31  2  0
M  END
