
     RDKit          3D

 31 34  0  0  0  0  0  0  0  0999 V2000
    8.0840    2.5620   -0.5340 C   0  0  0  0  0  0  0  0  0  0  0  0
    7.3300    1.6620   -1.4270 C   0  0  0  0  0  0  0  0  0  0  0  0
    7.9220    1.1840   -2.5460 N   0  0  0  0  0  0  0  0  0  0  0  0
    7.3290    0.3660   -3.4050 C   0  0  0  0  0  0  0  0  0  0  0  0
    6.0350   -0.0110   -3.1350 C   0  0  0  0  0  0  0  0  0  0  0  0
    5.2150   -0.8220   -3.8230 N   0  0  0  0  0  0  0  0  0  0  0  0
    4.0620   -0.8760   -3.1410 C   0  0  0  0  0  0  0  0  0  0  0  0
    4.1250   -0.0930   -1.9950 C   0  0  0  0  0  0  0  0  0  0  0  0
    3.0740    0.0640   -0.9990 C   0  0  0  0  0  0  0  0  0  0  0  0
    3.2420    0.9020   -0.0070 C   0  0  0  0  0  0  0  0  0  0  0  0
    2.2030    1.0780    1.0050 C   0  0  0  0  0  0  0  0  0  0  0  0
    2.4860    1.9300    1.9040 O   0  0  0  0  0  0  0  0  0  0  0  0
    0.9790    0.4100    1.0550 N   0  0  0  0  0  0  0  0  0  0  0  0
   -0.0430    0.5570    2.0300 C   0  0  0  0  0  0  0  0  0  0  0  0
   -0.0190    1.5530    2.9970 C   0  0  0  0  0  0  0  0  0  0  0  0
   -1.0670    1.5990    3.9240 C   0  0  0  0  0  0  0  0  0  0  0  0
   -2.1130    0.7110    3.9250 C   0  0  0  0  0  0  0  0  0  0  0  0
   -2.1010   -0.2270    2.9830 N   0  0  0  0  0  0  0  0  0  0  0  0
   -1.1110   -0.3290    2.0480 C   0  0  0  0  0  0  0  0  0  0  0  0
   -1.2350   -1.3270    1.0470 N   0  0  0  0  0  0  0  0  0  0  0  0
   -2.3460   -2.2760    1.1580 C   0  0  0  0  0  0  0  0  0  0  0  0
   -2.6070   -2.7570   -0.2850 C   0  0  0  0  0  0  0  0  0  0  0  0
   -3.0040   -1.4720   -1.0030 C   0  0  0  0  0  0  0  0  0  0  0  0
   -4.1250   -0.9010   -0.3420 N   0  0  0  0  0  0  0  0  0  0  0  0
   -4.4700    0.4250   -0.8680 C   0  0  0  0  0  0  0  0  0  0  0  0
   -5.0300    1.1700    0.3560 C   0  0  0  0  0  0  0  0  0  0  0  0
   -6.3100    0.4580    0.7590 C   0  0  0  0  0  0  0  0  0  0  0  0
   -6.0860   -1.0080    1.0090 C   0  0  0  0  0  0  0  0  0  0  0  0
   -5.2910   -1.6720   -0.1390 C   0  0  0  0  0  0  0  0  0  0  0  0
    5.3770    0.4570   -1.9900 C   0  0  0  0  0  0  0  0  0  0  0  0
    6.0780    1.2690   -1.2070 N   0  0  0  0  0  0  0  0  0  0  0  0
  1  2  1  0
  2  3  2  0
  2 31  1  0
  3  4  1  0
  4  5  2  0
  5  6  1  0
  5 30  1  0
  6  7  1  0
  7  8  2  0
  8  9  1  0
  8 30  1  0
  9 10  2  3
 10 11  1  0
 11 12  2  0
 11 13  1  0
 13 14  1  0
 14 15  2  0
 14 19  1  0
 15 16  1  0
 16 17  2  0
 17 18  1  0
 18 19  2  0
 19 20  1  0
 20 21  1  0
 21 22  1  0
 22 23  1  0
 23 24  1  0
 24 25  1  0
 24 29  1  0
 25 26  1  0
 26 27  1  0
 27 28  1  0
 28 29  1  0
 30 31  2  0
M  END
