
     RDKit          3D

 29 31  0  0  0  0  0  0  0  0999 V2000
    7.4060    1.2010   -0.7000 C   0  0  0  0  0  0  0  0  0  0  0  0
    6.7810    0.1650    0.6670 S   0  0  0  0  0  0  0  0  0  0  0  0
    5.3540   -0.7220    0.0200 C   0  0  0  0  0  0  0  0  0  0  0  0
    5.5140   -1.9430   -0.5690 C   0  0  0  0  0  0  0  0  0  0  0  0
    4.4020   -2.5980   -1.0550 C   0  0  0  0  0  0  0  0  0  0  0  0
    4.6780   -4.1700   -1.8070 Cl  0  0  0  0  0  0  0  0  0  0  0  0
    3.1570   -2.0610   -0.9620 C   0  0  0  0  0  0  0  0  0  0  0  0
    2.9390   -0.7920   -0.3560 C   0  0  0  0  0  0  0  0  0  0  0  0
    1.6980   -0.3010   -0.2900 O   0  0  0  0  0  0  0  0  0  0  0  0
    1.0130    0.7520    0.1720 C   0  0  0  0  0  0  0  0  0  0  0  0
    0.9110    1.0020    1.6250 C   0  0  0  0  0  0  0  0  0  0  0  0
    2.2720    1.2890    2.6860 Cl  0  0  0  0  0  0  0  0  0  0  0  0
   -0.2740    1.0230    2.1910 C   0  0  0  0  0  0  0  0  0  0  0  0
   -1.4810    0.7970    1.4060 C   0  0  0  0  0  0  0  0  0  0  0  0
   -2.3660    1.8850    1.2730 C   0  0  0  0  0  0  0  0  0  0  0  0
   -3.5410    1.7180    0.5890 C   0  0  0  0  0  0  0  0  0  0  0  0
   -3.8570    0.4670    0.0310 C   0  0  0  0  0  0  0  0  0  0  0  0
   -2.9700   -0.5700    0.1740 C   0  0  0  0  0  0  0  0  0  0  0  0
   -3.2860   -1.7760   -0.5120 N   0  0  0  0  0  0  0  0  0  0  0  0
   -1.7760   -0.4310    0.8600 C   0  0  0  0  0  0  0  0  0  0  0  0
   -0.9060   -1.6170    0.9980 C   0  0  0  0  0  0  0  0  0  0  0  0
   -5.1510    0.2850   -0.5970 C   0  0  0  0  0  0  0  0  0  0  0  0
   -5.9190   -0.7120   -0.3360 C   0  0  0  0  0  0  0  0  0  0  0  0
   -5.6080   -2.0030    0.7960 Cl  0  0  0  0  0  0  0  0  0  0  0  0
   -5.6500    1.4330   -1.4480 C   0  0  0  0  0  0  0  0  0  0  0  0
   -5.5930    2.5830   -0.5360 O   0  0  0  0  0  0  0  0  0  0  0  0
   -4.4800    2.7930    0.2670 C   0  0  0  0  0  0  0  0  0  0  0  0
   -4.2350    3.9410    0.7560 O   0  0  0  0  0  0  0  0  0  0  0  0
    4.0840   -0.1840    0.1100 C   0  0  0  0  0  0  0  0  0  0  0  0
  1  2  1  0
  2  3  1  0
  3  4  2  0
  3 29  1  0
  4  5  1  0
  5  6  1  0
  5  7  2  0
  7  8  1  0
  8  9  1  0
  8 29  2  0
  9 10  1  0
 10 11  1  0
 11 12  1  0
 11 13  2  3
 13 14  1  0
 14 15  2  0
 14 20  1  0
 15 16  1  0
 16 17  2  0
 16 27  1  0
 17 18  1  0
 17 22  1  0
 18 19  1  0
 18 20  2  0
 20 21  1  0
 22 23  2  3
 22 25  1  0
 23 24  1  0
 25 26  1  0
 26 27  1  0
 27 28  2  0
M  END
