
     RDKit          3D

 30 32  0  0  0  0  0  0  0  0999 V2000
    5.5220   -1.4740   -1.3490 C   0  0  0  0  0  0  0  0  0  0  0  0
    4.5200   -0.4730   -0.8200 C   0  0  0  0  0  0  0  0  0  0  0  0
    3.3810   -0.3340   -1.7050 N   0  0  0  0  0  0  0  0  0  0  0  0
    2.3080    0.5560   -1.4100 C   0  0  0  0  0  0  0  0  0  0  0  0
    2.4140    1.9390   -1.7880 C   0  0  0  0  0  0  0  0  0  0  0  0
    3.4950    2.3060   -2.3840 O   0  0  0  0  0  0  0  0  0  0  0  0
    1.2350    0.0990   -0.7970 C   0  0  0  0  0  0  0  0  0  0  0  0
    0.0700    0.8880   -0.4350 C   0  0  0  0  0  0  0  0  0  0  0  0
   -1.0130    0.4870    0.1690 C   0  0  0  0  0  0  0  0  0  0  0  0
   -1.2910   -0.8650    0.6220 C   0  0  0  0  0  0  0  0  0  0  0  0
   -0.5320   -2.0880    0.5110 N   0  0  0  0  0  0  0  0  0  0  0  0
    0.3400   -2.4510    1.6240 C   0  0  0  0  0  0  0  0  0  0  0  0
    0.3180   -3.9740    1.7580 C   0  0  0  0  0  0  0  0  0  0  0  0
   -1.0160   -4.4550    1.2110 C   0  0  0  0  0  0  0  0  0  0  0  0
   -0.9700   -4.3730   -0.2890 C   0  0  0  0  0  0  0  0  0  0  0  0
   -0.6940   -2.9250   -0.6640 C   0  0  0  0  0  0  0  0  0  0  0  0
   -2.4850   -0.8100    1.2200 C   0  0  0  0  0  0  0  0  0  0  0  0
   -2.9850    0.5320    1.1640 C   0  0  0  0  0  0  0  0  0  0  0  0
   -2.1230    1.3580    0.5310 C   0  0  0  0  0  0  0  0  0  0  0  0
   -2.3910    2.7340    0.3990 N   0  0  0  0  0  0  0  0  0  0  0  0
   -3.2810    3.4130    1.2050 C   0  0  0  0  0  0  0  0  0  0  0  0
   -3.9000    2.9270    2.1960 O   0  0  0  0  0  0  0  0  0  0  0  0
   -3.4240    4.6690    0.8240 N   0  0  0  0  0  0  0  0  0  0  0  0
   -2.6690    4.8620   -0.2030 N   0  0  0  0  0  0  0  0  0  0  0  0
   -2.5260    6.1090   -0.9360 C   0  0  2  0  0  0  0  0  0  0  0  0
   -3.5030    6.1840   -1.9020 F   0  0  0  0  0  0  0  0  0  0  0  0
   -1.2890    6.1130   -1.5920 F   0  0  0  0  0  0  0  0  0  0  0  0
   -2.5980    7.1600   -0.0380 F   0  0  0  0  0  0  0  0  0  0  0  0
   -2.0360    3.6690   -0.4630 C   0  0  0  0  0  0  0  0  0  0  0  0
   -1.2580    3.6140   -1.4210 O   0  0  0  0  0  0  0  0  0  0  0  0
  1  2  1  0
  2  3  1  0
  3  4  1  0
  4  5  1  0
  4  7  2  3
  5  6  2  0
  7  8  1  0
  8  9  2  3
  9 10  1  0
  9 19  1  0
 10 11  1  0
 10 17  2  0
 11 12  1  0
 11 16  1  0
 12 13  1  0
 13 14  1  0
 14 15  1  0
 15 16  1  0
 17 18  1  0
 18 19  2  0
 19 20  1  0
 20 21  1  0
 20 29  1  0
 21 22  2  0
 21 23  1  0
 23 24  1  0
 24 25  1  0
 24 29  1  0
 25 26  1  6
 25 27  1  0
 25 28  1  0
 29 30  2  0
M  END
