
     RDKit          3D

 30 32  0  0  0  0  0  0  0  0999 V2000
    6.6350   -2.0210   -1.3990 O   0  0  0  0  0  0  0  0  0  0  0  0
    7.3800   -2.9130   -0.4430 S   0  0  0  0  0  0  0  0  0  0  0  0
    7.7120   -2.0860    1.1090 C   0  0  0  0  0  0  0  0  0  0  0  0
    8.1560   -0.6680    0.8550 C   0  0  0  0  0  0  0  0  0  0  0  0
    7.1940    0.1060    0.1200 N   0  0  0  0  0  0  0  0  0  0  0  0
    5.8530    0.2810    0.5910 C   0  0  0  0  0  0  0  0  0  0  0  0
    5.5020   -0.2560    1.6880 O   0  0  0  0  0  0  0  0  0  0  0  0
    4.9220    1.0270   -0.1400 N   0  0  0  0  0  0  0  0  0  0  0  0
    3.5510    1.2190    0.1680 C   0  0  0  0  0  0  0  0  0  0  0  0
    2.8650    0.6760    1.2170 C   0  0  0  0  0  0  0  0  0  0  0  0
    1.4970    0.8380    1.3770 C   0  0  0  0  0  0  0  0  0  0  0  0
    0.7690    1.5820    0.4380 C   0  0  0  0  0  0  0  0  0  0  0  0
    1.4230    2.1420   -0.6170 C   0  0  0  0  0  0  0  0  0  0  0  0
    2.7900    1.9590   -0.7440 C   0  0  0  0  0  0  0  0  0  0  0  0
    0.4210    2.9010   -1.4430 C   0  0  0  0  0  0  0  0  0  0  0  0
   -0.8180    2.1290   -1.0890 C   0  0  0  0  0  0  0  0  0  0  0  0
   -0.6130    1.8120    0.3290 N   0  0  1  0  0  0  0  0  0  0  0  0
   -1.3100    0.5300    0.5910 C   0  0  0  0  0  0  0  0  0  0  0  0
   -2.6910    0.6510    0.2360 C   0  0  0  0  0  0  0  0  0  0  0  0
   -3.3730    1.5200   -0.0700 O   0  0  0  0  0  0  0  0  0  0  0  0
   -3.4820   -0.8950    0.2680 N   0  0  0  0  0  0  0  0  0  0  0  0
   -4.7570   -0.4450   -0.0960 C   0  0  0  0  0  0  0  0  0  0  0  0
   -5.3290    0.5970   -0.1030 O   0  0  0  0  0  0  0  0  0  0  0  0
   -5.5340   -1.6380   -0.6050 N   0  0  0  0  0  0  0  0  0  0  0  0
   -6.8360   -1.4340   -1.0690 C   0  0  0  0  0  0  0  0  0  0  0  0
   -7.8500   -1.2750    0.0790 C   0  0  0  0  0  0  0  0  0  0  0  0
   -7.5760   -1.6950    1.3090 C   0  0  0  0  0  0  0  0  0  0  0  0
   -8.5100   -1.5600    2.3140 C   0  0  0  0  0  0  0  0  0  0  0  0
   -9.9020   -0.7650    1.4370 S   0  0  0  0  0  0  0  0  0  0  0  0
   -9.0880   -0.6960   -0.1900 C   0  0  0  0  0  0  0  0  0  0  0  0
  1  2  2  0
  2  3  1  0
  3  4  1  0
  4  5  1  0
  5  6  1  0
  6  7  2  0
  6  8  1  0
  8  9  1  0
  9 10  2  0
  9 14  1  0
 10 11  1  0
 11 12  2  0
 12 13  1  0
 12 17  1  0
 13 14  2  0
 13 15  1  0
 15 16  1  0
 16 17  1  0
 17 18  1  6
 18 19  1  0
 19 20  2  0
 19 21  1  0
 21 22  1  0
 22 23  2  0
 22 24  1  0
 24 25  1  0
 25 26  1  0
 26 27  1  0
 26 30  2  0
 27 28  2  0
 28 29  1  0
 29 30  1  0
M  CHG  1  17   1
M  END
