
     RDKit          3D

 31 33  0  0  0  0  0  0  0  0999 V2000
    2.3350   -4.8720   -1.6190 C   0  0  0  0  0  0  0  0  0  0  0  0
    1.6020   -3.5860   -1.3610 C   0  0  0  0  0  0  0  0  0  0  0  0
    2.1440   -2.4020   -1.7880 C   0  0  0  0  0  0  0  0  0  0  0  0
    1.4340   -1.2250   -1.5280 C   0  0  0  0  0  0  0  0  0  0  0  0
    2.0520    0.0160   -1.9920 C   0  0  0  0  0  0  0  0  0  0  0  0
    3.1100   -0.0040   -2.6810 O   0  0  0  0  0  0  0  0  0  0  0  0
    1.4970    1.2760   -1.6880 N   0  0  0  0  0  0  0  0  0  0  0  0
    2.1280    2.4460   -2.1490 C   0  0  0  0  0  0  0  0  0  0  0  0
    1.6880    3.7450   -1.9150 C   0  0  0  0  0  0  0  0  0  0  0  0
    2.6200    4.5520   -2.5570 C   0  0  0  0  0  0  0  0  0  0  0  0
    3.5150    3.7500   -3.1070 O   0  0  0  0  0  0  0  0  0  0  0  0
    3.2620    2.5160   -2.8910 N   0  0  0  0  0  0  0  0  0  0  0  0
    0.2550   -1.2610   -0.8810 N   0  0  0  0  0  0  0  0  0  0  0  0
   -0.3200   -2.3870   -0.4420 C   0  0  0  0  0  0  0  0  0  0  0  0
   -1.5930   -2.4820    0.2430 C   0  0  0  0  0  0  0  0  0  0  0  0
   -1.9680   -3.6620    0.6100 O   0  0  0  0  0  0  0  0  0  0  0  0
   -2.4780   -1.4450    0.5610 N   0  0  0  0  0  0  0  0  0  0  0  0
   -3.7130   -1.8410    1.3010 C   0  0  0  0  0  0  0  0  0  0  0  0
   -2.3510   -0.0560    0.2310 C   0  0  0  0  0  0  0  0  0  0  0  0
   -1.6350    0.7600    1.2230 C   0  0  0  0  0  0  0  0  0  0  0  0
   -1.0180    0.2470    2.3430 C   0  0  0  0  0  0  0  0  0  0  0  0
   -0.4220    1.2940    3.0010 C   0  0  0  0  0  0  0  0  0  0  0  0
    0.3670    1.2090    4.2810 C   0  0  0  0  0  0  0  0  0  0  0  0
   -0.5550    1.4120    5.3190 F   0  0  0  0  0  0  0  0  0  0  0  0
   -0.6790    2.3990    2.2920 N   0  0  0  0  0  0  0  0  0  0  0  0
   -1.4150    2.1420    1.1980 C   0  0  0  0  0  0  0  0  0  0  0  0
   -1.9640    3.0350    0.1530 C   0  0  2  0  0  0  0  0  0  0  0  0
   -1.5650    2.7400   -1.1080 F   0  0  0  0  0  0  0  0  0  0  0  0
   -1.6120    4.3620    0.4010 F   0  0  0  0  0  0  0  0  0  0  0  0
   -3.3590    2.9940    0.1620 F   0  0  0  0  0  0  0  0  0  0  0  0
    0.4020   -3.5570   -0.7070 C   0  0  0  0  0  0  0  0  0  0  0  0
  1  2  1  0
  2  3  2  0
  2 31  1  0
  3  4  1  0
  4  5  1  0
  4 13  2  0
  5  6  2  0
  5  7  1  0
  7  8  1  0
  8  9  1  0
  8 12  2  0
  9 10  2  0
 10 11  1  0
 11 12  1  0
 13 14  1  0
 14 15  1  0
 14 31  2  0
 15 16  2  0
 15 17  1  0
 17 18  1  0
 17 19  1  0
 19 20  1  0
 20 21  1  0
 20 26  2  0
 21 22  2  0
 22 23  1  0
 22 25  1  0
 23 24  1  0
 25 26  1  0
 26 27  1  0
 27 28  1  6
 27 29  1  0
 27 30  1  0
M  END
