
     RDKit          3D

 29 32  0  0  0  0  0  0  0  0999 V2000
    2.5600    1.7870   -1.2190 C   0  0  0  0  0  0  0  0  0  0  0  0
    3.9060    1.1470   -1.1360 C   0  0  0  0  0  0  0  0  0  0  0  0
    3.8720   -0.3330   -1.0130 C   0  0  0  0  0  0  0  0  0  0  0  0
    4.1640   -1.1380   -2.1190 C   0  0  0  0  0  0  0  0  0  0  0  0
    4.1440   -2.5070   -2.0370 C   0  0  0  0  0  0  0  0  0  0  0  0
    3.8320   -3.1060   -0.8430 C   0  0  0  0  0  0  0  0  0  0  0  0
    3.5350   -2.3640    0.2810 C   0  0  0  0  0  0  0  0  0  0  0  0
    3.2000   -3.0510    1.5550 C   0  0  0  0  0  0  0  0  0  0  0  0
    3.5680   -0.9850    0.1510 C   0  0  0  0  0  0  0  0  0  0  0  0
    3.2570   -0.2440    1.3110 N   0  0  0  0  0  0  0  0  0  0  0  0
    1.8830    0.0610    1.5600 C   0  0  0  0  0  0  0  0  0  0  0  0
    1.5460    0.8220    2.6570 C   0  0  0  0  0  0  0  0  0  0  0  0
    0.2390    1.1200    2.9120 C   0  0  0  0  0  0  0  0  0  0  0  0
   -0.8350    0.6850    2.0980 C   0  0  0  0  0  0  0  0  0  0  0  0
   -2.1860    1.2060    2.4100 C   0  0  0  0  0  0  0  0  0  0  0  0
   -2.4880    2.4400    1.5910 C   0  0  1  0  0  0  0  0  0  0  0  0
   -2.4600    2.2400    0.1010 C   0  0  0  0  0  0  0  0  0  0  0  0
   -3.0100    3.6250   -0.3290 C   0  0  0  0  0  0  0  0  0  0  0  0
   -3.9760    3.8680    0.8100 C   0  0  0  0  0  0  0  0  0  0  0  0
   -3.7910    2.9030    1.7660 O   0  0  0  0  0  0  0  0  0  0  0  0
   -0.4880   -0.0650    1.0290 C   0  0  0  0  0  0  0  0  0  0  0  0
   -1.4440   -0.7570    0.1520 C   0  0  0  0  0  0  0  0  0  0  0  0
   -2.6400   -1.1720    0.4370 C   0  0  0  0  0  0  0  0  0  0  0  0
   -3.4900   -1.8460   -0.5520 C   0  0  0  0  0  0  0  0  0  0  0  0
   -3.0980   -2.0660   -1.7670 C   0  0  0  0  0  0  0  0  0  0  0  0
   -3.9510   -2.7500   -2.7900 C   0  0  0  0  0  0  0  0  0  0  0  0
   -1.7430   -1.6300   -2.1730 C   0  0  0  0  0  0  0  0  0  0  0  0
   -1.0180   -1.0050   -1.1780 O   0  0  0  0  0  0  0  0  0  0  0  0
    0.8690   -0.3700    0.7670 C   0  0  0  0  0  0  0  0  0  0  0  0
  1  2  1  0
  2  3  1  0
  3  4  2  0
  3  9  1  0
  4  5  1  0
  5  6  2  0
  6  7  1  0
  7  8  1  0
  7  9  2  0
  9 10  1  0
 10 11  1  0
 11 12  2  0
 11 29  1  0
 12 13  1  0
 13 14  2  0
 14 15  1  0
 14 21  1  0
 16 15  1  1
 16 17  1  0
 16 20  1  0
 17 18  1  0
 18 19  1  0
 19 20  1  0
 21 22  1  0
 21 29  2  0
 22 23  2  0
 22 28  1  0
 23 24  1  0
 24 25  2  0
 25 26  1  0
 25 27  1  0
 27 28  1  0
M  END
