
     RDKit          3D

 30 33  0  0  0  0  0  0  0  0999 V2000
    7.1720    0.5620    0.4740 C   0  0  0  0  0  0  0  0  0  0  0  0
    5.9830    0.0880    0.4370 C   0  0  0  0  0  0  0  0  0  0  0  0
    4.8880    0.6690   -0.9990 S   0  0  0  0  0  0  0  0  0  0  0  0
    3.4870   -0.3080   -0.4560 C   0  0  0  0  0  0  0  0  0  0  0  0
    2.2230   -0.4120   -1.0410 C   0  0  0  0  0  0  0  0  0  0  0  0
    1.2620   -1.2130   -0.4890 C   0  0  0  0  0  0  0  0  0  0  0  0
   -0.0430   -1.4100   -0.9680 N   0  0  0  0  0  0  0  0  0  0  0  0
   -0.5950   -0.8130   -2.1340 C   0  0  0  0  0  0  0  0  0  0  0  0
    0.0760   -0.0350   -2.8450 O   0  0  0  0  0  0  0  0  0  0  0  0
   -2.0030   -1.0920   -2.5570 C   0  0  1  0  0  0  0  0  0  0  0  0
   -2.9680   -0.4800   -1.6070 C   0  0  0  0  0  0  0  0  0  0  0  0
   -3.6640    0.4430   -2.2290 C   0  0  0  0  0  0  0  0  0  0  0  0
   -4.7210    1.2740   -1.6230 C   0  0  0  0  0  0  0  0  0  0  0  0
   -5.0520    1.1180   -0.2890 C   0  0  0  0  0  0  0  0  0  0  0  0
   -6.0150    1.8490    0.3370 C   0  0  0  0  0  0  0  0  0  0  0  0
   -6.3020    1.6520    1.6610 O   0  0  0  0  0  0  0  0  0  0  0  0
   -5.6350    0.7010    2.4540 C   0  0  0  0  0  0  0  0  0  0  0  0
   -6.6830    2.7920   -0.4260 C   0  0  0  0  0  0  0  0  0  0  0  0
   -6.3750    2.9690   -1.7520 C   0  0  0  0  0  0  0  0  0  0  0  0
   -5.3940    2.2090   -2.3470 C   0  0  0  0  0  0  0  0  0  0  0  0
   -4.9900    2.4310   -4.0520 Cl  0  0  0  0  0  0  0  0  0  0  0  0
   -3.2020    0.4750   -3.5630 N   0  0  0  0  0  0  0  0  0  0  0  0
   -2.2820   -0.3650   -3.7730 N   0  0  0  0  0  0  0  0  0  0  0  0
    1.6450   -1.8850    0.6630 C   0  0  0  0  0  0  0  0  0  0  0  0
    2.8820   -1.7720    1.2200 C   0  0  0  0  0  0  0  0  0  0  0  0
    3.8850   -0.9440    0.6530 C   0  0  0  0  0  0  0  0  0  0  0  0
    5.1640   -0.7350    1.1020 C   0  0  0  0  0  0  0  0  0  0  0  0
    5.6080   -1.3690    2.2190 C   0  0  0  0  0  0  0  0  0  0  0  0
    6.9200   -1.2800    2.8310 C   0  0  0  0  0  0  0  0  0  0  0  0
    7.0420   -0.0820    3.5160 O   0  0  0  0  0  0  0  0  0  0  0  0
  1  2  2  0
  2  3  1  0
  2 27  1  0
  3  4  1  0
  4  5  2  0
  4 26  1  0
  5  6  1  0
  6  7  1  0
  6 24  2  0
  7  8  1  0
  8  9  2  0
 10  8  1  1
 10 11  1  0
 10 23  1  0
 11 12  2  0
 12 13  1  0
 12 22  1  0
 13 14  2  0
 13 20  1  0
 14 15  1  0
 15 16  1  0
 15 18  2  0
 16 17  1  0
 18 19  1  0
 19 20  2  0
 20 21  1  0
 22 23  2  0
 24 25  1  0
 25 26  2  0
 26 27  1  0
 27 28  2  3
 28 29  1  0
 29 30  1  0
M  END
