
     RDKit          3D

 29 32  0  0  0  0  0  0  0  0999 V2000
    2.7760   -1.5250    2.8780 C   0  0  0  0  0  0  0  0  0  0  0  0
    2.3550   -0.8780    1.6960 O   0  0  0  0  0  0  0  0  0  0  0  0
    3.2310   -0.1360    0.9520 C   0  0  0  0  0  0  0  0  0  0  0  0
    4.5380   -0.0140    1.3530 C   0  0  0  0  0  0  0  0  0  0  0  0
    5.4690    0.7240    0.6400 C   0  0  0  0  0  0  0  0  0  0  0  0
    5.0960    1.3650   -0.5110 C   0  0  0  0  0  0  0  0  0  0  0  0
    3.7780    1.2530   -0.9340 C   0  0  0  0  0  0  0  0  0  0  0  0
    2.8320    0.5190   -0.2320 C   0  0  0  0  0  0  0  0  0  0  0  0
    1.4880    0.3620   -0.5870 N   0  0  0  0  0  0  0  0  0  0  0  0
    0.7610    0.8290   -1.6910 C   0  0  0  0  0  0  0  0  0  0  0  0
    1.4750    1.6990   -2.8770 S   0  0  0  0  0  0  0  0  0  0  0  0
   -0.6390    0.5450   -1.8440 N   0  0  0  0  0  0  0  0  0  0  0  0
   -1.4340   -0.1700   -0.9000 C   0  0  0  0  0  0  0  0  0  0  0  0
   -1.3300   -0.2670    0.3450 O   0  0  0  0  0  0  0  0  0  0  0  0
   -2.5070   -0.8530   -1.6560 C   0  0  0  0  0  0  0  0  0  0  0  0
   -3.4720   -1.6200   -1.1900 C   0  0  0  0  0  0  0  0  0  0  0  0
   -3.6300   -1.9140    0.1530 O   0  0  0  0  0  0  0  0  0  0  0  0
   -4.8800   -1.9060    0.8180 C   0  0  1  0  0  0  0  0  0  0  0  0
   -4.5720   -2.2860    2.2730 C   0  0  0  0  0  0  0  0  0  0  0  0
   -3.8010   -1.1400    2.8270 C   0  0  0  0  0  0  0  0  0  0  0  0
   -4.3630    0.0590    2.7300 C   0  0  0  0  0  0  0  0  0  0  0  0
   -5.6990    0.1210    2.0800 C   0  0  0  0  0  0  0  0  0  0  0  0
   -5.5830   -0.5900    0.7530 C   0  0  0  0  0  0  0  0  0  0  0  0
   -2.2660   -0.4880   -3.0680 C   0  0  0  0  0  0  0  0  0  0  0  0
   -1.5520    0.8640   -2.9070 C   0  0  2  0  0  0  0  0  0  0  0  0
   -0.9360    1.3110   -4.1850 C   0  0  0  0  0  0  0  0  0  0  0  0
    6.2680    2.0930   -1.0870 C   0  0  0  0  0  0  0  0  0  0  0  0
    7.1130    2.2370    0.1120 N   0  0  0  0  0  0  0  0  0  0  0  0
    6.9140    1.0080    0.8450 C   0  0  0  0  0  0  0  0  0  0  0  0
  1  2  1  0
  2  3  1  0
  3  4  2  0
  3  8  1  0
  4  5  1  0
  5  6  2  0
  5 29  1  0
  6  7  1  0
  6 27  1  0
  7  8  2  0
  8  9  1  0
  9 10  1  0
 10 11  2  0
 10 12  1  0
 12 13  1  0
 12 25  1  0
 13 14  2  0
 13 15  1  0
 15 16  2  3
 15 24  1  0
 16 17  1  0
 18 17  1  6
 18 19  1  0
 18 23  1  0
 19 20  1  0
 20 21  2  0
 21 22  1  0
 22 23  1  0
 24 25  1  0
 25 26  1  6
 27 28  1  0
 28 29  1  0
M  END
