
     RDKit          3D

 33 36  0  0  0  0  0  0  0  0999 V2000
   -6.8150   -0.2560    0.4420 C   0  0  0  0  0  0  0  0  0  0  0  0
   -5.6210   -0.5470   -0.3700 C   0  0  0  0  0  0  0  0  0  0  0  0
   -5.3390   -1.7200   -0.6510 O   0  0  0  0  0  0  0  0  0  0  0  0
   -4.7850    0.5420   -0.8330 N   0  0  0  0  0  0  0  0  0  0  0  0
   -5.0540    1.9220   -0.5430 C   0  0  0  0  0  0  0  0  0  0  0  0
   -3.8730    2.6710   -1.0960 C   0  0  2  0  0  0  0  0  0  0  0  0
   -4.2460    3.9340   -1.5690 O   0  0  0  0  0  0  0  0  0  0  0  0
   -3.3380    1.8000   -2.2230 C   0  0  0  0  0  0  0  0  0  0  0  0
   -3.6440    0.4160   -1.6490 C   0  0  1  0  0  0  0  0  0  0  0  0
   -2.4530   -0.2160   -1.1020 C   0  0  0  0  0  0  0  0  0  0  0  0
   -1.6340   -0.6110   -2.0450 O   0  0  0  0  0  0  0  0  0  0  0  0
   -2.0880   -0.4430    0.2260 N   0  0  0  0  0  0  0  0  0  0  0  0
   -2.7990   -0.0930    1.4860 C   0  0  0  0  0  0  0  0  0  0  0  0
   -2.9180   -1.5110    2.0650 C   0  0  2  0  0  0  0  0  0  0  0  0
   -2.9790   -1.4890    3.4460 O   0  0  0  0  0  0  0  0  0  0  0  0
   -1.6340   -2.2150    1.5810 C   0  0  0  0  0  0  0  0  0  0  0  0
   -0.9390   -1.1110    0.7900 C   0  0  1  0  0  0  0  0  0  0  0  0
    0.1810   -1.4780    0.0080 C   0  0  0  0  0  0  0  0  0  0  0  0
    0.4810   -0.9870   -1.0940 O   0  0  0  0  0  0  0  0  0  0  0  0
    1.1020   -2.5090    0.4650 N   0  0  0  0  0  0  0  0  0  0  0  0
    2.2490   -2.9040   -0.3070 C   0  0  0  0  0  0  0  0  0  0  0  0
    3.3640   -1.9270   -0.2270 C   0  0  0  0  0  0  0  0  0  0  0  0
    4.1900   -1.8760    0.8750 C   0  0  0  0  0  0  0  0  0  0  0  0
    5.2290   -0.9710    0.9490 C   0  0  0  0  0  0  0  0  0  0  0  0
    5.4940   -0.0660   -0.0830 C   0  0  0  0  0  0  0  0  0  0  0  0
    6.6150    0.8330    0.1080 C   0  0  0  0  0  0  0  0  0  0  0  0
    7.6680    0.7890    1.5880 S   0  0  0  0  0  0  0  0  0  0  0  0
    8.7410    2.2090    0.9610 C   0  0  0  0  0  0  0  0  0  0  0  0
    8.2180    2.4240   -0.0560 N   0  0  0  0  0  0  0  0  0  0  0  0
    7.1760    1.8570   -0.6300 C   0  0  0  0  0  0  0  0  0  0  0  0
    6.6320    2.2740   -1.9600 C   0  0  0  0  0  0  0  0  0  0  0  0
    4.6770   -0.1230   -1.1640 C   0  0  0  0  0  0  0  0  0  0  0  0
    3.6230   -1.0400   -1.2410 C   0  0  0  0  0  0  0  0  0  0  0  0
  1  2  1  0
  2  3  2  0
  2  4  1  0
  4  5  1  0
  4  9  1  0
  5  6  1  0
  6  7  1  6
  6  8  1  0
  8  9  1  0
  9 10  1  1
 10 11  2  0
 10 12  1  0
 12 13  1  0
 12 17  1  0
 13 14  1  0
 14 15  1  1
 14 16  1  0
 16 17  1  0
 17 18  1  6
 18 19  2  0
 18 20  1  0
 20 21  1  0
 21 22  1  0
 22 23  2  0
 22 33  1  0
 23 24  1  0
 24 25  2  0
 25 26  1  0
 25 32  1  0
 26 27  1  0
 26 30  2  0
 27 28  1  0
 28 29  2  0
 29 30  1  0
 30 31  1  0
 32 33  2  0
M  END
