
     RDKit          3D

 32 35  0  0  0  0  0  0  0  0999 V2000
    0.5440    1.4730   -0.7300 O   0  0  0  0  0  0  0  0  0  0  0  0
    0.3570    0.2380   -0.5350 C   0  0  0  0  0  0  0  0  0  0  0  0
   -0.9930   -0.2000   -0.2440 C   0  0  0  0  0  0  0  0  0  0  0  0
   -1.8920    0.8150    0.4810 C   0  0  1  0  0  0  0  0  0  0  0  0
   -2.0000    2.0790   -0.2480 C   0  0  0  0  0  0  0  0  0  0  0  0
   -1.6070    3.2430    0.2750 C   0  0  0  0  0  0  0  0  0  0  0  0
   -1.0360    3.3710    1.6270 C   0  0  2  0  0  0  0  0  0  0  0  0
    0.2070    2.8340    1.8070 F   0  0  0  0  0  0  0  0  0  0  0  0
   -1.9280    2.8610    2.5930 F   0  0  0  0  0  0  0  0  0  0  0  0
   -0.9270    4.7140    1.9740 F   0  0  0  0  0  0  0  0  0  0  0  0
   -2.6470    2.0920   -1.5530 C   0  0  0  0  0  0  0  0  0  0  0  0
   -3.5590    1.1760   -1.8540 C   0  0  0  0  0  0  0  0  0  0  0  0
   -3.8610    0.1630   -0.8470 C   0  0  0  0  0  0  0  0  0  0  0  0
   -4.9620   -0.6810   -1.0140 C   0  0  0  0  0  0  0  0  0  0  0  0
   -5.4210   -1.5380   -0.0410 C   0  0  0  0  0  0  0  0  0  0  0  0
   -4.7600   -1.5680    1.1660 C   0  0  0  0  0  0  0  0  0  0  0  0
   -3.6700   -0.7570    1.3700 C   0  0  0  0  0  0  0  0  0  0  0  0
   -3.2430    0.0810    0.3710 C   0  0  0  0  0  0  0  0  0  0  0  0
    1.4590   -0.6590   -0.6120 N   0  0  0  0  0  0  0  0  0  0  0  0
    2.7880   -0.3000   -0.9780 C   0  0  0  0  0  0  0  0  0  0  0  0
    3.7280    0.0680    0.1150 C   0  0  2  0  0  0  0  0  0  0  0  0
    3.2960    1.1410    1.0270 C   0  0  0  0  0  0  0  0  0  0  0  0
    4.6360    1.6290    1.6070 C   0  0  0  0  0  0  0  0  0  0  0  0
    5.5070    1.4330    0.3840 C   0  0  0  0  0  0  0  0  0  0  0  0
    4.9970    0.4100   -0.3660 O   0  0  0  0  0  0  0  0  0  0  0  0
    1.1530   -2.0270   -0.2850 C   0  0  0  0  0  0  0  0  0  0  0  0
    0.9860   -2.5190    1.0130 C   0  0  0  0  0  0  0  0  0  0  0  0
    0.7130   -3.8170    0.9430 N   0  0  0  0  0  0  0  0  0  0  0  0
    0.6970   -4.1710   -0.3140 N   0  0  0  0  0  0  0  0  0  0  0  0
    0.9650   -3.0960   -1.1050 C   0  0  0  0  0  0  0  0  0  0  0  0
    1.0470   -3.0780   -2.5940 C   0  0  0  0  0  0  0  0  0  0  0  0
   -0.0620   -2.5040   -3.1760 F   0  0  0  0  0  0  0  0  0  0  0  0
  1  2  2  0
  2  3  1  0
  2 19  1  0
  4  3  1  6
  4  5  1  0
  4 18  1  0
  5  6  2  3
  5 11  1  0
  6  7  1  0
  7  8  1  6
  7  9  1  0
  7 10  1  0
 11 12  2  0
 12 13  1  0
 13 14  2  0
 13 18  1  0
 14 15  1  0
 15 16  2  0
 16 17  1  0
 17 18  2  0
 19 20  1  0
 19 26  1  0
 21 20  1  6
 21 22  1  0
 21 25  1  0
 22 23  1  0
 23 24  1  0
 24 25  1  0
 26 27  2  0
 26 30  1  0
 27 28  1  0
 28 29  1  0
 29 30  2  0
 30 31  1  0
 31 32  1  0
M  END
