
     RDKit          3D

 41 45  0  0  0  0  0  0  0  0999 V2000
   -4.0090    1.0630    4.2550 C   0  0  0  0  0  0  0  0  0  0  0  0
   -4.0520    0.6510    2.8170 C   0  0  0  0  0  0  0  0  0  0  0  0
   -3.0160    1.0070    1.9810 C   0  0  0  0  0  0  0  0  0  0  0  0
   -2.9960    0.6610    0.6490 C   0  0  0  0  0  0  0  0  0  0  0  0
   -1.9520    1.0180   -0.2260 N   0  0  0  0  0  0  0  0  0  0  0  0
   -0.8030    1.7270    0.1790 C   0  0  0  0  0  0  0  0  0  0  0  0
   -0.5980    2.1040    1.3400 O   0  0  0  0  0  0  0  0  0  0  0  0
    0.2390    2.0690   -0.7620 N   0  0  0  0  0  0  0  0  0  0  0  0
    1.4020    2.7850   -0.3560 C   0  0  2  0  0  0  0  0  0  0  0  0
    1.5630    4.1090   -1.0670 C   0  0  0  0  0  0  0  0  0  0  0  0
    2.6230    1.9530   -0.6930 C   0  0  2  0  0  0  0  0  0  0  0  0
    2.7120    1.6880   -2.1000 N   0  0  0  0  0  0  0  0  0  0  0  0
    2.9690    0.2820   -2.2970 C   0  0  0  0  0  0  0  0  0  0  0  0
    3.3210   -0.2000   -3.4110 O   0  0  0  0  0  0  0  0  0  0  0  0
    2.7590   -0.3950   -1.0690 N   0  0  0  0  0  0  0  0  0  0  0  0
    2.9080   -1.8070   -0.8250 C   0  0  0  0  0  0  0  0  0  0  0  0
    4.3130   -2.1350   -0.3900 C   0  0  0  0  0  0  0  0  0  0  0  0
    4.6430   -3.3160   -0.1350 O   0  0  0  0  0  0  0  0  0  0  0  0
    5.2930   -1.1240   -0.2600 N   0  0  0  0  0  0  0  0  0  0  0  0
    6.6660   -1.3470    0.1500 C   0  0  2  0  0  0  0  0  0  0  0  0
    6.9080   -0.6520    1.4790 C   0  0  0  0  0  0  0  0  0  0  0  0
    8.3940   -0.3690    1.4140 C   0  0  1  0  0  0  0  0  0  0  0  0
    8.7480    0.9100    2.1450 C   0  0  0  0  0  0  0  0  0  0  0  0
    9.0410   -1.4030    2.0680 F   0  0  0  0  0  0  0  0  0  0  0  0
    8.7130   -0.3110    0.0520 O   0  0  0  0  0  0  0  0  0  0  0  0
    7.6350   -0.6930   -0.7320 C   0  0  0  0  0  0  0  0  0  0  0  0
    7.5460   -0.5000   -1.9520 O   0  0  0  0  0  0  0  0  0  0  0  0
    2.3740    0.5820   -0.1170 C   0  0  0  0  0  0  0  0  0  0  0  0
    1.9050    0.3070    1.0150 O   0  0  0  0  0  0  0  0  0  0  0  0
   -4.0790   -0.0760    0.1600 C   0  0  0  0  0  0  0  0  0  0  0  0
   -4.1480   -0.4670   -1.1540 C   0  0  0  0  0  0  0  0  0  0  0  0
   -5.1980   -1.1940   -1.6730 C   0  0  0  0  0  0  0  0  0  0  0  0
   -5.2060   -1.5860   -3.1020 C   0  0  0  0  0  0  0  0  0  0  0  0
   -6.2400   -1.5460   -0.8100 C   0  0  0  0  0  0  0  0  0  0  0  0
   -6.2280   -1.1850    0.5140 C   0  0  0  0  0  0  0  0  0  0  0  0
   -5.1400   -0.4440    1.0050 C   0  0  0  0  0  0  0  0  0  0  0  0
   -5.1230   -0.0820    2.3220 C   0  0  0  0  0  0  0  0  0  0  0  0
   -7.3000   -1.5840    1.4130 C   0  0  0  0  0  0  0  0  0  0  0  0
   -8.2910   -2.3120    0.9090 C   0  0  0  0  0  0  0  0  0  0  0  0
   -8.3290   -2.7020   -0.4440 N   0  0  0  0  0  0  0  0  0  0  0  0
   -7.3610   -2.2960   -1.3990 C   0  0  0  0  0  0  0  0  0  0  0  0
  1  2  1  0
  2  3  2  0
  2 37  1  0
  3  4  1  0
  4  5  1  0
  4 30  2  0
  5  6  1  0
  6  7  2  0
  6  8  1  0
  8  9  1  0
  9 10  1  6
  9 11  1  0
 11 12  1  6
 11 28  1  0
 12 13  1  0
 13 14  2  0
 13 15  1  0
 15 16  1  0
 15 28  1  0
 16 17  1  0
 17 18  2  0
 17 19  1  0
 20 19  1  6
 20 21  1  0
 20 26  1  0
 21 22  1  0
 22 23  1  1
 22 24  1  0
 22 25  1  0
 25 26  1  0
 26 27  2  0
 28 29  2  0
 30 31  1  0
 30 36  1  0
 31 32  2  0
 32 33  1  0
 32 34  1  0
 34 35  2  0
 34 41  1  0
 35 36  1  0
 35 38  1  0
 36 37  2  0
 38 39  2  0
 39 40  1  0
 40 41  1  0
M  END
