
     RDKit          3D

 41 45  0  0  0  0  0  0  0  0999 V2000
    4.5860    0.7010    2.9540 C   0  0  0  0  0  0  0  0  0  0  0  0
    4.7500    0.7130    1.5030 C   0  0  0  0  0  0  0  0  0  0  0  0
    5.3840    1.7960    0.9240 N   0  0  0  0  0  0  0  0  0  0  0  0
    5.6320    1.8920   -0.3790 C   0  0  0  0  0  0  0  0  0  0  0  0
    6.3240    3.1110   -0.8940 C   0  0  2  0  0  0  0  0  0  0  0  0
    5.7880    4.2680   -0.3430 O   0  0  0  0  0  0  0  0  0  0  0  0
    6.1850    3.2270   -2.3960 C   0  0  0  0  0  0  0  0  0  0  0  0
    4.8600    3.3540   -2.7870 O   0  0  0  0  0  0  0  0  0  0  0  0
    5.2500    0.8930   -1.1580 N   0  0  0  0  0  0  0  0  0  0  0  0
    4.6240   -0.1990   -0.6650 C   0  0  0  0  0  0  0  0  0  0  0  0
    4.3470   -0.3250    0.7020 C   0  0  0  0  0  0  0  0  0  0  0  0
    3.6450   -1.3750    1.4570 C   0  0  1  0  0  0  0  0  0  0  0  0
    4.2480   -1.6270    2.6920 O   0  0  0  0  0  0  0  0  0  0  0  0
    2.1550   -1.1190    1.6310 C   0  0  0  0  0  0  0  0  0  0  0  0
    1.4820   -0.8610    0.3780 N   0  0  0  0  0  0  0  0  0  0  0  0
    0.0670   -0.6030    0.4160 C   0  0  0  0  0  0  0  0  0  0  0  0
   -0.5720   -0.6000    1.4980 O   0  0  0  0  0  0  0  0  0  0  0  0
   -0.6640   -0.3400   -0.7820 N   0  0  0  0  0  0  0  0  0  0  0  0
   -2.0780   -0.0980   -0.7630 C   0  0  0  0  0  0  0  0  0  0  0  0
   -2.8750   -1.2670   -0.3270 C   0  0  0  0  0  0  0  0  0  0  0  0
   -2.2860   -2.4800   -0.0330 C   0  0  0  0  0  0  0  0  0  0  0  0
   -3.0860   -3.5330    0.3480 C   0  0  0  0  0  0  0  0  0  0  0  0
   -4.4670   -3.3520    0.4280 C   0  0  0  0  0  0  0  0  0  0  0  0
   -5.2110   -4.4400    0.8140 O   0  0  0  0  0  0  0  0  0  0  0  0
   -5.0290   -2.1220    0.1260 C   0  0  0  0  0  0  0  0  0  0  0  0
   -6.3940   -1.9090    0.1940 C   0  0  0  0  0  0  0  0  0  0  0  0
   -6.9010   -0.6480   -0.1220 C   0  0  0  0  0  0  0  0  0  0  0  0
   -6.0990    0.4050   -0.5030 C   0  0  0  0  0  0  0  0  0  0  0  0
   -6.6340    1.6920   -0.8250 N   0  0  0  0  0  0  0  0  0  0  0  0
   -7.0290    2.1610   -2.0220 C   0  0  0  0  0  0  0  0  0  0  0  0
   -7.4900    3.4580   -1.9240 C   0  0  0  0  0  0  0  0  0  0  0  0
   -7.3660    3.7910   -0.5910 C   0  0  0  0  0  0  0  0  0  0  0  0
   -6.8360    2.6800    0.0520 C   0  0  0  0  0  0  0  0  0  0  0  0
   -6.5390    2.6060    1.5090 C   0  0  0  0  0  0  0  0  0  0  0  0
   -5.2370    3.0240    1.7830 F   0  0  0  0  0  0  0  0  0  0  0  0
   -4.7780    0.1600   -0.5580 N   0  0  0  0  0  0  0  0  0  0  0  0
   -4.2490   -1.0540   -0.2580 C   0  0  0  0  0  0  0  0  0  0  0  0
    3.7060   -2.6860    0.7050 C   0  0  0  0  0  0  0  0  0  0  0  0
    4.9090   -2.9040   -0.1350 C   0  0  0  0  0  0  0  0  0  0  0  0
    4.5810   -2.5440   -1.5990 C   0  0  0  0  0  0  0  0  0  0  0  0
    4.3150   -1.1390   -1.6620 O   0  0  0  0  0  0  0  0  0  0  0  0
  1  2  1  0
  2  3  2  0
  2 11  1  0
  3  4  1  0
  4  5  1  0
  4  9  2  0
  5  6  1  1
  5  7  1  0
  7  8  1  0
  9 10  1  0
 10 11  2  0
 10 41  1  0
 11 12  1  0
 12 13  1  1
 12 14  1  0
 12 38  1  0
 14 15  1  0
 15 16  1  0
 16 17  2  0
 16 18  1  0
 18 19  1  0
 19 20  1  0
 20 21  2  0
 20 37  1  0
 21 22  1  0
 22 23  2  0
 23 24  1  0
 23 25  1  0
 25 26  2  0
 25 37  1  0
 26 27  1  0
 27 28  2  0
 28 29  1  0
 28 36  1  0
 29 30  1  0
 29 33  1  0
 30 31  2  0
 31 32  1  0
 32 33  2  0
 33 34  1  0
 34 35  1  0
 36 37  2  0
 38 39  1  0
 39 40  1  0
 40 41  1  0
M  END
