
     RDKit          3D

 41 45  0  0  0  0  0  0  0  0999 V2000
   10.5740    2.3780    0.4250 C   0  0  0  0  0  0  0  0  0  0  0  0
    9.2480    1.9070    0.3940 O   0  0  0  0  0  0  0  0  0  0  0  0
    8.8770    0.8420   -0.4120 C   0  0  0  0  0  0  0  0  0  0  0  0
    9.7460    0.1830   -1.2180 C   0  0  0  0  0  0  0  0  0  0  0  0
    9.3470   -0.8730   -2.0080 C   0  0  0  0  0  0  0  0  0  0  0  0
    8.0410   -1.2900   -1.9990 C   0  0  0  0  0  0  0  0  0  0  0  0
    7.1370   -0.6220   -1.1760 C   0  0  0  0  0  0  0  0  0  0  0  0
    7.5290    0.4210   -0.3940 C   0  0  0  0  0  0  0  0  0  0  0  0
    6.6860    1.1010    0.4300 O   0  0  0  0  0  0  0  0  0  0  0  0
    5.3560    0.8690    0.6780 C   0  0  0  0  0  0  0  0  0  0  0  0
    5.0630   -0.4360    1.3710 C   0  0  0  0  0  0  0  0  0  0  0  0
    3.6330   -0.6330    1.6020 N   0  0  0  0  0  0  0  0  0  0  0  0
    2.7490   -0.6980    0.5200 C   0  0  0  0  0  0  0  0  0  0  0  0
    3.1850   -0.5910   -0.6780 O   0  0  0  0  0  0  0  0  0  0  0  0
    1.3380   -0.8830    0.6930 C   0  0  0  0  0  0  0  0  0  0  0  0
    0.5310   -0.9470   -0.4040 F   0  0  0  0  0  0  0  0  0  0  0  0
    0.7940   -1.0030    1.8830 C   0  0  0  0  0  0  0  0  0  0  0  0
   -0.6490   -1.1880    1.9840 C   0  0  0  0  0  0  0  0  0  0  0  0
   -1.5460   -0.5170    1.1940 C   0  0  0  0  0  0  0  0  0  0  0  0
   -2.8970   -0.7430    1.3360 C   0  0  0  0  0  0  0  0  0  0  0  0
   -3.8470   -0.0990    0.5710 C   0  0  0  0  0  0  0  0  0  0  0  0
   -3.4550    0.7290   -0.2930 O   0  0  0  0  0  0  0  0  0  0  0  0
   -5.2120   -0.3210    0.7080 C   0  0  0  0  0  0  0  0  0  0  0  0
   -6.1720    0.4230   -0.1470 C   0  0  1  0  0  0  0  0  0  0  0  0
   -6.1810    1.8600    0.1330 C   0  0  0  0  0  0  0  0  0  0  0  0
   -6.3150    2.8010   -0.9970 C   0  0  1  0  0  0  0  0  0  0  0  0
   -5.4300    4.0310   -0.7870 C   0  0  0  0  0  0  0  0  0  0  0  0
   -6.0140    2.2780   -2.2850 N   0  0  0  0  0  0  0  0  0  0  0  0
   -5.9210    0.8930   -2.5950 C   0  0  0  0  0  0  0  0  0  0  0  0
   -5.7690    0.1880   -3.7200 N   0  0  0  0  0  0  0  0  0  0  0  0
   -5.7450   -1.0930   -3.4260 N   0  0  0  0  0  0  0  0  0  0  0  0
   -5.8830   -1.2580   -2.0810 C   0  0  0  0  0  0  0  0  0  0  0  0
   -5.8920   -2.5950   -1.3980 C   0  0  0  0  0  0  0  0  0  0  0  0
   -5.7590   -3.6110   -2.3450 O   0  0  0  0  0  0  0  0  0  0  0  0
   -5.9950    0.0050   -1.5560 C   0  0  0  0  0  0  0  0  0  0  0  0
   -5.5850   -1.2360    1.6670 C   0  0  0  0  0  0  0  0  0  0  0  0
   -4.6750   -1.8730    2.4220 N   0  0  0  0  0  0  0  0  0  0  0  0
   -3.3560   -1.6490    2.2790 C   0  0  0  0  0  0  0  0  0  0  0  0
   -2.4520   -2.3120    3.0620 N   0  0  0  0  0  0  0  0  0  0  0  0
   -1.1310   -2.1010    2.9330 C   0  0  0  0  0  0  0  0  0  0  0  0
   -0.3350   -2.7370    3.6780 O   0  0  0  0  0  0  0  0  0  0  0  0
  1  2  1  0
  2  3  1  0
  3  4  2  0
  3  8  1  0
  4  5  1  0
  5  6  2  0
  6  7  1  0
  7  8  2  0
  8  9  1  0
  9 10  1  0
 10 11  1  0
 11 12  1  0
 12 13  1  0
 13 14  2  0
 13 15  1  0
 15 16  1  0
 15 17  2  3
 17 18  1  0
 18 19  2  0
 18 40  1  0
 19 20  1  0
 20 21  1  0
 20 38  2  0
 21 22  2  0
 21 23  1  0
 24 23  1  1
 23 36  2  0
 24 25  1  0
 24 35  1  0
 25 26  1  0
 26 27  1  1
 26 28  1  0
 28 29  1  0
 29 30  1  0
 29 35  2  0
 30 31  1  0
 31 32  2  0
 32 33  1  0
 32 35  1  0
 33 34  1  0
 36 37  1  0
 37 38  1  0
 38 39  1  0
 39 40  1  0
 40 41  2  0
M  END
