
     RDKit          3D

 41 43  0  0  0  0  0  0  0  0999 V2000
   -8.7150   -0.4370   -2.3740 C   0  0  0  0  0  0  0  0  0  0  0  0
   -7.7410    0.0480   -1.3390 C   0  0  0  0  0  0  0  0  0  0  0  0
   -7.9330    1.1820   -0.8330 O   0  0  0  0  0  0  0  0  0  0  0  0
   -6.6680   -0.8070   -1.0010 N   0  0  0  0  0  0  0  0  0  0  0  0
   -5.7020   -0.3880   -0.0100 C   0  0  1  0  0  0  0  0  0  0  0  0
   -5.5560   -1.4050    1.0960 C   0  0  0  0  0  0  0  0  0  0  0  0
   -6.8150   -1.6830    1.8690 C   0  0  1  0  0  0  0  0  0  0  0  0
   -7.3760   -0.4720    2.5560 C   0  0  0  0  0  0  0  0  0  0  0  0
   -7.8720   -2.4100    1.0870 C   0  0  0  0  0  0  0  0  0  0  0  0
   -4.3350   -0.3250   -0.6490 C   0  0  0  0  0  0  0  0  0  0  0  0
   -4.1460   -0.9540   -1.7380 O   0  0  0  0  0  0  0  0  0  0  0  0
   -3.3050    0.4150   -0.0490 N   0  0  0  0  0  0  0  0  0  0  0  0
   -1.9530    0.5160   -0.5920 C   0  0  2  0  0  0  0  0  0  0  0  0
   -0.9780    0.5340    0.5120 C   0  0  0  0  0  0  0  0  0  0  0  0
   -1.3410    1.0900    1.6100 O   0  0  0  0  0  0  0  0  0  0  0  0
    0.3170   -0.0200    0.4280 N   0  0  0  0  0  0  0  0  0  0  0  0
    0.9320   -0.7140   -0.6790 C   0  0  0  0  0  0  0  0  0  0  0  0
    1.8180   -1.7760   -0.0340 C   0  0  2  0  0  0  0  0  0  0  0  0
    1.2310   -3.0150   -0.3370 O   0  0  0  0  0  0  0  0  0  0  0  0
    1.7710   -1.4650    1.4320 C   0  0  0  0  0  0  0  0  0  0  0  0
    1.3030    0.0000    1.4870 C   0  0  1  0  0  0  0  0  0  0  0  0
    2.4560    0.9020    1.1900 C   0  0  0  0  0  0  0  0  0  0  0  0
    2.5790    1.4710    0.0730 O   0  0  0  0  0  0  0  0  0  0  0  0
    3.4430    1.1320    2.1850 N   0  0  0  0  0  0  0  0  0  0  0  0
    4.6020    1.9690    2.0190 C   0  0  0  0  0  0  0  0  0  0  0  0
    5.7090    1.3520    1.2840 C   0  0  0  0  0  0  0  0  0  0  0  0
    5.8470    1.5410   -0.0680 C   0  0  0  0  0  0  0  0  0  0  0  0
    6.8830    0.9690   -0.7360 C   0  0  0  0  0  0  0  0  0  0  0  0
    7.8620    0.1690   -0.1320 C   0  0  0  0  0  0  0  0  0  0  0  0
    8.8700   -0.3550   -0.9910 C   0  0  0  0  0  0  0  0  0  0  0  0
    8.8750   -0.2020   -2.7840 S   0  0  0  0  0  0  0  0  0  0  0  0
   10.5120   -1.1140   -3.0020 C   0  0  0  0  0  0  0  0  0  0  0  0
   10.7390   -1.3420   -1.8570 N   0  0  0  0  0  0  0  0  0  0  0  0
   10.0770   -1.0590   -0.7750 C   0  0  0  0  0  0  0  0  0  0  0  0
   10.5510   -1.4070    0.6370 C   0  0  0  0  0  0  0  0  0  0  0  0
    7.7230   -0.0180    1.2150 C   0  0  0  0  0  0  0  0  0  0  0  0
    6.6520    0.5730    1.9030 C   0  0  0  0  0  0  0  0  0  0  0  0
   -1.9460    1.8410   -1.3670 C   0  0  1  0  0  0  0  0  0  0  0  0
   -2.9870    1.7920   -2.4800 C   0  0  0  0  0  0  0  0  0  0  0  0
   -2.3230    2.9930   -0.4650 C   0  0  0  0  0  0  0  0  0  0  0  0
   -0.6120    2.1090   -2.0220 C   0  0  0  0  0  0  0  0  0  0  0  0
  1  2  1  0
  2  3  2  0
  2  4  1  0
  4  5  1  0
  5  6  1  1
  5 10  1  0
  6  7  1  0
  7  8  1  6
  7  9  1  0
 10 11  2  0
 10 12  1  0
 13 12  1  1
 13 14  1  0
 13 38  1  0
 14 15  2  0
 14 16  1  0
 16 17  1  0
 16 21  1  0
 17 18  1  0
 18 19  1  1
 18 20  1  0
 20 21  1  0
 21 22  1  6
 22 23  2  0
 22 24  1  0
 24 25  1  0
 25 26  1  0
 26 27  2  0
 26 37  1  0
 27 28  1  0
 28 29  2  0
 29 30  1  0
 29 36  1  0
 30 31  1  0
 30 34  2  0
 31 32  1  0
 32 33  2  0
 33 34  1  0
 34 35  1  0
 36 37  2  0
 38 39  1  6
 38 40  1  0
 38 41  1  0
M  END
