
     RDKit          3D

 41 45  0  0  0  0  0  0  0  0999 V2000
  -10.4340   -2.5550    2.4510 C   0  0  0  0  0  0  0  0  0  0  0  0
   -9.4230   -2.3400    1.5200 O   0  0  0  0  0  0  0  0  0  0  0  0
   -9.7720   -1.3080    0.6340 C   0  0  0  0  0  0  0  0  0  0  0  0
   -8.6400   -1.1130   -0.3560 C   0  0  2  0  0  0  0  0  0  0  0  0
   -8.4580   -2.4550   -1.0770 C   0  0  0  0  0  0  0  0  0  0  0  0
   -7.4240   -0.7420    0.4060 C   0  0  0  0  0  0  0  0  0  0  0  0
   -6.9340    0.5220   -0.2920 C   0  0  1  0  0  0  0  0  0  0  0  0
   -5.5170    0.4020   -0.4180 N   0  0  0  0  0  0  0  0  0  0  0  0
   -4.6120    1.2020    0.2880 C   0  0  0  0  0  0  0  0  0  0  0  0
   -5.0840    2.0630    1.0670 O   0  0  0  0  0  0  0  0  0  0  0  0
   -3.2020    1.1200    0.1980 N   0  0  0  0  0  0  0  0  0  0  0  0
   -2.3150    1.9710    0.9650 C   0  0  0  0  0  0  0  0  0  0  0  0
   -0.9060    1.6550    0.6640 C   0  0  0  0  0  0  0  0  0  0  0  0
   -0.6310    0.7800   -0.1810 O   0  0  0  0  0  0  0  0  0  0  0  0
    0.1300    2.3090    1.3000 O   0  0  0  0  0  0  0  0  0  0  0  0
    1.4680    2.0480    1.0490 C   0  0  0  0  0  0  0  0  0  0  0  0
    2.2120    2.8350    0.2340 C   0  0  0  0  0  0  0  0  0  0  0  0
    3.5410    2.5780   -0.0180 C   0  0  0  0  0  0  0  0  0  0  0  0
    4.1520    1.4840    0.5730 C   0  0  0  0  0  0  0  0  0  0  0  0
    3.4300    0.6610    1.4060 C   0  0  0  0  0  0  0  0  0  0  0  0
    2.0830    0.9630    1.6320 C   0  0  0  0  0  0  0  0  0  0  0  0
    4.2950   -0.3580    1.8550 N   0  0  0  0  0  0  0  0  0  0  0  0
    5.6080   -0.1720    1.2850 C   0  0  0  0  0  0  0  0  0  0  0  0
    6.5920   -0.9080    1.4920 O   0  0  0  0  0  0  0  0  0  0  0  0
    5.5380    1.0040    0.4590 C   0  0  0  0  0  0  0  0  0  0  0  0
    6.4830    1.5880   -0.2220 C   0  0  0  0  0  0  0  0  0  0  0  0
    7.8540    1.1210   -0.3490 C   0  0  0  0  0  0  0  0  0  0  0  0
    8.9810    1.8360   -0.0730 N   0  0  0  0  0  0  0  0  0  0  0  0
   10.0540    1.1250   -0.3460 N   0  0  0  0  0  0  0  0  0  0  0  0
    9.7110   -0.0880   -0.8120 C   0  0  0  0  0  0  0  0  0  0  0  0
   10.5690   -1.2260   -1.2500 C   0  0  1  0  0  0  0  0  0  0  0  0
   12.0210   -0.8580   -1.0590 C   0  0  0  0  0  0  0  0  0  0  0  0
   12.3200   -1.3620    0.3340 C   0  0  0  0  0  0  0  0  0  0  0  0
   11.2380   -2.2040    0.7430 N   0  0  0  0  0  0  0  0  0  0  0  0
   10.4080   -2.4420   -0.3930 C   0  0  0  0  0  0  0  0  0  0  0  0
    8.3100   -0.0850   -0.8120 C   0  0  0  0  0  0  0  0  0  0  0  0
    7.5820   -1.1390   -1.2480 F   0  0  0  0  0  0  0  0  0  0  0  0
   -7.7390    0.5760   -1.5150 C   0  0  2  0  0  0  0  0  0  0  0  0
   -7.1260   -0.0990   -2.7320 C   0  0  0  0  0  0  0  0  0  0  0  0
   -8.1820    2.0020   -1.8770 C   0  0  0  0  0  0  0  0  0  0  0  0
   -8.9240   -0.1100   -1.2490 O   0  0  0  0  0  0  0  0  0  0  0  0
  1  2  1  0
  2  3  1  0
  3  4  1  0
  4  5  1  6
  4  6  1  0
  4 41  1  0
  6  7  1  0
  7  8  1  6
  7 38  1  0
  8  9  1  0
  9 10  2  0
  9 11  1  0
 11 12  1  0
 12 13  1  0
 13 14  2  0
 13 15  1  0
 15 16  1  0
 16 17  2  0
 16 21  1  0
 17 18  1  0
 18 19  2  0
 19 20  1  0
 19 25  1  0
 20 21  2  0
 20 22  1  0
 22 23  1  0
 23 24  2  0
 23 25  1  0
 25 26  2  3
 26 27  1  0
 27 28  1  0
 27 36  2  0
 28 29  1  0
 29 30  2  0
 31 30  1  1
 30 36  1  0
 31 32  1  0
 31 35  1  0
 32 33  1  0
 33 34  1  0
 34 35  1  0
 36 37  1  0
 38 39  1  6
 38 40  1  0
 38 41  1  0
M  END
