
     RDKit          3D

 44 48  0  0  0  0  0  0  0  0999 V2000
   -5.2660   -0.7570   -2.1200 C   0  0  0  0  0  0  0  0  0  0  0  0
   -4.7290   -0.4690   -0.8510 O   0  0  0  0  0  0  0  0  0  0  0  0
   -5.0920    0.6720   -0.1310 C   0  0  0  0  0  0  0  0  0  0  0  0
   -5.9740    1.5540   -0.6170 N   0  0  0  0  0  0  0  0  0  0  0  0
   -6.3350    2.6570    0.0580 C   0  0  0  0  0  0  0  0  0  0  0  0
   -5.8070    2.9400    1.3010 C   0  0  0  0  0  0  0  0  0  0  0  0
   -6.2530    4.1780    1.9860 C   0  0  0  0  0  0  0  0  0  0  0  0
   -4.8890    2.0490    1.8380 C   0  0  0  0  0  0  0  0  0  0  0  0
   -4.5430    0.9350    1.1300 C   0  0  0  0  0  0  0  0  0  0  0  0
   -3.4610   -0.0120    1.6030 C   0  0  2  0  0  0  0  0  0  0  0  0
   -4.0950   -1.4290    1.3280 C   0  0  0  0  0  0  0  0  0  0  0  0
   -3.2390    0.1160    3.0410 C   0  0  0  0  0  0  0  0  0  0  0  0
   -4.2380   -0.3230    4.0200 C   0  0  0  0  0  0  0  0  0  0  0  0
   -5.6250    0.1830    4.0760 C   0  0  0  0  0  0  0  0  0  0  0  0
   -6.3270   -0.4860    5.1530 O   0  0  0  0  0  0  0  0  0  0  0  0
   -2.3160    0.0650    0.7120 C   0  0  0  0  0  0  0  0  0  0  0  0
   -2.4510    0.9940   -0.2040 O   0  0  0  0  0  0  0  0  0  0  0  0
   -1.1070   -0.6420    0.6400 N   0  0  0  0  0  0  0  0  0  0  0  0
   -0.9470   -1.8870    1.3400 C   0  0  0  0  0  0  0  0  0  0  0  0
   -0.9870   -3.1170    0.4510 C   0  0  0  0  0  0  0  0  0  0  0  0
   -0.2080   -2.9920   -0.8020 C   0  0  0  0  0  0  0  0  0  0  0  0
   -0.6700   -1.9890   -1.7940 C   0  0  0  0  0  0  0  0  0  0  0  0
    0.4020   -0.9870   -2.2250 C   0  0  0  0  0  0  0  0  0  0  0  0
    1.0490   -0.3280   -0.9980 C   0  0  2  0  0  0  0  0  0  0  0  0
   -0.0560    0.0640   -0.1230 C   0  0  0  0  0  0  0  0  0  0  0  0
   -0.3070    1.3130    0.1220 C   0  0  0  0  0  0  0  0  0  0  0  0
    0.4980    2.3650   -0.4420 C   0  0  0  0  0  0  0  0  0  0  0  0
    1.5610    2.0850   -1.2270 C   0  0  0  0  0  0  0  0  0  0  0  0
    2.2810    3.2540   -1.7610 C   0  0  0  0  0  0  0  0  0  0  0  0
    3.3880    3.3130   -2.6010 N   0  0  0  0  0  0  0  0  0  0  0  0
    1.8370    4.4160   -1.4140 O   0  0  0  0  0  0  0  0  0  0  0  0
    2.0110    0.7020   -1.3300 C   0  0  2  0  0  0  0  0  0  0  0  0
    2.8480    0.4060   -2.5680 C   0  0  0  0  0  0  0  0  0  0  0  0
    3.5810   -0.8140   -2.5020 N   0  0  0  0  0  0  0  0  0  0  0  0
    4.9800   -0.8110   -2.2480 C   0  0  1  0  0  0  0  0  0  0  0  0
    5.7920    0.3600   -2.5910 C   0  0  0  0  0  0  0  0  0  0  0  0
    6.1260    1.3230   -1.5080 C   0  0  0  0  0  0  0  0  0  0  0  0
    7.3660    0.8250   -0.7630 C   0  0  0  0  0  0  0  0  0  0  0  0
    6.8990    0.1050    0.4390 C   0  0  0  0  0  0  0  0  0  0  0  0
    6.1080   -1.0870    0.2000 C   0  0  0  0  0  0  0  0  0  0  0  0
    6.0510   -2.0590    1.1270 C   0  0  0  0  0  0  0  0  0  0  0  0
    5.1920   -3.1370    0.6370 C   0  0  0  0  0  0  0  0  0  0  0  0
    4.7650   -2.6550   -0.6920 C   0  0  0  0  0  0  0  0  0  0  0  0
    5.3150   -1.4460   -0.9310 C   0  0  0  0  0  0  0  0  0  0  0  0
  1  2  1  0
  2  3  1  0
  3  4  2  0
  3  9  1  0
  4  5  1  0
  5  6  2  0
  6  7  1  0
  6  8  1  0
  8  9  2  0
  9 10  1  0
 10 11  1  1
 10 12  1  0
 10 16  1  0
 12 13  1  0
 13 14  1  0
 14 15  1  0
 16 17  2  0
 16 18  1  0
 18 19  1  0
 18 25  1  0
 19 20  1  0
 20 21  1  0
 21 22  1  0
 22 23  1  0
 24 23  1  6
 24 25  1  0
 24 32  1  0
 25 26  2  0
 26 27  1  0
 27 28  2  0
 28 29  1  0
 28 32  1  0
 29 30  1  0
 29 31  2  0
 32 33  1  6
 33 34  1  0
 35 34  1  1
 35 36  1  0
 35 44  1  0
 36 37  1  0
 37 38  1  0
 38 39  1  0
 39 40  1  0
 40 41  2  0
 40 44  1  0
 41 42  1  0
 42 43  1  0
 43 44  2  0
M  CHG  1  34   1
M  END
