
     RDKit          3D

 44 49  0  0  0  0  0  0  0  0999 V2000
   -6.0540   -3.5540    1.9310 C   0  0  0  0  0  0  0  0  0  0  0  0
   -5.5790   -2.2800    1.4940 N   0  0  0  0  0  0  0  0  0  0  0  0
   -5.8280   -2.0200    0.0690 C   0  0  2  0  0  0  0  0  0  0  0  0
   -4.6690   -1.1820   -0.4180 C   0  0  0  0  0  0  0  0  0  0  0  0
   -4.9280   -0.3580   -1.5360 N   0  0  0  0  0  0  0  0  0  0  0  0
   -4.0760    0.6240   -2.0320 C   0  0  0  0  0  0  0  0  0  0  0  0
   -4.6160    1.2700   -3.0530 O   0  0  0  0  0  0  0  0  0  0  0  0
   -2.7580    1.0410   -1.6420 C   0  0  0  0  0  0  0  0  0  0  0  0
   -2.2620    2.2040   -2.2660 C   0  0  0  0  0  0  0  0  0  0  0  0
   -0.9920    2.6590   -2.0160 C   0  0  0  0  0  0  0  0  0  0  0  0
   -0.1310    2.0130   -1.1470 C   0  0  0  0  0  0  0  0  0  0  0  0
    1.2030    2.5160   -0.9330 C   0  0  0  0  0  0  0  0  0  0  0  0
    1.5880    3.6650   -1.5880 F   0  0  0  0  0  0  0  0  0  0  0  0
    2.1020    1.9460   -0.1680 C   0  0  0  0  0  0  0  0  0  0  0  0
    3.4210    2.4740    0.0230 C   0  0  0  0  0  0  0  0  0  0  0  0
    4.5620    1.6830   -0.1660 C   0  0  0  0  0  0  0  0  0  0  0  0
    5.6100    2.4530    0.0980 N   0  0  0  0  0  0  0  0  0  0  0  0
    5.1680    3.7070    0.4510 C   0  0  0  0  0  0  0  0  0  0  0  0
    5.8090    4.8670    0.8220 C   0  0  0  0  0  0  0  0  0  0  0  0
    5.1290    6.0200    1.1440 C   0  0  0  0  0  0  0  0  0  0  0  0
    3.7570    6.0430    1.1020 C   0  0  0  0  0  0  0  0  0  0  0  0
    3.0880    4.8940    0.7330 C   0  0  0  0  0  0  0  0  0  0  0  0
    3.7900    3.7420    0.4110 C   0  0  0  0  0  0  0  0  0  0  0  0
    6.9830    1.9870    0.0070 C   0  0  0  0  0  0  0  0  0  0  0  0
    7.0690    0.6880   -0.7650 C   0  0  0  0  0  0  0  0  0  0  0  0
    6.0040   -0.1960   -0.3730 N   0  0  0  0  0  0  0  0  0  0  0  0
    6.2790   -1.4540    0.1910 C   0  0  0  0  0  0  0  0  0  0  0  0
    7.5180   -1.7980    0.7000 C   0  0  0  0  0  0  0  0  0  0  0  0
    7.7640   -3.0410    1.2280 C   0  0  0  0  0  0  0  0  0  0  0  0
    6.7770   -4.0150    1.2770 C   0  0  0  0  0  0  0  0  0  0  0  0
    5.5310   -3.7030    0.7780 C   0  0  0  0  0  0  0  0  0  0  0  0
    4.4860   -4.7570    0.8420 C   0  0  0  0  0  0  0  0  0  0  0  0
    5.2850   -2.4450    0.2430 C   0  0  0  0  0  0  0  0  0  0  0  0
    4.6640    0.2680   -0.5800 C   0  0  0  0  0  0  0  0  0  0  0  0
   -0.6040    0.8870   -0.5380 C   0  0  0  0  0  0  0  0  0  0  0  0
   -1.9070    0.4030   -0.7820 C   0  0  0  0  0  0  0  0  0  0  0  0
   -6.1910   -0.5970   -2.2420 C   0  0  0  0  0  0  0  0  0  0  0  0
   -7.3760   -0.6470   -1.3520 C   0  0  0  0  0  0  0  0  0  0  0  0
   -7.1850   -1.4860   -0.1240 C   0  0  1  0  0  0  0  0  0  0  0  0
   -8.1060   -2.7120   -0.3060 C   0  0  0  0  0  0  0  0  0  0  0  0
   -7.6860   -0.8140    1.0730 N   0  0  0  0  0  0  0  0  0  0  0  0
   -7.2330    0.4550    1.5080 C   0  0  0  0  0  0  0  0  0  0  0  0
   -6.3700    1.0700    0.8750 O   0  0  0  0  0  0  0  0  0  0  0  0
   -7.7350    1.0260    2.6280 F   0  0  0  0  0  0  0  0  0  0  0  0
  1  2  1  0
  3  2  1  1
  3  4  1  0
  3 39  1  0
  4  5  1  0
  5  6  1  0
  5 37  1  0
  6  7  2  0
  6  8  1  0
  8  9  2  0
  8 36  1  0
  9 10  1  0
 10 11  2  0
 11 12  1  0
 11 35  1  0
 12 13  1  0
 12 14  2  3
 14 15  1  0
 15 16  2  0
 15 23  1  0
 16 17  1  0
 16 34  1  0
 17 18  1  0
 17 24  1  0
 18 19  2  0
 18 23  1  0
 19 20  1  0
 20 21  2  0
 21 22  1  0
 22 23  2  0
 24 25  1  0
 25 26  1  0
 26 27  1  0
 26 34  1  0
 27 28  2  0
 27 33  1  0
 28 29  1  0
 29 30  2  0
 30 31  1  0
 31 32  1  0
 31 33  2  0
 35 36  2  0
 37 38  1  0
 38 39  1  0
 39 40  1  6
 39 41  1  0
 41 42  1  0
 42 43  2  0
 42 44  1  0
M  CHG  1   2   1
M  END
