
     RDKit          3D

 44 48  0  0  0  0  0  0  0  0999 V2000
    5.8920   -0.7860    2.3250 C   0  0  0  0  0  0  0  0  0  0  0  0
    6.7640    0.3170    1.8320 C   0  0  0  0  0  0  0  0  0  0  0  0
    7.5230   -0.0170    0.5520 C   0  0  1  0  0  0  0  0  0  0  0  0
    8.3530    1.2580    0.2720 C   0  0  0  0  0  0  0  0  0  0  0  0
    8.4700   -1.1490    0.8600 C   0  0  0  0  0  0  0  0  0  0  0  0
    6.7250   -0.1850   -0.5570 O   0  0  0  0  0  0  0  0  0  0  0  0
    5.7160   -1.0720   -0.8230 C   0  0  0  0  0  0  0  0  0  0  0  0
    4.3990   -0.7850   -0.5180 C   0  0  0  0  0  0  0  0  0  0  0  0
    3.3300   -1.6190   -0.7520 C   0  0  0  0  0  0  0  0  0  0  0  0
    1.9610   -1.2690   -0.4280 C   0  0  0  0  0  0  0  0  0  0  0  0
    1.3290   -0.2600   -0.9660 C   0  0  0  0  0  0  0  0  0  0  0  0
    1.9480    0.5900   -1.9460 C   0  0  0  0  0  0  0  0  0  0  0  0
    3.0920    0.4310   -2.4230 O   0  0  0  0  0  0  0  0  0  0  0  0
    1.2100    1.7040   -2.4260 N   0  0  0  0  0  0  0  0  0  0  0  0
   -0.1090    1.9950   -1.9680 C   0  0  0  0  0  0  0  0  0  0  0  0
   -0.7380    3.1940   -2.5810 C   0  0  0  0  0  0  0  0  0  0  0  0
   -0.7410    1.2180   -1.0440 C   0  0  0  0  0  0  0  0  0  0  0  0
   -2.0620    1.5950   -0.6440 C   0  0  0  0  0  0  0  0  0  0  0  0
   -2.4560    2.7250   -1.2400 O   0  0  0  0  0  0  0  0  0  0  0  0
   -3.1220    1.1290    0.2170 C   0  0  2  0  0  0  0  0  0  0  0  0
   -3.7640    2.1690    0.9590 N   0  0  0  0  0  0  0  0  0  0  0  0
   -4.5400    3.1770    0.4600 C   0  0  0  0  0  0  0  0  0  0  0  0
   -5.9290    2.9640   -0.0170 C   0  0  2  0  0  0  0  0  0  0  0  0
   -6.2320    2.0420   -1.1160 C   0  0  0  0  0  0  0  0  0  0  0  0
   -5.5960    2.4240   -2.4190 C   0  0  0  0  0  0  0  0  0  0  0  0
   -5.5190    3.8470   -2.5070 N   0  0  0  0  0  0  0  0  0  0  0  0
   -6.4810    4.5660   -1.7400 C   0  0  0  0  0  0  0  0  0  0  0  0
   -6.5210    4.2770   -0.3440 N   0  0  0  0  0  0  0  0  0  0  0  0
   -3.0210   -0.0950    0.9920 C   0  0  0  0  0  0  0  0  0  0  0  0
   -2.6310   -0.0860    2.3330 C   0  0  0  0  0  0  0  0  0  0  0  0
   -2.6180   -1.2560    3.0720 C   0  0  0  0  0  0  0  0  0  0  0  0
   -2.9880   -2.4650    2.5160 C   0  0  0  0  0  0  0  0  0  0  0  0
   -3.3810   -2.4900    1.1720 C   0  0  0  0  0  0  0  0  0  0  0  0
   -3.3930   -1.3330    0.4430 C   0  0  0  0  0  0  0  0  0  0  0  0
   -3.7620   -3.7970    0.5920 C   0  0  0  0  0  0  0  0  0  0  0  0
   -4.7780   -4.4070    1.5620 C   0  0  0  0  0  0  0  0  0  0  0  0
   -4.1610   -4.6420    2.9030 C   0  0  0  0  0  0  0  0  0  0  0  0
   -3.0100   -3.7550    3.2430 C   0  0  0  0  0  0  0  0  0  0  0  0
   -0.0550    0.0730   -0.5100 C   0  0  0  0  0  0  0  0  0  0  0  0
   -0.5000   -0.7140    0.3300 O   0  0  0  0  0  0  0  0  0  0  0  0
    3.6270   -2.8570   -1.3500 C   0  0  0  0  0  0  0  0  0  0  0  0
    4.9280   -3.1700   -1.6640 C   0  0  0  0  0  0  0  0  0  0  0  0
    5.9700   -2.3020   -1.4110 C   0  0  0  0  0  0  0  0  0  0  0  0
    7.3390   -2.7260   -1.7850 C   0  0  0  0  0  0  0  0  0  0  0  0
  1  2  1  0
  2  3  1  0
  3  4  1  6
  3  5  1  0
  3  6  1  0
  6  7  1  0
  7  8  2  0
  7 43  1  0
  8  9  1  0
  9 10  1  0
  9 41  2  0
 10 11  2  3
 11 12  1  0
 11 39  1  0
 12 13  2  0
 12 14  1  0
 14 15  1  0
 15 16  1  0
 15 17  2  0
 17 18  1  0
 17 39  1  0
 18 19  2  0
 18 20  1  0
 20 21  1  1
 20 29  1  0
 21 22  1  0
 23 22  1  6
 23 24  1  0
 23 28  1  0
 24 25  1  0
 25 26  1  0
 26 27  1  0
 27 28  1  0
 29 30  2  0
 29 34  1  0
 30 31  1  0
 31 32  2  0
 32 33  1  0
 32 38  1  0
 33 34  2  0
 33 35  1  0
 35 36  1  0
 36 37  1  0
 37 38  1  0
 39 40  2  0
 41 42  1  0
 42 43  2  0
 43 44  1  0
M  CHG  1  28   1
M  END
