
     RDKit          3D

 44 48  0  0  0  0  0  0  0  0999 V2000
   -6.1120    0.8710   -0.1860 C   0  0  0  0  0  0  0  0  0  0  0  0
   -5.8760   -0.1790    0.5620 C   0  0  0  0  0  0  0  0  0  0  0  0
   -5.1730   -1.3170    0.0260 C   0  0  0  0  0  0  0  0  0  0  0  0
   -4.9740   -2.3450    0.8620 C   0  0  0  0  0  0  0  0  0  0  0  0
   -4.2920   -3.6110    0.5690 C   0  0  0  0  0  0  0  0  0  0  0  0
   -5.0180   -4.3740   -0.4890 C   0  0  0  0  0  0  0  0  0  0  0  0
   -5.0590   -3.6820   -1.8150 C   0  0  0  0  0  0  0  0  0  0  0  0
   -4.1560   -2.5010   -1.9140 C   0  0  0  0  0  0  0  0  0  0  0  0
   -4.7570   -1.2210   -1.3780 C   0  0  2  0  0  0  0  0  0  0  0  0
   -3.7160   -0.2330   -1.4510 N   0  0  0  0  0  0  0  0  0  0  0  0
   -2.9340   -0.0780   -0.4590 C   0  0  0  0  0  0  0  0  0  0  0  0
   -1.8130    0.9290   -0.4360 C   0  0  2  0  0  0  0  0  0  0  0  0
   -1.5130    1.4380   -1.8060 C   0  0  0  0  0  0  0  0  0  0  0  0
   -0.5980    0.2180    0.1100 C   0  0  0  0  0  0  0  0  0  0  0  0
    0.6340    1.0400    0.2030 C   0  0  2  0  0  0  0  0  0  0  0  0
    1.7200    0.2170    0.7550 N   0  0  0  0  0  0  0  0  0  0  0  0
    2.0260   -0.8600   -0.1340 C   0  0  0  0  0  0  0  0  0  0  0  0
    3.1760   -1.6760    0.3720 C   0  0  0  0  0  0  0  0  0  0  0  0
    3.7370   -1.4850    1.5980 C   0  0  0  0  0  0  0  0  0  0  0  0
    4.7970   -2.2660    2.0160 C   0  0  0  0  0  0  0  0  0  0  0  0
    5.3180   -3.2550    1.2160 C   0  0  0  0  0  0  0  0  0  0  0  0
    4.7320   -3.4300   -0.0240 C   0  0  0  0  0  0  0  0  0  0  0  0
    3.6710   -2.6580   -0.4580 C   0  0  0  0  0  0  0  0  0  0  0  0
    5.1600   -4.4450   -1.0230 C   0  0  0  0  0  0  0  0  0  0  0  0
    6.6690   -4.5260   -1.0920 C   0  0  0  0  0  0  0  0  0  0  0  0
    7.2520   -5.4210   -0.0360 C   0  0  0  0  0  0  0  0  0  0  0  0
    6.4600   -5.3890    1.2490 C   0  0  0  0  0  0  0  0  0  0  0  0
    6.4640   -3.9990    1.8400 C   0  0  0  0  0  0  0  0  0  0  0  0
    0.5010    2.2930    1.0660 C   0  0  1  0  0  0  0  0  0  0  0  0
   -0.4630    3.1870    0.6440 O   0  0  0  0  0  0  0  0  0  0  0  0
   -0.2820    4.4630    0.1760 C   0  0  0  0  0  0  0  0  0  0  0  0
    0.9150    5.1100    0.0300 C   0  0  0  0  0  0  0  0  0  0  0  0
    1.0340    6.4050   -0.4510 C   0  0  0  0  0  0  0  0  0  0  0  0
   -0.1060    7.0800   -0.8010 C   0  0  0  0  0  0  0  0  0  0  0  0
   -1.3460    6.4560   -0.6660 C   0  0  0  0  0  0  0  0  0  0  0  0
   -1.4310    5.1810   -0.1900 C   0  0  0  0  0  0  0  0  0  0  0  0
   -2.4970    7.1790   -1.0330 N   0  0  0  0  0  0  0  0  0  0  0  0
   -2.3470    8.5010   -1.5210 C   0  0  0  0  0  0  0  0  0  0  0  0
   -3.2550    9.0120   -2.2320 O   0  0  0  0  0  0  0  0  0  0  0  0
   -1.1080    9.2450   -1.1700 C   0  0  0  0  0  0  0  0  0  0  0  0
    0.0100    8.3760   -1.2820 O   0  0  0  0  0  0  0  0  0  0  0  0
    0.2910    1.8910    2.4980 C   0  0  0  0  0  0  0  0  0  0  0  0
    1.1680    0.9720    3.1020 N   0  0  0  0  0  0  0  0  0  0  0  0
   -0.6570    2.3710    3.1430 O   0  0  0  0  0  0  0  0  0  0  0  0
  1  2  2  0
  2  3  1  0
  3  4  2  0
  3  9  1  0
  4  5  1  0
  5  6  1  0
  6  7  1  0
  7  8  1  0
  8  9  1  0
  9 10  1  1
 10 11  2  3
 11 12  1  0
 12 13  1  6
 12 14  1  0
 15 14  1  1
 15 16  1  0
 15 29  1  0
 16 17  1  0
 17 18  1  0
 18 19  2  0
 18 23  1  0
 19 20  1  0
 20 21  2  0
 21 22  1  0
 21 28  1  0
 22 23  2  0
 22 24  1  0
 24 25  1  0
 25 26  1  0
 26 27  1  0
 27 28  1  0
 29 30  1  6
 29 42  1  0
 30 31  1  0
 31 32  2  0
 31 36  1  0
 32 33  1  0
 33 34  2  0
 34 35  1  0
 34 41  1  0
 35 36  2  0
 35 37  1  0
 37 38  1  0
 38 39  2  0
 38 40  1  0
 40 41  1  0
 42 43  1  0
 42 44  2  0
M  CHG  1  10   1
M  END
