
     RDKit          3D

 41 44  0  0  0  0  0  0  0  0999 V2000
   10.7420    0.8600   -0.9370 C   0  0  0  0  0  0  0  0  0  0  0  0
    9.6260    1.2110   -1.7390 O   0  0  0  0  0  0  0  0  0  0  0  0
    8.3410    1.0410   -1.2440 C   0  0  0  0  0  0  0  0  0  0  0  0
    7.2980    1.4000   -2.0700 C   0  0  0  0  0  0  0  0  0  0  0  0
    6.0060    1.2390   -1.5980 C   0  0  0  0  0  0  0  0  0  0  0  0
    5.6970    0.7360   -0.3390 C   0  0  0  0  0  0  0  0  0  0  0  0
    4.3980    0.5560    0.1580 N   0  0  0  0  0  0  0  0  0  0  0  0
    3.1810    0.8580   -0.4880 C   0  0  0  0  0  0  0  0  0  0  0  0
    3.2340    1.3540   -1.6560 O   0  0  0  0  0  0  0  0  0  0  0  0
    1.8830    0.6340    0.1010 N   0  0  0  0  0  0  0  0  0  0  0  0
    0.7120    0.9800   -0.6520 C   0  0  0  0  0  0  0  0  0  0  0  0
   -0.5060    0.1690   -0.4450 C   0  0  0  0  0  0  0  0  0  0  0  0
   -0.4800   -0.7470    0.6410 N   0  0  0  0  0  0  0  0  0  0  0  0
   -1.6270   -1.3360    1.1870 C   0  0  0  0  0  0  0  0  0  0  0  0
   -1.2940   -2.0670    2.2640 O   0  0  0  0  0  0  0  0  0  0  0  0
   -3.0130   -1.3760    0.9260 C   0  0  0  0  0  0  0  0  0  0  0  0
   -3.9030   -0.9810    0.1250 C   0  0  0  0  0  0  0  0  0  0  0  0
   -3.9430   -0.1950   -1.0770 C   0  0  1  0  0  0  0  0  0  0  0  0
   -4.6690   -0.9290   -2.2030 C   0  0  0  0  0  0  0  0  0  0  0  0
   -5.5470   -0.0040   -2.8450 N   0  0  0  0  0  0  0  0  0  0  0  0
   -6.4730   -0.3790   -3.8710 C   0  0  0  0  0  0  0  0  0  0  0  0
   -6.5380   -1.7300   -4.2810 N   0  0  0  0  0  0  0  0  0  0  0  0
   -7.2390    0.4460   -4.4260 O   0  0  0  0  0  0  0  0  0  0  0  0
   -5.3320    1.2890   -2.2970 C   0  0  0  0  0  0  0  0  0  0  0  0
   -4.7770    1.0700   -0.9330 C   0  0  1  0  0  0  0  0  0  0  0  0
   -5.8510    1.1710    0.4380 S   0  0  0  0  0  0  0  0  0  0  0  0
   -7.2420    0.1280    0.5820 C   0  0  0  0  0  0  0  0  0  0  0  0
   -8.0790    0.1950    1.6480 C   0  0  0  0  0  0  0  0  0  0  0  0
   -7.9710    1.1060    2.8080 C   0  0  0  0  0  0  0  0  0  0  0  0
   -9.1160    1.9260    2.9140 O   0  0  0  0  0  0  0  0  0  0  0  0
   -9.1350   -0.8020    1.4630 C   0  0  0  0  0  0  0  0  0  0  0  0
   -8.8260   -1.4470    0.1900 C   0  0  0  0  0  0  0  0  0  0  0  0
   -7.7210   -0.8900   -0.3040 C   0  0  0  0  0  0  0  0  0  0  0  0
    0.8110   -1.1740    1.2440 C   0  0  0  0  0  0  0  0  0  0  0  0
    1.6650    0.0730    1.4040 C   0  0  0  0  0  0  0  0  0  0  0  0
    6.7760    0.3860    0.4640 C   0  0  0  0  0  0  0  0  0  0  0  0
    6.6050   -0.1490    1.8010 C   0  0  2  0  0  0  0  0  0  0  0  0
    7.9820   -0.4390    2.4380 C   0  0  0  0  0  0  0  0  0  0  0  0
    5.9430   -1.5220    1.7330 C   0  0  0  0  0  0  0  0  0  0  0  0
    5.8770    0.7130    2.7800 C   0  0  0  0  0  0  0  0  0  0  0  0
    8.0890    0.5390    0.0100 C   0  0  0  0  0  0  0  0  0  0  0  0
  1  2  1  0
  2  3  1  0
  3  4  2  0
  3 41  1  0
  4  5  1  0
  5  6  2  0
  6  7  1  0
  6 36  1  0
  7  8  1  0
  8  9  2  0
  8 10  1  0
 10 11  1  0
 10 35  1  0
 11 12  1  0
 12 13  1  0
 13 14  1  0
 13 34  1  0
 14 15  2  0
 14 16  1  0
 16 17  2  3
 18 17  1  1
 18 19  1  0
 18 25  1  0
 19 20  1  0
 20 21  1  0
 20 24  1  0
 21 22  1  0
 21 23  2  0
 24 25  1  0
 25 26  1  1
 26 27  1  0
 27 28  2  0
 27 33  1  0
 28 29  1  0
 28 31  1  0
 29 30  1  0
 31 32  1  0
 32 33  2  0
 34 35  1  0
 36 37  1  0
 36 41  2  0
 37 38  1  1
 37 39  1  0
 37 40  1  0
M  END
