
     RDKit          3D

 41 44  0  0  0  0  0  0  0  0999 V2000
    3.2940    0.8110   -3.9790 C   0  0  0  0  0  0  0  0  0  0  0  0
    4.2440    0.4980   -2.8740 C   0  0  0  0  0  0  0  0  0  0  0  0
    4.1060   -0.6440   -2.1800 C   0  0  0  0  0  0  0  0  0  0  0  0
    2.9960   -1.5060   -2.5870 C   0  0  0  0  0  0  0  0  0  0  0  0
    1.7990   -1.5000   -1.7190 C   0  0  0  0  0  0  0  0  0  0  0  0
    1.9120   -1.9120   -0.3120 C   0  0  0  0  0  0  0  0  0  0  0  0
    0.6180   -1.9150    0.4660 C   0  0  0  0  0  0  0  0  0  0  0  0
   -0.1030   -0.3150    0.5430 S   0  0  2  0  0  0  0  0  0  0  0  0
   -0.4750    0.2340   -0.8030 O   0  0  0  0  0  0  0  0  0  0  0  0
    0.8290    0.6550    1.2000 O   0  0  0  0  0  0  0  0  0  0  0  0
   -1.5660   -0.3420    1.4930 N   0  0  0  0  0  0  0  0  0  0  0  0
   -2.5660   -1.2050    0.9270 C   0  0  1  0  0  0  0  0  0  0  0  0
   -2.8310   -2.3800    1.8360 C   0  0  0  0  0  0  0  0  0  0  0  0
   -4.1500   -3.0430    1.6260 C   0  0  0  0  0  0  0  0  0  0  0  0
   -4.7530   -2.6570    0.2830 C   0  0  0  0  0  0  0  0  0  0  0  0
   -4.9670   -1.2180    0.3530 N   0  0  0  0  0  0  0  0  0  0  0  0
   -6.2640   -0.6570    0.1820 C   0  0  1  0  0  0  0  0  0  0  0  0
   -6.6900    0.0030    1.4740 C   0  0  0  0  0  0  0  0  0  0  0  0
   -8.1870    0.1740    1.5540 C   0  0  0  0  0  0  0  0  0  0  0  0
   -8.6490    1.4790    0.9980 C   0  0  0  0  0  0  0  0  0  0  0  0
   -8.2610    1.7540   -0.3410 N   0  0  0  0  0  0  0  0  0  0  0  0
   -7.4520    2.9240   -0.4880 C   0  0  0  0  0  0  0  0  0  0  0  0
   -7.1330    3.0760   -1.8980 N   0  0  0  0  0  0  0  0  0  0  0  0
   -7.8610    0.6400   -1.1350 C   0  0  0  0  0  0  0  0  0  0  0  0
   -6.3900    0.2810   -0.9950 C   0  0  0  0  0  0  0  0  0  0  0  0
   -3.7950   -0.4380    0.6030 C   0  0  0  0  0  0  0  0  0  0  0  0
   -3.8520    0.8160    0.5400 O   0  0  0  0  0  0  0  0  0  0  0  0
    5.0030   -1.0250   -1.1220 C   0  0  0  0  0  0  0  0  0  0  0  0
    4.9220   -2.0870   -0.4500 O   0  0  0  0  0  0  0  0  0  0  0  0
    6.1310   -0.1220   -0.7690 C   0  0  0  0  0  0  0  0  0  0  0  0
    6.9340   -0.4390    0.2190 C   0  0  0  0  0  0  0  0  0  0  0  0
    8.0790    0.2710    0.7230 C   0  0  0  0  0  0  0  0  0  0  0  0
    9.1550    0.5940   -0.0740 C   0  0  0  0  0  0  0  0  0  0  0  0
   10.2540    1.3020    0.3810 C   0  0  0  0  0  0  0  0  0  0  0  0
   10.2730    1.7030    1.6980 C   0  0  0  0  0  0  0  0  0  0  0  0
   11.4160    2.4710    2.2760 C   0  0  0  0  0  0  0  0  0  0  0  0
    9.1990    1.3820    2.5000 C   0  0  0  0  0  0  0  0  0  0  0  0
    8.1020    0.6790    2.0570 C   0  0  0  0  0  0  0  0  0  0  0  0
    6.2290    1.0960   -1.5460 C   0  0  0  0  0  0  0  0  0  0  0  0
    7.1650    1.9210   -1.2970 O   0  0  0  0  0  0  0  0  0  0  0  0
    5.2910    1.3990   -2.5910 N   0  0  0  0  0  0  0  0  0  0  0  0
  1  2  1  0
  2  3  2  0
  2 41  1  0
  3  4  1  0
  3 28  1  0
  4  5  1  0
  5  6  1  0
  6  7  1  0
  8  7  1  6
  8  9  2  0
  8 10  2  0
  8 11  1  0
 12 11  1  1
 12 13  1  0
 12 26  1  0
 13 14  1  0
 14 15  1  0
 15 16  1  0
 17 16  1  1
 16 26  1  0
 17 18  1  0
 17 25  1  0
 18 19  1  0
 19 20  1  0
 20 21  1  0
 21 22  1  0
 21 24  1  0
 22 23  1  0
 24 25  1  0
 26 27  2  0
 28 29  2  0
 28 30  1  0
 30 31  2  3
 30 39  1  0
 31 32  1  0
 32 33  2  0
 32 38  1  0
 33 34  1  0
 34 35  2  0
 35 36  1  0
 35 37  1  0
 37 38  2  0
 39 40  2  0
 39 41  1  0
M  END
