
     RDKit          3D

 41 43  0  0  0  0  0  0  0  0999 V2000
   -5.5000   -1.5060   -3.3740 C   0  0  0  0  0  0  0  0  0  0  0  0
   -6.0750   -0.3650   -3.1600 C   0  0  0  0  0  0  0  0  0  0  0  0
   -5.7190    0.6490   -2.2000 C   0  0  0  0  0  0  0  0  0  0  0  0
   -6.4540    1.7940   -2.1770 C   0  0  0  0  0  0  0  0  0  0  0  0
   -6.3100    2.9340   -1.3390 C   0  0  0  0  0  0  0  0  0  0  0  0
   -6.6280    3.2160   -0.1110 C   0  0  0  0  0  0  0  0  0  0  0  0
   -7.3050    2.3670    0.9020 C   0  0  0  0  0  0  0  0  0  0  0  0
   -7.8640    1.0870    0.3990 C   0  0  2  0  0  0  0  0  0  0  0  0
   -9.1530    0.6980    1.1560 C   0  0  0  0  0  0  0  0  0  0  0  0
   -7.0250   -0.0730    0.4810 N   0  0  0  0  0  0  0  0  0  0  0  0
   -6.5160   -0.3060    1.7760 C   0  0  0  0  0  0  0  0  0  0  0  0
   -5.2540   -1.1040    1.8480 C   0  0  1  0  0  0  0  0  0  0  0  0
   -5.6000   -2.5910    1.9360 C   0  0  0  0  0  0  0  0  0  0  0  0
   -4.2590   -0.8750    0.8310 N   0  0  0  0  0  0  0  0  0  0  0  0
   -2.9280   -0.6980    1.2460 C   0  0  0  0  0  0  0  0  0  0  0  0
   -2.7240   -0.6610    2.5210 O   0  0  0  0  0  0  0  0  0  0  0  0
   -1.7720   -0.5620    0.4210 C   0  0  0  0  0  0  0  0  0  0  0  0
   -1.7720   -0.6050   -0.8400 O   0  0  0  0  0  0  0  0  0  0  0  0
   -0.4440   -0.3570    0.9890 N   0  0  0  0  0  0  0  0  0  0  0  0
    0.6590   -0.2270    0.1640 N   0  0  0  0  0  0  0  0  0  0  0  0
    1.6350   -1.2170   -0.0270 C   0  0  0  0  0  0  0  0  0  0  0  0
    1.5110   -2.3140    0.5980 O   0  0  0  0  0  0  0  0  0  0  0  0
    2.8070   -0.9760   -0.9660 C   0  0  2  0  0  0  0  0  0  0  0  0
    3.4080   -2.3270   -1.1940 C   0  0  0  0  0  0  0  0  0  0  0  0
    4.5350   -2.2980   -2.1650 C   0  0  0  0  0  0  0  0  0  0  0  0
    3.8520    0.1290   -0.0780 S   0  0  2  0  0  0  0  0  0  0  0  0
    4.0960   -0.4360    1.3060 O   0  0  0  0  0  0  0  0  0  0  0  0
    3.0350    1.3950    0.1700 O   0  0  0  0  0  0  0  0  0  0  0  0
    5.3050    0.5620   -0.8380 N   0  0  0  0  0  0  0  0  0  0  0  0
    6.6170    0.3280   -0.3590 C   0  0  0  0  0  0  0  0  0  0  0  0
    6.9550   -0.8170    0.3140 C   0  0  0  0  0  0  0  0  0  0  0  0
    8.2440   -1.0480    0.8080 C   0  0  0  0  0  0  0  0  0  0  0  0
    9.2210   -0.1220    0.6310 C   0  0  0  0  0  0  0  0  0  0  0  0
    8.9020    1.0380   -0.0420 C   0  0  0  0  0  0  0  0  0  0  0  0
    7.6250    1.2860   -0.5400 C   0  0  0  0  0  0  0  0  0  0  0  0
   10.0080    2.0210   -0.2080 C   0  0  0  0  0  0  0  0  0  0  0  0
   10.6240    2.2370    1.1670 C   0  0  0  0  0  0  0  0  0  0  0  0
   11.0070    0.9670    1.8490 C   0  0  0  0  0  0  0  0  0  0  0  0
   10.6140   -0.2860    1.1100 C   0  0  0  0  0  0  0  0  0  0  0  0
   -4.5800   -0.8530   -0.5930 C   0  0  0  0  0  0  0  0  0  0  0  0
   -4.5950    0.4680   -1.2510 C   0  0  0  0  0  0  0  0  0  0  0  0
  1  2  2  0
  2  3  1  0
  3  4  2  0
  3 41  1  0
  4  5  1  0
  5  6  2  0
  6  7  1  0
  7  8  1  0
  8  9  1  1
  8 10  1  0
 10 11  1  0
 11 12  1  0
 12 13  1  6
 12 14  1  0
 14 15  1  0
 14 40  1  0
 15 16  2  0
 15 17  1  0
 17 18  2  0
 17 19  1  0
 19 20  1  0
 20 21  1  0
 21 22  2  0
 21 23  1  0
 23 24  1  1
 23 26  1  0
 24 25  1  0
 26 27  2  0
 26 28  2  0
 26 29  1  6
 29 30  1  0
 30 31  2  0
 30 35  1  0
 31 32  1  0
 32 33  2  0
 33 34  1  0
 33 39  1  0
 34 35  2  0
 34 36  1  0
 36 37  1  0
 37 38  1  0
 38 39  1  0
 40 41  1  0
M  END
