
     RDKit          3D

 39 41  0  0  0  0  0  0  0  0999 V2000
    9.8910    0.2670    2.0410 C   0  0  0  0  0  0  0  0  0  0  0  0
    8.6250    0.5580    1.5070 O   0  0  0  0  0  0  0  0  0  0  0  0
    8.2820    1.8000    0.9900 C   0  0  0  0  0  0  0  0  0  0  0  0
    9.1110    2.7310    0.9690 O   0  0  0  0  0  0  0  0  0  0  0  0
    6.8950    1.9300    0.4850 C   0  0  0  0  0  0  0  0  0  0  0  0
    6.7480    1.7690   -1.2960 S   0  0  0  0  0  0  0  0  0  0  0  0
    7.2530    0.2050   -1.9290 C   0  0  0  0  0  0  0  0  0  0  0  0
    8.5370    0.0390   -2.3710 N   0  0  0  0  0  0  0  0  0  0  0  0
    9.0010   -1.1360   -2.8330 C   0  0  0  0  0  0  0  0  0  0  0  0
    8.1580   -2.1800   -2.8560 N   0  0  0  0  0  0  0  0  0  0  0  0
    6.8920   -2.0580   -2.4310 C   0  0  0  0  0  0  0  0  0  0  0  0
    6.0810   -3.0470   -2.4510 O   0  0  0  0  0  0  0  0  0  0  0  0
    6.3750   -0.8530   -1.9440 C   0  0  0  0  0  0  0  0  0  0  0  0
    5.0010   -0.7650   -1.4860 C   0  0  0  0  0  0  0  0  0  0  0  0
    4.3030   -1.8160   -1.4980 O   0  0  0  0  0  0  0  0  0  0  0  0
    4.3750    0.3830   -1.0280 O   0  0  0  0  0  0  0  0  0  0  0  0
    3.0140    0.3320   -0.5620 C   0  0  0  0  0  0  0  0  0  0  0  0
    2.9360   -0.4780    0.6880 C   0  0  0  0  0  0  0  0  0  0  0  0
    1.7310   -0.6270    1.2300 O   0  0  0  0  0  0  0  0  0  0  0  0
    0.7130   -1.2480    0.6360 C   0  0  1  0  0  0  0  0  0  0  0  0
    0.3890   -2.5820    1.3740 C   0  0  0  0  0  0  0  0  0  0  0  0
    0.1560   -2.3260    2.6970 O   0  0  0  0  0  0  0  0  0  0  0  0
   -0.7730   -1.3860    3.0060 C   0  0  0  0  0  0  0  0  0  0  0  0
   -0.5690   -0.0650    2.2330 C   0  0  0  0  0  0  0  0  0  0  0  0
   -0.5880   -0.4330    0.7800 C   0  0  1  0  0  0  0  0  0  0  0  0
   -0.5720    0.6120   -0.2310 C   0  0  0  0  0  0  0  0  0  0  0  0
   -1.6630    1.5550   -0.4470 C   0  0  2  0  0  0  0  0  0  0  0  0
   -2.0820    2.4820    0.6500 C   0  0  0  0  0  0  0  0  0  0  0  0
   -3.2260    3.3290   -0.0150 C   0  0  0  0  0  0  0  0  0  0  0  0
   -4.4770    2.4650    0.1030 C   0  0  0  0  0  0  0  0  0  0  0  0
   -4.0830    1.0130   -0.0950 C   0  0  1  0  0  0  0  0  0  0  0  0
   -5.1870    0.1850   -0.6600 C   0  0  2  0  0  0  0  0  0  0  0  0
   -5.6340    0.6280   -1.8990 O   0  0  0  0  0  0  0  0  0  0  0  0
   -6.3580    0.0230    0.2720 C   0  0  0  0  0  0  0  0  0  0  0  0
   -7.4620   -0.8170   -0.3060 C   0  0  1  0  0  0  0  0  0  0  0  0
   -6.9700   -2.2260   -0.6380 C   0  0  0  0  0  0  0  0  0  0  0  0
   -8.4640   -1.0200    0.8410 C   0  0  0  0  0  0  0  0  0  0  0  0
   -8.2020   -0.1840   -1.4350 C   0  0  0  0  0  0  0  0  0  0  0  0
   -2.9120    0.9490   -1.0630 C   0  0  0  0  0  0  0  0  0  0  0  0
  1  2  1  0
  2  3  1  0
  3  4  2  0
  3  5  1  0
  5  6  1  0
  6  7  1  0
  7  8  1  0
  7 13  2  0
  8  9  2  0
  9 10  1  0
 10 11  1  0
 11 12  2  0
 11 13  1  0
 13 14  1  0
 14 15  2  0
 14 16  1  0
 16 17  1  0
 17 18  1  0
 18 19  1  0
 20 19  1  1
 20 21  1  0
 20 25  1  0
 21 22  1  0
 22 23  1  0
 23 24  1  0
 24 25  1  0
 25 26  1  6
 27 26  1  1
 27 28  1  0
 27 39  1  0
 28 29  1  0
 29 30  1  0
 31 30  1  6
 31 32  1  0
 31 39  1  0
 32 33  1  6
 32 34  1  0
 34 35  1  0
 35 36  1  6
 35 37  1  0
 35 38  1  0
M  END
