
     RDKit          3D

 39 41  0  0  0  0  0  0  0  0999 V2000
    7.8320   -1.7270    3.3750 C   0  0  0  0  0  0  0  0  0  0  0  0
    8.1730   -1.6970    1.9090 C   0  0  0  0  0  0  0  0  0  0  0  0
    7.0010   -1.2160    1.1740 N   0  0  0  0  0  0  0  0  0  0  0  0
    6.1240   -2.1280    0.7510 C   0  0  0  0  0  0  0  0  0  0  0  0
    6.2930   -3.3630    0.9750 O   0  0  0  0  0  0  0  0  0  0  0  0
    5.0270   -1.7680    0.0710 N   0  0  0  0  0  0  0  0  0  0  0  0
    4.8360   -0.4470   -0.1740 C   0  0  0  0  0  0  0  0  0  0  0  0
    5.7060    0.5130    0.2400 C   0  0  0  0  0  0  0  0  0  0  0  0
    5.5410    1.9270   -0.0280 C   0  0  0  0  0  0  0  0  0  0  0  0
    4.6290    2.5130   -0.5770 N   0  0  0  0  0  0  0  0  0  0  0  0
    3.4000    2.0720   -1.1540 C   0  0  0  0  0  0  0  0  0  0  0  0
    1.8710    1.6810   -0.3760 S   0  0  0  0  0  0  0  0  0  0  0  0
    0.9730    1.3030   -1.7720 C   0  0  0  0  0  0  0  0  0  0  0  0
   -0.4360    0.8790   -1.8760 C   0  0  0  0  0  0  0  0  0  0  0  0
   -0.9870    0.6300   -2.9890 O   0  0  0  0  0  0  0  0  0  0  0  0
   -1.1910    0.7500   -0.6950 N   0  0  0  0  0  0  0  0  0  0  0  0
   -0.6250    1.0130    0.5920 C   0  0  0  0  0  0  0  0  0  0  0  0
   -1.6880    0.7010    1.6440 C   0  0  0  0  0  0  0  0  0  0  0  0
   -2.9580    1.5080    1.4200 C   0  0  0  0  0  0  0  0  0  0  0  0
   -3.4590    1.3320    0.0170 C   0  0  2  0  0  0  0  0  0  0  0  0
   -4.8130    0.9230   -0.0490 N   0  0  0  0  0  0  0  0  0  0  0  0
   -5.2340    0.1470    1.0690 C   0  0  0  0  0  0  0  0  0  0  0  0
   -6.3940   -0.7640    0.7370 C   0  0  2  0  0  0  0  0  0  0  0  0
   -7.6110   -0.0420    0.2620 C   0  0  0  0  0  0  0  0  0  0  0  0
   -6.7850   -1.4170    2.0750 C   0  0  0  0  0  0  0  0  0  0  0  0
   -5.9930   -2.0790   -0.3500 S   0  0  2  0  0  0  0  0  0  0  0  0
   -4.7340   -3.1540    0.3210 C   0  0  0  0  0  0  0  0  0  0  0  0
   -5.6670   -1.6590   -1.7370 O   0  0  0  0  0  0  0  0  0  0  0  0
   -7.2420   -2.9470   -0.4560 O   0  0  0  0  0  0  0  0  0  0  0  0
   -2.5990    0.3390   -0.7480 C   0  0  0  0  0  0  0  0  0  0  0  0
    1.8690    1.4850   -2.8160 C   0  0  0  0  0  0  0  0  0  0  0  0
    1.3180    1.2020   -4.2040 C   0  0  0  0  0  0  0  0  0  0  0  0
    3.1010    1.8720   -2.5440 C   0  0  0  0  0  0  0  0  0  0  0  0
    4.2210    2.1530   -3.5500 C   0  0  1  0  0  0  0  0  0  0  0  0
    3.8730    1.9750   -4.8270 F   0  0  0  0  0  0  0  0  0  0  0  0
    4.5770    3.9020   -3.2960 Cl  0  0  0  0  0  0  0  0  0  0  0  0
    5.6630    1.2450   -3.1080 Cl  0  0  0  0  0  0  0  0  0  0  0  0
    6.8420    0.0900    0.9490 C   0  0  0  0  0  0  0  0  0  0  0  0
    7.6820    0.9330    1.3570 O   0  0  0  0  0  0  0  0  0  0  0  0
  1  2  1  0
  2  3  1  0
  3  4  1  0
  3 38  1  0
  4  5  2  0
  4  6  1  0
  6  7  1  0
  7  8  2  0
  8  9  1  0
  8 38  1  0
  9 10  2  3
 10 11  1  0
 11 12  1  0
 11 33  2  0
 12 13  1  0
 13 14  1  0
 13 31  2  0
 14 15  2  0
 14 16  1  0
 16 17  1  0
 16 30  1  0
 17 18  1  0
 18 19  1  0
 19 20  1  0
 20 21  1  1
 20 30  1  0
 21 22  1  0
 22 23  1  0
 23 24  1  6
 23 25  1  0
 23 26  1  0
 26 27  1  1
 26 28  2  0
 26 29  2  0
 31 32  1  0
 31 33  1  0
 33 34  1  0
 34 35  1  6
 34 36  1  0
 34 37  1  0
 38 39  2  0
M  CHG  1  21   1
M  END
