
     RDKit          3D

 39 42  0  0  0  0  0  0  0  0999 V2000
   -8.2310    2.7250   -0.4850 C   0  0  0  0  0  0  0  0  0  0  0  0
   -8.2670    1.3110   -0.8720 C   0  0  2  0  0  0  0  0  0  0  0  0
   -9.5400    0.7030   -0.8150 C   0  0  0  0  0  0  0  0  0  0  0  0
  -10.7650    0.1060   -0.7390 N   0  0  0  0  0  0  0  0  0  0  0  0
   -7.1940    0.3660   -0.4680 C   0  0  0  0  0  0  0  0  0  0  0  0
   -5.9040    0.4050   -0.8450 O   0  0  0  0  0  0  0  0  0  0  0  0
   -5.1190    0.6090   -1.9130 C   0  0  0  0  0  0  0  0  0  0  0  0
   -5.5670    0.9260   -2.9840 O   0  0  0  0  0  0  0  0  0  0  0  0
   -3.6320    0.3440   -1.6230 C   0  0  0  0  0  0  0  0  0  0  0  0
   -3.1990    1.3200   -0.5940 C   0  0  0  0  0  0  0  0  0  0  0  0
   -1.9660    1.3050    0.1160 C   0  0  0  0  0  0  0  0  0  0  0  0
   -1.7030   -0.0770    0.7880 C   0  0  1  0  0  0  0  0  0  0  0  0
   -3.0880   -0.4800    1.2190 C   0  0  0  0  0  0  0  0  0  0  0  0
   -4.1790   -0.5170    1.3160 N   0  0  0  0  0  0  0  0  0  0  0  0
   -5.0230   -1.1710    1.9290 C   0  0  0  0  0  0  0  0  0  0  0  0
   -3.9070   -2.0460    2.6670 C   0  0  0  0  0  0  0  0  0  0  0  0
   -2.8630   -1.6110    2.2190 O   0  0  0  0  0  0  0  0  0  0  0  0
   -1.0630   -1.0090   -0.1560 C   0  0  0  0  0  0  0  0  0  0  0  0
    0.1840   -1.6610    0.1970 C   0  0  1  0  0  0  0  0  0  0  0  0
    0.0160   -3.1550   -0.0210 C   0  0  0  0  0  0  0  0  0  0  0  0
    1.4440   -1.2600   -0.5970 C   0  0  0  0  0  0  0  0  0  0  0  0
    1.8400    0.0460   -0.6170 C   0  0  0  0  0  0  0  0  0  0  0  0
    3.0860    0.4840   -1.0720 C   0  0  0  0  0  0  0  0  0  0  0  0
    3.9160   -0.5730   -1.5150 C   0  0  0  0  0  0  0  0  0  0  0  0
    5.3920   -0.2430   -1.6430 C   0  0  1  0  0  0  0  0  0  0  0  0
    5.6300    0.7940   -2.5030 O   0  0  0  0  0  0  0  0  0  0  0  0
    5.7450    0.1990   -0.2170 C   0  0  0  0  0  0  0  0  0  0  0  0
    6.9710    0.2840    0.2010 O   0  0  0  0  0  0  0  0  0  0  0  0
    8.0080    0.7460   -0.5240 C   0  0  2  0  0  0  0  0  0  0  0  0
    9.2870    0.1890   -0.0550 C   0  0  0  0  0  0  0  0  0  0  0  0
    9.5160    0.6970    1.2570 O   0  0  0  0  0  0  0  0  0  0  0  0
    9.3100    2.3730    0.9870 S   0  0  0  0  0  0  0  0  0  0  0  0
    8.7900    3.1080    2.2040 O   0  0  0  0  0  0  0  0  0  0  0  0
    8.1010    2.3170   -0.3280 C   0  0  0  0  0  0  0  0  0  0  0  0
    3.5570   -1.8150   -1.5050 C   0  0  0  0  0  0  0  0  0  0  0  0
    2.3030   -2.2190   -1.0570 C   0  0  0  0  0  0  0  0  0  0  0  0
    0.5910   -1.5030    1.6750 C   0  0  0  0  0  0  0  0  0  0  0  0
   -0.2890   -0.7710    2.5260 C   0  0  0  0  0  0  0  0  0  0  0  0
   -0.9530    0.2210    1.9060 O   0  0  0  0  0  0  0  0  0  0  0  0
  2  1  1  1
  2  3  1  0
  2  5  1  0
  3  4  3  0
  5  6  1  0
  6  7  1  0
  7  8  2  0
  7  9  1  0
  9 10  1  0
 10 11  1  0
 12 11  1  6
 12 13  1  0
 12 18  1  0
 12 39  1  0
 13 14  2  0
 13 17  1  0
 14 15  1  0
 15 16  2  0
 16 17  1  0
 18 19  1  0
 19 20  1  1
 19 21  1  0
 19 37  1  0
 21 22  2  0
 21 36  1  0
 22 23  1  0
 23 24  2  0
 24 25  1  0
 24 35  1  0
 25 26  1  6
 25 27  1  0
 27 28  1  0
 29 28  1  1
 29 30  1  0
 29 34  1  0
 30 31  1  0
 31 32  1  0
 32 33  2  0
 32 34  1  6
 35 36  2  0
 37 38  1  0
 38 39  1  0
M  END
