
     RDKit          3D

 39 42  0  0  0  0  0  0  0  0999 V2000
    9.3510   -3.1480    1.3980 C   0  0  0  0  0  0  0  0  0  0  0  0
    7.8500   -3.1420    1.4750 C   0  0  0  0  0  0  0  0  0  0  0  0
    7.3100   -1.9660    0.6840 C   0  0  1  0  0  0  0  0  0  0  0  0
    5.7990   -1.9670    0.7390 C   0  0  0  0  0  0  0  0  0  0  0  0
    5.1320   -0.9910    0.0630 O   0  0  0  0  0  0  0  0  0  0  0  0
    5.0390    0.3500    0.1760 C   0  0  0  0  0  0  0  0  0  0  0  0
    5.6640    0.9170    1.0980 O   0  0  0  0  0  0  0  0  0  0  0  0
    4.2300    1.1760   -0.7440 C   0  0  2  0  0  0  0  0  0  0  0  0
    4.4220    2.6330   -0.3690 C   0  0  0  0  0  0  0  0  0  0  0  0
    3.1010    3.2810   -0.7350 C   0  0  0  0  0  0  0  0  0  0  0  0
    2.2110    2.2040   -1.0680 N   0  0  0  0  0  0  0  0  0  0  0  0
    0.9580    2.3620   -1.7820 C   0  0  0  0  0  0  0  0  0  0  0  0
    0.7180    3.5460   -2.1080 O   0  0  0  0  0  0  0  0  0  0  0  0
    0.1390    1.1830   -2.0350 C   0  0  0  0  0  0  0  0  0  0  0  0
   -0.9790    1.3820   -2.9790 C   0  0  0  0  0  0  0  0  0  0  0  0
   -1.9390    2.3670   -2.5780 N   0  0  0  0  0  0  0  0  0  0  0  0
   -2.1280    3.6400   -2.9300 C   0  0  0  0  0  0  0  0  0  0  0  0
   -1.4780    4.2720   -3.7920 O   0  0  0  0  0  0  0  0  0  0  0  0
   -3.1110    4.1400   -2.2390 O   0  0  0  0  0  0  0  0  0  0  0  0
   -3.5890    3.2380   -1.4340 C   0  0  0  0  0  0  0  0  0  0  0  0
   -4.6140    3.2120   -0.4890 C   0  0  0  0  0  0  0  0  0  0  0  0
   -4.8730    2.0640    0.2160 C   0  0  0  0  0  0  0  0  0  0  0  0
   -4.1560    0.9020    0.0390 C   0  0  0  0  0  0  0  0  0  0  0  0
   -4.4920   -0.1920    0.7910 O   0  0  0  0  0  0  0  0  0  0  0  0
   -3.9060   -1.4350    0.7600 C   0  0  0  0  0  0  0  0  0  0  0  0
   -4.5380   -2.5420    1.0940 C   0  0  0  0  0  0  0  0  0  0  0  0
   -5.9040   -2.5440    1.5180 C   0  0  0  0  0  0  0  0  0  0  0  0
   -6.4060   -3.6720    1.8610 O   0  0  0  0  0  0  0  0  0  0  0  0
   -6.7570   -1.3830    1.5820 C   0  0  2  0  0  0  0  0  0  0  0  0
   -8.0910   -1.7150    2.3290 C   0  0  0  0  0  0  0  0  0  0  0  0
   -8.9280   -0.5590    1.8360 C   0  0  0  0  0  0  0  0  0  0  0  0
   -8.4720   -0.1880    0.5820 O   0  0  0  0  0  0  0  0  0  0  0  0
   -7.4300   -1.0470    0.2500 C   0  0  2  0  0  0  0  0  0  0  0  0
   -8.1040   -2.2860   -0.3470 C   0  0  0  0  0  0  0  0  0  0  0  0
   -3.1460    0.9380   -0.8950 C   0  0  0  0  0  0  0  0  0  0  0  0
   -2.8700    2.0790   -1.6140 C   0  0  0  0  0  0  0  0  0  0  0  0
    2.7340    0.9410   -0.6150 C   0  0  0  0  0  0  0  0  0  0  0  0
    7.9370   -0.4490    1.4040 S   0  0  0  0  0  0  0  0  0  0  0  0
    9.6750   -0.1340    1.1780 C   0  0  0  0  0  0  0  0  0  0  0  0
  1  2  1  0
  3  2  1  1
  3  4  1  0
  3 38  1  0
  4  5  1  0
  5  6  1  0
  6  7  2  0
  8  6  1  1
  8  9  1  0
  8 37  1  0
  9 10  1  0
 10 11  1  0
 11 12  1  0
 11 37  1  0
 12 13  2  0
 12 14  1  0
 14 15  1  0
 15 16  1  0
 16 17  1  0
 16 36  1  0
 17 18  2  0
 17 19  1  0
 19 20  1  0
 20 21  2  0
 20 36  1  0
 21 22  1  0
 22 23  2  0
 23 24  1  0
 23 35  1  0
 24 25  1  0
 25 26  2  3
 26 27  1  0
 27 28  2  0
 29 27  1  6
 29 30  1  0
 29 33  1  0
 30 31  1  0
 31 32  1  0
 32 33  1  0
 33 34  1  1
 35 36  2  0
 38 39  1  0
M  END
