
     RDKit          3D

 39 42  0  0  0  0  0  0  0  0999 V2000
   -9.2650    2.3330    1.3010 C   0  0  0  0  0  0  0  0  0  0  0  0
   -7.8950    1.9260    0.8640 C   0  0  0  0  0  0  0  0  0  0  0  0
   -7.8250    0.4700    0.4040 C   0  0  0  0  0  0  0  0  0  0  0  0
   -6.3550    0.2670    0.0050 C   0  0  0  0  0  0  0  0  0  0  0  0
   -6.2220   -1.1660   -0.4650 C   0  0  1  0  0  0  0  0  0  0  0  0
   -7.1020   -1.2980   -1.5560 O   0  0  0  0  0  0  0  0  0  0  0  0
   -6.5110   -0.5900   -2.6000 C   0  0  0  0  0  0  0  0  0  0  0  0
   -5.0170   -0.5550   -2.3450 C   0  0  0  0  0  0  0  0  0  0  0  0
   -4.9200   -1.4530   -1.1410 C   0  0  1  0  0  0  0  0  0  0  0  0
   -3.7200   -1.1780   -0.2900 C   0  0  0  0  0  0  0  0  0  0  0  0
   -3.9400   -0.8560    0.8590 O   0  0  0  0  0  0  0  0  0  0  0  0
   -2.4680   -1.3000   -0.8350 N   0  0  0  0  0  0  0  0  0  0  0  0
   -1.1640   -1.1640   -0.4870 C   0  0  0  0  0  0  0  0  0  0  0  0
   -0.4130   -0.8600    0.5020 C   0  0  0  0  0  0  0  0  0  0  0  0
    1.0800   -0.8800    0.2880 C   0  0  0  0  0  0  0  0  0  0  0  0
    1.4310   -1.1970   -0.8590 O   0  0  0  0  0  0  0  0  0  0  0  0
    2.0530   -0.5610    1.3020 C   0  0  0  0  0  0  0  0  0  0  0  0
    3.4600   -0.5370    1.0460 C   0  0  0  0  0  0  0  0  0  0  0  0
    4.2680   -0.7950    0.0950 C   0  0  0  0  0  0  0  0  0  0  0  0
    4.2740   -1.2610   -1.2640 C   0  0  0  0  0  0  0  0  0  0  0  0
    4.8320   -0.2090   -2.1870 C   0  0  0  0  0  0  0  0  0  0  0  0
    4.0570    0.6730   -2.6000 O   0  0  0  0  0  0  0  0  0  0  0  0
    6.1350   -0.2160   -2.5590 O   0  0  0  0  0  0  0  0  0  0  0  0
    6.7280    0.7400   -3.4240 C   0  0  2  0  0  0  0  0  0  0  0  0
    7.3510    0.1310   -4.6380 C   0  0  0  0  0  0  0  0  0  0  0  0
    8.4540   -0.7950   -4.1660 C   0  0  0  0  0  0  0  0  0  0  0  0
    9.1750    0.2260   -2.8700 S   0  0  1  0  0  0  0  0  0  0  0  0
    9.3980   -0.5580   -1.6290 O   0  0  0  0  0  0  0  0  0  0  0  0
   10.3930    0.9170   -3.3640 O   0  0  0  0  0  0  0  0  0  0  0  0
    7.8470    1.4110   -2.6690 C   0  0  0  0  0  0  0  0  0  0  0  0
    1.6070   -0.2170    2.5360 C   0  0  0  0  0  0  0  0  0  0  0  0
    2.5120    0.1210    3.6290 C   0  0  0  0  0  0  0  0  0  0  0  0
    2.0800    0.4620    4.8510 C   0  0  0  0  0  0  0  0  0  0  0  0
    3.0690    0.8000    5.9340 C   0  0  0  0  0  0  0  0  0  0  0  0
    0.6680    0.4990    5.1110 C   0  0  0  0  0  0  0  0  0  0  0  0
   -0.1950    0.2010    4.1570 C   0  0  0  0  0  0  0  0  0  0  0  0
    0.2330   -0.1670    2.8400 N   0  0  0  0  0  0  0  0  0  0  0  0
   -0.7740   -0.4800    1.8510 C   0  0  0  0  0  0  0  0  0  0  0  0
   -1.9420   -0.4090    2.2090 O   0  0  0  0  0  0  0  0  0  0  0  0
  1  2  1  0
  2  3  1  0
  3  4  1  0
  5  4  1  6
  5  6  1  0
  5  9  1  0
  6  7  1  0
  7  8  1  0
  8  9  1  0
  9 10  1  1
 10 11  2  0
 10 12  1  0
 12 13  1  0
 13 14  2  3
 14 15  1  0
 14 38  1  0
 15 16  2  0
 15 17  1  0
 17 18  1  0
 17 31  2  0
 18 19  2  3
 19 20  1  0
 20 21  1  0
 21 22  2  0
 21 23  1  0
 24 23  1  1
 24 25  1  0
 24 30  1  0
 25 26  1  0
 27 26  1  6
 27 28  2  0
 27 29  2  0
 27 30  1  0
 31 32  1  0
 31 37  1  0
 32 33  2  0
 33 34  1  0
 33 35  1  0
 35 36  2  0
 36 37  1  0
 37 38  1  0
 38 39  2  0
M  END
