
     RDKit          3D

 39 41  0  0  0  0  0  0  0  0999 V2000
   -4.1590    1.1940    5.2910 C   0  0  0  0  0  0  0  0  0  0  0  0
   -5.0230    0.0140    4.8150 C   0  0  0  0  0  0  0  0  0  0  0  0
   -4.5050   -0.3820    3.5490 O   0  0  0  0  0  0  0  0  0  0  0  0
   -4.6220    0.4850    2.4600 C   0  0  0  0  0  0  0  0  0  0  0  0
   -5.2250    1.5520    2.7080 O   0  0  0  0  0  0  0  0  0  0  0  0
   -4.0710    0.1440    1.1610 C   0  0  0  0  0  0  0  0  0  0  0  0
   -3.4030   -1.0300    0.9490 C   0  0  0  0  0  0  0  0  0  0  0  0
   -2.9560   -1.1140   -0.3690 C   0  0  1  0  0  0  0  0  0  0  0  0
   -3.2850   -2.1530   -1.3570 C   0  0  0  0  0  0  0  0  0  0  0  0
   -2.2710   -1.9350   -2.5610 C   0  0  2  0  0  0  0  0  0  0  0  0
   -3.1070   -2.2610   -3.7120 O   0  0  0  0  0  0  0  0  0  0  0  0
   -1.2980   -3.0190   -2.4780 C   0  0  2  0  0  0  0  0  0  0  0  0
   -0.6740   -3.0670   -1.0550 C   0  0  0  0  0  0  0  0  0  0  0  0
    0.1630   -2.8910   -3.6030 S   0  0  0  0  0  0  0  0  0  0  0  0
    1.3410   -1.7190   -2.9540 C   0  0  0  0  0  0  0  0  0  0  0  0
    1.4280   -0.4510   -3.3960 C   0  0  0  0  0  0  0  0  0  0  0  0
    2.2360    0.5180   -2.8070 C   0  0  0  0  0  0  0  0  0  0  0  0
    3.0180    0.2000   -1.6960 C   0  0  0  0  0  0  0  0  0  0  0  0
    3.7790    1.0170   -1.0880 O   0  0  0  0  0  0  0  0  0  0  0  0
    4.5650    1.8780   -0.4700 C   0  0  0  0  0  0  0  0  0  0  0  0
    5.2610    1.2780    0.7060 C   0  0  0  0  0  0  0  0  0  0  0  0
    5.0460    0.0720    0.9700 O   0  0  0  0  0  0  0  0  0  0  0  0
    6.1620    1.9690    1.5630 N   0  0  0  0  0  0  0  0  0  0  0  0
    6.7210    1.2200    2.6450 C   0  0  1  0  0  0  0  0  0  0  0  0
    8.1020    0.6720    2.2630 C   0  0  0  0  0  0  0  0  0  0  0  0
    6.8880    2.1080    3.8640 C   0  0  0  0  0  0  0  0  0  0  0  0
    7.3710    1.3780    4.9200 C   0  0  0  0  0  0  0  0  0  0  0  0
    7.8190    0.6800    5.9350 N   0  0  0  0  0  0  0  0  0  0  0  0
    2.9090   -1.1610   -1.2500 C   0  0  0  0  0  0  0  0  0  0  0  0
    2.1220   -2.0830   -1.8350 C   0  0  0  0  0  0  0  0  0  0  0  0
   -1.9590   -0.5260   -2.7200 C   0  0  1  0  0  0  0  0  0  0  0  0
   -1.8350   -0.1720   -4.2000 C   0  0  0  0  0  0  0  0  0  0  0  0
   -3.1610    0.2430   -2.3350 O   0  0  0  0  0  0  0  0  0  0  0  0
   -3.4910    0.1840   -1.0110 C   0  0  0  0  0  0  0  0  0  0  0  0
   -4.1100    0.8690   -0.0930 C   0  0  0  0  0  0  0  0  0  0  0  0
   -4.7720    2.1720   -0.3210 C   0  0  0  0  0  0  0  0  0  0  0  0
   -5.3720    2.7840    0.6520 O   0  0  0  0  0  0  0  0  0  0  0  0
   -4.8560    2.8570   -1.4360 O   0  0  0  0  0  0  0  0  0  0  0  0
   -5.1200    3.7310   -2.3130 C   0  0  0  0  0  0  0  0  0  0  0  0
  1  2  1  0
  2  3  1  0
  3  4  1  0
  4  5  2  0
  4  6  1  0
  6  7  2  0
  6 35  1  0
  7  8  1  0
  8  9  1  6
  8 34  1  0
  9 10  1  0
 10 11  1  6
 10 12  1  0
 10 31  1  0
 12 13  1  1
 12 14  1  0
 14 15  1  0
 15 16  2  0
 15 30  1  0
 16 17  1  0
 17 18  2  0
 18 19  1  0
 18 29  1  0
 19 20  1  0
 20 21  1  0
 21 22  2  0
 21 23  1  0
 23 24  1  0
 24 25  1  6
 24 26  1  0
 26 27  1  0
 27 28  3  0
 29 30  2  0
 31 32  1  6
 31 33  1  0
 33 34  1  0
 34 35  2  0
 35 36  1  0
 36 37  2  0
 36 38  1  0
 38 39  1  0
M  END
