
     RDKit          3D

 39 41  0  0  0  0  0  0  0  0999 V2000
    7.8730    0.1840    1.5360 C   0  0  0  0  0  0  0  0  0  0  0  0
    6.4660    0.1000    1.6710 O   0  0  0  0  0  0  0  0  0  0  0  0
    5.8530   -1.0140    1.0980 C   0  0  0  0  0  0  0  0  0  0  0  0
    6.5380   -1.9990    0.4310 C   0  0  0  0  0  0  0  0  0  0  0  0
    5.9320   -3.1020   -0.1350 C   0  0  0  0  0  0  0  0  0  0  0  0
    6.6330   -4.0930   -0.8070 O   0  0  0  0  0  0  0  0  0  0  0  0
    4.5440   -3.1980   -0.0110 C   0  0  0  0  0  0  0  0  0  0  0  0
    3.8160   -2.2350    0.6490 C   0  0  0  0  0  0  0  0  0  0  0  0
    2.3450   -2.3080    0.7990 C   0  0  1  0  0  0  0  0  0  0  0  0
    1.9830   -2.6700    2.2290 C   0  0  0  0  0  0  0  0  0  0  0  0
    1.7160   -1.0720    0.5120 O   0  0  0  0  0  0  0  0  0  0  0  0
    0.7110   -0.9780   -0.4720 C   0  0  0  0  0  0  0  0  0  0  0  0
    0.4430   -2.0800   -1.0490 O   0  0  0  0  0  0  0  0  0  0  0  0
    0.0370    0.2920   -0.7950 C   0  0  1  0  0  0  0  0  0  0  0  0
   -0.6810    0.9020    0.4150 C   0  0  0  0  0  0  0  0  0  0  0  0
   -1.6840   -0.1070    0.8460 C   0  0  0  0  0  0  0  0  0  0  0  0
   -1.2000   -1.1830    1.3630 O   0  0  0  0  0  0  0  0  0  0  0  0
   -3.0660    0.0080    0.7400 N   0  0  0  0  0  0  0  0  0  0  0  0
   -3.6650    1.1750    0.1830 C   0  0  0  0  0  0  0  0  0  0  0  0
   -3.9830    1.0240   -1.2900 C   0  0  0  0  0  0  0  0  0  0  0  0
   -5.1400    0.0740   -1.5120 C   0  0  0  0  0  0  0  0  0  0  0  0
   -5.4630   -0.7550   -0.4170 N   0  0  0  0  0  0  0  0  0  0  0  0
   -6.8240   -1.0930   -0.2400 C   0  0  1  0  0  0  0  0  0  0  0  0
   -7.3900   -1.8880   -1.3920 C   0  0  0  0  0  0  0  0  0  0  0  0
   -7.0870   -1.8250    1.0490 C   0  0  0  0  0  0  0  0  0  0  0  0
   -8.4760   -2.0890    1.0790 O   0  0  0  0  0  0  0  0  0  0  0  0
   -4.4990   -1.7110   -0.0190 C   0  0  0  0  0  0  0  0  0  0  0  0
   -3.8030   -1.1710    1.2380 C   0  0  0  0  0  0  0  0  0  0  0  0
    0.9860    1.2840   -1.3820 C   0  0  0  0  0  0  0  0  0  0  0  0
    2.1900    0.9930   -1.5640 O   0  0  0  0  0  0  0  0  0  0  0  0
    0.5480    2.5440   -1.7350 O   0  0  0  0  0  0  0  0  0  0  0  0
    1.3650    3.5080   -2.2660 C   0  0  0  0  0  0  0  0  0  0  0  0
    2.4290    4.0680   -1.3770 C   0  0  0  0  0  0  0  0  0  0  0  0
    2.5590    3.6710   -0.1570 C   0  0  0  0  0  0  0  0  0  0  0  0
    3.5180    4.0710    0.8810 C   0  0  0  0  0  0  0  0  0  0  0  0
    4.6390    5.3220    0.2720 S   0  0  0  0  0  0  0  0  0  0  0  0
    4.2520    5.6870   -1.4110 C   0  0  0  0  0  0  0  0  0  0  0  0
    3.2730    5.0860   -2.0340 C   0  0  0  0  0  0  0  0  0  0  0  0
    4.4720   -1.1560    1.1950 C   0  0  0  0  0  0  0  0  0  0  0  0
  1  2  1  0
  2  3  1  0
  3  4  2  0
  3 39  1  0
  4  5  1  0
  5  6  1  0
  5  7  2  0
  7  8  1  0
  8  9  1  0
  8 39  2  0
  9 10  1  1
  9 11  1  0
 11 12  1  0
 12 13  2  0
 12 14  1  0
 14 15  1  1
 14 29  1  0
 15 16  1  0
 16 17  2  0
 16 18  1  0
 18 19  1  0
 18 28  1  0
 19 20  1  0
 20 21  1  0
 21 22  1  0
 22 23  1  0
 22 27  1  0
 23 24  1  6
 23 25  1  0
 25 26  1  0
 27 28  1  0
 29 30  2  0
 29 31  1  0
 31 32  1  0
 32 33  1  0
 33 34  2  0
 33 38  1  0
 34 35  1  0
 35 36  1  0
 36 37  1  0
 37 38  2  0
M  END
