
     RDKit          3D

 39 41  0  0  0  0  0  0  0  0999 V2000
    1.4260    0.0490    4.1830 C   0  0  0  0  0  0  0  0  0  0  0  0
    1.6120    0.5410    2.7110 C   0  0  1  0  0  0  0  0  0  0  0  0
    1.4270    1.9880    2.6250 C   0  0  0  0  0  0  0  0  0  0  0  0
    1.4770    2.5490    1.2380 C   0  0  0  0  0  0  0  0  0  0  0  0
    0.5090    1.8930    0.4370 O   0  0  0  0  0  0  0  0  0  0  0  0
    0.2510    2.0950   -0.8840 C   0  0  0  0  0  0  0  0  0  0  0  0
    0.9090    2.9520   -1.5250 O   0  0  0  0  0  0  0  0  0  0  0  0
   -0.7950    1.3300   -1.6220 C   0  0  0  0  0  0  0  0  0  0  0  0
   -2.0200    1.2280   -0.7450 C   0  0  0  0  0  0  0  0  0  0  0  0
   -3.0190    0.4520   -1.5040 N   0  0  0  0  0  0  0  0  0  0  0  0
   -3.1490   -0.9680   -1.4780 C   0  0  0  0  0  0  0  0  0  0  0  0
   -2.4110   -1.7380   -0.7790 O   0  0  0  0  0  0  0  0  0  0  0  0
   -4.2030   -1.3470   -2.3340 N   0  0  0  0  0  0  0  0  0  0  0  0
   -4.9740   -0.1700   -2.6190 C   0  0  1  0  0  0  0  0  0  0  0  0
   -5.3520   -0.1680   -4.0630 C   0  0  0  0  0  0  0  0  0  0  0  0
   -6.1130   -0.0770   -1.6540 C   0  0  1  0  0  0  0  0  0  0  0  0
   -7.0530    1.0680   -1.8670 C   0  0  0  0  0  0  0  0  0  0  0  0
   -8.4810    0.6880   -1.4890 C   0  0  0  0  0  0  0  0  0  0  0  0
   -8.9860   -0.4710   -2.3030 C   0  0  0  0  0  0  0  0  0  0  0  0
   -7.9280   -1.5290   -2.5170 C   0  0  0  0  0  0  0  0  0  0  0  0
   -6.8760   -1.3720   -1.4770 C   0  0  0  0  0  0  0  0  0  0  0  0
   -4.0110    0.9310   -2.3890 C   0  0  0  0  0  0  0  0  0  0  0  0
   -4.0930    2.0720   -2.9050 O   0  0  0  0  0  0  0  0  0  0  0  0
    2.8300   -0.1520    2.2390 C   0  0  1  0  0  0  0  0  0  0  0  0
    2.5440   -1.5490    2.2440 O   0  0  0  0  0  0  0  0  0  0  0  0
    3.5350    0.2010    1.0170 C   0  0  0  0  0  0  0  0  0  0  0  0
    4.6710   -0.7740    0.8310 C   0  0  0  0  0  0  0  0  0  0  0  0
    4.4200   -1.7600    0.1170 O   0  0  0  0  0  0  0  0  0  0  0  0
    5.9510   -0.5450    1.4570 C   0  0  0  0  0  0  0  0  0  0  0  0
    6.0500    0.5430    2.2210 C   0  0  0  0  0  0  0  0  0  0  0  0
    7.3060    0.8330    2.8940 C   0  0  0  0  0  0  0  0  0  0  0  0
    8.3470    0.0510    2.7750 C   0  0  0  0  0  0  0  0  0  0  0  0
    8.3720   -1.1790    1.9690 C   0  0  2  0  0  0  0  0  0  0  0  0
    9.6240   -0.8590    0.6720 S   0  0  0  0  0  0  0  0  0  0  0  0
    9.7100    0.6280    0.4820 O   0  0  0  0  0  0  0  0  0  0  0  0
    7.1080   -1.4010    1.2280 C   0  0  0  0  0  0  0  0  0  0  0  0
    7.0730   -2.3440    0.3040 C   0  0  0  0  0  0  0  0  0  0  0  0
    8.2370   -3.2280    0.0640 C   0  0  0  0  0  0  0  0  0  0  0  0
    8.1640   -4.0760   -0.8890 O   0  0  0  0  0  0  0  0  0  0  0  0
  2  1  1  1
  2  3  1  0
  2 24  1  0
  3  4  1  0
  4  5  1  0
  5  6  1  0
  6  7  2  0
  6  8  1  0
  8  9  1  0
  9 10  1  0
 10 11  1  0
 10 22  1  0
 11 12  2  0
 11 13  1  0
 13 14  1  0
 14 15  1  6
 14 16  1  0
 14 22  1  0
 16 17  1  6
 16 21  1  0
 17 18  1  0
 18 19  1  0
 19 20  1  0
 20 21  1  0
 22 23  2  0
 24 25  1  6
 24 26  1  0
 26 27  1  0
 27 28  2  0
 27 29  1  0
 29 30  2  0
 29 36  1  0
 30 31  1  0
 31 32  2  0
 32 33  1  0
 33 34  1  6
 33 36  1  0
 34 35  2  0
 36 37  2  3
 37 38  1  0
 38 39  2  0
M  END
