
     RDKit          3D

 15 14  0  0  0  0  0  0  0  0999 V2000
   -2.0850   -0.2930   -1.4090 C   0  0  0  0  0  0  0  0  0  0  0  0
   -2.0360    0.6560   -0.5150 C   0  0  0  0  0  0  0  0  0  0  0  0
   -1.4680    0.4460    0.7980 C   0  0  0  0  0  0  0  0  0  0  0  0
   -1.4720    1.4980    1.6370 C   0  0  0  0  0  0  0  0  0  0  0  0
   -2.0390    2.7710    1.1920 C   0  0  0  0  0  0  0  0  0  0  0  0
   -0.8840   -0.8220    1.2900 C   0  0  2  0  0  0  0  0  0  0  0  0
    0.2480   -1.2110    0.4330 C   0  0  0  0  0  0  0  0  0  0  0  0
    0.3600   -2.3880    0.0050 O   0  0  0  0  0  0  0  0  0  0  0  0
    1.2490   -0.3320    0.0430 O   0  0  0  0  0  0  0  0  0  0  0  0
    2.3270   -0.7410   -0.7850 C   0  0  2  0  0  0  0  0  0  0  0  0
    3.5960   -0.5340    0.0230 C   0  0  0  0  0  0  0  0  0  0  0  0
    2.3670    0.0330   -2.0800 C   0  0  0  0  0  0  0  0  0  0  0  0
   -1.8680   -1.8810    1.3310 N   0  0  0  0  0  0  0  0  0  0  0  0
   -3.0720   -1.7550    1.0600 O   0  0  0  0  0  0  0  0  0  0  0  0
   -1.4730   -3.1630    1.7150 O   0  0  0  0  0  0  0  0  0  0  0  0
  1  2  2  0
  2  3  1  0
  3  4  2  3
  6  3  1  6
  4  5  1  0
  6  7  1  0
  6 13  1  0
  7  8  2  0
  7  9  1  0
  9 10  1  0
 10 11  1  1
 10 12  1  0
 13 14  2  0
 13 15  1  0
M  CHG  2  13   1  15  -1
M  END
