
     RDKit          3D

 15 15  0  0  0  0  0  0  0  0999 V2000
    5.3880   -0.1580    0.4170 C   0  0  0  0  0  0  0  0  0  0  0  0
    4.2190   -0.8180   -0.2580 C   0  0  0  0  0  0  0  0  0  0  0  0
    2.9800   -0.0400   -0.1630 C   0  0  0  0  0  0  0  0  0  0  0  0
    2.9230    1.0640    0.4260 O   0  0  0  0  0  0  0  0  0  0  0  0
    1.8330   -0.5390   -0.7440 O   0  0  0  0  0  0  0  0  0  0  0  0
    0.5690    0.0890   -0.7350 C   0  0  0  0  0  0  0  0  0  0  0  0
    0.0360    0.2870    0.6660 C   0  0  0  0  0  0  0  0  0  0  0  0
   -1.1940    0.8920    0.7380 O   0  0  0  0  0  0  0  0  0  0  0  0
   -2.4340    0.5240    0.3260 C   0  0  0  0  0  0  0  0  0  0  0  0
   -3.5340    1.3800    0.5070 C   0  0  0  0  0  0  0  0  0  0  0  0
   -4.8000    1.0660    0.1190 C   0  0  0  0  0  0  0  0  0  0  0  0
   -5.0420   -0.1170   -0.4720 N   0  0  0  0  0  0  0  0  0  0  0  0
   -4.0400   -0.9590   -0.6650 C   0  0  0  0  0  0  0  0  0  0  0  0
   -4.2690   -2.1800   -1.2700 O   0  0  0  0  0  0  0  0  0  0  0  0
   -2.7180   -0.6720   -0.2770 C   0  0  0  0  0  0  0  0  0  0  0  0
  1  2  1  0
  2  3  1  0
  3  4  2  0
  3  5  1  0
  5  6  1  0
  6  7  1  0
  7  8  1  0
  8  9  1  0
  9 10  2  0
  9 15  1  0
 10 11  1  0
 11 12  2  0
 12 13  1  0
 13 14  1  0
 13 15  2  0
M  CHG  2  12   1  14  -1
M  END
