
     RDKit          3D

 25 26  0  0  0  0  0  0  0  0999 V2000
    0.8760    3.9040   -1.2040 N   0  0  0  0  0  0  0  0  0  0  0  0
    0.6840    3.0390   -0.0940 C   0  0  0  0  0  0  0  0  0  0  0  0
    0.2240    3.5550    0.9790 O   0  0  0  0  0  0  0  0  0  0  0  0
    0.9560    1.6880   -0.0860 O   0  0  0  0  0  0  0  0  0  0  0  0
    0.7370    0.8750    1.0690 C   0  0  2  0  0  0  0  0  0  0  0  0
    1.9640    0.1770    1.5260 C   0  0  0  0  0  0  0  0  0  0  0  0
    2.3900   -0.9420    0.6440 C   0  0  2  0  0  0  0  0  0  0  0  0
    3.2020   -0.4060   -0.5190 C   0  0  0  0  0  0  0  0  0  0  0  0
    3.6690   -1.4690   -1.4540 C   0  0  0  0  0  0  0  0  0  0  0  0
    4.5480   -2.4730   -0.7770 C   0  0  0  0  0  0  0  0  0  0  0  0
    5.7630   -1.8570   -0.2280 C   0  0  0  0  0  0  0  0  0  0  0  0
    6.5250   -2.5800    0.4980 O   0  0  0  0  0  0  0  0  0  0  0  0
    6.1420   -0.5460   -0.4450 O   0  0  0  0  0  0  0  0  0  0  0  0
    1.3370   -1.7690    0.2050 O   0  0  0  0  0  0  0  0  0  0  0  0
    0.0470   -1.3000    0.0140 C   0  0  0  0  0  0  0  0  0  0  0  0
   -0.7930   -1.8610   -0.7570 O   0  0  0  0  0  0  0  0  0  0  0  0
   -0.3240   -0.1030    0.7520 C   0  0  0  0  0  0  0  0  0  0  0  0
   -1.5850    0.1080    1.1290 C   0  0  0  0  0  0  0  0  0  0  0  0
   -1.8660    1.3030    1.8430 N   0  0  0  0  0  0  0  0  0  0  0  0
   -2.5900   -0.8130    0.8310 O   0  0  0  0  0  0  0  0  0  0  0  0
   -3.8170   -0.2690    0.3930 C   0  0  2  0  0  0  0  0  0  0  0  0
   -4.8620   -1.2960    0.0860 C   0  0  0  0  0  0  0  0  0  0  0  0
   -5.8000   -0.5220   -0.8320 C   0  0  0  0  0  0  0  0  0  0  0  0
   -5.0820    0.6240   -1.3010 N   0  0  0  0  0  0  0  0  0  0  0  0
   -3.6830    0.4300   -0.9540 C   0  0  0  0  0  0  0  0  0  0  0  0
  1  2  1  0
  2  3  2  0
  2  4  1  0
  5  4  1  6
  5  6  1  0
  5 17  1  0
  6  7  1  0
  7  8  1  6
  7 14  1  0
  8  9  1  0
  9 10  1  0
 10 11  1  0
 11 12  2  0
 11 13  1  0
 14 15  1  0
 15 16  2  0
 15 17  1  0
 17 18  2  3
 18 19  1  0
 18 20  1  0
 21 20  1  6
 21 22  1  0
 21 25  1  0
 22 23  1  0
 23 24  1  0
 24 25  1  0
M  CHG  1  24   1
M  END
