
     RDKit          3D

 25 26  0  0  0  0  0  0  0  0999 V2000
   -2.8840    3.3220    0.9950 C   0  0  0  0  0  0  0  0  0  0  0  0
   -1.7750    2.8600    0.2980 O   0  0  0  0  0  0  0  0  0  0  0  0
   -0.9500    1.7770    0.7690 C   0  0  0  0  0  0  0  0  0  0  0  0
    0.3080    2.1230    0.9260 C   0  0  0  0  0  0  0  0  0  0  0  0
    1.5330    1.5140    1.3400 C   0  0  0  0  0  0  0  0  0  0  0  0
    1.7910    1.4980    2.7860 N   0  0  0  0  0  0  0  0  0  0  0  0
    2.5230    1.0050    0.6940 N   0  0  0  0  0  0  0  0  0  0  0  0
    3.0130    0.7380   -0.5510 C   0  0  0  0  0  0  0  0  0  0  0  0
    3.7280    1.8230   -1.3600 C   0  0  0  0  0  0  0  0  0  0  0  0
    2.9620   -0.4560   -1.1850 C   0  0  0  0  0  0  0  0  0  0  0  0
    2.4190   -1.7400   -0.7850 C   0  0  1  0  0  0  0  0  0  0  0  0
    2.6410   -2.1770    0.5980 C   0  0  0  0  0  0  0  0  0  0  0  0
    1.6950   -2.7530    1.2020 O   0  0  0  0  0  0  0  0  0  0  0  0
    3.8340   -1.9920    1.2740 O   0  0  0  0  0  0  0  0  0  0  0  0
    1.1030   -1.9910   -1.1610 O   0  0  0  0  0  0  0  0  0  0  0  0
    0.3500   -0.9540   -0.6920 C   0  0  0  0  0  0  0  0  0  0  0  0
   -1.0810   -0.9120   -0.9750 C   0  0  1  0  0  0  0  0  0  0  0  0
   -1.3590   -0.0030   -1.9750 O   0  0  0  0  0  0  0  0  0  0  0  0
   -1.4970   -2.2660   -1.4900 C   0  0  0  0  0  0  0  0  0  0  0  0
   -2.9000   -2.2610   -1.7930 N   0  0  0  0  0  0  0  0  0  0  0  0
   -1.7630   -0.5680    0.3240 C   0  0  0  0  0  0  0  0  0  0  0  0
   -1.6770    0.5230    0.9800 C   0  0  0  0  0  0  0  0  0  0  0  0
   -2.5200    0.3360    2.1320 O   0  0  0  0  0  0  0  0  0  0  0  0
   -3.3770   -0.7520    1.9440 C   0  0  0  0  0  0  0  0  0  0  0  0
   -2.6130   -1.4640    0.9940 O   0  0  0  0  0  0  0  0  0  0  0  0
  1  2  1  0
  2  3  1  0
  3  4  2  0
  3 22  1  0
  4  5  1  0
  5  6  1  0
  5  7  2  0
  7  8  1  0
  8  9  1  0
  8 10  2  0
 10 11  1  0
 11 12  1  1
 11 15  1  0
 12 13  2  0
 12 14  1  0
 15 16  1  0
 16 17  1  0
 17 18  1  6
 17 19  1  0
 17 21  1  0
 19 20  1  0
 21 22  2  0
 21 25  1  0
 22 23  1  0
 23 24  1  0
 24 25  1  0
M  CHG  1  20   1
M  END
