
     RDKit          3D

 24 25  0  0  0  0  0  0  0  0999 V2000
   -5.2260   -2.5350    0.9300 N   0  0  0  0  0  0  0  0  0  0  0  0
   -4.1380   -1.6100    1.1320 C   0  0  0  0  0  0  0  0  0  0  0  0
   -4.4480   -0.2450    0.5080 C   0  0  1  0  0  0  0  0  0  0  0  0
   -5.6850    0.3350    1.1980 C   0  0  0  0  0  0  0  0  0  0  0  0
   -5.9940    1.5480    0.6110 O   0  0  0  0  0  0  0  0  0  0  0  0
   -3.2680    0.6420    0.8260 C   0  0  0  0  0  0  0  0  0  0  0  0
   -2.3500    0.5470   -0.2910 N   0  0  0  0  0  0  0  0  0  0  0  0
   -1.0300    0.0530   -0.1260 C   0  0  0  0  0  0  0  0  0  0  0  0
   -0.6690   -0.3040    1.0170 O   0  0  0  0  0  0  0  0  0  0  0  0
   -0.0680   -0.0580   -1.2410 C   0  0  0  0  0  0  0  0  0  0  0  0
    1.1670   -0.5740   -0.7950 O   0  0  0  0  0  0  0  0  0  0  0  0
    1.9190    0.0760    0.1680 C   0  0  0  0  0  0  0  0  0  0  0  0
    1.4930    1.1490    0.6550 O   0  0  0  0  0  0  0  0  0  0  0  0
    3.2280   -0.5350    0.5960 C   0  0  2  0  0  0  0  0  0  0  0  0
    3.8200    0.3610    1.6290 C   0  0  0  0  0  0  0  0  0  0  0  0
    5.3000    0.5190    1.5500 C   0  0  0  0  0  0  0  0  0  0  0  0
    5.8260    0.8110    0.1840 C   0  0  0  0  0  0  0  0  0  0  0  0
    4.8110    0.6270   -0.9120 C   0  0  2  0  0  0  0  0  0  0  0  0
    3.9130    1.6970   -0.9890 O   0  0  0  0  0  0  0  0  0  0  0  0
    4.0650   -0.6440   -0.6600 C   0  0  1  0  0  0  0  0  0  0  0  0
    4.9810   -1.7610   -0.6190 N   0  0  0  0  0  0  0  0  0  0  0  0
   -2.8460    0.9810   -1.5850 C   0  0  0  0  0  0  0  0  0  0  0  0
   -4.3180    0.6180   -1.6370 C   0  0  0  0  0  0  0  0  0  0  0  0
   -4.6410   -0.4520   -0.8330 O   0  0  0  0  0  0  0  0  0  0  0  0
  1  2  1  0
  3  2  1  1
  3  4  1  0
  3  6  1  0
  3 24  1  0
  4  5  1  0
  6  7  1  0
  7  8  1  0
  7 22  1  0
  8  9  2  0
  8 10  1  0
 10 11  1  0
 11 12  1  0
 12 13  2  0
 14 12  1  6
 14 15  1  0
 14 20  1  0
 15 16  1  0
 16 17  1  0
 17 18  1  0
 18 19  1  1
 18 20  1  0
 20 21  1  1
 22 23  1  0
 23 24  1  0
M  CHG  1  21   1
M  END
