
     RDKit          3D

 24 25  0  0  0  0  0  0  0  0999 V2000
    5.7240   -1.1090    0.3890 C   0  0  0  0  0  0  0  0  0  0  0  0
    4.7240   -0.3590   -0.5310 C   0  0  2  0  0  0  0  0  0  0  0  0
    5.3690    0.9720   -0.7910 C   0  0  0  0  0  0  0  0  0  0  0  0
    3.4560   -0.2380    0.2240 C   0  0  0  0  0  0  0  0  0  0  0  0
    2.2950    0.4170   -0.4180 C   0  0  1  0  0  0  0  0  0  0  0  0
    2.4660    1.8400   -0.8220 C   0  0  0  0  0  0  0  0  0  0  0  0
    1.8370   -0.2790   -1.5710 O   0  0  0  0  0  0  0  0  0  0  0  0
    0.6040   -0.8770   -1.3470 C   0  0  0  0  0  0  0  0  0  0  0  0
    0.0320   -1.5830   -2.2210 O   0  0  0  0  0  0  0  0  0  0  0  0
    0.1380   -0.5710   -0.0510 N   0  0  0  0  0  0  0  0  0  0  0  0
   -1.0630   -1.0160    0.5800 C   0  0  0  0  0  0  0  0  0  0  0  0
   -2.2930   -0.1890    0.3620 C   0  0  2  0  0  0  0  0  0  0  0  0
   -3.4260   -0.7670    1.1660 C   0  0  1  0  0  0  0  0  0  0  0  0
   -4.5960    0.0450    0.9170 O   0  0  0  0  0  0  0  0  0  0  0  0
   -3.7860   -2.1930    0.9140 C   0  0  0  0  0  0  0  0  0  0  0  0
   -2.7190   -3.0870    1.2490 N   0  0  0  0  0  0  0  0  0  0  0  0
   -2.6150   -0.2350   -1.1290 C   0  0  0  0  0  0  0  0  0  0  0  0
   -3.7760    0.4170   -1.4390 O   0  0  0  0  0  0  0  0  0  0  0  0
   -3.8940    1.6650   -1.0380 N   0  0  0  0  0  0  0  0  0  0  0  0
   -3.2460    2.0900    0.1390 C   0  0  0  0  0  0  0  0  0  0  0  0
   -2.0790    1.2870    0.6160 C   0  0  2  0  0  0  0  0  0  0  0  0
   -1.0290    1.6450   -0.2790 O   0  0  0  0  0  0  0  0  0  0  0  0
    1.1380    0.2430    0.5220 C   0  0  0  0  0  0  0  0  0  0  0  0
    1.1490    0.7930    1.6640 O   0  0  0  0  0  0  0  0  0  0  0  0
  2  1  1  1
  2  3  1  0
  2  4  1  0
  4  5  1  0
  5  6  1  6
  5  7  1  0
  5 23  1  0
  7  8  1  0
  8  9  2  0
  8 10  1  0
 10 11  1  0
 10 23  1  0
 12 11  1  6
 12 13  1  0
 12 17  1  0
 12 21  1  0
 13 14  1  6
 13 15  1  0
 15 16  1  0
 17 18  1  0
 18 19  1  0
 19 20  1  0
 20 21  1  0
 21 22  1  6
 23 24  2  0
M  CHG  1  19   1
M  END
