
     RDKit          3D

 20 20  0  0  0  0  0  0  0  0999 V2000
    3.5600    0.6920    1.1390 C   0  0  0  0  0  0  0  0  0  0  0  0
    3.0750    0.4440   -0.2530 C   0  0  0  0  0  0  0  0  0  0  0  0
    1.8460   -0.4420   -0.3080 C   0  0  1  0  0  0  0  0  0  0  0  0
    2.1020   -1.7980    0.2960 C   0  0  0  0  0  0  0  0  0  0  0  0
    3.2090   -2.5380   -0.4190 C   0  0  0  0  0  0  0  0  0  0  0  0
    0.8170    0.2170    0.3240 O   0  0  0  0  0  0  0  0  0  0  0  0
   -0.2350    0.5550   -0.5580 C   0  0  2  0  0  0  0  0  0  0  0  0
   -0.2720    2.0310   -0.5870 C   0  0  0  0  0  0  0  0  0  0  0  0
   -1.4010    2.7000   -0.4690 C   0  0  0  0  0  0  0  0  0  0  0  0
   -1.3870    4.1820   -0.5040 C   0  0  0  0  0  0  0  0  0  0  0  0
   -2.4600    4.7950   -0.3920 O   0  0  0  0  0  0  0  0  0  0  0  0
   -0.2050    4.8850   -0.6600 O   0  0  0  0  0  0  0  0  0  0  0  0
   -2.7130    2.0540   -0.2970 C   0  0  0  0  0  0  0  0  0  0  0  0
   -2.7240    0.5990   -0.7050 C   0  0  2  0  0  0  0  0  0  0  0  0
   -3.8980   -0.0010   -0.1210 N   0  0  0  0  0  0  0  0  0  0  0  0
   -1.5110   -0.0280   -0.0690 C   0  0  1  0  0  0  0  0  0  0  0  0
   -1.4800   -1.4500   -0.1650 N   0  0  0  0  0  0  0  0  0  0  0  0
   -1.6040   -2.3240    0.9520 C   0  0  0  0  0  0  0  0  0  0  0  0
   -1.5710   -3.7910    0.8430 C   0  0  0  0  0  0  0  0  0  0  0  0
   -1.7480   -1.7960    2.0770 O   0  0  0  0  0  0  0  0  0  0  0  0
  1  2  1  0
  3  2  1  1
  3  4  1  0
  3  6  1  0
  4  5  1  0
  7  6  1  1
  7  8  1  0
  7 16  1  0
  8  9  2  0
  9 10  1  0
  9 13  1  0
 10 11  2  0
 10 12  1  0
 13 14  1  0
 14 15  1  1
 14 16  1  0
 16 17  1  6
 17 18  1  0
 18 19  1  0
 18 20  2  0
M  END
