
     RDKit          3D

 24 26  0  0  0  0  0  0  0  0999 V2000
   -0.1430    2.7440   -2.0780 C   0  0  0  0  0  0  0  0  0  0  0  0
   -1.2880    1.8160   -2.0700 C   0  0  0  0  0  0  0  0  0  0  0  0
   -2.1080    1.5480   -3.0930 N   0  0  0  0  0  0  0  0  0  0  0  0
   -3.0270    0.6630   -2.7230 N   0  0  0  0  0  0  0  0  0  0  0  0
   -2.8410    0.3140   -1.4260 C   0  0  0  0  0  0  0  0  0  0  0  0
   -3.6250   -0.6230   -0.6330 C   0  0  0  0  0  0  0  0  0  0  0  0
   -3.4180   -0.9330    0.6830 C   0  0  0  0  0  0  0  0  0  0  0  0
   -4.3780   -1.8720    1.0810 C   0  0  0  0  0  0  0  0  0  0  0  0
   -5.1320   -2.0790   -0.0570 C   0  0  0  0  0  0  0  0  0  0  0  0
   -4.6590   -1.3420   -1.0040 O   0  0  0  0  0  0  0  0  0  0  0  0
   -1.7470    1.0380   -1.0110 C   0  0  0  0  0  0  0  0  0  0  0  0
   -1.1180    1.0570    0.2540 N   0  0  0  0  0  0  0  0  0  0  0  0
   -0.0360    0.1980    0.5860 C   0  0  0  0  0  0  0  0  0  0  0  0
    0.4150   -0.6210   -0.2290 O   0  0  0  0  0  0  0  0  0  0  0  0
    0.5450    0.3060    1.9430 C   0  0  0  0  0  0  0  0  0  0  0  0
    1.6350   -0.6060    2.1610 N   0  0  0  0  0  0  0  0  0  0  0  0
    2.8210   -0.5080    1.4020 C   0  0  0  0  0  0  0  0  0  0  0  0
    3.8140   -1.4430    1.5570 C   0  0  0  0  0  0  0  0  0  0  0  0
    4.9910   -1.3770    0.8370 C   0  0  0  0  0  0  0  0  0  0  0  0
    5.1430   -0.3250   -0.0550 C   0  0  0  0  0  0  0  0  0  0  0  0
    6.6600   -0.2840   -0.9480 Cl  0  0  0  0  0  0  0  0  0  0  0  0
    4.1590    0.6190   -0.2210 C   0  0  0  0  0  0  0  0  0  0  0  0
    4.4040    1.9110   -1.3510 Cl  0  0  0  0  0  0  0  0  0  0  0  0
    2.9760    0.5260    0.5220 C   0  0  0  0  0  0  0  0  0  0  0  0
  1  2  1  0
  2  3  2  0
  2 11  1  0
  3  4  1  0
  4  5  1  0
  5  6  1  0
  5 11  2  0
  6  7  2  0
  6 10  1  0
  7  8  1  0
  8  9  2  0
  9 10  1  0
 11 12  1  0
 12 13  1  0
 13 14  2  0
 13 15  1  0
 15 16  1  0
 16 17  1  0
 17 18  2  0
 17 24  1  0
 18 19  1  0
 19 20  2  0
 20 21  1  0
 20 22  1  0
 22 23  1  0
 22 24  2  0
M  END
