
     RDKit          3D

 24 26  0  0  0  0  0  0  0  0999 V2000
    5.9350    1.2450    1.5080 C   0  0  0  0  0  0  0  0  0  0  0  0
    4.9700    0.5270    0.6310 C   0  0  0  0  0  0  0  0  0  0  0  0
    5.2150   -0.7730    0.2580 C   0  0  0  0  0  0  0  0  0  0  0  0
    4.3080   -1.4130   -0.5530 C   0  0  0  0  0  0  0  0  0  0  0  0
    4.6310   -3.0660   -1.0190 Cl  0  0  0  0  0  0  0  0  0  0  0  0
    3.1650   -0.7390   -0.9810 C   0  0  0  0  0  0  0  0  0  0  0  0
    2.8830    0.5590   -0.6310 C   0  0  0  0  0  0  0  0  0  0  0  0
    1.7500    1.2950   -0.9860 N   0  0  0  0  0  0  0  0  0  0  0  0
    0.4380    0.8400   -1.2240 C   0  0  0  0  0  0  0  0  0  0  0  0
   -0.6360    1.6150   -1.5900 N   0  0  0  0  0  0  0  0  0  0  0  0
   -1.7130    0.8660   -1.6940 N   0  0  0  0  0  0  0  0  0  0  0  0
   -1.3940   -0.4050   -1.4040 C   0  0  0  0  0  0  0  0  0  0  0  0
   -2.3000   -1.5820   -1.3970 C   0  0  0  0  0  0  0  0  0  0  0  0
   -2.8940   -1.7700   -0.1090 O   0  0  0  0  0  0  0  0  0  0  0  0
   -3.6760   -0.7520    0.4200 C   0  0  0  0  0  0  0  0  0  0  0  0
   -3.1260    0.1450    1.2220 C   0  0  0  0  0  0  0  0  0  0  0  0
   -3.9150    1.2380    1.8040 C   0  0  0  0  0  0  0  0  0  0  0  0
   -5.2060    1.3560    1.5410 C   0  0  0  0  0  0  0  0  0  0  0  0
   -5.8350    0.4390    0.7040 O   0  0  0  0  0  0  0  0  0  0  0  0
   -5.0990   -0.5990    0.1470 C   0  0  0  0  0  0  0  0  0  0  0  0
   -5.7010   -1.4640   -0.6440 C   0  0  0  0  0  0  0  0  0  0  0  0
   -7.4140   -1.3150   -0.9980 Cl  0  0  0  0  0  0  0  0  0  0  0  0
   -0.0520   -0.3800   -1.1180 N   0  0  0  0  0  0  0  0  0  0  0  0
    3.8390    1.1730    0.2000 C   0  0  0  0  0  0  0  0  0  0  0  0
  1  2  1  0
  2  3  2  0
  2 24  1  0
  3  4  1  0
  4  5  1  0
  4  6  2  0
  6  7  1  0
  7  8  1  0
  7 24  2  0
  8  9  1  0
  9 10  2  0
  9 23  1  0
 10 11  1  0
 11 12  2  0
 12 13  1  0
 12 23  1  0
 13 14  1  0
 14 15  1  0
 15 16  2  0
 15 20  1  0
 16 17  1  0
 17 18  2  0
 18 19  1  0
 19 20  1  0
 20 21  2  3
 21 22  1  0
M  END
