
     RDKit          3D

 24 26  0  0  0  0  0  0  0  0999 V2000
   -6.4770   -0.4340    0.5410 C   0  0  0  0  0  0  0  0  0  0  0  0
   -5.2610    0.4090    0.4170 C   0  0  0  0  0  0  0  0  0  0  0  0
   -4.0260   -0.1720    0.0920 C   0  0  0  0  0  0  0  0  0  0  0  0
   -2.8950    0.5520   -0.0320 C   0  0  0  0  0  0  0  0  0  0  0  0
   -1.6350    0.0370   -0.3710 N   0  0  0  0  0  0  0  0  0  0  0  0
   -1.3490   -1.2290   -0.9050 C   0  0  0  0  0  0  0  0  0  0  0  0
   -2.3680   -1.9870   -1.1130 O   0  0  0  0  0  0  0  0  0  0  0  0
   -0.0520   -1.7730   -1.2460 C   0  0  0  0  0  0  0  0  0  0  0  0
    0.0980   -2.9580   -1.9070 N   0  0  0  0  0  0  0  0  0  0  0  0
    1.3370   -3.2150   -2.0790 O   0  0  0  0  0  0  0  0  0  0  0  0
    2.1160   -2.2610   -1.5680 C   0  0  0  0  0  0  0  0  0  0  0  0
    1.2570   -1.3330   -1.0320 C   0  0  0  0  0  0  0  0  0  0  0  0
    1.7170   -0.1180   -0.3500 C   0  0  0  0  0  0  0  0  0  0  0  0
    3.1810   -0.1300   -0.1570 C   0  0  0  0  0  0  0  0  0  0  0  0
    3.7510    0.5410    0.8410 C   0  0  0  0  0  0  0  0  0  0  0  0
    5.1400    0.5730    1.0840 N   0  0  0  0  0  0  0  0  0  0  0  0
    5.8380    1.8280    1.0300 C   0  0  0  0  0  0  0  0  0  0  0  0
    7.5630    1.6700    1.3590 Cl  0  0  0  0  0  0  0  0  0  0  0  0
    3.9910   -0.8590   -1.0480 N   0  0  0  0  0  0  0  0  0  0  0  0
    3.6100   -2.1600   -1.5500 C   0  0  0  0  0  0  0  0  0  0  0  0
   -2.9940    1.9340    0.1780 C   0  0  0  0  0  0  0  0  0  0  0  0
   -4.1980    2.5230    0.4970 C   0  0  0  0  0  0  0  0  0  0  0  0
   -5.3450    1.7660    0.6200 C   0  0  0  0  0  0  0  0  0  0  0  0
   -6.8780    2.5160    1.0270 Cl  0  0  0  0  0  0  0  0  0  0  0  0
  1  2  1  0
  2  3  2  0
  2 23  1  0
  3  4  1  0
  4  5  1  0
  4 21  2  0
  5  6  1  0
  6  7  2  0
  6  8  1  0
  8  9  2  0
  8 12  1  0
  9 10  1  0
 10 11  1  0
 11 12  2  0
 11 20  1  0
 12 13  1  0
 13 14  1  0
 14 15  2  3
 14 19  1  0
 15 16  1  0
 16 17  1  0
 17 18  1  0
 19 20  1  0
 21 22  1  0
 22 23  2  0
 23 24  1  0
M  END
