
     RDKit          3D

 28 31  0  0  0  0  0  0  0  0999 V2000
   -6.2520    3.5800   -0.6600 C   0  0  0  0  0  0  0  0  0  0  0  0
   -5.5780    2.3390   -0.2700 N   0  0  0  0  0  0  0  0  0  0  0  0
   -6.0300    1.0920   -0.7300 C   0  0  0  0  0  0  0  0  0  0  0  0
   -7.0570    1.1310   -1.4850 O   0  0  0  0  0  0  0  0  0  0  0  0
   -5.4590   -0.2070   -0.4340 C   0  0  0  0  0  0  0  0  0  0  0  0
   -6.3120   -1.3270   -0.5360 C   0  0  0  0  0  0  0  0  0  0  0  0
   -5.8430   -2.5630   -0.2300 C   0  0  0  0  0  0  0  0  0  0  0  0
   -4.5430   -2.7750    0.1870 C   0  0  0  0  0  0  0  0  0  0  0  0
   -3.6810   -1.7120    0.3010 C   0  0  0  0  0  0  0  0  0  0  0  0
   -4.1580   -0.4300   -0.0170 C   0  0  0  0  0  0  0  0  0  0  0  0
   -3.0190    0.9330    0.0180 S   0  0  0  0  0  0  0  0  0  0  0  0
   -1.3470    0.4080   -0.1000 C   0  0  0  0  0  0  0  0  0  0  0  0
   -0.3770    1.2040    0.4600 C   0  0  0  0  0  0  0  0  0  0  0  0
    0.9510    0.8710    0.3530 C   0  0  0  0  0  0  0  0  0  0  0  0
    1.3690   -0.2590   -0.3090 C   0  0  0  0  0  0  0  0  0  0  0  0
    2.6130   -0.8030   -0.5510 C   0  0  0  0  0  0  0  0  0  0  0  0
    3.9150   -0.2860   -0.1390 C   0  0  0  0  0  0  0  0  0  0  0  0
    5.0270   -0.8960   -0.4300 C   0  0  0  0  0  0  0  0  0  0  0  0
    6.3290   -0.3930   -0.0270 C   0  0  0  0  0  0  0  0  0  0  0  0
    6.5210    0.7640    0.6900 C   0  0  0  0  0  0  0  0  0  0  0  0
    7.7740    1.2230    1.0620 C   0  0  0  0  0  0  0  0  0  0  0  0
    8.8870    0.4940    0.7010 C   0  0  0  0  0  0  0  0  0  0  0  0
    8.6950   -0.6760   -0.0240 C   0  0  0  0  0  0  0  0  0  0  0  0
    7.4630   -1.0820   -0.3630 N   0  0  0  0  0  0  0  0  0  0  0  0
    2.3680   -1.9210   -1.2550 N   0  0  0  0  0  0  0  0  0  0  0  0
    1.0630   -2.0760   -1.4460 N   0  0  0  0  0  0  0  0  0  0  0  0
    0.3870   -1.0490   -0.8660 C   0  0  0  0  0  0  0  0  0  0  0  0
   -0.9740   -0.7290   -0.7710 C   0  0  0  0  0  0  0  0  0  0  0  0
  1  2  1  0
  2  3  1  0
  3  4  2  0
  3  5  1  0
  5  6  2  0
  5 10  1  0
  6  7  1  0
  7  8  2  0
  8  9  1  0
  9 10  2  0
 10 11  1  0
 11 12  1  0
 12 13  2  0
 12 28  1  0
 13 14  1  0
 14 15  2  0
 15 16  1  0
 15 27  1  0
 16 17  1  0
 16 25  2  0
 17 18  2  3
 18 19  1  0
 19 20  2  0
 19 24  1  0
 20 21  1  0
 21 22  2  0
 22 23  1  0
 23 24  2  0
 25 26  1  0
 26 27  1  0
 27 28  2  0
M  END
