
     RDKit          3D

 24 26  0  0  0  0  0  0  0  0999 V2000
    2.7800   -2.5390    0.1750 O   0  0  0  0  0  0  0  0  0  0  0  0
    2.2470   -1.3760    0.1770 C   0  0  0  0  0  0  0  0  0  0  0  0
    0.7910   -1.3080    0.2610 C   0  0  0  0  0  0  0  0  0  0  0  0
    0.1040   -0.2060    0.2740 C   0  0  0  0  0  0  0  0  0  0  0  0
   -1.3240   -0.0490    0.3560 C   0  0  0  0  0  0  0  0  0  0  0  0
   -1.7830    1.2060    0.3320 C   0  0  0  0  0  0  0  0  0  0  0  0
   -3.1240    1.7190    0.3920 N   0  0  0  0  0  0  0  0  0  0  0  0
   -4.2930    1.0230   -0.0840 C   0  0  0  0  0  0  0  0  0  0  0  0
   -5.4300    1.6050   -0.4090 C   0  0  0  0  0  0  0  0  0  0  0  0
   -5.6730    3.3400   -0.3030 Cl  0  0  0  0  0  0  0  0  0  0  0  0
   -6.4040    0.6000   -0.8530 C   0  0  0  0  0  0  0  0  0  0  0  0
   -5.6690   -0.6740   -0.7420 C   0  0  0  0  0  0  0  0  0  0  0  0
   -4.4720   -0.4100   -0.3030 C   0  0  0  0  0  0  0  0  0  0  0  0
   -3.4660   -1.4230   -0.0680 N   0  0  0  0  0  0  0  0  0  0  0  0
   -2.1440   -1.2360    0.4820 C   0  0  0  0  0  0  0  0  0  0  0  0
   -1.6840   -2.1930    1.1240 O   0  0  0  0  0  0  0  0  0  0  0  0
    3.1300   -0.2920    0.0980 N   0  0  0  0  0  0  0  0  0  0  0  0
    4.5370   -0.3090    0.0160 C   0  0  0  0  0  0  0  0  0  0  0  0
    5.3520   -1.3860   -0.0160 C   0  0  0  0  0  0  0  0  0  0  0  0
    6.7110   -1.2500   -0.0970 N   0  0  0  0  0  0  0  0  0  0  0  0
    7.3290   -0.0730   -0.1500 C   0  0  0  0  0  0  0  0  0  0  0  0
    6.5450    1.0650   -0.1220 C   0  0  0  0  0  0  0  0  0  0  0  0
    7.2810    2.6620   -0.1890 Cl  0  0  0  0  0  0  0  0  0  0  0  0
    5.1790    0.9390   -0.0400 C   0  0  0  0  0  0  0  0  0  0  0  0
  1  2  2  0
  2  3  1  0
  2 17  1  0
  3  4  2  3
  4  5  1  0
  5  6  2  0
  5 15  1  0
  6  7  1  0
  7  8  1  0
  8  9  2  0
  8 13  1  0
  9 10  1  0
  9 11  1  0
 11 12  1  0
 12 13  2  0
 13 14  1  0
 14 15  1  0
 15 16  2  0
 17 18  1  0
 18 19  2  0
 18 24  1  0
 19 20  1  0
 20 21  2  0
 21 22  1  0
 22 23  1  0
 22 24  2  0
M  END
