
     RDKit          3D

  8  8  0  0  0  0  0  0  0  0999 V2000
    1.7570   -0.9130    0.5770 C   0  0  0  0  0  0  0  0  0  0  0  0
    0.7190   -0.1490   -0.2180 C   0  0  1  0  0  0  0  0  0  0  0  0
    1.3410    0.2380   -1.4130 O   0  0  0  0  0  0  0  0  0  0  0  0
   -0.4790   -0.9640   -0.5610 C   0  0  0  0  0  0  0  0  0  0  0  0
   -1.7070   -0.6410    0.2180 C   0  0  0  0  0  0  0  0  0  0  0  0
   -2.0380    0.6830    0.2720 O   0  0  0  0  0  0  0  0  0  0  0  0
   -1.0230    1.5120   -0.1640 C   0  0  0  0  0  0  0  0  0  0  0  0
    0.2440    1.0600    0.5770 C   0  0  0  0  0  0  0  0  0  0  0  0
  2  1  1  1
  2  3  1  0
  2  4  1  0
  2  8  1  0
  4  5  1  0
  5  6  1  0
  6  7  1  0
  7  8  1  0
M  END
