
     RDKit          3D

  9  9  0  0  0  0  0  0  0  0999 V2000
    2.1170    0.4190   -1.6230 O   0  0  0  0  0  0  0  0  0  0  0  0
    1.9690    0.6940   -0.4470 C   0  0  0  0  0  0  0  0  0  0  0  0
    2.9500    1.3060    0.2580 F   0  0  0  0  0  0  0  0  0  0  0  0
    0.7050    0.3510    0.2100 C   0  0  2  0  0  0  0  0  0  0  0  0
    0.6470    0.7070    1.5400 O   0  0  0  0  0  0  0  0  0  0  0  0
    0.3640   -1.1060   -0.0190 C   0  0  0  0  0  0  0  0  0  0  0  0
   -1.1230   -1.1070    0.1890 C   0  0  0  0  0  0  0  0  0  0  0  0
   -1.6240    0.2830   -0.0600 C   0  0  0  0  0  0  0  0  0  0  0  0
   -0.4200    1.0340   -0.5750 C   0  0  0  0  0  0  0  0  0  0  0  0
  1  2  2  0
  2  3  1  0
  2  4  1  0
  4  5  1  1
  4  6  1  0
  4  9  1  0
  6  7  1  0
  7  8  1  0
  8  9  1  0
M  END
