
     RDKit          3D

  8  8  0  0  0  0  0  0  0  0999 V2000
    2.5790    0.1590   -0.8330 O   0  0  0  0  0  0  0  0  0  0  0  0
    1.5690   -0.7710   -0.5060 C   0  0  0  0  0  0  0  0  0  0  0  0
    0.5440    0.0070    0.2990 C   0  0  2  0  0  0  0  0  0  0  0  0
    1.1980    0.5020    1.4270 O   0  0  0  0  0  0  0  0  0  0  0  0
   -0.5860   -0.8690    0.7730 C   0  0  0  0  0  0  0  0  0  0  0  0
   -1.8190   -0.4580    0.0280 C   0  0  0  0  0  0  0  0  0  0  0  0
   -1.5320    0.9330   -0.4850 C   0  0  0  0  0  0  0  0  0  0  0  0
   -0.0340    1.0770   -0.5590 C   0  0  0  0  0  0  0  0  0  0  0  0
  1  2  1  0
  2  3  1  0
  3  4  1  1
  3  5  1  0
  3  8  1  0
  5  6  1  0
  6  7  1  0
  7  8  1  0
M  END
