
     RDKit          3D

 27 29  0  0  0  0  0  0  0  0999 V2000
    7.6170    0.5910   -1.6530 C   0  0  0  0  0  0  0  0  0  0  0  0
    6.2170    0.2830   -1.2880 C   0  0  0  0  0  0  0  0  0  0  0  0
    5.6460   -0.8490   -1.8160 C   0  0  0  0  0  0  0  0  0  0  0  0
    4.3660   -1.1580   -1.5020 C   0  0  0  0  0  0  0  0  0  0  0  0
    3.6390   -0.3170   -0.6400 C   0  0  0  0  0  0  0  0  0  0  0  0
    4.1590    0.8160   -0.0920 C   0  0  0  0  0  0  0  0  0  0  0  0
    3.4180    1.7150    0.7670 C   0  0  0  0  0  0  0  0  0  0  0  0
    4.0590    2.7480    1.4390 N   0  0  0  0  0  0  0  0  0  0  0  0
    3.1520    3.4400    2.1300 C   0  0  0  0  0  0  0  0  0  0  0  0
    1.9560    2.8350    1.8840 C   0  0  0  0  0  0  0  0  0  0  0  0
    2.1300    1.7740    1.0430 N   0  0  0  0  0  0  0  0  0  0  0  0
    1.0360    0.9630    0.6000 C   0  0  0  0  0  0  0  0  0  0  0  0
    0.7840   -0.2040    1.5090 C   0  0  0  0  0  0  0  0  0  0  0  0
    1.5460   -0.3040    2.5030 O   0  0  0  0  0  0  0  0  0  0  0  0
   -0.2320   -1.1390    1.2880 N   0  0  0  0  0  0  0  0  0  0  0  0
   -0.4080   -2.2370    2.2180 C   0  0  0  0  0  0  0  0  0  0  0  0
   -1.8270   -2.1990    2.7580 C   0  0  0  0  0  0  0  0  0  0  0  0
   -2.6350   -1.3660    1.9680 O   0  0  0  0  0  0  0  0  0  0  0  0
   -2.4500   -1.6650    0.6230 C   0  0  1  0  0  0  0  0  0  0  0  0
   -3.6350   -1.3410   -0.2250 C   0  0  1  0  0  0  0  0  0  0  0  0
   -4.7480   -2.1480    0.2990 N   0  0  0  0  0  0  0  0  0  0  0  0
   -4.0070    0.1230   -0.1440 C   0  0  0  0  0  0  0  0  0  0  0  0
   -5.2090    0.4420   -1.0040 C   0  0  2  0  0  0  0  0  0  0  0  0
   -4.9880    0.1400   -2.4490 C   0  0  0  0  0  0  0  0  0  0  0  0
   -5.4310    1.9570   -0.8940 C   0  0  0  0  0  0  0  0  0  0  0  0
   -1.1510   -1.0860    0.1580 C   0  0  0  0  0  0  0  0  0  0  0  0
    5.4870    1.0840   -0.4530 C   0  0  0  0  0  0  0  0  0  0  0  0
  1  2  1  0
  2  3  2  0
  2 27  1  0
  3  4  1  0
  4  5  2  0
  5  6  1  0
  6  7  1  0
  6 27  2  0
  7  8  2  0
  7 11  1  0
  8  9  1  0
  9 10  2  0
 10 11  1  0
 11 12  1  0
 12 13  1  0
 13 14  2  0
 13 15  1  0
 15 16  1  0
 15 26  1  0
 16 17  1  0
 17 18  1  0
 18 19  1  0
 19 20  1  0
 19 26  1  6
 20 21  1  1
 20 22  1  0
 22 23  1  0
 23 24  1  6
 23 25  1  0
M  CHG  2   8   1  21   1
M  END
