
     RDKit          3D

 27 29  0  0  0  0  0  0  0  0999 V2000
    6.5990    2.6760   -0.9530 C   0  0  0  0  0  0  0  0  0  0  0  0
    6.1160    1.3750   -1.3630 N   0  0  0  0  0  0  0  0  0  0  0  0
    4.7460    1.1960   -0.9280 C   0  0  1  0  0  0  0  0  0  0  0  0
    3.8370    0.8450   -2.0950 C   0  0  0  0  0  0  0  0  0  0  0  0
    4.6980    0.1460    0.1060 C   0  0  0  0  0  0  0  0  0  0  0  0
    5.7370   -0.4490    0.4820 O   0  0  0  0  0  0  0  0  0  0  0  0
    3.4470   -0.2300    0.7190 N   0  0  0  0  0  0  0  0  0  0  0  0
    3.4570   -1.2490    1.7110 C   0  0  0  0  0  0  0  0  0  0  0  0
    2.1100   -1.5800    2.3000 C   0  0  0  0  0  0  0  0  0  0  0  0
    2.1320   -2.5010    3.1930 O   0  0  0  0  0  0  0  0  0  0  0  0
    0.9180   -0.9500    1.9200 N   0  0  0  0  0  0  0  0  0  0  0  0
   -0.3440   -1.2730    2.4890 C   0  0  0  0  0  0  0  0  0  0  0  0
   -0.5350   -2.1390    3.5270 C   0  0  0  0  0  0  0  0  0  0  0  0
   -1.8140   -2.3930    4.0600 C   0  0  0  0  0  0  0  0  0  0  0  0
   -2.8980   -1.7530    3.5190 C   0  0  0  0  0  0  0  0  0  0  0  0
   -2.7600   -0.8760    2.4770 C   0  0  0  0  0  0  0  0  0  0  0  0
   -1.5050   -0.6400    1.9700 C   0  0  0  0  0  0  0  0  0  0  0  0
   -1.2720    0.2800    0.8330 C   0  0  0  0  0  0  0  0  0  0  0  0
   -2.4330    0.9010    0.3170 N   0  0  1  0  0  0  0  0  0  0  0  0
   -2.9840    0.2970   -0.8680 C   0  0  1  0  0  0  0  0  0  0  0  0
   -3.2790    1.3360   -1.9610 C   0  0  0  0  0  0  0  0  0  0  0  0
   -4.3560    0.7260   -2.8320 C   0  0  0  0  0  0  0  0  0  0  0  0
   -4.3070   -0.7860   -2.8010 C   0  0  0  0  0  0  0  0  0  0  0  0
   -2.8860   -1.2980   -2.7050 C   0  0  0  0  0  0  0  0  0  0  0  0
   -2.1520   -0.7670   -1.4930 C   0  0  0  0  0  0  0  0  0  0  0  0
   -3.4140    1.1220    1.3460 C   0  0  0  0  0  0  0  0  0  0  0  0
   -3.9630   -0.1700    1.9010 C   0  0  0  0  0  0  0  0  0  0  0  0
  1  2  1  0
  2  3  1  0
  3  4  1  6
  3  5  1  0
  5  6  2  0
  5  7  1  0
  7  8  1  0
  8  9  1  0
  9 10  2  0
  9 11  1  0
 11 12  1  0
 12 13  2  0
 12 17  1  0
 13 14  1  0
 14 15  2  0
 15 16  1  0
 16 17  2  0
 16 27  1  0
 17 18  1  0
 19 18  1  1
 19 20  1  0
 19 26  1  0
 20 21  1  6
 20 25  1  0
 21 22  1  0
 22 23  1  0
 23 24  1  0
 24 25  1  0
 26 27  1  0
M  CHG  2   2   1  19   1
M  END
