
     RDKit          3D

 27 29  0  0  0  0  0  0  0  0999 V2000
   -0.6750    4.3860   -1.1750 C   0  0  0  0  0  0  0  0  0  0  0  0
   -1.3060    3.4450   -0.2230 C   0  0  0  0  0  0  0  0  0  0  0  0
   -2.0860    3.6970    0.8340 C   0  0  0  0  0  0  0  0  0  0  0  0
   -2.4680    2.4560    1.4670 N   0  0  0  0  0  0  0  0  0  0  0  0
   -2.3590    1.4700    0.3950 C   0  0  1  0  0  0  0  0  0  0  0  0
   -1.1550    1.9850   -0.2940 C   0  0  0  0  0  0  0  0  0  0  0  0
   -0.3560    1.1420   -0.8600 C   0  0  0  0  0  0  0  0  0  0  0  0
   -0.4810   -0.3210   -0.7080 C   0  0  0  0  0  0  0  0  0  0  0  0
    0.5150   -1.0830   -1.4700 C   0  0  0  0  0  0  0  0  0  0  0  0
    1.8690   -0.7670   -1.0380 N   0  0  0  0  0  0  0  0  0  0  0  0
    3.0130   -1.3750   -1.6220 C   0  0  0  0  0  0  0  0  0  0  0  0
    2.8040   -2.2090   -2.5400 O   0  0  0  0  0  0  0  0  0  0  0  0
    4.4110   -1.0610   -1.1910 C   0  0  0  0  0  0  0  0  0  0  0  0
    4.4420   -0.0890   -0.1350 N   0  0  0  0  0  0  0  0  0  0  0  0
    4.5130    1.3440   -0.3290 C   0  0  0  0  0  0  0  0  0  0  0  0
    4.6360    1.9480    1.0540 C   0  0  0  0  0  0  0  0  0  0  0  0
    3.9820    0.8800    1.9280 C   0  0  0  0  0  0  0  0  0  0  0  0
    4.4090   -0.3620    1.2570 C   0  0  0  0  0  0  0  0  0  0  0  0
    4.6860   -1.4380    1.8050 O   0  0  0  0  0  0  0  0  0  0  0  0
   -1.4370   -0.8240    0.0520 C   0  0  0  0  0  0  0  0  0  0  0  0
   -1.4970   -2.3050    0.1370 C   0  0  0  0  0  0  0  0  0  0  0  0
   -2.6910   -2.8980   -0.3840 N   0  0  1  0  0  0  0  0  0  0  0  0
   -3.0540   -2.3990   -1.6920 C   0  0  0  0  0  0  0  0  0  0  0  0
   -2.4380   -4.3380   -0.5150 C   0  0  0  0  0  0  0  0  0  0  0  0
   -2.2590    0.0700    0.8530 C   0  0  1  0  0  0  0  0  0  0  0  0
   -1.6490    0.1230    2.2890 C   0  0  0  0  0  0  0  0  0  0  0  0
   -3.6770   -0.4020    1.1080 C   0  0  0  0  0  0  0  0  0  0  0  0
  1  2  1  0
  2  3  2  0
  2  6  1  0
  3  4  1  0
  5  4  1  1
  5  6  1  0
  5 25  1  0
  6  7  2  0
  7  8  1  0
  8  9  1  0
  8 20  2  0
  9 10  1  0
 10 11  1  0
 11 12  2  0
 11 13  1  0
 13 14  1  0
 14 15  1  0
 14 18  1  0
 15 16  1  0
 16 17  1  0
 17 18  1  0
 18 19  2  0
 20 21  1  0
 20 25  1  0
 21 22  1  0
 22 23  1  6
 22 24  1  0
 25 26  1  1
 25 27  1  0
M  CHG  1  22   1
M  END
