
     RDKit          3D

 27 29  0  0  0  0  0  0  0  0999 V2000
    3.6170    2.5820    0.3040 C   0  0  0  0  0  0  0  0  0  0  0  0
    2.5580    1.5560    0.0350 C   0  0  0  0  0  0  0  0  0  0  0  0
    1.2500    1.9260   -0.2700 C   0  0  0  0  0  0  0  0  0  0  0  0
    0.2620    0.9940   -0.4810 C   0  0  0  0  0  0  0  0  0  0  0  0
   -1.1100    1.3400   -0.7730 N   0  0  0  0  0  0  0  0  0  0  0  0
   -2.1660    0.4390   -0.5090 C   0  0  0  0  0  0  0  0  0  0  0  0
   -1.9600   -0.7050    0.0050 O   0  0  0  0  0  0  0  0  0  0  0  0
   -3.5820    0.8130   -0.8340 C   0  0  0  0  0  0  0  0  0  0  0  0
   -4.3830   -0.3060   -0.4560 N   0  0  2  0  0  0  0  0  0  0  0  0
   -4.2860   -1.3260   -1.5020 C   0  0  0  0  0  0  0  0  0  0  0  0
   -5.7660   -0.0920   -0.2200 C   0  0  1  0  0  0  0  0  0  0  0  0
   -6.2990   -1.3640    0.4770 C   0  0  0  0  0  0  0  0  0  0  0  0
   -7.6770   -0.8890    0.8880 C   0  0  0  0  0  0  0  0  0  0  0  0
   -7.3780    0.4800    1.4500 C   0  0  0  0  0  0  0  0  0  0  0  0
   -6.0460    0.9280    0.8810 C   0  0  0  0  0  0  0  0  0  0  0  0
    0.6330   -0.3400   -0.3820 C   0  0  0  0  0  0  0  0  0  0  0  0
    1.9450   -0.7050   -0.0780 C   0  0  0  0  0  0  0  0  0  0  0  0
    2.9050    0.2460    0.1320 C   0  0  0  0  0  0  0  0  0  0  0  0
    4.2640   -0.2450    0.4290 C   0  0  0  0  0  0  0  0  0  0  0  0
    4.4380   -0.8840    1.5220 O   0  0  0  0  0  0  0  0  0  0  0  0
    5.3830   -0.0590   -0.4100 N   0  0  0  0  0  0  0  0  0  0  0  0
    6.6980   -0.5140   -0.1680 C   0  0  0  0  0  0  0  0  0  0  0  0
    7.1320   -1.1460    0.9620 C   0  0  0  0  0  0  0  0  0  0  0  0
    8.4550   -1.5860    1.0730 C   0  0  0  0  0  0  0  0  0  0  0  0
    9.3480   -1.4140    0.0940 N   0  0  0  0  0  0  0  0  0  0  0  0
    8.9550   -0.7920   -1.0370 C   0  0  0  0  0  0  0  0  0  0  0  0
    7.6560   -0.3500   -1.1710 C   0  0  0  0  0  0  0  0  0  0  0  0
  1  2  1  0
  2  3  2  0
  2 18  1  0
  3  4  1  0
  4  5  1  0
  4 16  2  0
  5  6  1  0
  6  7  2  0
  6  8  1  0
  8  9  1  0
  9 10  1  6
  9 11  1  0
 11 12  1  1
 11 15  1  0
 12 13  1  0
 13 14  1  0
 14 15  1  0
 16 17  1  0
 17 18  2  0
 18 19  1  0
 19 20  2  0
 19 21  1  0
 21 22  1  0
 22 23  2  0
 22 27  1  0
 23 24  1  0
 24 25  2  0
 25 26  1  0
 26 27  2  0
M  CHG  2   9   1  25   1
M  END
