
     RDKit          3D

 27 29  0  0  0  0  0  0  0  0999 V2000
   -7.6450   -2.0300   -1.3680 C   0  0  0  0  0  0  0  0  0  0  0  0
   -7.2370   -0.8050   -0.7650 O   0  0  0  0  0  0  0  0  0  0  0  0
   -5.9370   -0.7330   -0.2630 C   0  0  0  0  0  0  0  0  0  0  0  0
   -5.0920   -1.8270   -0.3630 C   0  0  0  0  0  0  0  0  0  0  0  0
   -3.8210   -1.6980    0.1490 C   0  0  0  0  0  0  0  0  0  0  0  0
   -3.3640   -0.5290    0.7500 C   0  0  0  0  0  0  0  0  0  0  0  0
   -2.0120   -0.4840    1.2200 N   0  0  0  0  0  0  0  0  0  0  0  0
   -0.9370   -0.9020    0.3690 C   0  0  0  0  0  0  0  0  0  0  0  0
   -1.2690   -1.2810   -0.7950 O   0  0  0  0  0  0  0  0  0  0  0  0
    0.4900   -0.8850    0.8370 C   0  0  0  0  0  0  0  0  0  0  0  0
    1.3100   -1.2760   -0.2360 N   0  0  0  0  0  0  0  0  0  0  0  0
    1.4400   -0.3420   -1.3030 C   0  0  0  0  0  0  0  0  0  0  0  0
    2.8740    0.1220   -1.5100 C   0  0  0  0  0  0  0  0  0  0  0  0
    3.5930   -0.1890   -0.2890 N   0  0  2  0  0  0  0  0  0  0  0  0
    4.8120    0.5260   -0.1130 C   0  0  1  0  0  0  0  0  0  0  0  0
    5.3300    0.3670    1.2840 C   0  0  0  0  0  0  0  0  0  0  0  0
    6.5800    1.1680    1.4970 C   0  0  0  0  0  0  0  0  0  0  0  0
    7.5990    0.9860    0.3930 C   0  0  0  0  0  0  0  0  0  0  0  0
    6.9710    1.2710   -0.9520 C   0  0  0  0  0  0  0  0  0  0  0  0
    5.8660    0.2260   -1.1500 C   0  0  0  0  0  0  0  0  0  0  0  0
    3.7380   -1.6250   -0.2330 C   0  0  0  0  0  0  0  0  0  0  0  0
    2.3440   -2.1980   -0.0550 C   0  0  0  0  0  0  0  0  0  0  0  0
   -4.2420    0.5260    0.8240 C   0  0  0  0  0  0  0  0  0  0  0  0
   -5.5270    0.4650    0.3340 C   0  0  0  0  0  0  0  0  0  0  0  0
   -6.4790    1.5840    0.3530 C   0  0  1  0  0  0  0  0  0  0  0  0
   -6.1120    2.6950    1.3030 C   0  0  0  0  0  0  0  0  0  0  0  0
   -6.4560    2.1530   -1.0080 N   0  0  0  0  0  0  0  0  0  0  0  0
  1  2  1  0
  2  3  1  0
  3  4  2  0
  3 24  1  0
  4  5  1  0
  5  6  2  0
  6  7  1  0
  6 23  1  0
  7  8  1  0
  8  9  2  0
  8 10  1  0
 10 11  1  0
 11 12  1  0
 11 22  1  0
 12 13  1  0
 14 13  1  6
 14 15  1  0
 14 21  1  0
 15 16  1  1
 15 20  1  0
 16 17  1  0
 17 18  1  0
 18 19  1  0
 19 20  1  0
 21 22  1  0
 23 24  2  0
 24 25  1  0
 25 26  1  1
 25 27  1  0
M  CHG  2  14   1  27   1
M  END
