
     RDKit          3D

 44 50  0  0  0  0  0  0  0  0999 V2000
   -9.2510   -0.9710    1.8690 N   0  0  0  0  0  0  0  0  0  0  0  0
   -7.8330   -0.8980    1.7820 C   0  0  0  0  0  0  0  0  0  0  0  0
   -7.0510   -1.4650    2.7310 N   0  0  0  0  0  0  0  0  0  0  0  0
   -5.7180   -1.3870    2.6340 C   0  0  0  0  0  0  0  0  0  0  0  0
   -5.0880   -0.7620    1.6230 N   0  0  0  0  0  0  0  0  0  0  0  0
   -5.8150   -0.1850    0.6590 C   0  0  0  0  0  0  0  0  0  0  0  0
   -7.1910   -0.2540    0.7410 C   0  0  0  0  0  0  0  0  0  0  0  0
   -7.6530    0.3900   -0.3260 N   0  0  0  0  0  0  0  0  0  0  0  0
   -6.6110    0.8430   -1.0460 C   0  0  0  0  0  0  0  0  0  0  0  0
   -5.4430    0.4890   -0.4370 N   0  0  0  0  0  0  0  0  0  0  0  0
   -4.1130    0.8070   -0.9270 C   0  0  2  0  0  0  0  0  0  0  0  0
   -3.5320   -0.2640   -1.5830 O   0  0  0  0  0  0  0  0  0  0  0  0
   -2.1380   -0.0800   -1.4700 C   0  0  2  0  0  0  0  0  0  0  0  0
   -1.5140   -1.3930   -1.8270 C   0  0  0  0  0  0  0  0  0  0  0  0
   -0.1420   -1.3840   -1.8960 O   0  0  0  0  0  0  0  0  0  0  0  0
    0.6260   -1.0230   -3.1690 P   0  0  0  0  0  0  0  0  0  0  0  0
   -0.2330   -2.2090   -3.9750 O   0  0  0  0  0  0  0  0  0  0  0  0
    1.2450   -0.5310   -4.4960 O   0  0  0  0  0  0  0  0  0  0  0  0
    2.0370   -1.4550   -2.5200 O   0  0  0  0  0  0  0  0  0  0  0  0
    2.4070   -1.1130   -1.3010 C   0  0  2  0  0  0  0  0  0  0  0  0
    2.0000    0.1590   -0.7060 C   0  0  1  0  0  0  0  0  0  0  0  0
    1.4040   -0.0280    0.6990 C   0  0  0  0  0  0  0  0  0  0  0  0
    1.0980    1.2030    1.2680 O   0  0  0  0  0  0  0  0  0  0  0  0
   -0.3690    1.4740    1.5890 P   0  0  0  0  0  0  0  0  0  0  0  0
   -0.3440    0.3610    2.8170 O   0  0  0  0  0  0  0  0  0  0  0  0
    0.0300    3.0470    1.9900 O   0  0  0  0  0  0  0  0  0  0  0  0
   -0.8680    1.0980    0.0920 O   0  0  0  0  0  0  0  0  0  0  0  0
   -1.9810    0.3230   -0.0460 C   0  0  1  0  0  0  0  0  0  0  0  0
   -3.1970    1.2230    0.1740 C   0  0  1  0  0  0  0  0  0  0  0  0
   -2.8190    2.5710   -0.0230 O   0  0  0  0  0  0  0  0  0  0  0  0
    3.0940    0.9870   -0.5160 O   0  0  0  0  0  0  0  0  0  0  0  0
    4.2070    0.4130   -1.0390 C   0  0  1  0  0  0  0  0  0  0  0  0
    5.3990    0.5430   -0.2220 N   0  0  0  0  0  0  0  0  0  0  0  0
    6.4820    1.3110   -0.4460 C   0  0  0  0  0  0  0  0  0  0  0  0
    7.3760    1.1500    0.5510 N   0  0  0  0  0  0  0  0  0  0  0  0
    6.8790    0.2730    1.4340 C   0  0  0  0  0  0  0  0  0  0  0  0
    7.3530   -0.2540    2.6180 C   0  0  0  0  0  0  0  0  0  0  0  0
    8.6160    0.1340    3.1130 N   0  0  0  0  0  0  0  0  0  0  0  0
    6.5880   -1.1370    3.2820 N   0  0  0  0  0  0  0  0  0  0  0  0
    5.3810   -1.5260    2.8360 C   0  0  0  0  0  0  0  0  0  0  0  0
    4.9450   -0.9970    1.6810 N   0  0  0  0  0  0  0  0  0  0  0  0
    5.6400   -0.1080    0.9500 C   0  0  0  0  0  0  0  0  0  0  0  0
    3.9350   -1.0460   -1.2660 C   0  0  2  0  0  0  0  0  0  0  0  0
    4.4790   -1.3910   -2.5050 O   0  0  0  0  0  0  0  0  0  0  0  0
  1  2  1  0
  2  3  2  0
  2  7  1  0
  3  4  1  0
  4  5  2  0
  5  6  1  0
  6  7  2  0
  6 10  1  0
  7  8  1  0
  8  9  2  0
  9 10  1  0
 11 10  1  1
 11 12  1  0
 11 29  1  0
 12 13  1  0
 13 14  1  1
 13 28  1  0
 14 15  1  0
 15 16  1  0
 16 17  1  0
 16 18  1  0
 16 19  1  0
 20 19  1  6
 20 21  1  0
 20 43  1  0
 21 22  1  1
 21 31  1  0
 22 23  1  0
 23 24  1  0
 24 25  1  0
 24 26  1  0
 24 27  1  0
 28 27  1  6
 28 29  1  0
 29 30  1  6
 31 32  1  0
 32 33  1  1
 32 43  1  0
 33 34  1  0
 33 42  1  0
 34 35  2  0
 35 36  1  0
 36 37  2  0
 36 42  1  0
 37 38  1  0
 37 39  1  0
 39 40  2  0
 40 41  1  0
 41 42  2  0
 43 44  1  6
M  END
