
     RDKit          3D

 32 34  0  0  0  0  0  0  0  0999 V2000
    3.2430   -1.3150   -1.7800 C   0  0  0  0  0  0  0  0  0  0  0  0
    3.4890   -0.2020   -0.7660 C   0  0  1  0  0  0  0  0  0  0  0  0
    2.1380    0.4840   -0.5860 C   0  0  0  0  0  0  0  0  0  0  0  0
    1.1030   -0.4910   -0.0730 C   0  0  0  0  0  0  0  0  0  0  0  0
   -0.1780    0.1630    0.0940 N   0  0  0  0  0  0  0  0  0  0  0  0
   -0.8860    0.7770   -0.9570 C   0  0  0  0  0  0  0  0  0  0  0  0
   -0.4000    0.7740   -2.1190 O   0  0  0  0  0  0  0  0  0  0  0  0
   -2.2090    1.4500   -0.7770 C   0  0  2  0  0  0  0  0  0  0  0  0
   -2.5410    1.4180    0.5700 O   0  0  0  0  0  0  0  0  0  0  0  0
   -3.2270    0.7090   -1.6070 C   0  0  0  0  0  0  0  0  0  0  0  0
   -3.2830   -0.6710   -1.1280 N   0  0  0  0  0  0  0  0  0  0  0  0
   -2.4800   -1.6780   -1.5650 C   0  0  0  0  0  0  0  0  0  0  0  0
   -2.8090   -2.7850   -0.9000 N   0  0  0  0  0  0  0  0  0  0  0  0
   -3.8050   -2.5140   -0.0450 C   0  0  0  0  0  0  0  0  0  0  0  0
   -4.1100   -1.1520   -0.1930 C   0  0  0  0  0  0  0  0  0  0  0  0
   -5.1320   -0.4630    0.5280 N   0  0  0  0  0  0  0  0  0  0  0  0
   -4.9810   -0.1970    1.8290 C   0  0  0  0  0  0  0  0  0  0  0  0
   -5.9490    0.4470    2.5180 N   0  0  0  0  0  0  0  0  0  0  0  0
   -7.0790    0.8340    1.9220 C   0  0  0  0  0  0  0  0  0  0  0  0
   -8.1850    1.4850    2.3830 N   0  0  0  0  0  0  0  0  0  0  0  0
   -9.0570    1.6400    1.3670 C   0  0  0  0  0  0  0  0  0  0  0  0
   -8.4470    1.0630    0.2770 C   0  0  0  0  0  0  0  0  0  0  0  0
   -7.2590    0.5830    0.6230 N   0  0  0  0  0  0  0  0  0  0  0  0
   -6.2780   -0.0670   -0.0670 C   0  0  0  0  0  0  0  0  0  0  0  0
   -6.4830   -0.2890   -1.2930 O   0  0  0  0  0  0  0  0  0  0  0  0
    3.8560   -0.7560    0.5120 N   0  0  0  0  0  0  0  0  0  0  0  0
    5.0800   -1.5040    0.4880 C   0  0  0  0  0  0  0  0  0  0  0  0
    6.3050   -0.6880    0.2530 C   0  0  0  0  0  0  0  0  0  0  0  0
    6.4940    0.3660    1.3360 C   0  0  0  0  0  0  0  0  0  0  0  0
    8.0300    1.3630    1.0080 P   0  0  0  0  0  0  0  0  0  0  0  0
    9.3660    0.2560    0.9220 O   0  0  0  0  0  0  0  0  0  0  0  0
    8.2950    2.4060    2.3700 O   0  0  0  0  0  0  0  0  0  0  0  0
  2  1  1  6
  2  3  1  0
  2 26  1  0
  3  4  1  0
  4  5  1  0
  5  6  1  0
  6  7  2  0
  6  8  1  0
  8  9  1  1
  8 10  1  0
 10 11  1  0
 11 12  1  0
 11 15  1  0
 12 13  2  0
 13 14  1  0
 14 15  2  0
 15 16  1  0
 16 17  1  0
 16 24  1  0
 17 18  2  0
 18 19  1  0
 19 20  2  0
 19 23  1  0
 20 21  1  0
 21 22  2  0
 22 23  1  0
 23 24  1  0
 24 25  2  0
 26 27  1  0
 27 28  1  0
 28 29  1  0
 29 30  1  0
 30 31  1  0
 30 32  1  0
M  END
