
     RDKit          3D

 32 34  0  0  0  0  0  0  0  0999 V2000
   -3.2060   -2.0290   -1.3930 N   0  0  0  0  0  0  0  0  0  0  0  0
   -3.0950   -0.8810   -2.2270 C   0  0  0  0  0  0  0  0  0  0  0  0
   -1.7390   -0.2550   -2.1540 C   0  0  0  0  0  0  0  0  0  0  0  0
   -1.1670    0.2200   -1.1310 O   0  0  0  0  0  0  0  0  0  0  0  0
   -0.7330   -0.0640    0.0580 C   0  0  1  0  0  0  0  0  0  0  0  0
   -1.6880   -0.2540    1.1700 C   0  0  0  0  0  0  0  0  0  0  0  0
   -2.5670    0.8050    1.5510 N   0  0  0  0  0  0  0  0  0  0  0  0
   -2.2760    1.8590    2.3560 C   0  0  0  0  0  0  0  0  0  0  0  0
   -3.3360    2.6530    2.4700 N   0  0  0  0  0  0  0  0  0  0  0  0
   -4.2890    2.1210    1.7540 N   0  0  0  0  0  0  0  0  0  0  0  0
   -3.8370    0.9690    1.1730 C   0  0  0  0  0  0  0  0  0  0  0  0
   -4.6860    0.1470    0.3710 N   0  0  0  0  0  0  0  0  0  0  0  0
   -5.9130    0.4430    0.1530 C   0  0  0  0  0  0  0  0  0  0  0  0
   -6.7140   -0.4060   -0.6500 N   0  0  0  0  0  0  0  0  0  0  0  0
   -6.4850    1.6130    0.7060 N   0  0  0  0  0  0  0  0  0  0  0  0
    0.0470   -1.4170    0.0250 C   0  0  0  0  0  0  0  0  0  0  0  0
    0.7800   -1.5900    1.2980 C   0  0  0  0  0  0  0  0  0  0  0  0
    1.6750   -0.5670    1.5800 O   0  0  0  0  0  0  0  0  0  0  0  0
    1.0640    0.6720    1.6200 C   0  0  0  0  0  0  0  0  0  0  0  0
    0.2660    1.0360    0.4550 C   0  0  1  0  0  0  0  0  0  0  0  0
    0.9670    1.5880   -0.7470 C   0  0  0  0  0  0  0  0  0  0  0  0
    1.7350    0.7240   -1.5350 N   0  0  0  0  0  0  0  0  0  0  0  0
    3.0140    0.2280   -1.2440 C   0  0  0  0  0  0  0  0  0  0  0  0
    3.8000    0.8830   -0.3260 C   0  0  0  0  0  0  0  0  0  0  0  0
    5.0510    0.3910   -0.0250 C   0  0  0  0  0  0  0  0  0  0  0  0
    5.5640   -0.7520   -0.6120 C   0  0  0  0  0  0  0  0  0  0  0  0
    7.2360   -1.3440   -0.1600 P   0  0  0  0  0  0  0  0  0  0  0  0
    7.0840   -2.5910    1.0350 O   0  0  0  0  0  0  0  0  0  0  0  0
    8.1850   -0.0140    0.4240 O   0  0  0  0  0  0  0  0  0  0  0  0
    8.4000   -0.1510    1.7150 O   0  0  0  0  0  0  0  0  0  0  0  0
    4.7570   -1.3850   -1.5250 C   0  0  0  0  0  0  0  0  0  0  0  0
    3.5140   -0.9210   -1.8430 C   0  0  0  0  0  0  0  0  0  0  0  0
  1  2  1  0
  2  3  1  0
  3  4  1  0
  4  5  1  0
  5  6  1  1
  5 16  1  0
  5 20  1  0
  6  7  1  0
  7  8  1  0
  7 11  1  0
  8  9  2  0
  9 10  1  0
 10 11  2  0
 11 12  1  0
 12 13  2  3
 13 14  1  0
 13 15  1  0
 16 17  1  0
 17 18  1  0
 18 19  1  0
 19 20  1  0
 20 21  1  6
 21 22  1  0
 22 23  1  0
 23 24  2  0
 23 32  1  0
 24 25  1  0
 25 26  2  0
 26 27  1  0
 26 31  1  0
 27 28  1  0
 27 29  1  0
 29 30  1  0
 31 32  2  0
M  END
