
     RDKit          3D

 33 34  0  0  0  0  0  0  0  0999 V2000
    7.3250    1.4930   -0.5350 C   0  0  0  0  0  0  0  0  0  0  0  0
    6.9810    2.0130    0.8460 C   0  0  0  0  0  0  0  0  0  0  0  0
    5.6450    1.4520    1.2440 C   0  0  0  0  0  0  0  0  0  0  0  0
    4.6160    1.9170    0.2280 C   0  0  0  0  0  0  0  0  0  0  0  0
    3.2340    1.3530    0.6070 C   0  0  0  0  0  0  0  0  0  0  0  0
    3.2930   -0.0270    0.5990 O   0  0  0  0  0  0  0  0  0  0  0  0
    2.0890   -0.6390    0.9730 C   0  0  0  0  0  0  0  0  0  0  0  0
    0.9560   -0.2440    0.0660 C   0  0  0  0  0  0  0  0  0  0  0  0
   -0.3250   -0.9820    0.4470 C   0  0  2  0  0  0  0  0  0  0  0  0
   -0.1260   -2.4520    0.2990 C   0  0  0  0  0  0  0  0  0  0  0  0
   -0.2250   -3.2920    1.3820 N   0  0  0  0  0  0  0  0  0  0  0  0
   -0.1880   -2.8830    2.7320 C   0  0  0  0  0  0  0  0  0  0  0  0
   -0.0650   -1.7310    3.0950 O   0  0  0  0  0  0  0  0  0  0  0  0
   -0.1280   -2.9240   -0.9580 C   0  0  0  0  0  0  0  0  0  0  0  0
   -0.3600   -2.0530   -2.1110 C   0  0  0  0  0  0  0  0  0  0  0  0
   -0.1860   -2.4820   -3.3170 N   0  0  0  0  0  0  0  0  0  0  0  0
    0.2310   -3.8060   -3.5720 C   0  0  0  0  0  0  0  0  0  0  0  0
    0.4520   -4.6210   -2.6200 N   0  0  0  0  0  0  0  0  0  0  0  0
    0.3000   -4.2640   -1.2570 N   0  0  0  0  0  0  0  0  0  0  0  0
    0.6980   -5.1950   -0.2400 C   0  0  0  0  0  0  0  0  0  0  0  0
   -0.8840   -0.6820   -1.9210 C   0  0  0  0  0  0  0  0  0  0  0  0
   -1.2960   -0.5150   -0.5580 N   0  0  0  0  0  0  0  0  0  0  0  0
   -2.5150    0.0660   -0.1670 C   0  0  0  0  0  0  0  0  0  0  0  0
   -2.7790    0.1500    1.0730 O   0  0  0  0  0  0  0  0  0  0  0  0
   -3.5050    0.5860   -1.1250 C   0  0  0  0  0  0  0  0  0  0  0  0
   -4.6370    1.1240   -0.4170 N   0  0  0  0  0  0  0  0  0  0  0  0
   -5.5660    0.2970    0.3220 C   0  0  0  0  0  0  0  0  0  0  0  0
   -4.8550    2.5310   -0.4410 C   0  0  0  0  0  0  0  0  0  0  0  0
   -5.0000    3.1160   -1.5770 N   0  0  0  0  0  0  0  0  0  0  0  0
   -4.9180    3.3220    0.7300 N   0  0  0  0  0  0  0  0  0  0  0  0
   -5.7550    4.9100    0.7890 P   0  0  0  0  0  0  0  0  0  0  0  0
   -7.0410    4.8730   -0.3840 O   0  0  0  0  0  0  0  0  0  0  0  0
   -6.4910    5.0370    2.3600 O   0  0  0  0  0  0  0  0  0  0  0  0
  1  2  1  0
  2  3  1  0
  3  4  1  0
  4  5  1  0
  5  6  1  0
  6  7  1  0
  7  8  1  0
  9  8  1  6
  9 10  1  0
  9 22  1  0
 10 11  1  0
 10 14  2  0
 11 12  1  0
 12 13  2  0
 14 15  1  0
 14 19  1  0
 15 16  2  0
 15 21  1  0
 16 17  1  0
 17 18  2  0
 18 19  1  0
 19 20  1  0
 21 22  1  0
 22 23  1  0
 23 24  2  0
 23 25  1  0
 25 26  1  0
 26 27  1  0
 26 28  1  0
 28 29  2  0
 28 30  1  0
 30 31  1  0
 31 32  1  0
 31 33  1  0
M  END
