
     RDKit          3D

 33 33  0  0  0  0  0  0  0  0999 V2000
   -1.6610    3.0000    0.7280 C   0  0  0  0  0  0  0  0  0  0  0  0
   -2.0200    2.4930   -0.4520 C   0  0  0  0  0  0  0  0  0  0  0  0
   -2.6410    3.4160   -1.3730 C   0  0  0  0  0  0  0  0  0  0  0  0
   -3.0420    3.0510   -2.5650 C   0  0  0  0  0  0  0  0  0  0  0  0
   -3.8230    4.3490   -3.6410 P   0  0  0  0  0  0  0  0  0  0  0  0
   -5.5310    4.2540   -3.4830 O   0  0  0  0  0  0  0  0  0  0  0  0
   -3.1800    5.8760   -3.1310 O   0  0  0  0  0  0  0  0  0  0  0  0
   -1.7680    1.1000   -0.7170 C   0  0  0  0  0  0  0  0  0  0  0  0
   -2.0790    0.5280   -1.8200 O   0  0  0  0  0  0  0  0  0  0  0  0
   -1.1480    0.1990    0.2060 N   0  0  0  0  0  0  0  0  0  0  0  0
   -0.9140   -1.1910   -0.1050 C   0  0  1  0  0  0  0  0  0  0  0  0
    0.5770   -1.3770   -0.2230 C   0  0  0  0  0  0  0  0  0  0  0  0
    1.3060   -1.0200    1.0530 C   0  0  0  0  0  0  0  0  0  0  0  0
    2.7120   -1.1510    1.0180 N   0  0  0  0  0  0  0  0  0  0  0  0
    3.5870   -0.2580    0.2060 C   0  0  0  0  0  0  0  0  0  0  0  0
    3.6830    0.9400    0.6940 C   0  0  0  0  0  0  0  0  0  0  0  0
    2.9710    1.2570    1.9410 N   0  0  0  0  0  0  0  0  0  0  0  0
    2.9940    2.4120    2.3850 N   0  0  0  0  0  0  0  0  0  0  0  0
    3.6360    3.4990    1.8320 N   0  0  0  0  0  0  0  0  0  0  0  0
    4.3010    3.3860    0.7420 C   0  0  0  0  0  0  0  0  0  0  0  0
    5.0010    4.5350    0.1230 C   0  0  0  0  0  0  0  0  0  0  0  0
    4.3330    2.0660    0.1410 N   0  0  0  0  0  0  0  0  0  0  0  0
    4.2260   -0.9250   -0.8030 N   0  0  0  0  0  0  0  0  0  0  0  0
    3.6310   -2.2540   -1.2130 C   0  0  0  0  0  0  0  0  0  0  0  0
    5.3540   -0.5900   -1.5510 C   0  0  0  0  0  0  0  0  0  0  0  0
    6.1270    0.3500   -1.4730 O   0  0  0  0  0  0  0  0  0  0  0  0
   -1.5210   -1.9870    0.9700 N   0  0  0  0  0  0  0  0  0  0  0  0
   -2.8940   -1.5860    0.9820 C   0  0  0  0  0  0  0  0  0  0  0  0
   -3.7070   -2.0330   -0.1900 C   0  0  0  0  0  0  0  0  0  0  0  0
   -1.2280   -3.3580    0.7870 C   0  0  0  0  0  0  0  0  0  0  0  0
   -1.6720   -4.3290    1.7870 C   0  0  0  0  0  0  0  0  0  0  0  0
   -3.1330   -4.5320    2.0330 C   0  0  0  0  0  0  0  0  0  0  0  0
   -3.1950   -5.5740    3.0230 O   0  0  0  0  0  0  0  0  0  0  0  0
  1  2  2  0
  2  3  1  0
  2  8  1  0
  3  4  2  3
  4  5  1  0
  5  6  1  0
  5  7  1  0
  8  9  2  0
  8 10  1  0
 10 11  1  0
 11 12  1  1
 11 27  1  0
 12 13  1  0
 13 14  1  0
 14 15  1  0
 15 16  2  3
 15 23  1  0
 16 17  1  0
 16 22  1  0
 17 18  2  0
 18 19  1  0
 19 20  2  0
 20 21  1  0
 20 22  1  0
 23 24  1  0
 23 25  1  0
 25 26  2  0
 27 28  1  0
 27 30  1  0
 28 29  1  0
 30 31  1  0
 31 32  1  0
 32 33  1  0
M  END
