
     RDKit          3D

 33 34  0  0  0  0  0  0  0  0999 V2000
    0.8950    3.3410   -0.2370 N   0  0  0  0  0  0  0  0  0  0  0  0
    0.8780    2.5860    0.8170 C   0  0  0  0  0  0  0  0  0  0  0  0
    0.0060    1.4700    0.8080 N   0  0  0  0  0  0  0  0  0  0  0  0
   -1.1720    1.3790   -0.0420 C   0  0  2  0  0  0  0  0  0  0  0  0
   -2.0790    2.5210    0.3140 C   0  0  0  0  0  0  0  0  0  0  0  0
   -3.3500    2.5930   -0.4650 C   0  0  0  0  0  0  0  0  0  0  0  0
   -4.4240    1.1210   -0.2670 P   0  0  0  0  0  0  0  0  0  0  0  0
   -5.5810    0.9450   -1.5180 O   0  0  0  0  0  0  0  0  0  0  0  0
   -5.0840    1.0310    1.3120 O   0  0  0  0  0  0  0  0  0  0  0  0
   -1.8790    0.1340    0.1610 N   0  0  0  0  0  0  0  0  0  0  0  0
   -2.0860   -0.8160   -0.8630 C   0  0  0  0  0  0  0  0  0  0  0  0
   -1.6200   -0.5320   -1.9960 O   0  0  0  0  0  0  0  0  0  0  0  0
   -2.7910   -2.0790   -0.6860 C   0  0  0  0  0  0  0  0  0  0  0  0
   -3.3390   -2.4710    0.5140 C   0  0  0  0  0  0  0  0  0  0  0  0
   -3.9790   -3.6610    0.6000 N   0  0  0  0  0  0  0  0  0  0  0  0
   -4.1170   -4.5030   -0.4380 C   0  0  0  0  0  0  0  0  0  0  0  0
   -4.7260   -5.6030   -0.3020 O   0  0  0  0  0  0  0  0  0  0  0  0
   -3.5840   -4.1290   -1.6170 N   0  0  0  0  0  0  0  0  0  0  0  0
   -2.9370   -2.9490   -1.7450 C   0  0  0  0  0  0  0  0  0  0  0  0
    1.7290    2.9340    1.8890 N   0  0  0  0  0  0  0  0  0  0  0  0
    1.3710    4.0210    2.7260 C   0  0  0  0  0  0  0  0  0  0  0  0
    2.1900    4.3010    3.6990 N   0  0  0  0  0  0  0  0  0  0  0  0
    3.3660    3.5910    3.9360 N   0  0  0  0  0  0  0  0  0  0  0  0
    3.7540    2.5920    3.2160 C   0  0  0  0  0  0  0  0  0  0  0  0
    2.9140    2.1990    2.1080 C   0  0  0  0  0  0  0  0  0  0  0  0
    3.2060    1.2050    1.3160 C   0  0  0  0  0  0  0  0  0  0  0  0
    4.3780    0.3540    1.4020 C   0  0  0  0  0  0  0  0  0  0  0  0
    4.6390   -0.6370    0.5880 C   0  0  0  0  0  0  0  0  0  0  0  0
    3.8340   -1.0760   -0.5360 C   0  0  0  0  0  0  0  0  0  0  0  0
    4.1470   -2.0750   -1.3140 C   0  0  0  0  0  0  0  0  0  0  0  0
    3.2860   -2.4490   -2.4170 C   0  0  0  0  0  0  0  0  0  0  0  0
    3.5780   -3.4620   -3.2260 C   0  0  0  0  0  0  0  0  0  0  0  0
    4.7240   -4.2070   -3.0500 O   0  0  0  0  0  0  0  0  0  0  0  0
  1  2  2  0
  2  3  1  0
  2 20  1  0
  3  4  1  0
  4  5  1  1
  4 10  1  0
  5  6  1  0
  6  7  1  0
  7  8  1  0
  7  9  1  0
 10 11  1  0
 11 12  2  0
 11 13  1  0
 13 14  1  0
 13 19  2  0
 14 15  2  0
 15 16  1  0
 16 17  2  0
 16 18  1  0
 18 19  1  0
 20 21  1  0
 20 25  1  0
 21 22  2  0
 22 23  1  0
 23 24  2  0
 24 25  1  0
 25 26  2  3
 26 27  1  0
 27 28  2  3
 28 29  1  0
 29 30  2  3
 30 31  1  0
 31 32  2  3
 32 33  1  0
M  END
