
     RDKit          3D

 25 25  0  0  0  0  0  0  0  0999 V2000
   -3.9780   -2.6520    1.4060 C   0  0  0  0  0  0  0  0  0  0  0  0
   -4.2090   -2.0310    0.0630 C   0  0  0  0  0  0  0  0  0  0  0  0
   -4.9450   -0.7180    0.1240 C   0  0  0  0  0  0  0  0  0  0  0  0
   -4.2530    0.3640    0.8660 C   0  0  0  0  0  0  0  0  0  0  0  0
   -2.9220    0.7620    0.2470 C   0  0  0  0  0  0  0  0  0  0  0  0
   -1.7840   -0.0010    0.5970 N   0  0  0  0  0  0  0  0  0  0  0  0
   -0.4830    0.1530    0.0880 C   0  0  0  0  0  0  0  0  0  0  0  0
   -0.2480    1.0250   -0.7580 O   0  0  0  0  0  0  0  0  0  0  0  0
    0.6350   -0.7450    0.5730 C   0  0  0  0  0  0  0  0  0  0  0  0
    1.9000   -0.3150   -0.0800 C   0  0  1  0  0  0  0  0  0  0  0  0
    2.2370    1.1010    0.2730 C   0  0  0  0  0  0  0  0  0  0  0  0
    1.4840    1.7280    1.0420 O   0  0  0  0  0  0  0  0  0  0  0  0
    3.3660    1.8470   -0.1830 N   0  0  0  0  0  0  0  0  0  0  0  0
    3.3260    3.2880   -0.1480 C   0  0  0  0  0  0  0  0  0  0  0  0
    3.8770    3.6960    1.2250 C   0  0  0  0  0  0  0  0  0  0  0  0
    4.5120    1.3280   -0.6620 O   0  0  0  0  0  0  0  0  0  0  0  0
    4.1740    0.2670   -1.4730 C   0  0  0  0  0  0  0  0  0  0  0  0
    4.0130   -1.0460   -0.8040 C   0  0  0  0  0  0  0  0  0  0  0  0
    3.0380   -1.1080    0.2310 N   0  0  2  0  0  0  0  0  0  0  0  0
    2.7260   -2.4740    0.5750 C   0  0  0  0  0  0  0  0  0  0  0  0
    4.0590   -3.1580    0.8910 C   0  0  0  0  0  0  0  0  0  0  0  0
   -2.8660    1.6970   -0.5850 N   0  0  0  0  0  0  0  0  0  0  0  0
   -1.7760    2.1780   -1.2200 O   0  0  0  0  0  0  0  0  0  0  0  0
   -4.0950    2.4230   -1.0150 C   0  0  0  0  0  0  0  0  0  0  0  0
   -4.0720    2.2980   -2.5560 C   0  0  0  0  0  0  0  0  0  0  0  0
  1  2  1  0
  2  3  1  0
  3  4  1  0
  4  5  1  0
  5  6  1  0
  5 22  2  3
  6  7  1  0
  7  8  2  0
  7  9  1  0
 10  9  1  1
 10 11  1  0
 10 19  1  0
 11 12  2  0
 11 13  1  0
 13 14  1  0
 13 16  1  0
 14 15  1  0
 16 17  1  0
 17 18  1  0
 18 19  1  0
 19 20  1  6
 20 21  1  0
 22 23  1  0
 22 24  1  0
 24 25  1  0
M  CHG  3  19   1  22   1  23  -1
M  END
