
     RDKit          3D

 25 26  0  0  0  0  0  0  0  0999 V2000
   -1.9110    3.1810    0.6520 C   0  0  0  0  0  0  0  0  0  0  0  0
   -1.8280    1.7840    1.2780 C   0  0  0  0  0  0  0  0  0  0  0  0
   -1.4390    0.8250    0.1570 C   0  0  1  0  0  0  0  0  0  0  0  0
   -0.1740    1.2790   -0.3370 N   0  0  0  0  0  0  0  0  0  0  0  0
    0.5840    0.3400   -1.0810 C   0  0  0  0  0  0  0  0  0  0  0  0
    1.8020   -0.0900   -0.3540 C   0  0  0  0  0  0  0  0  0  0  0  0
    1.9130   -1.1570    0.5080 C   0  0  0  0  0  0  0  0  0  0  0  0
    3.1620   -1.1880    0.9360 O   0  0  0  0  0  0  0  0  0  0  0  0
    3.8640   -0.2220    0.4160 C   0  0  0  0  0  0  0  0  0  0  0  0
    5.2850    0.1340    0.6010 C   0  0  0  0  0  0  0  0  0  0  0  0
    6.0710   -0.6280   -0.4690 C   0  0  1  0  0  0  0  0  0  0  0  0
    7.5340   -0.3030   -0.3290 C   0  0  0  0  0  0  0  0  0  0  0  0
    5.7950   -2.1050   -0.2820 C   0  0  0  0  0  0  0  0  0  0  0  0
    3.0220    0.4680   -0.3910 N   0  0  0  0  0  0  0  0  0  0  0  0
   -1.4460   -0.5540    0.7040 C   0  0  0  0  0  0  0  0  0  0  0  0
   -2.9710   -0.8170    0.7740 C   0  0  2  0  0  0  0  0  0  0  0  0
   -3.2130   -2.3120    0.6290 C   0  0  0  0  0  0  0  0  0  0  0  0
   -3.4770   -0.1620   -0.4130 N   0  0  0  0  0  0  0  0  0  0  0  0
   -4.6950   -0.4440   -1.1100 C   0  0  0  0  0  0  0  0  0  0  0  0
   -5.8900    0.3650   -0.7270 C   0  0  0  0  0  0  0  0  0  0  0  0
   -6.3490    0.2300    0.6240 N   0  0  0  0  0  0  0  0  0  0  0  0
   -5.9160   -0.5610    1.4780 O   0  0  0  0  0  0  0  0  0  0  0  0
   -7.4020    1.0640    1.0020 O   0  0  0  0  0  0  0  0  0  0  0  0
   -2.5130    0.8400   -0.8340 C   0  0  0  0  0  0  0  0  0  0  0  0
   -2.6680    1.5360   -1.8710 O   0  0  0  0  0  0  0  0  0  0  0  0
  1  2  1  0
  3  2  1  1
  3  4  1  0
  3 15  1  0
  3 24  1  0
  4  5  1  0
  5  6  1  0
  6  7  2  0
  6 14  1  0
  7  8  1  0
  8  9  1  0
  9 10  1  0
  9 14  2  0
 10 11  1  0
 11 12  1  1
 11 13  1  0
 15 16  1  0
 16 17  1  6
 16 18  1  0
 18 19  1  0
 18 24  1  0
 19 20  1  0
 20 21  1  0
 21 22  2  0
 21 23  1  0
 24 25  2  0
M  CHG  3   4   1  21   1  23  -1
M  END
