
     RDKit          3D

 24 25  0  0  0  0  0  0  0  0999 V2000
   -1.0230   -0.7690    3.6620 C   0  0  0  0  0  0  0  0  0  0  0  0
    0.3610   -1.1910    3.2510 C   0  0  0  0  0  0  0  0  0  0  0  0
    0.4300   -1.6770    1.9150 N   0  0  1  0  0  0  0  0  0  0  0  0
   -0.3020   -0.9810    0.9220 C   0  0  0  0  0  0  0  0  0  0  0  0
   -0.3190    0.4850    1.0080 C   0  0  0  0  0  0  0  0  0  0  0  0
    0.2970    1.0680    1.9250 O   0  0  0  0  0  0  0  0  0  0  0  0
   -1.0200    1.3020    0.0750 N   0  0  0  0  0  0  0  0  0  0  0  0
   -1.0310    2.7380    0.1660 C   0  0  0  0  0  0  0  0  0  0  0  0
   -0.6570    3.4140   -1.1120 C   0  0  0  0  0  0  0  0  0  0  0  0
   -0.8910    2.5050   -2.3400 C   0  0  1  0  0  0  0  0  0  0  0  0
   -2.1030    1.7400   -2.1000 C   0  0  1  0  0  0  0  0  0  0  0  0
   -2.8350    1.0260   -3.1380 C   0  0  0  0  0  0  0  0  0  0  0  0
   -2.1620    0.7270   -4.3760 N   0  0  0  0  0  0  0  0  0  0  0  0
   -1.4600    1.6560   -5.1880 C   0  0  0  0  0  0  0  0  0  0  0  0
   -1.2000    1.3520   -6.3810 O   0  0  0  0  0  0  0  0  0  0  0  0
   -0.9970    2.9900   -4.7340 C   0  0  0  0  0  0  0  0  0  0  0  0
   -0.7640    3.3210   -3.5130 N   0  0  0  0  0  0  0  0  0  0  0  0
   -0.3410    4.6370   -3.3660 O   0  0  0  0  0  0  0  0  0  0  0  0
   -1.7550    0.6960   -1.0120 C   0  0  0  0  0  0  0  0  0  0  0  0
    1.8190   -1.9680    1.5260 C   0  0  1  0  0  0  0  0  0  0  0  0
    2.5440   -0.7770    1.0040 C   0  0  0  0  0  0  0  0  0  0  0  0
    2.5080   -2.4740    2.7760 C   0  0  0  0  0  0  0  0  0  0  0  0
    1.8160   -3.1020    0.5220 C   0  0  0  0  0  0  0  0  0  0  0  0
    3.1740   -3.4970    0.0370 C   0  0  0  0  0  0  0  0  0  0  0  0
  1  2  1  0
  3  2  1  1
  3  4  1  0
  3 20  1  0
  4  5  1  0
  5  6  2  0
  5  7  1  0
  7  8  1  0
  7 19  1  0
  8  9  1  0
 10  9  1  1
 10 11  1  0
 10 17  1  0
 11 12  1  6
 11 19  1  0
 12 13  1  0
 13 14  1  0
 14 15  2  0
 14 16  1  0
 16 17  2  0
 17 18  1  0
 20 21  1  6
 20 22  1  0
 20 23  1  0
 23 24  1  0
M  CHG  3   3   1  17   1  18  -1
M  END
