
     RDKit          3D

 25 26  0  0  0  0  0  0  0  0999 V2000
   -1.5130    4.2620   -1.5990 C   0  0  0  0  0  0  0  0  0  0  0  0
   -1.4030    2.8760   -2.2900 C   0  0  0  0  0  0  0  0  0  0  0  0
   -2.4700    2.0540   -1.8350 C   0  0  0  0  0  0  0  0  0  0  0  0
   -2.8050    1.0060   -1.1710 C   0  0  0  0  0  0  0  0  0  0  0  0
   -4.2650    0.7880   -1.1550 O   0  0  0  0  0  0  0  0  0  0  0  0
   -4.5920   -0.3170   -0.4670 C   0  0  0  0  0  0  0  0  0  0  0  0
   -3.2980   -0.9100    0.0440 C   0  0  0  0  0  0  0  0  0  0  0  0
   -3.3360   -2.1170    0.8170 C   0  0  0  0  0  0  0  0  0  0  0  0
   -4.5560   -2.6480    1.0630 C   0  0  0  0  0  0  0  0  0  0  0  0
   -4.7450   -3.8270    1.8060 N   0  0  0  0  0  0  0  0  0  0  0  0
   -2.2790   -2.8370    1.3510 N   0  0  0  0  0  0  0  0  0  0  0  0
   -1.7660   -3.7520    0.6350 O   0  0  0  0  0  0  0  0  0  0  0  0
   -1.7780   -2.6320    2.6430 O   0  0  0  0  0  0  0  0  0  0  0  0
   -2.3020   -0.0900   -0.4020 C   0  0  0  0  0  0  0  0  0  0  0  0
   -0.9910   -0.4070   -0.0340 N   0  0  0  0  0  0  0  0  0  0  0  0
    0.2680    0.1170   -0.2380 C   0  0  0  0  0  0  0  0  0  0  0  0
    0.4460    1.1090   -0.8780 O   0  0  0  0  0  0  0  0  0  0  0  0
    1.5110   -0.5350    0.3370 C   0  0  1  0  0  0  0  0  0  0  0  0
    1.7370   -1.9070   -0.1370 C   0  0  0  0  0  0  0  0  0  0  0  0
    2.9750   -1.8460   -0.9950 C   0  0  0  0  0  0  0  0  0  0  0  0
    3.7250   -0.6840   -0.2420 C   0  0  0  0  0  0  0  0  0  0  0  0
    2.6740    0.2570   -0.0570 N   0  0  2  0  0  0  0  0  0  0  0  0
    2.9390    1.3750    0.7620 C   0  0  0  0  0  0  0  0  0  0  0  0
    4.3770    1.7180    0.9400 C   0  0  0  0  0  0  0  0  0  0  0  0
    5.2430    0.7450    1.6450 C   0  0  0  0  0  0  0  0  0  0  0  0
  1  2  1  0
  2  3  1  0
  3  4  2  3
  4  5  1  0
  4 14  1  0
  5  6  1  0
  6  7  1  0
  7  8  1  0
  7 14  2  0
  8  9  2  3
  8 11  1  0
  9 10  1  0
 11 12  2  0
 11 13  1  0
 14 15  1  0
 15 16  1  0
 16 17  2  0
 18 16  1  6
 18 19  1  0
 18 22  1  0
 19 20  1  0
 20 21  1  0
 21 22  1  0
 22 23  1  1
 23 24  1  0
 24 25  1  0
M  CHG  3  11   1  13  -1  22   1
M  END
