
     RDKit          3D

 25 26  0  0  0  0  0  0  0  0999 V2000
    4.6730    3.0860   -0.8730 C   0  0  0  0  0  0  0  0  0  0  0  0
    4.9150    2.5980    0.5310 C   0  0  0  0  0  0  0  0  0  0  0  0
    5.3920    1.2080    0.4900 C   0  0  0  0  0  0  0  0  0  0  0  0
    6.6210    0.7850    0.6670 O   0  0  0  0  0  0  0  0  0  0  0  0
    6.6820   -0.5160    0.5620 N   0  0  0  0  0  0  0  0  0  0  0  0
    7.8130   -1.2770    0.6910 O   0  0  0  0  0  0  0  0  0  0  0  0
    5.4450   -1.0160    0.3010 C   0  0  0  0  0  0  0  0  0  0  0  0
    5.0390   -2.4320    0.1040 C   0  0  0  0  0  0  0  0  0  0  0  0
    4.6320    0.0980    0.2590 C   0  0  0  0  0  0  0  0  0  0  0  0
    3.2170    0.0570    0.0080 N   0  0  0  0  0  0  0  0  0  0  0  0
    2.2890   -0.0700    1.0730 C   0  0  0  0  0  0  0  0  0  0  0  0
    2.7750   -0.1400    2.2370 O   0  0  0  0  0  0  0  0  0  0  0  0
    0.8920   -0.1150    0.8580 N   0  0  0  0  0  0  0  0  0  0  0  0
   -0.0370   -0.2370    1.9610 C   0  0  0  0  0  0  0  0  0  0  0  0
   -1.2010    0.7000    1.6140 C   0  0  0  0  0  0  0  0  0  0  0  0
   -1.8940    0.1280    0.4020 C   0  0  2  0  0  0  0  0  0  0  0  0
   -3.0700   -0.7080    0.9130 C   0  0  0  0  0  0  0  0  0  0  0  0
   -3.7860   -1.2930   -0.1990 N   0  0  1  0  0  0  0  0  0  0  0  0
   -3.3070   -2.6480   -0.3940 C   0  0  0  0  0  0  0  0  0  0  0  0
   -5.2200   -1.2830    0.0570 C   0  0  0  0  0  0  0  0  0  0  0  0
   -5.7790   -0.0230   -0.5710 C   0  0  0  0  0  0  0  0  0  0  0  0
   -5.1610    1.0560    0.0170 O   0  0  0  0  0  0  0  0  0  0  0  0
   -5.5950    2.2780   -0.4800 C   0  0  0  0  0  0  0  0  0  0  0  0
   -0.9930   -0.6910   -0.4780 C   0  0  0  0  0  0  0  0  0  0  0  0
    0.3840   -0.0400   -0.4880 C   0  0  0  0  0  0  0  0  0  0  0  0
  1  2  1  0
  2  3  1  0
  3  4  1  0
  3  9  2  0
  4  5  1  0
  5  6  1  0
  5  7  2  0
  7  8  1  0
  7  9  1  0
  9 10  1  0
 10 11  1  0
 11 12  2  0
 11 13  1  0
 13 14  1  0
 13 25  1  0
 14 15  1  0
 15 16  1  0
 16 17  1  1
 16 24  1  0
 17 18  1  0
 18 19  1  1
 18 20  1  0
 20 21  1  0
 21 22  1  0
 22 23  1  0
 24 25  1  0
M  CHG  3   5   1   6  -1  18   1
M  END
