
     RDKit          3D

 25 26  0  0  0  0  0  0  0  0999 V2000
    4.8180   -2.3280    0.7890 C   0  0  0  0  0  0  0  0  0  0  0  0
    5.7520   -1.8710   -0.3130 C   0  0  0  0  0  0  0  0  0  0  0  0
    6.3150   -0.5230    0.0220 C   0  0  1  0  0  0  0  0  0  0  0  0
    7.1740   -0.1010   -0.9960 O   0  0  0  0  0  0  0  0  0  0  0  0
    5.2480    0.5020    0.2010 C   0  0  0  0  0  0  0  0  0  0  0  0
    4.4450    0.6520   -1.0480 C   0  0  0  0  0  0  0  0  0  0  0  0
    3.4010    1.6250   -0.9530 N   0  0  0  0  0  0  0  0  0  0  0  0
    3.6330    3.0030   -1.2970 C   0  0  0  0  0  0  0  0  0  0  0  0
    2.0850    1.1770   -0.4920 C   0  0  0  0  0  0  0  0  0  0  0  0
    1.9970   -0.0190   -0.2230 O   0  0  0  0  0  0  0  0  0  0  0  0
    1.0070    2.1020   -0.3770 C   0  0  0  0  0  0  0  0  0  0  0  0
   -0.1960    2.0820   -0.0040 C   0  0  0  0  0  0  0  0  0  0  0  0
   -1.2110    1.2170    0.5190 C   0  0  0  0  0  0  0  0  0  0  0  0
   -2.5690    1.5320    0.4220 N   0  0  0  0  0  0  0  0  0  0  0  0
   -3.3220    0.6340    1.0290 C   0  0  0  0  0  0  0  0  0  0  0  0
   -4.8340    0.6600    1.1200 C   0  0  0  0  0  0  0  0  0  0  0  0
   -5.3170   -0.0750   -0.0210 N   0  0  2  0  0  0  0  0  0  0  0  0
   -6.6970    0.2200   -0.3370 C   0  0  0  0  0  0  0  0  0  0  0  0
   -7.2840   -0.9680   -1.0600 C   0  0  0  0  0  0  0  0  0  0  0  0
   -6.3270   -1.6690   -1.7870 O   0  0  0  0  0  0  0  0  0  0  0  0
   -5.3620   -2.2530   -0.9980 C   0  0  0  0  0  0  0  0  0  0  0  0
   -5.2200   -1.4930    0.3070 C   0  0  0  0  0  0  0  0  0  0  0  0
   -2.5000   -0.2720    1.5300 N   0  0  0  0  0  0  0  0  0  0  0  0
   -1.2350    0.0860    1.2210 N   0  0  0  0  0  0  0  0  0  0  0  0
   -0.1400   -0.7090    1.7190 C   0  0  0  0  0  0  0  0  0  0  0  0
  1  2  1  0
  2  3  1  0
  3  4  1  6
  3  5  1  0
  5  6  1  0
  6  7  1  0
  7  8  1  0
  7  9  1  0
  9 10  2  0
  9 11  1  0
 11 12  2  3
 12 13  1  0
 13 14  2  0
 13 24  1  0
 14 15  1  0
 15 16  1  0
 15 23  2  0
 17 16  1  1
 17 18  1  0
 17 22  1  0
 18 19  1  0
 19 20  1  0
 20 21  1  0
 21 22  1  0
 23 24  1  0
 24 25  1  0
M  CHG  1  17   1
M  END
