
     RDKit          3D

 25 25  0  0  0  0  0  0  0  0999 V2000
   -7.4000   -0.4370    1.5960 C   0  0  0  0  0  0  0  0  0  0  0  0
   -5.9570   -0.6930    1.9500 C   0  0  0  0  0  0  0  0  0  0  0  0
   -5.0480   -0.1360    0.8040 C   0  0  0  0  0  0  0  0  0  0  0  0
   -3.6960   -0.4180    1.2170 C   0  0  0  0  0  0  0  0  0  0  0  0
   -2.5440    0.0270    0.3370 C   0  0  0  0  0  0  0  0  0  0  0  0
   -1.3210   -0.4060    0.8990 N   0  0  0  0  0  0  0  0  0  0  0  0
   -0.0780   -0.4100    0.2860 C   0  0  0  0  0  0  0  0  0  0  0  0
    0.0310   -0.0440   -0.8780 O   0  0  0  0  0  0  0  0  0  0  0  0
    1.1840   -0.8420    0.9600 C   0  0  0  0  0  0  0  0  0  0  0  0
    2.3810   -0.6660    0.1030 C   0  0  1  0  0  0  0  0  0  0  0  0
    2.5250    0.7880   -0.2330 C   0  0  0  0  0  0  0  0  0  0  0  0
    1.6980    1.6120    0.1920 O   0  0  0  0  0  0  0  0  0  0  0  0
    3.5610    1.3990   -1.0340 N   0  0  0  0  0  0  0  0  0  0  0  0
    3.2690    2.6490   -1.7000 C   0  0  0  0  0  0  0  0  0  0  0  0
    3.6420    3.7680   -0.7530 C   0  0  0  0  0  0  0  0  0  0  0  0
    4.7970    0.8390   -1.1780 O   0  0  0  0  0  0  0  0  0  0  0  0
    4.6670   -0.5150   -1.3810 C   0  0  0  0  0  0  0  0  0  0  0  0
    4.6290   -1.3600   -0.1580 C   0  0  0  0  0  0  0  0  0  0  0  0
    3.5650   -1.0590    0.7740 N   0  0  2  0  0  0  0  0  0  0  0  0
    3.4060   -2.2250    1.6220 C   0  0  0  0  0  0  0  0  0  0  0  0
    2.9690   -3.4270    0.8310 C   0  0  0  0  0  0  0  0  0  0  0  0
   -2.6610    0.5200   -0.8040 N   0  0  0  0  0  0  0  0  0  0  0  0
   -4.0750    0.5660   -1.1510 O   0  0  0  0  0  0  0  0  0  0  0  0
   -1.9420    1.1270   -1.8490 C   0  0  0  0  0  0  0  0  0  0  0  0
   -2.8410    2.2710   -2.5050 C   0  0  0  0  0  0  0  0  0  0  0  0
  1  2  1  0
  2  3  1  0
  3  4  1  0
  4  5  1  0
  5  6  1  0
  5 22  2  3
  6  7  1  0
  7  8  2  0
  7  9  1  0
 10  9  1  1
 10 11  1  0
 10 19  1  0
 11 12  2  0
 11 13  1  0
 13 14  1  0
 13 16  1  0
 14 15  1  0
 16 17  1  0
 17 18  1  0
 18 19  1  0
 19 20  1  6
 20 21  1  0
 22 23  1  0
 22 24  1  0
 24 25  1  0
M  CHG  3  19   1  22   1  23  -1
M  END
