
     RDKit          3D

 25 26  0  0  0  0  0  0  0  0999 V2000
    6.4320   -0.5010    1.0300 C   0  0  0  0  0  0  0  0  0  0  0  0
    5.5970   -1.6890    0.8450 N   0  0  0  0  0  0  0  0  0  0  0  0
    4.4700   -1.3650   -0.0060 C   0  0  0  0  0  0  0  0  0  0  0  0
    3.5010   -0.5090    0.7390 C   0  0  0  0  0  0  0  0  0  0  0  0
    3.6490   -0.1440    2.0560 C   0  0  0  0  0  0  0  0  0  0  0  0
    2.5470    0.6310    2.3290 C   0  0  0  0  0  0  0  0  0  0  0  0
    1.8020    0.6800    1.1450 C   0  0  0  0  0  0  0  0  0  0  0  0
    0.5490    1.4190    1.0400 C   0  0  0  0  0  0  0  0  0  0  0  0
    0.1300    2.0310    2.0410 O   0  0  0  0  0  0  0  0  0  0  0  0
   -0.2070    1.4570   -0.1810 N   0  0  0  0  0  0  0  0  0  0  0  0
   -1.4220    2.2310   -0.1460 C   0  0  0  0  0  0  0  0  0  0  0  0
   -2.5930    1.7280    0.5480 C   0  0  0  0  0  0  0  0  0  0  0  0
   -3.1790    0.4710    0.3340 N   0  0  0  0  0  0  0  0  0  0  0  0
   -2.5240   -0.7260    0.8190 C   0  0  0  0  0  0  0  0  0  0  0  0
   -3.0240   -1.9240    0.7050 C   0  0  0  0  0  0  0  0  0  0  0  0
   -4.3200   -2.1150    0.0540 C   0  0  0  0  0  0  0  0  0  0  0  0
   -4.9460   -0.8810   -0.4250 C   0  0  0  0  0  0  0  0  0  0  0  0
   -4.4390    0.3110   -0.3050 C   0  0  0  0  0  0  0  0  0  0  0  0
   -5.1530    1.5150   -0.8250 C   0  0  0  0  0  0  0  0  0  0  0  0
    0.2710    0.9270   -1.3970 C   0  0  0  0  0  0  0  0  0  0  0  0
    0.0470   -0.4000   -1.9240 C   0  0  0  0  0  0  0  0  0  0  0  0
   -1.2880   -0.7710   -2.2450 N   0  0  0  0  0  0  0  0  0  0  0  0
   -1.6620   -1.9280   -2.0250 O   0  0  0  0  0  0  0  0  0  0  0  0
   -2.1250    0.1330   -2.8510 O   0  0  0  0  0  0  0  0  0  0  0  0
    2.4110   -0.0130    0.2280 O   0  0  0  0  0  0  0  0  0  0  0  0
  1  2  1  0
  2  3  1  0
  3  4  1  0
  4  5  2  0
  4 25  1  0
  5  6  1  0
  6  7  2  0
  7  8  1  0
  7 25  1  0
  8  9  2  0
  8 10  1  0
 10 11  1  0
 10 20  1  0
 11 12  1  0
 12 13  1  0
 13 14  1  0
 13 18  1  0
 14 15  2  0
 15 16  1  0
 16 17  1  0
 17 18  2  0
 18 19  1  0
 20 21  1  0
 21 22  1  0
 22 23  2  0
 22 24  1  0
M  CHG  3   2   1  22   1  24  -1
M  END
