
     RDKit          3D

 25 26  0  0  0  0  0  0  0  0999 V2000
   -8.8190   -0.5900    0.2780 C   0  0  0  0  0  0  0  0  0  0  0  0
   -7.9940   -1.5280    1.1180 C   0  0  0  0  0  0  0  0  0  0  0  0
   -6.6980   -1.7300    0.6180 O   0  0  0  0  0  0  0  0  0  0  0  0
   -5.8080   -0.6800    0.4620 C   0  0  0  0  0  0  0  0  0  0  0  0
   -6.1790    0.4690    0.7790 O   0  0  0  0  0  0  0  0  0  0  0  0
   -4.4730   -0.8840   -0.0520 C   0  0  0  0  0  0  0  0  0  0  0  0
   -4.0730   -2.0550   -0.3830 O   0  0  0  0  0  0  0  0  0  0  0  0
   -3.5930    0.2400   -0.1920 N   0  0  0  0  0  0  0  0  0  0  0  0
   -2.2650    0.0060   -0.7080 C   0  0  0  0  0  0  0  0  0  0  0  0
   -1.3990    1.2320   -0.8110 C   0  0  2  0  0  0  0  0  0  0  0  0
   -0.0540    0.8140   -1.3790 C   0  0  0  0  0  0  0  0  0  0  0  0
    0.8430    0.2860   -0.4220 N   0  0  0  0  0  0  0  0  0  0  0  0
    2.2160    0.2970   -0.8250 C   0  0  0  0  0  0  0  0  0  0  0  0
    3.1060   -0.2340    0.1540 N   0  0  2  0  0  0  0  0  0  0  0  0
    4.2010    0.7040    0.4600 C   0  0  0  0  0  0  0  0  0  0  0  0
    5.4610   -0.0690    0.7210 C   0  0  0  0  0  0  0  0  0  0  0  0
    5.9440   -0.6870   -0.5690 C   0  0  1  0  0  0  0  0  0  0  0  0
    6.9590   -1.7580   -0.3270 C   0  0  0  0  0  0  0  0  0  0  0  0
    4.7700   -1.3100   -1.3130 C   0  0  0  0  0  0  0  0  0  0  0  0
    3.6600   -1.5100   -0.3180 C   0  0  0  0  0  0  0  0  0  0  0  0
    0.5980    0.4570    0.9440 C   0  0  0  0  0  0  0  0  0  0  0  0
   -0.7100    0.9890    1.3900 C   0  0  0  0  0  0  0  0  0  0  0  0
   -1.2240    1.9270    0.4410 N   0  0  1  0  0  0  0  0  0  0  0  0
   -0.2660    3.0050    0.2110 C   0  0  0  0  0  0  0  0  0  0  0  0
   -2.3550    2.4930    0.8460 O   0  0  0  0  0  0  0  0  0  0  0  0
  1  2  1  0
  2  3  1  0
  3  4  1  0
  4  5  2  0
  4  6  1  0
  6  7  2  0
  6  8  1  0
  8  9  1  0
 10  9  1  1
 10 11  1  0
 10 23  1  0
 11 12  1  0
 12 13  1  0
 12 21  1  0
 14 13  1  6
 14 15  1  0
 14 20  1  0
 15 16  1  0
 16 17  1  0
 17 18  1  1
 17 19  1  0
 19 20  1  0
 21 22  1  0
 22 23  1  0
 23 24  1  6
 23 25  1  0
M  CHG  3  14   1  23   1  25  -1
M  END
