
     RDKit          3D

 25 27  0  0  0  0  0  0  0  0999 V2000
   -5.5330   -2.3430   -0.2890 C   0  0  0  0  0  0  0  0  0  0  0  0
   -4.5950   -1.1170   -0.4110 C   0  0  0  0  0  0  0  0  0  0  0  0
   -3.2980   -1.6280   -0.4420 N   0  0  2  0  0  0  0  0  0  0  0  0
   -2.8760   -2.1350    0.9040 C   0  0  0  0  0  0  0  0  0  0  0  0
   -2.2250   -0.9020   -0.9730 C   0  0  0  0  0  0  0  0  0  0  0  0
   -1.5610    0.1250   -0.1310 C   0  0  0  0  0  0  0  0  0  0  0  0
   -0.1690    0.0930    0.1470 C   0  0  0  0  0  0  0  0  0  0  0  0
    0.6170   -1.1110   -0.2120 C   0  0  0  0  0  0  0  0  0  0  0  0
    2.0480   -0.7740   -0.1210 N   0  0  2  0  0  0  0  0  0  0  0  0
    2.7090   -1.9000   -0.4170 O   0  0  0  0  0  0  0  0  0  0  0  0
    2.4870   -0.1640    1.0700 C   0  0  0  0  0  0  0  0  0  0  0  0
    4.0510   -0.1910    0.9750 C   0  0  0  0  0  0  0  0  0  0  0  0
    4.4830    0.3330   -0.3530 C   0  0  1  0  0  0  0  0  0  0  0  0
    3.3730    1.1610   -0.9460 C   0  0  0  0  0  0  0  0  0  0  0  0
    2.2310    0.2320   -1.2010 C   0  0  0  0  0  0  0  0  0  0  0  0
    5.6670    1.0270   -0.2120 O   0  0  0  0  0  0  0  0  0  0  0  0
    6.5150   -0.0520    0.1460 C   0  0  0  0  0  0  0  0  0  0  0  0
    5.9960   -1.1980   -0.7240 C   0  0  0  0  0  0  0  0  0  0  0  0
    4.8520   -0.6590   -1.2650 O   0  0  0  0  0  0  0  0  0  0  0  0
    0.1460    1.1690    0.7490 N   0  0  0  0  0  0  0  0  0  0  0  0
   -0.8740    1.9770    0.9120 N   0  0  0  0  0  0  0  0  0  0  0  0
   -1.9630    1.3020    0.3460 C   0  0  0  0  0  0  0  0  0  0  0  0
   -3.3090    2.0120    0.3140 C   0  0  0  0  0  0  0  0  0  0  0  0
   -2.8520    3.3290    0.5810 O   0  0  0  0  0  0  0  0  0  0  0  0
   -3.7770    4.2950    0.5670 C   0  0  0  0  0  0  0  0  0  0  0  0
  1  2  1  0
  2  3  1  0
  3  4  1  1
  3  5  1  0
  5  6  1  0
  6  7  1  0
  6 22  2  0
  7  8  1  0
  7 20  2  0
  8  9  1  0
  9 10  1  6
  9 11  1  0
  9 15  1  0
 11 12  1  0
 13 12  1  1
 13 14  1  0
 13 16  1  0
 13 19  1  0
 14 15  1  0
 16 17  1  0
 17 18  1  0
 18 19  1  0
 20 21  1  0
 21 22  1  0
 22 23  1  0
 23 24  1  0
 24 25  1  0
M  CHG  3   3   1   9   1  10  -1
M  END
