
     RDKit          3D

 25 26  0  0  0  0  0  0  0  0999 V2000
   -3.0090    4.5530   -0.1320 C   0  0  0  0  0  0  0  0  0  0  0  0
   -3.2840    3.4010    0.8100 C   0  0  0  0  0  0  0  0  0  0  0  0
   -2.1930    2.3350    0.6010 C   0  0  0  0  0  0  0  0  0  0  0  0
   -2.6010    1.1440    0.2230 C   0  0  0  0  0  0  0  0  0  0  0  0
   -3.9930    0.9330    0.0380 O   0  0  0  0  0  0  0  0  0  0  0  0
   -4.2320   -0.3510   -0.3540 C   0  0  0  0  0  0  0  0  0  0  0  0
   -2.9050   -1.0280   -0.4290 C   0  0  0  0  0  0  0  0  0  0  0  0
   -2.7970   -2.4260   -0.8110 C   0  0  0  0  0  0  0  0  0  0  0  0
   -3.8650   -3.1650   -1.1240 C   0  0  0  0  0  0  0  0  0  0  0  0
   -5.1890   -2.7360   -1.1330 N   0  0  0  0  0  0  0  0  0  0  0  0
   -1.5830   -3.1880   -0.9010 N   0  0  0  0  0  0  0  0  0  0  0  0
   -1.1990   -3.8150    0.1030 O   0  0  0  0  0  0  0  0  0  0  0  0
   -0.8890   -3.2640   -2.0680 O   0  0  0  0  0  0  0  0  0  0  0  0
   -1.9870   -0.1070   -0.0820 C   0  0  0  0  0  0  0  0  0  0  0  0
   -0.6130   -0.4330   -0.0600 N   0  0  0  0  0  0  0  0  0  0  0  0
    0.5240    0.3010    0.2530 C   0  0  0  0  0  0  0  0  0  0  0  0
    0.5060    1.4490    0.5890 O   0  0  0  0  0  0  0  0  0  0  0  0
    1.8930   -0.3720    0.1720 C   0  0  1  0  0  0  0  0  0  0  0  0
    2.1640   -0.7380   -1.2870 C   0  0  0  0  0  0  0  0  0  0  0  0
    2.9600    0.4830   -1.7750 C   0  0  0  0  0  0  0  0  0  0  0  0
    3.8430    0.7040   -0.5410 C   0  0  0  0  0  0  0  0  0  0  0  0
    2.9110    0.5650    0.5330 N   0  0  2  0  0  0  0  0  0  0  0  0
    3.4820    0.3130    1.8170 C   0  0  0  0  0  0  0  0  0  0  0  0
    4.8220   -0.3160    1.8550 C   0  0  0  0  0  0  0  0  0  0  0  0
    4.9260   -1.6690    1.2370 C   0  0  0  0  0  0  0  0  0  0  0  0
  1  2  1  0
  2  3  1  0
  3  4  2  3
  4  5  1  0
  4 14  1  0
  5  6  1  0
  6  7  1  0
  7  8  1  0
  7 14  2  0
  8  9  2  3
  8 11  1  0
  9 10  1  0
 11 12  2  0
 11 13  1  0
 14 15  1  0
 15 16  1  0
 16 17  2  0
 18 16  1  6
 18 19  1  0
 18 22  1  0
 19 20  1  0
 20 21  1  0
 21 22  1  0
 22 23  1  1
 23 24  1  0
 24 25  1  0
M  CHG  3  11   1  13  -1  22   1
M  END
