
     RDKit          3D

 11 11  0  0  0  0  0  0  0  0999 V2000
    3.6370   -0.3400   -0.4480 O   0  0  0  0  0  0  0  0  0  0  0  0
    2.2620   -0.6500   -0.4060 C   0  0  0  0  0  0  0  0  0  0  0  0
    1.3660    0.1860    0.0680 C   0  0  0  0  0  0  0  0  0  0  0  0
    1.8770    1.4130    0.5300 O   0  0  0  0  0  0  0  0  0  0  0  0
   -0.0520   -0.1170    0.1190 C   0  0  0  0  0  0  0  0  0  0  0  0
   -0.8560    0.7950    0.6140 C   0  0  0  0  0  0  0  0  0  0  0  0
   -0.1380    2.3250    1.1800 Cl  0  0  0  0  0  0  0  0  0  0  0  0
   -2.3050    0.5770    0.7060 C   0  0  0  0  0  0  0  0  0  0  0  0
   -2.6880   -0.7070    0.2030 N   0  0  0  0  0  0  0  0  0  0  0  0
   -1.7850   -1.6170   -0.3040 N   0  0  0  0  0  0  0  0  0  0  0  0
   -0.5220   -1.4100   -0.3760 C   0  0  0  0  0  0  0  0  0  0  0  0
  1  2  1  0
  2  3  2  3
  3  4  1  0
  3  5  1  0
  5  6  2  0
  5 11  1  0
  6  7  1  0
  6  8  1  0
  8  9  1  0
  9 10  1  0
 10 11  2  0
M  END
