
     RDKit          3D

 11 11  0  0  0  0  0  0  0  0999 V2000
    3.9030   -0.1230   -0.3360 N   0  0  0  0  0  0  0  0  0  0  0  0
    2.6500    0.2040   -0.1540 C   0  0  0  0  0  0  0  0  0  0  0  0
    1.5720   -0.6280   -0.5030 N   0  0  0  0  0  0  0  0  0  0  0  0
    0.3570    0.0440   -0.1650 C   0  0  0  0  0  0  0  0  0  0  0  0
   -0.8390   -0.4510   -0.3580 C   0  0  0  0  0  0  0  0  0  0  0  0
   -2.0760    0.2190   -0.0210 C   0  0  0  0  0  0  0  0  0  0  0  0
   -3.2260   -0.3630   -0.2550 C   0  0  0  0  0  0  0  0  0  0  0  0
   -4.7180    0.4450    0.1520 Cl  0  0  0  0  0  0  0  0  0  0  0  0
    0.7500    1.3120    0.4010 C   0  0  0  0  0  0  0  0  0  0  0  0
   -0.0330    2.1950    0.8220 O   0  0  0  0  0  0  0  0  0  0  0  0
    2.1530    1.3740    0.3910 O   0  0  0  0  0  0  0  0  0  0  0  0
  1  2  2  0
  2  3  1  0
  2 11  1  0
  3  4  1  0
  4  5  2  3
  4  9  1  0
  5  6  1  0
  6  7  2  3
  7  8  1  0
  9 10  2  0
  9 11  1  0
M  END
