
     RDKit          3D

 11 11  0  0  0  0  0  0  0  0999 V2000
    3.6490   -0.6840   -0.2790 N   0  0  0  0  0  0  0  0  0  0  0  0
    2.6120    0.2640   -0.4210 C   0  0  0  0  0  0  0  0  0  0  0  0
    2.9110    1.4150   -0.8130 O   0  0  0  0  0  0  0  0  0  0  0  0
    1.2430   -0.1300   -0.1100 C   0  0  0  0  0  0  0  0  0  0  0  0
    0.2970    0.9040   -0.2910 O   0  0  0  0  0  0  0  0  0  0  0  0
   -1.0380    0.6300   -0.0200 C   0  0  0  0  0  0  0  0  0  0  0  0
   -1.8140   -0.2930   -0.5700 C   0  0  0  0  0  0  0  0  0  0  0  0
   -1.2760   -1.4190   -1.8230 Cl  0  0  0  0  0  0  0  0  0  0  0  0
   -3.1840   -0.2300    0.0270 C   0  0  0  0  0  0  0  0  0  0  0  0
   -3.0450    0.8440    0.9660 N   0  0  0  0  0  0  0  0  0  0  0  0
   -1.8640    1.3420    0.9630 C   0  0  0  0  0  0  0  0  0  0  0  0
  1  2  1  0
  2  3  2  0
  2  4  1  0
  4  5  1  0
  5  6  1  0
  6  7  2  0
  6 11  1  0
  7  8  1  0
  7  9  1  0
  9 10  1  0
 10 11  2  0
M  END
