
     RDKit          3D

 11 11  0  0  0  0  0  0  0  0999 V2000
    3.0680   -0.8320    0.0420 N   0  0  0  0  0  0  0  0  0  0  0  0
    2.7310    0.5450    0.1410 C   0  0  0  0  0  0  0  0  0  0  0  0
    3.6920    1.3790    0.1410 O   0  0  0  0  0  0  0  0  0  0  0  0
    1.3170    1.0030    0.2420 C   0  0  0  0  0  0  0  0  0  0  0  0
    0.4970   -0.1290    0.2170 O   0  0  0  0  0  0  0  0  0  0  0  0
   -0.8750   -0.1150    0.2890 C   0  0  0  0  0  0  0  0  0  0  0  0
   -1.6100   -1.1560    0.6470 C   0  0  0  0  0  0  0  0  0  0  0  0
   -3.0570   -0.8160    0.6240 C   0  0  0  0  0  0  0  0  0  0  0  0
   -3.0190    0.5700    0.1990 N   0  0  0  0  0  0  0  0  0  0  0  0
   -1.8100    0.9700    0.0100 C   0  0  0  0  0  0  0  0  0  0  0  0
   -1.2630    2.5660   -0.5070 Cl  0  0  0  0  0  0  0  0  0  0  0  0
  1  2  1  0
  2  3  2  0
  2  4  1  0
  4  5  1  0
  5  6  1  0
  6  7  2  0
  6 10  1  0
  7  8  1  0
  8  9  1  0
  9 10  2  0
 10 11  1  0
M  END
