
     RDKit          3D

 11 11  0  0  0  0  0  0  0  0999 V2000
    3.2830   -0.0780    0.3810 O   0  0  0  0  0  0  0  0  0  0  0  0
    2.0380    0.5180    0.4930 C   0  0  0  0  0  0  0  0  0  0  0  0
    0.9840   -0.4170   -0.0790 C   0  0  2  0  0  0  0  0  0  0  0  0
    1.3140   -0.6650   -1.4330 O   0  0  0  0  0  0  0  0  0  0  0  0
   -0.3190    0.3080   -0.0930 C   0  0  0  0  0  0  0  0  0  0  0  0
   -0.5050    1.6050   -0.1110 N   0  0  0  0  0  0  0  0  0  0  0  0
   -1.8330    1.8450   -0.1990 C   0  0  0  0  0  0  0  0  0  0  0  0
   -2.4590    0.6710   -0.2300 N   0  0  0  0  0  0  0  0  0  0  0  0
   -1.5180   -0.3040   -0.1600 C   0  0  0  0  0  0  0  0  0  0  0  0
   -1.8760   -1.7490   -0.1190 C   0  0  0  0  0  0  0  0  0  0  0  0
   -1.8260   -2.2380    1.6120 Cl  0  0  0  0  0  0  0  0  0  0  0  0
  1  2  1  0
  2  3  1  0
  3  4  1  6
  3  5  1  0
  5  6  1  0
  5  9  2  0
  6  7  1  0
  7  8  2  0
  8  9  1  0
  9 10  1  0
 10 11  1  0
M  END
