
     RDKit          3D

 22 23  0  0  0  0  0  0  0  0999 V2000
    5.5400    2.1540   -0.3710 C   0  0  0  0  0  0  0  0  0  0  0  0
    5.5130    0.9750    0.3630 O   0  0  0  0  0  0  0  0  0  0  0  0
    4.3820    0.2020    0.0360 C   0  0  1  0  0  0  0  0  0  0  0  0
    4.9370   -1.0860   -0.5290 C   0  0  0  0  0  0  0  0  0  0  0  0
    5.7480   -0.7950   -1.6450 O   0  0  0  0  0  0  0  0  0  0  0  0
    3.6090   -0.1310    1.3010 C   0  0  1  0  0  0  0  0  0  0  0  0
    3.2030    1.1130    1.9650 N   0  0  0  0  0  0  0  0  0  0  0  0
    2.3820   -0.8540    0.9380 C   0  0  0  0  0  0  0  0  0  0  0  0
    2.4130   -2.0170    0.4990 O   0  0  0  0  0  0  0  0  0  0  0  0
    1.1230   -0.2210    1.0880 N   0  0  0  0  0  0  0  0  0  0  0  0
   -0.0540   -0.9230    0.7380 C   0  0  0  0  0  0  0  0  0  0  0  0
    0.0170   -2.0920    0.2990 O   0  0  0  0  0  0  0  0  0  0  0  0
   -1.3810   -0.2870    0.8840 C   0  0  1  0  0  0  0  0  0  0  0  0
   -1.5050    0.9500    0.0650 C   0  0  0  0  0  0  0  0  0  0  0  0
   -2.0290    0.7430   -1.3120 C   0  0  0  0  0  0  0  0  0  0  0  0
   -3.2030   -0.1720   -1.4060 C   0  0  0  0  0  0  0  0  0  0  0  0
   -3.6300   -0.5820   -0.0330 C   0  0  2  0  0  0  0  0  0  0  0  0
   -4.8640   -1.4740   -0.0590 C   0  0  0  0  0  0  0  0  0  0  0  0
   -5.9340   -0.4530   -0.3890 C   0  0  0  0  0  0  0  0  0  0  0  0
   -5.3150    0.8220    0.1190 C   0  0  0  0  0  0  0  0  0  0  0  0
   -4.0890    0.5110    0.6600 O   0  0  0  0  0  0  0  0  0  0  0  0
   -2.4860   -1.2840    0.6450 C   0  0  0  0  0  0  0  0  0  0  0  0
  1  2  1  0
  2  3  1  0
  3  4  1  1
  3  6  1  0
  4  5  1  0
  6  7  1  6
  6  8  1  0
  8  9  2  0
  8 10  1  0
 10 11  1  0
 11 12  2  0
 13 11  1  6
 13 14  1  0
 13 22  1  0
 14 15  1  0
 15 16  1  0
 17 16  1  6
 17 18  1  0
 17 21  1  0
 17 22  1  0
 18 19  1  0
 19 20  1  0
 20 21  1  0
M  END
