
     RDKit          3D

  6  5  0  0  0  0  0  0  0  0999 V2000
    2.2480   -1.4270   -0.2360 C   0  0  0  0  0  0  0  0  0  0  0  0
    1.4720   -1.0490    0.7590 C   0  0  0  0  0  0  0  0  0  0  0  0
    0.1680   -0.7210    0.4990 O   0  0  0  0  0  0  0  0  0  0  0  0
   -0.2030    0.6210    0.2150 C   0  0  0  0  0  0  0  0  0  0  0  0
   -1.6950    0.6300   -0.0220 C   0  0  0  0  0  0  0  0  0  0  0  0
   -2.1840    1.8940   -0.3110 O   0  0  0  0  0  0  0  0  0  0  0  0
  1  2  2  0
  2  3  1  0
  3  4  1  0
  4  5  1  0
  5  6  1  0
M  END
