
     RDKit          3D

 26 28  0  0  0  0  0  0  0  0999 V2000
   -7.7320    2.0290    0.2160 N   0  0  0  0  0  0  0  0  0  0  0  0
   -7.0780    0.9460    0.8560 C   0  0  0  0  0  0  0  0  0  0  0  0
   -7.6260    0.2100    1.8210 N   0  0  0  0  0  0  0  0  0  0  0  0
   -6.9930   -0.8250    2.4280 C   0  0  0  0  0  0  0  0  0  0  0  0
   -5.7410   -1.1090    2.0190 N   0  0  0  0  0  0  0  0  0  0  0  0
   -5.1250   -0.4250    1.0660 C   0  0  0  0  0  0  0  0  0  0  0  0
   -3.8590   -0.4830    0.4430 C   0  0  0  0  0  0  0  0  0  0  0  0
   -2.8780   -1.4810    0.8290 C   0  0  0  0  0  0  0  0  0  0  0  0
   -1.6240   -1.5500    0.2250 N   0  0  2  0  0  0  0  0  0  0  0  0
   -0.7160   -0.4590    0.3750 C   0  0  0  0  0  0  0  0  0  0  0  0
    0.5010   -0.9440   -0.4300 C   0  0  2  0  0  0  0  0  0  0  0  0
    1.0690    0.1460   -1.2720 C   0  0  0  0  0  0  0  0  0  0  0  0
    2.2500   -0.3290   -2.0450 C   0  0  0  0  0  0  0  0  0  0  0  0
    3.5910   -0.9290   -0.9910 S   0  0  0  0  0  0  0  0  0  0  0  0
    4.3120    0.4150   -0.0080 C   0  0  0  0  0  0  0  0  0  0  0  0
    5.0140    1.4240   -0.8510 C   0  0  0  0  0  0  0  0  0  0  0  0
    5.5550    2.4390   -0.0930 O   0  0  0  0  0  0  0  0  0  0  0  0
    6.4810    2.0530    0.8420 C   0  0  0  0  0  0  0  0  0  0  0  0
    7.6830    1.3440    0.2440 C   0  0  0  0  0  0  0  0  0  0  0  0
    8.5290    1.0180    1.3270 O   0  0  0  0  0  0  0  0  0  0  0  0
   -0.0100   -2.0650   -1.3080 C   0  0  1  0  0  0  0  0  0  0  0  0
    0.3150   -3.2790   -0.7060 O   0  0  0  0  0  0  0  0  0  0  0  0
   -1.5320   -1.8760   -1.1600 C   0  0  0  0  0  0  0  0  0  0  0  0
   -3.7900    0.5070   -0.4980 C   0  0  0  0  0  0  0  0  0  0  0  0
   -4.9920    1.1570   -0.4500 N   0  0  0  0  0  0  0  0  0  0  0  0
   -5.7770    0.6150    0.4640 C   0  0  0  0  0  0  0  0  0  0  0  0
  1  2  1  0
  2  3  2  0
  2 26  1  0
  3  4  1  0
  4  5  2  0
  5  6  1  0
  6  7  1  0
  6 26  2  0
  7  8  1  0
  7 24  2  0
  9  8  1  6
  9 10  1  0
  9 23  1  0
 10 11  1  0
 11 12  1  6
 11 21  1  0
 12 13  1  0
 13 14  1  0
 14 15  1  0
 15 16  1  0
 16 17  1  0
 17 18  1  0
 18 19  1  0
 19 20  1  0
 21 22  1  1
 21 23  1  0
 24 25  1  0
 25 26  1  0
M  CHG  1   9   1
M  END
