
     RDKit          3D

 36 38  0  0  0  0  0  0  0  0999 V2000
    2.0800   -2.9270   -3.4920 C   0  0  0  0  0  0  0  0  0  0  0  0
    1.4440   -2.7040   -2.1140 C   0  0  2  0  0  0  0  0  0  0  0  0
   -0.0030   -2.7350   -2.2120 O   0  0  0  0  0  0  0  0  0  0  0  0
   -1.0300   -1.9370   -1.8590 C   0  0  0  0  0  0  0  0  0  0  0  0
   -1.3350   -0.9610   -2.6930 O   0  0  0  0  0  0  0  0  0  0  0  0
   -1.9360   -1.9040   -0.7240 C   0  0  0  0  0  0  0  0  0  0  0  0
   -2.2050   -1.0150    0.3620 C   0  0  2  0  0  0  0  0  0  0  0  0
   -1.8940   -1.6610    1.6430 O   0  0  0  0  0  0  0  0  0  0  0  0
   -3.7260   -1.0430    0.4520 C   0  0  0  0  0  0  0  0  0  0  0  0
   -4.4220   -2.1740    0.8210 C   0  0  0  0  0  0  0  0  0  0  0  0
   -5.7750   -1.8800    0.8040 C   0  0  0  0  0  0  0  0  0  0  0  0
   -5.8310   -0.5620    0.4220 C   0  0  0  0  0  0  0  0  0  0  0  0
   -7.1050    0.1980    0.2690 C   0  0  2  0  0  0  0  0  0  0  0  0
   -7.1050    1.6080   -0.1120 C   0  0  0  0  0  0  0  0  0  0  0  0
   -7.2410    1.2860    1.3550 C   0  0  0  0  0  0  0  0  0  0  0  0
   -4.6050   -0.1370    0.2310 O   0  0  0  0  0  0  0  0  0  0  0  0
   -1.7130    0.3700    0.6210 C   0  0  1  0  0  0  0  0  0  0  0  0
   -1.5790    1.2530   -0.5790 C   0  0  0  0  0  0  0  0  0  0  0  0
   -2.8690    1.0950    1.4100 C   0  0  0  0  0  0  0  0  0  0  0  0
   -0.5850    0.4260    1.6220 C   0  0  0  0  0  0  0  0  0  0  0  0
    0.4810    1.4210    1.5260 C   0  0  2  0  0  0  0  0  0  0  0  0
    0.6530    2.0740    0.3220 O   0  0  0  0  0  0  0  0  0  0  0  0
    1.8280    1.0040    2.0510 C   0  0  0  0  0  0  0  0  0  0  0  0
    2.5980    0.0810    1.4520 O   0  0  0  0  0  0  0  0  0  0  0  0
    3.9380   -0.2110    1.2650 C   0  0  0  0  0  0  0  0  0  0  0  0
    4.6320   -0.8440    2.1080 O   0  0  0  0  0  0  0  0  0  0  0  0
    4.6580    0.1950    0.0430 C   0  0  0  0  0  0  0  0  0  0  0  0
    5.9530    0.7760    0.0500 C   0  0  0  0  0  0  0  0  0  0  0  0
    6.6620    1.0510    1.1440 C   0  0  0  0  0  0  0  0  0  0  0  0
    6.2760    0.8240    2.4120 O   0  0  0  0  0  0  0  0  0  0  0  0
    6.6370    1.1000   -1.2740 C   0  0  0  0  0  0  0  0  0  0  0  0
    5.9590    2.1390   -1.9950 N   0  0  0  0  0  0  0  0  0  0  0  0
    4.0340   -0.0070   -1.1940 C   0  0  0  0  0  0  0  0  0  0  0  0
    2.7300   -0.5890   -1.2470 C   0  0  0  0  0  0  0  0  0  0  0  0
    1.8860   -1.4550   -1.5310 C   0  0  0  0  0  0  0  0  0  0  0  0
    0.5850   -0.9590   -0.8650 O   0  0  0  0  0  0  0  0  0  0  0  0
  2  1  1  6
  2  3  1  0
  2 35  1  0
  3  4  1  0
  4  5  2  0
  4  6  1  0
  6  7  1  0
  7  8  1  1
  7  9  1  0
  7 17  1  0
  9 10  2  0
  9 16  1  0
 10 11  1  0
 11 12  2  0
 13 12  1  1
 12 16  1  0
 13 14  1  0
 13 15  1  0
 14 15  1  0
 17 18  1  6
 17 19  1  0
 17 20  1  0
 20 21  1  0
 21 22  1  6
 21 23  1  0
 23 24  1  0
 24 25  1  0
 25 26  2  0
 25 27  1  0
 27 28  1  0
 27 33  2  0
 28 29  2  3
 28 31  1  0
 29 30  1  0
 31 32  1  0
 33 34  1  0
 34 35  2  0
 35 36  1  0
M  CHG  1  32   1
M  END
