
     RDKit          3D

 36 39  0  0  0  0  0  0  0  0999 V2000
    1.7270    3.8630   -0.3450 C   0  0  0  0  0  0  0  0  0  0  0  0
    0.8200    2.8530    0.3610 C   0  0  2  0  0  0  0  0  0  0  0  0
   -0.0020    3.6250    1.3450 C   0  0  0  0  0  0  0  0  0  0  0  0
   -1.0070    2.7750    2.0840 C   0  0  0  0  0  0  0  0  0  0  0  0
   -2.3300    2.9440    1.7260 O   0  0  0  0  0  0  0  0  0  0  0  0
   -2.9270    3.0430    0.4870 C   0  0  0  0  0  0  0  0  0  0  0  0
   -3.6530    4.1760    0.1940 C   0  0  0  0  0  0  0  0  0  0  0  0
   -4.2910    4.3870   -1.0180 C   0  0  0  0  0  0  0  0  0  0  0  0
   -5.0180    5.5770   -1.2420 O   0  0  0  0  0  0  0  0  0  0  0  0
   -4.1970    3.4200   -1.9810 C   0  0  0  0  0  0  0  0  0  0  0  0
   -3.4710    2.2870   -1.6850 C   0  0  0  0  0  0  0  0  0  0  0  0
   -2.8280    2.0560   -0.4820 C   0  0  0  0  0  0  0  0  0  0  0  0
   -2.1220    0.8830   -0.2670 O   0  0  0  0  0  0  0  0  0  0  0  0
   -2.3220   -0.1110    0.6890 C   0  0  0  0  0  0  0  0  0  0  0  0
   -1.3490   -1.2470    0.3310 C   0  0  1  0  0  0  0  0  0  0  0  0
   -1.0060   -2.0720    1.5230 C   0  0  0  0  0  0  0  0  0  0  0  0
   -2.0940   -3.0600    1.8860 C   0  0  0  0  0  0  0  0  0  0  0  0
   -1.7720   -4.3400    1.3880 O   0  0  0  0  0  0  0  0  0  0  0  0
   -2.3110   -4.4150    0.1130 C   0  0  2  0  0  0  0  0  0  0  0  0
   -1.5800   -3.4830   -0.7850 C   0  0  0  0  0  0  0  0  0  0  0  0
   -2.0590   -2.0660   -0.7480 C   0  0  0  0  0  0  0  0  0  0  0  0
   -3.7900   -4.4270    0.0760 C   0  0  0  0  0  0  0  0  0  0  0  0
   -3.8600   -5.6160   -0.6410 O   0  0  0  0  0  0  0  0  0  0  0  0
   -2.4760   -5.8110   -0.4410 C   0  0  0  0  0  0  0  0  0  0  0  0
   -0.1340   -0.7570   -0.2710 N   0  0  0  0  0  0  0  0  0  0  0  0
    0.9510   -0.5200    0.6260 C   0  0  0  0  0  0  0  0  0  0  0  0
    1.8430    0.5860    0.1070 C   0  0  2  0  0  0  0  0  0  0  0  0
    1.5200    0.9660   -1.1970 O   0  0  0  0  0  0  0  0  0  0  0  0
    3.2890    0.1200    0.1370 C   0  0  2  0  0  0  0  0  0  0  0  0
    4.1240    1.1670   -0.2400 O   0  0  0  0  0  0  0  0  0  0  0  0
    3.5270   -1.0130   -0.8200 C   0  0  0  0  0  0  0  0  0  0  0  0
    4.7890   -1.4920   -0.7770 O   0  0  0  0  0  0  0  0  0  0  0  0
    5.8540   -0.7140   -1.0660 C   0  0  0  0  0  0  0  0  0  0  0  0
    7.1380   -1.5870   -1.0040 C   0  0  0  0  0  0  0  0  0  0  0  0
    8.2280   -0.7920   -1.2990 O   0  0  0  0  0  0  0  0  0  0  0  0
    1.7340    1.8240    0.9910 C   0  0  0  0  0  0  0  0  0  0  0  0
  2  1  1  1
  2  3  1  0
  2 36  1  0
  3  4  1  0
  4  5  1  0
  5  6  1  0
  6  7  2  0
  6 12  1  0
  7  8  1  0
  8  9  1  0
  8 10  2  0
 10 11  1  0
 11 12  2  0
 12 13  1  0
 13 14  1  0
 15 14  1  1
 15 16  1  0
 15 21  1  0
 15 25  1  0
 16 17  1  0
 17 18  1  0
 18 19  1  0
 19 20  1  6
 19 22  1  0
 19 24  1  0
 20 21  1  0
 22 23  1  0
 23 24  1  0
 25 26  1  0
 26 27  1  0
 27 28  1  6
 27 29  1  0
 27 36  1  0
 29 30  1  6
 29 31  1  0
 31 32  1  0
 32 33  1  0
 33 34  1  0
 34 35  1  0
M  CHG  1  25   1
M  END
