
     RDKit          3D

 35 38  0  0  0  0  0  0  0  0999 V2000
    1.4810    7.3060   -0.0890 C   0  0  0  0  0  0  0  0  0  0  0  0
    1.3480    6.0460   -0.2410 O   0  0  0  0  0  0  0  0  0  0  0  0
    1.1720    4.7670   -0.4020 C   0  0  0  0  0  0  0  0  0  0  0  0
    2.2550    3.8980   -0.3450 C   0  0  0  0  0  0  0  0  0  0  0  0
    2.0660    2.5750   -0.5120 C   0  0  0  0  0  0  0  0  0  0  0  0
    0.8210    2.0280   -0.7410 C   0  0  0  0  0  0  0  0  0  0  0  0
   -0.3110    2.8500   -0.8090 C   0  0  0  0  0  0  0  0  0  0  0  0
   -0.0890    4.1870   -0.6360 C   0  0  0  0  0  0  0  0  0  0  0  0
   -1.5860    2.4180   -1.0290 O   0  0  0  0  0  0  0  0  0  0  0  0
   -2.2080    1.2410   -0.5860 C   0  0  0  0  0  0  0  0  0  0  0  0
   -3.6650    1.5870   -0.2330 C   0  0  2  0  0  0  0  0  0  0  0  0
   -3.6670    2.2140    0.9870 O   0  0  0  0  0  0  0  0  0  0  0  0
   -4.4770    0.2980   -0.2110 C   0  0  0  0  0  0  0  0  0  0  0  0
   -3.8140   -0.8250    0.5220 C   0  0  1  0  0  0  0  0  0  0  0  0
   -4.7380   -1.4120    1.5860 C   0  0  1  0  0  0  0  0  0  0  0  0
   -5.1320   -0.3300    2.3780 O   0  0  0  0  0  0  0  0  0  0  0  0
   -5.9290   -2.1250    1.0100 C   0  0  0  0  0  0  0  0  0  0  0  0
   -6.7170   -1.3190    0.1920 O   0  0  0  0  0  0  0  0  0  0  0  0
   -3.3320   -1.8600   -0.3660 N   0  0  0  0  0  0  0  0  0  0  0  0
   -1.8970   -2.1260   -0.1740 C   0  0  0  0  0  0  0  0  0  0  0  0
   -1.2580   -2.3310   -1.5090 C   0  0  0  0  0  0  0  0  0  0  0  0
    0.2100   -2.5490   -1.4890 C   0  0  0  0  0  0  0  0  0  0  0  0
    0.8190   -2.3430   -0.2140 O   0  0  0  0  0  0  0  0  0  0  0  0
    2.1750   -2.0350   -0.0160 C   0  0  0  0  0  0  0  0  0  0  0  0
    3.0070   -2.8780    0.7320 C   0  0  0  0  0  0  0  0  0  0  0  0
    4.3370   -2.6480    0.9630 C   0  0  0  0  0  0  0  0  0  0  0  0
    4.8900   -1.5170    0.4250 C   0  0  0  0  0  0  0  0  0  0  0  0
    4.0850   -0.6630   -0.3200 C   0  0  0  0  0  0  0  0  0  0  0  0
    2.7450   -0.8980   -0.5490 C   0  0  0  0  0  0  0  0  0  0  0  0
    2.0070    0.0290   -1.3120 O   0  0  0  0  0  0  0  0  0  0  0  0
    0.7570    0.5700   -0.9110 C   0  0  0  0  0  0  0  0  0  0  0  0
    6.3320   -1.4100    0.7640 C   0  0  1  0  0  0  0  0  0  0  0  0
    6.5830   -0.5130    1.7860 O   0  0  0  0  0  0  0  0  0  0  0  0
    6.7100   -2.8120    1.1180 C   0  0  0  0  0  0  0  0  0  0  0  0
    5.3960   -3.3620    1.6930 C   0  0  0  0  0  0  0  0  0  0  0  0
  1  2  1  0
  2  3  1  0
  3  4  2  0
  3  8  1  0
  4  5  1  0
  5  6  2  0
  6  7  1  0
  6 31  1  0
  7  8  2  0
  7  9  1  0
  9 10  1  0
 10 11  1  0
 11 12  1  1
 11 13  1  0
 14 13  1  6
 14 15  1  0
 14 19  1  0
 15 16  1  1
 15 17  1  0
 17 18  1  0
 19 20  1  0
 20 21  1  0
 21 22  1  0
 22 23  1  0
 23 24  1  0
 24 25  2  0
 24 29  1  0
 25 26  1  0
 26 27  2  0
 26 35  1  0
 27 28  1  0
 27 32  1  0
 28 29  2  0
 29 30  1  0
 30 31  1  0
 32 33  1  1
 32 34  1  0
 34 35  1  0
M  CHG  1  19   1
M  END
