
     RDKit          3D

 35 38  0  0  0  0  0  0  0  0999 V2000
    2.9580   -1.2470   -3.0320 C   0  0  0  0  0  0  0  0  0  0  0  0
    1.8760   -0.2690   -2.5490 C   0  0  0  0  0  0  0  0  0  0  0  0
    1.8240   -0.3060   -1.0000 C   0  0  0  0  0  0  0  0  0  0  0  0
    2.1000    0.8550   -0.4250 C   0  0  0  0  0  0  0  0  0  0  0  0
    2.4000    1.9410   -1.3310 O   0  0  0  0  0  0  0  0  0  0  0  0
    2.1840    1.3400    0.9610 C   0  0  0  0  0  0  0  0  0  0  0  0
    3.3900    1.6820    1.4480 C   0  0  0  0  0  0  0  0  0  0  0  0
    4.5700    1.6030    0.7010 O   0  0  0  0  0  0  0  0  0  0  0  0
    5.6690    2.4380    0.9160 C   0  0  0  0  0  0  0  0  0  0  0  0
    5.8970    2.8200    2.3400 C   0  0  0  0  0  0  0  0  0  0  0  0
    4.8610    2.4890    3.2130 O   0  0  0  0  0  0  0  0  0  0  0  0
    3.5770    2.1660    2.8080 C   0  0  0  0  0  0  0  0  0  0  0  0
    2.5680    2.2750    3.5730 O   0  0  0  0  0  0  0  0  0  0  0  0
    1.1670    1.5100    1.8790 O   0  0  0  0  0  0  0  0  0  0  0  0
   -0.1150    2.1200    1.7180 C   0  0  0  0  0  0  0  0  0  0  0  0
   -1.0240    0.9850    1.3180 C   0  0  0  0  0  0  0  0  0  0  0  0
   -2.3040    1.2780    0.8010 N   0  0  0  0  0  0  0  0  0  0  0  0
   -2.5640    0.5820   -0.4540 C   0  0  2  0  0  0  0  0  0  0  0  0
   -1.6470    1.3440   -1.4470 C   0  0  0  0  0  0  0  0  0  0  0  0
   -2.4480    1.4990   -2.7180 C   0  0  0  0  0  0  0  0  0  0  0  0
   -3.7660    0.8140   -2.4570 C   0  0  0  0  0  0  0  0  0  0  0  0
   -3.8720    0.9990   -0.9550 C   0  0  1  0  0  0  0  0  0  0  0  0
   -5.1220    0.4210   -0.4590 C   0  0  0  0  0  0  0  0  0  0  0  0
   -5.2950   -0.9460   -0.6370 O   0  0  0  0  0  0  0  0  0  0  0  0
   -2.1430   -0.8280   -0.5480 C   0  0  1  0  0  0  0  0  0  0  0  0
   -1.2460   -1.0960   -1.6110 O   0  0  0  0  0  0  0  0  0  0  0  0
   -1.7650   -1.5420    0.6810 C   0  0  0  0  0  0  0  0  0  0  0  0
   -0.6070   -2.1090    1.0400 C   0  0  0  0  0  0  0  0  0  0  0  0
    0.6440   -2.2140    0.3370 C   0  0  0  0  0  0  0  0  0  0  0  0
    1.5230   -1.6190   -0.3820 C   0  0  0  0  0  0  0  0  0  0  0  0
    2.6720   -2.4490   -0.7920 O   0  0  0  0  0  0  0  0  0  0  0  0
    2.7310   -3.8070   -0.6510 C   0  0  0  0  0  0  0  0  0  0  0  0
   -0.9230   -2.5930    2.4690 C   0  0  0  0  0  0  0  0  0  0  0  0
   -2.3060   -3.1520    2.2490 C   0  0  0  0  0  0  0  0  0  0  0  0
   -2.8300   -1.8090    1.7370 C   0  0  0  0  0  0  0  0  0  0  0  0
  1  2  1  0
  2  3  1  0
  3  4  2  0
  3 30  1  0
  4  5  1  0
  4  6  1  0
  6  7  2  3
  6 14  1  0
  7  8  1  0
  7 12  1  0
  8  9  1  0
  9 10  1  0
 10 11  1  0
 11 12  1  0
 12 13  2  0
 14 15  1  0
 15 16  1  0
 16 17  1  0
 17 18  1  0
 18 19  1  6
 18 22  1  0
 18 25  1  0
 19 20  1  0
 20 21  1  0
 21 22  1  0
 22 23  1  1
 23 24  1  0
 25 26  1  6
 25 27  1  0
 27 28  2  0
 27 35  1  0
 28 29  1  0
 28 33  1  0
 29 30  2  0
 30 31  1  0
 31 32  1  0
 33 34  1  0
 34 35  1  0
M  CHG  1  17   1
M  END
