
     RDKit          3D

 37 41  0  0  0  0  0  0  0  0999 V2000
   -2.3290   -3.2680    0.3400 C   0  0  0  0  0  0  0  0  0  0  0  0
   -1.3850   -2.3350    1.0240 C   0  0  0  0  0  0  0  0  0  0  0  0
   -1.6950   -1.0860    1.1890 C   0  0  0  0  0  0  0  0  0  0  0  0
   -2.9200   -0.4270    0.7940 C   0  0  0  0  0  0  0  0  0  0  0  0
   -2.9070    0.8410    1.1060 O   0  0  0  0  0  0  0  0  0  0  0  0
   -4.0820   -0.8210    0.1730 N   0  0  0  0  0  0  0  0  0  0  0  0
   -5.2310   -0.0480   -0.1550 C   0  0  0  0  0  0  0  0  0  0  0  0
   -5.5110    1.1640    0.3840 C   0  0  0  0  0  0  0  0  0  0  0  0
   -6.6400    1.9120    0.0250 C   0  0  0  0  0  0  0  0  0  0  0  0
   -7.4960    1.3970   -0.9100 C   0  0  0  0  0  0  0  0  0  0  0  0
   -8.6400    1.8870   -1.4380 N   0  0  0  0  0  0  0  0  0  0  0  0
   -9.0760    0.9950   -2.2990 N   0  0  0  0  0  0  0  0  0  0  0  0
   -8.2870   -0.0640   -2.3750 C   0  0  0  0  0  0  0  0  0  0  0  0
   -7.2430    0.1700   -1.4770 C   0  0  0  0  0  0  0  0  0  0  0  0
   -6.1400   -0.5300   -1.1060 C   0  0  0  0  0  0  0  0  0  0  0  0
   -0.5740   -0.1840    1.6950 C   0  0  2  0  0  0  0  0  0  0  0  0
    0.3230    0.1160    0.5160 C   0  0  0  0  0  0  0  0  0  0  0  0
   -0.0920   -0.1120   -0.7770 C   0  0  0  0  0  0  0  0  0  0  0  0
    0.7400    0.1640   -1.8460 C   0  0  0  0  0  0  0  0  0  0  0  0
    2.0150    0.6790   -1.6550 C   0  0  0  0  0  0  0  0  0  0  0  0
    2.8170    0.9310   -2.7190 F   0  0  0  0  0  0  0  0  0  0  0  0
    2.4520    0.9160   -0.3920 C   0  0  0  0  0  0  0  0  0  0  0  0
    3.7360    1.4610   -0.0120 C   0  0  0  0  0  0  0  0  0  0  0  0
    4.1070    1.4630    1.2170 O   0  0  0  0  0  0  0  0  0  0  0  0
    4.6300    2.0100   -0.9540 N   0  0  0  0  0  0  0  0  0  0  0  0
    5.9270    2.5510   -0.5290 C   0  0  0  0  0  0  0  0  0  0  0  0
    6.8180    1.4110   -0.2560 C   0  0  0  0  0  0  0  0  0  0  0  0
    7.6050    0.9010   -1.2520 C   0  0  0  0  0  0  0  0  0  0  0  0
    8.4460   -0.1770   -0.9930 C   0  0  0  0  0  0  0  0  0  0  0  0
    8.4460   -0.6880    0.2810 C   0  0  0  0  0  0  0  0  0  0  0  0
    7.6410   -0.1520    1.2640 C   0  0  0  0  0  0  0  0  0  0  0  0
    6.8570    0.8780    0.9600 N   0  0  0  0  0  0  0  0  0  0  0  0
    1.5840    0.6240    0.6800 C   0  0  0  0  0  0  0  0  0  0  0  0
    0.2110   -0.8440    2.6510 N   0  0  0  0  0  0  0  0  0  0  0  0
    0.5910   -2.1950    2.4600 C   0  0  0  0  0  0  0  0  0  0  0  0
    1.6370   -2.6580    3.0290 O   0  0  0  0  0  0  0  0  0  0  0  0
   -0.2270   -2.9770    1.6290 N   0  0  0  0  0  0  0  0  0  0  0  0
  1  2  1  0
  2  3  2  0
  2 37  1  0
  3  4  1  0
  3 16  1  0
  4  5  2  0
  4  6  1  0
  6  7  1  0
  7  8  2  0
  7 15  1  0
  8  9  1  0
  9 10  2  0
 10 11  1  0
 10 14  1  0
 11 12  1  0
 12 13  2  0
 13 14  1  0
 14 15  2  0
 16 17  1  6
 16 34  1  0
 17 18  2  0
 17 33  1  0
 18 19  1  0
 19 20  2  0
 20 21  1  0
 20 22  1  0
 22 23  1  0
 22 33  2  0
 23 24  2  0
 23 25  1  0
 25 26  1  0
 26 27  1  0
 27 28  2  0
 27 32  1  0
 28 29  1  0
 29 30  2  0
 30 31  1  0
 31 32  2  0
 34 35  1  0
 35 36  2  0
 35 37  1  0
M  END
