
     RDKit          3D

 36 39  0  0  0  0  0  0  0  0999 V2000
    5.0390   -3.7240    1.7190 C   0  0  0  0  0  0  0  0  0  0  0  0
    4.1030   -2.6680    1.7190 O   0  0  0  0  0  0  0  0  0  0  0  0
    3.2240   -2.4390    0.6580 C   0  0  0  0  0  0  0  0  0  0  0  0
    2.0630   -3.0570    0.5810 C   0  0  0  0  0  0  0  0  0  0  0  0
    1.0540   -2.9150   -0.4630 C   0  0  0  0  0  0  0  0  0  0  0  0
    0.4330   -4.0270   -0.7080 O   0  0  0  0  0  0  0  0  0  0  0  0
    0.7220   -1.8280   -1.1530 O   0  0  0  0  0  0  0  0  0  0  0  0
    0.0990   -0.6250   -1.0130 C   0  0  0  0  0  0  0  0  0  0  0  0
   -0.2670   -0.1360    0.3380 C   0  0  2  0  0  0  0  0  0  0  0  0
    0.3030   -1.0250    1.2590 O   0  0  0  0  0  0  0  0  0  0  0  0
   -1.7600   -0.1800    0.6170 C   0  0  2  0  0  0  0  0  0  0  0  0
   -2.1350   -1.6230    0.4830 C   0  0  0  0  0  0  0  0  0  0  0  0
   -3.4240   -1.8270    1.2860 C   0  0  0  0  0  0  0  0  0  0  0  0
   -4.5110   -1.8300    0.2550 C   0  0  0  0  0  0  0  0  0  0  0  0
   -4.7820   -0.5130   -0.3740 C   0  0  1  0  0  0  0  0  0  0  0  0
   -5.6610   -0.8200   -1.4570 O   0  0  0  0  0  0  0  0  0  0  0  0
   -5.6320    0.3100    0.5390 C   0  0  0  0  0  0  0  0  0  0  0  0
   -5.9070    1.5160    0.0290 O   0  0  0  0  0  0  0  0  0  0  0  0
   -5.5290    1.8580   -1.2160 C   0  0  0  0  0  0  0  0  0  0  0  0
   -4.3120    1.3060   -1.8110 C   0  0  0  0  0  0  0  0  0  0  0  0
   -3.6540    0.1830   -1.0060 C   0  0  1  0  0  0  0  0  0  0  0  0
   -2.5670    0.7600   -0.1950 C   0  0  1  0  0  0  0  0  0  0  0  0
   -2.9230    1.9750    0.5420 N   0  0  0  0  0  0  0  0  0  0  0  0
    0.3300    1.2130    0.6860 C   0  0  0  0  0  0  0  0  0  0  0  0
    1.8510    1.0190    0.8890 C   0  0  0  0  0  0  0  0  0  0  0  0
    2.4920    1.2720   -0.3320 O   0  0  0  0  0  0  0  0  0  0  0  0
    3.8050    1.6490   -0.5420 C   0  0  0  0  0  0  0  0  0  0  0  0
    4.1770    2.8760   -1.0750 C   0  0  0  0  0  0  0  0  0  0  0  0
    5.4820    3.2690   -1.2840 C   0  0  0  0  0  0  0  0  0  0  0  0
    5.8320    4.5510   -1.8390 C   0  0  0  0  0  0  0  0  0  0  0  0
    7.0250    4.8640   -2.0100 O   0  0  0  0  0  0  0  0  0  0  0  0
    6.4780    2.3930   -0.9450 C   0  0  0  0  0  0  0  0  0  0  0  0
    6.1430    1.1660   -0.4150 C   0  0  0  0  0  0  0  0  0  0  0  0
    4.8390    0.7660   -0.2050 C   0  0  0  0  0  0  0  0  0  0  0  0
    4.5520   -0.4900    0.3280 O   0  0  0  0  0  0  0  0  0  0  0  0
    3.7240   -1.4540   -0.3450 C   0  0  0  0  0  0  0  0  0  0  0  0
  1  2  1  0
  2  3  1  0
  3  4  2  0
  3 36  1  0
  4  5  1  0
  5  6  2  0
  5  7  1  0
  7  8  1  0
  8  9  1  0
  9 10  1  1
  9 11  1  0
  9 24  1  0
 11 12  1  6
 11 22  1  0
 12 13  1  0
 13 14  1  0
 14 15  1  0
 15 16  1  6
 15 17  1  0
 15 21  1  0
 17 18  1  0
 18 19  1  0
 19 20  1  0
 21 20  1  1
 21 22  1  0
 22 23  1  1
 24 25  1  0
 25 26  1  0
 26 27  1  0
 27 28  2  0
 27 34  1  0
 28 29  1  0
 29 30  1  0
 29 32  2  0
 30 31  2  0
 32 33  1  0
 33 34  2  0
 34 35  1  0
 35 36  1  0
M  CHG  1  23   1
M  END
