
     RDKit          3D

 36 39  0  0  0  0  0  0  0  0999 V2000
    4.0460    1.3070   -2.4750 O   0  0  0  0  0  0  0  0  0  0  0  0
    3.6820    0.4210   -1.6050 C   0  0  0  0  0  0  0  0  0  0  0  0
    2.6460    0.7260   -0.8390 O   0  0  0  0  0  0  0  0  0  0  0  0
    1.4340    0.2610   -0.4450 C   0  0  0  0  0  0  0  0  0  0  0  0
    0.5900    1.2280    0.3500 C   0  0  2  0  0  0  0  0  0  0  0  0
    0.6740    0.8360    1.6840 O   0  0  0  0  0  0  0  0  0  0  0  0
   -0.8740    1.2270   -0.1330 C   0  0  0  0  0  0  0  0  0  0  0  0
   -1.4620   -0.0660   -0.0290 N   0  0  0  0  0  0  0  0  0  0  0  0
   -2.8480   -0.1650    0.2630 C   0  0  2  0  0  0  0  0  0  0  0  0
   -3.4670    0.9520    0.9930 C   0  0  0  0  0  0  0  0  0  0  0  0
   -2.9080    1.1500    2.2650 O   0  0  0  0  0  0  0  0  0  0  0  0
   -2.9400   -1.3820    1.2220 C   0  0  0  0  0  0  0  0  0  0  0  0
   -4.3010   -1.4670    1.8170 C   0  0  0  0  0  0  0  0  0  0  0  0
   -5.2910   -1.5400    0.7450 C   0  0  0  0  0  0  0  0  0  0  0  0
   -6.4980   -1.9990    1.0180 C   0  0  0  0  0  0  0  0  0  0  0  0
   -7.4940   -2.1030    0.0670 O   0  0  0  0  0  0  0  0  0  0  0  0
   -7.2790   -1.7480   -1.2620 C   0  0  0  0  0  0  0  0  0  0  0  0
   -5.9320   -1.2350   -1.5670 C   0  0  0  0  0  0  0  0  0  0  0  0
   -4.9880   -1.1360   -0.6090 C   0  0  0  0  0  0  0  0  0  0  0  0
   -3.6400   -0.6170   -0.9490 C   0  0  1  0  0  0  0  0  0  0  0  0
   -3.7550    0.4480   -1.9820 C   0  0  0  0  0  0  0  0  0  0  0  0
   -4.4210    1.5570   -1.4960 O   0  0  0  0  0  0  0  0  0  0  0  0
    1.0510    2.6450    0.2830 C   0  0  0  0  0  0  0  0  0  0  0  0
    2.4700    2.9080    0.6340 C   0  0  0  0  0  0  0  0  0  0  0  0
    3.1020    1.9830    1.4140 O   0  0  0  0  0  0  0  0  0  0  0  0
    4.4980    2.2000    1.3230 C   0  0  0  0  0  0  0  0  0  0  0  0
    5.2730    0.8970    1.3990 C   0  0  2  0  0  0  0  0  0  0  0  0
    6.1930    0.7440    0.3710 O   0  0  0  0  0  0  0  0  0  0  0  0
    4.3610   -0.2530    1.6120 C   0  0  0  0  0  0  0  0  0  0  0  0
    4.3970   -1.3050    0.7380 O   0  0  0  0  0  0  0  0  0  0  0  0
    4.8090   -1.5490   -0.5220 C   0  0  0  0  0  0  0  0  0  0  0  0
    5.6110   -2.6850   -0.7100 C   0  0  0  0  0  0  0  0  0  0  0  0
    6.1110   -3.0680   -1.9340 C   0  0  0  0  0  0  0  0  0  0  0  0
    5.8230   -2.3180   -3.0390 C   0  0  0  0  0  0  0  0  0  0  0  0
    5.0280   -1.1940   -2.8500 C   0  0  0  0  0  0  0  0  0  0  0  0
    4.5160   -0.7900   -1.6380 C   0  0  0  0  0  0  0  0  0  0  0  0
  1  2  2  0
  2  3  1  0
  2 36  1  0
  3  4  1  0
  4  5  1  0
  5  6  1  1
  5  7  1  0
  5 23  1  0
  7  8  1  0
  8  9  1  0
  9 10  1  1
  9 12  1  0
  9 20  1  0
 10 11  1  0
 12 13  1  0
 13 14  1  0
 14 15  2  0
 14 19  1  0
 15 16  1  0
 16 17  1  0
 17 18  1  0
 18 19  2  0
 19 20  1  0
 20 21  1  6
 21 22  1  0
 23 24  1  0
 24 25  1  0
 25 26  1  0
 26 27  1  0
 27 28  1  6
 27 29  1  0
 29 30  1  0
 30 31  1  0
 31 32  2  0
 31 36  1  0
 32 33  1  0
 33 34  2  0
 34 35  1  0
 35 36  2  0
M  CHG  1   8   1
M  END
