
     RDKit          3D

 29 31  0  0  0  0  0  0  0  0999 V2000
   -0.1410    6.3870    0.6040 C   0  0  0  0  0  0  0  0  0  0  0  0
    0.7820    5.2520    0.1320 C   0  0  0  0  0  0  0  0  0  0  0  0
   -0.1600    4.2900   -0.2460 O   0  0  0  0  0  0  0  0  0  0  0  0
    0.0540    2.7290    0.2850 P   0  0  0  0  0  0  0  0  0  0  0  0
   -1.3640    1.8610    0.1250 O   0  0  0  0  0  0  0  0  0  0  0  0
   -2.2860    1.0650    0.0120 C   0  0  0  0  0  0  0  0  0  0  0  0
   -2.6850    0.6500   -1.3180 C   0  0  0  0  0  0  0  0  0  0  0  0
   -3.7030   -0.1930   -1.5200 C   0  0  0  0  0  0  0  0  0  0  0  0
   -4.4600   -0.6740   -0.4640 C   0  0  0  0  0  0  0  0  0  0  0  0
   -5.5000   -1.4640   -0.8380 O   0  0  0  0  0  0  0  0  0  0  0  0
   -6.5200   -1.9190    0.0260 C   0  0  1  0  0  0  0  0  0  0  0  0
   -7.5690   -2.4650   -0.9380 C   0  0  0  0  0  0  0  0  0  0  0  0
   -6.1470   -3.0370    0.9280 C   0  0  0  0  0  0  0  0  0  0  0  0
   -7.0730   -0.7250    0.7770 C   0  0  0  0  0  0  0  0  0  0  0  0
   -4.1330   -0.3360    0.8040 C   0  0  0  0  0  0  0  0  0  0  0  0
   -3.0450    0.5010    1.0170 C   0  0  0  0  0  0  0  0  0  0  0  0
    1.4160    1.7080   -0.5950 C   0  0  2  0  0  0  0  0  0  0  0  0
    0.9060    1.7920   -1.8770 O   0  0  0  0  0  0  0  0  0  0  0  0
    1.1900    0.3010   -0.0270 C   0  0  0  0  0  0  0  0  0  0  0  0
    2.0870   -0.0580    1.0570 N   0  0  0  0  0  0  0  0  0  0  0  0
    3.3070   -0.6130    0.4940 C   0  0  2  0  0  0  0  0  0  0  0  0
    3.9490   -1.6860    1.3620 C   0  0  0  0  0  0  0  0  0  0  0  0
    4.7580   -2.5050    0.5770 O   0  0  0  0  0  0  0  0  0  0  0  0
    5.8800   -1.8780    0.1130 C   0  0  2  0  0  0  0  0  0  0  0  0
    6.2700   -2.2630   -1.2960 C   0  0  0  0  0  0  0  0  0  0  0  0
    7.0640   -2.2490    1.0130 C   0  0  0  0  0  0  0  0  0  0  0  0
    5.7310   -0.3830    0.1370 C   0  0  0  0  0  0  0  0  0  0  0  0
    4.3310    0.0940   -0.2630 C   0  0  1  0  0  0  0  0  0  0  0  0
    3.4160   -0.8580   -0.9430 C   0  0  0  0  0  0  0  0  0  0  0  0
  1  2  1  0
  2  3  1  0
  3  4  1  0
  4  5  1  0
  4 17  1  0
  5  6  1  0
  6  7  2  0
  6 16  1  0
  7  8  1  0
  8  9  2  0
  9 10  1  0
  9 15  1  0
 10 11  1  0
 11 12  1  6
 11 13  1  0
 11 14  1  0
 15 16  2  0
 17 18  1  6
 17 19  1  0
 19 20  1  0
 21 20  1  1
 21 22  1  0
 21 28  1  0
 21 29  1  0
 22 23  1  0
 23 24  1  0
 24 25  1  6
 24 26  1  0
 24 27  1  0
 28 27  1  1
 28 29  1  0
M  END
