
     RDKit          3D

 28 30  0  0  0  0  0  0  0  0999 V2000
   -5.1640    1.4580   -2.3280 O   0  0  0  0  0  0  0  0  0  0  0  0
   -4.7350    0.7650   -3.2980 C   0  0  0  0  0  0  0  0  0  0  0  0
   -4.2120   -0.4920   -3.0500 O   0  0  0  0  0  0  0  0  0  0  0  0
   -4.1230   -1.0390   -1.8530 O   0  0  0  0  0  0  0  0  0  0  0  0
   -3.3610   -0.2710   -0.9770 C   0  0  2  0  0  0  0  0  0  0  0  0
   -2.2480   -0.9800   -0.5260 O   0  0  0  0  0  0  0  0  0  0  0  0
   -1.8220   -0.1250    0.5240 C   0  0  1  0  0  0  0  0  0  0  0  0
   -1.3510    0.9960   -0.0580 O   0  0  0  0  0  0  0  0  0  0  0  0
   -0.0420    1.3730    0.1390 C   0  0  0  0  0  0  0  0  0  0  0  0
    0.9710    0.6510   -0.2320 O   0  0  0  0  0  0  0  0  0  0  0  0
    1.4630   -0.5120   -0.0200 C   0  0  1  0  0  0  0  0  0  0  0  0
    2.7850   -0.7360   -0.8190 C   0  0  0  0  0  0  0  0  0  0  0  0
    3.7620    0.2290   -0.4370 N   0  0  0  0  0  0  0  0  0  0  0  0
    5.0460    0.2220   -1.0320 C   0  0  0  0  0  0  0  0  0  0  0  0
    5.2940   -0.6670   -1.9100 O   0  0  0  0  0  0  0  0  0  0  0  0
    6.0420    1.1270   -0.7100 O   0  0  0  0  0  0  0  0  0  0  0  0
    7.2200    1.0270   -1.3360 O   0  0  0  0  0  0  0  0  0  0  0  0
    8.1020    1.7200   -0.6610 O   0  0  0  0  0  0  0  0  0  0  0  0
    1.8740   -0.8820    1.4000 C   0  0  0  0  0  0  0  0  0  0  0  0
    2.3770   -2.2070    1.1500 O   0  0  0  0  0  0  0  0  0  0  0  0
    1.5160   -2.7340    0.1670 C   0  0  0  0  0  0  0  0  0  0  0  0
    1.4500   -3.9360   -0.2130 O   0  0  0  0  0  0  0  0  0  0  0  0
    0.7260   -1.6920   -0.3360 O   0  0  0  0  0  0  0  0  0  0  0  0
   -3.1390    0.0910    1.2140 C   0  0  0  0  0  0  0  0  0  0  0  0
   -3.7420    0.3380    2.3800 N   0  0  0  0  0  0  0  0  0  0  0  0
   -5.0610    0.3950    2.1460 C   0  0  0  0  0  0  0  0  0  0  0  0
   -5.2870    0.1790    0.8040 C   0  0  0  0  0  0  0  0  0  0  0  0
   -4.0730   -0.0060    0.2540 N   0  0  0  0  0  0  0  0  0  0  0  0
  1  2  2  0
  2  3  1  0
  3  4  1  0
  5  4  1  6
  5  6  1  0
  5 28  1  0
  6  7  1  0
  7  8  1  6
  7 24  1  0
  8  9  1  0
  9 10  1  0
 10 11  1  0
 11 12  1  6
 11 19  1  0
 11 23  1  0
 12 13  1  0
 13 14  1  0
 14 15  2  0
 14 16  1  0
 16 17  1  0
 17 18  1  0
 19 20  1  0
 20 21  1  0
 21 22  2  0
 21 23  1  0
 24 25  2  0
 24 28  1  0
 25 26  1  0
 26 27  2  0
 27 28  1  0
M  END
