
     RDKit          3D

 28 29  0  0  0  0  0  0  0  0999 V2000
    4.1730   -1.2860    1.4780 O   0  0  0  0  0  0  0  0  0  0  0  0
    3.4390   -0.2810    1.1820 C   0  0  0  0  0  0  0  0  0  0  0  0
    2.1690   -0.0800    1.7610 N   0  0  0  0  0  0  0  0  0  0  0  0
    1.3540   -1.1070    1.8310 C   0  0  0  0  0  0  0  0  0  0  0  0
    1.6750   -2.3850    1.3590 N   0  0  0  0  0  0  0  0  0  0  0  0
    2.0510   -2.6110    0.1720 C   0  0  0  0  0  0  0  0  0  0  0  0
    2.2170   -1.7060   -0.8510 O   0  0  0  0  0  0  0  0  0  0  0  0
    0.1260   -0.7630    2.4440 O   0  0  0  0  0  0  0  0  0  0  0  0
   -0.3160    0.5710    2.3780 C   0  0  0  0  0  0  0  0  0  0  0  0
   -0.6350    0.9430    0.9560 C   0  0  0  0  0  0  0  0  0  0  0  0
   -1.7710    0.1610    0.4610 N   0  0  0  0  0  0  0  0  0  0  0  0
   -1.8460   -1.0770   -0.2050 C   0  0  0  0  0  0  0  0  0  0  0  0
   -0.9110   -1.8240   -0.5450 O   0  0  0  0  0  0  0  0  0  0  0  0
   -3.2040   -1.3840   -0.4560 O   0  0  0  0  0  0  0  0  0  0  0  0
   -3.8560   -0.1380   -0.5030 C   0  0  2  0  0  0  0  0  0  0  0  0
   -5.3330   -0.2330   -0.2480 C   0  0  0  0  0  0  0  0  0  0  0  0
   -6.0680   -0.4270   -1.4120 O   0  0  0  0  0  0  0  0  0  0  0  0
   -5.6200    0.5290   -2.3350 C   0  0  0  0  0  0  0  0  0  0  0  0
   -4.3220    0.1560   -2.6800 O   0  0  0  0  0  0  0  0  0  0  0  0
   -3.5460    0.5120   -1.6840 O   0  0  0  0  0  0  0  0  0  0  0  0
   -3.1600    0.5790    0.5950 C   0  0  0  0  0  0  0  0  0  0  0  0
   -3.5860    1.3680    1.4670 O   0  0  0  0  0  0  0  0  0  0  0  0
    4.0170    0.6110    0.2200 N   0  0  0  0  0  0  0  0  0  0  0  0
    5.3030    0.3710   -0.3390 C   0  0  0  0  0  0  0  0  0  0  0  0
    5.9610   -0.6420    0.0060 O   0  0  0  0  0  0  0  0  0  0  0  0
    5.8790    1.2240   -1.2720 O   0  0  0  0  0  0  0  0  0  0  0  0
    7.1060    0.9810   -1.7970 O   0  0  0  0  0  0  0  0  0  0  0  0
    7.7100    2.1490   -1.8840 O   0  0  0  0  0  0  0  0  0  0  0  0
  1  2  2  0
  2  3  1  0
  2 23  1  0
  3  4  2  3
  4  5  1  0
  4  8  1  0
  5  6  2  3
  6  7  1  0
  8  9  1  0
  9 10  1  0
 10 11  1  0
 11 12  1  0
 11 21  1  0
 12 13  2  0
 12 14  1  0
 14 15  1  0
 15 16  1  1
 15 20  1  0
 15 21  1  0
 16 17  1  0
 17 18  1  0
 18 19  1  0
 19 20  1  0
 21 22  2  0
 23 24  1  0
 24 25  2  0
 24 26  1  0
 26 27  1  0
 27 28  1  0
M  END
