
     RDKit          3D

 28 31  0  0  0  0  0  0  0  0999 V2000
   -5.1790   -3.2390    1.2880 O   0  0  0  0  0  0  0  0  0  0  0  0
   -4.5420   -2.5190    0.4460 C   0  0  0  0  0  0  0  0  0  0  0  0
   -4.4640   -2.7630   -0.9520 N   0  0  0  0  0  0  0  0  0  0  0  0
   -3.7550   -1.8680   -1.5250 C   0  0  0  0  0  0  0  0  0  0  0  0
   -3.4550   -1.7780   -2.8920 O   0  0  0  0  0  0  0  0  0  0  0  0
   -3.2860   -0.9240   -0.5210 C   0  0  1  0  0  0  0  0  0  0  0  0
   -3.8080   -1.3790    0.6900 O   0  0  0  0  0  0  0  0  0  0  0  0
   -1.8950   -0.8760   -0.4150 O   0  0  0  0  0  0  0  0  0  0  0  0
   -1.5950    0.3450    0.0220 N   0  0  0  0  0  0  0  0  0  0  0  0
   -0.7720    0.3820    1.1960 C   0  0  2  0  0  0  0  0  0  0  0  0
    0.0360   -0.8950    1.2330 C   0  0  0  0  0  0  0  0  0  0  0  0
    0.8720   -1.0860    0.1270 O   0  0  0  0  0  0  0  0  0  0  0  0
    1.8990   -0.2480   -0.2540 C   0  0  0  0  0  0  0  0  0  0  0  0
    2.0950    0.7680    0.4610 O   0  0  0  0  0  0  0  0  0  0  0  0
    2.7210   -0.4770   -1.3830 N   0  0  0  0  0  0  0  0  0  0  0  0
    3.7980    0.4050   -1.7750 C   0  0  0  0  0  0  0  0  0  0  0  0
    4.8280    0.5040   -0.6930 C   0  0  0  0  0  0  0  0  0  0  0  0
    5.8700    1.3620   -1.0870 O   0  0  0  0  0  0  0  0  0  0  0  0
    6.7820    1.4720   -0.1710 O   0  0  0  0  0  0  0  0  0  0  0  0
    7.8560    0.7320   -0.4430 O   0  0  0  0  0  0  0  0  0  0  0  0
    7.7580   -0.4730    0.0480 O   0  0  0  0  0  0  0  0  0  0  0  0
   -1.5580    0.4460    2.4780 C   0  0  0  0  0  0  0  0  0  0  0  0
   -2.5550    1.4050    2.4560 O   0  0  0  0  0  0  0  0  0  0  0  0
   -3.4160    1.2830    1.3900 C   0  0  1  0  0  0  0  0  0  0  0  0
   -3.6720    2.6680    0.7920 C   0  0  0  0  0  0  0  0  0  0  0  0
   -2.6950    2.4600   -0.1740 O   0  0  0  0  0  0  0  0  0  0  0  0
   -2.7760    1.1120    0.0680 C   0  0  1  0  0  0  0  0  0  0  0  0
   -3.6350    0.3980   -0.7980 O   0  0  0  0  0  0  0  0  0  0  0  0
  1  2  2  0
  2  3  1  0
  2  7  1  0
  3  4  2  0
  4  5  1  0
  4  6  1  0
  6  7  1  1
  6  8  1  0
  6 28  1  0
  8  9  1  0
  9 10  1  0
  9 27  1  0
 10 11  1  1
 10 22  1  0
 11 12  1  0
 12 13  1  0
 13 14  2  0
 13 15  1  0
 15 16  1  0
 16 17  1  0
 17 18  1  0
 18 19  1  0
 19 20  1  0
 20 21  1  0
 22 23  1  0
 23 24  1  0
 24 25  1  6
 24 27  1  0
 25 26  1  0
 27 26  1  6
 27 28  1  0
M  END
