
     RDKit          3D

 28 31  0  0  0  0  0  0  0  0999 V2000
   -7.4500    1.9660   -0.7070 C   0  0  0  0  0  0  0  0  0  0  0  0
   -7.0630    0.6340   -0.3510 N   0  0  0  0  0  0  0  0  0  0  0  0
   -5.7000    0.2290   -0.1980 C   0  0  0  0  0  0  0  0  0  0  0  0
   -4.6780    1.0820   -0.3810 N   0  0  0  0  0  0  0  0  0  0  0  0
   -3.3840    0.7250   -0.2430 C   0  0  0  0  0  0  0  0  0  0  0  0
   -2.1970    1.3860   -0.3700 N   0  0  0  0  0  0  0  0  0  0  0  0
   -1.1770    0.5570   -0.1200 C   0  0  0  0  0  0  0  0  0  0  0  0
    0.2510    0.8780   -0.1460 C   0  0  0  0  0  0  0  0  0  0  0  0
    0.6930    2.1480   -0.4420 C   0  0  0  0  0  0  0  0  0  0  0  0
    2.0330    2.4710   -0.4640 C   0  0  0  0  0  0  0  0  0  0  0  0
    2.9520    1.4810   -0.1780 C   0  0  0  0  0  0  0  0  0  0  0  0
    2.5140    0.2300    0.1130 C   0  0  0  0  0  0  0  0  0  0  0  0
    3.4000   -0.9020    0.4360 C   0  0  0  0  0  0  0  0  0  0  0  0
    4.7550   -0.4230    0.5360 N   0  0  0  0  0  0  0  0  0  0  0  0
    5.5410   -0.1210   -0.6190 C   0  0  0  0  0  0  0  0  0  0  0  0
    5.0620   -0.2660   -1.7810 O   0  0  0  0  0  0  0  0  0  0  0  0
    6.9200    0.3620   -0.3610 C   0  0  0  0  0  0  0  0  0  0  0  0
    7.6320    0.6510   -1.5080 O   0  0  0  0  0  0  0  0  0  0  0  0
    8.9010    1.0870   -1.0760 C   0  0  0  0  0  0  0  0  0  0  0  0
    1.1750   -0.0440    0.1230 N   0  0  0  0  0  0  0  0  0  0  0  0
   -1.6880   -0.6880    0.1810 C   0  0  0  0  0  0  0  0  0  0  0  0
   -3.0550   -0.5690    0.1010 C   0  0  0  0  0  0  0  0  0  0  0  0
   -4.0840   -1.4740    0.2980 C   0  0  0  0  0  0  0  0  0  0  0  0
   -5.4020   -1.0730    0.1480 C   0  0  0  0  0  0  0  0  0  0  0  0
   -6.1850   -2.1440    0.3970 N   0  0  0  0  0  0  0  0  0  0  0  0
   -5.3610   -3.1700    0.6920 C   0  0  0  0  0  0  0  0  0  0  0  0
   -4.0680   -2.7700    0.6340 N   0  0  0  0  0  0  0  0  0  0  0  0
   -2.8820   -3.5390    0.8770 C   0  0  0  0  0  0  0  0  0  0  0  0
  1  2  1  0
  2  3  1  0
  3  4  2  0
  3 24  1  0
  4  5  1  0
  5  6  1  0
  5 22  2  0
  6  7  1  0
  7  8  1  0
  7 21  2  0
  8  9  2  0
  8 20  1  0
  9 10  1  0
 10 11  2  0
 11 12  1  0
 12 13  1  0
 12 20  2  0
 13 14  1  0
 14 15  1  0
 15 16  2  0
 15 17  1  0
 17 18  1  0
 18 19  1  0
 21 22  1  0
 22 23  1  0
 23 24  2  0
 23 27  1  0
 24 25  1  0
 25 26  2  0
 26 27  1  0
 27 28  1  0
M  END
