
     RDKit          3D

 25 26  0  0  0  0  0  0  0  0999 V2000
    5.6330    2.1930   -0.8460 C   0  0  0  0  0  0  0  0  0  0  0  0
    5.2030    1.2730   -1.6840 C   0  0  0  0  0  0  0  0  0  0  0  0
    4.3460    0.1640   -1.2540 C   0  0  0  0  0  0  0  0  0  0  0  0
    4.3460   -0.0150    0.2210 C   0  0  1  0  0  0  0  0  0  0  0  0
    3.3880   -1.0850    0.6060 N   0  0  0  0  0  0  0  0  0  0  0  0
    2.0540   -0.4560    0.6780 C   0  0  2  0  0  0  0  0  0  0  0  0
    1.7460   -0.2750    2.1110 C   0  0  0  0  0  0  0  0  0  0  0  0
    1.1500   -1.3220   -0.1290 C   0  0  0  0  0  0  0  0  0  0  0  0
   -0.1410   -1.0260   -0.2820 O   0  0  0  0  0  0  0  0  0  0  0  0
   -1.2950   -0.8860    0.3810 C   0  0  0  0  0  0  0  0  0  0  0  0
   -1.5400   -1.0710    1.7230 C   0  0  0  0  0  0  0  0  0  0  0  0
   -2.7960   -0.8840    2.2760 C   0  0  0  0  0  0  0  0  0  0  0  0
   -3.8510   -0.5010    1.4770 C   0  0  0  0  0  0  0  0  0  0  0  0
   -5.1180   -0.3020    1.9850 C   0  0  0  0  0  0  0  0  0  0  0  0
   -6.1790    0.0790    1.2080 C   0  0  0  0  0  0  0  0  0  0  0  0
   -5.9660    0.2730   -0.1510 C   0  0  0  0  0  0  0  0  0  0  0  0
   -4.6960    0.0820   -0.7010 C   0  0  0  0  0  0  0  0  0  0  0  0
   -4.5490    0.2860   -2.0890 N   0  0  0  0  0  0  0  0  0  0  0  0
   -5.6830    0.7430   -2.9140 C   0  0  0  0  0  0  0  0  0  0  0  0
   -6.0550    2.0470   -2.4550 N   0  0  0  0  0  0  0  0  0  0  0  0
   -3.6580   -0.3000    0.1090 C   0  0  0  0  0  0  0  0  0  0  0  0
   -2.4090   -0.4930   -0.4030 C   0  0  0  0  0  0  0  0  0  0  0  0
    5.6860   -0.5780    0.6200 C   0  0  0  0  0  0  0  0  0  0  0  0
    6.8710    0.0220    0.2260 N   0  0  0  0  0  0  0  0  0  0  0  0
    5.7000   -1.6170    1.3260 O   0  0  0  0  0  0  0  0  0  0  0  0
  1  2  2  0
  2  3  1  0
  4  3  1  6
  4  5  1  0
  4 23  1  0
  5  6  1  0
  6  7  1  1
  6  8  1  0
  8  9  1  0
  9 10  1  0
 10 11  2  0
 10 22  1  0
 11 12  1  0
 12 13  2  0
 13 14  1  0
 13 21  1  0
 14 15  2  0
 15 16  1  0
 16 17  2  0
 17 18  1  0
 17 21  1  0
 18 19  1  0
 19 20  1  0
 21 22  2  0
 23 24  1  0
 23 25  2  0
M  CHG  1   5   1
M  END
