
     RDKit          3D

 25 25  0  0  0  0  0  0  0  0999 V2000
    1.5850    0.6750    2.7490 C   0  0  0  0  0  0  0  0  0  0  0  0
    0.2730    0.2100    2.1160 C   0  0  2  0  0  0  0  0  0  0  0  0
    0.0180   -1.1010    2.7030 N   0  0  0  0  0  0  0  0  0  0  0  0
    0.4490    0.1220    0.6480 C   0  0  0  0  0  0  0  0  0  0  0  0
    1.7270    0.3240    0.0910 C   0  0  0  0  0  0  0  0  0  0  0  0
    2.0190    0.2360   -1.2330 C   0  0  0  0  0  0  0  0  0  0  0  0
    3.3000    0.4250   -1.8010 N   0  0  0  0  0  0  0  0  0  0  0  0
    4.5170    0.5720   -1.1350 C   0  0  0  0  0  0  0  0  0  0  0  0
    4.5840    0.5430    0.1040 O   0  0  0  0  0  0  0  0  0  0  0  0
    5.8130    0.7720   -1.8610 C   0  0  0  0  0  0  0  0  0  0  0  0
    7.0060    0.8100   -0.9830 C   0  0  0  0  0  0  0  0  0  0  0  0
    7.2630   -0.4470   -0.1920 C   0  0  0  0  0  0  0  0  0  0  0  0
    7.4430   -1.5260   -1.1580 N   0  0  0  0  0  0  0  0  0  0  0  0
    0.9400   -0.0820   -2.0820 C   0  0  0  0  0  0  0  0  0  0  0  0
   -0.3130   -0.2820   -1.5580 C   0  0  0  0  0  0  0  0  0  0  0  0
   -0.5700   -0.1830   -0.2110 C   0  0  0  0  0  0  0  0  0  0  0  0
   -1.9760   -0.3770    0.2590 C   0  0  0  0  0  0  0  0  0  0  0  0
   -2.6940    0.9250    0.4340 C   0  0  0  0  0  0  0  0  0  0  0  0
   -4.0720    0.8130    0.9330 C   0  0  0  0  0  0  0  0  0  0  0  0
   -5.1110    0.1000    0.1800 C   0  0  2  0  0  0  0  0  0  0  0  0
   -6.4120    0.2650    1.0310 C   0  0  0  0  0  0  0  0  0  0  0  0
   -4.8970   -1.3830    0.1100 C   0  0  0  0  0  0  0  0  0  0  0  0
   -5.3930    0.6320   -1.1720 C   0  0  0  0  0  0  0  0  0  0  0  0
   -6.3810   -0.0050   -1.9800 N   0  0  0  0  0  0  0  0  0  0  0  0
   -4.8330    1.5850   -1.6450 O   0  0  0  0  0  0  0  0  0  0  0  0
  2  1  1  1
  2  3  1  0
  2  4  1  0
  4  5  2  0
  4 16  1  0
  5  6  1  0
  6  7  1  0
  6 14  2  0
  7  8  1  0
  8  9  2  0
  8 10  1  0
 10 11  1  0
 11 12  1  0
 12 13  1  0
 14 15  1  0
 15 16  2  0
 16 17  1  0
 17 18  1  0
 18 19  1  0
 19 20  1  0
 20 21  1  1
 20 22  1  0
 20 23  1  0
 23 24  1  0
 23 25  2  0
M  CHG  2   3   1  24   1
M  END
