
     RDKit          3D

 25 26  0  0  0  0  0  0  0  0999 V2000
   -7.2490    1.0160    0.4610 C   0  0  0  0  0  0  0  0  0  0  0  0
   -6.7010    0.9160   -0.9170 N   0  0  0  0  0  0  0  0  0  0  0  0
   -5.2900    1.1020   -0.8630 C   0  0  0  0  0  0  0  0  0  0  0  0
   -4.5370    0.0900   -0.1590 C   0  0  0  0  0  0  0  0  0  0  0  0
   -4.9120   -1.2900   -0.0330 C   0  0  0  0  0  0  0  0  0  0  0  0
   -4.1270   -2.2330    0.3770 C   0  0  0  0  0  0  0  0  0  0  0  0
   -2.7680   -1.9370    0.7530 C   0  0  0  0  0  0  0  0  0  0  0  0
   -2.3450   -0.6200    0.6640 C   0  0  0  0  0  0  0  0  0  0  0  0
   -1.1480   -0.0980    1.3020 C   0  0  0  0  0  0  0  0  0  0  0  0
    0.0460    0.0080    0.6100 N   0  0  0  0  0  0  0  0  0  0  0  0
    0.3220   -0.7380   -0.5490 C   0  0  0  0  0  0  0  0  0  0  0  0
    1.7280   -1.3630   -0.4530 C   0  0  0  0  0  0  0  0  0  0  0  0
    2.7640   -0.3450   -0.1620 C   0  0  0  0  0  0  0  0  0  0  0  0
    2.5420    0.6700    0.6330 O   0  0  0  0  0  0  0  0  0  0  0  0
    4.0930   -0.4310   -0.7280 N   0  0  0  0  0  0  0  0  0  0  0  0
    5.0290    0.5860   -0.2150 C   0  0  0  0  0  0  0  0  0  0  0  0
    4.8370    1.8750   -0.1570 C   0  0  0  0  0  0  0  0  0  0  0  0
    5.7700    2.6780    0.4560 C   0  0  0  0  0  0  0  0  0  0  0  0
    6.8980    2.1710    1.0240 C   0  0  0  0  0  0  0  0  0  0  0  0
    7.0840    0.7640    0.9360 C   0  0  0  0  0  0  0  0  0  0  0  0
    6.2260   -0.0480    0.3630 C   0  0  0  0  0  0  0  0  0  0  0  0
    6.1570   -1.3470    0.1590 O   0  0  0  0  0  0  0  0  0  0  0  0
    6.1060   -2.6350   -0.0340 C   0  0  0  0  0  0  0  0  0  0  0  0
   -3.2520    0.3030    0.2110 C   0  0  0  0  0  0  0  0  0  0  0  0
   -2.7110    1.6450    0.0810 N   0  0  0  0  0  0  0  0  0  0  0  0
  1  2  1  0
  2  3  1  0
  3  4  1  0
  4  5  2  0
  4 24  1  0
  5  6  1  0
  6  7  2  0
  7  8  1  0
  8  9  1  0
  8 24  2  0
  9 10  1  0
 10 11  1  0
 11 12  1  0
 12 13  1  0
 13 14  2  0
 13 15  1  0
 15 16  1  0
 16 17  2  0
 16 21  1  0
 17 18  1  0
 18 19  2  0
 19 20  1  0
 20 21  2  0
 21 22  1  0
 22 23  1  0
 24 25  1  0
M  CHG  2   2   1  10   1
M  END
