
     RDKit          3D

 24 25  0  0  0  0  0  0  0  0999 V2000
    6.4130    2.8980   -1.0630 C   0  0  0  0  0  0  0  0  0  0  0  0
    5.5830    1.8900   -0.5580 O   0  0  0  0  0  0  0  0  0  0  0  0
    5.8750    0.5610   -0.7130 C   0  0  0  0  0  0  0  0  0  0  0  0
    6.9980    0.1540   -1.3720 C   0  0  0  0  0  0  0  0  0  0  0  0
    7.3040   -1.1770   -1.5340 C   0  0  0  0  0  0  0  0  0  0  0  0
    6.4580   -2.1070   -1.0220 C   0  0  0  0  0  0  0  0  0  0  0  0
    5.3030   -1.6860   -0.3450 C   0  0  0  0  0  0  0  0  0  0  0  0
    4.9920   -0.3680   -0.1780 C   0  0  0  0  0  0  0  0  0  0  0  0
    3.8330    0.0400    0.5010 N   0  0  0  0  0  0  0  0  0  0  0  0
    2.8350   -0.7380    1.1010 C   0  0  0  0  0  0  0  0  0  0  0  0
    2.9230   -1.9790    1.0650 O   0  0  0  0  0  0  0  0  0  0  0  0
    1.6540   -0.1030    1.7900 C   0  0  0  0  0  0  0  0  0  0  0  0
    0.6490   -1.0830    2.2750 C   0  0  0  0  0  0  0  0  0  0  0  0
   -0.0040   -1.9150    1.2200 C   0  0  0  0  0  0  0  0  0  0  0  0
   -0.7480   -1.0640    0.1980 C   0  0  0  0  0  0  0  0  0  0  0  0
   -1.8390   -0.2370    0.8480 C   0  0  0  0  0  0  0  0  0  0  0  0
   -2.4910    0.5300   -0.1590 N   0  0  0  0  0  0  0  0  0  0  0  0
   -3.9070    0.3370   -0.2430 C   0  0  2  0  0  0  0  0  0  0  0  0
   -4.2330   -1.0770   -0.6610 C   0  0  0  0  0  0  0  0  0  0  0  0
   -5.6590   -1.2770   -0.7470 N   0  0  0  0  0  0  0  0  0  0  0  0
   -4.4260    1.2630   -1.3390 C   0  0  0  0  0  0  0  0  0  0  0  0
   -5.6910    1.8700   -0.8330 C   0  0  0  0  0  0  0  0  0  0  0  0
   -5.7000    1.7010    0.6520 C   0  0  0  0  0  0  0  0  0  0  0  0
   -4.5950    0.7510    1.0150 C   0  0  0  0  0  0  0  0  0  0  0  0
  1  2  1  0
  2  3  1  0
  3  4  2  0
  3  8  1  0
  4  5  1  0
  5  6  2  0
  6  7  1  0
  7  8  2  0
  8  9  1  0
  9 10  1  0
 10 11  2  0
 10 12  1  0
 12 13  1  0
 13 14  1  0
 14 15  1  0
 15 16  1  0
 16 17  1  0
 17 18  1  0
 18 19  1  6
 18 21  1  0
 18 24  1  0
 19 20  1  0
 21 22  1  0
 22 23  1  0
 23 24  1  0
M  CHG  2  17   1  20   1
M  END
