
     RDKit          3D

 25 26  0  0  0  0  0  0  0  0999 V2000
   -4.2910    3.4570    0.7080 C   0  0  0  0  0  0  0  0  0  0  0  0
   -3.1970    2.7400   -0.0390 C   0  0  0  0  0  0  0  0  0  0  0  0
   -2.5100    3.3740   -1.0520 C   0  0  0  0  0  0  0  0  0  0  0  0
   -1.5070    2.6990   -1.7290 C   0  0  0  0  0  0  0  0  0  0  0  0
   -1.1980    1.3880   -1.3840 C   0  0  0  0  0  0  0  0  0  0  0  0
   -1.8680    0.7510   -0.3870 C   0  0  0  0  0  0  0  0  0  0  0  0
   -1.6330   -0.6290    0.0840 C   0  0  2  0  0  0  0  0  0  0  0  0
   -0.4880   -1.3400   -0.5340 C   0  0  0  0  0  0  0  0  0  0  0  0
    0.7850   -0.5840   -0.2330 C   0  0  0  0  0  0  0  0  0  0  0  0
    0.7430    0.4270    0.4890 O   0  0  0  0  0  0  0  0  0  0  0  0
    1.9970   -1.0350   -0.7730 N   0  0  0  0  0  0  0  0  0  0  0  0
    3.2530   -0.4260   -0.5780 C   0  0  0  0  0  0  0  0  0  0  0  0
    4.3850   -1.1200   -1.0190 C   0  0  0  0  0  0  0  0  0  0  0  0
    5.6670   -0.6620   -0.9130 C   0  0  0  0  0  0  0  0  0  0  0  0
    5.8580    0.5760   -0.3270 C   0  0  0  0  0  0  0  0  0  0  0  0
    7.2010    1.1030   -0.1930 C   0  0  0  0  0  0  0  0  0  0  0  0
    7.4320    2.3700    0.4030 N   0  0  0  0  0  0  0  0  0  0  0  0
    8.1980    0.4420   -0.6050 O   0  0  0  0  0  0  0  0  0  0  0  0
    4.7810    1.2930    0.1190 C   0  0  0  0  0  0  0  0  0  0  0  0
    3.4840    0.7940   -0.0060 C   0  0  0  0  0  0  0  0  0  0  0  0
   -2.8510   -1.4150    0.1470 N   0  0  0  0  0  0  0  0  0  0  0  0
   -3.0240   -2.0430    1.4140 C   0  0  0  0  0  0  0  0  0  0  0  0
   -3.2900   -3.5220    1.3460 C   0  0  0  0  0  0  0  0  0  0  0  0
   -4.4680   -3.8710    0.6180 N   0  0  0  0  0  0  0  0  0  0  0  0
   -2.8700    1.4570    0.2740 C   0  0  0  0  0  0  0  0  0  0  0  0
  1  2  1  0
  2  3  2  0
  2 25  1  0
  3  4  1  0
  4  5  2  0
  5  6  1  0
  6  7  1  0
  6 25  2  0
  7  8  1  6
  7 21  1  0
  8  9  1  0
  9 10  2  0
  9 11  1  0
 11 12  1  0
 12 13  2  0
 12 20  1  0
 13 14  1  0
 14 15  2  0
 15 16  1  0
 15 19  1  0
 16 17  1  0
 16 18  2  0
 19 20  2  0
 21 22  1  0
 22 23  1  0
 23 24  1  0
M  CHG  2  21   1  24   1
M  END
