
     RDKit          3D

 25 25  0  0  0  0  0  0  0  0999 V2000
   -0.1420    2.6750    0.1490 C   0  0  0  0  0  0  0  0  0  0  0  0
   -0.6260    1.7520    1.2040 C   0  0  0  0  0  0  0  0  0  0  0  0
   -1.0250    0.4190    0.6540 C   0  0  0  0  0  0  0  0  0  0  0  0
   -2.3700    0.2620    0.2630 C   0  0  0  0  0  0  0  0  0  0  0  0
   -2.8980   -0.8750   -0.2630 C   0  0  0  0  0  0  0  0  0  0  0  0
   -4.3200   -1.0100   -0.6060 C   0  0  0  0  0  0  0  0  0  0  0  0
   -4.7260   -1.9110   -1.3900 O   0  0  0  0  0  0  0  0  0  0  0  0
   -5.3070   -0.1420   -0.0710 N   0  0  0  0  0  0  0  0  0  0  0  0
   -6.7210   -0.2370   -0.3580 C   0  0  2  0  0  0  0  0  0  0  0  0
   -7.4010    0.8970    0.4150 C   0  0  0  0  0  0  0  0  0  0  0  0
   -7.3060   -1.5130    0.2300 C   0  0  0  0  0  0  0  0  0  0  0  0
   -7.0480   -0.0880   -1.8080 C   0  0  0  0  0  0  0  0  0  0  0  0
   -2.0200   -1.9370   -0.4150 C   0  0  0  0  0  0  0  0  0  0  0  0
   -0.7120   -1.8290   -0.0520 C   0  0  0  0  0  0  0  0  0  0  0  0
   -0.1770   -0.6380    0.4980 C   0  0  0  0  0  0  0  0  0  0  0  0
    1.1990   -0.6340    0.8920 C   0  0  0  0  0  0  0  0  0  0  0  0
    1.5580   -1.6690    1.5820 O   0  0  0  0  0  0  0  0  0  0  0  0
    2.1750    0.3040    0.6400 N   0  0  0  0  0  0  0  0  0  0  0  0
    3.5260    0.1530    1.1570 C   0  0  0  0  0  0  0  0  0  0  0  0
    4.2110   -1.0310    0.6270 C   0  0  0  0  0  0  0  0  0  0  0  0
    4.4000   -0.9450   -0.8060 N   0  0  0  0  0  0  0  0  0  0  0  0
    5.2130    0.1550   -1.2120 C   0  0  0  0  0  0  0  0  0  0  0  0
    6.4680    0.3680   -0.4350 C   0  0  1  0  0  0  0  0  0  0  0  0
    7.3760   -0.8330   -0.5270 C   0  0  0  0  0  0  0  0  0  0  0  0
    7.1530    1.5270   -1.0300 N   0  0  0  0  0  0  0  0  0  0  0  0
  1  2  1  0
  2  3  1  0
  3  4  2  0
  3 15  1  0
  4  5  1  0
  5  6  1  0
  5 13  2  0
  6  7  2  0
  6  8  1  0
  8  9  1  0
  9 10  1  1
  9 11  1  0
  9 12  1  0
 13 14  1  0
 14 15  2  0
 15 16  1  0
 16 17  2  0
 16 18  1  0
 18 19  1  0
 19 20  1  0
 20 21  1  0
 21 22  1  0
 22 23  1  0
 23 24  1  6
 23 25  1  0
M  CHG  2  21   1  25   1
M  END
