
     RDKit          3D

 11 11  0  0  0  0  0  0  0  0999 V2000
    2.7280    1.1130   -0.0770 O   0  0  0  0  0  0  0  0  0  0  0  0
    2.3260   -0.1900    0.0770 C   0  0  0  0  0  0  0  0  0  0  0  0
    1.0050   -0.4770   -0.6080 C   0  0  1  0  0  0  0  0  0  0  0  0
    0.6080   -1.7820   -0.4500 O   0  0  0  0  0  0  0  0  0  0  0  0
   -0.0620    0.4920   -0.2280 C   0  0  1  0  0  0  0  0  0  0  0  0
   -1.3340    0.0940   -0.9850 C   0  0  1  0  0  0  0  0  0  0  0  0
   -1.4460   -1.2720   -0.9010 O   0  0  0  0  0  0  0  0  0  0  0  0
   -2.3700    0.7500   -0.0610 C   0  0  0  0  0  0  0  0  0  0  0  0
   -1.9180    0.2970    1.1750 O   0  0  0  0  0  0  0  0  0  0  0  0
   -0.5390    0.3780    1.1860 C   0  0  1  0  0  0  0  0  0  0  0  0
    0.0490   -0.6790    1.8790 O   0  0  0  0  0  0  0  0  0  0  0  0
  1  2  1  0
  2  3  1  0
  3  4  1  1
  5  3  1  1
  5  6  1  0
  5 10  1  0
  6  7  1  1
  6  8  1  0
  8  9  1  0
  9 10  1  0
 10 11  1  6
M  END
