
     RDKit          3D

 11 11  0  0  0  0  0  0  0  0999 V2000
    4.0900   -0.0120   -0.6770 O   0  0  0  0  0  0  0  0  0  0  0  0
    2.9930   -0.2440    0.1470 C   0  0  0  0  0  0  0  0  0  0  0  0
    1.7870   -0.1020   -0.5410 O   0  0  0  0  0  0  0  0  0  0  0  0
    0.7670   -0.3500    0.3570 C   0  0  0  0  0  0  0  0  0  0  0  0
   -0.6000   -0.2300   -0.2580 C   0  0  2  0  0  0  0  0  0  0  0  0
   -0.8040   -1.1040   -1.3000 O   0  0  0  0  0  0  0  0  0  0  0  0
   -0.9610    1.1760   -0.6240 C   0  0  0  0  0  0  0  0  0  0  0  0
   -2.3870    1.2860   -0.0840 C   0  0  0  0  0  0  0  0  0  0  0  0
   -2.7790   -0.0240    0.2030 O   0  0  0  0  0  0  0  0  0  0  0  0
   -1.6180   -0.5040    0.8490 C   0  0  1  0  0  0  0  0  0  0  0  0
   -1.7010   -1.8290    1.1680 O   0  0  0  0  0  0  0  0  0  0  0  0
  1  2  1  0
  2  3  1  0
  3  4  1  0
  4  5  1  0
  5  6  1  6
  5  7  1  0
  5 10  1  0
  7  8  1  0
  8  9  1  0
  9 10  1  0
 10 11  1  6
M  END
