
     RDKit          3D

 11 11  0  0  0  0  0  0  0  0999 V2000
    4.2200    0.6720    0.3020 O   0  0  0  0  0  0  0  0  0  0  0  0
    2.9150    0.9380   -0.0840 C   0  0  0  0  0  0  0  0  0  0  0  0
    2.1240   -0.1970    0.1120 O   0  0  0  0  0  0  0  0  0  0  0  0
    0.8260    0.0900   -0.2790 C   0  0  2  0  0  0  0  0  0  0  0  0
   -0.1410    0.0060    0.8860 C   0  0  0  0  0  0  0  0  0  0  0  0
   -1.3590   -0.5710    0.1500 C   0  0  1  0  0  0  0  0  0  0  0  0
   -2.2250   -1.1620    1.0240 O   0  0  0  0  0  0  0  0  0  0  0  0
   -1.9840    0.5470   -0.6620 C   0  0  0  0  0  0  0  0  0  0  0  0
   -3.0410    0.0730   -1.4110 O   0  0  0  0  0  0  0  0  0  0  0  0
   -0.6290   -1.5430   -0.7500 C   0  0  0  0  0  0  0  0  0  0  0  0
    0.4020   -0.7830   -1.2410 O   0  0  0  0  0  0  0  0  0  0  0  0
  1  2  1  0
  2  3  1  0
  4  3  1  1
  4  5  1  0
  4 11  1  0
  5  6  1  0
  6  7  1  1
  6  8  1  0
  6 10  1  0
  8  9  1  0
 10 11  1  0
M  END
