
     RDKit          3D

 12 12  0  0  0  0  0  0  0  0999 V2000
    3.2070    1.1650    0.4130 O   0  0  0  0  0  0  0  0  0  0  0  0
    2.3590    0.2590   -0.1980 C   0  0  0  0  0  0  0  0  0  0  0  0
    1.0170    0.1530    0.5190 C   0  0  1  0  0  0  0  0  0  0  0  0
    0.3410    1.3490    0.5600 O   0  0  0  0  0  0  0  0  0  0  0  0
   -0.7560    1.3780   -0.2980 C   0  0  2  0  0  0  0  0  0  0  0  0
   -1.3460    2.6250   -0.2370 O   0  0  0  0  0  0  0  0  0  0  0  0
   -1.8170    0.3700    0.1470 C   0  0  1  0  0  0  0  0  0  0  0  0
   -2.8370    0.3800   -0.7970 O   0  0  0  0  0  0  0  0  0  0  0  0
   -1.1980   -0.9880    0.2710 C   0  0  1  0  0  0  0  0  0  0  0  0
   -1.8310   -1.9000   -0.5880 O   0  0  0  0  0  0  0  0  0  0  0  0
    0.2580   -0.9670   -0.1200 C   0  0  2  0  0  0  0  0  0  0  0  0
    0.8100   -2.1830    0.2700 O   0  0  0  0  0  0  0  0  0  0  0  0
  1  2  1  0
  3  2  1  6
  3  4  1  0
  3 11  1  0
  4  5  1  0
  5  6  1  1
  5  7  1  0
  7  8  1  6
  7  9  1  0
  9 10  1  6
  9 11  1  0
 11 12  1  1
M  END
