
     RDKit          3D

 22 24  0  0  0  0  0  0  0  0999 V2000
    7.1310    1.7710   -0.1230 O   0  0  0  0  0  0  0  0  0  0  0  0
    6.4180    0.4210    0.0130 S   0  0  1  0  0  0  0  0  0  0  0  0
    7.4620   -0.6690    0.1510 O   0  0  0  0  0  0  0  0  0  0  0  0
    5.4160    0.5260    1.4060 C   0  0  0  0  0  0  0  0  0  0  0  0
    4.1250    0.4360    1.3340 C   0  0  0  0  0  0  0  0  0  0  0  0
    3.3780    0.2380    0.0840 C   0  0  0  0  0  0  0  0  0  0  0  0
    1.8980    0.1680    0.2780 C   0  0  0  0  0  0  0  0  0  0  0  0
    1.1040   -0.0210   -0.8720 N   0  0  0  0  0  0  0  0  0  0  0  0
   -0.3120   -0.0920   -0.7220 C   0  0  0  0  0  0  0  0  0  0  0  0
   -0.8880    0.0220    0.5240 C   0  0  0  0  0  0  0  0  0  0  0  0
   -2.2510   -0.0420    0.7120 C   0  0  0  0  0  0  0  0  0  0  0  0
   -3.1160   -0.2240   -0.3490 C   0  0  0  0  0  0  0  0  0  0  0  0
   -4.5490   -0.2920   -0.1600 C   0  0  0  0  0  0  0  0  0  0  0  0
   -5.1140   -0.1820    1.0470 N   0  0  0  0  0  0  0  0  0  0  0  0
   -6.4510   -0.2440    1.2290 C   0  0  0  0  0  0  0  0  0  0  0  0
   -7.2620   -0.4270    0.1330 C   0  0  0  0  0  0  0  0  0  0  0  0
   -6.6880   -0.5410   -1.1120 C   0  0  0  0  0  0  0  0  0  0  0  0
   -5.3390   -0.4700   -1.2280 N   0  0  0  0  0  0  0  0  0  0  0  0
   -2.5250   -0.3380   -1.6010 C   0  0  0  0  0  0  0  0  0  0  0  0
   -1.1630   -0.2730   -1.7790 C   0  0  0  0  0  0  0  0  0  0  0  0
    3.9890    0.1390   -1.0580 C   0  0  0  0  0  0  0  0  0  0  0  0
    5.4100    0.1870   -1.4010 C   0  0  0  0  0  0  0  0  0  0  0  0
  1  2  2  0
  2  3  2  0
  2  4  1  0
  2 22  1  6
  4  5  2  0
  5  6  1  0
  6  7  1  0
  6 21  2  0
  7  8  1  0
  8  9  1  0
  9 10  2  0
  9 20  1  0
 10 11  1  0
 11 12  2  0
 12 13  1  0
 12 19  1  0
 13 14  2  0
 13 18  1  0
 14 15  1  0
 15 16  2  0
 16 17  1  0
 17 18  2  0
 19 20  2  0
 21 22  1  0
M  END
