
     RDKit          3D

 22 24  0  0  0  0  0  0  0  0999 V2000
    4.4000   -2.4790   -1.8440 O   0  0  0  0  0  0  0  0  0  0  0  0
    3.8570   -2.3770   -0.4680 S   0  0  1  0  0  0  0  0  0  0  0  0
    4.8060   -1.8830    0.5550 O   0  0  0  0  0  0  0  0  0  0  0  0
    2.3080   -1.6020   -0.3470 C   0  0  0  0  0  0  0  0  0  0  0  0
    1.1590   -2.4100   -0.3930 C   0  0  0  0  0  0  0  0  0  0  0  0
   -0.0770   -1.8550   -0.2190 C   0  0  0  0  0  0  0  0  0  0  0  0
   -0.2130   -0.4800    0.0080 C   0  0  0  0  0  0  0  0  0  0  0  0
   -1.5000    0.0760    0.1880 N   0  0  0  0  0  0  0  0  0  0  0  0
   -2.6640   -0.7720    0.1380 C   0  0  0  0  0  0  0  0  0  0  0  0
   -3.9150   -0.0290    0.3440 C   0  0  0  0  0  0  0  0  0  0  0  0
   -5.1290   -0.6720    0.3300 C   0  0  0  0  0  0  0  0  0  0  0  0
   -6.3390   -0.0490    0.5140 C   0  0  0  0  0  0  0  0  0  0  0  0
   -6.2820    1.3300    0.7280 C   0  0  0  0  0  0  0  0  0  0  0  0
   -5.0710    1.9810    0.7450 C   0  0  0  0  0  0  0  0  0  0  0  0
   -3.9340    1.3080    0.5570 N   0  0  0  0  0  0  0  0  0  0  0  0
    0.8910    0.2220    0.0390 N   0  0  0  0  0  0  0  0  0  0  0  0
    2.1740   -0.2620   -0.1300 C   0  0  0  0  0  0  0  0  0  0  0  0
    3.2380    0.7280   -0.1700 C   0  0  0  0  0  0  0  0  0  0  0  0
    4.4400    0.6830   -0.6520 C   0  0  0  0  0  0  0  0  0  0  0  0
    5.1620    1.9870   -0.4320 C   0  0  0  0  0  0  0  0  0  0  0  0
    4.1630    2.7990    0.2740 C   0  0  0  0  0  0  0  0  0  0  0  0
    3.0840    2.0910    0.4190 C   0  0  0  0  0  0  0  0  0  0  0  0
  1  2  2  0
  2  3  2  0
  2  4  1  6
  4  5  2  0
  4 17  1  0
  5  6  1  0
  6  7  2  0
  7  8  1  0
  7 16  1  0
  8  9  1  0
  9 10  1  0
 10 11  2  0
 10 15  1  0
 11 12  1  0
 12 13  2  0
 13 14  1  0
 14 15  2  0
 16 17  2  0
 17 18  1  0
 18 19  2  0
 18 22  1  0
 19 20  1  0
 20 21  1  0
 21 22  2  0
M  END
