
     RDKit          3D

 20 20  0  0  0  0  0  0  0  0999 V2000
   -2.4640   -2.7510    0.9650 C   0  0  0  0  0  0  0  0  0  0  0  0
   -1.9330   -1.5950    0.4680 O   0  0  0  0  0  0  0  0  0  0  0  0
   -2.4480   -0.4150    0.9390 C   0  0  1  0  0  0  0  0  0  0  0  0
   -1.3020    0.4600    1.5350 C   0  0  0  0  0  0  0  0  0  0  0  0
   -1.0750    0.9090    0.1070 C   0  0  1  0  0  0  0  0  0  0  0  0
   -0.1030    0.2230   -0.6580 N   0  0  0  0  0  0  0  0  0  0  0  0
    1.1970    0.4610   -0.0290 C   0  0  0  0  0  0  0  0  0  0  0  0
    2.2500   -0.0230   -1.0360 C   0  0  0  0  0  0  0  0  0  0  0  0
    3.6090    0.1810   -0.4840 C   0  0  0  0  0  0  0  0  0  0  0  0
    4.3250    1.1780   -0.7370 O   0  0  0  0  0  0  0  0  0  0  0  0
    4.0850   -0.8100    0.3610 O   0  0  0  0  0  0  0  0  0  0  0  0
    5.3450   -0.6320    0.8860 N   0  0  0  0  0  0  0  0  0  0  0  0
    6.5050   -0.7050    0.0850 C   0  0  0  0  0  0  0  0  0  0  0  0
    7.7660   -0.5080    0.6810 N   0  0  0  0  0  0  0  0  0  0  0  0
    6.4240   -0.9420   -1.1530 O   0  0  0  0  0  0  0  0  0  0  0  0
   -2.5340    0.6350   -0.1210 C   0  0  2  0  0  0  0  0  0  0  0  0
   -3.3110    1.8880    0.2110 C   0  0  0  0  0  0  0  0  0  0  0  0
   -4.6790    1.6820    0.5400 N   0  0  0  0  0  0  0  0  0  0  0  0
   -2.9380    0.1160   -1.4510 C   0  0  0  0  0  0  0  0  0  0  0  0
   -2.1040   -0.8420   -2.0000 O   0  0  0  0  0  0  0  0  0  0  0  0
  1  2  1  0
  3  2  1  6
  3  4  1  0
  3 16  1  0
  4  5  1  0
  5  6  1  6
  5 16  1  0
  6  7  1  0
  7  8  1  0
  8  9  1  0
  9 10  2  0
  9 11  1  0
 11 12  1  0
 12 13  1  0
 13 14  1  0
 13 15  2  0
 16 17  1  1
 16 19  1  0
 17 18  1  0
 19 20  1  0
M  CHG  2   6   1  18   1
M  END
