
     RDKit          3D

 30 31  0  0  0  0  0  0  0  0999 V2000
    8.9590    1.0370   -2.7230 O   0  0  0  0  0  0  0  0  0  0  0  0
    7.6840    1.7920   -2.2090 P   0  0  0  0  0  0  0  0  0  0  0  0
    6.7530    1.1820   -0.7990 N   0  0  0  0  0  0  0  0  0  0  0  0
    5.4440    0.6470   -0.9270 C   0  0  0  0  0  0  0  0  0  0  0  0
    4.9070    0.5920   -2.0590 O   0  0  0  0  0  0  0  0  0  0  0  0
    4.7450    0.1600    0.3160 C   0  0  1  0  0  0  0  0  0  0  0  0
    3.4670   -0.3190    0.0310 O   0  0  0  0  0  0  0  0  0  0  0  0
    2.3850    0.3050    0.6000 N   0  0  0  0  0  0  0  0  0  0  0  0
    1.1870    0.0910    0.2100 C   0  0  0  0  0  0  0  0  0  0  0  0
    0.9880   -0.7800   -0.7960 N   0  0  0  0  0  0  0  0  0  0  0  0
   -0.2650   -0.9900   -1.1890 C   0  0  0  0  0  0  0  0  0  0  0  0
   -0.5000   -1.7990   -2.1310 O   0  0  0  0  0  0  0  0  0  0  0  0
   -1.2800   -0.3590   -0.6030 N   0  0  0  0  0  0  0  0  0  0  0  0
   -1.1360    0.5130    0.3990 C   0  0  0  0  0  0  0  0  0  0  0  0
    0.1670    0.7590    0.8370 C   0  0  0  0  0  0  0  0  0  0  0  0
    0.0220    1.6870    1.8630 O   0  0  0  0  0  0  0  0  0  0  0  0
   -1.1710    2.2900    1.7060 O   0  0  0  0  0  0  0  0  0  0  0  0
   -1.9800    1.3020    1.1920 N   0  0  0  0  0  0  0  0  0  0  0  0
   -3.3360    1.1790    1.4650 C   0  0  0  0  0  0  0  0  0  0  0  0
   -3.8290    2.0960    2.2540 O   0  0  0  0  0  0  0  0  0  0  0  0
   -4.3330    0.2110    1.0340 C   0  0  1  0  0  0  0  0  0  0  0  0
   -4.8200    0.5090   -0.3390 C   0  0  0  0  0  0  0  0  0  0  0  0
   -6.0830   -0.7170   -0.9330 P   0  0  0  0  0  0  0  0  0  0  0  0
   -7.2300    0.0830   -1.9230 O   0  0  0  0  0  0  0  0  0  0  0  0
   -6.8010   -1.5140    0.4270 O   0  0  0  0  0  0  0  0  0  0  0  0
   -3.8950   -1.5580    1.3470 P   0  0  0  0  0  0  0  0  0  0  0  0
   -4.0250   -2.6730    0.3030 O   0  0  0  0  0  0  0  0  0  0  0  0
    5.5210   -0.9800    0.8790 C   0  0  0  0  0  0  0  0  0  0  0  0
    6.7020   -0.7960    1.2160 O   0  0  0  0  0  0  0  0  0  0  0  0
    4.9690   -2.2420    1.0400 O   0  0  0  0  0  0  0  0  0  0  0  0
  1  2  2  0
  2  3  1  0
  3  4  1  0
  4  5  2  0
  4  6  1  0
  6  7  1  6
  6 28  1  0
  7  8  1  0
  8  9  2  3
  9 10  1  0
  9 15  1  0
 10 11  1  0
 11 12  2  0
 11 13  1  0
 13 14  1  0
 14 15  2  0
 14 18  1  0
 15 16  1  0
 16 17  1  0
 17 18  1  0
 18 19  1  0
 19 20  2  0
 19 21  1  0
 21 22  1  6
 21 26  1  0
 22 23  1  0
 23 24  1  0
 23 25  1  0
 26 27  2  0
 28 29  2  0
 28 30  1  0
M  END
