
     RDKit          3D

 31 32  0  0  0  0  0  0  0  0999 V2000
   -0.6140   -1.4040   -1.2380 N   0  0  0  0  0  0  0  0  0  0  0  0
   -1.3990   -0.8740   -0.3740 C   0  0  0  0  0  0  0  0  0  0  0  0
   -1.1980    0.4590    0.0410 N   0  0  0  0  0  0  0  0  0  0  0  0
   -0.3940    0.8510    1.1630 C   0  0  0  0  0  0  0  0  0  0  0  0
    1.0540    0.6100    0.8850 C   0  0  0  0  0  0  0  0  0  0  0  0
    1.8050   -0.2260    1.5200 N   0  0  0  0  0  0  0  0  0  0  0  0
    3.0950   -0.1920    1.0010 N   0  0  0  0  0  0  0  0  0  0  0  0
    4.1780   -1.0110    1.5000 C   0  0  1  0  0  0  0  0  0  0  0  0
    4.9150   -1.8190    0.4280 C   0  0  0  0  0  0  0  0  0  0  0  0
    6.0630   -1.5890    1.2630 O   0  0  0  0  0  0  0  0  0  0  0  0
    5.4930   -0.3530    1.5400 C   0  0  0  0  0  0  0  0  0  0  0  0
    6.0300    0.7660    1.7200 O   0  0  0  0  0  0  0  0  0  0  0  0
    3.1660    0.7470   -0.0570 C   0  0  0  0  0  0  0  0  0  0  0  0
    4.2080    0.9860   -0.7150 O   0  0  0  0  0  0  0  0  0  0  0  0
    1.7930    1.3280   -0.1720 C   0  0  1  0  0  0  0  0  0  0  0  0
    1.2580    1.0320   -1.4020 O   0  0  0  0  0  0  0  0  0  0  0  0
    1.1170    2.1670   -2.0860 O   0  0  0  0  0  0  0  0  0  0  0  0
    1.9610    2.0600   -3.6050 P   0  0  0  0  0  0  0  0  0  0  0  0
    2.8570    0.8150   -3.9370 O   0  0  0  0  0  0  0  0  0  0  0  0
   -1.8790    1.4720   -0.7860 C   0  0  0  0  0  0  0  0  0  0  0  0
   -1.6330    3.1690   -0.1070 P   0  0  0  0  0  0  0  0  0  0  0  0
   -3.1920    3.7610    0.3870 O   0  0  0  0  0  0  0  0  0  0  0  0
   -1.0960    4.1970   -1.4250 O   0  0  0  0  0  0  0  0  0  0  0  0
   -2.4630   -1.6360    0.1490 N   0  0  0  0  0  0  0  0  0  0  0  0
   -3.3840   -1.1560    1.1190 C   0  0  0  0  0  0  0  0  0  0  0  0
   -3.3020    0.0030    1.5690 O   0  0  0  0  0  0  0  0  0  0  0  0
   -4.4150   -1.9710    1.6020 O   0  0  0  0  0  0  0  0  0  0  0  0
   -5.2450   -1.4710    2.5080 O   0  0  0  0  0  0  0  0  0  0  0  0
   -2.6820   -3.3420   -0.4650 P   0  0  0  0  0  0  0  0  0  0  0  0
   -4.2450   -3.3690   -1.2470 O   0  0  0  0  0  0  0  0  0  0  0  0
   -2.6830   -4.3710    0.9320 O   0  0  0  0  0  0  0  0  0  0  0  0
  1  2  2  0
  2  3  1  0
  2 24  1  0
  3  4  1  0
  3 20  1  0
  4  5  1  0
  5  6  2  0
  5 15  1  0
  6  7  1  0
  8  7  1  6
  7 13  1  0
  8  9  1  0
  8 11  1  0
  9 10  1  0
 10 11  1  0
 11 12  2  0
 13 14  2  0
 13 15  1  0
 15 16  1  6
 16 17  1  0
 17 18  1  0
 18 19  2  0
 20 21  1  0
 21 22  1  0
 21 23  1  0
 24 25  1  0
 24 29  1  0
 25 26  2  0
 25 27  1  0
 27 28  1  0
 29 30  1  0
 29 31  1  0
M  END
