
     RDKit          3D

 30 31  0  0  0  0  0  0  0  0999 V2000
   -8.4300    1.6760    2.0130 O   0  0  0  0  0  0  0  0  0  0  0  0
   -8.6480    0.6970    1.2360 C   0  0  0  0  0  0  0  0  0  0  0  0
   -9.9530    0.2820    1.0390 O   0  0  0  0  0  0  0  0  0  0  0  0
   -7.6000    0.0130    0.5600 N   0  0  0  0  0  0  0  0  0  0  0  0
   -6.2640    0.4370    0.7610 C   0  0  0  0  0  0  0  0  0  0  0  0
   -5.9620    1.3990    1.5160 O   0  0  0  0  0  0  0  0  0  0  0  0
   -5.1880   -0.2700    0.0630 C   0  0  0  0  0  0  0  0  0  0  0  0
   -3.9000    0.2850    0.3770 O   0  0  0  0  0  0  0  0  0  0  0  0
   -2.7500   -0.2400   -0.1790 C   0  0  0  0  0  0  0  0  0  0  0  0
   -2.8100   -1.1980   -0.9580 O   0  0  0  0  0  0  0  0  0  0  0  0
   -1.4530    0.2750    0.1010 N   0  0  0  0  0  0  0  0  0  0  0  0
   -0.2230   -0.2040   -0.4280 C   0  0  2  0  0  0  0  0  0  0  0  0
   -0.0390   -1.9810    0.1630 P   0  0  0  0  0  0  0  0  0  0  0  0
   -0.7760   -2.1720    1.7270 O   0  0  0  0  0  0  0  0  0  0  0  0
   -0.8500   -3.0650   -0.9230 O   0  0  0  0  0  0  0  0  0  0  0  0
    0.8940    0.6190    0.1410 C   0  0  0  0  0  0  0  0  0  0  0  0
    2.0870    0.6370   -0.6350 N   0  0  0  0  0  0  0  0  0  0  0  0
    3.1410    1.5470   -0.2940 C   0  0  0  0  0  0  0  0  0  0  0  0
    4.4600    0.7860   -0.4880 C   0  0  1  0  0  0  0  0  0  0  0  0
    4.3530   -0.3960    0.2530 O   0  0  0  0  0  0  0  0  0  0  0  0
    5.6190   -0.5570    1.4180 P   0  0  0  0  0  0  0  0  0  0  0  0
    5.8620    0.9330    2.2940 O   0  0  0  0  0  0  0  0  0  0  0  0
    7.4510   -1.1660    0.3810 P   0  0  0  0  0  0  0  0  0  0  0  0
    7.7600   -0.0890   -0.9440 O   0  0  0  0  0  0  0  0  0  0  0  0
    8.8070   -1.1280    1.4850 O   0  0  0  0  0  0  0  0  0  0  0  0
    4.4970    0.3840   -1.8640 O   0  0  0  0  0  0  0  0  0  0  0  0
    3.3890   -0.3350   -2.3050 N   0  0  0  0  0  0  0  0  0  0  0  0
    2.2580   -0.2250   -1.7390 C   0  0  0  0  0  0  0  0  0  0  0  0
    1.0800   -0.9880   -2.2060 C   0  0  0  0  0  0  0  0  0  0  0  0
   -0.1490   -0.2500   -1.8640 N   0  0  0  0  0  0  0  0  0  0  0  0
  1  2  2  0
  2  3  1  0
  2  4  1  0
  4  5  1  0
  5  6  2  0
  5  7  1  0
  7  8  1  0
  8  9  1  0
  9 10  2  0
  9 11  1  0
 12 11  1  6
 12 13  1  0
 12 16  1  0
 12 30  1  0
 13 14  1  0
 13 15  1  0
 16 17  1  0
 17 18  1  0
 17 28  1  0
 18 19  1  0
 19 20  1  1
 19 26  1  0
 20 21  1  0
 21 22  1  0
 21 23  1  0
 23 24  1  0
 23 25  1  0
 26 27  1  0
 27 28  2  0
 28 29  1  0
 29 30  1  0
M  END
