
     RDKit          3D

 30 32  0  0  0  0  0  0  0  0999 V2000
    1.2550   -0.9580    2.1990 C   0  0  0  0  0  0  0  0  0  0  0  0
    1.4890    0.2440    1.3180 C   0  0  1  0  0  0  0  0  0  0  0  0
    0.3330    1.0020    1.1040 O   0  0  0  0  0  0  0  0  0  0  0  0
   -0.8200    0.5490    0.5200 C   0  0  0  0  0  0  0  0  0  0  0  0
   -0.8460   -0.6500    0.1420 O   0  0  0  0  0  0  0  0  0  0  0  0
   -2.0330    1.3700    0.3030 C   0  0  0  0  0  0  0  0  0  0  0  0
   -3.0940    0.6470   -0.3290 N   0  0  0  0  0  0  0  0  0  0  0  0
   -3.3520    0.5160   -1.7080 C   0  0  0  0  0  0  0  0  0  0  0  0
   -2.6910    1.0140   -2.6710 O   0  0  0  0  0  0  0  0  0  0  0  0
   -4.5200   -0.2970   -1.9090 N   0  0  0  0  0  0  0  0  0  0  0  0
   -4.9540   -0.6460   -0.6440 N   0  0  0  0  0  0  0  0  0  0  0  0
   -4.1180   -0.0960    0.3610 C   0  0  0  0  0  0  0  0  0  0  0  0
   -4.3730   -0.3180    1.5850 N   0  0  0  0  0  0  0  0  0  0  0  0
   -5.3860   -1.0510    2.1910 C   0  0  0  0  0  0  0  0  0  0  0  0
   -5.4550   -1.1450    3.4770 O   0  0  0  0  0  0  0  0  0  0  0  0
   -6.3940   -1.7340    1.5320 O   0  0  0  0  0  0  0  0  0  0  0  0
   -6.3900   -1.6690   -0.2240 P   0  0  0  0  0  0  0  0  0  0  0  0
   -7.8590   -0.8270   -0.6900 O   0  0  0  0  0  0  0  0  0  0  0  0
    2.4890    1.1060    2.0030 C   0  0  0  0  0  0  0  0  0  0  0  0
    2.3270    2.0640    2.8000 O   0  0  0  0  0  0  0  0  0  0  0  0
    3.7660    0.6410    1.5830 N   0  0  0  0  0  0  0  0  0  0  0  0
    3.5920   -0.4890    0.6610 C   0  0  0  0  0  0  0  0  0  0  0  0
    2.2200   -0.1410    0.0770 C   0  0  1  0  0  0  0  0  0  0  0  0
    1.7010   -1.2500   -0.5660 O   0  0  0  0  0  0  0  0  0  0  0  0
    2.4040    0.9490   -0.7520 O   0  0  0  0  0  0  0  0  0  0  0  0
    3.2380    0.5780   -2.1980 P   0  0  0  0  0  0  0  0  0  0  0  0
    2.3010    1.0330   -3.6030 O   0  0  0  0  0  0  0  0  0  0  0  0
    5.2320    1.4550   -2.3010 P   0  0  0  0  0  0  0  0  0  0  0  0
    6.4190    0.1980   -2.5910 O   0  0  0  0  0  0  0  0  0  0  0  0
    5.6460    2.1610   -0.7590 O   0  0  0  0  0  0  0  0  0  0  0  0
  2  1  1  1
  2  3  1  0
  2 19  1  0
  2 23  1  0
  3  4  1  0
  4  5  2  0
  4  6  1  0
  6  7  1  0
  7  8  1  0
  7 12  1  0
  8  9  2  0
  8 10  1  0
 10 11  1  0
 11 12  1  0
 11 17  1  0
 12 13  2  0
 13 14  1  0
 14 15  2  0
 14 16  1  0
 16 17  1  0
 17 18  1  0
 19 20  2  0
 19 21  1  0
 21 22  1  0
 22 23  1  0
 23 24  1  6
 23 25  1  0
 25 26  1  0
 26 27  1  0
 26 28  1  0
 28 29  1  0
 28 30  1  0
M  END
