
     RDKit          3D

 20 22  0  0  0  0  0  0  0  0999 V2000
    6.2110   -0.8330    0.7700 C   0  0  0  0  0  0  0  0  0  0  0  0
    5.0220    0.4720    1.1660 S   0  0  0  0  0  0  0  0  0  0  0  0
    3.3210   -0.1280    1.1350 C   0  0  0  0  0  0  0  0  0  0  0  0
    2.8500   -0.5320   -0.2280 C   0  0  1  0  0  0  0  0  0  0  0  0
    1.4170   -1.0030   -0.0720 C   0  0  0  0  0  0  0  0  0  0  0  0
    0.6170    0.2090   -0.0940 N   0  0  2  0  0  0  0  0  0  0  0  0
   -0.5880    0.0390   -0.8670 C   0  0  0  0  0  0  0  0  0  0  0  0
   -1.7970    0.0010   -0.0290 C   0  0  0  0  0  0  0  0  0  0  0  0
   -1.9750    0.0860    1.3150 C   0  0  0  0  0  0  0  0  0  0  0  0
   -3.2900    0.0010    1.6320 N   0  0  0  0  0  0  0  0  0  0  0  0
   -3.9730   -0.1410    0.4900 C   0  0  0  0  0  0  0  0  0  0  0  0
   -5.3260   -0.2680    0.2560 C   0  0  0  0  0  0  0  0  0  0  0  0
   -6.2670   -0.2650    1.3110 N   0  0  0  0  0  0  0  0  0  0  0  0
   -5.7500   -0.3970   -1.0260 N   0  0  0  0  0  0  0  0  0  0  0  0
   -4.8730   -0.4010   -2.0470 C   0  0  0  0  0  0  0  0  0  0  0  0
   -3.5570   -0.2770   -1.8250 N   0  0  0  0  0  0  0  0  0  0  0  0
   -3.0830   -0.1460   -0.5780 C   0  0  0  0  0  0  0  0  0  0  0  0
    1.4260    1.2980   -0.5420 C   0  0  0  0  0  0  0  0  0  0  0  0
    2.6420    0.6730   -1.1360 C   0  0  2  0  0  0  0  0  0  0  0  0
    2.3130    0.2370   -2.4160 O   0  0  0  0  0  0  0  0  0  0  0  0
  1  2  1  0
  2  3  1  0
  4  3  1  1
  4  5  1  0
  4 19  1  0
  5  6  1  0
  6  7  1  6
  6 18  1  0
  7  8  1  0
  8  9  2  0
  8 17  1  0
  9 10  1  0
 10 11  1  0
 11 12  2  0
 11 17  1  0
 12 13  1  0
 12 14  1  0
 14 15  2  0
 15 16  1  0
 16 17  2  0
 18 19  1  0
 19 20  1  6
M  CHG  1   6   1
M  END
