
     RDKit          3D

 28 31  0  0  0  0  0  0  0  0999 V2000
    8.7970   -0.9790   -0.6460 C   0  0  0  0  0  0  0  0  0  0  0  0
    7.4190   -1.0340   -0.7700 O   0  0  0  0  0  0  0  0  0  0  0  0
    6.5340   -0.4130    0.0760 C   0  0  0  0  0  0  0  0  0  0  0  0
    6.9510    0.3250    1.1470 C   0  0  0  0  0  0  0  0  0  0  0  0
    6.0520    0.9560    1.9930 C   0  0  0  0  0  0  0  0  0  0  0  0
    4.6950    0.8410    1.7570 C   0  0  0  0  0  0  0  0  0  0  0  0
    3.7270    1.4530    2.5330 C   0  0  0  0  0  0  0  0  0  0  0  0
    2.3700    1.3400    2.2540 C   0  0  0  0  0  0  0  0  0  0  0  0
    1.9550    0.5840    1.1590 C   0  0  0  0  0  0  0  0  0  0  0  0
    0.5850    0.5410    0.8830 N   0  0  0  0  0  0  0  0  0  0  0  0
   -0.0720   -0.3990    0.0380 C   0  0  0  0  0  0  0  0  0  0  0  0
    0.5710   -1.3500   -0.5040 O   0  0  0  0  0  0  0  0  0  0  0  0
   -1.4920   -0.3040   -0.2300 N   0  0  0  0  0  0  0  0  0  0  0  0
   -2.0830   -1.3020   -1.0580 C   0  0  0  0  0  0  0  0  0  0  0  0
   -3.4840   -0.9610   -1.4670 C   0  0  0  0  0  0  0  0  0  0  0  0
   -3.8130   -0.9790   -2.8120 C   0  0  0  0  0  0  0  0  0  0  0  0
   -5.1270   -0.7490   -3.1540 C   0  0  0  0  0  0  0  0  0  0  0  0
   -6.0620   -0.5160   -2.1560 C   0  0  0  0  0  0  0  0  0  0  0  0
   -7.3910   -0.2920   -2.5230 O   0  0  0  0  0  0  0  0  0  0  0  0
   -5.7240   -0.4960   -0.8120 C   0  0  0  0  0  0  0  0  0  0  0  0
   -4.4140   -0.7220   -0.4810 C   0  0  0  0  0  0  0  0  0  0  0  0
   -4.3070   -0.6460    0.9440 O   0  0  0  0  0  0  0  0  0  0  0  0
   -5.3100    0.3530    1.2700 C   0  0  1  0  0  0  0  0  0  0  0  0
   -4.9670    1.6090    0.5230 C   0  0  0  0  0  0  0  0  0  0  0  0
   -6.4650   -0.2830    0.4590 C   0  0  0  0  0  0  0  0  0  0  0  0
    2.9040   -0.0280    0.3850 C   0  0  0  0  0  0  0  0  0  0  0  0
    4.2690    0.0880    0.6690 C   0  0  0  0  0  0  0  0  0  0  0  0
    5.1610   -0.5400   -0.1740 C   0  0  0  0  0  0  0  0  0  0  0  0
  1  2  1  0
  2  3  1  0
  3  4  2  0
  3 28  1  0
  4  5  1  0
  5  6  2  0
  6  7  1  0
  6 27  1  0
  7  8  2  0
  8  9  1  0
  9 10  1  0
  9 26  2  0
 10 11  1  0
 11 12  2  0
 11 13  1  0
 13 14  1  0
 14 15  1  0
 15 16  2  0
 15 21  1  0
 16 17  1  0
 17 18  2  0
 18 19  1  0
 18 20  1  0
 20 21  2  0
 20 25  1  0
 21 22  1  0
 22 23  1  0
 23 24  1  6
 23 25  1  0
 26 27  1  0
 27 28  2  0
M  END
