
     RDKit          3D

 28 31  0  0  0  0  0  0  0  0999 V2000
    3.3760   -1.7460    0.1730 C   0  0  0  0  0  0  0  0  0  0  0  0
    3.3380   -0.1900    0.3520 C   0  0  1  0  0  0  0  0  0  0  0  0
    2.8800   -0.0840    1.8090 C   0  0  0  0  0  0  0  0  0  0  0  0
    4.7610    0.2540    0.2290 C   0  0  0  0  0  0  0  0  0  0  0  0
    5.4640   -0.0250   -1.0380 C   0  0  0  0  0  0  0  0  0  0  0  0
    5.6030   -1.3320   -1.4210 O   0  0  0  0  0  0  0  0  0  0  0  0
    2.4150    0.4120   -0.6450 C   0  0  0  0  0  0  0  0  0  0  0  0
    0.9960    0.0890   -0.5730 C   0  0  0  0  0  0  0  0  0  0  0  0
    0.5440   -1.0880   -1.0910 N   0  0  0  0  0  0  0  0  0  0  0  0
   -0.7130   -1.4910   -0.9810 C   0  0  0  0  0  0  0  0  0  0  0  0
   -1.0970   -2.5720   -1.4620 O   0  0  0  0  0  0  0  0  0  0  0  0
   -1.7170   -0.7350   -0.3130 C   0  0  0  0  0  0  0  0  0  0  0  0
   -3.0550   -1.1900   -0.4340 C   0  0  1  0  0  0  0  0  0  0  0  0
   -3.3650   -0.7630   -1.9850 C   0  0  0  0  0  0  0  0  0  0  0  0
   -4.6630   -1.4900   -2.1250 C   0  0  0  0  0  0  0  0  0  0  0  0
   -4.8120   -2.3740   -1.0370 O   0  0  0  0  0  0  0  0  0  0  0  0
   -3.4270   -2.6070   -0.6410 C   0  0  0  0  0  0  0  0  0  0  0  0
   -1.2800    0.4400    0.2260 C   0  0  0  0  0  0  0  0  0  0  0  0
    0.0790    0.8470    0.0820 C   0  0  0  0  0  0  0  0  0  0  0  0
    0.4590    2.0610    0.5920 C   0  0  0  0  0  0  0  0  0  0  0  0
    1.6710    2.4400    0.4500 O   0  0  0  0  0  0  0  0  0  0  0  0
   -0.3930    2.8730    1.2370 N   0  0  0  0  0  0  0  0  0  0  0  0
   -1.6710    2.4870    1.4030 C   0  0  0  0  0  0  0  0  0  0  0  0
   -2.5140    3.2620    2.1800 C   0  0  0  0  0  0  0  0  0  0  0  0
   -3.7880    2.8560    2.4880 C   0  0  0  0  0  0  0  0  0  0  0  0
   -4.2230    1.6430    2.0080 C   0  0  0  0  0  0  0  0  0  0  0  0
   -3.4010    0.8500    1.2260 C   0  0  0  0  0  0  0  0  0  0  0  0
   -2.1440    1.2730    0.9150 C   0  0  0  0  0  0  0  0  0  0  0  0
  2  1  1  6
  2  3  1  0
  2  4  1  0
  2  7  1  0
  4  5  1  0
  5  6  1  0
  7  8  1  0
  8  9  1  0
  8 19  2  0
  9 10  1  0
 10 11  2  0
 10 12  1  0
 13 12  1  6
 12 18  2  0
 13 14  1  0
 13 17  1  0
 14 15  1  0
 15 16  1  0
 16 17  1  0
 18 19  1  0
 18 28  1  0
 19 20  1  0
 20 21  2  0
 20 22  1  0
 22 23  1  0
 23 24  2  0
 23 28  1  0
 24 25  1  0
 25 26  2  0
 26 27  1  0
 27 28  2  0
M  END
