
     RDKit          3D

 28 31  0  0  0  0  0  0  0  0999 V2000
    8.0220   -0.7940   -1.0020 C   0  0  0  0  0  0  0  0  0  0  0  0
    7.5100   -1.3420    0.1650 O   0  0  0  0  0  0  0  0  0  0  0  0
    6.9200   -0.3870    0.9830 C   0  0  0  0  0  0  0  0  0  0  0  0
    5.7870    0.3090    0.3060 C   0  0  0  0  0  0  0  0  0  0  0  0
    6.0830    1.4470   -0.4060 C   0  0  0  0  0  0  0  0  0  0  0  0
    5.0270    2.0710   -1.0210 C   0  0  0  0  0  0  0  0  0  0  0  0
    3.7230    1.5730   -0.9250 C   0  0  0  0  0  0  0  0  0  0  0  0
    3.4470    0.4420   -0.2130 C   0  0  0  0  0  0  0  0  0  0  0  0
    2.1400   -0.0720   -0.0870 N   0  0  0  0  0  0  0  0  0  0  0  0
    0.9290    0.5520   -0.4250 C   0  0  0  0  0  0  0  0  0  0  0  0
    0.9090    1.6980   -0.8950 O   0  0  0  0  0  0  0  0  0  0  0  0
   -0.3320   -0.1630   -0.2190 C   0  0  1  0  0  0  0  0  0  0  0  0
   -0.6190   -0.4650    1.2320 C   0  0  0  0  0  0  0  0  0  0  0  0
   -2.1190   -0.5890    1.1970 C   0  0  0  0  0  0  0  0  0  0  0  0
   -2.9980   -1.2030    2.0520 C   0  0  0  0  0  0  0  0  0  0  0  0
   -4.3720   -1.1870    1.8090 C   0  0  0  0  0  0  0  0  0  0  0  0
   -5.3090   -1.8510    2.7370 C   0  0  0  0  0  0  0  0  0  0  0  0
   -4.8570   -0.5350    0.6780 C   0  0  0  0  0  0  0  0  0  0  0  0
   -6.2000   -0.5080    0.4230 C   0  0  0  0  0  0  0  0  0  0  0  0
   -7.0020   -1.0660    1.2000 O   0  0  0  0  0  0  0  0  0  0  0  0
   -6.6190    0.1420   -0.6950 N   0  0  0  0  0  0  0  0  0  0  0  0
   -5.7650    0.7470   -1.5390 C   0  0  0  0  0  0  0  0  0  0  0  0
   -6.2600    1.4560   -2.7640 C   0  0  0  0  0  0  0  0  0  0  0  0
   -4.4050    0.7350   -1.3050 C   0  0  0  0  0  0  0  0  0  0  0  0
   -3.9380    0.0810   -0.1740 C   0  0  0  0  0  0  0  0  0  0  0  0
   -2.5810    0.0600    0.0730 C   0  0  0  0  0  0  0  0  0  0  0  0
   -1.4660    0.5860   -0.6010 O   0  0  0  0  0  0  0  0  0  0  0  0
    4.5200   -0.1900    0.4090 C   0  0  0  0  0  0  0  0  0  0  0  0
  1  2  1  0
  2  3  1  0
  3  4  1  0
  4  5  2  0
  4 28  1  0
  5  6  1  0
  6  7  2  0
  7  8  1  0
  8  9  1  0
  8 28  2  0
  9 10  1  0
 10 11  2  0
 12 10  1  1
 12 13  1  0
 12 27  1  0
 13 14  1  0
 14 15  2  0
 14 26  1  0
 15 16  1  0
 16 17  1  0
 16 18  2  0
 18 19  1  0
 18 25  1  0
 19 20  2  0
 19 21  1  0
 21 22  1  0
 22 23  1  0
 22 24  2  0
 24 25  1  0
 25 26  2  0
 26 27  1  0
M  END
