
     RDKit          3D

 28 31  0  0  0  0  0  0  0  0999 V2000
   -1.0650    0.6110   -0.6610 O   0  0  0  0  0  0  0  0  0  0  0  0
   -1.2480    0.1470   -1.7950 C   0  0  0  0  0  0  0  0  0  0  0  0
   -2.3940    0.7250   -2.4320 O   0  0  0  0  0  0  0  0  0  0  0  0
   -3.1910    1.6910   -1.8300 C   0  0  1  0  0  0  0  0  0  0  0  0
   -3.2470    3.0130   -2.5570 C   0  0  0  0  0  0  0  0  0  0  0  0
   -3.7680    4.0160   -1.5330 C   0  0  0  0  0  0  0  0  0  0  0  0
   -5.0970    3.6480   -0.9740 C   0  0  0  0  0  0  0  0  0  0  0  0
   -5.3250    2.1990   -0.7150 C   0  0  0  0  0  0  0  0  0  0  0  0
   -4.6180    1.2510   -1.6220 C   0  0  0  0  0  0  0  0  0  0  0  0
   -0.4850   -0.8520   -2.5060 C   0  0  0  0  0  0  0  0  0  0  0  0
   -0.9150   -1.2620   -3.7820 C   0  0  0  0  0  0  0  0  0  0  0  0
   -0.2700   -2.2320   -4.5080 C   0  0  0  0  0  0  0  0  0  0  0  0
    0.8460   -2.8440   -3.9880 C   0  0  0  0  0  0  0  0  0  0  0  0
    1.2780   -2.4480   -2.7350 C   0  0  0  0  0  0  0  0  0  0  0  0
    0.6290   -1.4610   -1.9860 C   0  0  0  0  0  0  0  0  0  0  0  0
    1.1380   -1.0230   -0.7340 N   0  0  0  0  0  0  0  0  0  0  0  0
    2.0690   -1.7440    0.0270 C   0  0  0  0  0  0  0  0  0  0  0  0
    2.4850   -2.8810   -0.4080 O   0  0  0  0  0  0  0  0  0  0  0  0
    2.6340   -1.3140    1.3210 C   0  0  0  0  0  0  0  0  0  0  0  0
    3.2600   -2.2660    2.1190 C   0  0  0  0  0  0  0  0  0  0  0  0
    3.7690   -1.8900    3.3350 C   0  0  0  0  0  0  0  0  0  0  0  0
    3.6590   -0.6010    3.7470 C   0  0  0  0  0  0  0  0  0  0  0  0
    3.0590    0.3310    2.9910 N   0  0  0  0  0  0  0  0  0  0  0  0
    2.5470   -0.0370    1.7710 C   0  0  0  0  0  0  0  0  0  0  0  0
    2.0050    0.9090    1.1330 O   0  0  0  0  0  0  0  0  0  0  0  0
    4.2860   -0.4150    5.0990 C   0  0  0  0  0  0  0  0  0  0  0  0
    5.1120   -1.6700    5.2790 C   0  0  0  0  0  0  0  0  0  0  0  0
    4.4700   -2.6920    4.3610 C   0  0  0  0  0  0  0  0  0  0  0  0
  1  2  2  0
  2  3  1  0
  2 10  1  0
  4  3  1  6
  4  5  1  0
  4  9  1  0
  5  6  1  0
  6  7  1  0
  7  8  1  0
  8  9  1  0
 10 11  2  0
 10 15  1  0
 11 12  1  0
 12 13  2  0
 13 14  1  0
 14 15  2  0
 15 16  1  0
 16 17  1  0
 17 18  2  0
 17 19  1  0
 19 20  2  0
 19 24  1  0
 20 21  1  0
 21 22  2  0
 21 28  1  0
 22 23  1  0
 22 26  1  0
 23 24  1  0
 24 25  2  0
 26 27  1  0
 27 28  1  0
M  END
