
     RDKit          3D

 26 27  0  0  0  0  0  0  0  0999 V2000
    9.2130   -0.8310    0.9370 C   0  0  0  0  0  0  0  0  0  0  0  0
    7.7240   -1.0400    0.7060 C   0  0  0  0  0  0  0  0  0  0  0  0
    7.1280    0.3090    0.3760 C   0  0  1  0  0  0  0  0  0  0  0  0
    7.7660    0.8730   -0.8520 C   0  0  0  0  0  0  0  0  0  0  0  0
    5.7130    0.2460    0.2990 O   0  0  0  0  0  0  0  0  0  0  0  0
    4.8970    0.9130    1.1800 C   0  0  0  0  0  0  0  0  0  0  0  0
    5.3690    1.6150    2.1020 O   0  0  0  0  0  0  0  0  0  0  0  0
    3.4220    0.8120    1.0540 C   0  0  0  0  0  0  0  0  0  0  0  0
    3.0050   -0.2280   -0.3460 S   0  0  0  0  0  0  0  0  0  0  0  0
    1.2250   -0.3790   -0.5240 C   0  0  0  0  0  0  0  0  0  0  0  0
    0.5800   -1.0520   -1.4390 C   0  0  0  0  0  0  0  0  0  0  0  0
   -0.8690   -0.9240   -1.2400 C   0  0  0  0  0  0  0  0  0  0  0  0
   -1.0810   -0.1700   -0.2000 C   0  0  0  0  0  0  0  0  0  0  0  0
   -2.6700    0.3030    0.4780 S   0  0  0  0  0  0  0  0  0  0  0  0
   -3.9720   -0.4060   -0.5060 C   0  0  0  0  0  0  0  0  0  0  0  0
   -3.7780   -1.1280   -1.5470 N   0  0  0  0  0  0  0  0  0  0  0  0
   -4.8840   -1.6460   -2.2620 C   0  0  0  0  0  0  0  0  0  0  0  0
   -4.7530   -2.1710   -3.4170 O   0  0  0  0  0  0  0  0  0  0  0  0
   -6.2540   -1.5980   -1.6870 C   0  0  0  0  0  0  0  0  0  0  0  0
   -6.3620   -0.2200   -1.0410 C   0  0  1  0  0  0  0  0  0  0  0  0
   -7.7520    0.0160   -0.5050 C   0  0  0  0  0  0  0  0  0  0  0  0
   -5.3220   -0.1180   -0.0600 N   0  0  0  0  0  0  0  0  0  0  0  0
   -5.5160    0.2530    1.3200 C   0  0  0  0  0  0  0  0  0  0  0  0
   -5.9130    1.6920    1.5190 C   0  0  0  0  0  0  0  0  0  0  0  0
   -4.9780    2.5780    1.0330 O   0  0  0  0  0  0  0  0  0  0  0  0
    0.2460    0.2480    0.3540 C   0  0  0  0  0  0  0  0  0  0  0  0
  1  2  1  0
  2  3  1  0
  3  4  1  6
  3  5  1  0
  5  6  1  0
  6  7  2  0
  6  8  1  0
  8  9  1  0
  9 10  1  0
 10 11  2  0
 10 26  1  0
 11 12  1  0
 12 13  2  0
 13 14  1  0
 13 26  1  0
 14 15  1  0
 15 16  2  0
 15 22  1  0
 16 17  1  0
 17 18  2  0
 17 19  1  0
 19 20  1  0
 20 21  1  1
 20 22  1  0
 22 23  1  0
 23 24  1  0
 24 25  1  0
M  END
