
     RDKit          3D

 26 27  0  0  0  0  0  0  0  0999 V2000
   -4.2680   -2.7720   -0.9680 C   0  0  0  0  0  0  0  0  0  0  0  0
   -2.9140   -2.0370   -0.7490 C   0  0  0  0  0  0  0  0  0  0  0  0
   -3.1950   -0.5890   -0.6980 C   0  0  1  0  0  0  0  0  0  0  0  0
   -4.1800   -0.2760    0.4480 C   0  0  0  0  0  0  0  0  0  0  0  0
   -4.0830    1.1850    0.6570 C   0  0  2  0  0  0  0  0  0  0  0  0
   -5.3170    1.9660    0.3150 C   0  0  2  0  0  0  0  0  0  0  0  0
   -6.5130    1.5390    1.1390 C   0  0  0  0  0  0  0  0  0  0  0  0
   -5.7160    1.9030   -1.1300 C   0  0  0  0  0  0  0  0  0  0  0  0
   -2.8720    1.6090   -0.1030 C   0  0  0  0  0  0  0  0  0  0  0  0
   -2.1270    0.2710   -0.3540 N   0  0  0  0  0  0  0  0  0  0  0  0
   -0.7520    0.3040   -0.1860 C   0  0  0  0  0  0  0  0  0  0  0  0
   -0.3670    1.5420    0.1840 O   0  0  0  0  0  0  0  0  0  0  0  0
    0.3190   -0.6430   -0.3120 C   0  0  0  0  0  0  0  0  0  0  0  0
    0.4590   -1.9000   -0.6310 C   0  0  0  0  0  0  0  0  0  0  0  0
    1.8250   -2.3360   -0.5860 N   0  0  0  0  0  0  0  0  0  0  0  0
    2.6010   -1.3860   -0.2400 C   0  0  0  0  0  0  0  0  0  0  0  0
    4.3870   -1.4300   -0.0400 S   0  0  0  0  0  0  0  0  0  0  0  0
    4.9510    0.2260    0.4680 C   0  0  0  0  0  0  0  0  0  0  0  0
    6.3980    0.2870    0.6590 C   0  0  0  0  0  0  0  0  0  0  0  0
    6.9270    1.3190    0.9990 O   0  0  0  0  0  0  0  0  0  0  0  0
    7.3960   -1.1580    0.3930 S   0  0  0  0  0  0  0  0  0  0  0  0
    9.1230   -0.7630    0.7110 C   0  0  0  0  0  0  0  0  0  0  0  0
    9.5610    0.2390   -0.3650 C   0  0  0  0  0  0  0  0  0  0  0  0
   10.8900    0.5340   -0.1090 O   0  0  0  0  0  0  0  0  0  0  0  0
    1.7330   -0.2350   -0.0350 C   0  0  0  0  0  0  0  0  0  0  0  0
    2.1720    0.8780    0.3140 O   0  0  0  0  0  0  0  0  0  0  0  0
  1  2  1  0
  3  2  1  1
  3  4  1  0
  3 10  1  0
  5  4  1  6
  5  6  1  0
  5  9  1  0
  6  7  1  1
  6  8  1  0
  9 10  1  0
 10 11  1  0
 11 12  2  0
 11 13  1  0
 13 14  2  0
 13 25  1  0
 14 15  1  0
 15 16  2  0
 16 17  1  0
 16 25  1  0
 17 18  1  0
 18 19  1  0
 19 20  2  0
 19 21  1  0
 21 22  1  0
 22 23  1  0
 23 24  1  0
 25 26  2  0
M  END
