
     RDKit          3D

 26 28  0  0  0  0  0  0  0  0999 V2000
   -4.7690    1.9010   -1.3200 C   0  0  0  0  0  0  0  0  0  0  0  0
   -3.6600    1.1320   -0.6520 C   0  0  2  0  0  0  0  0  0  0  0  0
   -2.3150    1.5850   -1.2000 C   0  0  0  0  0  0  0  0  0  0  0  0
   -3.8460   -0.6250   -0.9100 S   0  0  1  0  0  0  0  0  0  0  0  0
   -5.1990   -0.9900   -0.3150 O   0  0  0  0  0  0  0  0  0  0  0  0
   -3.9250   -0.9500   -2.3640 O   0  0  0  0  0  0  0  0  0  0  0  0
   -2.5750   -1.4780   -0.1090 N   0  0  0  0  0  0  0  0  0  0  0  0
   -2.6640   -1.2170    1.2850 C   0  0  1  0  0  0  0  0  0  0  0  0
   -2.7480   -2.4790    2.1260 C   0  0  0  0  0  0  0  0  0  0  0  0
   -2.1110   -2.2380    3.3110 O   0  0  0  0  0  0  0  0  0  0  0  0
   -1.6540   -0.9470    3.3440 C   0  0  0  0  0  0  0  0  0  0  0  0
   -1.3700   -0.6210    1.8650 C   0  0  1  0  0  0  0  0  0  0  0  0
   -0.2630   -1.3700    1.4690 O   0  0  0  0  0  0  0  0  0  0  0  0
    0.9020   -0.8770    0.8940 C   0  0  0  0  0  0  0  0  0  0  0  0
    1.1260    0.4530    0.6330 C   0  0  0  0  0  0  0  0  0  0  0  0
    2.2990    0.8660    0.0630 C   0  0  0  0  0  0  0  0  0  0  0  0
    3.3100   -0.0050   -0.2770 C   0  0  0  0  0  0  0  0  0  0  0  0
    4.5470    0.4240   -0.8770 C   0  0  0  0  0  0  0  0  0  0  0  0
    5.0440    1.6490   -1.2460 C   0  0  0  0  0  0  0  0  0  0  0  0
    6.2520    1.7220   -1.7890 C   0  0  0  0  0  0  0  0  0  0  0  0
    7.0280    0.6310   -1.9990 C   0  0  0  0  0  0  0  0  0  0  0  0
    8.2830    0.3990   -2.5250 C   0  0  0  0  0  0  0  0  0  0  0  0
    9.3370    0.1830   -2.9680 N   0  0  0  0  0  0  0  0  0  0  0  0
    5.9070   -0.6910   -1.3420 S   0  0  0  0  0  0  0  0  0  0  0  0
    3.0900   -1.3450   -0.0160 C   0  0  0  0  0  0  0  0  0  0  0  0
    1.9170   -1.7790    0.5550 C   0  0  0  0  0  0  0  0  0  0  0  0
  2  1  1  6
  2  3  1  0
  2  4  1  0
  4  5  2  0
  4  6  2  0
  4  7  1  1
  8  7  1  6
  8  9  1  0
  8 12  1  0
  9 10  1  0
 10 11  1  0
 11 12  1  0
 12 13  1  6
 13 14  1  0
 14 15  2  0
 14 26  1  0
 15 16  1  0
 16 17  2  0
 17 18  1  0
 17 25  1  0
 18 19  2  0
 18 24  1  0
 19 20  1  0
 20 21  2  0
 21 22  1  0
 21 24  1  0
 22 23  3  0
 25 26  2  0
M  END
