
     RDKit          3D

 26 27  0  0  0  0  0  0  0  0999 V2000
   -4.3350    0.6260    0.7670 C   0  0  0  0  0  0  0  0  0  0  0  0
   -3.2070    0.0270    0.3690 C   0  0  0  0  0  0  0  0  0  0  0  0
   -2.3080    0.7750   -0.4320 C   0  0  0  0  0  0  0  0  0  0  0  0
   -1.1560    0.4350   -0.9460 C   0  0  0  0  0  0  0  0  0  0  0  0
   -0.4830   -0.8360   -0.8230 C   0  0  0  0  0  0  0  0  0  0  0  0
    0.7070   -1.0570   -1.4090 C   0  0  0  0  0  0  0  0  0  0  0  0
    1.3310   -2.3050   -1.2670 O   0  0  0  0  0  0  0  0  0  0  0  0
    0.9010   -3.1410   -0.2250 C   0  0  0  0  0  0  0  0  0  0  0  0
    1.0730   -2.5540    1.1270 C   0  0  0  0  0  0  0  0  0  0  0  0
    0.6730   -3.1930    2.1600 O   0  0  0  0  0  0  0  0  0  0  0  0
    1.6630   -1.2970    1.3950 N   0  0  0  0  0  0  0  0  0  0  0  0
    1.7890   -0.7980    2.7530 C   0  0  1  0  0  0  0  0  0  0  0  0
    3.2700   -0.4710    2.9920 C   0  0  0  0  0  0  0  0  0  0  0  0
    3.4070    0.7400    2.0620 C   0  0  0  0  0  0  0  0  0  0  0  0
    2.1280    1.3470    2.0430 O   0  0  0  0  0  0  0  0  0  0  0  0
    1.2080    0.5700    2.7740 C   0  0  0  0  0  0  0  0  0  0  0  0
    0.1420    0.9800    3.3120 O   0  0  0  0  0  0  0  0  0  0  0  0
    1.4250   -0.0810   -2.2010 C   0  0  0  0  0  0  0  0  0  0  0  0
    2.7580   -0.4200   -2.8200 C   0  0  0  0  0  0  0  0  0  0  0  0
    0.8780    1.1030   -2.3610 C   0  0  0  0  0  0  0  0  0  0  0  0
   -0.4010    1.4320   -1.7680 C   0  0  0  0  0  0  0  0  0  0  0  0
   -0.9590    2.5850   -1.9090 N   0  0  0  0  0  0  0  0  0  0  0  0
   -0.2270    3.8800   -2.8340 S   0  0  0  0  0  0  0  0  0  0  0  0
   -1.5570    4.9030   -3.5200 C   0  0  0  0  0  0  0  0  0  0  0  0
   -2.8900   -1.6560    0.8570 S   0  0  0  0  0  0  0  0  0  0  0  0
   -4.2210   -2.3220    1.8750 C   0  0  0  0  0  0  0  0  0  0  0  0
  1  2  2  0
  2  3  1  0
  2 25  1  0
  3  4  2  3
  4  5  1  0
  4 21  1  0
  5  6  2  0
  6  7  1  0
  6 18  1  0
  7  8  1  0
  8  9  1  0
  9 10  2  0
  9 11  1  0
 12 11  1  6
 12 13  1  0
 12 16  1  0
 13 14  1  0
 14 15  1  0
 15 16  1  0
 16 17  2  0
 18 19  1  0
 18 20  2  0
 20 21  1  0
 21 22  2  3
 22 23  1  0
 23 24  1  0
 25 26  1  0
M  END
