
     RDKit          3D

 26 28  0  0  0  0  0  0  0  0999 V2000
    7.3920   -1.4730   -0.4780 C   0  0  0  0  0  0  0  0  0  0  0  0
    6.6830   -2.5120   -0.0630 C   0  0  0  0  0  0  0  0  0  0  0  0
    5.2640   -2.2370    0.9810 S   0  0  0  0  0  0  0  0  0  0  0  0
    4.2480   -0.9280    0.2450 C   0  0  0  0  0  0  0  0  0  0  0  0
    3.0470   -0.6450    1.0500 C   0  0  0  0  0  0  0  0  0  0  0  0
    2.8510   -1.2970    2.0990 O   0  0  0  0  0  0  0  0  0  0  0  0
    2.1360    0.3370    0.6520 N   0  0  0  0  0  0  0  0  0  0  0  0
    2.4080    1.0790   -0.5880 C   0  0  0  0  0  0  0  0  0  0  0  0
    1.6480    2.3950   -0.3700 C   0  0  0  0  0  0  0  0  0  0  0  0
    0.1840    2.0440   -0.5310 C   0  0  0  0  0  0  0  0  0  0  0  0
   -0.2310    1.0480    0.4900 C   0  0  1  0  0  0  0  0  0  0  0  0
   -1.1390    1.6390    1.3630 O   0  0  0  0  0  0  0  0  0  0  0  0
   -0.7680   -0.2180   -0.0260 C   0  0  0  0  0  0  0  0  0  0  0  0
   -1.9620   -0.2790   -0.8850 C   0  0  0  0  0  0  0  0  0  0  0  0
   -3.1970    0.2400   -0.3280 N   0  0  0  0  0  0  0  0  0  0  0  0
   -3.3950    1.6400   -0.2540 C   0  0  0  0  0  0  0  0  0  0  0  0
   -4.4160    2.2800    0.2570 C   0  0  0  0  0  0  0  0  0  0  0  0
   -5.7580    1.3620    0.9600 S   0  0  0  0  0  0  0  0  0  0  0  0
   -5.3370   -0.3430    0.7690 C   0  0  0  0  0  0  0  0  0  0  0  0
   -6.2090   -1.2730    1.2350 C   0  0  0  0  0  0  0  0  0  0  0  0
   -5.9550   -2.5460    1.1360 O   0  0  0  0  0  0  0  0  0  0  0  0
   -4.8520   -2.9280    0.5840 C   0  0  0  0  0  0  0  0  0  0  0  0
   -4.5990   -4.1660    0.4840 O   0  0  0  0  0  0  0  0  0  0  0  0
   -3.9030   -2.0270    0.0800 C   0  0  0  0  0  0  0  0  0  0  0  0
   -4.1630   -0.6760    0.1800 C   0  0  0  0  0  0  0  0  0  0  0  0
    0.9500    0.6560    1.3940 C   0  0  0  0  0  0  0  0  0  0  0  0
  1  2  2  0
  2  3  1  0
  3  4  1  0
  4  5  1  0
  5  6  2  0
  5  7  1  0
  7  8  1  0
  7 26  1  0
  8  9  1  0
  9 10  1  0
 10 11  1  0
 11 12  1  1
 11 13  1  0
 11 26  1  0
 13 14  1  0
 14 15  1  0
 15 16  1  0
 15 25  1  0
 16 17  2  0
 17 18  1  0
 18 19  1  0
 19 20  2  0
 19 25  1  0
 20 21  1  0
 21 22  1  0
 22 23  2  0
 22 24  1  0
 24 25  2  0
M  END
