
     RDKit          3D

 26 28  0  0  0  0  0  0  0  0999 V2000
   -0.7400    4.4860   -0.4610 C   0  0  0  0  0  0  0  0  0  0  0  0
   -0.2710    3.1020   -0.7520 C   0  0  0  0  0  0  0  0  0  0  0  0
   -1.1800    2.1410   -1.1350 C   0  0  0  0  0  0  0  0  0  0  0  0
   -0.7970    0.8660   -1.4090 C   0  0  0  0  0  0  0  0  0  0  0  0
   -1.8330   -0.4800   -1.8890 S   0  0  0  0  0  0  0  0  0  0  0  0
   -3.5770   -0.2350   -1.7940 C   0  0  0  0  0  0  0  0  0  0  0  0
   -4.2200   -0.2670   -0.4540 C   0  0  2  0  0  0  0  0  0  0  0  0
   -3.7430    0.7220    0.5340 C   0  0  0  0  0  0  0  0  0  0  0  0
   -4.4460    0.5320    1.7270 O   0  0  0  0  0  0  0  0  0  0  0  0
   -5.5350   -0.2840    1.6450 C   0  0  0  0  0  0  0  0  0  0  0  0
   -5.2490   -1.6210    1.0490 C   0  0  1  0  0  0  0  0  0  0  0  0
   -6.5220   -2.2270    0.4920 C   0  0  0  0  0  0  0  0  0  0  0  0
   -4.2790   -1.5690    0.0770 O   0  0  0  0  0  0  0  0  0  0  0  0
    0.5680    0.5750   -1.2870 C   0  0  0  0  0  0  0  0  0  0  0  0
    1.0450   -0.6870   -1.5460 C   0  0  0  0  0  0  0  0  0  0  0  0
    0.2420   -1.5790   -1.8950 O   0  0  0  0  0  0  0  0  0  0  0  0
    2.3370   -0.9800   -1.4350 O   0  0  0  0  0  0  0  0  0  0  0  0
    3.1550   -0.0260   -1.0680 C   0  0  0  0  0  0  0  0  0  0  0  0
    4.8810   -0.4480   -0.9280 S   0  0  0  0  0  0  0  0  0  0  0  0
    5.1920   -1.0190    0.7550 C   0  0  0  0  0  0  0  0  0  0  0  0
    6.6600   -1.3980    0.9070 C   0  0  2  0  0  0  0  0  0  0  0  0
    7.5340   -0.1960    0.6230 C   0  0  0  0  0  0  0  0  0  0  0  0
    7.0000   -2.4760   -0.1260 C   0  0  0  0  0  0  0  0  0  0  0  0
    2.7620    1.2270   -0.7990 N   0  0  0  0  0  0  0  0  0  0  0  0
    1.4440    1.5550   -0.9050 C   0  0  0  0  0  0  0  0  0  0  0  0
    1.0300    2.8040   -0.6400 N   0  0  0  0  0  0  0  0  0  0  0  0
  1  2  1  0
  2  3  2  0
  2 26  1  0
  3  4  1  0
  4  5  1  0
  4 14  2  0
  5  6  1  0
  7  6  1  6
  7  8  1  0
  7 13  1  0
  8  9  1  0
  9 10  1  0
 10 11  1  0
 11 12  1  6
 11 13  1  0
 14 15  1  0
 14 25  1  0
 15 16  2  0
 15 17  1  0
 17 18  1  0
 18 19  1  0
 18 24  2  0
 19 20  1  0
 20 21  1  0
 21 22  1  6
 21 23  1  0
 24 25  1  0
 25 26  2  0
M  END
