
     RDKit          3D

 18 19  0  0  0  0  0  0  0  0999 V2000
   -5.7640   -0.3580   -0.8020 C   0  0  0  0  0  0  0  0  0  0  0  0
   -5.2200    0.3010    0.4240 C   0  0  0  0  0  0  0  0  0  0  0  0
   -3.9170    0.8020    0.2760 O   0  0  0  0  0  0  0  0  0  0  0  0
   -2.8200    0.0200   -0.0460 C   0  0  0  0  0  0  0  0  0  0  0  0
   -3.0210   -1.2060   -0.2110 O   0  0  0  0  0  0  0  0  0  0  0  0
   -1.4560    0.5500   -0.2000 C   0  0  1  0  0  0  0  0  0  0  0  0
   -0.9410    1.2010    1.0620 C   0  0  0  0  0  0  0  0  0  0  0  0
    0.0680    0.2980    1.7530 C   0  0  0  0  0  0  0  0  0  0  0  0
    1.2020    0.1380    0.8090 C   0  0  0  0  0  0  0  0  0  0  0  0
    2.5290    0.3020    0.8680 N   0  0  0  0  0  0  0  0  0  0  0  0
    3.0690    0.0020   -0.3290 C   0  0  0  0  0  0  0  0  0  0  0  0
    4.4840    0.0430   -0.7090 C   0  0  0  0  0  0  0  0  0  0  0  0
    4.8520   -0.2650   -1.8690 O   0  0  0  0  0  0  0  0  0  0  0  0
    5.4450    0.4280    0.2180 O   0  0  0  0  0  0  0  0  0  0  0  0
    6.8060    0.4590   -0.1790 C   0  0  0  0  0  0  0  0  0  0  0  0
    2.0500   -0.3670   -1.1820 C   0  0  0  0  0  0  0  0  0  0  0  0
    0.8810   -0.2830   -0.4730 C   0  0  0  0  0  0  0  0  0  0  0  0
   -0.5610   -0.5220   -0.7390 C   0  0  0  0  0  0  0  0  0  0  0  0
  1  2  1  0
  2  3  1  0
  3  4  1  0
  4  5  2  0
  6  4  1  1
  6  7  1  0
  6 18  1  0
  7  8  1  0
  8  9  1  0
  9 10  1  0
  9 17  2  0
 10 11  1  0
 11 12  1  0
 11 16  2  0
 12 13  2  0
 12 14  1  0
 14 15  1  0
 16 17  1  0
 17 18  1  0
M  END
