
     RDKit          3D

 18 19  0  0  0  0  0  0  0  0999 V2000
    5.1370   -0.6080   -0.9160 C   0  0  0  0  0  0  0  0  0  0  0  0
    4.7350    0.3410    0.1660 C   0  0  0  0  0  0  0  0  0  0  0  0
    3.2430    0.1980    0.4580 C   0  0  0  0  0  0  0  0  0  0  0  0
    2.5330    0.5240   -0.8200 C   0  0  0  0  0  0  0  0  0  0  0  0
    1.1590    0.4290   -0.6910 O   0  0  0  0  0  0  0  0  0  0  0  0
    0.4340    1.1770    0.1770 C   0  0  0  0  0  0  0  0  0  0  0  0
    1.0790    2.0080    0.9080 O   0  0  0  0  0  0  0  0  0  0  0  0
   -1.0250    1.0560    0.2860 C   0  0  0  0  0  0  0  0  0  0  0  0
   -1.5800   -0.0680   -0.5860 C   0  0  1  0  0  0  0  0  0  0  0  0
   -1.0360   -1.3030   -0.1640 N   0  0  0  0  0  0  0  0  0  0  0  0
   -1.8140   -2.3630    0.3460 C   0  0  0  0  0  0  0  0  0  0  0  0
   -1.1960   -3.4230    0.6890 O   0  0  0  0  0  0  0  0  0  0  0  0
   -3.1720   -2.2540    0.4660 O   0  0  0  0  0  0  0  0  0  0  0  0
   -3.8270   -1.0720    0.0790 C   0  0  0  0  0  0  0  0  0  0  0  0
   -5.1010   -0.7150    0.0910 C   0  0  0  0  0  0  0  0  0  0  0  0
   -5.2660    0.6530   -0.4280 C   0  0  0  0  0  0  0  0  0  0  0  0
   -3.8770    1.0410   -0.7480 C   0  0  0  0  0  0  0  0  0  0  0  0
   -3.0440    0.0080   -0.4410 C   0  0  0  0  0  0  0  0  0  0  0  0
  1  2  1  0
  2  3  1  0
  3  4  1  0
  4  5  1  0
  5  6  1  0
  6  7  2  0
  6  8  1  0
  9  8  1  1
  9 10  1  0
  9 18  1  0
 10 11  1  0
 11 12  2  0
 11 13  1  0
 13 14  1  0
 14 15  2  0
 14 18  1  0
 15 16  1  0
 16 17  1  0
 17 18  2  0
M  END
