
     RDKit          3D

 18 19  0  0  0  0  0  0  0  0999 V2000
   -2.0830   -1.9730   -0.4640 C   0  0  0  0  0  0  0  0  0  0  0  0
   -2.3950   -0.6570    0.1800 C   0  0  0  0  0  0  0  0  0  0  0  0
   -1.4150    0.0890    0.9740 C   0  0  0  0  0  0  0  0  0  0  0  0
   -0.2080    0.4660    0.2010 C   0  0  0  0  0  0  0  0  0  0  0  0
   -0.1570    0.1200   -1.0060 O   0  0  0  0  0  0  0  0  0  0  0  0
    0.8630    1.1890    0.7700 N   0  0  0  0  0  0  0  0  0  0  0  0
    2.0500    1.5700    0.0380 C   0  0  0  0  0  0  0  0  0  0  0  0
    2.7930    0.3720   -0.5030 C   0  0  2  0  0  0  0  0  0  0  0  0
    3.2340   -0.5560    0.6290 C   0  0  0  0  0  0  0  0  0  0  0  0
    4.4790   -1.1670   -0.0270 C   0  0  0  0  0  0  0  0  0  0  0  0
    5.0840   -0.0310   -0.5450 O   0  0  0  0  0  0  0  0  0  0  0  0
    4.0970    0.7290   -1.1310 C   0  0  0  0  0  0  0  0  0  0  0  0
   -3.6130   -0.1640    0.0140 C   0  0  0  0  0  0  0  0  0  0  0  0
   -4.2090    1.0710    0.5060 C   0  0  0  0  0  0  0  0  0  0  0  0
   -5.4840    1.1670    0.0910 C   0  0  0  0  0  0  0  0  0  0  0  0
   -5.7860    0.0530   -0.6620 O   0  0  0  0  0  0  0  0  0  0  0  0
   -4.7130   -0.7980   -0.7570 C   0  0  0  0  0  0  0  0  0  0  0  0
   -4.6100   -1.9060   -1.3570 O   0  0  0  0  0  0  0  0  0  0  0  0
  1  2  1  0
  2  3  1  0
  2 13  2  3
  3  4  1  0
  4  5  2  0
  4  6  1  0
  6  7  1  0
  8  7  1  1
  8  9  1  0
  8 12  1  0
  9 10  1  0
 10 11  1  0
 11 12  1  0
 13 14  1  0
 13 17  1  0
 14 15  2  0
 15 16  1  0
 16 17  1  0
 17 18  2  0
M  END
