
     RDKit          3D

 18 19  0  0  0  0  0  0  0  0999 V2000
   -2.5890   -2.0490    1.4610 C   0  0  0  0  0  0  0  0  0  0  0  0
   -2.8550   -0.8390    0.5810 C   0  0  1  0  0  0  0  0  0  0  0  0
   -3.6140   -1.2140   -0.6710 C   0  0  0  0  0  0  0  0  0  0  0  0
   -3.6970    0.1170    1.4330 C   0  0  0  0  0  0  0  0  0  0  0  0
   -3.3990    1.4360    0.7570 C   0  0  0  0  0  0  0  0  0  0  0  0
   -2.0560    1.2720    0.1090 C   0  0  0  0  0  0  0  0  0  0  0  0
   -1.6480   -0.1030    0.2960 N   0  0  0  0  0  0  0  0  0  0  0  0
   -0.3460   -0.6240    0.2160 C   0  0  0  0  0  0  0  0  0  0  0  0
   -0.1800   -1.8560    0.4090 O   0  0  0  0  0  0  0  0  0  0  0  0
    0.8610    0.1720   -0.0800 C   0  0  0  0  0  0  0  0  0  0  0  0
    2.0360   -0.5740   -0.1030 O   0  0  0  0  0  0  0  0  0  0  0  0
    3.2260    0.0880   -0.3730 C   0  0  0  0  0  0  0  0  0  0  0  0
    3.2810    1.3280   -0.8080 C   0  0  0  0  0  0  0  0  0  0  0  0
    4.5410    2.0530   -1.1030 C   0  0  0  0  0  0  0  0  0  0  0  0
    5.6840    1.2870   -0.8730 O   0  0  0  0  0  0  0  0  0  0  0  0
    5.6720   -0.0210   -0.4160 C   0  0  0  0  0  0  0  0  0  0  0  0
    4.5120   -0.6100   -0.1720 C   0  0  0  0  0  0  0  0  0  0  0  0
    4.4520   -1.9270    0.2900 O   0  0  0  0  0  0  0  0  0  0  0  0
  2  1  1  1
  2  3  1  0
  2  4  1  0
  2  7  1  0
  4  5  1  0
  5  6  1  0
  6  7  1  0
  7  8  1  0
  8  9  2  0
  8 10  1  0
 10 11  1  0
 11 12  1  0
 12 13  2  0
 12 17  1  0
 13 14  1  0
 14 15  1  0
 15 16  1  0
 16 17  2  0
 17 18  1  0
M  END
