
     RDKit          3D

 18 19  0  0  0  0  0  0  0  0999 V2000
   -4.8240   -1.5080   -0.8910 C   0  0  0  0  0  0  0  0  0  0  0  0
   -3.4550   -1.2360   -0.2550 C   0  0  0  0  0  0  0  0  0  0  0  0
   -3.0860    0.2030   -0.4750 C   0  0  0  0  0  0  0  0  0  0  0  0
   -3.8620    0.9670   -1.0990 O   0  0  0  0  0  0  0  0  0  0  0  0
   -1.8400    0.6240    0.0540 N   0  0  0  0  0  0  0  0  0  0  0  0
   -1.4670    2.0050   -0.1480 C   0  0  0  0  0  0  0  0  0  0  0  0
   -0.3200    2.0980   -1.1460 C   0  0  0  0  0  0  0  0  0  0  0  0
    0.3870    0.7920   -1.0690 C   0  0  0  0  0  0  0  0  0  0  0  0
    0.9840    0.2730   -2.0790 O   0  0  0  0  0  0  0  0  0  0  0  0
    0.4390    0.0220    0.1650 C   0  0  0  0  0  0  0  0  0  0  0  0
    1.4780   -0.4110    0.7840 C   0  0  0  0  0  0  0  0  0  0  0  0
    1.2320   -1.1510    1.9740 O   0  0  0  0  0  0  0  0  0  0  0  0
    2.8970   -0.2500    0.4500 C   0  0  0  0  0  0  0  0  0  0  0  0
    3.9230   -0.7560    1.1500 C   0  0  0  0  0  0  0  0  0  0  0  0
    5.1740   -0.3590    0.4710 C   0  0  0  0  0  0  0  0  0  0  0  0
    4.8100    0.7590   -0.2710 O   0  0  0  0  0  0  0  0  0  0  0  0
    3.4820    0.5070   -0.6580 C   0  0  0  0  0  0  0  0  0  0  0  0
   -0.9430   -0.2390    0.7690 C   0  0  0  0  0  0  0  0  0  0  0  0
  1  2  1  0
  2  3  1  0
  3  4  2  0
  3  5  1  0
  5  6  1  0
  5 18  1  0
  6  7  1  0
  7  8  1  0
  8  9  2  0
  8 10  1  0
 10 11  2  3
 10 18  1  0
 11 12  1  0
 11 13  1  0
 13 14  2  0
 13 17  1  0
 14 15  1  0
 15 16  1  0
 16 17  1  0
M  END
