
     RDKit          3D

 30 33  0  0  0  0  0  0  0  0999 V2000
    7.2550   -1.2350    0.6930 C   0  0  0  0  0  0  0  0  0  0  0  0
    5.8600   -1.0400    0.6190 O   0  0  0  0  0  0  0  0  0  0  0  0
    5.3040    0.1380    0.1470 C   0  0  0  0  0  0  0  0  0  0  0  0
    3.9200    0.3160    0.0800 C   0  0  0  0  0  0  0  0  0  0  0  0
    3.3610    1.4740   -0.3840 C   0  0  0  0  0  0  0  0  0  0  0  0
    1.9950    1.7200   -0.4840 N   0  0  0  0  0  0  0  0  0  0  0  0
    0.9270    0.8590   -0.2050 C   0  0  0  0  0  0  0  0  0  0  0  0
   -0.3700    1.2260   -0.3440 N   0  0  0  0  0  0  0  0  0  0  0  0
   -1.4060    0.4190   -0.0880 C   0  0  0  0  0  0  0  0  0  0  0  0
   -3.0930    0.9070   -0.2690 S   0  0  0  0  0  0  0  0  0  0  0  0
   -3.2970    2.5930   -0.8270 C   0  0  2  0  0  0  0  0  0  0  0  0
   -2.8470    3.6480    0.1280 C   0  0  0  0  0  0  0  0  0  0  0  0
   -4.0650    4.3460   -0.0330 O   0  0  0  0  0  0  0  0  0  0  0  0
   -4.6530    3.1410   -0.4040 C   0  0  0  0  0  0  0  0  0  0  0  0
   -1.1540   -0.8330    0.3330 N   0  0  0  0  0  0  0  0  0  0  0  0
   -2.2350   -1.7460    0.6210 C   0  0  0  0  0  0  0  0  0  0  0  0
   -2.8710   -2.3900   -0.4130 C   0  0  0  0  0  0  0  0  0  0  0  0
   -3.9240   -3.2830   -0.1860 C   0  0  0  0  0  0  0  0  0  0  0  0
   -4.5920   -3.9650   -1.3230 C   0  0  0  0  0  0  0  0  0  0  0  0
   -4.3290   -3.5200    1.1120 C   0  0  0  0  0  0  0  0  0  0  0  0
   -3.7030   -2.8830    2.1630 C   0  0  0  0  0  0  0  0  0  0  0  0
   -4.2500   -3.2130    3.7940 Cl  0  0  0  0  0  0  0  0  0  0  0  0
   -2.6540   -1.9950    1.9050 C   0  0  0  0  0  0  0  0  0  0  0  0
    0.1160   -1.2480    0.4870 C   0  0  0  0  0  0  0  0  0  0  0  0
    0.5090   -2.7470    0.9920 S   0  0  0  0  0  0  0  0  0  0  0  0
    1.1110   -0.3940    0.2150 N   0  0  0  0  0  0  0  0  0  0  0  0
    4.2570    2.4550   -0.7810 C   0  0  0  0  0  0  0  0  0  0  0  0
    5.6260    2.2720   -0.7130 C   0  0  0  0  0  0  0  0  0  0  0  0
    6.4550    3.3150   -1.1360 O   0  0  0  0  0  0  0  0  0  0  0  0
    6.1270    1.1130   -0.2480 N   0  0  0  0  0  0  0  0  0  0  0  0
  1  2  1  0
  2  3  1  0
  3  4  2  0
  3 30  1  0
  4  5  1  0
  5  6  1  0
  5 27  2  0
  6  7  1  0
  7  8  1  0
  7 26  2  0
  8  9  2  0
  9 10  1  0
  9 15  1  0
 11 10  1  1
 11 12  1  0
 11 14  1  0
 12 13  1  0
 13 14  1  0
 15 16  1  0
 15 24  1  0
 16 17  2  0
 16 23  1  0
 17 18  1  0
 18 19  1  0
 18 20  2  0
 20 21  1  0
 21 22  1  0
 21 23  2  0
 24 25  2  0
 24 26  1  0
 27 28  1  0
 28 29  1  0
 28 30  2  0
M  END
