
     RDKit          3D

 29 32  0  0  0  0  0  0  0  0999 V2000
   -3.9730   -3.1240   -0.5460 C   0  0  0  0  0  0  0  0  0  0  0  0
   -4.6090   -1.9060   -1.2030 C   0  0  1  0  0  0  0  0  0  0  0  0
   -5.5540   -1.3030   -0.1640 C   0  0  0  0  0  0  0  0  0  0  0  0
   -4.7740   -0.6540    0.9490 C   0  0  0  0  0  0  0  0  0  0  0  0
   -3.4160   -0.6420    0.7240 O   0  0  0  0  0  0  0  0  0  0  0  0
   -3.1010   -0.0350   -0.4830 C   0  0  1  0  0  0  0  0  0  0  0  0
   -3.7220    1.3070   -0.6530 C   0  0  0  0  0  0  0  0  0  0  0  0
   -3.0600    2.1800    0.4220 C   0  0  0  0  0  0  0  0  0  0  0  0
   -1.7430    2.3030    0.1910 O   0  0  0  0  0  0  0  0  0  0  0  0
   -0.9520    1.1400    0.2030 C   0  0  2  0  0  0  0  0  0  0  0  0
   -0.8100    0.7730    1.6410 C   0  0  0  0  0  0  0  0  0  0  0  0
    0.1970    1.6180    2.3710 C   0  0  0  0  0  0  0  0  0  0  0  0
   -0.0860    3.1150    2.1500 C   0  0  0  0  0  0  0  0  0  0  0  0
    0.4350    3.5350    0.7940 C   0  0  0  0  0  0  0  0  0  0  0  0
    1.0650    2.4800    0.2390 O   0  0  0  0  0  0  0  0  0  0  0  0
    0.3100    1.5710   -0.4870 C   0  0  1  0  0  0  0  0  0  0  0  0
    1.2090    0.5770   -1.0810 C   0  0  0  0  0  0  0  0  0  0  0  0
    1.8660   -0.4420   -0.3080 C   0  0  0  0  0  0  0  0  0  0  0  0
    1.2600   -1.2190    0.3810 O   0  0  0  0  0  0  0  0  0  0  0  0
    3.3710   -0.6420   -0.2780 C   0  0  2  0  0  0  0  0  0  0  0  0
    3.9420    0.6530    0.2380 C   0  0  0  0  0  0  0  0  0  0  0  0
    3.8530   -1.0000   -1.6480 C   0  0  0  0  0  0  0  0  0  0  0  0
    5.3520   -1.1140   -1.7260 C   0  0  0  0  0  0  0  0  0  0  0  0
    5.8410   -2.4670   -1.2300 C   0  0  0  0  0  0  0  0  0  0  0  0
    4.4810   -3.1630   -0.2450 S   0  0  0  0  0  0  0  0  0  0  0  0
    3.7740   -1.7460    0.6670 C   0  0  1  0  0  0  0  0  0  0  0  0
    4.7580   -1.3200    1.7060 C   0  0  0  0  0  0  0  0  0  0  0  0
   -1.6090    0.0960   -0.6460 C   0  0  0  0  0  0  0  0  0  0  0  0
   -3.5890   -0.9060   -1.6400 C   0  0  0  0  0  0  0  0  0  0  0  0
  2  1  1  1
  2  3  1  0
  2 29  1  0
  3  4  1  0
  4  5  1  0
  5  6  1  0
  6  7  1  1
  6 28  1  0
  6 29  1  0
  7  8  1  0
  8  9  1  0
  9 10  1  0
 10 11  1  1
 10 16  1  0
 10 28  1  0
 11 12  1  0
 12 13  1  0
 13 14  1  0
 14 15  1  0
 15 16  1  0
 16 17  1  1
 17 18  1  0
 18 19  2  0
 18 20  1  0
 20 21  1  1
 20 22  1  0
 20 26  1  0
 22 23  1  0
 23 24  1  0
 24 25  1  0
 25 26  1  0
 26 27  1  1
M  END
