
     RDKit          3D

 30 33  0  0  0  0  0  0  0  0999 V2000
   -9.2700    0.7490   -1.5650 C   0  0  0  0  0  0  0  0  0  0  0  0
   -7.8780    0.7980   -1.0250 C   0  0  0  0  0  0  0  0  0  0  0  0
   -7.5570    1.6160    0.0370 C   0  0  0  0  0  0  0  0  0  0  0  0
   -6.2580    1.6490    0.5230 C   0  0  0  0  0  0  0  0  0  0  0  0
   -5.2500    0.8850   -0.0180 C   0  0  0  0  0  0  0  0  0  0  0  0
   -3.9410    0.9080    0.4590 C   0  0  0  0  0  0  0  0  0  0  0  0
   -2.9590    0.1250   -0.1140 C   0  0  0  0  0  0  0  0  0  0  0  0
   -1.5750    0.1010    0.3330 C   0  0  0  0  0  0  0  0  0  0  0  0
   -0.6920   -0.6870   -0.3000 N   0  0  0  0  0  0  0  0  0  0  0  0
    0.6060   -0.7450    0.0710 C   0  0  0  0  0  0  0  0  0  0  0  0
    1.0770    0.0040    1.1170 C   0  0  0  0  0  0  0  0  0  0  0  0
    2.4050    0.0030    1.5630 N   0  0  0  0  0  0  0  0  0  0  0  0
    3.3490   -0.8380    0.8780 C   0  0  0  0  0  0  0  0  0  0  0  0
    3.5160   -1.6120    0.0150 N   0  0  0  0  0  0  0  0  0  0  0  0
    4.6210   -2.1960   -0.3170 N   0  0  0  0  0  0  0  0  0  0  0  0
    5.6580   -2.0380    0.2100 C   0  0  0  0  0  0  0  0  0  0  0  0
    7.3500   -2.6000    0.0980 S   0  0  0  0  0  0  0  0  0  0  0  0
    8.2680   -1.5180   -1.0310 C   0  0  0  0  0  0  0  0  0  0  0  0
    8.3690   -0.1320   -0.4330 C   0  0  0  0  0  0  0  0  0  0  0  0
    9.0820   -0.1580    0.8860 C   0  0  0  0  0  0  0  0  0  0  0  0
    9.1510    1.5130    1.5100 Cl  0  0  0  0  0  0  0  0  0  0  0  0
    5.1460   -0.7800    1.5350 S   0  0  0  0  0  0  0  0  0  0  0  0
    0.1730    0.8180    1.7740 C   0  0  0  0  0  0  0  0  0  0  0  0
    0.5690    1.5300    2.7520 O   0  0  0  0  0  0  0  0  0  0  0  0
   -1.0940    0.8240    1.3520 N   0  0  0  0  0  0  0  0  0  0  0  0
   -3.3630   -0.6630   -1.1720 C   0  0  0  0  0  0  0  0  0  0  0  0
   -2.4910   -1.3990   -1.7290 O   0  0  0  0  0  0  0  0  0  0  0  0
   -4.6170   -0.6700   -1.6110 O   0  0  0  0  0  0  0  0  0  0  0  0
   -5.5650    0.0660   -1.0810 C   0  0  0  0  0  0  0  0  0  0  0  0
   -6.8680    0.0330   -1.5680 C   0  0  0  0  0  0  0  0  0  0  0  0
  1  2  1  0
  2  3  2  0
  2 30  1  0
  3  4  1  0
  4  5  2  0
  5  6  1  0
  5 29  1  0
  6  7  2  0
  7  8  1  0
  7 26  1  0
  8  9  2  0
  8 25  1  0
  9 10  1  0
 10 11  2  0
 11 12  1  0
 11 23  1  0
 12 13  1  0
 13 14  2  0
 13 22  1  0
 14 15  1  0
 15 16  2  0
 16 17  1  0
 16 22  1  0
 17 18  1  0
 18 19  1  0
 19 20  1  0
 20 21  1  0
 23 24  2  0
 23 25  1  0
 26 27  2  0
 26 28  1  0
 28 29  1  0
 29 30  2  0
M  END
