
     RDKit          3D

 30 33  0  0  0  0  0  0  0  0999 V2000
    4.2240    4.6350   -1.3930 C   0  0  0  0  0  0  0  0  0  0  0  0
    2.4530    4.4720   -1.0280 S   0  0  0  0  0  0  0  0  0  0  0  0
    2.0600    2.7380   -0.7160 C   0  0  0  0  0  0  0  0  0  0  0  0
    0.8440    2.2490   -0.4150 N   0  0  0  0  0  0  0  0  0  0  0  0
    0.9280    0.9000   -0.2470 C   0  0  0  0  0  0  0  0  0  0  0  0
   -0.3670   -0.2580    0.1600 S   0  0  0  0  0  0  0  0  0  0  0  0
   -1.9660    0.6530    0.3550 C   0  0  2  0  0  0  0  0  0  0  0  0
   -1.7860    1.4690    1.5580 C   0  0  0  0  0  0  0  0  0  0  0  0
   -0.8430    2.3420    1.6190 O   0  0  0  0  0  0  0  0  0  0  0  0
   -2.6490    1.3290    2.7140 C   0  0  0  0  0  0  0  0  0  0  0  0
   -2.4050    2.1590    3.8340 O   0  0  0  0  0  0  0  0  0  0  0  0
   -3.6290    0.4610    2.7270 C   0  0  0  0  0  0  0  0  0  0  0  0
   -3.8190   -0.3550    1.5410 C   0  0  0  0  0  0  0  0  0  0  0  0
   -3.0770   -0.2760    0.4710 C   0  0  0  0  0  0  0  0  0  0  0  0
   -3.3570   -1.1580   -0.6870 C   0  0  0  0  0  0  0  0  0  0  0  0
   -4.3590   -2.1110   -0.7980 C   0  0  0  0  0  0  0  0  0  0  0  0
   -4.2600   -2.7000   -2.0410 C   0  0  0  0  0  0  0  0  0  0  0  0
   -3.1870   -2.0740   -2.6440 C   0  0  0  0  0  0  0  0  0  0  0  0
   -2.6960   -1.1840   -1.8140 O   0  0  0  0  0  0  0  0  0  0  0  0
    2.2160    0.5720   -0.4520 N   0  0  0  0  0  0  0  0  0  0  0  0
    2.7190   -0.7550   -0.3700 C   0  0  0  0  0  0  0  0  0  0  0  0
    3.3410   -1.3500   -1.4470 C   0  0  0  0  0  0  0  0  0  0  0  0
    3.8540   -2.6270   -1.4460 C   0  0  0  0  0  0  0  0  0  0  0  0
    3.7360   -3.3410   -0.3090 N   0  0  0  0  0  0  0  0  0  0  0  0
    3.1390   -2.8090    0.7700 C   0  0  0  0  0  0  0  0  0  0  0  0
    3.0170   -3.5820    1.9820 C   0  0  0  0  0  0  0  0  0  0  0  0
    2.9340   -4.2130    2.9560 N   0  0  0  0  0  0  0  0  0  0  0  0
    2.6200   -1.5260    0.7810 C   0  0  0  0  0  0  0  0  0  0  0  0
    1.8560   -0.8740    2.1920 Cl  0  0  0  0  0  0  0  0  0  0  0  0
    2.8970    1.6840   -0.7350 N   0  0  0  0  0  0  0  0  0  0  0  0
  1  2  1  0
  2  3  1  0
  3  4  1  0
  3 30  2  0
  4  5  2  0
  5  6  1  0
  5 20  1  0
  7  6  1  1
  7  8  1  0
  7 14  1  0
  8  9  2  0
  8 10  1  0
 10 11  1  0
 10 12  2  0
 12 13  1  0
 13 14  2  0
 14 15  1  0
 15 16  2  0
 15 19  1  0
 16 17  1  0
 17 18  2  0
 18 19  1  0
 20 21  1  0
 20 30  1  0
 21 22  2  0
 21 28  1  0
 22 23  1  0
 23 24  2  0
 24 25  1  0
 25 26  1  0
 25 28  2  0
 26 27  3  0
 28 29  1  0
M  END
