
     RDKit          3D

 30 33  0  0  0  0  0  0  0  0999 V2000
   -3.9720    2.7540   -2.3580 C   0  0  0  0  0  0  0  0  0  0  0  0
   -4.6250    1.7760   -1.4700 C   0  0  0  0  0  0  0  0  0  0  0  0
   -5.7280    2.0530   -0.9570 O   0  0  0  0  0  0  0  0  0  0  0  0
   -3.9900    0.5010   -1.1940 C   0  0  0  0  0  0  0  0  0  0  0  0
   -2.7610    0.1820   -1.7590 C   0  0  0  0  0  0  0  0  0  0  0  0
   -2.1190   -1.0160   -1.5270 C   0  0  0  0  0  0  0  0  0  0  0  0
   -2.7190   -1.9310   -0.7040 C   0  0  0  0  0  0  0  0  0  0  0  0
   -1.9800   -3.4690   -0.3460 S   0  0  1  0  0  0  0  0  0  0  0  0
   -3.0570   -4.5230   -0.5000 O   0  0  0  0  0  0  0  0  0  0  0  0
   -0.9760   -3.7610   -1.4470 O   0  0  0  0  0  0  0  0  0  0  0  0
   -1.2930   -3.6050    1.1950 N   0  0  0  0  0  0  0  0  0  0  0  0
   -0.2100   -2.8330    1.7110 C   0  0  0  0  0  0  0  0  0  0  0  0
    0.4470   -1.8870    0.9530 C   0  0  0  0  0  0  0  0  0  0  0  0
    1.5080   -1.1490    1.4340 C   0  0  0  0  0  0  0  0  0  0  0  0
    2.1900   -0.1480    0.6070 C   0  0  0  0  0  0  0  0  0  0  0  0
    3.2280    0.6140    0.9900 N   0  0  0  0  0  0  0  0  0  0  0  0
    3.5950    1.4090   -0.0080 C   0  0  0  0  0  0  0  0  0  0  0  0
    4.7170    2.4240   -0.0060 C   0  0  0  0  0  0  0  0  0  0  0  0
    5.4380    2.5350    1.1610 C   0  0  0  0  0  0  0  0  0  0  0  0
    6.6860    3.8470    0.7690 S   0  0  0  0  0  0  0  0  0  0  0  0
    6.0600    4.0870   -0.9700 C   0  0  0  0  0  0  0  0  0  0  0  0
    5.0170    3.1780   -1.0460 C   0  0  0  0  0  0  0  0  0  0  0  0
    4.1310    3.0990   -2.6060 Cl  0  0  0  0  0  0  0  0  0  0  0  0
    2.7670    1.1290   -1.0200 N   0  0  0  0  0  0  0  0  0  0  0  0
    1.9150    0.1910   -0.6600 N   0  0  0  0  0  0  0  0  0  0  0  0
    1.8860   -1.4080    2.7310 C   0  0  0  0  0  0  0  0  0  0  0  0
    1.2170   -2.3650    3.4870 C   0  0  0  0  0  0  0  0  0  0  0  0
    0.2010   -3.0480    2.9770 N   0  0  0  0  0  0  0  0  0  0  0  0
   -3.9590   -1.6010   -0.1370 C   0  0  0  0  0  0  0  0  0  0  0  0
   -4.6040   -0.4140   -0.3630 C   0  0  0  0  0  0  0  0  0  0  0  0
  1  2  1  0
  2  3  2  0
  2  4  1  0
  4  5  2  0
  4 30  1  0
  5  6  1  0
  6  7  2  0
  7  8  1  0
  7 29  1  0
  8  9  2  0
  8 10  2  0
  8 11  1  1
 11 12  1  0
 12 13  2  0
 12 28  1  0
 13 14  1  0
 14 15  1  0
 14 26  2  0
 15 16  2  0
 15 25  1  0
 16 17  1  0
 17 18  1  0
 17 24  2  0
 18 19  2  0
 18 22  1  0
 19 20  1  0
 20 21  1  0
 21 22  2  0
 22 23  1  0
 24 25  1  0
 26 27  1  0
 27 28  2  0
 29 30  2  0
M  END
