
     RDKit          3D

 29 32  0  0  0  0  0  0  0  0999 V2000
    9.2030    0.9280   -0.5040 C   0  0  0  0  0  0  0  0  0  0  0  0
    8.7080   -0.3090   -1.2660 C   0  0  0  0  0  0  0  0  0  0  0  0
    7.2050   -0.1920   -1.3730 C   0  0  0  0  0  0  0  0  0  0  0  0
    6.7180   -0.1620   -2.5620 N   0  0  0  0  0  0  0  0  0  0  0  0
    5.0260   -0.0320   -2.8830 S   0  0  1  0  0  0  0  0  0  0  0  0
    4.7170    1.1980   -3.6970 O   0  0  0  0  0  0  0  0  0  0  0  0
    4.5360   -1.2200   -3.6730 O   0  0  0  0  0  0  0  0  0  0  0  0
    4.2410    0.0380   -1.3110 C   0  0  0  0  0  0  0  0  0  0  0  0
    2.8740    0.1440   -1.2790 C   0  0  0  0  0  0  0  0  0  0  0  0
    2.1830    0.2050   -0.0840 C   0  0  0  0  0  0  0  0  0  0  0  0
    0.7310    0.3180   -0.0220 C   0  0  0  0  0  0  0  0  0  0  0  0
    0.0210    0.3660   -1.0660 O   0  0  0  0  0  0  0  0  0  0  0  0
    0.0440    0.3780    1.1800 O   0  0  0  0  0  0  0  0  0  0  0  0
   -1.3340    0.4850    1.2710 C   0  0  0  0  0  0  0  0  0  0  0  0
   -2.0000    1.6920    1.3140 C   0  0  0  0  0  0  0  0  0  0  0  0
   -3.3630    1.7430    1.4040 C   0  0  0  0  0  0  0  0  0  0  0  0
   -4.1140    0.5840    1.4550 C   0  0  0  0  0  0  0  0  0  0  0  0
   -5.5940    0.6200    1.5590 C   0  0  0  0  0  0  0  0  0  0  0  0
   -6.2050   -0.5950    1.1200 N   0  0  0  0  0  0  0  0  0  0  0  0
   -5.9470   -0.8930   -0.2600 C   0  0  0  0  0  0  0  0  0  0  0  0
   -6.8900    0.0090   -1.0370 C   0  0  0  0  0  0  0  0  0  0  0  0
   -7.9770    0.2880   -0.0420 C   0  0  0  0  0  0  0  0  0  0  0  0
   -7.6390   -0.5180    1.1890 C   0  0  0  0  0  0  0  0  0  0  0  0
   -3.4580   -0.6240    1.4130 C   0  0  0  0  0  0  0  0  0  0  0  0
   -2.0630   -0.6840    1.3210 C   0  0  0  0  0  0  0  0  0  0  0  0
    2.9400    0.1530    1.0670 C   0  0  0  0  0  0  0  0  0  0  0  0
    4.3150    0.0470    1.0590 C   0  0  0  0  0  0  0  0  0  0  0  0
    4.9950   -0.0130   -0.1640 C   0  0  0  0  0  0  0  0  0  0  0  0
    6.4010   -0.1230   -0.2240 N   0  0  0  0  0  0  0  0  0  0  0  0
  1  2  1  0
  2  3  1  0
  3  4  2  0
  3 29  1  0
  5  4  1  1
  5  6  2  0
  5  7  2  0
  5  8  1  0
  8  9  2  0
  8 28  1  0
  9 10  1  0
 10 11  1  0
 10 26  2  0
 11 12  2  0
 11 13  1  0
 13 14  1  0
 14 15  2  0
 14 25  1  0
 15 16  1  0
 16 17  2  0
 17 18  1  0
 17 24  1  0
 18 19  1  0
 19 20  1  0
 19 23  1  0
 20 21  1  0
 21 22  1  0
 22 23  1  0
 24 25  2  0
 26 27  1  0
 27 28  2  0
 28 29  1  0
M  END
