
     RDKit          3D

 30 33  0  0  0  0  0  0  0  0999 V2000
   -8.0560   -1.2560    2.5270 O   0  0  0  0  0  0  0  0  0  0  0  0
   -8.0290   -0.6730    1.4190 N   0  0  0  0  0  0  0  0  0  0  0  0
   -9.2180   -0.3450    0.8460 O   0  0  0  0  0  0  0  0  0  0  0  0
   -6.8150   -0.3610    0.7760 C   0  0  0  0  0  0  0  0  0  0  0  0
   -5.6260   -0.7150    1.3990 C   0  0  0  0  0  0  0  0  0  0  0  0
   -4.4280   -0.4320    0.8120 C   0  0  0  0  0  0  0  0  0  0  0  0
   -4.4240    0.2210   -0.4260 C   0  0  0  0  0  0  0  0  0  0  0  0
   -5.5970    0.5670   -1.0340 C   0  0  0  0  0  0  0  0  0  0  0  0
   -5.2800    1.1840   -2.2190 C   0  0  0  0  0  0  0  0  0  0  0  0
   -3.9060    1.2040   -2.3140 C   0  0  0  0  0  0  0  0  0  0  0  0
   -3.4280    0.6180   -1.2210 N   0  0  0  0  0  0  0  0  0  0  0  0
   -2.0500    0.4400   -0.9410 C   0  0  0  0  0  0  0  0  0  0  0  0
   -1.4940    1.0590    0.1690 C   0  0  0  0  0  0  0  0  0  0  0  0
   -0.1590    0.8700    0.4150 C   0  0  0  0  0  0  0  0  0  0  0  0
    0.6320    0.0930   -0.4000 C   0  0  0  0  0  0  0  0  0  0  0  0
    1.9540   -0.0200   -0.0500 O   0  0  0  0  0  0  0  0  0  0  0  0
    2.9600   -0.7300   -0.6850 C   0  0  1  0  0  0  0  0  0  0  0  0
    4.0430    0.0600   -1.0630 O   0  0  0  0  0  0  0  0  0  0  0  0
    4.6550    0.6870    0.0020 C   0  0  2  0  0  0  0  0  0  0  0  0
    5.8180    1.4870   -0.5450 C   0  0  0  0  0  0  0  0  0  0  0  0
    6.5120    2.1640    0.4390 O   0  0  0  0  0  0  0  0  0  0  0  0
    5.1770   -0.3150    1.0340 C   0  0  1  0  0  0  0  0  0  0  0  0
    5.7810    0.3760    2.0610 O   0  0  0  0  0  0  0  0  0  0  0  0
    3.9550   -1.0940    1.5070 C   0  0  2  0  0  0  0  0  0  0  0  0
    4.3030   -1.9980    2.5090 O   0  0  0  0  0  0  0  0  0  0  0  0
    3.4210   -1.8220    0.2910 C   0  0  2  0  0  0  0  0  0  0  0  0
    4.4820   -2.5490   -0.2500 O   0  0  0  0  0  0  0  0  0  0  0  0
    0.0750   -0.5130   -1.4920 C   0  0  0  0  0  0  0  0  0  0  0  0
   -1.2630   -0.3410   -1.7650 C   0  0  0  0  0  0  0  0  0  0  0  0
   -6.8210    0.2810   -0.4410 C   0  0  0  0  0  0  0  0  0  0  0  0
  1  2  2  0
  2  3  1  0
  2  4  1  0
  4  5  2  0
  4 30  1  0
  5  6  1  0
  6  7  2  0
  7  8  1  0
  7 11  1  0
  8  9  1  0
  8 30  2  0
  9 10  2  0
 10 11  1  0
 11 12  1  0
 12 13  2  0
 12 29  1  0
 13 14  1  0
 14 15  2  0
 15 16  1  0
 15 28  1  0
 17 16  1  1
 17 18  1  0
 17 26  1  0
 18 19  1  0
 19 20  1  6
 19 22  1  0
 20 21  1  0
 22 23  1  1
 22 24  1  0
 24 25  1  1
 24 26  1  0
 26 27  1  6
 28 29  2  0
M  CHG  2   2   1   3  -1
M  END
