
     RDKit          3D

 29 31  0  0  0  0  0  0  0  0999 V2000
   -2.5080    0.8490   -2.3890 C   0  0  0  0  0  0  0  0  0  0  0  0
   -2.3260    1.0570   -0.9290 C   0  0  0  0  0  0  0  0  0  0  0  0
   -1.2070    0.2750   -0.3240 C   0  0  0  0  0  0  0  0  0  0  0  0
   -1.3770   -1.1100    0.0190 C   0  0  0  0  0  0  0  0  0  0  0  0
   -0.3270   -1.6870    0.5180 O   0  0  0  0  0  0  0  0  0  0  0  0
   -2.4780   -1.9580   -0.0850 N   0  0  0  0  0  0  0  0  0  0  0  0
   -3.8090   -1.7900   -0.5670 C   0  0  0  0  0  0  0  0  0  0  0  0
   -4.7710   -1.6080    0.6020 C   0  0  0  0  0  0  0  0  0  0  0  0
   -4.1560   -2.4050    1.7600 C   0  0  0  0  0  0  0  0  0  0  0  0
   -3.5540   -3.6680    1.1830 C   0  0  0  0  0  0  0  0  0  0  0  0
   -2.2770   -3.3770    0.4400 C   0  0  0  0  0  0  0  0  0  0  0  0
   -0.0350    0.9380   -0.1180 C   0  0  0  0  0  0  0  0  0  0  0  0
    1.1500    0.3860    0.4540 C   0  0  0  0  0  0  0  0  0  0  0  0
    2.2300    1.1060    0.5560 C   0  0  0  0  0  0  0  0  0  0  0  0
    3.5580    0.8030    1.0840 C   0  0  0  0  0  0  0  0  0  0  0  0
    4.4170    1.7750    1.0290 O   0  0  0  0  0  0  0  0  0  0  0  0
    4.0530   -0.3710    1.6410 N   0  0  0  0  0  0  0  0  0  0  0  0
    5.4390   -0.4940    2.1290 C   0  0  0  0  0  0  0  0  0  0  0  0
    5.7150   -1.9750    2.1610 C   0  0  0  0  0  0  0  0  0  0  0  0
    4.3690   -2.6070    2.4270 C   0  0  0  0  0  0  0  0  0  0  0  0
    3.3690   -1.6170    1.8400 C   0  0  0  0  0  0  0  0  0  0  0  0
    1.8030    2.7350   -0.0690 S   0  0  0  0  0  0  0  0  0  0  0  0
    0.1380    2.3150   -0.5420 C   0  0  0  0  0  0  0  0  0  0  0  0
   -0.6200    3.1190   -1.1370 N   0  0  0  0  0  0  0  0  0  0  0  0
   -0.2150    4.4360   -1.4450 C   0  0  0  0  0  0  0  0  0  0  0  0
    0.8440    4.7470   -2.1400 C   0  0  0  0  0  0  0  0  0  0  0  0
    1.1510    6.1470   -2.3870 C   0  0  0  0  0  0  0  0  0  0  0  0
    2.1650    6.5080   -3.0550 O   0  0  0  0  0  0  0  0  0  0  0  0
    0.3500    7.1790   -1.9050 O   0  0  0  0  0  0  0  0  0  0  0  0
  1  2  1  0
  2  3  1  0
  3  4  1  0
  3 12  2  3
  4  5  2  0
  4  6  1  0
  6  7  1  0
  6 11  1  0
  7  8  1  0
  8  9  1  0
  9 10  1  0
 10 11  1  0
 12 13  1  0
 12 23  1  0
 13 14  2  0
 14 15  1  0
 14 22  1  0
 15 16  2  0
 15 17  1  0
 17 18  1  0
 17 21  1  0
 18 19  1  0
 19 20  1  0
 20 21  1  0
 22 23  1  0
 23 24  2  3
 24 25  1  0
 25 26  2  3
 26 27  1  0
 27 28  2  0
 27 29  1  0
M  END
