
     RDKit          3D

 29 32  0  0  0  0  0  0  0  0999 V2000
    4.8480   -1.1350    3.0160 C   0  0  0  0  0  0  0  0  0  0  0  0
    4.8370   -0.6190    1.6230 C   0  0  0  0  0  0  0  0  0  0  0  0
    3.6220   -0.6120    0.9680 C   0  0  0  0  0  0  0  0  0  0  0  0
    3.5400   -0.1420   -0.3380 C   0  0  0  0  0  0  0  0  0  0  0  0
    2.4910   -0.0210   -1.2130 C   0  0  0  0  0  0  0  0  0  0  0  0
    1.0800   -0.3870   -0.9740 C   0  0  0  0  0  0  0  0  0  0  0  0
    0.3900    0.6400   -0.0960 C   0  0  0  0  0  0  0  0  0  0  0  0
   -1.0390    0.2980    0.1670 C   0  0  0  0  0  0  0  0  0  0  0  0
   -1.8570    0.2080   -1.0830 C   0  0  0  0  0  0  0  0  0  0  0  0
   -3.2280   -0.1240   -0.7710 N   0  0  0  0  0  0  0  0  0  0  0  0
   -3.7920   -1.4360   -0.6700 C   0  0  0  0  0  0  0  0  0  0  0  0
   -3.1050   -2.4830   -0.8540 O   0  0  0  0  0  0  0  0  0  0  0  0
   -5.1740   -1.3350   -0.3450 N   0  0  0  0  0  0  0  0  0  0  0  0
   -5.4090    0.0320    0.0110 C   0  0  1  0  0  0  0  0  0  0  0  0
   -6.6670    0.5970   -0.5630 C   0  0  0  0  0  0  0  0  0  0  0  0
   -7.8460    0.0390    0.1660 C   0  0  0  0  0  0  0  0  0  0  0  0
   -7.1840   -0.2250    1.8180 S   0  0  2  0  0  0  0  0  0  0  0  0
   -7.2340   -1.6790    2.1880 O   0  0  0  0  0  0  0  0  0  0  0  0
   -7.8220    0.6600    2.8200 O   0  0  0  0  0  0  0  0  0  0  0  0
   -5.4690    0.2280    1.5170 C   0  0  0  0  0  0  0  0  0  0  0  0
   -4.2650    0.8120   -0.5080 C   0  0  0  0  0  0  0  0  0  0  0  0
   -4.2530    2.0610   -0.6710 O   0  0  0  0  0  0  0  0  0  0  0  0
    3.0170    0.5150   -2.3740 C   0  0  0  0  0  0  0  0  0  0  0  0
    4.3360    0.7070   -2.1970 N   0  0  0  0  0  0  0  0  0  0  0  0
    5.2910    1.2540   -3.1630 C   0  0  0  0  0  0  0  0  0  0  0  0
    4.6810    0.3150   -0.9640 C   0  0  0  0  0  0  0  0  0  0  0  0
    5.8970    0.3010   -0.2880 C   0  0  0  0  0  0  0  0  0  0  0  0
    5.9710   -0.1660    1.0030 C   0  0  0  0  0  0  0  0  0  0  0  0
    7.2820   -0.1770    1.7200 C   0  0  0  0  0  0  0  0  0  0  0  0
  1  2  1  0
  2  3  2  0
  2 28  1  0
  3  4  1  0
  4  5  1  0
  4 26  2  0
  5  6  1  0
  5 23  2  0
  6  7  1  0
  7  8  1  0
  8  9  1  0
  9 10  1  0
 10 11  1  0
 10 21  1  0
 11 12  2  0
 11 13  1  0
 13 14  1  0
 14 15  1  6
 14 20  1  0
 14 21  1  0
 15 16  1  0
 17 16  1  6
 17 18  2  0
 17 19  2  0
 17 20  1  0
 21 22  2  0
 23 24  1  0
 24 25  1  0
 24 26  1  0
 26 27  1  0
 27 28  2  0
 28 29  1  0
M  END
