
     RDKit          3D

 32 35  0  0  0  0  0  0  0  0999 V2000
    6.1000   -0.6340    3.0480 C   0  0  0  0  0  0  0  0  0  0  0  0
    5.8160   -0.0760    1.6750 C   0  0  0  0  0  0  0  0  0  0  0  0
    6.7510    0.4360    0.8050 C   0  0  0  0  0  0  0  0  0  0  0  0
    6.0940    0.8400   -0.3370 C   0  0  0  0  0  0  0  0  0  0  0  0
    4.7770    0.5510   -0.1030 C   0  0  0  0  0  0  0  0  0  0  0  0
    3.6020    0.7910   -1.0380 C   0  0  1  0  0  0  0  0  0  0  0  0
    4.2270    1.2440   -2.3310 C   0  0  0  0  0  0  0  0  0  0  0  0
    2.7550   -0.3470   -1.0620 N   0  0  0  0  0  0  0  0  0  0  0  0
    3.3710   -1.6950   -1.2970 C   0  0  0  0  0  0  0  0  0  0  0  0
    3.1170   -2.2590   -2.6320 C   0  0  0  0  0  0  0  0  0  0  0  0
    3.7530   -1.3150   -3.9530 Cl  0  0  0  0  0  0  0  0  0  0  0  0
    1.3810   -0.4600   -0.7480 C   0  0  0  0  0  0  0  0  0  0  0  0
    0.8780   -1.6760   -0.8930 O   0  0  0  0  0  0  0  0  0  0  0  0
    0.4320    0.5180   -0.2990 C   0  0  0  0  0  0  0  0  0  0  0  0
   -0.7790    0.0680   -0.1150 N   0  0  0  0  0  0  0  0  0  0  0  0
   -1.9030    0.7730    0.3120 C   0  0  0  0  0  0  0  0  0  0  0  0
   -1.7170    2.1230    0.5730 C   0  0  0  0  0  0  0  0  0  0  0  0
   -2.7690    2.8380    1.0000 N   0  0  0  0  0  0  0  0  0  0  0  0
   -3.9910    2.3160    1.1890 C   0  0  0  0  0  0  0  0  0  0  0  0
   -5.0670    3.2190    1.6660 C   0  0  0  0  0  0  0  0  0  0  0  0
   -5.0650    3.1990    3.1040 N   0  0  0  0  0  0  0  0  0  0  0  0
   -4.1540    1.0300    0.9360 N   0  0  0  0  0  0  0  0  0  0  0  0
   -3.1460    0.2080    0.4950 C   0  0  0  0  0  0  0  0  0  0  0  0
   -3.4120   -1.1510    0.2170 N   0  0  0  0  0  0  0  0  0  0  0  0
   -4.6220   -1.7100    0.8490 C   0  0  0  0  0  0  0  0  0  0  0  0
   -5.5580   -2.1160   -0.2420 C   0  0  0  0  0  0  0  0  0  0  0  0
   -4.9090   -3.0690   -1.2250 C   0  0  0  0  0  0  0  0  0  0  0  0
   -3.5910   -2.5800   -1.7100 C   0  0  0  0  0  0  0  0  0  0  0  0
   -2.6770   -2.0470   -0.6150 C   0  0  0  0  0  0  0  0  0  0  0  0
   -0.4440    2.6640    0.3890 N   0  0  0  0  0  0  0  0  0  0  0  0
    0.7230    1.8990   -0.0250 C   0  0  0  0  0  0  0  0  0  0  0  0
    4.6600    0.0170    1.0830 O   0  0  0  0  0  0  0  0  0  0  0  0
  1  2  1  0
  2  3  2  0
  2 32  1  0
  3  4  1  0
  4  5  2  0
  5  6  1  0
  5 32  1  0
  6  7  1  6
  6  8  1  0
  8  9  1  0
  8 12  1  0
  9 10  1  0
 10 11  1  0
 12 13  2  0
 12 14  1  0
 14 15  2  0
 14 31  1  0
 15 16  1  0
 16 17  2  0
 16 23  1  0
 17 18  1  0
 17 30  1  0
 18 19  2  0
 19 20  1  0
 19 22  1  0
 20 21  1  0
 22 23  2  0
 23 24  1  0
 24 25  1  0
 24 29  1  0
 25 26  1  0
 26 27  1  0
 27 28  1  0
 28 29  1  0
 30 31  1  0
M  CHG  1  21   1
M  END
