
     RDKit          3D

 33 36  0  0  0  0  0  0  0  0999 V2000
   -7.5210   -0.1600    1.6680 C   0  0  0  0  0  0  0  0  0  0  0  0
   -6.0800   -0.4300    1.5510 N   0  0  2  0  0  0  0  0  0  0  0  0
   -5.4290    0.6690    0.9140 C   0  0  0  0  0  0  0  0  0  0  0  0
   -4.1510    0.1860    0.2650 C   0  0  0  0  0  0  0  0  0  0  0  0
   -4.5420   -0.7020   -0.8010 N   0  0  0  0  0  0  0  0  0  0  0  0
   -3.9770   -0.6070   -2.0910 C   0  0  0  0  0  0  0  0  0  0  0  0
   -3.0180    0.2400   -2.6520 C   0  0  0  0  0  0  0  0  0  0  0  0
   -2.2140    1.3210   -2.2340 N   0  0  0  0  0  0  0  0  0  0  0  0
   -0.9290    1.0620   -1.7020 C   0  0  0  0  0  0  0  0  0  0  0  0
   -0.4520   -0.2350   -1.5930 C   0  0  0  0  0  0  0  0  0  0  0  0
    0.7710   -0.5090   -1.0880 C   0  0  0  0  0  0  0  0  0  0  0  0
    1.6250    0.5180   -0.6470 C   0  0  0  0  0  0  0  0  0  0  0  0
    2.8250    0.1980   -0.1560 O   0  0  0  0  0  0  0  0  0  0  0  0
    3.9500    0.7290    0.3670 C   0  0  1  0  0  0  0  0  0  0  0  0
    4.1520    0.1530    1.6380 O   0  0  0  0  0  0  0  0  0  0  0  0
    5.5040    0.0060    1.9170 C   0  0  2  0  0  0  0  0  0  0  0  0
    5.7800   -0.2580    3.3600 C   0  0  0  0  0  0  0  0  0  0  0  0
    7.1810   -0.3840    3.4920 O   0  0  0  0  0  0  0  0  0  0  0  0
    6.3140    1.1910    1.3920 C   0  0  1  0  0  0  0  0  0  0  0  0
    7.5730    1.1650    1.9810 O   0  0  0  0  0  0  0  0  0  0  0  0
    6.4050    0.9830   -0.1150 C   0  0  2  0  0  0  0  0  0  0  0  0
    6.7120    2.1500   -0.7880 O   0  0  0  0  0  0  0  0  0  0  0  0
    5.1190    0.3500   -0.5510 C   0  0  2  0  0  0  0  0  0  0  0  0
    4.8050    0.9000   -1.8120 O   0  0  0  0  0  0  0  0  0  0  0  0
    1.1530    1.7990   -0.7560 C   0  0  0  0  0  0  0  0  0  0  0  0
    2.0840    3.1940   -0.2560 Cl  0  0  0  0  0  0  0  0  0  0  0  0
   -0.1040    2.0680   -1.2750 C   0  0  0  0  0  0  0  0  0  0  0  0
   -3.1570   -0.4150   -3.8430 C   0  0  0  0  0  0  0  0  0  0  0  0
   -2.6550   -0.3340   -5.0040 O   0  0  0  0  0  0  0  0  0  0  0  0
   -4.1020   -1.2560   -3.3080 C   0  0  0  0  0  0  0  0  0  0  0  0
   -4.8070   -2.2220   -3.7140 O   0  0  0  0  0  0  0  0  0  0  0  0
   -5.5400   -1.7020   -0.4990 C   0  0  0  0  0  0  0  0  0  0  0  0
   -5.8320   -1.7200    0.9890 C   0  0  0  0  0  0  0  0  0  0  0  0
  2  1  1  6
  2  3  1  0
  2 33  1  0
  3  4  1  0
  4  5  1  0
  5  6  1  0
  5 32  1  0
  6  7  2  0
  6 30  1  0
  7  8  1  0
  7 28  1  0
  8  9  1  0
  9 10  2  0
  9 27  1  0
 10 11  1  0
 11 12  2  0
 12 13  1  0
 12 25  1  0
 14 13  1  6
 14 15  1  0
 14 23  1  0
 15 16  1  0
 16 17  1  1
 16 19  1  0
 17 18  1  0
 19 20  1  1
 19 21  1  0
 21 22  1  6
 21 23  1  0
 23 24  1  6
 25 26  1  0
 25 27  2  0
 28 29  2  0
 28 30  1  0
 30 31  2  0
 32 33  1  0
M  CHG  1   2   1
M  END
