
     RDKit          3D

 32 35  0  0  0  0  0  0  0  0999 V2000
   -2.8260    3.0930    1.5430 C   0  0  0  0  0  0  0  0  0  0  0  0
   -3.7450    2.2980    0.8210 O   0  0  0  0  0  0  0  0  0  0  0  0
   -3.3910    0.9890    0.5300 C   0  0  0  0  0  0  0  0  0  0  0  0
   -2.1660    0.4780    0.9370 C   0  0  0  0  0  0  0  0  0  0  0  0
   -1.7570   -0.8010    0.6830 C   0  0  0  0  0  0  0  0  0  0  0  0
   -0.4960   -1.3170    1.0530 N   0  0  0  0  0  0  0  0  0  0  0  0
    0.6810   -0.5880    1.2940 C   0  0  0  0  0  0  0  0  0  0  0  0
    0.6470    0.6710    1.1650 O   0  0  0  0  0  0  0  0  0  0  0  0
    1.9610   -1.2760    1.6960 C   0  0  0  0  0  0  0  0  0  0  0  0
    3.0010   -0.2390    1.8160 N   0  0  0  0  0  0  0  0  0  0  0  0
    4.2130   -0.7900    2.3840 C   0  0  0  0  0  0  0  0  0  0  0  0
    5.4630   -0.0670    1.9060 C   0  0  0  0  0  0  0  0  0  0  0  0
    5.5390   -0.2840    0.4690 N   0  0  0  0  0  0  0  0  0  0  0  0
    6.7060   -0.0850   -0.2690 C   0  0  0  0  0  0  0  0  0  0  0  0
    6.8850   -0.4650   -1.5780 C   0  0  0  0  0  0  0  0  0  0  0  0
    8.0760   -0.2210   -2.2370 C   0  0  0  0  0  0  0  0  0  0  0  0
    8.2610   -0.7180   -3.8910 Cl  0  0  0  0  0  0  0  0  0  0  0  0
    9.1140    0.4110   -1.5880 C   0  0  0  0  0  0  0  0  0  0  0  0
    8.8900    0.7650   -0.3010 N   0  0  0  0  0  0  0  0  0  0  0  0
    7.7620    0.5330    0.3180 N   0  0  0  0  0  0  0  0  0  0  0  0
    4.3100   -0.7150   -0.1450 C   0  0  0  0  0  0  0  0  0  0  0  0
    3.2230    0.2060    0.4380 C   0  0  0  0  0  0  0  0  0  0  0  0
   -2.6360   -1.6110   -0.0210 C   0  0  0  0  0  0  0  0  0  0  0  0
   -3.8600   -1.1380   -0.4420 C   0  0  0  0  0  0  0  0  0  0  0  0
   -4.2570    0.1520   -0.1790 C   0  0  0  0  0  0  0  0  0  0  0  0
   -5.4810    0.7240   -0.6190 N   0  0  0  0  0  0  0  0  0  0  0  0
   -6.5700    0.0640   -1.1990 C   0  0  0  0  0  0  0  0  0  0  0  0
   -7.2910    0.6860   -2.2260 C   0  0  0  0  0  0  0  0  0  0  0  0
   -8.3830    0.0690   -2.7860 C   0  0  0  0  0  0  0  0  0  0  0  0
   -8.7780   -1.1410   -2.3590 N   0  0  0  0  0  0  0  0  0  0  0  0
   -8.1040   -1.7710   -1.3670 C   0  0  0  0  0  0  0  0  0  0  0  0
   -6.9870   -1.1640   -0.7780 C   0  0  0  0  0  0  0  0  0  0  0  0
  1  2  1  0
  2  3  1  0
  3  4  2  0
  3 25  1  0
  4  5  1  0
  5  6  1  0
  5 23  2  0
  6  7  1  0
  7  8  2  0
  7  9  1  0
  9 10  1  0
 10 11  1  0
 10 22  1  0
 11 12  1  0
 12 13  1  0
 13 14  1  0
 13 21  1  0
 14 15  2  0
 14 20  1  0
 15 16  1  0
 16 17  1  0
 16 18  2  0
 18 19  1  0
 19 20  2  0
 21 22  1  0
 23 24  1  0
 24 25  2  0
 25 26  1  0
 26 27  1  0
 27 28  2  0
 27 32  1  0
 28 29  1  0
 29 30  2  0
 30 31  1  0
 31 32  2  0
M  CHG  1  30   1
M  END
