
     RDKit          3D

 32 36  0  0  0  0  0  0  0  0999 V2000
    3.5090   -1.7210   -1.7530 C   0  0  0  0  0  0  0  0  0  0  0  0
    3.0270   -0.3490   -1.3200 C   0  0  0  0  0  0  0  0  0  0  0  0
    3.0110    0.6230   -2.1560 N   0  0  0  0  0  0  0  0  0  0  0  0
    3.4390    0.3840   -3.4510 N   0  0  0  0  0  0  0  0  0  0  0  0
    2.5750   -0.2500    0.0240 N   0  0  0  0  0  0  0  0  0  0  0  0
    1.3670    0.1060    0.2060 C   0  0  0  0  0  0  0  0  0  0  0  0
    0.4540    0.4020   -0.9860 C   0  0  0  0  0  0  0  0  0  0  0  0
   -0.7980   -0.1190   -0.5960 N   0  0  0  0  0  0  0  0  0  0  0  0
   -1.0740   -1.4440   -0.7680 N   0  0  0  0  0  0  0  0  0  0  0  0
   -2.2370   -1.7330   -0.2080 C   0  0  0  0  0  0  0  0  0  0  0  0
   -2.7830   -3.0360    0.0260 C   0  0  1  0  0  0  0  0  0  0  0  0
   -3.2380   -3.9860   -0.9270 C   0  0  0  0  0  0  0  0  0  0  0  0
   -2.1270   -4.5120   -1.7340 C   0  0  0  0  0  0  0  0  0  0  0  0
   -1.1080   -4.7680   -0.6040 C   0  0  0  0  0  0  0  0  0  0  0  0
   -1.4650   -3.8200    0.5170 C   0  0  0  0  0  0  0  0  0  0  0  0
   -2.7020   -0.5460    0.3160 C   0  0  0  0  0  0  0  0  0  0  0  0
   -3.8880   -0.2490    0.9550 C   0  0  0  0  0  0  0  0  0  0  0  0
   -4.1570    1.0410    1.3260 C   0  0  0  0  0  0  0  0  0  0  0  0
   -3.2530    2.0640    1.0720 C   0  0  0  0  0  0  0  0  0  0  0  0
   -2.0410    1.7580    0.4230 C   0  0  0  0  0  0  0  0  0  0  0  0
   -1.1030    2.8070    0.0920 C   0  0  0  0  0  0  0  0  0  0  0  0
   -0.2770    3.3650    1.0550 C   0  0  0  0  0  0  0  0  0  0  0  0
    0.6470    4.3280    0.7830 C   0  0  0  0  0  0  0  0  0  0  0  0
    0.8150    4.8110   -0.5060 C   0  0  0  0  0  0  0  0  0  0  0  0
    1.8020    5.8120   -0.7410 N   0  0  0  0  0  0  0  0  0  0  0  0
    0.0010    4.2700   -1.4730 C   0  0  0  0  0  0  0  0  0  0  0  0
   -0.9470    3.2830   -1.1850 C   0  0  0  0  0  0  0  0  0  0  0  0
   -1.7900    0.4670    0.0600 C   0  0  0  0  0  0  0  0  0  0  0  0
    0.9300    0.2020    1.5390 N   0  0  0  0  0  0  0  0  0  0  0  0
    1.5830    0.7990    2.6410 C   0  0  2  0  0  0  0  0  0  0  0  0
    2.9420    0.8950    3.0710 C   0  0  0  0  0  0  0  0  0  0  0  0
    2.1370   -0.2390    3.6750 C   0  0  0  0  0  0  0  0  0  0  0  0
  1  2  1  0
  2  3  2  3
  2  5  1  0
  3  4  1  0
  5  6  2  3
  6  7  1  0
  6 29  1  0
  7  8  1  0
  8  9  1  0
  8 28  1  0
  9 10  2  0
 11 10  1  6
 10 16  1  0
 11 12  1  0
 11 15  1  0
 12 13  1  0
 13 14  1  0
 14 15  1  0
 16 17  2  0
 16 28  1  0
 17 18  1  0
 18 19  2  0
 19 20  1  0
 20 21  1  0
 20 28  2  0
 21 22  2  0
 21 27  1  0
 22 23  1  0
 23 24  2  0
 24 25  1  0
 24 26  1  0
 26 27  2  0
 30 29  1  6
 30 31  1  0
 30 32  1  0
 31 32  1  0
M  CHG  1   5   1
M  END
