
     RDKit          3D

 39 41  0  0  0  0  0  0  0  0999 V2000
   -5.9620   -1.5510    2.8480 C   0  0  0  0  0  0  0  0  0  0  0  0
   -5.2350   -1.4990    1.6140 O   0  0  0  0  0  0  0  0  0  0  0  0
   -4.1590   -2.3100    1.3590 C   0  0  0  0  0  0  0  0  0  0  0  0
   -3.7880   -3.1230    2.2140 O   0  0  0  0  0  0  0  0  0  0  0  0
   -3.3930   -2.2570    0.0600 C   0  0  1  0  0  0  0  0  0  0  0  0
   -4.4480   -2.7090   -0.9770 C   0  0  0  0  0  0  0  0  0  0  0  0
   -4.0700   -2.3370   -2.3710 C   0  0  0  0  0  0  0  0  0  0  0  0
   -4.0100   -0.8080   -2.4960 C   0  0  0  0  0  0  0  0  0  0  0  0
   -2.8170   -0.4240   -1.6060 C   0  0  0  0  0  0  0  0  0  0  0  0
   -3.1330   -0.8450   -0.2180 C   0  0  2  0  0  0  0  0  0  0  0  0
   -2.3490   -0.1670    0.7460 O   0  0  0  0  0  0  0  0  0  0  0  0
   -2.7940    1.1210    0.9330 C   0  0  0  0  0  0  0  0  0  0  0  0
   -1.8930    2.2300    0.6820 C   0  0  0  0  0  0  0  0  0  0  0  0
   -1.9360    3.3910    1.4150 C   0  0  0  0  0  0  0  0  0  0  0  0
   -3.0610    3.9280    2.2170 C   0  0  0  0  0  0  0  0  0  0  0  0
   -0.6540    4.0490    1.2810 N   0  0  0  0  0  0  0  0  0  0  0  0
    0.2090    3.0600    0.6780 C   0  0  1  0  0  0  0  0  0  0  0  0
   -0.8200    2.4360   -0.2590 C   0  0  0  0  0  0  0  0  0  0  0  0
   -0.5190    2.2790   -1.4580 O   0  0  0  0  0  0  0  0  0  0  0  0
    1.4000    3.5980   -0.0200 C   0  0  1  0  0  0  0  0  0  0  0  0
    2.0770    4.6150    0.8420 C   0  0  0  0  0  0  0  0  0  0  0  0
    2.3000    2.4150   -0.3270 C   0  0  0  0  0  0  0  0  0  0  0  0
    3.4420    2.8590   -1.1670 C   0  0  0  0  0  0  0  0  0  0  0  0
    4.2860    1.7000   -1.6440 C   0  0  0  0  0  0  0  0  0  0  0  0
    4.8390    1.9670   -2.7680 O   0  0  0  0  0  0  0  0  0  0  0  0
    4.3570    0.6120   -0.8960 O   0  0  0  0  0  0  0  0  0  0  0  0
    3.9580   -0.6860   -0.8210 C   0  0  1  0  0  0  0  0  0  0  0  0
    5.1550   -1.4680   -0.2360 C   0  0  2  0  0  0  0  0  0  0  0  0
    5.4840   -0.9330    1.1290 C   0  0  0  0  0  0  0  0  0  0  0  0
    6.3830   -1.1510   -1.1030 C   0  0  0  0  0  0  0  0  0  0  0  0
    6.7040    0.1780   -1.1170 O   0  0  0  0  0  0  0  0  0  0  0  0
    2.7470   -0.8850    0.1040 C   0  0  0  0  0  0  0  0  0  0  0  0
    2.5490   -2.3120    0.4710 C   0  0  0  0  0  0  0  0  0  0  0  0
    1.4190   -2.9620    0.3550 C   0  0  0  0  0  0  0  0  0  0  0  0
    0.1140   -2.4860   -0.1400 C   0  0  1  0  0  0  0  0  0  0  0  0
    0.1670   -2.7200   -1.6570 C   0  0  0  0  0  0  0  0  0  0  0  0
   -1.0220   -3.1920    0.5020 C   0  0  0  0  0  0  0  0  0  0  0  0
   -0.6680   -3.8750    1.5470 O   0  0  0  0  0  0  0  0  0  0  0  0
   -2.3700   -3.2190    0.1450 N   0  0  0  0  0  0  0  0  0  0  0  0
  1  2  1  0
  2  3  1  0
  3  4  2  0
  5  3  1  1
  5  6  1  0
  5 10  1  0
  5 39  1  0
  6  7  1  0
  7  8  1  0
  8  9  1  0
 10  9  1  6
 10 11  1  0
 11 12  1  0
 12 13  1  0
 13 14  2  0
 13 18  1  0
 14 15  1  0
 14 16  1  0
 17 16  1  6
 17 18  1  0
 17 20  1  0
 18 19  2  0
 20 21  1  1
 20 22  1  0
 22 23  1  0
 23 24  1  0
 24 25  2  0
 24 26  1  0
 26 27  1  0
 27 28  1  0
 27 32  1  1
 28 29  1  1
 28 30  1  0
 30 31  1  0
 32 33  1  0
 33 34  2  0
 34 35  1  0
 35 36  1  6
 35 37  1  0
 37 38  2  0
 37 39  1  0
M  END
