
     RDKit          3D

 40 41  0  0  0  0  0  0  0  0999 V2000
   -4.7340    3.3140    1.4220 C   0  0  0  0  0  0  0  0  0  0  0  0
   -4.4090    1.8690    1.7380 C   0  0  0  0  0  0  0  0  0  0  0  0
   -4.4440    1.0180    0.5060 C   0  0  1  0  0  0  0  0  0  0  0  0
   -5.9130    1.2260    0.0000 C   0  0  0  0  0  0  0  0  0  0  0  0
   -3.6280    1.3320   -0.5290 O   0  0  0  0  0  0  0  0  0  0  0  0
   -2.9440    2.3410   -1.0780 C   0  0  0  0  0  0  0  0  0  0  0  0
   -3.3810    3.1210   -2.0170 O   0  0  0  0  0  0  0  0  0  0  0  0
   -1.5520    2.7470   -0.7040 C   0  0  2  0  0  0  0  0  0  0  0  0
   -1.4970    3.6860    0.4620 C   0  0  0  0  0  0  0  0  0  0  0  0
   -0.8070    3.3140   -1.8940 C   0  0  0  0  0  0  0  0  0  0  0  0
   -0.8310    1.4170   -0.3940 C   0  0  0  0  0  0  0  0  0  0  0  0
    0.5400    1.6090   -0.0170 C   0  0  0  0  0  0  0  0  0  0  0  0
    1.6030    0.7640    0.0270 C   0  0  0  0  0  0  0  0  0  0  0  0
    2.8660    1.2760    0.4500 C   0  0  0  0  0  0  0  0  0  0  0  0
    4.0890    1.0610    0.6720 C   0  0  0  0  0  0  0  0  0  0  0  0
    5.1190    0.0800    0.6450 C   0  0  0  0  0  0  0  0  0  0  0  0
    6.3670    0.4450    1.0260 C   0  0  0  0  0  0  0  0  0  0  0  0
    6.6470    1.7420    1.4340 O   0  0  0  0  0  0  0  0  0  0  0  0
    7.5410    2.5060    0.6610 C   0  0  0  0  0  0  0  0  0  0  0  0
    7.3620   -0.4800    1.0070 O   0  0  0  0  0  0  0  0  0  0  0  0
    8.3050   -0.6370    2.0480 C   0  0  0  0  0  0  0  0  0  0  0  0
    1.3800   -0.6760   -0.3630 C   0  0  1  0  0  0  0  0  0  0  0  0
    1.6020   -0.8080   -1.8210 C   0  0  0  0  0  0  0  0  0  0  0  0
    1.7240   -2.1750   -2.3860 C   0  0  0  0  0  0  0  0  0  0  0  0
    2.1790   -3.1140   -1.4550 O   0  0  0  0  0  0  0  0  0  0  0  0
    3.1160   -2.4260   -0.6480 C   0  0  0  0  0  0  0  0  0  0  0  0
    2.3160   -1.6400    0.3620 C   0  0  0  0  0  0  0  0  0  0  0  0
    0.0240   -1.1350    0.1210 C   0  0  0  0  0  0  0  0  0  0  0  0
    0.0110   -0.8090    1.4000 O   0  0  0  0  0  0  0  0  0  0  0  0
   -1.0680   -1.7400   -0.3920 N   0  0  0  0  0  0  0  0  0  0  0  0
   -1.5580   -3.0870   -0.5990 C   0  0  2  0  0  0  0  0  0  0  0  0
   -0.6320   -4.2100   -0.4370 C   0  0  0  0  0  0  0  0  0  0  0  0
   -2.1460   -3.1680   -2.0030 C   0  0  0  0  0  0  0  0  0  0  0  0
   -2.6340   -4.4710   -2.2320 O   0  0  0  0  0  0  0  0  0  0  0  0
   -2.7880   -3.2220    0.3540 C   0  0  0  0  0  0  0  0  0  0  0  0
   -2.7520   -2.2720    1.4110 N   0  0  0  0  0  0  0  0  0  0  0  0
   -3.3640   -1.0170    1.5380 C   0  0  0  0  0  0  0  0  0  0  0  0
   -2.8250   -0.2520    2.4220 O   0  0  0  0  0  0  0  0  0  0  0  0
   -4.5000   -0.4730    0.8270 C   0  0  2  0  0  0  0  0  0  0  0  0
   -4.6070   -1.0960   -0.4120 O   0  0  0  0  0  0  0  0  0  0  0  0
  1  2  1  0
  2  3  1  0
  3  4  1  6
  3  5  1  0
  3 39  1  0
  5  6  1  0
  6  7  2  0
  6  8  1  0
  8  9  1  1
  8 10  1  0
  8 11  1  0
 11 12  1  0
 12 13  2  0
 13 14  1  0
 13 22  1  0
 14 15  2  3
 15 16  1  0
 16 17  2  3
 17 18  1  0
 17 20  1  0
 18 19  1  0
 20 21  1  0
 22 23  1  6
 22 27  1  0
 22 28  1  0
 23 24  1  0
 24 25  1  0
 25 26  1  0
 26 27  1  0
 28 29  2  0
 28 30  1  0
 30 31  1  0
 31 32  1  1
 31 33  1  0
 31 35  1  0
 33 34  1  0
 35 36  1  0
 36 37  1  0
 37 38  2  0
 37 39  1  0
 39 40  1  6
M  END
