
     RDKit          3D

 40 45  0  0  0  0  0  0  0  0999 V2000
   -3.6830   -2.8610    0.5560 C   0  0  0  0  0  0  0  0  0  0  0  0
   -3.6910   -1.4840    0.0240 C   0  0  0  0  0  0  0  0  0  0  0  0
   -2.5250   -0.7780    0.0650 C   0  0  0  0  0  0  0  0  0  0  0  0
   -1.3190   -1.1000    0.8690 C   0  0  0  0  0  0  0  0  0  0  0  0
   -0.2360   -0.1500    0.4680 N   0  0  2  0  0  0  0  0  0  0  0  0
    0.2200   -0.5410   -0.8050 C   0  0  0  0  0  0  0  0  0  0  0  0
    1.6110    0.0980   -1.1850 C   0  0  0  0  0  0  0  0  0  0  0  0
    2.4560   -0.3390   -0.1060 C   0  0  1  0  0  0  0  0  0  0  0  0
    3.8990   -0.3650   -0.2090 N   0  0  0  0  0  0  0  0  0  0  0  0
    4.6110   -0.9060    0.7220 C   0  0  0  0  0  0  0  0  0  0  0  0
    3.9460   -1.7350    1.7400 N   0  0  0  0  0  0  0  0  0  0  0  0
    4.2430   -2.3290    2.5930 C   0  0  0  0  0  0  0  0  0  0  0  0
    5.6550   -2.5140    3.0780 N   0  0  0  0  0  0  0  0  0  0  0  0
    6.3430   -1.7270    2.1380 C   0  0  0  0  0  0  0  0  0  0  0  0
    8.1790   -1.5350    2.1150 S   0  0  0  0  0  0  0  0  0  0  0  0
    8.2780   -0.4510    0.6590 C   0  0  0  0  0  0  0  0  0  0  0  0
    9.4660    0.0700    0.1420 C   0  0  0  0  0  0  0  0  0  0  0  0
   10.0720   -0.5030   -1.0870 C   0  0  1  0  0  0  0  0  0  0  0  0
   11.2760    0.3820   -1.2680 F   0  0  0  0  0  0  0  0  0  0  0  0
   10.6180   -1.7270   -0.9920 F   0  0  0  0  0  0  0  0  0  0  0  0
    9.3380   -0.1010   -2.1530 F   0  0  0  0  0  0  0  0  0  0  0  0
    6.9330   -0.3530    0.3510 C   0  0  0  0  0  0  0  0  0  0  0  0
    6.0080   -1.0200    1.1280 C   0  0  0  0  0  0  0  0  0  0  0  0
    2.0280    0.4350    1.1850 C   0  0  0  0  0  0  0  0  0  0  0  0
    0.7140   -0.2210    1.5750 C   0  0  0  0  0  0  0  0  0  0  0  0
   -2.4540    0.5020   -0.5530 C   0  0  0  0  0  0  0  0  0  0  0  0
   -3.6090    0.9750   -1.1470 C   0  0  0  0  0  0  0  0  0  0  0  0
   -4.7550    0.2260   -1.1470 C   0  0  0  0  0  0  0  0  0  0  0  0
   -4.8430   -0.9850   -0.5990 C   0  0  0  0  0  0  0  0  0  0  0  0
   -6.2250   -1.4970   -0.7810 C   0  0  0  0  0  0  0  0  0  0  0  0
   -6.7300   -0.4150   -1.4180 C   0  0  0  0  0  0  0  0  0  0  0  0
   -8.1730   -0.4510   -1.8190 C   0  0  0  0  0  0  0  0  0  0  0  0
   -9.3650   -0.5000   -2.1380 N   0  0  0  0  0  0  0  0  0  0  0  0
   -5.9580    0.5790   -1.6520 N   0  0  0  0  0  0  0  0  0  0  0  0
   -6.2210    1.8830   -2.2700 C   0  0  0  0  0  0  0  0  0  0  0  0
   -6.5380    2.9460   -1.3750 C   0  0  0  0  0  0  0  0  0  0  0  0
   -7.7290    3.3370   -0.8450 C   0  0  0  0  0  0  0  0  0  0  0  0
   -7.6190    4.3870   -0.1080 N   0  0  0  0  0  0  0  0  0  0  0  0
   -6.3160    4.7730   -0.0960 N   0  0  0  0  0  0  0  0  0  0  0  0
   -5.6090    3.9380   -0.8510 C   0  0  0  0  0  0  0  0  0  0  0  0
  1  2  1  0
  2  3  2  0
  2 29  1  0
  3  4  1  0
  3 26  1  0
  5  4  1  1
  5  6  1  0
  5 25  1  0
  6  7  1  0
  7  8  1  0
  8  9  1  6
  8 24  1  0
  9 10  1  0
 10 11  2  0
 10 23  1  0
 11 12  1  0
 12 13  2  0
 13 14  1  0
 14 15  1  0
 14 23  2  0
 15 16  1  0
 16 17  1  0
 16 22  2  0
 17 18  1  0
 18 19  1  6
 18 20  1  0
 18 21  1  0
 22 23  1  0
 24 25  1  0
 26 27  2  0
 27 28  1  0
 28 29  2  0
 28 34  1  0
 29 30  1  0
 30 31  2  0
 31 32  1  0
 31 34  1  0
 32 33  3  0
 34 35  1  0
 35 36  1  0
 36 37  1  0
 36 40  2  0
 37 38  2  0
 38 39  1  0
 39 40  1  0
M  CHG  1   5   1
M  END
