
     RDKit          3D

 40 42  0  0  0  0  0  0  0  0999 V2000
    6.7290   -0.8670    3.5450 C   0  0  0  0  0  0  0  0  0  0  0  0
    7.4980   -1.2660    2.3150 C   0  0  0  0  0  0  0  0  0  0  0  0
    7.4240   -0.1620    1.2840 C   0  0  0  0  0  0  0  0  0  0  0  0
    5.9770    0.0790    0.9220 C   0  0  0  0  0  0  0  0  0  0  0  0
    5.1660    0.9770    1.5620 C   0  0  0  0  0  0  0  0  0  0  0  0
    3.9360    0.8970    0.9420 C   0  0  0  0  0  0  0  0  0  0  0  0
    4.0500   -0.0580   -0.0620 C   0  0  0  0  0  0  0  0  0  0  0  0
    2.9960   -0.4870   -0.9920 C   0  0  0  0  0  0  0  0  0  0  0  0
    3.3170   -1.4010   -1.7960 O   0  0  0  0  0  0  0  0  0  0  0  0
    1.7200    0.0480   -1.0220 N   0  0  0  0  0  0  0  0  0  0  0  0
    0.6660   -0.3870   -1.9570 C   0  0  1  0  0  0  0  0  0  0  0  0
    1.3470   -0.0320   -3.3340 C   0  0  0  0  0  0  0  0  0  0  0  0
    0.6300   -1.8550   -2.0000 C   0  0  0  0  0  0  0  0  0  0  0  0
   -0.6950   -2.5630   -1.8340 C   0  0  1  0  0  0  0  0  0  0  0  0
   -1.0380   -3.2060   -3.1860 C   0  0  0  0  0  0  0  0  0  0  0  0
   -0.6190   -3.6200   -0.7890 C   0  0  0  0  0  0  0  0  0  0  0  0
   -1.8380   -3.8530    0.0510 C   0  0  0  0  0  0  0  0  0  0  0  0
   -2.1950   -4.9840    0.3210 O   0  0  0  0  0  0  0  0  0  0  0  0
   -2.5690   -2.7140    0.5240 C   0  0  1  0  0  0  0  0  0  0  0  0
   -1.5480   -1.6500    0.8040 C   0  0  0  0  0  0  0  0  0  0  0  0
   -3.6930   -2.4470   -0.4210 C   0  0  0  0  0  0  0  0  0  0  0  0
   -4.4940   -1.3580   -0.0870 O   0  0  0  0  0  0  0  0  0  0  0  0
   -3.2830   -2.7360    1.8630 C   0  0  0  0  0  0  0  0  0  0  0  0
   -3.2780   -3.7600    2.5160 O   0  0  0  0  0  0  0  0  0  0  0  0
   -3.8560   -1.5060    2.1260 O   0  0  0  0  0  0  0  0  0  0  0  0
   -3.4150   -0.3040    2.5970 C   0  0  0  0  0  0  0  0  0  0  0  0
   -3.9070    0.9620    2.0350 C   0  0  0  0  0  0  0  0  0  0  0  0
   -3.3150    1.6480    0.8900 C   0  0  0  0  0  0  0  0  0  0  0  0
   -2.0100    2.3320    0.9960 C   0  0  2  0  0  0  0  0  0  0  0  0
   -1.7090    2.5410    2.3280 O   0  0  0  0  0  0  0  0  0  0  0  0
   -2.1740    3.7260    0.3730 C   0  0  0  0  0  0  0  0  0  0  0  0
   -2.4720    3.4910   -1.0710 C   0  0  1  0  0  0  0  0  0  0  0  0
   -2.4860    4.8880   -1.7180 C   0  0  0  0  0  0  0  0  0  0  0  0
   -3.4420    5.6960   -1.1520 O   0  0  0  0  0  0  0  0  0  0  0  0
   -1.5780    2.6360   -1.8400 C   0  0  0  0  0  0  0  0  0  0  0  0
   -0.9290    1.5200   -1.0650 N   0  0  0  0  0  0  0  0  0  0  0  0
   -0.8020    1.7010    0.3550 C   0  0  0  0  0  0  0  0  0  0  0  0
   -0.5260    0.4340   -1.8680 C   0  0  0  0  0  0  0  0  0  0  0  0
   -1.4500    0.1040   -2.7330 O   0  0  0  0  0  0  0  0  0  0  0  0
    5.2830   -0.4870   -0.0030 O   0  0  0  0  0  0  0  0  0  0  0  0
  1  2  1  0
  2  3  1  0
  3  4  1  0
  4  5  2  0
  4 40  1  0
  5  6  1  0
  6  7  2  0
  7  8  1  0
  7 40  1  0
  8  9  2  0
  8 10  1  0
 10 11  1  0
 11 12  1  6
 11 13  1  0
 11 38  1  0
 13 14  1  0
 14 15  1  6
 14 16  1  0
 16 17  1  0
 17 18  2  0
 17 19  1  0
 19 20  1  1
 19 21  1  0
 19 23  1  0
 21 22  1  0
 23 24  2  0
 23 25  1  0
 25 26  1  0
 26 27  1  0
 27 28  1  0
 28 29  1  0
 29 30  1  1
 29 31  1  0
 29 37  1  0
 31 32  1  0
 32 33  1  6
 32 35  1  0
 33 34  1  0
 35 36  1  0
 36 37  1  0
 36 38  1  0
 38 39  2  0
M  END
