
     RDKit          3D

 33 37  0  0  0  0  0  0  0  0999 V2000
   -6.3600    4.4520    1.0810 N   0  0  0  0  0  0  0  0  0  0  0  0
   -5.8620    3.3140    1.0770 C   0  0  0  0  0  0  0  0  0  0  0  0
   -5.2740    1.9960    1.0800 C   0  0  0  0  0  0  0  0  0  0  0  0
   -3.9820    1.8130    1.5690 C   0  0  0  0  0  0  0  0  0  0  0  0
   -3.6690    0.3860    1.3860 C   0  0  0  0  0  0  0  0  0  0  0  0
   -2.5590   -0.0800    1.7470 C   0  0  0  0  0  0  0  0  0  0  0  0
   -2.6330   -1.6710    1.3670 C   0  0  0  0  0  0  0  0  0  0  0  0
   -1.4300   -2.4160    1.6360 C   0  0  0  0  0  0  0  0  0  0  0  0
   -0.1540   -1.8020    1.3510 N   0  0  1  0  0  0  0  0  0  0  0  0
    0.6280   -1.4340    2.4450 C   0  0  0  0  0  0  0  0  0  0  0  0
    2.0260   -0.9410    2.1320 C   0  0  0  0  0  0  0  0  0  0  0  0
    2.5930   -1.3240    0.8500 C   0  0  2  0  0  0  0  0  0  0  0  0
    2.7970   -0.2670   -0.1310 N   0  0  0  0  0  0  0  0  0  0  0  0
    1.9650    0.9070   -0.2490 C   0  0  0  0  0  0  0  0  0  0  0  0
    1.1170    1.1990    0.7600 N   0  0  0  0  0  0  0  0  0  0  0  0
    0.3440    2.3500    0.6740 C   0  0  0  0  0  0  0  0  0  0  0  0
    0.4470    3.1400   -0.3830 N   0  0  0  0  0  0  0  0  0  0  0  0
    1.2960    2.8200   -1.3640 C   0  0  0  0  0  0  0  0  0  0  0  0
    1.6210    3.6080   -2.9540 S   0  0  0  0  0  0  0  0  0  0  0  0
    2.8460    2.3550   -3.5460 C   0  0  0  0  0  0  0  0  0  0  0  0
    3.5250    2.3820   -4.8090 C   0  0  0  0  0  0  0  0  0  0  0  0
    4.4190    1.2030   -4.9580 C   0  0  1  0  0  0  0  0  0  0  0  0
    5.4060    0.9780   -4.0760 F   0  0  0  0  0  0  0  0  0  0  0  0
    3.5690    0.0610   -5.0580 F   0  0  0  0  0  0  0  0  0  0  0  0
    5.0550    1.2670   -6.2200 F   0  0  0  0  0  0  0  0  0  0  0  0
    2.8640    1.5140   -2.4830 C   0  0  0  0  0  0  0  0  0  0  0  0
    2.0890    1.7380   -1.3790 C   0  0  0  0  0  0  0  0  0  0  0  0
    1.9520   -2.5080    0.1750 C   0  0  0  0  0  0  0  0  0  0  0  0
    0.5500   -2.7640    0.4730 C   0  0  0  0  0  0  0  0  0  0  0  0
   -3.6920   -2.1580    0.8220 C   0  0  0  0  0  0  0  0  0  0  0  0
   -4.8770   -1.4700    0.4880 C   0  0  0  0  0  0  0  0  0  0  0  0
   -4.8050   -0.1340    0.8050 C   0  0  0  0  0  0  0  0  0  0  0  0
   -5.7140    0.8630    0.6540 N   0  0  0  0  0  0  0  0  0  0  0  0
  1  2  3  0
  2  3  1  0
  3  4  2  0
  3 33  1  0
  4  5  1  0
  5  6  2  0
  5 32  1  0
  6  7  1  0
  7  8  1  0
  7 30  2  0
  9  8  1  1
  9 10  1  0
  9 29  1  0
 10 11  1  0
 11 12  1  0
 12 13  1  6
 12 28  1  0
 13 14  1  0
 14 15  2  0
 14 27  1  0
 15 16  1  0
 16 17  2  0
 17 18  1  0
 18 19  1  0
 18 27  2  0
 19 20  1  0
 20 21  1  0
 20 26  2  0
 21 22  1  0
 22 23  1  1
 22 24  1  0
 22 25  1  0
 26 27  1  0
 28 29  1  0
 30 31  1  0
 31 32  2  0
 32 33  1  0
M  CHG  1   9   1
M  END
