
     RDKit          3D

 33 35  0  0  0  0  0  0  0  0999 V2000
   -2.8260   -2.0070   -1.4090 C   0  0  0  0  0  0  0  0  0  0  0  0
   -2.5920   -0.5360   -1.1600 C   0  0  0  0  0  0  0  0  0  0  0  0
   -1.7650   -0.2400   -0.0470 N   0  0  0  0  0  0  0  0  0  0  0  0
   -0.3480   -0.1250   -0.2790 C   0  0  0  0  0  0  0  0  0  0  0  0
    0.4870    0.1280    0.6270 O   0  0  0  0  0  0  0  0  0  0  0  0
    0.2250   -0.3040   -1.6390 C   0  0  0  0  0  0  0  0  0  0  0  0
    1.6530   -0.1530   -1.6760 N   0  0  0  0  0  0  0  0  0  0  0  0
    2.2200    1.1360   -1.9220 C   0  0  0  0  0  0  0  0  0  0  0  0
    2.4780    1.9140   -0.7230 N   0  0  0  0  0  0  0  0  0  0  0  0
    3.3480    1.6140    0.3840 C   0  0  0  0  0  0  0  0  0  0  0  0
    3.0440    2.6000    1.4750 C   0  0  0  0  0  0  0  0  0  0  0  0
    2.1540    3.6140    0.8020 C   0  0  0  0  0  0  0  0  0  0  0  0
    1.6670    4.8090    1.2890 C   0  0  0  0  0  0  0  0  0  0  0  0
    0.8800    5.5800    0.5240 N   0  0  0  0  0  0  0  0  0  0  0  0
    0.5570    5.1960   -0.7220 C   0  0  0  0  0  0  0  0  0  0  0  0
    1.0370    4.0080   -1.2140 C   0  0  0  0  0  0  0  0  0  0  0  0
    1.8600    3.1630   -0.4670 C   0  0  0  0  0  0  0  0  0  0  0  0
    2.4660   -1.2800   -1.4770 C   0  0  0  0  0  0  0  0  0  0  0  0
    3.7120   -1.1440   -1.5090 O   0  0  0  0  0  0  0  0  0  0  0  0
    1.9150   -2.6010   -1.2350 C   0  0  0  0  0  0  0  0  0  0  0  0
    1.6510   -3.0390    0.0490 C   0  0  0  0  0  0  0  0  0  0  0  0
    1.1260   -4.2930    0.3190 C   0  0  0  0  0  0  0  0  0  0  0  0
    0.8660   -4.7150    1.6520 N   0  0  0  0  0  0  0  0  0  0  0  0
    0.8500   -5.1520   -0.7410 C   0  0  0  0  0  0  0  0  0  0  0  0
    1.1020   -4.7430   -2.0300 C   0  0  0  0  0  0  0  0  0  0  0  0
    0.8230   -5.6070   -3.0520 F   0  0  0  0  0  0  0  0  0  0  0  0
    1.6250   -3.4890   -2.2620 C   0  0  0  0  0  0  0  0  0  0  0  0
    1.9270   -3.0180   -3.9140 Cl  0  0  0  0  0  0  0  0  0  0  0  0
   -2.1400   -0.0400    1.3150 C   0  0  2  0  0  0  0  0  0  0  0  0
   -1.7110    1.3680    1.7620 C   0  0  0  0  0  0  0  0  0  0  0  0
   -1.2970   -1.0040    2.1540 C   0  0  0  0  0  0  0  0  0  0  0  0
   -3.5380   -0.2020    1.7290 C   0  0  0  0  0  0  0  0  0  0  0  0
   -4.5550    0.6900    1.0960 C   0  0  0  0  0  0  0  0  0  0  0  0
  1  2  1  0
  2  3  1  0
  3  4  1  0
  3 29  1  0
  4  5  2  0
  4  6  1  0
  6  7  1  0
  7  8  1  0
  7 18  1  0
  8  9  1  0
  9 10  1  0
  9 17  1  0
 10 11  1  0
 11 12  1  0
 12 13  2  0
 12 17  1  0
 13 14  1  0
 14 15  2  0
 15 16  1  0
 16 17  2  0
 18 19  2  0
 18 20  1  0
 20 21  2  0
 20 27  1  0
 21 22  1  0
 22 23  1  0
 22 24  2  0
 24 25  1  0
 25 26  1  0
 25 27  2  0
 27 28  1  0
 29 30  1  1
 29 31  1  0
 29 32  1  0
 32 33  1  0
M  CHG  1  14   1
M  END
