
     RDKit          3D

 33 35  0  0  0  0  0  0  0  0999 V2000
   -4.5500   -3.4410    0.4560 C   0  0  0  0  0  0  0  0  0  0  0  0
   -3.9620   -3.0560   -0.8810 C   0  0  0  0  0  0  0  0  0  0  0  0
   -2.8590   -2.0590   -0.7660 C   0  0  0  0  0  0  0  0  0  0  0  0
   -1.7020   -2.4940   -0.8270 O   0  0  0  0  0  0  0  0  0  0  0  0
   -3.1090   -0.6360   -0.5920 C   0  0  0  0  0  0  0  0  0  0  0  0
   -2.1070    0.3200   -0.4900 C   0  0  0  0  0  0  0  0  0  0  0  0
   -0.7380   -0.0420   -0.4760 N   0  0  0  0  0  0  0  0  0  0  0  0
    0.4040    0.8530   -0.5400 C   0  0  1  0  0  0  0  0  0  0  0  0
    0.4400    1.6150   -1.8450 C   0  0  0  0  0  0  0  0  0  0  0  0
    1.6470    2.5220   -1.8580 C   0  0  0  0  0  0  0  0  0  0  0  0
    0.5320    1.7400    0.5930 C   0  0  0  0  0  0  0  0  0  0  0  0
   -0.1380    1.5350    1.8100 C   0  0  0  0  0  0  0  0  0  0  0  0
    0.0200    2.4030    2.8780 C   0  0  0  0  0  0  0  0  0  0  0  0
    0.8260    3.4790    2.7830 N   0  0  0  0  0  0  0  0  0  0  0  0
    1.4650    3.6700    1.6140 C   0  0  0  0  0  0  0  0  0  0  0  0
    1.3100    2.8260    0.5790 N   0  0  0  0  0  0  0  0  0  0  0  0
    1.6060   -0.0180   -0.6320 N   0  0  0  0  0  0  0  0  0  0  0  0
    2.3870   -0.1180   -1.6980 N   0  0  0  0  0  0  0  0  0  0  0  0
    3.3950   -0.9740   -1.5250 C   0  0  0  0  0  0  0  0  0  0  0  0
    4.4580   -1.3280   -2.5160 C   0  0  0  0  0  0  0  0  0  0  0  0
    3.2520   -1.4630   -0.2530 C   0  0  0  0  0  0  0  0  0  0  0  0
    4.1240   -2.4500    0.4290 C   0  0  0  0  0  0  0  0  0  0  0  0
    5.4150   -1.8380    0.9150 C   0  0  0  0  0  0  0  0  0  0  0  0
    6.1650   -1.3040   -0.1190 O   0  0  0  0  0  0  0  0  0  0  0  0
    2.1090   -0.8410    0.2930 C   0  0  0  0  0  0  0  0  0  0  0  0
    1.5990   -1.0920    1.6580 C   0  0  0  0  0  0  0  0  0  0  0  0
   -2.4010    1.6580   -0.3490 C   0  0  0  0  0  0  0  0  0  0  0  0
   -3.7170    2.0830   -0.3050 C   0  0  0  0  0  0  0  0  0  0  0  0
   -4.0780    3.8050   -0.1230 Cl  0  0  0  0  0  0  0  0  0  0  0  0
   -4.7270    1.1590   -0.4020 C   0  0  0  0  0  0  0  0  0  0  0  0
   -6.1300    1.6590   -0.3490 C   0  0  0  0  0  0  0  0  0  0  0  0
   -4.4240   -0.1710   -0.5420 C   0  0  0  0  0  0  0  0  0  0  0  0
   -5.4400   -1.0530   -0.6200 F   0  0  0  0  0  0  0  0  0  0  0  0
  1  2  1  0
  2  3  1  0
  3  4  2  0
  3  5  1  0
  5  6  2  0
  5 32  1  0
  6  7  1  0
  6 27  1  0
  7  8  1  0
  8  9  1  6
  8 11  1  0
  8 17  1  0
  9 10  1  0
 11 12  2  0
 11 16  1  0
 12 13  1  0
 13 14  2  0
 14 15  1  0
 15 16  2  0
 17 18  1  0
 17 25  1  0
 18 19  2  0
 19 20  1  0
 19 21  1  0
 21 22  1  0
 21 25  2  0
 22 23  1  0
 23 24  1  0
 25 26  1  0
 27 28  2  0
 28 29  1  0
 28 30  1  0
 30 31  1  0
 30 32  2  0
 32 33  1  0
M  CHG  1  14   1
M  END
