
     RDKit          3D

 28 30  0  0  0  0  0  0  0  0999 V2000
    0.7770    5.1220    0.9150 C   0  0  0  0  0  0  0  0  0  0  0  0
   -0.0210    3.8410    0.7150 C   0  0  0  0  0  0  0  0  0  0  0  0
    0.8950    2.6390    0.6420 C   0  0  0  0  0  0  0  0  0  0  0  0
    0.0880    1.4120    0.4560 C   0  0  1  0  0  0  0  0  0  0  0  0
   -0.7540    1.3490   -0.7730 C   0  0  0  0  0  0  0  0  0  0  0  0
   -1.8050    0.3100   -0.4250 N   0  0  0  0  0  0  0  0  0  0  0  0
   -3.0960    0.8050   -0.3080 C   0  0  0  0  0  0  0  0  0  0  0  0
   -3.2020    2.1250   -0.4570 O   0  0  0  0  0  0  0  0  0  0  0  0
   -4.3560    0.1240   -0.0480 C   0  0  0  0  0  0  0  0  0  0  0  0
   -5.4320    0.8980    0.0590 N   0  0  0  0  0  0  0  0  0  0  0  0
   -6.7110    0.4880    0.3020 N   0  0  0  0  0  0  0  0  0  0  0  0
   -6.9730   -0.8950    0.4630 C   0  0  0  0  0  0  0  0  0  0  0  0
   -5.9980   -1.7130    0.3740 C   0  0  0  0  0  0  0  0  0  0  0  0
   -5.7820   -3.2100    0.4630 C   0  0  0  0  0  0  0  0  0  0  0  0
   -4.8930   -3.3910   -0.7890 C   0  0  0  0  0  0  0  0  0  0  0  0
   -4.3170   -2.0860   -1.0770 N   0  0  0  0  0  0  0  0  0  0  0  0
   -4.5550   -1.2850    0.0850 C   0  0  1  0  0  0  0  0  0  0  0  0
   -1.2600   -0.9710   -0.2540 C   0  0  0  0  0  0  0  0  0  0  0  0
    0.0570   -1.0610    0.4620 C   0  0  0  0  0  0  0  0  0  0  0  0
    0.9060    0.1420    0.4950 C   0  0  1  0  0  0  0  0  0  0  0  0
    1.9050    0.1040   -0.5420 N   0  0  0  0  0  0  0  0  0  0  0  0
    3.2790    0.1430   -0.1800 C   0  0  0  0  0  0  0  0  0  0  0  0
    3.6210    0.2100    1.0500 O   0  0  0  0  0  0  0  0  0  0  0  0
    4.3180    0.1130   -1.0900 O   0  0  0  0  0  0  0  0  0  0  0  0
    5.6790    0.1500   -0.7550 C   0  0  0  0  0  0  0  0  0  0  0  0
    6.1150   -0.9950    0.1170 C   0  0  2  0  0  0  0  0  0  0  0  0
    7.5980   -0.8190    0.3930 C   0  0  0  0  0  0  0  0  0  0  0  0
    5.9480   -2.3330   -0.5660 C   0  0  0  0  0  0  0  0  0  0  0  0
  1  2  1  0
  2  3  1  0
  4  3  1  6
  4  5  1  0
  4 20  1  0
  5  6  1  0
  6  7  1  0
  6 18  1  0
  7  8  2  0
  7  9  1  0
  9 10  2  0
  9 17  1  0
 10 11  1  0
 11 12  1  0
 12 13  2  0
 13 14  1  0
 13 17  1  0
 14 15  1  0
 15 16  1  0
 17 16  1  6
 18 19  1  0
 19 20  1  0
 20 21  1  6
 21 22  1  0
 22 23  2  0
 22 24  1  0
 24 25  1  0
 25 26  1  0
 26 27  1  6
 26 28  1  0
M  END
