
     RDKit          3D

 28 30  0  0  0  0  0  0  0  0999 V2000
   -0.5370    4.6010    1.0010 C   0  0  0  0  0  0  0  0  0  0  0  0
   -0.7150    3.0650    1.0610 C   0  0  0  0  0  0  0  0  0  0  0  0
    0.5680    2.4980    0.6000 C   0  0  0  0  0  0  0  0  0  0  0  0
    0.7200    1.0200    0.5340 C   0  0  2  0  0  0  0  0  0  0  0  0
    2.2180    0.8380    0.1120 C   0  0  0  0  0  0  0  0  0  0  0  0
    2.5390   -0.5410    0.0000 N   0  0  0  0  0  0  0  0  0  0  0  0
    2.5500   -1.2690    1.2330 C   0  0  0  0  0  0  0  0  0  0  0  0
    3.2220   -2.6140    1.0500 C   0  0  0  0  0  0  0  0  0  0  0  0
    3.2510   -3.0140   -0.4270 C   0  0  0  0  0  0  0  0  0  0  0  0
    4.0170   -2.0310   -1.2610 C   0  0  2  0  0  0  0  0  0  0  0  0
    5.4810   -2.3220   -1.3310 C   0  0  0  0  0  0  0  0  0  0  0  0
    6.0740   -2.3050   -0.0750 O   0  0  0  0  0  0  0  0  0  0  0  0
    3.8460   -0.6590   -0.6170 C   0  0  0  0  0  0  0  0  0  0  0  0
    0.0030    0.3170   -0.5680 C   0  0  0  0  0  0  0  0  0  0  0  0
   -1.4000    0.3910   -0.6900 N   0  0  0  0  0  0  0  0  0  0  0  0
   -2.2340   -0.3720   -0.0110 N   0  0  0  0  0  0  0  0  0  0  0  0
   -3.5750   -0.3210   -0.1090 C   0  0  0  0  0  0  0  0  0  0  0  0
   -4.4090   -1.2100    0.6900 C   0  0  0  0  0  0  0  0  0  0  0  0
   -5.7700   -1.3250    0.7490 C   0  0  0  0  0  0  0  0  0  0  0  0
   -6.1150   -2.3160    1.6620 C   0  0  0  0  0  0  0  0  0  0  0  0
   -4.9400   -2.8020    2.1600 C   0  0  0  0  0  0  0  0  0  0  0  0
   -3.9380   -2.1360    1.5730 N   0  0  0  0  0  0  0  0  0  0  0  0
   -4.1080    0.5830   -0.9700 C   0  0  0  0  0  0  0  0  0  0  0  0
   -5.3720    0.7030   -1.1290 O   0  0  0  0  0  0  0  0  0  0  0  0
   -3.2960    1.3870   -1.6880 N   0  0  0  0  0  0  0  0  0  0  0  0
   -3.9320    2.3310   -2.5880 C   0  0  0  0  0  0  0  0  0  0  0  0
   -1.9710    1.2840   -1.5420 C   0  0  0  0  0  0  0  0  0  0  0  0
   -1.2640    2.0610   -2.2390 O   0  0  0  0  0  0  0  0  0  0  0  0
  1  2  1  0
  2  3  1  0
  4  3  1  6
  4  5  1  0
  4 14  1  0
  5  6  1  0
  6  7  1  0
  6 13  1  0
  7  8  1  0
  8  9  1  0
  9 10  1  0
 10 11  1  1
 10 13  1  0
 11 12  1  0
 14 15  1  0
 15 16  1  0
 15 27  1  0
 16 17  2  0
 17 18  1  0
 17 23  1  0
 18 19  2  0
 18 22  1  0
 19 20  1  0
 20 21  2  0
 21 22  1  0
 23 24  2  0
 23 25  1  0
 25 26  1  0
 25 27  1  0
 27 28  2  0
M  END
