
     RDKit          3D

 28 30  0  0  0  0  0  0  0  0999 V2000
    1.8160   -2.3290   -0.5100 C   0  0  0  0  0  0  0  0  0  0  0  0
    0.6750   -1.9960    0.3720 C   0  0  0  0  0  0  0  0  0  0  0  0
   -0.2300   -2.8580    0.4850 O   0  0  0  0  0  0  0  0  0  0  0  0
    0.5470   -0.7520    1.0990 C   0  0  0  0  0  0  0  0  0  0  0  0
    1.5010    0.1480    0.9620 C   0  0  0  0  0  0  0  0  0  0  0  0
    2.6260   -0.0580    0.1410 N   0  0  0  0  0  0  0  0  0  0  0  0
    3.4940    0.8510   -0.1190 C   0  0  0  0  0  0  0  0  0  0  0  0
    3.4300    2.1770    0.3870 N   0  0  0  0  0  0  0  0  0  0  0  0
    4.5670    2.8940   -0.1220 C   0  0  0  0  0  0  0  0  0  0  0  0
    5.3040    1.9190   -0.9510 C   0  0  0  0  0  0  0  0  0  0  0  0
    6.4260    1.7860   -1.7430 C   0  0  0  0  0  0  0  0  0  0  0  0
    6.4600    0.4990   -2.2150 C   0  0  0  0  0  0  0  0  0  0  0  0
    5.3380   -0.1170   -1.6840 C   0  0  0  0  0  0  0  0  0  0  0  0
    4.6590    0.7510   -0.9300 N   0  0  0  0  0  0  0  0  0  0  0  0
   -0.5950   -0.4530    1.9520 C   0  0  2  0  0  0  0  0  0  0  0  0
   -0.7120   -1.1660    3.2430 C   0  0  0  0  0  0  0  0  0  0  0  0
   -0.8140   -2.6140    3.2360 C   0  0  0  0  0  0  0  0  0  0  0  0
    0.3220   -3.4120    3.4930 N   0  0  0  0  0  0  0  0  0  0  0  0
   -1.8990   -3.1800    3.0070 O   0  0  0  0  0  0  0  0  0  0  0  0
   -1.9180   -0.5400    1.2030 C   0  0  0  0  0  0  0  0  0  0  0  0
   -1.9470    0.4250    0.0750 C   0  0  0  0  0  0  0  0  0  0  0  0
   -0.9730    1.1800   -0.1270 O   0  0  0  0  0  0  0  0  0  0  0  0
   -3.1030    0.4660   -0.7630 N   0  0  0  0  0  0  0  0  0  0  0  0
   -3.0870    1.4330   -1.8550 C   0  0  0  0  0  0  0  0  0  0  0  0
   -4.4490    2.0240   -2.0420 C   0  0  0  0  0  0  0  0  0  0  0  0
   -5.4050    0.8930   -2.3100 C   0  0  0  0  0  0  0  0  0  0  0  0
   -5.5280    0.0790   -1.0610 C   0  0  0  0  0  0  0  0  0  0  0  0
   -4.2150   -0.4130   -0.5320 C   0  0  0  0  0  0  0  0  0  0  0  0
  1  2  1  0
  2  3  2  0
  2  4  1  0
  4  5  2  3
  4 15  1  0
  5  6  1  0
  6  7  2  3
  7  8  1  0
  7 14  1  0
  8  9  1  0
  9 10  1  0
 10 11  2  0
 10 14  1  0
 11 12  1  0
 12 13  2  0
 13 14  1  0
 15 16  1  1
 15 20  1  0
 16 17  1  0
 17 18  1  0
 17 19  2  0
 20 21  1  0
 21 22  2  0
 21 23  1  0
 23 24  1  0
 23 28  1  0
 24 25  1  0
 25 26  1  0
 26 27  1  0
 27 28  1  0
M  END
