
     RDKit          3D

 28 31  0  0  0  0  0  0  0  0999 V2000
    8.9870   -0.4770   -0.0220 O   0  0  0  0  0  0  0  0  0  0  0  0
    7.7450   -0.3910    0.0300 C   0  0  0  0  0  0  0  0  0  0  0  0
    7.1300    0.7400    0.4170 N   0  0  0  0  0  0  0  0  0  0  0  0
    5.7870    0.7810    0.4570 C   0  0  0  0  0  0  0  0  0  0  0  0
    5.1990    1.8340    0.8170 O   0  0  0  0  0  0  0  0  0  0  0  0
    5.0320   -0.2920    0.1160 N   0  0  0  0  0  0  0  0  0  0  0  0
    3.5640   -0.2160    0.1700 C   0  0  0  0  0  0  0  0  0  0  0  0
    3.1320    0.2620   -1.1960 C   0  0  0  0  0  0  0  0  0  0  0  0
    1.6380    0.4000   -1.3320 C   0  0  0  0  0  0  0  0  0  0  0  0
    1.0970    1.3830   -0.3440 C   0  0  0  0  0  0  0  0  0  0  0  0
   -0.3330    1.5660   -0.4000 N   0  0  0  0  0  0  0  0  0  0  0  0
   -1.2810    0.6130    0.0230 C   0  0  0  0  0  0  0  0  0  0  0  0
   -0.9070   -0.5640    0.5990 C   0  0  0  0  0  0  0  0  0  0  0  0
   -1.8620   -1.4970    0.9930 C   0  0  0  0  0  0  0  0  0  0  0  0
   -3.1970   -1.2170    0.7940 C   0  0  0  0  0  0  0  0  0  0  0  0
   -4.1730   -2.0990    1.1630 C   0  0  0  0  0  0  0  0  0  0  0  0
   -5.5070   -1.7790    0.9450 C   0  0  0  0  0  0  0  0  0  0  0  0
   -5.8900   -0.5840    0.3610 C   0  0  0  0  0  0  0  0  0  0  0  0
   -7.2290   -0.3140    0.1670 C   0  0  0  0  0  0  0  0  0  0  0  0
   -7.5970    0.8810   -0.4170 C   0  0  0  0  0  0  0  0  0  0  0  0
   -6.6250    1.7850   -0.7960 C   0  0  0  0  0  0  0  0  0  0  0  0
   -5.2940    1.4850   -0.5880 C   0  0  0  0  0  0  0  0  0  0  0  0
   -4.8840    0.2960   -0.0050 C   0  0  0  0  0  0  0  0  0  0  0  0
   -3.5650   -0.0140    0.2070 C   0  0  0  0  0  0  0  0  0  0  0  0
   -2.6070    0.8450   -0.1520 N   0  0  0  0  0  0  0  0  0  0  0  0
    5.6580   -1.4180   -0.2690 C   0  0  0  0  0  0  0  0  0  0  0  0
    5.0190   -2.4440   -0.5960 O   0  0  0  0  0  0  0  0  0  0  0  0
    7.0030   -1.4810   -0.3160 N   0  0  0  0  0  0  0  0  0  0  0  0
  1  2  2  0
  2  3  1  0
  2 28  1  0
  3  4  1  0
  4  5  2  0
  4  6  1  0
  6  7  1  0
  6 26  1  0
  7  8  1  0
  8  9  1  0
  9 10  1  0
 10 11  1  0
 11 12  1  0
 12 13  2  0
 12 25  1  0
 13 14  1  0
 14 15  2  0
 15 16  1  0
 15 24  1  0
 16 17  2  0
 17 18  1  0
 18 19  2  0
 18 23  1  0
 19 20  1  0
 20 21  2  0
 21 22  1  0
 22 23  2  0
 23 24  1  0
 24 25  2  0
 26 27  2  0
 26 28  1  0
M  END
