
     RDKit          3D

 28 29  0  0  0  0  0  0  0  0999 V2000
    3.4780    4.0990    1.6600 C   0  0  0  0  0  0  0  0  0  0  0  0
    2.6860    3.1470    1.2400 C   0  0  0  0  0  0  0  0  0  0  0  0
    3.1150    2.0800    0.2990 C   0  0  0  0  0  0  0  0  0  0  0  0
    4.5050    2.1530   -0.1420 C   0  0  0  0  0  0  0  0  0  0  0  0
    5.3700    2.0540    0.9940 O   0  0  0  0  0  0  0  0  0  0  0  0
    2.2340    1.1880   -0.0460 C   0  0  0  0  0  0  0  0  0  0  0  0
    0.9550    1.4080    0.5770 O   0  0  0  0  0  0  0  0  0  0  0  0
    2.3750    0.0650   -0.9330 C   0  0  0  0  0  0  0  0  0  0  0  0
    3.5830   -0.1490   -1.5560 O   0  0  0  0  0  0  0  0  0  0  0  0
    1.3380   -0.7630   -1.1540 C   0  0  0  0  0  0  0  0  0  0  0  0
   -0.0170   -0.6460   -0.5590 C   0  0  0  0  0  0  0  0  0  0  0  0
   -0.5110   -1.7480   -0.0970 C   0  0  0  0  0  0  0  0  0  0  0  0
   -1.7440   -2.0700    0.5420 C   0  0  0  0  0  0  0  0  0  0  0  0
   -1.9400   -3.2890    0.9350 O   0  0  0  0  0  0  0  0  0  0  0  0
   -2.8170   -1.1980    0.8070 N   0  0  0  0  0  0  0  0  0  0  0  0
   -3.9690   -1.8040    1.5170 C   0  0  0  0  0  0  0  0  0  0  0  0
   -4.2320   -0.8830    2.7120 C   0  0  0  0  0  0  0  0  0  0  0  0
   -4.7350    0.3530    2.1250 N   0  0  0  0  0  0  0  0  0  0  0  0
   -5.6560    1.1200    2.8530 C   0  0  0  0  0  0  0  0  0  0  0  0
   -6.0430    0.7360    4.0150 O   0  0  0  0  0  0  0  0  0  0  0  0
   -4.2990    0.7850    0.8200 C   0  0  0  0  0  0  0  0  0  0  0  0
   -2.9530    0.1760    0.4600 C   0  0  0  0  0  0  0  0  0  0  0  0
    0.7020   -3.0530   -0.5180 S   0  0  0  0  0  0  0  0  0  0  0  0
    1.3950   -1.9980   -1.9600 C   0  0  2  0  0  0  0  0  0  0  0  0
    2.5600   -2.5820   -2.3880 N   0  0  0  0  0  0  0  0  0  0  0  0
    2.2750   -3.3310   -3.9440 S   0  0  2  0  0  0  0  0  0  0  0  0
    0.8420   -3.8220   -3.8750 O   0  0  0  0  0  0  0  0  0  0  0  0
    3.2160   -4.5050   -4.1050 O   0  0  0  0  0  0  0  0  0  0  0  0
  1  2  2  0
  2  3  1  0
  3  4  1  0
  3  6  2  3
  4  5  1  0
  6  7  1  0
  6  8  1  0
  8  9  1  0
  8 10  2  3
 10 11  1  0
 10 24  1  0
 11 12  2  0
 12 13  1  0
 12 23  1  0
 13 14  2  0
 13 15  1  0
 15 16  1  0
 15 22  1  0
 16 17  1  0
 17 18  1  0
 18 19  1  0
 18 21  1  0
 19 20  2  0
 21 22  1  0
 23 24  1  0
 24 25  1  1
 26 25  1  1
 26 27  2  0
 26 28  2  0
M  END
