
     RDKit          3D

 16 17  0  0  0  0  0  0  0  0999 V2000
   -4.3290    1.5270    1.4350 C   0  0  0  0  0  0  0  0  0  0  0  0
   -2.9580    1.0860    1.0540 C   0  0  0  0  0  0  0  0  0  0  0  0
   -2.9800   -0.0350    0.1610 O   0  0  0  0  0  0  0  0  0  0  0  0
   -1.7750   -0.5610   -0.2850 C   0  0  0  0  0  0  0  0  0  0  0  0
   -0.5550   -0.0350    0.1070 C   0  0  0  0  0  0  0  0  0  0  0  0
    0.6050   -0.6130   -0.3790 C   0  0  0  0  0  0  0  0  0  0  0  0
    1.9190   -0.1160   -0.0110 C   0  0  0  0  0  0  0  0  0  0  0  0
    2.1070    0.9110    0.8030 C   0  0  0  0  0  0  0  0  0  0  0  0
    3.4560    1.3430    1.1180 C   0  0  0  0  0  0  0  0  0  0  0  0
    4.4960    0.7390    0.6130 C   0  0  0  0  0  0  0  0  0  0  0  0
    4.3670   -0.4030   -0.2940 C   0  0  0  0  0  0  0  0  0  0  0  0
    3.0430   -0.7420   -0.5350 O   0  0  0  0  0  0  0  0  0  0  0  0
    0.5500   -1.7040   -1.2470 C   0  0  0  0  0  0  0  0  0  0  0  0
   -0.6590   -2.2220   -1.6330 C   0  0  0  0  0  0  0  0  0  0  0  0
   -1.8080   -1.6450   -1.1480 C   0  0  0  0  0  0  0  0  0  0  0  0
   -3.0390   -2.1520   -1.5250 O   0  0  0  0  0  0  0  0  0  0  0  0
  1  2  1  0
  2  3  1  0
  3  4  1  0
  4  5  2  0
  4 15  1  0
  5  6  1  0
  6  7  1  0
  6 13  2  0
  7  8  2  0
  7 12  1  0
  8  9  1  0
  9 10  2  0
 10 11  1  0
 11 12  1  0
 13 14  1  0
 14 15  2  0
 15 16  1  0
M  END
