
     RDKit          3D

 16 17  0  0  0  0  0  0  0  0999 V2000
   -2.5150    1.9030    0.8610 C   0  0  0  0  0  0  0  0  0  0  0  0
   -2.8310    0.8090    0.2180 C   0  0  0  0  0  0  0  0  0  0  0  0
   -4.1430    0.1230    0.3500 C   0  0  0  0  0  0  0  0  0  0  0  0
   -3.9200   -1.2460    0.4840 O   0  0  0  0  0  0  0  0  0  0  0  0
   -3.2760   -1.7990   -0.5900 C   0  0  0  0  0  0  0  0  0  0  0  0
   -2.1010   -1.0540   -1.0660 C   0  0  0  0  0  0  0  0  0  0  0  0
   -1.8660    0.1930   -0.6940 C   0  0  0  0  0  0  0  0  0  0  0  0
   -0.7630    0.9000   -1.1370 O   0  0  0  0  0  0  0  0  0  0  0  0
    0.4920    0.5060   -0.6350 C   0  0  0  0  0  0  0  0  0  0  0  0
    0.6200   -0.5390    0.2600 C   0  0  0  0  0  0  0  0  0  0  0  0
    1.8340   -0.9490    0.7690 C   0  0  0  0  0  0  0  0  0  0  0  0
    2.9880   -0.2990    0.3800 C   0  0  0  0  0  0  0  0  0  0  0  0
    4.2410   -0.6690    0.8610 O   0  0  0  0  0  0  0  0  0  0  0  0
    5.3820    0.0420    0.4200 C   0  0  0  0  0  0  0  0  0  0  0  0
    2.8610    0.7480   -0.5160 C   0  0  0  0  0  0  0  0  0  0  0  0
    1.6470    1.1520   -1.0200 C   0  0  0  0  0  0  0  0  0  0  0  0
  1  2  2  0
  2  3  1  0
  2  7  1  0
  3  4  1  0
  4  5  1  0
  5  6  1  0
  6  7  2  0
  7  8  1  0
  8  9  1  0
  9 10  2  0
  9 16  1  0
 10 11  1  0
 11 12  2  0
 12 13  1  0
 12 15  1  0
 13 14  1  0
 15 16  2  0
M  END
