
     RDKit          3D

 28 29  0  0  0  0  0  0  0  0999 V2000
   -2.8530   -1.9170   -2.2960 C   0  0  0  0  0  0  0  0  0  0  0  0
   -3.0620   -1.9330   -0.7710 C   0  0  1  0  0  0  0  0  0  0  0  0
   -1.6750   -1.5770   -0.2470 C   0  0  0  0  0  0  0  0  0  0  0  0
   -0.9570   -2.4580    0.2380 O   0  0  0  0  0  0  0  0  0  0  0  0
   -1.2130   -0.2470   -0.3210 N   0  0  0  0  0  0  0  0  0  0  0  0
    0.0360    0.2640    0.0730 C   0  0  0  0  0  0  0  0  0  0  0  0
    1.0420   -0.4870    0.4560 C   0  0  0  0  0  0  0  0  0  0  0  0
    2.3550   -0.0040    0.8700 C   0  0  0  0  0  0  0  0  0  0  0  0
    3.4110   -0.9500    1.2700 C   0  0  0  0  0  0  0  0  0  0  0  0
    3.7740   -2.1240   -0.0320 S   0  0  0  0  0  0  0  0  0  0  0  0
    4.4510   -1.2520   -1.4590 C   0  0  0  0  0  0  0  0  0  0  0  0
    5.7360   -0.6600   -1.1290 C   0  0  0  0  0  0  0  0  0  0  0  0
    5.9860    0.5880   -1.2790 O   0  0  0  0  0  0  0  0  0  0  0  0
    6.7860   -1.4150   -0.6260 O   0  0  0  0  0  0  0  0  0  0  0  0
    2.5810    1.2930    0.8670 C   0  0  0  0  0  0  0  0  0  0  0  0
    1.5520    2.1750    0.4670 N   0  0  0  0  0  0  0  0  0  0  0  0
    0.2450    1.7110    0.0580 C   0  0  0  0  0  0  0  0  0  0  0  0
   -0.6540    2.6060   -0.2700 C   0  0  0  0  0  0  0  0  0  0  0  0
   -0.2390    4.3460   -0.2360 S   0  0  0  0  0  0  0  0  0  0  0  0
    0.1170    4.7920    1.4210 C   0  0  0  0  0  0  0  0  0  0  0  0
    0.5160    6.1070    1.7710 N   0  0  0  0  0  0  0  0  0  0  0  0
    0.0400    3.9770    2.3610 O   0  0  0  0  0  0  0  0  0  0  0  0
   -4.0800   -0.9780   -0.3000 C   0  0  0  0  0  0  0  0  0  0  0  0
   -5.2780   -1.6250    0.3420 C   0  0  0  0  0  0  0  0  0  0  0  0
   -5.5980   -2.8560   -0.2960 O   0  0  0  0  0  0  0  0  0  0  0  0
   -4.5730   -3.7910   -0.3440 C   0  0  0  0  0  0  0  0  0  0  0  0
   -4.7990   -5.0500   -0.2890 O   0  0  0  0  0  0  0  0  0  0  0  0
   -3.2780   -3.2850   -0.4560 O   0  0  0  0  0  0  0  0  0  0  0  0
  2  1  1  6
  2  3  1  0
  2 23  1  0
  2 28  1  0
  3  4  2  0
  3  5  1  0
  5  6  1  0
  6  7  2  0
  6 17  1  0
  7  8  1  0
  8  9  1  0
  8 15  2  0
  9 10  1  0
 10 11  1  0
 11 12  1  0
 12 13  2  0
 12 14  1  0
 15 16  1  0
 16 17  1  0
 17 18  2  3
 18 19  1  0
 19 20  1  0
 20 21  1  0
 20 22  2  0
 23 24  1  0
 24 25  1  0
 25 26  1  0
 26 27  2  0
 26 28  1  0
M  END
