
     RDKit          3D

 28 29  0  0  0  0  0  0  0  0999 V2000
    4.9140   -0.9350    3.4990 C   0  0  0  0  0  0  0  0  0  0  0  0
    3.9190   -0.0300    3.0740 O   0  0  0  0  0  0  0  0  0  0  0  0
    3.3900   -0.1010    1.7660 C   0  0  0  0  0  0  0  0  0  0  0  0
    3.8580   -0.9960    1.0450 O   0  0  0  0  0  0  0  0  0  0  0  0
    2.3800    0.8110    1.3260 C   0  0  0  0  0  0  0  0  0  0  0  0
    1.8190    0.8110    0.1040 C   0  0  0  0  0  0  0  0  0  0  0  0
    2.0690   -0.0640   -1.0290 C   0  0  0  0  0  0  0  0  0  0  0  0
    1.9100    0.4700   -2.2130 C   0  0  0  0  0  0  0  0  0  0  0  0
    1.4100    2.1680   -1.9610 S   0  0  0  0  0  0  0  0  0  0  0  0
    0.8130    1.8560   -0.2250 C   0  0  1  0  0  0  0  0  0  0  0  0
   -0.5860    1.4660   -0.2320 C   0  0  0  0  0  0  0  0  0  0  0  0
   -1.5330    2.5430   -0.5830 C   0  0  0  0  0  0  0  0  0  0  0  0
   -2.7450    2.2940   -0.6070 O   0  0  0  0  0  0  0  0  0  0  0  0
   -1.1380    3.8310   -0.8900 O   0  0  0  0  0  0  0  0  0  0  0  0
   -2.0500    4.8600   -1.2250 C   0  0  0  0  0  0  0  0  0  0  0  0
   -1.0730    0.2760    0.0440 C   0  0  0  0  0  0  0  0  0  0  0  0
   -0.2990   -0.8610    0.4030 N   0  0  0  0  0  0  0  0  0  0  0  0
   -2.8760    0.0940   -0.0570 S   0  0  0  0  0  0  0  0  0  0  0  0
   -3.3150   -1.5910    0.3610 C   0  0  1  0  0  0  0  0  0  0  0  0
   -2.9970   -1.8290    1.8300 C   0  0  0  0  0  0  0  0  0  0  0  0
   -4.7070   -1.9220    0.0440 C   0  0  0  0  0  0  0  0  0  0  0  0
   -5.7830   -1.1940    0.6260 N   0  0  0  0  0  0  0  0  0  0  0  0
   -4.9740   -2.8450   -0.7380 O   0  0  0  0  0  0  0  0  0  0  0  0
    2.1220   -0.2590   -3.4390 C   0  0  0  0  0  0  0  0  0  0  0  0
    1.9610    0.2790   -4.5880 O   0  0  0  0  0  0  0  0  0  0  0  0
    2.5210   -1.6140   -3.3550 N   0  0  0  0  0  0  0  0  0  0  0  0
    2.5280   -2.2590   -2.0740 C   0  0  0  0  0  0  0  0  0  0  0  0
    2.4590   -1.4100   -0.9860 O   0  0  0  0  0  0  0  0  0  0  0  0
  1  2  1  0
  2  3  1  0
  3  4  2  0
  3  5  1  0
  5  6  2  3
  6  7  1  0
  6 10  1  0
  7  8  2  0
  7 28  1  0
  8  9  1  0
  8 24  1  0
  9 10  1  0
 10 11  1  6
 11 12  1  0
 11 16  2  3
 12 13  2  0
 12 14  1  0
 14 15  1  0
 16 17  1  0
 16 18  1  0
 18 19  1  0
 19 20  1  1
 19 21  1  0
 21 22  1  0
 21 23  2  0
 24 25  2  0
 24 26  1  0
 26 27  1  0
 27 28  1  0
M  END
