
     RDKit          3D

  8  8  0  0  0  0  0  0  0  0999 V2000
    3.0540    0.2400   -0.1550 C   0  0  0  0  0  0  0  0  0  0  0  0
    1.7890    0.1400   -0.7170 O   0  0  0  0  0  0  0  0  0  0  0  0
    0.8660   -0.3600    0.1800 C   0  0  0  0  0  0  0  0  0  0  0  0
   -0.4860   -0.4510   -0.4700 C   0  0  2  0  0  0  0  0  0  0  0  0
   -1.0550    0.9210   -0.7830 C   0  0  0  0  0  0  0  0  0  0  0  0
   -2.4180    0.6340   -0.8730 O   0  0  0  0  0  0  0  0  0  0  0  0
   -2.6930   -0.2320    0.1840 C   0  0  0  0  0  0  0  0  0  0  0  0
   -1.4770   -0.9730    0.4460 N   0  0  0  0  0  0  0  0  0  0  0  0
  1  2  1  0
  2  3  1  0
  4  3  1  1
  4  5  1  0
  4  8  1  0
  5  6  1  0
  6  7  1  0
  7  8  1  0
M  END
