
     RDKit          3D

  8  7  0  0  0  0  0  0  0  0999 V2000
   -3.0870   -0.3820    0.6780 C   0  0  0  0  0  0  0  0  0  0  0  0
   -2.2180    0.6130    0.0520 N   0  0  0  0  0  0  0  0  0  0  0  0
   -0.9540    0.0390   -0.2950 C   0  0  0  0  0  0  0  0  0  0  0  0
    0.2000    0.6520    0.4510 C   0  0  0  0  0  0  0  0  0  0  0  0
    1.4530   -0.0410   -0.0090 C   0  0  0  0  0  0  0  0  0  0  0  0
    1.4200   -0.9620   -0.8760 O   0  0  0  0  0  0  0  0  0  0  0  0
    2.6970    0.2890    0.4860 O   0  0  0  0  0  0  0  0  0  0  0  0
    3.8570   -0.3770    0.0360 C   0  0  0  0  0  0  0  0  0  0  0  0
  1  2  1  0
  2  3  1  0
  3  4  1  0
  4  5  1  0
  5  6  2  0
  5  7  1  0
  7  8  1  0
M  CHG  1   2   1
M  END
