
     RDKit          3D

  8  7  0  0  0  0  0  0  0  0999 V2000
   -1.4370   -1.6390   -0.5020 C   0  0  0  0  0  0  0  0  0  0  0  0
   -1.5910   -0.3050    0.1700 C   0  0  0  0  0  0  0  0  0  0  0  0
   -0.5900    0.6450   -0.1850 N   0  0  0  0  0  0  0  0  0  0  0  0
   -0.8520    1.8760    0.5260 C   0  0  0  0  0  0  0  0  0  0  0  0
    0.1080    2.8410    0.2080 O   0  0  0  0  0  0  0  0  0  0  0  0
    0.7480    0.2320    0.0800 C   0  0  0  0  0  0  0  0  0  0  0  0
    1.1330   -0.9140   -0.5810 O   0  0  0  0  0  0  0  0  0  0  0  0
    2.4540   -1.1850   -0.2220 C   0  0  0  0  0  0  0  0  0  0  0  0
  1  2  1  0
  2  3  1  0
  3  4  1  0
  3  6  1  0
  4  5  1  0
  6  7  1  0
  7  8  1  0
M  END
