
     RDKit          3D

 38 39  0  0  0  0  0  0  0  0999 V2000
   -0.0860   -4.1420   -2.7440 N   0  0  0  0  0  0  0  0  0  0  0  0
   -1.3350   -3.8380   -2.1470 C   0  0  0  0  0  0  0  0  0  0  0  0
   -2.0370   -4.7770   -1.7210 O   0  0  0  0  0  0  0  0  0  0  0  0
   -1.7800   -2.4450   -2.0380 C   0  0  0  0  0  0  0  0  0  0  0  0
   -1.1200   -1.6660   -0.9150 C   0  0  2  0  0  0  0  0  0  0  0  0
   -1.3590   -2.2410    0.4480 C   0  0  0  0  0  0  0  0  0  0  0  0
   -1.2050   -3.6410    0.3970 O   0  0  0  0  0  0  0  0  0  0  0  0
   -1.2030   -0.2750   -1.0600 N   0  0  0  0  0  0  0  0  0  0  0  0
   -2.4070    0.4180   -1.1280 C   0  0  0  0  0  0  0  0  0  0  0  0
   -3.3300    0.5350    0.0060 C   0  0  0  0  0  0  0  0  0  0  0  0
   -4.4510    1.3330   -0.4540 O   0  0  0  0  0  0  0  0  0  0  0  0
   -5.5130    1.6280    0.3750 C   0  0  0  0  0  0  0  0  0  0  0  0
   -6.5560    2.3870   -0.0990 C   0  0  0  0  0  0  0  0  0  0  0  0
   -7.6150    2.6860    0.7150 C   0  0  0  0  0  0  0  0  0  0  0  0
   -8.6930    3.4520    0.2760 O   0  0  0  0  0  0  0  0  0  0  0  0
   -7.6690    2.2400    2.0220 C   0  0  0  0  0  0  0  0  0  0  0  0
   -8.7180    2.5370    2.8280 F   0  0  0  0  0  0  0  0  0  0  0  0
   -6.6290    1.4790    2.5070 C   0  0  0  0  0  0  0  0  0  0  0  0
   -6.6470    1.0240    3.7880 F   0  0  0  0  0  0  0  0  0  0  0  0
   -5.5560    1.1820    1.6670 C   0  0  0  0  0  0  0  0  0  0  0  0
   -0.3280    0.2440   -2.0890 C   0  0  0  0  0  0  0  0  0  0  0  0
    1.1150    0.1440   -1.7500 C   0  0  0  0  0  0  0  0  0  0  0  0
    1.3470    0.8840   -0.5560 O   0  0  0  0  0  0  0  0  0  0  0  0
    2.6090    0.9460   -0.0490 C   0  0  0  0  0  0  0  0  0  0  0  0
    3.6480    0.3020   -0.6820 C   0  0  0  0  0  0  0  0  0  0  0  0
    4.9330    0.3530   -0.1850 C   0  0  0  0  0  0  0  0  0  0  0  0
    6.0660   -0.3360   -0.8570 C   0  0  1  0  0  0  0  0  0  0  0  0
    6.8790   -1.0360    0.1190 N   0  0  0  0  0  0  0  0  0  0  0  0
    5.5520   -1.3520   -1.7700 N   0  0  0  0  0  0  0  0  0  0  0  0
    5.1370    1.0800    0.9780 C   0  0  0  0  0  0  0  0  0  0  0  0
    6.4420    1.1470    1.5030 N   0  0  0  0  0  0  0  0  0  0  0  0
    4.1240    1.7310    1.6310 C   0  0  0  0  0  0  0  0  0  0  0  0
    4.4050    2.4370    2.7900 O   0  0  0  0  0  0  0  0  0  0  0  0
    4.3000    1.6970    3.9830 C   0  0  0  0  0  0  0  0  0  0  0  0
    3.9680    0.4700    3.9500 O   0  0  0  0  0  0  0  0  0  0  0  0
    4.5400    2.2330    5.1990 F   0  0  0  0  0  0  0  0  0  0  0  0
    2.8450    1.6700    1.1220 C   0  0  0  0  0  0  0  0  0  0  0  0
    1.8260    2.3250    1.7780 O   0  0  0  0  0  0  0  0  0  0  0  0
  1  2  1  0
  2  3  2  0
  2  4  1  0
  5  4  1  6
  5  6  1  0
  5  8  1  0
  6  7  1  0
  8  9  1  0
  8 21  1  0
  9 10  1  0
 10 11  1  0
 11 12  1  0
 12 13  2  0
 12 20  1  0
 13 14  1  0
 14 15  1  0
 14 16  2  0
 16 17  1  0
 16 18  1  0
 18 19  1  0
 18 20  2  0
 21 22  1  0
 22 23  1  0
 23 24  1  0
 24 25  2  0
 24 37  1  0
 25 26  1  0
 26 27  1  0
 26 30  2  0
 27 28  1  1
 27 29  1  0
 30 31  1  0
 30 32  1  0
 32 33  1  0
 32 37  2  0
 33 34  1  0
 34 35  2  0
 34 36  1  0
 37 38  1  0
M  END
