
     RDKit          3D

 38 41  0  0  0  0  0  0  0  0999 V2000
   -3.9390    1.0010    2.3830 C   0  0  0  0  0  0  0  0  0  0  0  0
   -3.1470    0.2710    1.3600 C   0  0  0  0  0  0  0  0  0  0  0  0
   -1.9960    0.8790    0.9120 C   0  0  0  0  0  0  0  0  0  0  0  0
   -1.1810    0.2490   -0.0480 C   0  0  0  0  0  0  0  0  0  0  0  0
   -0.0040    0.8990   -0.4680 N   0  0  0  0  0  0  0  0  0  0  0  0
    0.7940    0.5010   -1.5570 C   0  0  0  0  0  0  0  0  0  0  0  0
    0.5050   -0.4830   -2.2560 O   0  0  0  0  0  0  0  0  0  0  0  0
    2.0380    1.2650   -1.9160 C   0  0  0  0  0  0  0  0  0  0  0  0
    2.7680    0.5530   -3.0140 C   0  0  0  0  0  0  0  0  0  0  0  0
    3.2400   -0.7710   -2.5820 C   0  0  1  0  0  0  0  0  0  0  0  0
    3.8690   -1.4590   -3.6680 O   0  0  0  0  0  0  0  0  0  0  0  0
    4.3990   -0.6150   -1.6260 C   0  0  0  0  0  0  0  0  0  0  0  0
    4.8170   -1.7340   -1.1710 O   0  0  0  0  0  0  0  0  0  0  0  0
    5.0100    0.5540   -1.2280 N   0  0  0  0  0  0  0  0  0  0  0  0
    6.0870    0.6820   -0.3300 C   0  0  0  0  0  0  0  0  0  0  0  0
    6.4210    1.9730    0.1160 C   0  0  0  0  0  0  0  0  0  0  0  0
    7.4700    2.1910    0.9870 C   0  0  0  0  0  0  0  0  0  0  0  0
    8.2240    1.1350    1.4480 C   0  0  0  0  0  0  0  0  0  0  0  0
    7.9380   -0.1470    1.0410 C   0  0  0  0  0  0  0  0  0  0  0  0
    6.8770   -0.3190    0.1670 C   0  0  0  0  0  0  0  0  0  0  0  0
    8.8950   -1.1000    1.6800 C   0  0  0  0  0  0  0  0  0  0  0  0
    9.9820   -0.2020    2.2230 C   0  0  0  0  0  0  0  0  0  0  0  0
    9.3320    1.0920    2.3300 N   0  0  0  0  0  0  0  0  0  0  0  0
   -1.6030   -0.9600   -0.4800 C   0  0  0  0  0  0  0  0  0  0  0  0
   -2.7720   -1.5910   -0.0320 C   0  0  0  0  0  0  0  0  0  0  0  0
   -3.1630   -2.9370   -0.5680 C   0  0  0  0  0  0  0  0  0  0  0  0
   -3.5550   -0.9590    0.9050 C   0  0  0  0  0  0  0  0  0  0  0  0
   -4.7920   -1.6350    1.3580 C   0  0  0  0  0  0  0  0  0  0  0  0
   -6.0420   -1.1250    0.7370 C   0  0  2  0  0  0  0  0  0  0  0  0
   -6.3470    0.1850    0.9260 O   0  0  0  0  0  0  0  0  0  0  0  0
   -7.7160    0.3370    0.9320 C   0  0  1  0  0  0  0  0  0  0  0  0
   -8.0960    0.9770   -0.4070 C   0  0  0  0  0  0  0  0  0  0  0  0
   -7.2440    2.5460   -0.4720 S   0  0  2  0  0  0  0  0  0  0  0  0
   -7.8360    3.4190   -1.5270 O   0  0  0  0  0  0  0  0  0  0  0  0
   -5.7870    2.3390   -0.8040 O   0  0  0  0  0  0  0  0  0  0  0  0
   -8.3690   -0.9960    1.0750 C   0  0  0  0  0  0  0  0  0  0  0  0
   -7.2260   -1.9340    1.1300 C   0  0  0  0  0  0  0  0  0  0  0  0
   -7.1780   -3.0980    1.4170 O   0  0  0  0  0  0  0  0  0  0  0  0
  1  2  1  0
  2  3  2  0
  2 27  1  0
  3  4  1  0
  4  5  1  0
  4 24  2  0
  5  6  1  0
  6  7  2  0
  6  8  1  0
  8  9  1  0
  9 10  1  0
 10 11  1  6
 10 12  1  0
 12 13  2  0
 12 14  1  0
 14 15  1  0
 15 16  2  0
 15 20  1  0
 16 17  1  0
 17 18  2  0
 18 19  1  0
 18 23  1  0
 19 20  2  0
 19 21  1  0
 21 22  1  0
 22 23  1  0
 24 25  1  0
 25 26  1  0
 25 27  2  0
 27 28  1  0
 29 28  1  1
 29 30  1  0
 29 37  1  0
 30 31  1  0
 31 32  1  6
 31 36  1  0
 33 32  1  6
 33 34  2  0
 33 35  2  0
 36 37  1  0
 37 38  2  0
M  END
