
     RDKit          3D

 37 38  0  0  0  0  0  0  0  0999 V2000
   -5.8830   -2.8900   -1.7060 N   0  0  0  0  0  0  0  0  0  0  0  0
   -5.0080   -3.4970   -0.7410 C   0  0  0  0  0  0  0  0  0  0  0  0
   -5.4500   -4.4970   -0.1680 O   0  0  0  0  0  0  0  0  0  0  0  0
   -3.7230   -2.9320   -0.5070 C   0  0  0  0  0  0  0  0  0  0  0  0
   -2.7500   -3.2580    0.2830 C   0  0  0  0  0  0  0  0  0  0  0  0
   -2.7680   -4.3760    1.1820 C   0  0  0  0  0  0  0  0  0  0  0  0
   -1.5730   -4.5900    2.0000 N   0  0  0  0  0  0  0  0  0  0  0  0
   -3.6790   -5.2050    1.3640 O   0  0  0  0  0  0  0  0  0  0  0  0
   -1.5300   -2.4160    0.2590 C   0  0  0  0  0  0  0  0  0  0  0  0
   -0.5750   -2.7110    1.0130 O   0  0  0  0  0  0  0  0  0  0  0  0
   -1.4060   -1.3260   -0.5600 O   0  0  0  0  0  0  0  0  0  0  0  0
   -0.2270   -0.5100   -0.5860 C   0  0  1  0  0  0  0  0  0  0  0  0
    0.3190   -0.4150   -1.9610 C   0  0  0  0  0  0  0  0  0  0  0  0
    1.5570    0.4140   -2.0370 C   0  0  0  0  0  0  0  0  0  0  0  0
    2.6950   -0.1400   -1.2080 C   0  0  0  0  0  0  0  0  0  0  0  0
    2.6010   -1.2260   -0.6260 O   0  0  0  0  0  0  0  0  0  0  0  0
    3.8460    0.6590   -1.1520 N   0  0  0  0  0  0  0  0  0  0  0  0
    5.0020    0.3370   -0.4480 C   0  0  0  0  0  0  0  0  0  0  0  0
    5.1580   -0.8050    0.2780 C   0  0  0  0  0  0  0  0  0  0  0  0
    6.3770   -1.0040    0.9380 C   0  0  0  0  0  0  0  0  0  0  0  0
    6.4970   -2.1560    1.6550 F   0  0  0  0  0  0  0  0  0  0  0  0
    7.4120   -0.1010    0.8840 C   0  0  0  0  0  0  0  0  0  0  0  0
    7.2070    1.0370    0.1380 C   0  0  0  0  0  0  0  0  0  0  0  0
    6.0490    1.2810   -0.5210 C   0  0  0  0  0  0  0  0  0  0  0  0
    5.9060    2.4850   -1.2770 N   0  0  0  0  0  0  0  0  0  0  0  0
   -0.6430    0.8490   -0.1190 C   0  0  0  0  0  0  0  0  0  0  0  0
    0.2170    1.7310    0.0370 O   0  0  0  0  0  0  0  0  0  0  0  0
   -2.0150    1.0870    0.1310 N   0  0  0  0  0  0  0  0  0  0  0  0
   -2.5560    2.3130    0.5740 C   0  0  0  0  0  0  0  0  0  0  0  0
   -1.8640    3.4640    0.8340 C   0  0  0  0  0  0  0  0  0  0  0  0
   -2.4470    4.6520    1.2710 C   0  0  0  0  0  0  0  0  0  0  0  0
   -1.6870    5.7570    1.5080 F   0  0  0  0  0  0  0  0  0  0  0  0
   -3.8060    4.6730    1.4530 C   0  0  0  0  0  0  0  0  0  0  0  0
   -4.5400    3.5540    1.2080 C   0  0  0  0  0  0  0  0  0  0  0  0
   -5.9210    3.5950    1.4000 O   0  0  0  0  0  0  0  0  0  0  0  0
   -3.9380    2.3920    0.7770 C   0  0  0  0  0  0  0  0  0  0  0  0
   -4.7030    1.3130    0.5480 F   0  0  0  0  0  0  0  0  0  0  0  0
  1  2  1  0
  2  3  2  0
  2  4  1  0
  4  5  2  3
  5  6  1  0
  5  9  1  0
  6  7  1  0
  6  8  2  0
  9 10  2  0
  9 11  1  0
 11 12  1  0
 12 13  1  6
 12 26  1  0
 13 14  1  0
 14 15  1  0
 15 16  2  0
 15 17  1  0
 17 18  1  0
 18 19  2  0
 18 24  1  0
 19 20  1  0
 20 21  1  0
 20 22  2  0
 22 23  1  0
 23 24  2  0
 24 25  1  0
 26 27  2  0
 26 28  1  0
 28 29  1  0
 29 30  2  0
 29 36  1  0
 30 31  1  0
 31 32  1  0
 31 33  2  0
 33 34  1  0
 34 35  1  0
 34 36  2  0
 36 37  1  0
M  END
