
     RDKit          3D

 38 39  0  0  0  0  0  0  0  0999 V2000
   -5.9140   -0.2010   -2.2250 C   0  0  0  0  0  0  0  0  0  0  0  0
   -5.1580   -0.2970   -1.0470 O   0  0  0  0  0  0  0  0  0  0  0  0
   -3.8110    0.0190   -0.9870 C   0  0  0  0  0  0  0  0  0  0  0  0
   -3.2030    0.4100   -2.0010 O   0  0  0  0  0  0  0  0  0  0  0  0
   -3.1050   -0.1220    0.3350 C   0  0  2  0  0  0  0  0  0  0  0  0
   -3.9840   -0.5660    1.2970 O   0  0  0  0  0  0  0  0  0  0  0  0
   -3.7650   -1.7710    1.8680 C   0  0  0  0  0  0  0  0  0  0  0  0
   -2.4890   -1.8810    2.6570 C   0  0  1  0  0  0  0  0  0  0  0  0
   -2.3750   -3.1560    3.1970 F   0  0  0  0  0  0  0  0  0  0  0  0
   -1.3430   -1.6330    1.9790 F   0  0  0  0  0  0  0  0  0  0  0  0
   -2.5460   -1.0020    3.7320 F   0  0  0  0  0  0  0  0  0  0  0  0
   -2.5220    1.1990    0.7670 C   0  0  2  0  0  0  0  0  0  0  0  0
   -3.5830    2.1100    0.9170 O   0  0  0  0  0  0  0  0  0  0  0  0
   -3.8850    2.6610    2.1420 C   0  0  0  0  0  0  0  0  0  0  0  0
   -3.1570    2.3040    3.1180 O   0  0  0  0  0  0  0  0  0  0  0  0
   -4.9910    3.6250    2.3580 C   0  0  0  0  0  0  0  0  0  0  0  0
   -5.0290    3.9900    3.7020 O   0  0  0  0  0  0  0  0  0  0  0  0
   -1.5660    1.7560   -0.2230 C   0  0  0  0  0  0  0  0  0  0  0  0
   -1.8500    2.8580   -0.7140 O   0  0  0  0  0  0  0  0  0  0  0  0
   -0.3890    1.0410   -0.5730 N   0  0  0  0  0  0  0  0  0  0  0  0
    0.5560    1.4990   -1.5080 C   0  0  0  0  0  0  0  0  0  0  0  0
    0.2310    2.4980   -2.4360 C   0  0  0  0  0  0  0  0  0  0  0  0
    1.1400    2.8690   -3.3940 C   0  0  0  0  0  0  0  0  0  0  0  0
    2.3760    2.3190   -3.5150 C   0  0  0  0  0  0  0  0  0  0  0  0
    3.3120    2.6980   -4.5000 N   0  0  0  0  0  0  0  0  0  0  0  0
    2.6980    1.3240   -2.5880 C   0  0  0  0  0  0  0  0  0  0  0  0
    1.8080    0.9130   -1.5930 C   0  0  0  0  0  0  0  0  0  0  0  0
    2.2440   -0.0840   -0.6160 C   0  0  0  0  0  0  0  0  0  0  0  0
    1.5330   -0.4040    0.3440 O   0  0  0  0  0  0  0  0  0  0  0  0
    3.5090   -0.7450   -0.7110 N   0  0  0  0  0  0  0  0  0  0  0  0
    4.0240   -1.7190    0.1780 C   0  0  0  0  0  0  0  0  0  0  0  0
    3.4070   -2.2080    1.2920 C   0  0  0  0  0  0  0  0  0  0  0  0
    4.0050   -3.1560    2.0840 C   0  0  0  0  0  0  0  0  0  0  0  0
    5.2540   -3.6750    1.8150 C   0  0  0  0  0  0  0  0  0  0  0  0
    5.8460   -4.6570    2.6570 N   0  0  0  0  0  0  0  0  0  0  0  0
    5.8650   -3.1720    0.6880 C   0  0  0  0  0  0  0  0  0  0  0  0
    5.3000   -2.2260   -0.1260 C   0  0  0  0  0  0  0  0  0  0  0  0
    6.0070   -1.7680   -1.2680 N   0  0  0  0  0  0  0  0  0  0  0  0
  1  2  1  0
  2  3  1  0
  3  4  2  0
  3  5  1  0
  5  6  1  1
  5 12  1  0
  6  7  1  0
  7  8  1  0
  8  9  1  1
  8 10  1  0
  8 11  1  0
 12 13  1  6
 12 18  1  0
 13 14  1  0
 14 15  2  0
 14 16  1  0
 16 17  1  0
 18 19  2  0
 18 20  1  0
 20 21  1  0
 21 22  2  0
 21 27  1  0
 22 23  1  0
 23 24  2  0
 24 25  1  0
 24 26  1  0
 26 27  2  0
 27 28  1  0
 28 29  2  0
 28 30  1  0
 30 31  1  0
 31 32  2  0
 31 37  1  0
 32 33  1  0
 33 34  2  0
 34 35  1  0
 34 36  1  0
 36 37  2  0
 37 38  1  0
M  END
