
     RDKit          3D

 38 39  0  0  0  0  0  0  0  0999 V2000
   -4.6980   -0.2170   -4.7270 C   0  0  0  0  0  0  0  0  0  0  0  0
   -5.5980   -0.2280   -3.5190 C   0  0  0  0  0  0  0  0  0  0  0  0
   -4.7880   -0.5210   -2.3140 C   0  0  0  0  0  0  0  0  0  0  0  0
   -4.8130   -1.7710   -1.7130 C   0  0  0  0  0  0  0  0  0  0  0  0
   -4.0580   -2.0300   -0.5970 C   0  0  0  0  0  0  0  0  0  0  0  0
   -4.0600   -3.2860    0.0360 O   0  0  0  0  0  0  0  0  0  0  0  0
   -5.0540   -3.4250    1.0630 C   0  0  1  0  0  0  0  0  0  0  0  0
   -6.3200   -3.2530    0.5650 F   0  0  0  0  0  0  0  0  0  0  0  0
   -4.9350   -4.6010    1.7400 F   0  0  0  0  0  0  0  0  0  0  0  0
   -4.8220   -2.3860    1.9640 F   0  0  0  0  0  0  0  0  0  0  0  0
   -3.2790   -1.0220   -0.0940 C   0  0  0  0  0  0  0  0  0  0  0  0
   -2.4950   -1.2730    1.0540 N   0  0  0  0  0  0  0  0  0  0  0  0
   -3.2040    0.2470   -0.6390 C   0  0  0  0  0  0  0  0  0  0  0  0
   -2.3530    1.3120   -0.0650 C   0  0  1  0  0  0  0  0  0  0  0  0
   -1.0580    1.4240   -0.7150 N   0  0  0  0  0  0  0  0  0  0  0  0
    0.1580    1.1570   -0.0150 C   0  0  0  0  0  0  0  0  0  0  0  0
    0.0460    0.8220    1.1860 O   0  0  0  0  0  0  0  0  0  0  0  0
    1.4160    1.2430   -0.5630 O   0  0  0  0  0  0  0  0  0  0  0  0
    2.6050    0.9610    0.1950 C   0  0  1  0  0  0  0  0  0  0  0  0
    3.4000   -0.1330   -0.4350 C   0  0  0  0  0  0  0  0  0  0  0  0
    4.5570   -0.4640    0.2370 O   0  0  0  0  0  0  0  0  0  0  0  0
    4.8100   -0.9770    1.4660 C   0  0  0  0  0  0  0  0  0  0  0  0
    3.8990   -1.3490    2.4130 C   0  0  0  0  0  0  0  0  0  0  0  0
    4.2700   -1.8660    3.6560 C   0  0  0  0  0  0  0  0  0  0  0  0
    5.5930   -2.0180    3.9640 C   0  0  0  0  0  0  0  0  0  0  0  0
    6.5310   -1.6460    3.0130 C   0  0  0  0  0  0  0  0  0  0  0  0
    7.8750   -1.8070    3.3390 O   0  0  0  0  0  0  0  0  0  0  0  0
    6.1600   -1.1420    1.8020 C   0  0  0  0  0  0  0  0  0  0  0  0
    7.1580   -0.7940    0.9070 O   0  0  0  0  0  0  0  0  0  0  0  0
    7.6670    0.5190    0.9470 C   0  0  0  0  0  0  0  0  0  0  0  0
    3.4030    2.2130    0.3520 C   0  0  0  0  0  0  0  0  0  0  0  0
    3.0000    3.4520   -0.1880 N   0  0  0  0  0  0  0  0  0  0  0  0
    4.4770    2.1370    0.9970 O   0  0  0  0  0  0  0  0  0  0  0  0
   -3.0400    2.6170    0.0270 C   0  0  0  0  0  0  0  0  0  0  0  0
   -4.3210    2.7260    0.6300 N   0  0  0  0  0  0  0  0  0  0  0  0
   -2.4720    3.6550   -0.4430 O   0  0  0  0  0  0  0  0  0  0  0  0
   -3.9830    0.4780   -1.7710 C   0  0  0  0  0  0  0  0  0  0  0  0
   -3.9810    1.7340   -2.4070 N   0  0  0  0  0  0  0  0  0  0  0  0
  1  2  1  0
  2  3  1  0
  3  4  2  0
  3 37  1  0
  4  5  1  0
  5  6  1  0
  5 11  2  0
  6  7  1  0
  7  8  1  6
  7  9  1  0
  7 10  1  0
 11 12  1  0
 11 13  1  0
 13 14  1  0
 13 37  2  0
 14 15  1  6
 14 34  1  0
 15 16  1  0
 16 17  2  0
 16 18  1  0
 18 19  1  0
 19 20  1  6
 19 31  1  0
 20 21  1  0
 21 22  1  0
 22 23  2  0
 22 28  1  0
 23 24  1  0
 24 25  2  0
 25 26  1  0
 26 27  1  0
 26 28  2  0
 28 29  1  0
 29 30  1  0
 31 32  1  0
 31 33  2  0
 34 35  1  0
 34 36  2  0
 37 38  1  0
M  END
