
     RDKit          3D

 38 38  0  0  0  0  0  0  0  0999 V2000
   -4.3350   -4.3760   -0.2390 C   0  0  0  0  0  0  0  0  0  0  0  0
   -3.4800   -3.2490    0.2390 C   0  0  0  0  0  0  0  0  0  0  0  0
   -2.2810   -2.8740   -0.5230 C   0  0  1  0  0  0  0  0  0  0  0  0
   -2.2630   -2.5650   -1.8320 O   0  0  0  0  0  0  0  0  0  0  0  0
   -1.7280   -1.5900    0.2780 C   0  0  0  0  0  0  0  0  0  0  0  0
   -2.2960   -0.3990   -0.0650 N   0  0  0  0  0  0  0  0  0  0  0  0
   -1.5870    0.7050   -0.6920 C   0  0  0  0  0  0  0  0  0  0  0  0
   -2.3740    1.6680   -1.1530 O   0  0  0  0  0  0  0  0  0  0  0  0
   -0.2010    0.9010   -0.8390 C   0  0  0  0  0  0  0  0  0  0  0  0
    0.8010   -0.0140   -0.6230 O   0  0  0  0  0  0  0  0  0  0  0  0
    1.4310    0.1680    0.7240 C   0  0  0  0  0  0  0  0  0  0  0  0
    2.5830   -0.6680    0.6750 C   0  0  0  0  0  0  0  0  0  0  0  0
    2.8340   -1.7650    0.5160 O   0  0  0  0  0  0  0  0  0  0  0  0
    4.0000    0.3700    0.8800 N   0  0  0  0  0  0  0  0  0  0  0  0
    4.9290   -0.6490    0.4850 C   0  0  0  0  0  0  0  0  0  0  0  0
    4.9900   -1.7790    0.2570 O   0  0  0  0  0  0  0  0  0  0  0  0
    6.2680    0.1460    0.3060 N   0  0  0  0  0  0  0  0  0  0  0  0
    7.2820   -0.5630   -0.3150 C   0  0  0  0  0  0  0  0  0  0  0  0
    8.6640   -0.1600    0.2230 C   0  0  0  0  0  0  0  0  0  0  0  0
    9.5450   -0.9380   -0.5410 O   0  0  0  0  0  0  0  0  0  0  0  0
   10.7520   -1.1860    0.0720 N   0  0  0  0  0  0  0  0  0  0  0  0
    0.2200    2.1760   -1.1750 C   0  0  0  0  0  0  0  0  0  0  0  0
    1.6580    2.4940   -1.4500 C   0  0  0  0  0  0  0  0  0  0  0  0
    2.5580    1.5160   -1.3990 O   0  0  0  0  0  0  0  0  0  0  0  0
   -0.5040    3.3440   -0.7120 C   0  0  0  0  0  0  0  0  0  0  0  0
   -1.5310    3.2520    0.2570 N   0  0  0  0  0  0  0  0  0  0  0  0
   -0.1840    4.4490   -1.1990 O   0  0  0  0  0  0  0  0  0  0  0  0
   -3.7110    0.0460   -0.0110 C   0  0  0  0  0  0  0  0  0  0  0  0
   -4.6840   -0.4530   -0.7670 C   0  0  0  0  0  0  0  0  0  0  0  0
   -6.0060    0.1370   -0.6420 C   0  0  0  0  0  0  0  0  0  0  0  0
   -7.0540   -0.4490   -1.3390 F   0  0  0  0  0  0  0  0  0  0  0  0
   -6.3060    1.1800    0.1050 C   0  0  0  0  0  0  0  0  0  0  0  0
   -5.2110    1.8310    0.7990 C   0  0  1  0  0  0  0  0  0  0  0  0
   -5.5310    2.8850    1.8210 C   0  0  0  0  0  0  0  0  0  0  0  0
   -4.0840    0.9200    1.0970 C   0  0  0  0  0  0  0  0  0  0  0  0
   -3.5460    0.8570    2.2640 C   0  0  0  0  0  0  0  0  0  0  0  0
   -2.5410   -0.0760    2.4980 F   0  0  0  0  0  0  0  0  0  0  0  0
   -3.8300    1.6350    3.3070 F   0  0  0  0  0  0  0  0  0  0  0  0
  1  2  1  0
  2  3  1  0
  3  4  1  6
  3  5  1  0
  5  6  1  0
  6  7  1  0
  6 28  1  0
  7  8  2  0
  7  9  1  0
  9 10  1  0
  9 22  2  3
 10 11  1  0
 11 12  1  0
 12 13  2  0
 12 14  1  0
 14 15  1  0
 15 16  2  0
 15 17  1  0
 17 18  1  0
 18 19  1  0
 19 20  1  0
 20 21  1  0
 22 23  1  0
 22 25  1  0
 23 24  1  0
 25 26  1  0
 25 27  2  0
 28 29  2  0
 28 35  1  0
 29 30  1  0
 30 31  1  0
 30 32  2  0
 32 33  1  0
 33 34  1  1
 33 35  1  0
 35 36  2  3
 36 37  1  0
 36 38  1  0
M  END
