
     RDKit          3D

 41 44  0  0  0  0  0  0  0  0999 V2000
   -9.9860    1.4970    0.8370 C   0  0  0  0  0  0  0  0  0  0  0  0
   -8.5670    1.7280    0.4940 C   0  0  0  0  0  0  0  0  0  0  0  0
   -7.7460    0.7550    0.4360 N   0  0  0  0  0  0  0  0  0  0  0  0
   -6.3660    0.8090    0.1190 C   0  0  0  0  0  0  0  0  0  0  0  0
   -5.7020    1.9630   -0.1870 C   0  0  0  0  0  0  0  0  0  0  0  0
   -4.2930    1.9460   -0.3410 C   0  0  0  0  0  0  0  0  0  0  0  0
   -3.5960    0.7920   -0.1860 C   0  0  0  0  0  0  0  0  0  0  0  0
   -2.1830    0.6440   -0.4570 N   0  0  0  0  0  0  0  0  0  0  0  0
   -1.7980    0.3190   -1.7930 C   0  0  0  0  0  0  0  0  0  0  0  0
   -2.8090    0.2650   -2.6060 O   0  0  0  0  0  0  0  0  0  0  0  0
   -0.5160    0.0330   -2.3750 C   0  0  0  0  0  0  0  0  0  0  0  0
    0.6400   -0.0390   -1.7120 O   0  0  0  0  0  0  0  0  0  0  0  0
    1.5480    0.6980   -1.0540 C   0  0  0  0  0  0  0  0  0  0  0  0
    1.3970    1.9270   -0.9470 O   0  0  0  0  0  0  0  0  0  0  0  0
    2.7130    0.0490   -0.4680 C   0  0  0  0  0  0  0  0  0  0  0  0
    3.7680    0.7680    0.0470 C   0  0  0  0  0  0  0  0  0  0  0  0
    4.8520    0.1160    0.6080 C   0  0  0  0  0  0  0  0  0  0  0  0
    5.9450    0.8000    1.2250 C   0  0  0  0  0  0  0  0  0  0  0  0
    5.7240    1.7780    1.9810 O   0  0  0  0  0  0  0  0  0  0  0  0
    7.3470    0.4380    1.0450 C   0  0  0  0  0  0  0  0  0  0  0  0
    7.8950    0.3470   -0.2580 C   0  0  0  0  0  0  0  0  0  0  0  0
    9.2300    0.0720   -0.4370 C   0  0  0  0  0  0  0  0  0  0  0  0
    9.7690   -0.0080   -1.8390 C   0  0  0  0  0  0  0  0  0  0  0  0
   10.0750   -0.1250    0.6260 C   0  0  0  0  0  0  0  0  0  0  0  0
   11.3770   -0.3910    0.3890 F   0  0  0  0  0  0  0  0  0  0  0  0
    9.5530   -0.0430    1.8820 C   0  0  0  0  0  0  0  0  0  0  0  0
    8.1820    0.2400    2.1240 C   0  0  0  0  0  0  0  0  0  0  0  0
    7.7380    0.2150    3.5070 C   0  0  0  0  0  0  0  0  0  0  0  0
    6.5370    0.3130    3.8140 O   0  0  0  0  0  0  0  0  0  0  0  0
    4.8090   -1.2680    0.6180 C   0  0  0  0  0  0  0  0  0  0  0  0
    5.7770   -1.8860    1.1340 O   0  0  0  0  0  0  0  0  0  0  0  0
    3.7820   -1.9510    0.1130 N   0  0  0  0  0  0  0  0  0  0  0  0
    2.7160   -1.3320   -0.4390 C   0  0  0  0  0  0  0  0  0  0  0  0
    1.5780   -2.1330   -0.9890 C   0  0  0  0  0  0  0  0  0  0  0  0
   -4.2740   -0.3940    0.1360 C   0  0  0  0  0  0  0  0  0  0  0  0
   -5.6390   -0.3790    0.2800 C   0  0  0  0  0  0  0  0  0  0  0  0
   -6.4200   -1.6200    0.3960 C   0  0  1  0  0  0  0  0  0  0  0  0
   -6.1450   -2.4390    1.6220 C   0  0  0  0  0  0  0  0  0  0  0  0
   -7.8100   -1.6600   -0.1080 C   0  0  0  0  0  0  0  0  0  0  0  0
   -6.3000    3.3140   -0.3970 C   0  0  0  0  0  0  0  0  0  0  0  0
   -7.9930    3.3630    0.1990 S   0  0  0  0  0  0  0  0  0  0  0  0
  1  2  1  0
  2  3  2  0
  2 41  1  0
  3  4  1  0
  4  5  2  0
  4 36  1  0
  5  6  1  0
  5 40  1  0
  6  7  2  0
  7  8  1  0
  7 35  1  0
  8  9  1  0
  9 10  2  0
  9 11  1  0
 11 12  1  0
 12 13  1  0
 13 14  2  0
 13 15  1  0
 15 16  1  0
 15 33  2  0
 16 17  2  0
 17 18  1  0
 17 30  1  0
 18 19  2  0
 18 20  1  0
 20 21  2  0
 20 27  1  0
 21 22  1  0
 22 23  1  0
 22 24  2  0
 24 25  1  0
 24 26  1  0
 26 27  2  0
 27 28  1  0
 28 29  2  0
 30 31  2  0
 30 32  1  0
 32 33  1  0
 33 34  1  0
 35 36  2  0
 36 37  1  0
 37 38  1  1
 37 39  1  0
 40 41  1  0
M  END
