
     RDKit          3D

 41 44  0  0  0  0  0  0  0  0999 V2000
   -5.1460   -3.6840    1.2400 C   0  0  0  0  0  0  0  0  0  0  0  0
   -3.9500   -3.4360    0.7300 C   0  0  0  0  0  0  0  0  0  0  0  0
   -3.8190   -2.9440   -0.6730 C   0  0  0  0  0  0  0  0  0  0  0  0
   -3.1530   -1.6460   -0.6250 N   0  0  0  0  0  0  0  0  0  0  0  0
   -3.9590   -0.4540   -0.5470 C   0  0  0  0  0  0  0  0  0  0  0  0
   -3.9860    0.6100    0.1270 C   0  0  0  0  0  0  0  0  0  0  0  0
   -4.8120    1.8480    0.1870 C   0  0  0  0  0  0  0  0  0  0  0  0
   -4.8700    2.7210   -0.8520 C   0  0  0  0  0  0  0  0  0  0  0  0
   -5.6980    3.9380   -0.7560 C   0  0  0  0  0  0  0  0  0  0  0  0
   -4.1660    2.5130   -2.0260 O   0  0  0  0  0  0  0  0  0  0  0  0
   -4.1800    1.5640   -2.9990 C   0  0  1  0  0  0  0  0  0  0  0  0
   -4.3270    2.3480   -4.3340 C   0  0  0  0  0  0  0  0  0  0  0  0
   -3.0520    0.6460   -3.2020 C   0  0  0  0  0  0  0  0  0  0  0  0
   -3.4170   -0.4450   -3.8550 O   0  0  0  0  0  0  0  0  0  0  0  0
   -1.7010    0.6970   -2.8540 N   0  0  0  0  0  0  0  0  0  0  0  0
   -0.9520    0.5790   -1.6660 C   0  0  0  0  0  0  0  0  0  0  0  0
   -0.0770    1.6820   -1.4780 C   0  0  0  0  0  0  0  0  0  0  0  0
    0.8090    1.7220   -0.4380 C   0  0  0  0  0  0  0  0  0  0  0  0
    1.7270    2.9030   -0.2610 C   0  0  0  0  0  0  0  0  0  0  0  0
    0.8900    0.6900    0.4720 C   0  0  0  0  0  0  0  0  0  0  0  0
    0.0660   -0.3890    0.3230 C   0  0  0  0  0  0  0  0  0  0  0  0
    0.1760   -1.5060    1.2950 C   0  0  0  0  0  0  0  0  0  0  0  0
    1.1860   -1.3220    2.2430 O   0  0  0  0  0  0  0  0  0  0  0  0
    2.5470   -1.2890    1.9100 C   0  0  0  0  0  0  0  0  0  0  0  0
    2.7940   -1.4500    0.7100 O   0  0  0  0  0  0  0  0  0  0  0  0
    3.6030   -1.0680    2.9660 C   0  0  0  0  0  0  0  0  0  0  0  0
    4.8800   -0.9830    2.6140 C   0  0  0  0  0  0  0  0  0  0  0  0
    5.6800   -0.6840    1.5090 N   0  0  0  0  0  0  0  0  0  0  0  0
    5.4290    0.0490    0.3460 C   0  0  0  0  0  0  0  0  0  0  0  0
    4.3530    0.6130    0.1620 O   0  0  0  0  0  0  0  0  0  0  0  0
    6.4520    0.1910   -0.7440 C   0  0  2  0  0  0  0  0  0  0  0  0
    7.0840   -1.1780   -1.0830 C   0  0  0  0  0  0  0  0  0  0  0  0
    7.8730   -0.0710   -0.5090 C   0  0  0  0  0  0  0  0  0  0  0  0
    5.6980   -1.0500    4.2790 S   0  0  0  0  0  0  0  0  0  0  0  0
    4.2260   -1.1710    5.2090 C   0  0  0  0  0  0  0  0  0  0  0  0
    4.1120   -1.2690    6.7080 C   0  0  0  0  0  0  0  0  0  0  0  0
    3.2440   -1.1600    4.2720 C   0  0  0  0  0  0  0  0  0  0  0  0
    1.9210   -1.2390    4.7290 F   0  0  0  0  0  0  0  0  0  0  0  0
   -0.8690   -0.4460   -0.7530 C   0  0  0  0  0  0  0  0  0  0  0  0
   -1.7110   -1.6670   -0.7150 C   0  0  0  0  0  0  0  0  0  0  0  0
   -1.0730   -2.7530   -0.7630 O   0  0  0  0  0  0  0  0  0  0  0  0
  1  2  2  0
  2  3  1  0
  3  4  1  0
  4  5  1  0
  4 40  1  0
  5  6  2  0
  6  7  1  0
  7  8  2  0
  8  9  1  0
  8 10  1  0
 10 11  1  0
 11 12  1  6
 11 13  1  0
 13 14  2  0
 13 15  1  0
 15 16  1  0
 16 17  2  0
 16 39  1  0
 17 18  1  0
 18 19  1  0
 18 20  2  0
 20 21  1  0
 21 22  1  0
 21 39  2  0
 22 23  1  0
 23 24  1  0
 24 25  2  0
 24 26  1  0
 26 27  2  0
 26 37  1  0
 27 28  1  0
 27 34  1  0
 28 29  1  0
 29 30  2  0
 31 29  1  1
 31 32  1  0
 31 33  1  0
 32 33  1  0
 34 35  1  0
 35 36  1  0
 35 37  2  0
 37 38  1  0
 39 40  1  0
 40 41  2  0
M  END
