
     RDKit          3D

 41 44  0  0  0  0  0  0  0  0999 V2000
   -3.1690    3.0390    1.5360 C   0  0  0  0  0  0  0  0  0  0  0  0
   -1.7100    3.1270    1.8930 C   0  0  0  0  0  0  0  0  0  0  0  0
   -0.9140    1.8950    1.7210 C   0  0  2  0  0  0  0  0  0  0  0  0
    0.5310    2.2350    2.1880 C   0  0  0  0  0  0  0  0  0  0  0  0
    1.1920    2.8200    1.0440 N   0  0  0  0  0  0  0  0  0  0  0  0
    2.6270    1.9190    0.6100 S   0  0  2  0  0  0  0  0  0  0  0  0
    3.7400    2.5570    1.4360 O   0  0  0  0  0  0  0  0  0  0  0  0
    2.9450    2.2280   -0.8080 O   0  0  0  0  0  0  0  0  0  0  0  0
    2.5260    0.3050    1.0240 N   0  0  0  0  0  0  0  0  0  0  0  0
    2.8310   -0.6830    0.0280 C   0  0  2  0  0  0  0  0  0  0  0  0
    4.2540   -1.0840    0.0200 C   0  0  0  0  0  0  0  0  0  0  0  0
    4.8520   -1.3760    1.2290 C   0  0  0  0  0  0  0  0  0  0  0  0
    6.1900   -1.7610    1.3050 C   0  0  0  0  0  0  0  0  0  0  0  0
    6.9520   -1.8610    0.1790 C   0  0  0  0  0  0  0  0  0  0  0  0
    8.2630   -2.2000   -0.1130 C   0  0  0  0  0  0  0  0  0  0  0  0
    8.4030   -2.1010   -1.4760 C   0  0  0  0  0  0  0  0  0  0  0  0
    7.2520   -1.7270   -1.9690 O   0  0  0  0  0  0  0  0  0  0  0  0
    6.3750   -1.5760   -1.0210 C   0  0  0  0  0  0  0  0  0  0  0  0
    5.0460   -1.1940   -1.0950 C   0  0  0  0  0  0  0  0  0  0  0  0
    2.2120   -0.4320   -1.2950 C   0  0  0  0  0  0  0  0  0  0  0  0
    1.3090   -1.5860   -1.7330 C   0  0  0  0  0  0  0  0  0  0  0  0
   -0.1250   -1.1750   -1.8890 C   0  0  0  0  0  0  0  0  0  0  0  0
   -0.8980   -1.6780   -0.7290 C   0  0  0  0  0  0  0  0  0  0  0  0
   -0.3340   -2.4990    0.0380 O   0  0  0  0  0  0  0  0  0  0  0  0
   -2.2370   -1.3180   -0.3910 N   0  0  0  0  0  0  0  0  0  0  0  0
   -3.1380   -2.2690    0.2150 C   0  0  0  0  0  0  0  0  0  0  0  0
   -3.0850   -2.2310    1.7180 C   0  0  0  0  0  0  0  0  0  0  0  0
   -2.2830   -1.4320    2.2550 O   0  0  0  0  0  0  0  0  0  0  0  0
   -3.8680   -3.0230    2.4860 O   0  0  0  0  0  0  0  0  0  0  0  0
   -3.8050   -2.9730    3.9000 C   0  0  0  0  0  0  0  0  0  0  0  0
   -2.7430    0.0030   -0.6330 C   0  0  0  0  0  0  0  0  0  0  0  0
   -4.0120   -0.1080   -0.9550 C   0  0  0  0  0  0  0  0  0  0  0  0
   -4.4430   -1.5420   -0.9400 C   0  0  0  0  0  0  0  0  0  0  0  0
   -4.8280   -1.8220   -2.2760 F   0  0  0  0  0  0  0  0  0  0  0  0
   -5.1360    0.7620   -1.3410 C   0  0  0  0  0  0  0  0  0  0  0  0
   -5.1210    1.9520   -1.9290 C   0  0  0  0  0  0  0  0  0  0  0  0
   -4.0970    2.8670   -2.4190 C   0  0  0  0  0  0  0  0  0  0  0  0
   -2.8350    3.0550   -2.0940 C   0  0  0  0  0  0  0  0  0  0  0  0
   -1.9480    2.4050   -1.0940 C   0  0  0  0  0  0  0  0  0  0  0  0
   -1.9020    1.2020   -0.5090 C   0  0  0  0  0  0  0  0  0  0  0  0
   -0.7260    1.3360    0.3670 C   0  0  0  0  0  0  0  0  0  0  0  0
  1  2  1  0
  3  2  1  6
  3  4  1  0
  3 41  1  0
  4  5  1  0
  6  5  1  1
  6  7  2  0
  6  8  2  0
  6  9  1  0
  9 10  1  0
 10 11  1  6
 10 20  1  0
 11 12  2  0
 11 19  1  0
 12 13  1  0
 13 14  2  0
 14 15  1  0
 14 18  1  0
 15 16  2  0
 16 17  1  0
 17 18  1  0
 18 19  2  0
 20 21  1  0
 21 22  1  0
 22 23  1  0
 23 24  2  0
 23 25  1  0
 25 26  1  0
 25 31  1  0
 26 27  1  0
 27 28  2  0
 27 29  1  0
 29 30  1  0
 31 32  2  0
 31 40  1  0
 32 33  1  0
 32 35  1  0
 33 34  1  0
 35 36  2  0
 36 37  1  0
 37 38  2  0
 38 39  1  0
 39 40  2  0
 40 41  1  0
M  END
