
     RDKit          3D

 41 45  0  0  0  0  0  0  0  0999 V2000
   11.6100   -3.5120    1.0560 N   0  0  0  0  0  0  0  0  0  0  0  0
   10.8760   -2.4500    0.9220 C   0  0  0  0  0  0  0  0  0  0  0  0
   11.1450   -1.1560    1.4100 N   0  0  0  0  0  0  0  0  0  0  0  0
   10.0100   -0.3060    1.1060 C   0  0  0  0  0  0  0  0  0  0  0  0
    9.3780   -1.0130   -0.0630 C   0  0  2  0  0  0  0  0  0  0  0  0
    7.9180   -0.7670   -0.0970 C   0  0  0  0  0  0  0  0  0  0  0  0
    7.3500    0.3230    0.5060 C   0  0  0  0  0  0  0  0  0  0  0  0
    5.9730    0.5640    0.4800 C   0  0  0  0  0  0  0  0  0  0  0  0
    5.1230   -0.2980   -0.1630 C   0  0  0  0  0  0  0  0  0  0  0  0
    3.6720   -0.1140   -0.2370 C   0  0  0  0  0  0  0  0  0  0  0  0
    3.0770    0.9070    0.3200 C   0  0  0  0  0  0  0  0  0  0  0  0
    1.6380    1.0910    0.2470 C   0  0  0  0  0  0  0  0  0  0  0  0
    1.0580    2.2120    0.8650 C   0  0  0  0  0  0  0  0  0  0  0  0
   -0.2950    2.4270    0.8200 C   0  0  0  0  0  0  0  0  0  0  0  0
   -1.1550    1.5690    0.1760 C   0  0  0  0  0  0  0  0  0  0  0  0
   -2.6310    1.8270    0.1350 C   0  0  1  0  0  0  0  0  0  0  0  0
   -3.0230    2.4130   -1.1960 C   0  0  0  0  0  0  0  0  0  0  0  0
   -2.3080    3.7230   -1.4440 C   0  0  0  0  0  0  0  0  0  0  0  0
   -2.7890    4.4040   -3.0360 S   0  0  2  0  0  0  0  0  0  0  0  0
   -1.9680    5.8970   -3.3040 N   0  0  0  0  0  0  0  0  0  0  0  0
   -4.2640    4.6870   -3.0560 O   0  0  0  0  0  0  0  0  0  0  0  0
   -2.5060    3.4190   -4.1330 O   0  0  0  0  0  0  0  0  0  0  0  0
   -3.3020    0.5950    0.4330 N   0  0  0  0  0  0  0  0  0  0  0  0
   -4.7040    0.7760    0.7330 C   0  0  0  0  0  0  0  0  0  0  0  0
   -5.4630   -0.5240    0.7160 C   0  0  0  0  0  0  0  0  0  0  0  0
   -4.8730   -1.7400    0.5910 C   0  0  0  0  0  0  0  0  0  0  0  0
   -5.6540   -2.8740    0.5800 C   0  0  0  0  0  0  0  0  0  0  0  0
   -7.0280   -2.8410    0.6900 C   0  0  0  0  0  0  0  0  0  0  0  0
   -7.6090   -1.6120    0.8150 C   0  0  0  0  0  0  0  0  0  0  0  0
   -6.8350   -0.4390    0.8290 C   0  0  0  0  0  0  0  0  0  0  0  0
   -9.0470   -1.4870    0.9350 C   0  0  0  0  0  0  0  0  0  0  0  0
   -9.9330   -2.4360    0.9420 C   0  0  0  0  0  0  0  0  0  0  0  0
   -9.6770   -3.8810    0.8270 C   0  0  0  0  0  0  0  0  0  0  0  0
   -7.9800   -4.2910    0.6720 S   0  0  2  0  0  0  0  0  0  0  0  0
   -7.5500   -5.1050    1.8960 O   0  0  0  0  0  0  0  0  0  0  0  0
   -7.7110   -5.1100   -0.5720 O   0  0  0  0  0  0  0  0  0  0  0  0
   -0.6060    0.4670   -0.4340 C   0  0  0  0  0  0  0  0  0  0  0  0
    0.7700    0.2500   -0.3870 C   0  0  0  0  0  0  0  0  0  0  0  0
    5.7030   -1.4130   -0.7800 C   0  0  0  0  0  0  0  0  0  0  0  0
    7.0600   -1.6320   -0.7430 C   0  0  0  0  0  0  0  0  0  0  0  0
    9.6390   -2.4020    0.2430 N   0  0  0  0  0  0  0  0  0  0  0  0
  1  2  2  0
  2  3  1  0
  2 41  1  0
  3  4  1  0
  4  5  1  0
  5  6  1  1
  5 41  1  0
  6  7  2  0
  6 40  1  0
  7  8  1  0
  8  9  2  0
  9 10  1  0
  9 39  1  0
 10 11  2  3
 11 12  1  0
 12 13  2  0
 12 38  1  0
 13 14  1  0
 14 15  2  0
 15 16  1  0
 15 37  1  0
 16 17  1  6
 16 23  1  0
 17 18  1  0
 18 19  1  0
 19 20  1  6
 19 21  2  0
 19 22  2  0
 23 24  1  0
 24 25  1  0
 25 26  2  0
 25 30  1  0
 26 27  1  0
 27 28  2  0
 28 29  1  0
 28 34  1  0
 29 30  2  0
 29 31  1  0
 31 32  2  0
 32 33  1  0
 34 33  1  1
 34 35  2  0
 34 36  2  0
 37 38  2  0
 39 40  2  0
M  CHG  1  23   1
M  END
