
     RDKit          3D

 41 45  0  0  0  0  0  0  0  0999 V2000
   -3.2470   -4.9620    1.2940 C   0  0  0  0  0  0  0  0  0  0  0  0
   -4.2600   -4.1560    0.5260 C   0  0  0  0  0  0  0  0  0  0  0  0
   -5.4650   -4.7050    0.1540 C   0  0  0  0  0  0  0  0  0  0  0  0
   -6.3970   -3.9760   -0.5470 C   0  0  0  0  0  0  0  0  0  0  0  0
   -6.1320   -2.6670   -0.8910 C   0  0  0  0  0  0  0  0  0  0  0  0
   -7.1630   -1.9120   -1.6470 C   0  0  0  0  0  0  0  0  0  0  0  0
   -6.9460   -2.0850   -2.9950 F   0  0  0  0  0  0  0  0  0  0  0  0
   -4.9170   -2.1320   -0.5090 C   0  0  0  0  0  0  0  0  0  0  0  0
   -3.9780   -2.8530    0.1930 C   0  0  0  0  0  0  0  0  0  0  0  0
   -2.6970   -2.2070    0.5690 C   0  0  0  0  0  0  0  0  0  0  0  0
   -2.6240   -0.4930   -0.0170 S   0  0  0  0  0  0  0  0  0  0  0  0
   -1.0880    0.2840    0.4470 C   0  0  0  0  0  0  0  0  0  0  0  0
   -0.2430   -0.3570    1.1960 C   0  0  0  0  0  0  0  0  0  0  0  0
    1.0440    0.0690    1.6780 C   0  0  0  0  0  0  0  0  0  0  0  0
    1.2220    0.1820    3.0630 C   0  0  0  0  0  0  0  0  0  0  0  0
    2.4770    0.5510    3.5440 C   0  0  0  0  0  0  0  0  0  0  0  0
    3.5080    0.7970    2.6720 C   0  0  0  0  0  0  0  0  0  0  0  0
    3.3080    0.6770    1.2980 C   0  0  0  0  0  0  0  0  0  0  0  0
    2.0660    0.3100    0.8010 C   0  0  0  0  0  0  0  0  0  0  0  0
    1.8280    0.1740   -0.5550 O   0  0  0  0  0  0  0  0  0  0  0  0
    1.9870   -1.0400   -1.2280 C   0  0  0  0  0  0  0  0  0  0  0  0
    2.3650   -2.0090   -0.5030 O   0  0  0  0  0  0  0  0  0  0  0  0
    1.7470   -1.1860   -2.6160 N   0  0  0  0  0  0  0  0  0  0  0  0
    1.3210   -0.0640   -3.4100 C   0  0  0  0  0  0  0  0  0  0  0  0
    1.6320   -0.2470   -4.8790 C   0  0  0  0  0  0  0  0  0  0  0  0
    1.4610   -1.5560   -5.2960 O   0  0  0  0  0  0  0  0  0  0  0  0
    2.4350   -2.3240   -4.6550 C   0  0  0  0  0  0  0  0  0  0  0  0
    1.9450   -2.4960   -3.2100 C   0  0  0  0  0  0  0  0  0  0  0  0
    4.7680    1.1700    3.1540 N   0  0  0  0  0  0  0  0  0  0  0  0
    5.1410    1.0400    4.5360 C   0  0  0  0  0  0  0  0  0  0  0  0
    3.9670    1.0500    5.4300 C   0  0  0  0  0  0  0  0  0  0  0  0
    4.0990    1.3890    6.6200 O   0  0  0  0  0  0  0  0  0  0  0  0
    2.7020    0.6770    4.9380 N   0  0  0  0  0  0  0  0  0  0  0  0
   -0.8600    1.6490    0.0470 C   0  0  0  0  0  0  0  0  0  0  0  0
   -1.7050    2.2230   -0.7070 O   0  0  0  0  0  0  0  0  0  0  0  0
    0.2200    2.4390    0.4110 O   0  0  0  0  0  0  0  0  0  0  0  0
    0.3510    3.7570   -0.0250 C   0  0  2  0  0  0  0  0  0  0  0  0
    1.5870    3.9860   -0.8720 C   0  0  0  0  0  0  0  0  0  0  0  0
    1.5240    5.5140   -1.0170 C   0  0  0  0  0  0  0  0  0  0  0  0
    0.9960    5.9950    0.3310 C   0  0  0  0  0  0  0  0  0  0  0  0
    0.5410    4.7610    1.0780 C   0  0  0  0  0  0  0  0  0  0  0  0
  1  2  1  0
  2  3  2  0
  2  9  1  0
  3  4  1  0
  4  5  2  0
  5  6  1  0
  5  8  1  0
  6  7  1  0
  8  9  2  0
  9 10  1  0
 10 11  1  0
 11 12  1  0
 12 13  2  3
 12 34  1  0
 13 14  1  0
 14 15  2  0
 14 19  1  0
 15 16  1  0
 16 17  2  0
 16 33  1  0
 17 18  1  0
 17 29  1  0
 18 19  2  0
 19 20  1  0
 20 21  1  0
 21 22  2  0
 21 23  1  0
 23 24  1  0
 23 28  1  0
 24 25  1  0
 25 26  1  0
 26 27  1  0
 27 28  1  0
 29 30  1  0
 30 31  1  0
 31 32  2  0
 31 33  1  0
 34 35  2  0
 34 36  1  0
 37 36  1  1
 37 38  1  0
 37 41  1  0
 38 39  1  0
 39 40  1  0
 40 41  1  0
M  END
