
     RDKit          3D

 42 46  0  0  0  0  0  0  0  0999 V2000
   10.3680    0.2100   -1.2650 C   0  0  0  0  0  0  0  0  0  0  0  0
    8.9820    0.1400   -0.6410 C   0  0  0  0  0  0  0  0  0  0  0  0
    8.3180    1.5260   -0.6700 C   0  0  2  0  0  0  0  0  0  0  0  0
    9.2100    2.4870    0.1280 C   0  0  0  0  0  0  0  0  0  0  0  0
    7.0660    1.4240   -0.0020 N   0  0  0  0  0  0  0  0  0  0  0  0
    5.9850    2.2030   -0.6350 C   0  0  2  0  0  0  0  0  0  0  0  0
    4.6980    1.7440    0.1010 C   0  0  0  0  0  0  0  0  0  0  0  0
    4.6590    0.3310   -0.5180 C   0  0  1  0  0  0  0  0  0  0  0  0
    3.6120   -0.4350   -0.0950 O   0  0  0  0  0  0  0  0  0  0  0  0
    3.7260   -1.4030    0.9100 C   0  0  0  0  0  0  0  0  0  0  0  0
    4.9190   -1.4100    1.4020 O   0  0  0  0  0  0  0  0  0  0  0  0
    2.7380   -2.3080    1.4030 C   0  0  0  0  0  0  0  0  0  0  0  0
    3.0780   -3.0770    2.5430 C   0  0  0  0  0  0  0  0  0  0  0  0
    2.2100   -3.9790    3.1120 C   0  0  0  0  0  0  0  0  0  0  0  0
    0.9580   -4.1620    2.5750 C   0  0  0  0  0  0  0  0  0  0  0  0
    0.6070   -3.4280    1.4710 C   0  0  0  0  0  0  0  0  0  0  0  0
    1.5110   -2.5120    0.9080 C   0  0  0  0  0  0  0  0  0  0  0  0
    1.0020   -1.8240   -0.2660 C   0  0  0  0  0  0  0  0  0  0  0  0
    1.7120   -1.5230   -1.2210 O   0  0  0  0  0  0  0  0  0  0  0  0
   -0.4500   -1.5200   -0.2280 C   0  0  0  0  0  0  0  0  0  0  0  0
   -1.1670   -1.3700    0.9180 C   0  0  0  0  0  0  0  0  0  0  0  0
   -2.5470   -1.2500    0.9420 C   0  0  0  0  0  0  0  0  0  0  0  0
   -3.2510   -1.2800   -0.2420 C   0  0  0  0  0  0  0  0  0  0  0  0
   -4.7110   -1.2500   -0.2250 C   0  0  0  0  0  0  0  0  0  0  0  0
   -5.3860    0.0700   -0.3190 C   0  0  2  0  0  0  0  0  0  0  0  0
   -5.0050    0.6990   -1.5190 O   0  0  0  0  0  0  0  0  0  0  0  0
   -5.0590    0.9940    0.8140 C   0  0  0  0  0  0  0  0  0  0  0  0
   -6.1860    1.9670    1.1060 C   0  0  1  0  0  0  0  0  0  0  0  0
   -5.7540    2.8730    2.2280 C   0  0  0  0  0  0  0  0  0  0  0  0
   -6.5170    2.8130   -0.0890 C   0  0  0  0  0  0  0  0  0  0  0  0
   -7.4340    1.2140    1.5280 C   0  0  0  0  0  0  0  0  0  0  0  0
   -7.8220    0.3410    0.3670 C   0  0  0  0  0  0  0  0  0  0  0  0
   -9.1550    0.0720    0.1880 C   0  0  0  0  0  0  0  0  0  0  0  0
   -9.5820   -0.7220   -0.8620 C   0  0  0  0  0  0  0  0  0  0  0  0
   -8.6290   -1.2240   -1.7070 C   0  0  0  0  0  0  0  0  0  0  0  0
   -7.2660   -0.9520   -1.5250 C   0  0  0  0  0  0  0  0  0  0  0  0
   -6.8640   -0.1630   -0.4770 C   0  0  0  0  0  0  0  0  0  0  0  0
   -2.5170   -1.4310   -1.4150 C   0  0  0  0  0  0  0  0  0  0  0  0
   -1.1410   -1.5510   -1.4510 C   0  0  0  0  0  0  0  0  0  0  0  0
    4.9220    0.5420   -1.9290 C   0  0  0  0  0  0  0  0  0  0  0  0
    4.5400   -0.1400   -2.8930 O   0  0  0  0  0  0  0  0  0  0  0  0
    5.7350    1.7190   -2.0010 N   0  0  0  0  0  0  0  0  0  0  0  0
  1  2  1  0
  2  3  1  0
  3  4  1  1
  3  5  1  0
  6  5  1  1
  6  7  1  0
  6 42  1  0
  7  8  1  0
  8  9  1  6
  8 40  1  0
  9 10  1  0
 10 11  2  0
 10 12  1  0
 12 13  2  0
 12 17  1  0
 13 14  1  0
 14 15  2  0
 15 16  1  0
 16 17  2  0
 17 18  1  0
 18 19  2  0
 18 20  1  0
 20 21  2  0
 20 39  1  0
 21 22  1  0
 22 23  2  0
 23 24  1  0
 23 38  1  0
 24 25  1  0
 25 26  1  6
 25 27  1  0
 25 37  1  0
 27 28  1  0
 28 29  1  1
 28 30  1  0
 28 31  1  0
 31 32  1  0
 32 33  2  0
 32 37  1  0
 33 34  1  0
 34 35  2  0
 35 36  1  0
 36 37  2  0
 38 39  2  0
 40 41  2  0
 40 42  1  0
M  END
