
     RDKit          3D

 42 46  0  0  0  0  0  0  0  0999 V2000
    4.2650   -4.4110   -3.0720 C   0  0  0  0  0  0  0  0  0  0  0  0
    4.5150   -3.6840   -1.7800 C   0  0  0  0  0  0  0  0  0  0  0  0
    3.4650   -2.6860   -1.4250 C   0  0  2  0  0  0  0  0  0  0  0  0
    3.1310   -1.5400   -2.2710 C   0  0  0  0  0  0  0  0  0  0  0  0
    4.0150   -1.2730   -1.1470 C   0  0  1  0  0  0  0  0  0  0  0  0
    3.5130   -0.7500    0.1260 N   0  0  0  0  0  0  0  0  0  0  0  0
    4.3200   -0.2080    1.1060 C   0  0  0  0  0  0  0  0  0  0  0  0
    5.5970   -0.2330    0.7570 O   0  0  0  0  0  0  0  0  0  0  0  0
    4.0200    0.3570    2.3990 C   0  0  0  0  0  0  0  0  0  0  0  0
    5.0650    0.3360    3.3590 C   0  0  0  0  0  0  0  0  0  0  0  0
    4.9240    0.8380    4.5920 C   0  0  0  0  0  0  0  0  0  0  0  0
    3.7310    1.4000    4.9690 C   0  0  0  0  0  0  0  0  0  0  0  0
    2.6630    1.4490    4.0640 C   0  0  0  0  0  0  0  0  0  0  0  0
    2.8350    0.9240    2.8030 C   0  0  0  0  0  0  0  0  0  0  0  0
    1.7310    0.9910    1.8450 C   0  0  0  0  0  0  0  0  0  0  0  0
    0.4780    1.6300    2.4600 C   0  0  2  0  0  0  0  0  0  0  0  0
   -0.0130    0.7540    3.5610 C   0  0  0  0  0  0  0  0  0  0  0  0
   -0.4960    1.9360    1.4390 N   0  0  0  0  0  0  0  0  0  0  0  0
   -0.7880    3.2860    1.1410 C   0  0  0  0  0  0  0  0  0  0  0  0
   -0.0770    4.1630    1.7690 O   0  0  0  0  0  0  0  0  0  0  0  0
   -1.7880    3.7500    0.2120 C   0  0  0  0  0  0  0  0  0  0  0  0
   -1.4970    3.7910   -1.1320 C   0  0  0  0  0  0  0  0  0  0  0  0
   -2.4380    4.2020   -2.0800 C   0  0  0  0  0  0  0  0  0  0  0  0
   -3.6960    4.5780   -1.6590 C   0  0  0  0  0  0  0  0  0  0  0  0
   -3.9990    4.5420   -0.3270 C   0  0  0  0  0  0  0  0  0  0  0  0
   -3.0420    4.1270    0.6130 C   0  0  0  0  0  0  0  0  0  0  0  0
   -3.4300    4.1450    2.0450 C   0  0  0  0  0  0  0  0  0  0  0  0
   -4.7720    4.5790    2.1580 O   0  0  0  0  0  0  0  0  0  0  0  0
   -1.1680    0.9140    0.7360 C   0  0  0  0  0  0  0  0  0  0  0  0
   -2.4020    0.5010    1.2260 C   0  0  0  0  0  0  0  0  0  0  0  0
   -3.1070   -0.4860    0.5750 C   0  0  0  0  0  0  0  0  0  0  0  0
   -2.5890   -1.0750   -0.5770 C   0  0  0  0  0  0  0  0  0  0  0  0
   -1.3700   -0.6520   -1.0420 C   0  0  0  0  0  0  0  0  0  0  0  0
   -0.6550    0.3340   -0.4010 C   0  0  0  0  0  0  0  0  0  0  0  0
   -1.0280   -1.4320   -2.2920 C   0  0  1  0  0  0  0  0  0  0  0  0
   -0.4120   -0.6040   -3.2310 O   0  0  0  0  0  0  0  0  0  0  0  0
   -0.2690   -2.5190   -1.9280 O   0  0  0  0  0  0  0  0  0  0  0  0
   -2.3880   -1.8560   -2.7730 C   0  0  1  0  0  0  0  0  0  0  0  0
   -2.3610   -3.0890   -3.6430 C   0  0  0  0  0  0  0  0  0  0  0  0
   -3.1020   -2.1290   -1.4710 C   0  0  2  0  0  0  0  0  0  0  0  0
   -4.6100   -1.9970   -1.6790 C   0  0  0  0  0  0  0  0  0  0  0  0
   -2.7450   -3.4890   -0.9380 C   0  0  0  0  0  0  0  0  0  0  0  0
  1  2  1  0
  3  2  1  6
  3  4  1  0
  3  5  1  0
  4  5  1  0
  5  6  1  1
  6  7  1  0
  7  8  2  0
  7  9  1  0
  9 10  2  0
  9 14  1  0
 10 11  1  0
 11 12  2  0
 12 13  1  0
 13 14  2  0
 14 15  1  0
 15 16  1  0
 16 17  1  1
 16 18  1  0
 18 19  1  0
 18 29  1  0
 19 20  2  0
 19 21  1  0
 21 22  2  0
 21 26  1  0
 22 23  1  0
 23 24  2  0
 24 25  1  0
 25 26  2  0
 26 27  1  0
 27 28  1  0
 29 30  2  0
 29 34  1  0
 30 31  1  0
 31 32  2  0
 32 33  1  0
 32 40  1  0
 33 34  2  0
 33 35  1  0
 35 36  1  6
 35 37  1  0
 35 38  1  0
 38 39  1  6
 38 40  1  0
 40 41  1  6
 40 42  1  0
M  END
