
     RDKit          3D

 43 43  0  0  0  0  0  0  0  0999 V2000
    1.1820   -2.6970   -3.2040 C   0  0  0  0  0  0  0  0  0  0  0  0
   -0.0840   -2.4350   -2.6030 C   0  0  0  0  0  0  0  0  0  0  0  0
   -0.4330   -1.9910   -1.4160 C   0  0  0  0  0  0  0  0  0  0  0  0
    0.5210   -1.6630   -0.4110 C   0  0  0  0  0  0  0  0  0  0  0  0
    0.1060   -1.3320    0.7700 O   0  0  0  0  0  0  0  0  0  0  0  0
    1.9450   -1.6130   -0.4970 N   0  0  0  0  0  0  0  0  0  0  0  0
    2.6640   -1.2300    0.7300 C   0  0  0  0  0  0  0  0  0  0  0  0
    4.0840   -0.9600    0.4870 C   0  0  0  0  0  0  0  0  0  0  0  0
    4.7880   -0.6460    1.5340 O   0  0  0  0  0  0  0  0  0  0  0  0
    4.7460   -0.9880   -0.7300 N   0  0  0  0  0  0  0  0  0  0  0  0
    6.1070   -0.6640   -0.9420 C   0  0  0  0  0  0  0  0  0  0  0  0
    6.9680   -0.4370    0.0910 C   0  0  0  0  0  0  0  0  0  0  0  0
    8.2820    0.0060   -0.1290 C   0  0  0  0  0  0  0  0  0  0  0  0
    9.1210    0.2260    0.9400 O   0  0  0  0  0  0  0  0  0  0  0  0
    8.6680   -0.0090    2.2550 C   0  0  0  0  0  0  0  0  0  0  0  0
    8.6870    0.2070   -1.4290 C   0  0  0  0  0  0  0  0  0  0  0  0
    7.8220   -0.0230   -2.4980 C   0  0  0  0  0  0  0  0  0  0  0  0
    8.2220    0.1770   -3.8260 O   0  0  0  0  0  0  0  0  0  0  0  0
    9.5250    0.6650   -4.1330 C   0  0  0  0  0  0  0  0  0  0  0  0
    9.6780    2.0870   -3.5820 C   0  0  0  0  0  0  0  0  0  0  0  0
    6.5540   -0.4520   -2.2580 C   0  0  0  0  0  0  0  0  0  0  0  0
   -1.7630   -1.3390   -1.4360 C   0  0  0  0  0  0  0  0  0  0  0  0
   -2.2100   -1.1510   -2.8630 O   0  0  0  0  0  0  0  0  0  0  0  0
   -2.5980   -0.9090   -0.6400 C   0  0  0  0  0  0  0  0  0  0  0  0
   -3.7850   -0.2780   -1.3750 O   0  0  0  0  0  0  0  0  0  0  0  0
   -4.7760   -1.1870   -1.7710 C   0  0  0  0  0  0  0  0  0  0  0  0
   -2.8710   -0.8400    0.7690 C   0  0  0  0  0  0  0  0  0  0  0  0
   -3.9410   -0.1280    1.1780 C   0  0  0  0  0  0  0  0  0  0  0  0
   -4.3950    0.0630    2.5240 C   0  0  0  0  0  0  0  0  0  0  0  0
   -3.7120   -0.4660    3.7090 C   0  0  0  0  0  0  0  0  0  0  0  0
   -5.4970    0.8420    2.6430 C   0  0  0  0  0  0  0  0  0  0  0  0
   -6.0540    1.3670    1.4530 O   0  0  0  0  0  0  0  0  0  0  0  0
   -5.9560    2.7230    1.1380 C   0  0  0  0  0  0  0  0  0  0  0  0
   -6.6600    2.9380   -0.2120 C   0  0  1  0  0  0  0  0  0  0  0  0
   -6.0070    2.1050   -1.1380 O   0  0  0  0  0  0  0  0  0  0  0  0
   -8.0760    2.4470   -0.0690 C   0  0  0  0  0  0  0  0  0  0  0  0
   -8.7310    2.4060   -1.3010 O   0  0  0  0  0  0  0  0  0  0  0  0
   -6.1220    1.1560    3.8810 C   0  0  0  0  0  0  0  0  0  0  0  0
   -5.8190    0.7960    5.0340 O   0  0  0  0  0  0  0  0  0  0  0  0
   -7.2640    2.0030    3.8280 O   0  0  0  0  0  0  0  0  0  0  0  0
   -7.9290    2.3500    5.0100 C   0  0  0  0  0  0  0  0  0  0  0  0
   -2.1640   -1.4510    1.7720 O   0  0  0  0  0  0  0  0  0  0  0  0
   -2.3870   -2.8410    2.0660 C   0  0  0  0  0  0  0  0  0  0  0  0
  1  2  1  0
  2  3  2  3
  3  4  1  0
  3 22  1  0
  4  5  2  0
  4  6  1  0
  6  7  1  0
  7  8  1  0
  8  9  2  0
  8 10  1  0
 10 11  1  0
 11 12  2  0
 11 21  1  0
 12 13  1  0
 13 14  1  0
 13 16  2  0
 14 15  1  0
 16 17  1  0
 17 18  1  0
 17 21  2  0
 18 19  1  0
 19 20  1  0
 22 23  1  0
 22 24  2  3
 24 25  1  0
 24 27  1  0
 25 26  1  0
 27 28  2  3
 27 42  1  0
 28 29  1  0
 29 30  1  0
 29 31  2  3
 31 32  1  0
 31 38  1  0
 32 33  1  0
 33 34  1  0
 34 35  1  6
 34 36  1  0
 36 37  1  0
 38 39  2  0
 38 40  1  0
 40 41  1  0
 42 43  1  0
M  END
