
     RDKit          3D

 43 44  0  0  0  0  0  0  0  0999 V2000
   -5.8640    0.7860    3.2210 C   0  0  0  0  0  0  0  0  0  0  0  0
   -4.8300    0.5760    2.2010 C   0  0  0  0  0  0  0  0  0  0  0  0
   -3.4960    0.4450    2.5670 C   0  0  0  0  0  0  0  0  0  0  0  0
   -2.5130    0.2490    1.6480 C   0  0  0  0  0  0  0  0  0  0  0  0
   -2.7720    0.1700    0.3160 C   0  0  0  0  0  0  0  0  0  0  0  0
   -1.7220    0.1270   -0.6710 C   0  0  0  0  0  0  0  0  0  0  0  0
   -1.6110   -0.8470   -1.5410 C   0  0  0  0  0  0  0  0  0  0  0  0
   -2.3380   -2.0380   -1.7940 C   0  0  0  0  0  0  0  0  0  0  0  0
   -1.9540   -2.7130   -2.8430 O   0  0  0  0  0  0  0  0  0  0  0  0
   -3.4050   -2.6220   -1.0930 N   0  0  0  0  0  0  0  0  0  0  0  0
   -4.0030   -3.8350   -1.6010 C   0  0  0  0  0  0  0  0  0  0  0  0
   -3.5980   -4.3770   -2.6440 O   0  0  0  0  0  0  0  0  0  0  0  0
   -5.0660   -4.4260   -0.9120 O   0  0  0  0  0  0  0  0  0  0  0  0
   -0.7130    1.2500   -0.7890 C   0  0  0  0  0  0  0  0  0  0  0  0
    0.1000    1.5810    0.1430 O   0  0  0  0  0  0  0  0  0  0  0  0
    0.6320    2.0130    1.2700 C   0  0  0  0  0  0  0  0  0  0  0  0
   -0.1160    2.5550    2.3360 C   0  0  0  0  0  0  0  0  0  0  0  0
    0.5570    2.9700    3.4430 C   0  0  0  0  0  0  0  0  0  0  0  0
    1.9270    2.8830    3.5640 C   0  0  0  0  0  0  0  0  0  0  0  0
    2.6610    2.3550    2.5250 C   0  0  0  0  0  0  0  0  0  0  0  0
    2.0380    1.9190    1.3820 C   0  0  0  0  0  0  0  0  0  0  0  0
    2.8080    1.3540    0.2790 C   0  0  0  0  0  0  0  0  0  0  0  0
    4.0720    1.2910    0.4240 O   0  0  0  0  0  0  0  0  0  0  0  0
    2.3220    0.8820   -0.9000 O   0  0  0  0  0  0  0  0  0  0  0  0
    3.0770    0.3410   -1.9480 C   0  0  0  0  0  0  0  0  0  0  0  0
    3.8450   -0.8610   -1.5270 C   0  0  0  0  0  0  0  0  0  0  0  0
    4.5760   -1.4660   -2.3510 O   0  0  0  0  0  0  0  0  0  0  0  0
    3.7230   -1.2810   -0.2110 O   0  0  0  0  0  0  0  0  0  0  0  0
    4.4330   -2.4200    0.2400 C   0  0  0  0  0  0  0  0  0  0  0  0
    5.8940   -2.1610    0.0600 C   0  0  0  0  0  0  0  0  0  0  0  0
    6.7450   -3.0440    0.3920 O   0  0  0  0  0  0  0  0  0  0  0  0
    6.3460   -0.9730   -0.4640 O   0  0  0  0  0  0  0  0  0  0  0  0
    7.7310   -0.7720   -0.6160 C   0  0  1  0  0  0  0  0  0  0  0  0
    8.1380   -0.4930   -2.0350 C   0  0  0  0  0  0  0  0  0  0  0  0
    8.1900    0.3510    0.2670 C   0  0  0  0  0  0  0  0  0  0  0  0
    7.2920    1.0540    1.1040 N   0  0  0  0  0  0  0  0  0  0  0  0
    9.3990    0.6620    0.2530 O   0  0  0  0  0  0  0  0  0  0  0  0
   -4.1210    0.3020   -0.0700 C   0  0  0  0  0  0  0  0  0  0  0  0
   -4.4270    0.2340   -1.3990 O   0  0  0  0  0  0  0  0  0  0  0  0
   -5.6810    0.3560   -1.9950 C   0  0  1  0  0  0  0  0  0  0  0  0
   -6.6090   -0.7540   -1.5800 C   0  0  0  0  0  0  0  0  0  0  0  0
   -6.3250    1.6960   -1.7100 C   0  0  0  0  0  0  0  0  0  0  0  0
   -5.0890    0.4960    0.8610 C   0  0  0  0  0  0  0  0  0  0  0  0
  1  2  1  0
  2  3  2  0
  2 43  1  0
  3  4  1  0
  4  5  2  0
  5  6  1  0
  5 38  1  0
  6  7  2  3
  6 14  1  0
  7  8  1  0
  8  9  2  0
  8 10  1  0
 10 11  1  0
 11 12  2  0
 11 13  1  0
 14 15  1  0
 15 16  1  0
 16 17  2  0
 16 21  1  0
 17 18  1  0
 18 19  2  0
 19 20  1  0
 20 21  2  0
 21 22  1  0
 22 23  2  0
 22 24  1  0
 24 25  1  0
 25 26  1  0
 26 27  2  0
 26 28  1  0
 28 29  1  0
 29 30  1  0
 30 31  2  0
 30 32  1  0
 32 33  1  0
 33 34  1  6
 33 35  1  0
 35 36  1  0
 35 37  2  0
 38 39  1  0
 38 43  2  0
 39 40  1  0
 40 41  1  1
 40 42  1  0
M  END
