
     RDKit          3D

 42 46  0  0  0  0  0  0  0  0999 V2000
    3.3690    3.4870   -0.5840 C   0  0  0  0  0  0  0  0  0  0  0  0
    2.0150    2.9880   -0.2630 C   0  0  0  0  0  0  0  0  0  0  0  0
    1.9240    1.5440    0.1780 C   0  0  2  0  0  0  0  0  0  0  0  0
    2.7230    1.3650    1.2980 O   0  0  0  0  0  0  0  0  0  0  0  0
    2.2300    0.5480   -0.8670 C   0  0  0  0  0  0  0  0  0  0  0  0
    3.6630    0.6910   -1.4130 C   0  0  0  0  0  0  0  0  0  0  0  0
    3.7260    1.3140   -2.4640 O   0  0  0  0  0  0  0  0  0  0  0  0
    4.6730    0.0820   -0.6200 C   0  0  0  0  0  0  0  0  0  0  0  0
    5.9630   -0.0570   -0.6650 C   0  0  0  0  0  0  0  0  0  0  0  0
    6.5440   -0.8130    0.4640 N   0  0  0  0  0  0  0  0  0  0  0  0
    7.8000   -1.0090    0.5310 C   0  0  0  0  0  0  0  0  0  0  0  0
    8.3160   -1.7320    1.6180 C   0  0  0  0  0  0  0  0  0  0  0  0
    9.6510   -1.9750    1.7470 C   0  0  0  0  0  0  0  0  0  0  0  0
   10.4900   -1.4880    0.7730 C   0  0  0  0  0  0  0  0  0  0  0  0
   10.0110   -0.7750   -0.3070 C   0  0  0  0  0  0  0  0  0  0  0  0
    8.6450   -0.5300   -0.4320 C   0  0  0  0  0  0  0  0  0  0  0  0
    8.2450    0.1540   -1.4790 C   0  0  0  0  0  0  0  0  0  0  0  0
    6.8400    0.4240   -1.6380 N   0  0  0  0  0  0  0  0  0  0  0  0
    6.4190    1.1670   -2.7790 C   0  0  0  0  0  0  0  0  0  0  0  0
    0.4460    1.3190    0.5760 C   0  0  0  0  0  0  0  0  0  0  0  0
    0.2690   -0.0350    1.0740 C   0  0  0  0  0  0  0  0  0  0  0  0
    1.1680   -0.8560    1.2900 O   0  0  0  0  0  0  0  0  0  0  0  0
   -1.1220   -0.4420    1.3400 N   0  0  0  0  0  0  0  0  0  0  0  0
   -1.2720   -1.7620    1.8220 C   0  0  0  0  0  0  0  0  0  0  0  0
   -2.6070   -2.2790    2.1430 C   0  0  0  0  0  0  0  0  0  0  0  0
   -3.6260   -2.3160    1.0970 C   0  0  0  0  0  0  0  0  0  0  0  0
   -3.7170   -3.4460    0.2730 C   0  0  0  0  0  0  0  0  0  0  0  0
   -4.6220   -3.4730   -0.7450 C   0  0  0  0  0  0  0  0  0  0  0  0
   -4.6880   -4.4930   -1.4730 O   0  0  0  0  0  0  0  0  0  0  0  0
   -5.4580   -2.4370   -1.0050 N   0  0  0  0  0  0  0  0  0  0  0  0
   -5.3680   -1.3610   -0.2120 C   0  0  0  0  0  0  0  0  0  0  0  0
   -6.2360   -0.2900   -0.4560 C   0  0  0  0  0  0  0  0  0  0  0  0
   -7.2120   -0.4180   -1.5610 C   0  0  2  0  0  0  0  0  0  0  0  0
   -7.8100    0.9630   -1.8070 C   0  0  0  0  0  0  0  0  0  0  0  0
   -8.8010    0.7600   -2.9460 C   0  0  0  0  0  0  0  0  0  0  0  0
   -9.7170   -0.6900   -2.2720 S   0  0  0  0  0  0  0  0  0  0  0  0
   -8.3980   -1.2460   -1.1020 C   0  0  0  0  0  0  0  0  0  0  0  0
   -6.1920    0.8480    0.3520 C   0  0  0  0  0  0  0  0  0  0  0  0
   -5.3040    0.9440    1.3970 C   0  0  0  0  0  0  0  0  0  0  0  0
   -5.2430    2.1560    2.2740 C   0  0  0  0  0  0  0  0  0  0  0  0
   -4.4650   -0.1160    1.6160 C   0  0  0  0  0  0  0  0  0  0  0  0
   -4.4600   -1.2690    0.8500 C   0  0  0  0  0  0  0  0  0  0  0  0
  1  2  1  0
  2  3  1  0
  3  4  1  1
  3  5  1  0
  3 20  1  0
  5  6  1  0
  6  7  2  0
  6  8  1  0
  8  9  2  3
  9 10  1  0
  9 18  1  0
 10 11  2  0
 11 12  1  0
 11 16  1  0
 12 13  2  0
 13 14  1  0
 14 15  2  0
 15 16  1  0
 16 17  2  0
 17 18  1  0
 18 19  1  0
 20 21  1  0
 21 22  2  0
 21 23  1  0
 23 24  1  0
 24 25  1  0
 25 26  1  0
 26 27  2  0
 26 42  1  0
 27 28  1  0
 28 29  2  0
 28 30  1  0
 30 31  1  0
 31 32  2  0
 31 42  1  0
 33 32  1  1
 32 38  1  0
 33 34  1  0
 33 37  1  0
 34 35  1  0
 35 36  1  0
 36 37  1  0
 38 39  2  0
 39 40  1  0
 39 41  1  0
 41 42  2  0
M  END
