
     RDKit          3D

 43 44  0  0  0  0  0  0  0  0999 V2000
    3.1660   -1.9000    2.7960 C   0  0  0  0  0  0  0  0  0  0  0  0
    3.5050   -0.8900    1.7600 C   0  0  0  0  0  0  0  0  0  0  0  0
    2.5880    0.0840    1.3360 C   0  0  0  0  0  0  0  0  0  0  0  0
    2.9200    1.0060    0.3770 C   0  0  0  0  0  0  0  0  0  0  0  0
    1.9230    2.0240   -0.0400 C   0  0  0  0  0  0  0  0  0  0  0  0
    0.9990    1.4770   -1.0650 C   0  0  0  0  0  0  0  0  0  0  0  0
    0.2810    0.4630   -0.7740 O   0  0  0  0  0  0  0  0  0  0  0  0
    0.8520    1.9920   -2.3430 O   0  0  0  0  0  0  0  0  0  0  0  0
   -0.0180    1.4870   -3.3010 C   0  0  0  0  0  0  0  0  0  0  0  0
   -1.4770    1.6220   -2.9280 C   0  0  0  0  0  0  0  0  0  0  0  0
   -2.2940    1.0670   -3.6850 O   0  0  0  0  0  0  0  0  0  0  0  0
   -1.8910    2.3290   -1.8080 N   0  0  0  0  0  0  0  0  0  0  0  0
   -3.1760    2.5660   -1.2610 C   0  0  0  0  0  0  0  0  0  0  0  0
   -3.9030    1.4240   -0.6990 C   0  0  0  0  0  0  0  0  0  0  0  0
   -4.1560    1.2870    0.6620 C   0  0  0  0  0  0  0  0  0  0  0  0
   -3.7160    2.2580    1.6250 C   0  0  0  0  0  0  0  0  0  0  0  0
   -3.8120    2.3720    2.8930 C   0  0  0  0  0  0  0  0  0  0  0  0
   -4.3690    1.6650    4.0210 C   0  0  0  0  0  0  0  0  0  0  0  0
   -3.3060    1.3340    4.9390 O   0  0  0  0  0  0  0  0  0  0  0  0
   -4.9290    0.0840    0.8750 C   0  0  0  0  0  0  0  0  0  0  0  0
   -5.3860   -0.4500    1.9180 O   0  0  0  0  0  0  0  0  0  0  0  0
   -5.1700   -0.5500   -0.3930 N   0  0  0  0  0  0  0  0  0  0  0  0
   -5.8990   -1.7620   -0.6780 C   0  0  1  0  0  0  0  0  0  0  0  0
   -5.4110   -2.9310    0.1390 C   0  0  0  0  0  0  0  0  0  0  0  0
   -7.3750   -1.5640   -0.2870 C   0  0  1  0  0  0  0  0  0  0  0  0
   -7.9780   -0.4270   -1.0710 C   0  0  0  0  0  0  0  0  0  0  0  0
   -8.1110   -2.8300   -0.6620 C   0  0  0  0  0  0  0  0  0  0  0  0
   -4.5270    0.3020   -1.3320 C   0  0  0  0  0  0  0  0  0  0  0  0
   -4.5490    0.0400   -2.5770 O   0  0  0  0  0  0  0  0  0  0  0  0
    4.1890    0.9710   -0.1810 C   0  0  0  0  0  0  0  0  0  0  0  0
    5.1240    0.0310    0.2040 C   0  0  0  0  0  0  0  0  0  0  0  0
    6.4500    0.0300   -0.3960 C   0  0  0  0  0  0  0  0  0  0  0  0
    6.8020    0.8810   -1.2610 O   0  0  0  0  0  0  0  0  0  0  0  0
    7.4270   -0.9150   -0.0560 O   0  0  0  0  0  0  0  0  0  0  0  0
    8.7110   -0.8950   -0.6470 C   0  0  2  0  0  0  0  0  0  0  0  0
    8.6520   -1.0470   -2.1550 C   0  0  0  0  0  0  0  0  0  0  0  0
    9.4600   -2.0690   -0.1320 C   0  0  0  0  0  0  0  0  0  0  0  0
    8.9220   -2.8720    0.6740 O   0  0  0  0  0  0  0  0  0  0  0  0
   10.7800   -2.3510   -0.5010 O   0  0  0  0  0  0  0  0  0  0  0  0
    9.4700    0.3160   -0.3270 C   0  0  0  0  0  0  0  0  0  0  0  0
   10.6290    0.4450   -0.7950 O   0  0  0  0  0  0  0  0  0  0  0  0
    8.9470    1.2980    0.4630 O   0  0  0  0  0  0  0  0  0  0  0  0
    4.7660   -0.8810    1.1650 C   0  0  0  0  0  0  0  0  0  0  0  0
  1  2  1  0
  2  3  2  0
  2 43  1  0
  3  4  1  0
  4  5  1  0
  4 30  2  0
  5  6  1  0
  6  7  2  0
  6  8  1  0
  8  9  1  0
  9 10  1  0
 10 11  2  0
 10 12  1  0
 12 13  1  0
 13 14  1  0
 14 15  2  0
 14 28  1  0
 15 16  1  0
 15 20  1  0
 16 17  2  3
 17 18  1  0
 18 19  1  0
 20 21  2  0
 20 22  1  0
 22 23  1  0
 22 28  1  0
 23 24  1  1
 23 25  1  0
 25 26  1  6
 25 27  1  0
 28 29  2  0
 30 31  1  0
 31 32  1  0
 31 43  2  0
 32 33  2  0
 32 34  1  0
 34 35  1  0
 35 36  1  6
 35 37  1  0
 35 40  1  0
 37 38  2  0
 37 39  1  0
 40 41  2  0
 40 42  1  0
M  END
