
     RDKit          3D

 10  9  0  0  0  0  0  0  0  0999 V2000
    2.6990    1.7020   -0.0800 O   0  0  0  0  0  0  0  0  0  0  0  0
    2.9510    0.4850   -0.3790 C   0  0  0  0  0  0  0  0  0  0  0  0
    4.2470    0.2040   -0.7380 O   0  0  0  0  0  0  0  0  0  0  0  0
    1.9500   -0.4890   -0.3360 O   0  0  0  0  0  0  0  0  0  0  0  0
    0.6630   -0.0160    0.0580 C   0  0  0  0  0  0  0  0  0  0  0  0
   -0.3600   -1.0860    0.0870 C   0  0  1  0  0  0  0  0  0  0  0  0
   -0.0030   -2.1430    0.9470 O   0  0  0  0  0  0  0  0  0  0  0  0
   -1.6550   -0.5540    0.6460 C   0  0  0  0  0  0  0  0  0  0  0  0
   -2.2760    0.5700   -0.1030 C   0  0  0  0  0  0  0  0  0  0  0  0
   -1.5180    1.7050   -0.1690 O   0  0  0  0  0  0  0  0  0  0  0  0
  1  2  2  0
  2  3  1  0
  2  4  1  0
  4  5  1  0
  5  6  1  0
  6  7  1  1
  6  8  1  0
  8  9  1  0
  9 10  1  0
M  END
