
     RDKit          3D

 28 31  0  0  0  0  0  0  0  0999 V2000
    1.5030    2.3210    0.1900 O   0  0  0  0  0  0  0  0  0  0  0  0
    0.9570    1.2090    0.0490 C   0  0  0  0  0  0  0  0  0  0  0  0
   -0.4440    1.1420    0.0530 N   0  0  0  0  0  0  0  0  0  0  0  0
   -1.3580    2.2040    0.2010 C   0  0  0  0  0  0  0  0  0  0  0  0
   -1.0380    3.5250    0.3700 C   0  0  0  0  0  0  0  0  0  0  0  0
   -1.9780    4.4760    0.5030 N   0  0  0  0  0  0  0  0  0  0  0  0
   -3.2900    4.1770    0.4760 C   0  0  0  0  0  0  0  0  0  0  0  0
   -3.7040    2.8510    0.3060 C   0  0  0  0  0  0  0  0  0  0  0  0
   -2.7340    1.8830    0.1710 C   0  0  0  0  0  0  0  0  0  0  0  0
   -3.0460    0.5640    0.0020 O   0  0  0  0  0  0  0  0  0  0  0  0
   -4.3050    0.0350   -0.0560 C   0  0  1  0  0  0  0  0  0  0  0  0
   -4.5820   -0.7410   -1.3370 C   0  0  0  0  0  0  0  0  0  0  0  0
   -5.2600   -2.0290   -0.9290 C   0  0  0  0  0  0  0  0  0  0  0  0
   -5.6750   -1.8280    0.4230 N   0  0  0  0  0  0  0  0  0  0  0  0
   -4.5380   -1.0730    0.9730 C   0  0  0  0  0  0  0  0  0  0  0  0
    1.8130    0.0150   -0.1140 C   0  0  0  0  0  0  0  0  0  0  0  0
    1.2090   -1.2890   -0.2790 C   0  0  0  0  0  0  0  0  0  0  0  0
    2.7180   -2.3250   -0.4280 S   0  0  0  0  0  0  0  0  0  0  0  0
    3.8870   -0.8580   -0.2470 C   0  0  0  0  0  0  0  0  0  0  0  0
    5.3140   -1.1110   -0.2930 C   0  0  0  0  0  0  0  0  0  0  0  0
    6.2210   -0.0830   -0.1670 C   0  0  0  0  0  0  0  0  0  0  0  0
    5.7320    1.1680    0.0000 F   0  0  0  0  0  0  0  0  0  0  0  0
    7.5810   -0.2560   -0.2020 C   0  0  0  0  0  0  0  0  0  0  0  0
    8.0830   -1.5300   -0.3730 C   0  0  0  0  0  0  0  0  0  0  0  0
    7.2160   -2.5780   -0.5020 C   0  0  0  0  0  0  0  0  0  0  0  0
    5.8500   -2.3740   -0.4630 C   0  0  0  0  0  0  0  0  0  0  0  0
    5.0330   -3.4450   -0.5950 F   0  0  0  0  0  0  0  0  0  0  0  0
    3.1010   -0.0040   -0.1290 N   0  0  0  0  0  0  0  0  0  0  0  0
  1  2  2  0
  2  3  1  0
  2 16  1  0
  3  4  1  0
  4  5  2  0
  4  9  1  0
  5  6  1  0
  6  7  2  0
  7  8  1  0
  8  9  2  0
  9 10  1  0
 11 10  1  6
 11 12  1  0
 11 15  1  0
 12 13  1  0
 13 14  1  0
 14 15  1  0
 16 17  2  0
 16 28  1  0
 17 18  1  0
 18 19  1  0
 19 20  1  0
 19 28  2  0
 20 21  2  0
 20 26  1  0
 21 22  1  0
 21 23  1  0
 23 24  2  0
 24 25  1  0
 25 26  2  0
 26 27  1  0
M  END
