
     RDKit          3D

 10  9  0  0  0  0  0  0  0  0999 V2000
    3.4170   -0.3550    0.5150 O   0  0  0  0  0  0  0  0  0  0  0  0
    3.2240    0.3070   -0.6870 C   0  0  0  0  0  0  0  0  0  0  0  0
    2.0410   -0.2180   -1.2530 O   0  0  0  0  0  0  0  0  0  0  0  0
    1.0380    0.0510   -0.3240 C   0  0  0  0  0  0  0  0  0  0  0  0
   -0.1980   -0.3960   -0.7150 O   0  0  0  0  0  0  0  0  0  0  0  0
   -1.1190   -0.0760    0.2820 C   0  0  2  0  0  0  0  0  0  0  0  0
   -1.7430   -1.3690    0.7780 C   0  0  0  0  0  0  0  0  0  0  0  0
   -2.3740   -1.9990   -0.2730 O   0  0  0  0  0  0  0  0  0  0  0  0
   -2.2430    0.7990   -0.2350 C   0  0  0  0  0  0  0  0  0  0  0  0
   -1.7600    2.0010   -0.7440 O   0  0  0  0  0  0  0  0  0  0  0  0
  1  2  1  0
  2  3  1  0
  3  4  1  0
  4  5  1  0
  5  6  1  0
  6  7  1  6
  6  9  1  0
  7  8  1  0
  9 10  1  0
M  END
