
     RDKit          3D

 10  9  0  0  0  0  0  0  0  0999 V2000
    3.5400    0.6150   -0.9330 C   0  0  0  0  0  0  0  0  0  0  0  0
    2.1800    0.2990   -0.7040 O   0  0  0  0  0  0  0  0  0  0  0  0
    1.8080   -0.1640    0.5280 C   0  0  0  0  0  0  0  0  0  0  0  0
    2.6770   -0.2970    1.4210 O   0  0  0  0  0  0  0  0  0  0  0  0
    0.4000   -0.5280    0.8790 C   0  0  0  0  0  0  0  0  0  0  0  0
   -0.4190   -0.3170   -0.2290 O   0  0  0  0  0  0  0  0  0  0  0  0
   -1.7260   -0.6500    0.0810 C   0  0  2  0  0  0  0  0  0  0  0  0
   -2.2100   -1.6920   -0.7110 O   0  0  0  0  0  0  0  0  0  0  0  0
   -2.6230    0.5730   -0.0860 C   0  0  0  0  0  0  0  0  0  0  0  0
   -2.1310    1.5370    0.7930 O   0  0  0  0  0  0  0  0  0  0  0  0
  1  2  1  0
  2  3  1  0
  3  4  2  0
  3  5  1  0
  5  6  1  0
  6  7  1  0
  7  8  1  6
  7  9  1  0
  9 10  1  0
M  END
