
     RDKit          3D

 10  9  0  0  0  0  0  0  0  0999 V2000
    4.0790    0.7220   -0.0920 C   0  0  0  0  0  0  0  0  0  0  0  0
    2.8490    0.6150    0.6210 O   0  0  0  0  0  0  0  0  0  0  0  0
    1.7380    0.0190    0.0530 C   0  0  0  0  0  0  0  0  0  0  0  0
    1.8270   -0.4310   -1.1120 O   0  0  0  0  0  0  0  0  0  0  0  0
    0.5210   -0.1040    0.7160 O   0  0  0  0  0  0  0  0  0  0  0  0
   -0.5960   -0.7260    0.0870 C   0  0  1  0  0  0  0  0  0  0  0  0
   -1.1140   -1.7540    0.8310 O   0  0  0  0  0  0  0  0  0  0  0  0
   -1.6250    0.3730   -0.1250 C   0  0  0  0  0  0  0  0  0  0  0  0
   -2.8530   -0.2190   -0.7960 C   0  0  0  0  0  0  0  0  0  0  0  0
   -3.7770    0.7960   -0.9810 O   0  0  0  0  0  0  0  0  0  0  0  0
  1  2  1  0
  2  3  1  0
  3  4  2  0
  3  5  1  0
  5  6  1  0
  6  7  1  1
  6  8  1  0
  8  9  1  0
  9 10  1  0
M  END
