
     RDKit          3D

 10  9  0  0  0  0  0  0  0  0999 V2000
   -1.9500   -0.9870   -1.6140 C   0  0  0  0  0  0  0  0  0  0  0  0
   -0.9320   -1.4300   -0.7970 O   0  0  0  0  0  0  0  0  0  0  0  0
   -0.6980   -0.5140    0.2250 C   0  0  1  0  0  0  0  0  0  0  0  0
   -1.0260   -1.2030    1.5220 C   0  0  0  0  0  0  0  0  0  0  0  0
   -0.8120   -0.3350    2.6030 O   0  0  0  0  0  0  0  0  0  0  0  0
    0.6590   -0.1390    0.1360 O   0  0  0  0  0  0  0  0  0  0  0  0
    1.0830    1.1650   -0.0880 C   0  0  0  0  0  0  0  0  0  0  0  0
    0.1850    2.0220   -0.2110 O   0  0  0  0  0  0  0  0  0  0  0  0
    2.5370    1.5240   -0.1760 C   0  0  0  0  0  0  0  0  0  0  0  0
    3.3050    0.3930   -0.0050 O   0  0  0  0  0  0  0  0  0  0  0  0
  1  2  1  0
  2  3  1  0
  3  4  1  1
  3  6  1  0
  4  5  1  0
  6  7  1  0
  7  8  2  0
  7  9  1  0
  9 10  1  0
M  END
