
     RDKit          3D

 13 14  0  0  0  0  0  0  0  0999 V2000
    3.6710    1.1100    0.9050 O   0  0  0  0  0  0  0  0  0  0  0  0
    3.2770    0.1370    0.0040 C   0  0  0  0  0  0  0  0  0  0  0  0
    1.8380   -0.2140    0.2410 C   0  0  0  0  0  0  0  0  0  0  0  0
    1.4320   -1.1960    1.0920 C   0  0  0  0  0  0  0  0  0  0  0  0
    0.0340   -1.2060    1.0290 C   0  0  0  0  0  0  0  0  0  0  0  0
   -0.9830   -2.3000    1.9490 Cl  0  0  0  0  0  0  0  0  0  0  0  0
   -0.3320   -0.2310    0.1450 C   0  0  0  0  0  0  0  0  0  0  0  0
   -1.6960    0.1230   -0.2400 C   0  0  0  0  0  0  0  0  0  0  0  0
   -2.8450   -0.4590    0.2180 C   0  0  0  0  0  0  0  0  0  0  0  0
   -3.8760    0.2150   -0.4340 C   0  0  0  0  0  0  0  0  0  0  0  0
   -3.3370    1.1140   -1.2040 O   0  0  0  0  0  0  0  0  0  0  0  0
   -2.0530    1.1140   -1.1390 C   0  0  0  0  0  0  0  0  0  0  0  0
    0.7890    0.3800   -0.3400 N   0  0  0  0  0  0  0  0  0  0  0  0
  1  2  1  0
  2  3  1  0
  3  4  2  0
  3 13  1  0
  4  5  1  0
  5  6  1  0
  5  7  2  0
  7  8  1  0
  7 13  1  0
  8  9  1  0
  8 12  2  0
  9 10  2  0
 10 11  1  0
 11 12  1  0
M  END
