
     RDKit          3D

 13 14  0  0  0  0  0  0  0  0999 V2000
    3.5240   -1.7160   -0.1840 O   0  0  0  0  0  0  0  0  0  0  0  0
    3.0800   -0.5500   -0.2890 C   0  0  0  0  0  0  0  0  0  0  0  0
    3.9790    0.4870   -0.4350 O   0  0  0  0  0  0  0  0  0  0  0  0
    1.6400   -0.3160   -0.2560 C   0  0  0  0  0  0  0  0  0  0  0  0
    1.0100    0.9020   -0.3600 C   0  0  0  0  0  0  0  0  0  0  0  0
   -0.3430    0.6830   -0.2820 C   0  0  0  0  0  0  0  0  0  0  0  0
   -1.4640    1.4920   -0.3230 C   0  0  0  0  0  0  0  0  0  0  0  0
   -2.7430    0.9850   -0.2180 C   0  0  0  0  0  0  0  0  0  0  0  0
   -4.1290    2.0740   -0.2780 Cl  0  0  0  0  0  0  0  0  0  0  0  0
   -2.9050   -0.3760   -0.0680 C   0  0  0  0  0  0  0  0  0  0  0  0
   -1.8130   -1.2130   -0.0230 C   0  0  0  0  0  0  0  0  0  0  0  0
   -0.5260   -0.6700   -0.1320 C   0  0  0  0  0  0  0  0  0  0  0  0
    0.6850   -1.2560   -0.1190 N   0  0  0  0  0  0  0  0  0  0  0  0
  1  2  2  0
  2  3  1  0
  2  4  1  0
  4  5  2  0
  4 13  1  0
  5  6  1  0
  6  7  2  0
  6 12  1  0
  7  8  1  0
  8  9  1  0
  8 10  2  0
 10 11  1  0
 11 12  2  0
 12 13  1  0
M  END
