
     RDKit          3D

 47 51  0  0  0  0  0  0  0  0999 V2000
   -5.5960    5.0570   -0.2870 C   0  0  0  0  0  0  0  0  0  0  0  0
   -6.1700    4.8040    1.1040 C   0  0  0  0  0  0  0  0  0  0  0  0
   -7.0190    3.5390    0.9720 C   0  0  2  0  0  0  0  0  0  0  0  0
   -7.6960    3.4000    2.3830 C   0  0  0  0  0  0  0  0  0  0  0  0
   -6.3250    2.3410    0.6980 N   0  0  0  0  0  0  0  0  0  0  0  0
   -5.7320    1.5560    1.7260 C   0  0  0  0  0  0  0  0  0  0  0  0
   -4.9890    0.3500    1.3830 C   0  0  0  0  0  0  0  0  0  0  0  0
   -3.8340    0.3810    0.5690 C   0  0  0  0  0  0  0  0  0  0  0  0
   -3.0640   -0.6980    0.4490 C   0  0  0  0  0  0  0  0  0  0  0  0
   -1.8460   -0.9270   -0.2960 O   0  0  0  0  0  0  0  0  0  0  0  0
   -2.0210   -1.8540   -1.3530 C   0  0  0  0  0  0  0  0  0  0  0  0
   -3.2840   -2.2040   -1.3950 O   0  0  0  0  0  0  0  0  0  0  0  0
   -1.1490   -2.4380   -2.2920 C   0  0  0  0  0  0  0  0  0  0  0  0
   -1.7810   -3.3500   -3.1940 C   0  0  0  0  0  0  0  0  0  0  0  0
   -1.0730   -4.0280   -4.1520 C   0  0  0  0  0  0  0  0  0  0  0  0
    0.2700   -3.8500   -4.2700 C   0  0  0  0  0  0  0  0  0  0  0  0
    1.0420   -4.5030   -5.3720 C   0  0  1  0  0  0  0  0  0  0  0  0
    2.0810   -3.6550   -5.8280 O   0  0  0  0  0  0  0  0  0  0  0  0
    1.6170   -5.8090   -4.9580 C   0  0  0  0  0  0  0  0  0  0  0  0
    2.2490   -6.4720   -6.0240 O   0  0  0  0  0  0  0  0  0  0  0  0
    0.9110   -2.9730   -3.4100 C   0  0  0  0  0  0  0  0  0  0  0  0
    0.1850   -2.2760   -2.4290 C   0  0  0  0  0  0  0  0  0  0  0  0
    0.9310   -1.4520   -1.5450 N   0  0  0  0  0  0  0  0  0  0  0  0
    2.1890   -0.8690   -1.8210 C   0  0  0  0  0  0  0  0  0  0  0  0
    2.4950   -1.2160   -3.1290 O   0  0  0  0  0  0  0  0  0  0  0  0
    3.1580   -0.1090   -1.1990 C   0  0  0  0  0  0  0  0  0  0  0  0
    3.9980    0.7880   -1.9080 C   0  0  0  0  0  0  0  0  0  0  0  0
    4.8610    1.3820   -1.0200 C   0  0  0  0  0  0  0  0  0  0  0  0
    4.5420    0.8410    0.2070 C   0  0  0  0  0  0  0  0  0  0  0  0
    5.2290    1.1630    1.4800 C   0  0  0  0  0  0  0  0  0  0  0  0
    6.4980    1.1360    1.5270 C   0  0  0  0  0  0  0  0  0  0  0  0
    7.6170    0.8520    0.6250 C   0  0  0  0  0  0  0  0  0  0  0  0
    8.6430    1.9560    0.9170 C   0  0  2  0  0  0  0  0  0  0  0  0
    9.9570    1.2870    1.1490 C   0  0  0  0  0  0  0  0  0  0  0  0
   10.6830    1.4100    2.2090 C   0  0  0  0  0  0  0  0  0  0  0  0
   10.3070    2.2530    3.3760 C   0  0  0  0  0  0  0  0  0  0  0  0
    9.1610    3.1450    3.1110 C   0  0  0  0  0  0  0  0  0  0  0  0
    8.1410    2.5990    2.1610 C   0  0  2  0  0  0  0  0  0  0  0  0
    7.2790    1.5380    2.8140 C   0  0  0  0  0  0  0  0  0  0  0  0
    3.5660    0.0070    0.0530 O   0  0  0  0  0  0  0  0  0  0  0  0
   -3.4390   -1.8740    1.1660 C   0  0  0  0  0  0  0  0  0  0  0  0
   -4.5480   -1.9330    1.9550 C   0  0  0  0  0  0  0  0  0  0  0  0
   -5.3410   -0.8120    2.0690 C   0  0  0  0  0  0  0  0  0  0  0  0
   -6.6540   -0.9280    2.7660 C   0  0  0  0  0  0  0  0  0  0  0  0
   -7.7020   -1.0030    1.6300 C   0  0  0  0  0  0  0  0  0  0  0  0
   -7.4210   -2.1690    0.7420 C   0  0  0  0  0  0  0  0  0  0  0  0
   -7.4480   -3.3830    1.4680 O   0  0  0  0  0  0  0  0  0  0  0  0
  1  2  1  0
  2  3  1  0
  3  4  1  1
  3  5  1  0
  5  6  1  0
  6  7  1  0
  7  8  2  0
  7 43  1  0
  8  9  1  0
  9 10  1  0
  9 41  2  0
 10 11  1  0
 11 12  2  0
 11 13  1  0
 13 14  2  0
 13 22  1  0
 14 15  1  0
 15 16  2  0
 16 17  1  0
 16 21  1  0
 17 18  1  1
 17 19  1  0
 19 20  1  0
 21 22  2  0
 22 23  1  0
 23 24  1  0
 24 25  2  0
 24 26  1  0
 26 27  2  0
 26 40  1  0
 27 28  1  0
 28 29  2  0
 29 30  1  0
 29 40  1  0
 30 31  2  3
 31 32  1  0
 31 39  1  0
 33 32  1  1
 33 34  1  0
 33 38  1  0
 34 35  2  0
 35 36  1  0
 36 37  1  0
 38 37  1  1
 38 39  1  0
 41 42  1  0
 42 43  2  0
 43 44  1  0
 44 45  1  0
 45 46  1  0
 46 47  1  0
M  END
