
     RDKit          3D

 47 52  0  0  0  0  0  0  0  0999 V2000
    6.3320    2.6400   -0.7820 C   0  0  0  0  0  0  0  0  0  0  0  0
    4.9560    2.8010   -0.5780 O   0  0  0  0  0  0  0  0  0  0  0  0
    4.0930    1.8110   -0.2020 C   0  0  0  0  0  0  0  0  0  0  0  0
    4.5620    0.5280    0.0070 C   0  0  0  0  0  0  0  0  0  0  0  0
    3.7110   -0.4900    0.3850 C   0  0  0  0  0  0  0  0  0  0  0  0
    4.2010   -1.7570    0.6170 C   0  0  0  0  0  0  0  0  0  0  0  0
    5.6130   -2.1400    0.3770 C   0  0  0  0  0  0  0  0  0  0  0  0
    5.9030   -2.5410   -1.0520 C   0  0  1  0  0  0  0  0  0  0  0  0
    5.0680   -3.7510   -1.4550 C   0  0  0  0  0  0  0  0  0  0  0  0
    5.5900   -1.4960   -1.9060 O   0  0  0  0  0  0  0  0  0  0  0  0
    7.3720   -2.8100   -1.2040 C   0  0  0  0  0  0  0  0  0  0  0  0
    7.8770   -3.9170   -0.3060 C   0  0  0  0  0  0  0  0  0  0  0  0
    7.2440   -5.1340   -0.5500 O   0  0  0  0  0  0  0  0  0  0  0  0
    3.3010   -2.7540    1.0350 C   0  0  0  0  0  0  0  0  0  0  0  0
    1.9720   -2.4820    1.2060 C   0  0  0  0  0  0  0  0  0  0  0  0
    1.4460   -1.2100    0.9750 C   0  0  0  0  0  0  0  0  0  0  0  0
    0.1240   -1.0170    1.1640 O   0  0  0  0  0  0  0  0  0  0  0  0
   -0.8730   -0.6740    0.3170 C   0  0  0  0  0  0  0  0  0  0  0  0
   -0.6410   -0.5790   -1.0350 C   0  0  0  0  0  0  0  0  0  0  0  0
   -1.6340   -0.2300   -1.9370 C   0  0  0  0  0  0  0  0  0  0  0  0
   -2.9040    0.0370   -1.5100 C   0  0  0  0  0  0  0  0  0  0  0  0
   -3.1610   -0.0540   -0.1440 C   0  0  0  0  0  0  0  0  0  0  0  0
   -2.1710   -0.4010    0.7440 C   0  0  0  0  0  0  0  0  0  0  0  0
   -4.5660    0.2530    0.2230 C   0  0  2  0  0  0  0  0  0  0  0  0
   -4.7560    1.5970   -0.1590 O   0  0  0  0  0  0  0  0  0  0  0  0
   -4.9330    0.0860    1.6420 C   0  0  0  0  0  0  0  0  0  0  0  0
   -5.9010    1.1960    2.0120 C   0  0  2  0  0  0  0  0  0  0  0  0
   -5.7920    1.4690    3.3960 O   0  0  0  0  0  0  0  0  0  0  0  0
   -7.3070    0.9590    1.5880 C   0  0  0  0  0  0  0  0  0  0  0  0
   -7.5410   -0.2410    0.8680 N   0  0  0  0  0  0  0  0  0  0  0  0
   -8.7260   -0.9780    1.2360 C   0  0  0  0  0  0  0  0  0  0  0  0
   -6.7880   -0.8410   -0.1700 C   0  0  0  0  0  0  0  0  0  0  0  0
   -7.4320   -1.7010   -0.8230 O   0  0  0  0  0  0  0  0  0  0  0  0
   -5.4020   -0.6660   -0.6460 C   0  0  1  0  0  0  0  0  0  0  0  0
   -5.2980   -0.3140   -2.1090 C   0  0  1  0  0  0  0  0  0  0  0  0
   -5.3170   -1.5810   -2.9370 C   0  0  0  0  0  0  0  0  0  0  0  0
   -6.4470    0.5480   -2.5800 C   0  0  0  0  0  0  0  0  0  0  0  0
   -4.0190    0.4200   -2.4430 C   0  0  0  0  0  0  0  0  0  0  0  0
    2.3390   -0.2430    0.5690 C   0  0  0  0  0  0  0  0  0  0  0  0
    1.8830    1.0420    0.3590 C   0  0  0  0  0  0  0  0  0  0  0  0
    2.7570    2.0370   -0.0190 C   0  0  0  0  0  0  0  0  0  0  0  0
    2.2250    3.4040   -0.2310 C   0  0  0  0  0  0  0  0  0  0  0  0
    2.5270    4.3160    0.8990 C   0  0  0  0  0  0  0  0  0  0  0  0
    3.6040    5.1540    1.0640 C   0  0  0  0  0  0  0  0  0  0  0  0
    3.4610    5.8030    2.2670 C   0  0  0  0  0  0  0  0  0  0  0  0
    2.3250    5.3830    2.8390 N   0  0  0  0  0  0  0  0  0  0  0  0
    1.7550    4.4860    2.0220 C   0  0  0  0  0  0  0  0  0  0  0  0
  1  2  1  0
  2  3  1  0
  3  4  2  0
  3 41  1  0
  4  5  1  0
  5  6  2  0
  5 39  1  0
  6  7  1  0
  6 14  1  0
  7  8  1  0
  8  9  1  6
  8 10  1  0
  8 11  1  0
 11 12  1  0
 12 13  1  0
 14 15  2  0
 15 16  1  0
 16 17  1  0
 16 39  2  0
 17 18  1  0
 18 19  2  0
 18 23  1  0
 19 20  1  0
 20 21  2  0
 21 22  1  0
 21 38  1  0
 22 23  2  0
 22 24  1  0
 24 25  1  6
 24 26  1  0
 24 34  1  0
 26 27  1  0
 27 28  1  1
 27 29  1  0
 29 30  1  0
 30 31  1  0
 30 32  1  0
 32 33  2  0
 34 32  1  1
 34 35  1  0
 35 36  1  6
 35 37  1  0
 35 38  1  0
 39 40  1  0
 40 41  2  0
 41 42  1  0
 42 43  1  0
 43 44  1  0
 43 47  2  0
 44 45  2  0
 45 46  1  0
 46 47  1  0
M  END
