
     RDKit          3D

 47 51  0  0  0  0  0  0  0  0999 V2000
  -10.3960    0.9420    2.4850 C   0  0  0  0  0  0  0  0  0  0  0  0
   -9.2280    0.9030    1.5090 C   0  0  1  0  0  0  0  0  0  0  0  0
   -8.6250   -0.5140    1.4520 C   0  0  0  0  0  0  0  0  0  0  0  0
   -8.4600   -0.8580    0.0480 N   0  0  0  0  0  0  0  0  0  0  0  0
   -7.2180   -1.2050   -0.4600 C   0  0  0  0  0  0  0  0  0  0  0  0
   -6.0620   -0.8740    0.2780 C   0  0  0  0  0  0  0  0  0  0  0  0
   -4.7790   -1.0990   -0.1690 C   0  0  0  0  0  0  0  0  0  0  0  0
   -3.5450   -0.9070    0.4660 C   0  0  0  0  0  0  0  0  0  0  0  0
   -2.4910   -0.9600   -0.3030 O   0  0  0  0  0  0  0  0  0  0  0  0
   -3.1170   -0.6730    1.8020 O   0  0  0  0  0  0  0  0  0  0  0  0
   -1.5880   -0.5870    1.7530 C   0  0  0  0  0  0  0  0  0  0  0  0
   -1.2850    0.6380    1.0370 C   0  0  0  0  0  0  0  0  0  0  0  0
   -2.1140    1.7220    1.2060 C   0  0  0  0  0  0  0  0  0  0  0  0
   -1.8210    3.0110    0.8170 C   0  0  0  0  0  0  0  0  0  0  0  0
   -0.5980    3.2060    0.2080 C   0  0  0  0  0  0  0  0  0  0  0  0
    0.2750    2.1360    0.0090 C   0  0  0  0  0  0  0  0  0  0  0  0
   -0.0880    0.8840    0.4240 C   0  0  0  0  0  0  0  0  0  0  0  0
    0.6940   -0.3020    0.0310 C   0  0  0  0  0  0  0  0  0  0  0  0
    1.8040   -0.1150   -0.6260 O   0  0  0  0  0  0  0  0  0  0  0  0
    3.0350    0.1860   -0.9460 C   0  0  0  0  0  0  0  0  0  0  0  0
    3.4650    0.1190   -2.2980 C   0  0  0  0  0  0  0  0  0  0  0  0
    4.7410    0.4120   -2.5960 C   0  0  0  0  0  0  0  0  0  0  0  0
    5.6420    0.7780   -1.5830 C   0  0  0  0  0  0  0  0  0  0  0  0
    5.2610    0.8440   -0.2950 C   0  0  0  0  0  0  0  0  0  0  0  0
    6.1870    1.0770    0.8320 C   0  0  1  0  0  0  0  0  0  0  0  0
    5.4850    1.5120    1.9380 O   0  0  0  0  0  0  0  0  0  0  0  0
    7.0200   -0.1680    1.0890 C   0  0  2  0  0  0  0  0  0  0  0  0
    6.1350   -1.3660    1.2410 C   0  0  0  0  0  0  0  0  0  0  0  0
    7.4980    0.0580    2.5870 C   0  0  0  0  0  0  0  0  0  0  0  0
    8.2090    1.2370    2.6270 O   0  0  0  0  0  0  0  0  0  0  0  0
    8.2350   -0.3570    0.3560 C   0  0  0  0  0  0  0  0  0  0  0  0
    8.8890   -1.5930    0.4540 C   0  0  0  0  0  0  0  0  0  0  0  0
   10.0950   -1.8240   -0.1910 C   0  0  0  0  0  0  0  0  0  0  0  0
   10.7220   -0.8740   -0.9560 C   0  0  0  0  0  0  0  0  0  0  0  0
   12.0350   -1.0570   -1.6260 C   0  0  0  0  0  0  0  0  0  0  0  0
   12.8800   -0.0280   -1.1330 O   0  0  0  0  0  0  0  0  0  0  0  0
   10.0900    0.3400   -1.0610 C   0  0  0  0  0  0  0  0  0  0  0  0
    8.8970    0.5740   -0.4260 C   0  0  0  0  0  0  0  0  0  0  0  0
    3.9530    0.5520    0.0330 C   0  0  0  0  0  0  0  0  0  0  0  0
   -4.6850   -1.7050   -1.4550 C   0  0  0  0  0  0  0  0  0  0  0  0
   -5.7640   -2.0410   -2.1960 C   0  0  0  0  0  0  0  0  0  0  0  0
   -7.0080   -1.7850   -1.6850 C   0  0  0  0  0  0  0  0  0  0  0  0
   -8.1290   -2.1720   -2.4740 N   0  0  0  0  0  0  0  0  0  0  0  0
   -9.7140   -0.6950   -0.6340 C   0  0  0  0  0  0  0  0  0  0  0  0
   -9.8400    0.8220   -0.7780 C   0  0  1  0  0  0  0  0  0  0  0  0
  -11.1380    1.2420   -1.4190 C   0  0  0  0  0  0  0  0  0  0  0  0
   -9.4590    1.4870    0.3210 O   0  0  0  0  0  0  0  0  0  0  0  0
  2  1  1  6
  2  3  1  0
  2 47  1  0
  3  4  1  0
  4  5  1  0
  4 44  1  0
  5  6  2  0
  5 42  1  0
  6  7  1  0
  7  8  1  0
  7 40  2  0
  8  9  2  0
  8 10  1  0
 10 11  1  0
 11 12  1  0
 12 13  2  0
 12 17  1  0
 13 14  1  0
 14 15  2  0
 15 16  1  0
 16 17  2  0
 17 18  1  0
 18 19  1  0
 19 20  1  0
 20 21  2  0
 20 39  1  0
 21 22  1  0
 22 23  2  0
 23 24  1  0
 24 25  1  0
 24 39  2  0
 25 26  1  1
 25 27  1  0
 27 28  1  1
 27 29  1  0
 27 31  1  0
 29 30  1  0
 31 32  2  0
 31 38  1  0
 32 33  1  0
 33 34  2  0
 34 35  1  0
 34 37  1  0
 35 36  1  0
 37 38  2  0
 40 41  1  0
 41 42  2  0
 42 43  1  0
 44 45  1  0
 45 46  1  1
 45 47  1  0
M  END
