
     RDKit          3D

 47 51  0  0  0  0  0  0  0  0999 V2000
   -7.5830    2.5760    1.7860 C   0  0  0  0  0  0  0  0  0  0  0  0
   -6.9790    2.4130    0.6230 C   0  0  0  0  0  0  0  0  0  0  0  0
   -6.0040    1.4700    0.4790 C   0  0  0  0  0  0  0  0  0  0  0  0
   -5.3620    1.3270   -0.7570 C   0  0  0  0  0  0  0  0  0  0  0  0
   -4.3350    0.2480   -0.8050 C   0  0  0  0  0  0  0  0  0  0  0  0
   -3.0950    0.8520   -0.1910 C   0  0  2  0  0  0  0  0  0  0  0  0
   -2.7260    1.9310   -0.9490 O   0  0  0  0  0  0  0  0  0  0  0  0
   -1.9750   -0.1720    0.0380 C   0  0  1  0  0  0  0  0  0  0  0  0
   -2.5780   -1.2180    0.8760 C   0  0  0  0  0  0  0  0  0  0  0  0
   -2.9590   -0.8210    2.1650 C   0  0  0  0  0  0  0  0  0  0  0  0
   -3.3510   -1.6870    3.1550 C   0  0  0  0  0  0  0  0  0  0  0  0
   -3.3790   -3.0170    2.8940 C   0  0  0  0  0  0  0  0  0  0  0  0
   -3.0220   -3.4700    1.6550 C   0  0  0  0  0  0  0  0  0  0  0  0
   -2.6370   -2.5780    0.6720 C   0  0  0  0  0  0  0  0  0  0  0  0
   -2.3910   -3.0290   -0.7100 C   0  0  0  0  0  0  0  0  0  0  0  0
   -2.6120   -4.4000   -0.8090 O   0  0  0  0  0  0  0  0  0  0  0  0
   -3.9720   -4.6950   -0.8370 C   0  0  0  0  0  0  0  0  0  0  0  0
   -0.9360   -0.3290   -0.9360 C   0  0  1  0  0  0  0  0  0  0  0  0
   -0.5730    1.1150   -1.1550 O   0  0  0  0  0  0  0  0  0  0  0  0
    0.4600   -0.6180   -0.2740 C   0  0  2  0  0  0  0  0  0  0  0  0
    1.3510   -0.3250   -1.3190 O   0  0  0  0  0  0  0  0  0  0  0  0
    0.7220   -1.8820    0.3110 C   0  0  0  0  0  0  0  0  0  0  0  0
    1.9920   -2.1620    1.0020 C   0  0  0  0  0  0  0  0  0  0  0  0
    3.3040   -2.0930    0.4040 C   0  0  0  0  0  0  0  0  0  0  0  0
    3.6910   -3.2330   -0.3120 C   0  0  0  0  0  0  0  0  0  0  0  0
    4.9160   -3.3120   -0.8870 C   0  0  0  0  0  0  0  0  0  0  0  0
    5.8480   -2.2720   -0.7970 C   0  0  0  0  0  0  0  0  0  0  0  0
    5.5060   -1.1480   -0.1080 C   0  0  0  0  0  0  0  0  0  0  0  0
    6.4270   -0.0550    0.0270 N   0  0  0  0  0  0  0  0  0  0  0  0
    7.8360   -0.2270   -0.1380 C   0  0  0  0  0  0  0  0  0  0  0  0
    8.2840   -1.3720   -0.3890 O   0  0  0  0  0  0  0  0  0  0  0  0
    8.8010    0.8880   -0.0210 C   0  0  0  0  0  0  0  0  0  0  0  0
    8.3940    2.1680    0.2000 C   0  0  0  0  0  0  0  0  0  0  0  0
    9.3390    3.1850    0.2750 C   0  0  0  0  0  0  0  0  0  0  0  0
   10.6870    2.8940    0.1250 C   0  0  0  0  0  0  0  0  0  0  0  0
   11.0880    1.5860   -0.1000 C   0  0  0  0  0  0  0  0  0  0  0  0
   10.1410    0.5970   -0.1700 C   0  0  0  0  0  0  0  0  0  0  0  0
   10.5170   -0.7250   -0.3960 O   0  0  0  0  0  0  0  0  0  0  0  0
    4.2290   -1.0800    0.4810 C   0  0  0  0  0  0  0  0  0  0  0  0
    3.9570    0.0740    1.1510 O   0  0  0  0  0  0  0  0  0  0  0  0
    3.4330    1.2660    0.6470 C   0  0  0  0  0  0  0  0  0  0  0  0
   -5.6930    2.0960   -1.7910 N   0  0  0  0  0  0  0  0  0  0  0  0
   -6.6690    3.0470   -1.6690 C   0  0  0  0  0  0  0  0  0  0  0  0
   -7.3050    3.2060   -0.4740 C   0  0  0  0  0  0  0  0  0  0  0  0
   -8.2160    4.1700   -0.5070 C   0  0  0  0  0  0  0  0  0  0  0  0
   -8.2490    4.7630   -1.8520 C   0  0  0  0  0  0  0  0  0  0  0  0
   -7.2300    3.9930   -2.6500 C   0  0  0  0  0  0  0  0  0  0  0  0
  1  2  2  0
  2  3  1  0
  2 44  1  0
  3  4  2  0
  4  5  1  0
  4 42  1  0
  5  6  1  0
  6  7  1  6
  6  8  1  0
  8  9  1  6
  8 18  1  0
  9 10  2  0
  9 14  1  0
 10 11  1  0
 11 12  2  0
 12 13  1  0
 13 14  2  0
 14 15  1  0
 15 16  1  0
 16 17  1  0
 18 19  1  1
 18 20  1  0
 20 21  1  6
 20 22  1  0
 22 23  1  0
 23 24  1  0
 24 25  2  0
 24 39  1  0
 25 26  1  0
 26 27  2  0
 27 28  1  0
 28 29  1  0
 28 39  2  0
 29 30  1  0
 30 31  2  0
 30 32  1  0
 32 33  2  0
 32 37  1  0
 33 34  1  0
 34 35  2  0
 35 36  1  0
 36 37  2  0
 37 38  1  0
 39 40  1  0
 40 41  1  0
 42 43  2  0
 43 44  1  0
 43 47  1  0
 44 45  2  0
 45 46  1  0
 46 47  1  0
M  END
