
     RDKit          3D

 47 51  0  0  0  0  0  0  0  0999 V2000
   -7.0660    1.9930   -4.6310 C   0  0  0  0  0  0  0  0  0  0  0  0
   -6.9650    1.5070   -3.3650 C   0  0  0  0  0  0  0  0  0  0  0  0
   -6.1830    2.1960   -2.3900 C   0  0  0  0  0  0  0  0  0  0  0  0
   -5.9520    1.8670   -1.1500 C   0  0  0  0  0  0  0  0  0  0  0  0
   -6.4350    0.6960   -0.5020 C   0  0  0  0  0  0  0  0  0  0  0  0
   -6.6000   -0.4280   -1.2010 C   0  0  0  0  0  0  0  0  0  0  0  0
   -7.1050   -1.6840   -0.6220 C   0  0  0  0  0  0  0  0  0  0  0  0
   -7.4740   -1.5610    0.7240 O   0  0  0  0  0  0  0  0  0  0  0  0
   -7.0450   -0.5040    1.4950 C   0  0  0  0  0  0  0  0  0  0  0  0
   -6.5430    0.5910    0.9650 C   0  0  0  0  0  0  0  0  0  0  0  0
   -6.0760    1.7370    1.7230 C   0  0  0  0  0  0  0  0  0  0  0  0
   -6.2200    1.6940    3.2230 C   0  0  0  0  0  0  0  0  0  0  0  0
   -5.5480    2.7720    1.1270 C   0  0  0  0  0  0  0  0  0  0  0  0
   -5.3230    2.9370   -0.3150 C   0  0  1  0  0  0  0  0  0  0  0  0
   -3.8500    2.9570   -0.5200 C   0  0  0  0  0  0  0  0  0  0  0  0
   -3.2570    4.1010   -0.9830 C   0  0  0  0  0  0  0  0  0  0  0  0
   -1.8960    4.2120   -1.2000 C   0  0  0  0  0  0  0  0  0  0  0  0
   -1.1210    3.1030   -0.9290 C   0  0  0  0  0  0  0  0  0  0  0  0
   -1.6850    1.9340   -0.4610 C   0  0  0  0  0  0  0  0  0  0  0  0
   -0.8390    0.7800   -0.1870 C   0  0  0  0  0  0  0  0  0  0  0  0
   -1.2570   -0.0650    0.8390 C   0  0  0  0  0  0  0  0  0  0  0  0
   -0.5350   -1.1870    1.1760 C   0  0  0  0  0  0  0  0  0  0  0  0
    0.6230   -1.4470    0.4590 C   0  0  0  0  0  0  0  0  0  0  0  0
    1.3580   -2.5740    0.7880 O   0  0  0  0  0  0  0  0  0  0  0  0
    1.0330   -3.4900    1.7890 C   0  0  0  0  0  0  0  0  0  0  0  0
    2.1240   -4.5690    1.7970 C   0  0  1  0  0  0  0  0  0  0  0  0
    1.8310   -5.6080    2.8580 C   0  0  0  0  0  0  0  0  0  0  0  0
    1.7270   -6.9180    2.0750 C   0  0  0  0  0  0  0  0  0  0  0  0
    1.5380   -6.4150    0.6580 C   0  0  0  0  0  0  0  0  0  0  0  0
    2.1960   -5.2060    0.5790 O   0  0  0  0  0  0  0  0  0  0  0  0
    1.0810   -0.6500   -0.5610 C   0  0  0  0  0  0  0  0  0  0  0  0
    2.1870   -0.8180   -1.3140 O   0  0  0  0  0  0  0  0  0  0  0  0
    3.1940   -1.7360   -1.3680 C   0  0  1  0  0  0  0  0  0  0  0  0
    3.0000   -2.5030   -2.7080 C   0  0  0  0  0  0  0  0  0  0  0  0
    4.5910   -1.2000   -1.4380 C   0  0  2  0  0  0  0  0  0  0  0  0
    5.6100   -2.3460   -1.5330 C   0  0  0  0  0  0  0  0  0  0  0  0
    5.0100   -0.3860   -0.3420 N   0  0  0  0  0  0  0  0  0  0  0  0
    5.5580    0.9070   -0.5500 C   0  0  0  0  0  0  0  0  0  0  0  0
    5.6640    1.3490   -1.7450 O   0  0  0  0  0  0  0  0  0  0  0  0
    6.0090    1.7700    0.4590 N   0  0  0  0  0  0  0  0  0  0  0  0
    6.5660    3.0880    0.2070 C   0  0  0  0  0  0  0  0  0  0  0  0
    6.9840    3.7880    1.4550 C   0  0  1  0  0  0  0  0  0  0  0  0
    7.9580    2.9840    2.0690 O   0  0  0  0  0  0  0  0  0  0  0  0
    7.7200    5.0610    1.0350 C   0  0  0  0  0  0  0  0  0  0  0  0
    8.7470    4.7760    0.1510 O   0  0  0  0  0  0  0  0  0  0  0  0
    0.3070    0.4860   -0.8670 C   0  0  0  0  0  0  0  0  0  0  0  0
   -3.0520    1.8650   -0.2570 C   0  0  0  0  0  0  0  0  0  0  0  0
  1  2  2  0
  2  3  1  0
  3  4  2  3
  4  5  1  0
  4 14  1  0
  5  6  2  0
  5 10  1  0
  6  7  1  0
  7  8  1  0
  8  9  1  0
  9 10  2  0
 10 11  1  0
 11 12  1  0
 11 13  2  0
 13 14  1  0
 14 15  1  1
 15 16  2  0
 15 47  1  0
 16 17  1  0
 17 18  2  0
 18 19  1  0
 19 20  1  0
 19 47  2  0
 20 21  2  0
 20 46  1  0
 21 22  1  0
 22 23  2  0
 23 24  1  0
 23 31  1  0
 24 25  1  0
 26 25  1  6
 26 27  1  0
 26 30  1  0
 27 28  1  0
 28 29  1  0
 29 30  1  0
 31 32  1  0
 31 46  2  0
 32 33  1  0
 33 34  1  6
 33 35  1  0
 35 36  1  1
 35 37  1  0
 37 38  1  0
 38 39  2  0
 38 40  1  0
 40 41  1  0
 41 42  1  0
 42 43  1  6
 42 44  1  0
 44 45  1  0
M  END
