
     RDKit          3D

 22 23  0  0  0  0  0  0  0  0999 V2000
    5.2090   -1.8880    0.6280 C   0  0  0  0  0  0  0  0  0  0  0  0
    4.7790   -0.7650    0.1180 C   0  0  0  0  0  0  0  0  0  0  0  0
    5.6110   -0.0360   -1.2660 S   0  0  0  0  0  0  0  0  0  0  0  0
    7.0180   -1.0270   -1.7910 C   0  0  0  0  0  0  0  0  0  0  0  0
    3.5980   -0.0830    0.6820 C   0  0  0  0  0  0  0  0  0  0  0  0
    3.1920    0.9960    0.1870 O   0  0  0  0  0  0  0  0  0  0  0  0
    2.9190   -0.6140    1.7590 O   0  0  0  0  0  0  0  0  0  0  0  0
    1.7870   -0.0120    2.3410 C   0  0  0  0  0  0  0  0  0  0  0  0
    0.6920    0.0860    1.3020 C   0  0  0  0  0  0  0  0  0  0  0  0
    0.9490   -0.3600    0.1830 O   0  0  0  0  0  0  0  0  0  0  0  0
   -0.5350    0.6510    1.6030 N   0  0  0  0  0  0  0  0  0  0  0  0
   -1.7270    0.8320    0.8730 C   0  0  0  0  0  0  0  0  0  0  0  0
   -2.7920    2.2670    1.3780 S   0  0  0  0  0  0  0  0  0  0  0  0
   -4.0720    1.9250    0.1970 C   0  0  0  0  0  0  0  0  0  0  0  0
   -5.3070    2.7290    0.0300 C   0  0  0  0  0  0  0  0  0  0  0  0
   -3.6370    0.8120   -0.4600 C   0  0  0  0  0  0  0  0  0  0  0  0
   -2.4600    0.2580   -0.1190 C   0  0  0  0  0  0  0  0  0  0  0  0
   -2.1130   -1.0320   -0.8000 C   0  0  0  0  0  0  0  0  0  0  0  0
   -1.0590   -1.6330   -0.5490 O   0  0  0  0  0  0  0  0  0  0  0  0
   -2.9920   -1.5850   -1.7360 O   0  0  0  0  0  0  0  0  0  0  0  0
   -4.3670   -1.3140   -1.5580 C   0  0  0  0  0  0  0  0  0  0  0  0
   -4.4610    0.1950   -1.5860 C   0  0  0  0  0  0  0  0  0  0  0  0
  1  2  2  0
  2  3  1  0
  2  5  1  0
  3  4  1  0
  5  6  2  0
  5  7  1  0
  7  8  1  0
  8  9  1  0
  9 10  2  0
  9 11  1  0
 11 12  1  0
 12 13  1  0
 12 17  2  0
 13 14  1  0
 14 15  1  0
 14 16  2  0
 16 17  1  0
 16 22  1  0
 17 18  1  0
 18 19  2  0
 18 20  1  0
 20 21  1  0
 21 22  1  0
M  END
