
     RDKit          3D

 22 23  0  0  0  0  0  0  0  0999 V2000
   -3.6870    1.8920    0.2100 C   0  0  0  0  0  0  0  0  0  0  0  0
   -3.2300    0.8740   -0.6930 N   0  0  0  0  0  0  0  0  0  0  0  0
   -3.8120   -0.4540   -0.7330 C   0  0  0  0  0  0  0  0  0  0  0  0
   -3.5830   -1.4420    0.0850 C   0  0  0  0  0  0  0  0  0  0  0  0
   -2.6830   -1.5130    1.2690 C   0  0  0  0  0  0  0  0  0  0  0  0
   -1.9440   -0.4060    1.5890 O   0  0  0  0  0  0  0  0  0  0  0  0
   -0.8910    0.1430    0.8910 C   0  0  0  0  0  0  0  0  0  0  0  0
   -0.5350   -0.4320   -0.1690 O   0  0  0  0  0  0  0  0  0  0  0  0
   -0.1770    1.3730    1.3490 C   0  0  0  0  0  0  0  0  0  0  0  0
    0.8900    1.7410    0.5580 O   0  0  0  0  0  0  0  0  0  0  0  0
    2.0370    1.0140    0.3180 C   0  0  0  0  0  0  0  0  0  0  0  0
    2.2370   -0.2170    0.8970 C   0  0  0  0  0  0  0  0  0  0  0  0
    3.3700   -0.9720    0.6780 C   0  0  0  0  0  0  0  0  0  0  0  0
    3.4920   -2.2050    1.3010 O   0  0  0  0  0  0  0  0  0  0  0  0
    4.3410   -0.4650   -0.1580 C   0  0  0  0  0  0  0  0  0  0  0  0
    4.1920    0.7700   -0.7670 C   0  0  0  0  0  0  0  0  0  0  0  0
    5.1770    1.2690   -1.6070 O   0  0  0  0  0  0  0  0  0  0  0  0
    6.3460    0.5140   -1.8460 C   0  0  0  0  0  0  0  0  0  0  0  0
    3.0440    1.4930   -0.5220 C   0  0  0  0  0  0  0  0  0  0  0  0
   -4.5320   -2.9300   -0.3160 S   0  0  0  0  0  0  0  0  0  0  0  0
   -5.8510   -2.2700   -1.3780 C   0  0  0  0  0  0  0  0  0  0  0  0
   -4.9810   -0.8210   -2.0390 S   0  0  0  0  0  0  0  0  0  0  0  0
  1  2  1  0
  2  3  1  0
  3  4  2  0
  3 22  1  0
  4  5  1  0
  4 20  1  0
  5  6  1  0
  6  7  1  0
  7  8  2  0
  7  9  1  0
  9 10  1  0
 10 11  1  0
 11 12  2  0
 11 19  1  0
 12 13  1  0
 13 14  1  0
 13 15  2  0
 15 16  1  0
 16 17  1  0
 16 19  2  0
 17 18  1  0
 20 21  1  0
 21 22  1  0
M  END
