
     RDKit          3D

 22 22  0  0  0  0  0  0  0  0999 V2000
   -2.6150    1.9370   -2.6350 C   0  0  0  0  0  0  0  0  0  0  0  0
   -2.1920    1.1310   -1.5070 O   0  0  0  0  0  0  0  0  0  0  0  0
   -3.0580    0.6780   -0.6150 C   0  0  0  0  0  0  0  0  0  0  0  0
   -4.2880    1.0980   -0.9660 O   0  0  0  0  0  0  0  0  0  0  0  0
   -3.1000   -0.0950    0.5700 C   0  0  0  0  0  0  0  0  0  0  0  0
   -2.0370   -0.6200    1.1110 C   0  0  0  0  0  0  0  0  0  0  0  0
   -0.7650   -0.5090    0.6480 N   0  0  0  0  0  0  0  0  0  0  0  0
    0.1120   -0.0120   -0.2810 C   0  0  0  0  0  0  0  0  0  0  0  0
   -0.2230    0.6750   -1.1750 O   0  0  0  0  0  0  0  0  0  0  0  0
    1.6200   -0.3530   -0.1720 C   0  0  0  0  0  0  0  0  0  0  0  0
    2.2750    0.2940   -1.2370 O   0  0  0  0  0  0  0  0  0  0  0  0
    3.6220    0.2140   -1.4490 C   0  0  0  0  0  0  0  0  0  0  0  0
    4.3040   -0.4720   -0.6520 O   0  0  0  0  0  0  0  0  0  0  0  0
    4.3220    0.8900   -2.5660 C   0  0  0  0  0  0  0  0  0  0  0  0
    6.0890    0.5380   -2.5020 S   0  0  0  0  0  0  0  0  0  0  0  0
    6.9060    1.2390   -1.0700 C   0  0  0  0  0  0  0  0  0  0  0  0
   -2.0440   -1.4610    2.4040 C   0  0  0  0  0  0  0  0  0  0  0  0
   -1.0730   -2.5940    2.3850 C   0  0  0  0  0  0  0  0  0  0  0  0
   -2.7510   -1.3500    3.4760 C   0  0  0  0  0  0  0  0  0  0  0  0
   -4.0340   -0.1100    3.8200 S   0  0  0  0  0  0  0  0  0  0  0  0
   -5.0080   -0.1810    2.2710 C   0  0  0  0  0  0  0  0  0  0  0  0
   -4.5180   -0.1690    1.0750 C   0  0  0  0  0  0  0  0  0  0  0  0
  1  2  1  0
  2  3  1  0
  3  4  2  0
  3  5  1  0
  5  6  2  0
  5 22  1  0
  6  7  1  0
  6 17  1  0
  7  8  1  0
  8  9  2  0
  8 10  1  0
 10 11  1  0
 11 12  1  0
 12 13  2  0
 12 14  1  0
 14 15  1  0
 15 16  1  0
 17 18  1  0
 17 19  2  0
 19 20  1  0
 20 21  1  0
 21 22  2  0
M  END
