
     RDKit          3D

 22 23  0  0  0  0  0  0  0  0999 V2000
   -5.4580   -1.7390   -0.9840 C   0  0  0  0  0  0  0  0  0  0  0  0
   -4.2800   -0.9810   -0.4500 C   0  0  0  0  0  0  0  0  0  0  0  0
   -4.4960    0.1370    0.2520 C   0  0  0  0  0  0  0  0  0  0  0  0
   -5.8220    0.4780    0.4090 O   0  0  0  0  0  0  0  0  0  0  0  0
   -6.3090    1.8260    0.4630 C   0  0  0  0  0  0  0  0  0  0  0  0
   -5.3010    2.5880    1.7860 S   0  0  0  0  0  0  0  0  0  0  0  0
   -3.6380    2.0120    1.4910 C   0  0  0  0  0  0  0  0  0  0  0  0
   -3.3900    0.9300    0.8100 C   0  0  0  0  0  0  0  0  0  0  0  0
   -2.0750    0.4590    0.5620 N   0  0  0  0  0  0  0  0  0  0  0  0
   -0.8990    1.1020    1.0090 C   0  0  0  0  0  0  0  0  0  0  0  0
   -0.9060    2.1670    1.6780 O   0  0  0  0  0  0  0  0  0  0  0  0
    0.3630    0.4640    0.6540 C   0  0  0  0  0  0  0  0  0  0  0  0
    0.7120   -0.6400   -0.0260 C   0  0  0  0  0  0  0  0  0  0  0  0
    2.0130   -0.9480   -0.1730 C   0  0  0  0  0  0  0  0  0  0  0  0
    2.9630   -0.1360    0.3720 C   0  0  0  0  0  0  0  0  0  0  0  0
    4.4300   -0.2330    0.3640 C   0  0  0  0  0  0  0  0  0  0  0  0
    5.0440    0.6800    0.9590 O   0  0  0  0  0  0  0  0  0  0  0  0
    5.0560   -1.2670   -0.2620 O   0  0  0  0  0  0  0  0  0  0  0  0
    6.4370   -1.4210   -0.3170 C   0  0  0  0  0  0  0  0  0  0  0  0
    7.1720   -0.3490   -1.0530 C   0  0  0  0  0  0  0  0  0  0  0  0
    7.0440    0.9230   -0.5680 O   0  0  0  0  0  0  0  0  0  0  0  0
    2.0000    1.1490    1.1430 S   0  0  0  0  0  0  0  0  0  0  0  0
  1  2  1  0
  2  3  2  3
  3  4  1  0
  3  8  1  0
  4  5  1  0
  5  6  1  0
  6  7  1  0
  7  8  2  0
  8  9  1  0
  9 10  1  0
 10 11  2  0
 10 12  1  0
 12 13  2  0
 12 22  1  0
 13 14  1  0
 14 15  2  0
 15 16  1  0
 15 22  1  0
 16 17  2  0
 16 18  1  0
 18 19  1  0
 19 20  1  0
 20 21  1  0
M  END
