
     RDKit          3D

 22 22  0  0  0  0  0  0  0  0999 V2000
    6.4530   -0.8660    2.7730 C   0  0  0  0  0  0  0  0  0  0  0  0
    4.9700   -1.0710    2.7710 C   0  0  0  0  0  0  0  0  0  0  0  0
    4.2070    0.1940    2.4890 C   0  0  0  0  0  0  0  0  0  0  0  0
    2.7340   -0.0500    2.4860 C   0  0  0  0  0  0  0  0  0  0  0  0
    1.9960    0.2180    1.4290 C   0  0  0  0  0  0  0  0  0  0  0  0
    2.6240    0.7340    0.3150 O   0  0  0  0  0  0  0  0  0  0  0  0
    0.5710   -0.0190    1.4250 C   0  0  0  0  0  0  0  0  0  0  0  0
   -0.2090    0.2520    0.3840 C   0  0  0  0  0  0  0  0  0  0  0  0
   -1.6270   -0.0140    0.4490 C   0  0  0  0  0  0  0  0  0  0  0  0
   -2.4760    0.2430   -0.5670 C   0  0  0  0  0  0  0  0  0  0  0  0
   -2.0150    0.8050   -1.7950 C   0  0  0  0  0  0  0  0  0  0  0  0
   -2.7540    1.0560   -2.8340 C   0  0  0  0  0  0  0  0  0  0  0  0
   -4.5090    0.8220   -3.1550 S   0  0  0  0  0  0  0  0  0  0  0  0
   -4.3150    0.6840   -4.9440 C   0  0  0  0  0  0  0  0  0  0  0  0
   -5.0480    0.0540   -5.7470 O   0  0  0  0  0  0  0  0  0  0  0  0
   -3.1500    1.4500   -5.1900 N   0  0  0  0  0  0  0  0  0  0  0  0
   -2.3130    1.6660   -4.1170 C   0  0  0  0  0  0  0  0  0  0  0  0
   -1.2110    2.3390   -4.1550 O   0  0  0  0  0  0  0  0  0  0  0  0
   -4.1540   -0.0600   -0.2460 S   0  0  2  0  0  0  0  0  0  0  0  0
   -4.5990   -1.6050   -0.9900 C   0  0  0  0  0  0  0  0  0  0  0  0
   -5.0590    1.0500   -0.6180 O   0  0  0  0  0  0  0  0  0  0  0  0
   -4.3090   -0.2430    1.2820 O   0  0  0  0  0  0  0  0  0  0  0  0
  1  2  1  0
  2  3  1  0
  3  4  1  0
  4  5  2  3
  5  6  1  0
  5  7  1  0
  7  8  2  3
  8  9  1  0
  9 10  2  3
 10 11  1  0
 10 19  1  0
 11 12  2  3
 12 13  1  0
 12 17  1  0
 13 14  1  0
 14 15  2  0
 14 16  1  0
 16 17  1  0
 17 18  2  0
 19 20  1  6
 19 21  2  0
 19 22  2  0
M  END
