
     RDKit          3D

 13 14  0  0  0  0  0  0  0  0999 V2000
   -1.4260    1.3940   -0.1910 N   0  0  0  0  0  0  0  0  0  0  0  0
   -1.0000    0.0940    0.2760 C   0  0  1  0  0  0  0  0  0  0  0  0
   -1.9850   -0.4560    1.2390 C   0  0  0  0  0  0  0  0  0  0  0  0
   -1.7960   -1.5780    1.7600 O   0  0  0  0  0  0  0  0  0  0  0  0
   -3.1190    0.2910    1.5540 O   0  0  0  0  0  0  0  0  0  0  0  0
   -0.9270   -0.8130   -0.9340 C   0  0  0  0  0  0  0  0  0  0  0  0
    0.2650   -1.7000   -0.7440 C   0  0  0  0  0  0  0  0  0  0  0  0
    1.1690   -0.9700    0.2080 C   0  0  1  0  0  0  0  0  0  0  0  0
    1.5000    0.4680   -0.0400 C   0  0  2  0  0  0  0  0  0  0  0  0
    2.7650    0.9290    0.5630 C   0  0  0  0  0  0  0  0  0  0  0  0
    3.1060    0.4890    1.6920 O   0  0  0  0  0  0  0  0  0  0  0  0
    3.6270    1.8350   -0.0400 O   0  0  0  0  0  0  0  0  0  0  0  0
    0.3900    0.1120    0.8450 C   0  0  1  0  0  0  0  0  0  0  0  0
  2  1  1  6
  2  3  1  0
  2  6  1  0
 13  2  1  6
  3  4  2  0
  3  5  1  0
  6  7  1  0
  8  7  1  6
  8  9  1  0
  8 13  1  0
  9 10  1  1
  9 13  1  0
 10 11  2  0
 10 12  1  0
M  CHG  1   1   1
M  END
