
     RDKit          3D

 22 23  0  0  0  0  0  0  0  0999 V2000
   -2.3870    1.2800    1.3530 C   0  0  0  0  0  0  0  0  0  0  0  0
   -3.1120    0.9730    0.1350 N   0  0  0  0  0  0  0  0  0  0  0  0
   -3.6370   -0.3630   -0.0720 C   0  0  0  0  0  0  0  0  0  0  0  0
   -2.9970   -1.4180   -0.4440 C   0  0  0  0  0  0  0  0  0  0  0  0
   -1.5600   -1.5780   -0.7700 C   0  0  0  0  0  0  0  0  0  0  0  0
   -0.7560   -0.4480   -0.6940 O   0  0  0  0  0  0  0  0  0  0  0  0
   -0.7940    0.6400   -1.5300 C   0  0  0  0  0  0  0  0  0  0  0  0
   -1.6370    0.6310   -2.4910 O   0  0  0  0  0  0  0  0  0  0  0  0
    0.0700    1.8160   -1.3910 C   0  0  0  0  0  0  0  0  0  0  0  0
    0.9780    1.6930   -0.3540 O   0  0  0  0  0  0  0  0  0  0  0  0
    1.9720    0.7580   -0.2210 C   0  0  0  0  0  0  0  0  0  0  0  0
    2.1440   -0.1840   -1.2110 C   0  0  0  0  0  0  0  0  0  0  0  0
    3.1640   -1.1300   -1.0560 C   0  0  0  0  0  0  0  0  0  0  0  0
    3.3440   -2.0840   -2.0490 O   0  0  0  0  0  0  0  0  0  0  0  0
    3.9640   -1.1020    0.0650 C   0  0  0  0  0  0  0  0  0  0  0  0
    3.8110   -0.1700    1.0660 C   0  0  0  0  0  0  0  0  0  0  0  0
    4.6460   -0.1890    2.1730 O   0  0  0  0  0  0  0  0  0  0  0  0
    4.5660    0.7130    3.2340 C   0  0  0  0  0  0  0  0  0  0  0  0
    2.8060    0.7560    0.9060 C   0  0  0  0  0  0  0  0  0  0  0  0
   -4.0590   -2.8880   -0.5700 S   0  0  0  0  0  0  0  0  0  0  0  0
   -5.7200   -2.1370   -0.6820 C   0  0  0  0  0  0  0  0  0  0  0  0
   -5.3900   -0.6000    0.2200 S   0  0  0  0  0  0  0  0  0  0  0  0
  1  2  1  0
  2  3  1  0
  3  4  2  0
  3 22  1  0
  4  5  1  0
  4 20  1  0
  5  6  1  0
  6  7  1  0
  7  8  2  0
  7  9  1  0
  9 10  1  0
 10 11  1  0
 11 12  2  0
 11 19  1  0
 12 13  1  0
 13 14  1  0
 13 15  2  0
 15 16  1  0
 16 17  1  0
 16 19  2  0
 17 18  1  0
 20 21  1  0
 21 22  1  0
M  END
