
     RDKit          3D

 22 22  0  0  0  0  0  0  0  0999 V2000
   -4.6870    1.7960    2.0330 C   0  0  0  0  0  0  0  0  0  0  0  0
   -4.1580    1.3110    0.8090 O   0  0  0  0  0  0  0  0  0  0  0  0
   -2.8520    0.7050    0.8230 C   0  0  0  0  0  0  0  0  0  0  0  0
   -2.4270    0.7250    1.9430 O   0  0  0  0  0  0  0  0  0  0  0  0
   -2.3620    0.2300   -0.4290 C   0  0  0  0  0  0  0  0  0  0  0  0
   -1.2090   -0.3350   -0.5040 C   0  0  0  0  0  0  0  0  0  0  0  0
   -0.3080   -0.5660    0.4910 N   0  0  0  0  0  0  0  0  0  0  0  0
   -0.0660   -0.3990    1.8300 C   0  0  0  0  0  0  0  0  0  0  0  0
   -0.8120    0.1290    2.6090 O   0  0  0  0  0  0  0  0  0  0  0  0
    1.2250   -0.8900    2.4900 C   0  0  0  0  0  0  0  0  0  0  0  0
    2.2010   -1.3100    1.6170 O   0  0  0  0  0  0  0  0  0  0  0  0
    2.8110   -0.4450    0.7230 C   0  0  0  0  0  0  0  0  0  0  0  0
    2.4340    0.7550    0.7350 O   0  0  0  0  0  0  0  0  0  0  0  0
    3.8630   -0.9560   -0.1950 C   0  0  0  0  0  0  0  0  0  0  0  0
    4.4800    0.3630   -1.2670 S   0  0  0  0  0  0  0  0  0  0  0  0
    5.3640    1.6290   -0.3150 C   0  0  0  0  0  0  0  0  0  0  0  0
   -0.6240   -0.8710   -1.8010 C   0  0  0  0  0  0  0  0  0  0  0  0
    0.1630   -2.1340   -1.6290 C   0  0  0  0  0  0  0  0  0  0  0  0
   -0.6810   -0.4740   -3.0300 C   0  0  0  0  0  0  0  0  0  0  0  0
   -1.5840    1.0000   -3.6080 S   0  0  0  0  0  0  0  0  0  0  0  0
   -3.1900    0.8330   -2.7790 C   0  0  0  0  0  0  0  0  0  0  0  0
   -3.3560    0.5250   -1.5280 C   0  0  0  0  0  0  0  0  0  0  0  0
  1  2  1  0
  2  3  1  0
  3  4  2  0
  3  5  1  0
  5  6  2  0
  5 22  1  0
  6  7  1  0
  6 17  1  0
  7  8  1  0
  8  9  2  0
  8 10  1  0
 10 11  1  0
 11 12  1  0
 12 13  2  0
 12 14  1  0
 14 15  1  0
 15 16  1  0
 17 18  1  0
 17 19  2  0
 19 20  1  0
 20 21  1  0
 21 22  2  0
M  END
