
     RDKit          3D

 22 23  0  0  0  0  0  0  0  0999 V2000
   -0.3990   -2.0860   -0.1000 C   0  0  0  0  0  0  0  0  0  0  0  0
   -0.5580   -0.6180   -0.4530 C   0  0  2  0  0  0  0  0  0  0  0  0
   -0.1640   -0.3970   -1.8920 C   0  0  0  0  0  0  0  0  0  0  0  0
    0.2340    0.2390    0.4500 C   0  0  0  0  0  0  0  0  0  0  0  0
    1.6490    0.1960    0.4470 N   0  0  0  0  0  0  0  0  0  0  0  0
    2.5570   -0.8070    0.7980 C   0  0  0  0  0  0  0  0  0  0  0  0
    2.1700   -1.8920    1.2140 O   0  0  0  0  0  0  0  0  0  0  0  0
    4.0270   -0.5950    0.6800 C   0  0  0  0  0  0  0  0  0  0  0  0
    4.6690    0.5400    0.2380 C   0  0  0  0  0  0  0  0  0  0  0  0
    6.0410    0.2910    0.2940 C   0  0  0  0  0  0  0  0  0  0  0  0
    7.3250    1.4400   -0.1690 S   0  0  0  0  0  0  0  0  0  0  0  0
    6.1450   -0.9970    0.7730 C   0  0  0  0  0  0  0  0  0  0  0  0
    4.9600   -1.4620    0.9790 O   0  0  0  0  0  0  0  0  0  0  0  0
   -1.9680   -0.3200   -0.3070 O   0  0  0  0  0  0  0  0  0  0  0  0
   -2.5390    0.8870   -0.5800 C   0  0  0  0  0  0  0  0  0  0  0  0
   -1.8410    1.8340   -0.9970 O   0  0  0  0  0  0  0  0  0  0  0  0
   -3.9750    1.1470   -0.4060 C   0  0  0  0  0  0  0  0  0  0  0  0
   -4.7890    2.6800   -0.7360 S   0  0  0  0  0  0  0  0  0  0  0  0
   -6.4180    2.1450   -0.2820 C   0  0  0  0  0  0  0  0  0  0  0  0
   -6.2250    0.7970    0.1010 C   0  0  0  0  0  0  0  0  0  0  0  0
   -4.9690    0.3430    0.0190 C   0  0  0  0  0  0  0  0  0  0  0  0
   -4.6330   -1.0090    0.3780 O   0  0  0  0  0  0  0  0  0  0  0  0
  2  1  1  1
  2  3  1  0
  2  4  1  0
  2 14  1  0
  4  5  1  0
  5  6  1  0
  6  7  2  0
  6  8  1  0
  8  9  2  0
  8 13  1  0
  9 10  1  0
 10 11  1  0
 10 12  2  0
 12 13  1  0
 14 15  1  0
 15 16  2  0
 15 17  1  0
 17 18  1  0
 17 21  2  0
 18 19  1  0
 19 20  2  0
 20 21  1  0
 21 22  1  0
M  END
