
     RDKit          3D

 22 23  0  0  0  0  0  0  0  0999 V2000
   -2.4550    2.3510   -1.2110 C   0  0  0  0  0  0  0  0  0  0  0  0
   -3.0260    1.4490   -2.2500 C   0  0  0  0  0  0  0  0  0  0  0  0
   -4.0470    0.1770   -1.6090 S   0  0  2  0  0  0  0  0  0  0  0  0
   -4.5650   -0.6580   -2.7350 O   0  0  0  0  0  0  0  0  0  0  0  0
   -5.2230    0.7830   -0.9110 O   0  0  0  0  0  0  0  0  0  0  0  0
   -3.1210   -0.8530   -0.4940 C   0  0  0  0  0  0  0  0  0  0  0  0
   -1.8350   -0.7640   -0.1280 C   0  0  0  0  0  0  0  0  0  0  0  0
   -1.3260   -1.6520    0.7350 C   0  0  0  0  0  0  0  0  0  0  0  0
    0.0090   -1.7000    1.2230 N   0  0  0  0  0  0  0  0  0  0  0  0
    1.0650   -0.8050    0.8830 C   0  0  0  0  0  0  0  0  0  0  0  0
    0.7780    0.1020    0.0800 O   0  0  0  0  0  0  0  0  0  0  0  0
    2.3790   -0.9790    1.4630 C   0  0  0  0  0  0  0  0  0  0  0  0
    3.4460   -0.2620    1.2650 C   0  0  0  0  0  0  0  0  0  0  0  0
    3.5890    0.8870    0.4190 C   0  0  0  0  0  0  0  0  0  0  0  0
    2.6940    1.4590   -0.3280 O   0  0  0  0  0  0  0  0  0  0  0  0
    3.1750    2.4990   -0.9750 C   0  0  0  0  0  0  0  0  0  0  0  0
    4.5030    2.6600   -0.6520 C   0  0  0  0  0  0  0  0  0  0  0  0
    4.7740    1.6380    0.2350 C   0  0  0  0  0  0  0  0  0  0  0  0
    5.9520    1.3390    0.8660 O   0  0  0  0  0  0  0  0  0  0  0  0
   -2.2260   -2.6190    1.1830 C   0  0  0  0  0  0  0  0  0  0  0  0
   -1.9940   -3.7530    2.1440 C   0  0  0  0  0  0  0  0  0  0  0  0
   -3.7150   -2.2470    0.3900 S   0  0  0  0  0  0  0  0  0  0  0  0
  1  2  1  0
  3  2  1  6
  3  4  2  0
  3  5  2  0
  3  6  1  0
  6  7  2  0
  6 22  1  0
  7  8  1  0
  8  9  1  0
  8 20  2  0
  9 10  1  0
 10 11  2  0
 10 12  1  0
 12 13  2  3
 13 14  1  0
 14 15  1  0
 14 18  2  0
 15 16  1  0
 16 17  2  0
 17 18  1  0
 18 19  1  0
 20 21  1  0
 20 22  1  0
M  END
