
     RDKit          3D

 22 23  0  0  0  0  0  0  0  0999 V2000
   -4.3800    2.8780    0.0900 C   0  0  0  0  0  0  0  0  0  0  0  0
   -4.0620    2.0700   -1.1470 C   0  0  0  0  0  0  0  0  0  0  0  0
   -2.9960    1.1000   -0.7820 C   0  0  0  0  0  0  0  0  0  0  0  0
   -1.3040    1.2580   -1.2200 S   0  0  0  0  0  0  0  0  0  0  0  0
   -0.7830   -0.2790   -0.4060 C   0  0  0  0  0  0  0  0  0  0  0  0
    0.5690   -0.6390   -0.4470 N   0  0  0  0  0  0  0  0  0  0  0  0
    1.1450   -1.8720   -0.1460 C   0  0  0  0  0  0  0  0  0  0  0  0
    0.5060   -2.8810    0.1960 O   0  0  0  0  0  0  0  0  0  0  0  0
    2.6120   -2.0150   -0.2320 C   0  0  0  0  0  0  0  0  0  0  0  0
    3.1280   -3.1810    0.0590 C   0  0  0  0  0  0  0  0  0  0  0  0
    4.4980   -3.3570   -0.0090 O   0  0  0  0  0  0  0  0  0  0  0  0
    3.4890   -0.9040   -0.6360 C   0  0  0  0  0  0  0  0  0  0  0  0
    3.4190    0.2260    0.2090 O   0  0  0  0  0  0  0  0  0  0  0  0
    4.2420    1.3000   -0.1600 C   0  0  0  0  0  0  0  0  0  0  0  0
    4.2200    2.5160    0.6790 C   0  0  0  0  0  0  0  0  0  0  0  0
    4.9800    1.2460   -1.1660 O   0  0  0  0  0  0  0  0  0  0  0  0
   -1.9630   -0.7810    0.1410 C   0  0  0  0  0  0  0  0  0  0  0  0
   -3.0850   -0.0980   -0.0460 C   0  0  0  0  0  0  0  0  0  0  0  0
   -4.3690   -0.7120    0.5110 C   0  0  0  0  0  0  0  0  0  0  0  0
   -3.8250   -2.4880    0.5000 S   0  0  0  0  0  0  0  0  0  0  0  0
   -2.1680   -1.9750    1.0550 C   0  0  0  0  0  0  0  0  0  0  0  0
   -1.5270   -2.5070    1.9130 O   0  0  0  0  0  0  0  0  0  0  0  0
  1  2  1  0
  2  3  1  0
  3  4  1  0
  3 18  2  0
  4  5  1  0
  5  6  1  0
  5 17  2  0
  6  7  1  0
  7  8  2  0
  7  9  1  0
  9 10  2  3
  9 12  1  0
 10 11  1  0
 12 13  1  0
 13 14  1  0
 14 15  1  0
 14 16  2  0
 17 18  1  0
 17 21  1  0
 18 19  1  0
 19 20  1  0
 20 21  1  0
 21 22  2  0
M  END
