
     RDKit          3D

 22 23  0  0  0  0  0  0  0  0999 V2000
    6.0820    0.1110   -1.2630 C   0  0  0  0  0  0  0  0  0  0  0  0
    5.5240    0.8210   -0.0690 C   0  0  2  0  0  0  0  0  0  0  0  0
    6.3180    0.4760    1.1510 C   0  0  0  0  0  0  0  0  0  0  0  0
    4.0930    0.4280    0.0580 C   0  0  0  0  0  0  0  0  0  0  0  0
    3.5410   -0.7950    0.2710 C   0  0  0  0  0  0  0  0  0  0  0  0
    2.2170   -0.9070    0.3490 C   0  0  0  0  0  0  0  0  0  0  0  0
    1.4700    0.2340    0.2100 C   0  0  0  0  0  0  0  0  0  0  0  0
    0.0220    0.4030    0.2520 C   0  0  0  0  0  0  0  0  0  0  0  0
   -0.4300    1.5620    0.0960 O   0  0  0  0  0  0  0  0  0  0  0  0
   -0.8490   -0.6310    0.4500 O   0  0  0  0  0  0  0  0  0  0  0  0
   -2.2170   -0.5230    0.4970 C   0  0  0  0  0  0  0  0  0  0  0  0
   -2.9460   -0.2890    1.6420 C   0  0  0  0  0  0  0  0  0  0  0  0
   -4.3220   -0.1860    1.6480 C   0  0  0  0  0  0  0  0  0  0  0  0
   -5.0140   -0.3210    0.4570 C   0  0  0  0  0  0  0  0  0  0  0  0
   -6.4440   -0.2160    0.4500 N   0  0  0  0  0  0  0  0  0  0  0  0
   -7.1430    0.7490   -0.8010 S   0  0  2  0  0  0  0  0  0  0  0  0
   -6.2610    1.8580   -1.2360 O   0  0  0  0  0  0  0  0  0  0  0  0
   -8.4550    1.3300   -0.3430 O   0  0  0  0  0  0  0  0  0  0  0  0
   -4.3150   -0.5550   -0.7080 C   0  0  0  0  0  0  0  0  0  0  0  0
   -2.9230   -0.6540   -0.6810 C   0  0  0  0  0  0  0  0  0  0  0  0
   -2.3140   -0.8910   -1.9050 O   0  0  0  0  0  0  0  0  0  0  0  0
    2.6900    1.4670   -0.0350 S   0  0  0  0  0  0  0  0  0  0  0  0
  2  1  1  6
  2  3  1  0
  2  4  1  0
  4  5  2  0
  4 22  1  0
  5  6  1  0
  6  7  2  0
  7  8  1  0
  7 22  1  0
  8  9  2  0
  8 10  1  0
 10 11  1  0
 11 12  2  0
 11 20  1  0
 12 13  1  0
 13 14  2  0
 14 15  1  0
 14 19  1  0
 16 15  1  1
 16 17  2  0
 16 18  2  0
 19 20  2  0
 20 21  1  0
M  END
