
     RDKit          3D

 15 17  0  0  0  0  0  0  0  0999 V2000
    1.3860   -1.7130   -0.8080 N   0  0  0  0  0  0  0  0  0  0  0  0
    1.0780   -0.4910   -0.0950 C   0  0  1  0  0  0  0  0  0  0  0  0
    2.2040   -0.0770    0.7450 C   0  0  0  0  0  0  0  0  0  0  0  0
    2.2050    0.9460    1.4690 O   0  0  0  0  0  0  0  0  0  0  0  0
    3.3530   -0.8550    0.7520 O   0  0  0  0  0  0  0  0  0  0  0  0
    0.7240    0.6280   -1.0660 C   0  0  0  0  0  0  0  0  0  0  0  0
   -0.3640    1.3530   -0.3500 C   0  0  2  0  0  0  0  0  0  0  0  0
   -0.9840    2.5760   -0.8920 C   0  0  0  0  0  0  0  0  0  0  0  0
   -0.1410    2.6550    0.3320 C   0  0  0  0  0  0  0  0  0  0  0  0
   -1.1420    0.3410    0.4370 C   0  0  1  0  0  0  0  0  0  0  0  0
   -1.4040   -0.9710   -0.2130 C   0  0  2  0  0  0  0  0  0  0  0  0
   -2.3810   -1.9150    0.3590 C   0  0  0  0  0  0  0  0  0  0  0  0
   -3.0130   -2.6970   -0.3970 O   0  0  0  0  0  0  0  0  0  0  0  0
   -2.6490   -1.9950    1.7110 O   0  0  0  0  0  0  0  0  0  0  0  0
   -0.1860   -0.7440    0.6860 C   0  0  1  0  0  0  0  0  0  0  0  0
  2  1  1  6
  2  3  1  0
  2  6  1  0
 15  2  1  6
  3  4  2  0
  3  5  1  0
  7  6  1  6
  7  8  1  0
  7  9  1  0
 10  7  1  6
  8  9  1  0
 10 11  1  0
 10 15  1  0
 11 12  1  1
 11 15  1  0
 12 13  2  0
 12 14  1  0
M  CHG  1   1   1
M  END
