
     RDKit          3D

 16 17  0  0  0  0  0  0  0  0999 V2000
   -1.7430    2.2570   -0.2860 C   0  0  0  0  0  0  0  0  0  0  0  0
   -2.3140    0.9190   -0.1010 C   0  0  0  0  0  0  0  0  0  0  0  0
   -3.6470    0.6090   -0.0460 N   0  0  0  0  0  0  0  0  0  0  0  0
   -3.8080   -0.6780    0.1270 N   0  0  0  0  0  0  0  0  0  0  0  0
   -5.0850   -1.3870    0.2350 C   0  0  0  0  0  0  0  0  0  0  0  0
   -2.6210   -1.1960    0.1840 N   0  0  0  0  0  0  0  0  0  0  0  0
   -1.6450   -0.2440    0.0470 C   0  0  0  0  0  0  0  0  0  0  0  0
   -0.2240   -0.5810    0.0770 C   0  0  0  0  0  0  0  0  0  0  0  0
    0.0730   -1.8060    0.2370 O   0  0  0  0  0  0  0  0  0  0  0  0
    0.8400    0.3120   -0.0530 N   0  0  0  0  0  0  0  0  0  0  0  0
    2.2400    0.0400   -0.0310 C   0  0  0  0  0  0  0  0  0  0  0  0
    2.7990   -1.1240    0.1180 C   0  0  0  0  0  0  0  0  0  0  0  0
    4.2430   -1.4260    0.1440 C   0  0  0  0  0  0  0  0  0  0  0  0
    5.0090   -0.2920   -0.0150 O   0  0  0  0  0  0  0  0  0  0  0  0
    4.4670    0.9670   -0.1770 C   0  0  0  0  0  0  0  0  0  0  0  0
    3.1790    1.1860   -0.1940 C   0  0  0  0  0  0  0  0  0  0  0  0
  1  2  1  0
  2  3  2  0
  2  7  1  0
  3  4  1  0
  4  5  1  0
  4  6  1  0
  6  7  2  0
  7  8  1  0
  8  9  2  0
  8 10  1  0
 10 11  1  0
 11 12  2  0
 11 16  1  0
 12 13  1  0
 13 14  1  0
 14 15  1  0
 15 16  2  0
M  END
