
     RDKit          3D

 16 17  0  0  0  0  0  0  0  0999 V2000
   -1.9660    1.8450    0.4100 C   0  0  0  0  0  0  0  0  0  0  0  0
   -2.0340    0.6270   -0.4070 C   0  0  1  0  0  0  0  0  0  0  0  0
   -2.5600    0.8170   -1.7730 C   0  0  0  0  0  0  0  0  0  0  0  0
   -2.9660    0.9840   -2.8560 N   0  0  0  0  0  0  0  0  0  0  0  0
   -1.0420   -0.4350   -0.3230 C   0  0  0  0  0  0  0  0  0  0  0  0
    0.2230   -0.2790   -0.0100 C   0  0  0  0  0  0  0  0  0  0  0  0
    1.0710    0.8560    0.3310 C   0  0  0  0  0  0  0  0  0  0  0  0
    0.7600    2.0620    0.3860 O   0  0  0  0  0  0  0  0  0  0  0  0
    2.4020    0.3860    0.6140 N   0  0  0  0  0  0  0  0  0  0  0  0
    3.5260    1.2280    0.9920 C   0  0  0  0  0  0  0  0  0  0  0  0
    2.4590   -1.0230    0.4690 C   0  0  0  0  0  0  0  0  0  0  0  0
    3.4760   -1.7710    0.6390 O   0  0  0  0  0  0  0  0  0  0  0  0
    1.1260   -1.4510    0.0850 C   0  0  0  0  0  0  0  0  0  0  0  0
    0.7000   -2.6320   -0.1330 N   0  0  0  0  0  0  0  0  0  0  0  0
   -0.6220   -2.8650   -0.4670 N   0  0  0  0  0  0  0  0  0  0  0  0
   -1.5420   -1.8140   -0.6570 C   0  0  0  0  0  0  0  0  0  0  0  0
  2  1  1  6
  2  3  1  0
  2  5  1  0
  3  4  3  0
  5  6  2  0
  5 16  1  0
  6  7  1  0
  6 13  1  0
  7  8  2  0
  7  9  1  0
  9 10  1  0
  9 11  1  0
 11 12  2  0
 11 13  1  0
 13 14  2  0
 14 15  1  0
 15 16  1  0
M  END
