
     RDKit          3D

 16 17  0  0  0  0  0  0  0  0999 V2000
    4.8350   -0.1280   -0.0840 C   0  0  0  0  0  0  0  0  0  0  0  0
    3.7690    0.8870   -0.2070 C   0  0  0  0  0  0  0  0  0  0  0  0
    3.9810    2.0280   -0.9600 O   0  0  0  0  0  0  0  0  0  0  0  0
    2.6240    0.7160    0.3890 N   0  0  0  0  0  0  0  0  0  0  0  0
    2.3320   -0.4160    1.1710 C   0  0  0  0  0  0  0  0  0  0  0  0
    3.2780   -0.9990    1.7770 O   0  0  0  0  0  0  0  0  0  0  0  0
    0.9320   -0.8910    1.2620 C   0  0  0  0  0  0  0  0  0  0  0  0
    0.0410   -0.0120    0.4480 C   0  0  0  0  0  0  0  0  0  0  0  0
    0.4380    1.0150   -0.2380 N   0  0  0  0  0  0  0  0  0  0  0  0
   -0.6270    1.6370   -0.8940 N   0  0  0  0  0  0  0  0  0  0  0  0
   -1.8060    0.9070   -0.5730 C   0  0  0  0  0  0  0  0  0  0  0  0
   -3.0860    0.9940   -0.8740 C   0  0  0  0  0  0  0  0  0  0  0  0
   -4.1050    0.0590   -0.3720 C   0  0  0  0  0  0  0  0  0  0  0  0
   -3.5620   -1.2290    0.1310 C   0  0  0  0  0  0  0  0  0  0  0  0
   -2.2520   -1.1260    0.8460 C   0  0  0  0  0  0  0  0  0  0  0  0
   -1.3620   -0.1420    0.2840 N   0  0  0  0  0  0  0  0  0  0  0  0
  1  2  1  0
  2  3  1  0
  2  4  2  3
  4  5  1  0
  5  6  2  0
  5  7  1  0
  7  8  1  0
  8  9  2  0
  8 16  1  0
  9 10  1  0
 10 11  1  0
 11 12  2  0
 11 16  1  0
 12 13  1  0
 13 14  1  0
 14 15  1  0
 15 16  1  0
M  END
