
     RDKit          3D

 16 17  0  0  0  0  0  0  0  0999 V2000
    4.2940   -0.9970   -1.1810 C   0  0  0  0  0  0  0  0  0  0  0  0
    4.3740   -0.8540    0.2040 O   0  0  0  0  0  0  0  0  0  0  0  0
    3.8960    0.4300    0.5540 C   0  0  0  0  0  0  0  0  0  0  0  0
    2.4730    0.4580    0.0640 C   0  0  0  0  0  0  0  0  0  0  0  0
    2.2080    1.4000   -0.8280 C   0  0  0  0  0  0  0  0  0  0  0  0
    0.9520    1.6400   -1.4440 N   0  0  0  0  0  0  0  0  0  0  0  0
   -0.2610    0.9650   -1.2280 N   0  0  0  0  0  0  0  0  0  0  0  0
   -0.6730    0.1050   -0.1690 C   0  0  0  0  0  0  0  0  0  0  0  0
   -2.0600   -0.0590    0.0330 N   0  0  0  0  0  0  0  0  0  0  0  0
   -2.7000   -0.0630    1.3280 C   0  0  0  0  0  0  0  0  0  0  0  0
   -4.1760   -0.2670    1.0610 C   0  0  0  0  0  0  0  0  0  0  0  0
   -4.1590   -0.9560   -0.2840 C   0  0  0  0  0  0  0  0  0  0  0  0
   -3.0410   -0.2460   -1.0060 C   0  0  0  0  0  0  0  0  0  0  0  0
    0.1470   -0.5350    0.6180 N   0  0  0  0  0  0  0  0  0  0  0  0
    1.5860   -0.5480    0.6340 C   0  0  0  0  0  0  0  0  0  0  0  0
    2.1530   -1.5200    1.1930 O   0  0  0  0  0  0  0  0  0  0  0  0
  1  2  1  0
  2  3  1  0
  3  4  1  0
  4  5  2  0
  4 15  1  0
  5  6  1  0
  6  7  1  0
  7  8  1  0
  8  9  1  0
  8 14  2  0
  9 10  1  0
  9 13  1  0
 10 11  1  0
 11 12  1  0
 12 13  1  0
 14 15  1  0
 15 16  2  0
M  END
