
     RDKit          3D

 22 24  0  0  0  0  0  0  0  0999 V2000
    6.7960    1.5170    0.6920 C   0  0  0  0  0  0  0  0  0  0  0  0
    6.0790    0.4480    0.9340 C   0  0  0  0  0  0  0  0  0  0  0  0
    4.6970    0.3650    0.4850 C   0  0  0  0  0  0  0  0  0  0  0  0
    3.8200   -0.1880    1.4190 C   0  0  0  0  0  0  0  0  0  0  0  0
    2.4790   -0.3160    1.0370 C   0  0  0  0  0  0  0  0  0  0  0  0
    1.3940   -0.8130    1.7230 C   0  0  0  0  0  0  0  0  0  0  0  0
    0.2880   -0.7090    0.8790 C   0  0  0  0  0  0  0  0  0  0  0  0
   -1.0490   -1.1390    1.2650 C   0  0  0  0  0  0  0  0  0  0  0  0
   -1.1590   -1.6320    2.4490 O   0  0  0  0  0  0  0  0  0  0  0  0
   -2.2030   -1.0730    0.4970 N   0  0  0  0  0  0  0  0  0  0  0  0
   -2.2690   -0.5560   -0.8380 C   0  0  0  0  0  0  0  0  0  0  0  0
   -3.7590   -0.6570   -1.2630 C   0  0  0  0  0  0  0  0  0  0  0  0
   -4.5410    0.1510   -0.2880 C   0  0  1  0  0  0  0  0  0  0  0  0
   -5.9500    0.4200   -0.6950 C   0  0  0  0  0  0  0  0  0  0  0  0
   -6.5390    1.1900    0.3330 O   0  0  0  0  0  0  0  0  0  0  0  0
   -4.5430   -0.5450    1.0520 C   0  0  0  0  0  0  0  0  0  0  0  0
   -3.4580   -1.5720    1.0920 C   0  0  0  0  0  0  0  0  0  0  0  0
    0.7280   -0.1670   -0.2550 N   0  0  0  0  0  0  0  0  0  0  0  0
    2.0570    0.0860   -0.1980 C   0  0  0  0  0  0  0  0  0  0  0  0
    2.9420    0.6290   -1.1040 C   0  0  0  0  0  0  0  0  0  0  0  0
    4.2920    0.7670   -0.7470 C   0  0  0  0  0  0  0  0  0  0  0  0
    5.2490    1.3080   -1.7310 C   0  0  0  0  0  0  0  0  0  0  0  0
  1  2  2  0
  2  3  1  0
  3  4  2  0
  3 21  1  0
  4  5  1  0
  5  6  1  0
  5 19  2  0
  6  7  2  0
  7  8  1  0
  7 18  1  0
  8  9  2  0
  8 10  1  0
 10 11  1  0
 10 17  1  0
 11 12  1  0
 12 13  1  0
 13 14  1  6
 13 16  1  0
 14 15  1  0
 16 17  1  0
 18 19  1  0
 19 20  1  0
 20 21  2  0
 21 22  1  0
M  END
