
     RDKit          3D

 22 24  0  0  0  0  0  0  0  0999 V2000
   -5.0040   -1.4980    0.3170 C   0  0  0  0  0  0  0  0  0  0  0  0
   -4.5620   -0.0870    0.0120 C   0  0  0  0  0  0  0  0  0  0  0  0
   -3.0740    0.0900    0.3350 C   0  0  2  0  0  0  0  0  0  0  0  0
   -2.9260   -0.2080    1.8110 C   0  0  0  0  0  0  0  0  0  0  0  0
   -2.7330    1.5170    0.0160 C   0  0  0  0  0  0  0  0  0  0  0  0
   -1.2580    1.7630   -0.0190 C   0  0  0  0  0  0  0  0  0  0  0  0
   -0.6810    0.8960   -1.1330 C   0  0  0  0  0  0  0  0  0  0  0  0
   -0.9530   -0.4840   -0.7680 N   0  0  0  0  0  0  0  0  0  0  0  0
    0.1140   -1.4220   -0.6530 C   0  0  0  0  0  0  0  0  0  0  0  0
   -0.1450   -2.5920   -0.3410 O   0  0  0  0  0  0  0  0  0  0  0  0
    1.4880   -0.9900   -0.9060 C   0  0  0  0  0  0  0  0  0  0  0  0
    2.0960   -1.0350   -2.1620 C   0  0  0  0  0  0  0  0  0  0  0  0
    3.3440   -0.5610   -1.9980 N   0  0  0  0  0  0  0  0  0  0  0  0
    3.5500   -0.2240   -0.7110 C   0  0  0  0  0  0  0  0  0  0  0  0
    4.6520    0.3020   -0.0420 C   0  0  0  0  0  0  0  0  0  0  0  0
    5.8820    0.5710   -0.8450 C   0  0  0  0  0  0  0  0  0  0  0  0
    4.6120    0.5660    1.3050 C   0  0  0  0  0  0  0  0  0  0  0  0
    3.4460    0.2970    1.9950 C   0  0  0  0  0  0  0  0  0  0  0  0
    3.4120    0.5620    3.3380 O   0  0  0  0  0  0  0  0  0  0  0  0
    2.3220   -0.2290    1.3650 C   0  0  0  0  0  0  0  0  0  0  0  0
    2.3920   -0.4840    0.0040 C   0  0  0  0  0  0  0  0  0  0  0  0
   -2.3180   -0.8690   -0.5280 C   0  0  0  0  0  0  0  0  0  0  0  0
  1  2  1  0
  2  3  1  0
  3  4  1  1
  3  5  1  0
  3 22  1  0
  5  6  1  0
  6  7  1  0
  7  8  1  0
  8  9  1  0
  8 22  1  0
  9 10  2  0
  9 11  1  0
 11 12  2  0
 11 21  1  0
 12 13  1  0
 13 14  1  0
 14 15  2  0
 14 21  1  0
 15 16  1  0
 15 17  1  0
 17 18  2  0
 18 19  1  0
 18 20  1  0
 20 21  2  0
M  END
