
     RDKit          3D

 22 24  0  0  0  0  0  0  0  0999 V2000
   -5.6600   -2.1240   -0.6090 C   0  0  0  0  0  0  0  0  0  0  0  0
   -4.2350   -2.3990   -0.5020 C   0  0  0  0  0  0  0  0  0  0  0  0
   -3.9140   -3.6390   -0.8230 O   0  0  0  0  0  0  0  0  0  0  0  0
   -3.1330   -1.5740   -0.1170 C   0  0  0  0  0  0  0  0  0  0  0  0
   -3.1400   -0.3360    0.2440 C   0  0  0  0  0  0  0  0  0  0  0  0
   -4.3850    0.4320    0.3080 C   0  0  0  0  0  0  0  0  0  0  0  0
   -4.2150    1.9390    0.4370 C   0  0  0  0  0  0  0  0  0  0  0  0
   -3.1160    2.2520    1.3690 C   0  0  0  0  0  0  0  0  0  0  0  0
   -3.2640    3.0580    2.2850 O   0  0  0  0  0  0  0  0  0  0  0  0
   -1.8520    1.5620    1.1490 C   0  0  0  0  0  0  0  0  0  0  0  0
   -0.6530    2.1680    1.4860 C   0  0  0  0  0  0  0  0  0  0  0  0
    0.5010    1.5160    1.2720 N   0  0  0  0  0  0  0  0  0  0  0  0
    0.5300    0.2870    0.7360 C   0  0  0  0  0  0  0  0  0  0  0  0
    1.8060   -0.3470    0.5350 N   0  0  0  0  0  0  0  0  0  0  0  0
    3.0100    0.3120    0.8950 C   0  0  0  0  0  0  0  0  0  0  0  0
    4.1630    0.0290    0.3400 C   0  0  0  0  0  0  0  0  0  0  0  0
    5.4730    0.6430    0.6300 C   0  0  0  0  0  0  0  0  0  0  0  0
    6.3610    0.2930   -0.5670 C   0  0  0  0  0  0  0  0  0  0  0  0
    5.3960   -0.2620   -1.6090 C   0  0  0  0  0  0  0  0  0  0  0  0
    4.3910   -0.9820   -0.7100 C   0  0  0  0  0  0  0  0  0  0  0  0
   -0.6400   -0.3650    0.3810 C   0  0  0  0  0  0  0  0  0  0  0  0
   -1.8560    0.3060    0.6020 C   0  0  0  0  0  0  0  0  0  0  0  0
  1  2  1  0
  2  3  2  0
  2  4  1  0
  4  5  2  3
  5  6  1  0
  5 22  1  0
  6  7  1  0
  7  8  1  0
  8  9  2  0
  8 10  1  0
 10 11  2  0
 10 22  1  0
 11 12  1  0
 12 13  2  0
 13 14  1  0
 13 21  1  0
 14 15  1  0
 15 16  2  3
 16 17  1  0
 16 20  1  0
 17 18  1  0
 18 19  1  0
 19 20  1  0
 21 22  2  0
M  END
