
     RDKit          3D

 22 24  0  0  0  0  0  0  0  0999 V2000
   -1.9520   -1.2220   -0.6090 O   0  0  0  0  0  0  0  0  0  0  0  0
   -2.1020   -0.0210   -0.3510 C   0  0  0  0  0  0  0  0  0  0  0  0
   -1.0040    0.7500    0.0670 N   0  0  0  0  0  0  0  0  0  0  0  0
    0.3290    0.2640    0.2390 C   0  0  0  0  0  0  0  0  0  0  0  0
    0.5030   -0.7790    1.2510 C   0  0  0  0  0  0  0  0  0  0  0  0
   -0.4870   -1.2570    2.0160 C   0  0  0  0  0  0  0  0  0  0  0  0
    0.0490   -2.2810    2.9050 C   0  0  0  0  0  0  0  0  0  0  0  0
    1.3410   -2.4170    2.6750 C   0  0  0  0  0  0  0  0  0  0  0  0
    1.7100   -1.4660    1.6040 C   0  0  0  0  0  0  0  0  0  0  0  0
    2.8800   -1.3560    1.1580 N   0  0  0  0  0  0  0  0  0  0  0  0
    3.3910   -0.5230    0.1640 C   0  0  0  0  0  0  0  0  0  0  0  0
    3.8320    0.7600    0.4750 C   0  0  0  0  0  0  0  0  0  0  0  0
    4.3450    1.5800   -0.5070 C   0  0  0  0  0  0  0  0  0  0  0  0
    4.4160    1.1120   -1.8050 C   0  0  0  0  0  0  0  0  0  0  0  0
    3.9730   -0.1660   -2.0980 C   0  0  0  0  0  0  0  0  0  0  0  0
    3.4620   -0.9970   -1.1480 C   0  0  0  0  0  0  0  0  0  0  0  0
    3.0140   -2.2760   -1.4140 O   0  0  0  0  0  0  0  0  0  0  0  0
   -3.4480    0.5770   -0.4920 C   0  0  0  0  0  0  0  0  0  0  0  0
   -4.5490   -0.0110   -0.8660 C   0  0  0  0  0  0  0  0  0  0  0  0
   -5.6590    0.9670   -0.8650 C   0  0  0  0  0  0  0  0  0  0  0  0
   -5.0380    2.2310   -0.4290 C   0  0  0  0  0  0  0  0  0  0  0  0
   -3.7580    1.9740   -0.2200 C   0  0  0  0  0  0  0  0  0  0  0  0
  1  2  2  0
  2  3  1  0
  2 18  1  0
  3  4  1  0
  4  5  1  0
  5  6  2  0
  5  9  1  0
  6  7  1  0
  7  8  2  0
  8  9  1  0
  9 10  2  3
 10 11  1  0
 11 12  2  0
 11 16  1  0
 12 13  1  0
 13 14  2  0
 14 15  1  0
 15 16  2  0
 16 17  1  0
 18 19  2  0
 18 22  1  0
 19 20  1  0
 20 21  1  0
 21 22  2  0
M  END
