
     RDKit          3D

 25 28  0  0  0  0  0  0  0  0999 V2000
   -1.9240    3.6100    0.7900 C   0  0  0  0  0  0  0  0  0  0  0  0
   -1.2990    2.3090    0.4030 C   0  0  0  0  0  0  0  0  0  0  0  0
   -1.9400    1.1830   -0.0720 C   0  0  0  0  0  0  0  0  0  0  0  0
   -1.0040    0.1630   -0.3270 C   0  0  0  0  0  0  0  0  0  0  0  0
    0.1550    0.7040    0.0050 N   0  0  0  0  0  0  0  0  0  0  0  0
    0.0290    1.9890    0.4440 C   0  0  0  0  0  0  0  0  0  0  0  0
    1.1220    2.9190    0.8580 C   0  0  0  0  0  0  0  0  0  0  0  0
    2.1610    3.0700   -0.2100 C   0  0  0  0  0  0  0  0  0  0  0  0
    2.8580    1.9460   -0.6050 O   0  0  0  0  0  0  0  0  0  0  0  0
    2.6060    0.6060   -0.3740 C   0  0  0  0  0  0  0  0  0  0  0  0
    3.7050   -0.2260   -0.4510 C   0  0  0  0  0  0  0  0  0  0  0  0
    3.5560   -1.5770   -0.2320 C   0  0  0  0  0  0  0  0  0  0  0  0
    4.7350   -2.4450   -0.3190 C   0  0  0  0  0  0  0  0  0  0  0  0
    6.0080   -1.9020   -0.6260 N   0  0  0  0  0  0  0  0  0  0  0  0
    4.6150   -3.6760   -0.1210 O   0  0  0  0  0  0  0  0  0  0  0  0
    2.3080   -2.1330    0.0710 C   0  0  0  0  0  0  0  0  0  0  0  0
    1.1950   -1.3210    0.1540 C   0  0  0  0  0  0  0  0  0  0  0  0
    1.3890    0.0140   -0.0740 C   0  0  0  0  0  0  0  0  0  0  0  0
   -1.5440   -1.0430   -0.8810 C   0  0  0  0  0  0  0  0  0  0  0  0
   -2.7750   -1.4850   -0.0680 C   0  0  1  0  0  0  0  0  0  0  0  0
   -3.2920   -2.7600   -0.6990 C   0  0  0  0  0  0  0  0  0  0  0  0
   -2.4810   -1.7220    1.3620 C   0  0  0  0  0  0  0  0  0  0  0  0
   -3.8700   -0.4450   -0.1950 C   0  0  0  0  0  0  0  0  0  0  0  0
   -3.3450    0.9170   -0.3130 C   0  0  0  0  0  0  0  0  0  0  0  0
   -4.1190    1.8480   -0.6220 O   0  0  0  0  0  0  0  0  0  0  0  0
  1  2  1  0
  2  3  1  0
  2  6  2  0
  3  4  2  0
  3 24  1  0
  4  5  1  0
  4 19  1  0
  5  6  1  0
  5 18  1  0
  6  7  1  0
  7  8  1  0
  8  9  1  0
  9 10  1  0
 10 11  2  0
 10 18  1  0
 11 12  1  0
 12 13  1  0
 12 16  2  0
 13 14  1  0
 13 15  2  0
 16 17  1  0
 17 18  2  0
 19 20  1  0
 20 21  1  6
 20 22  1  0
 20 23  1  0
 23 24  1  0
 24 25  2  0
M  END
