
     RDKit          3D

 20 20  0  0  0  0  0  0  0  0999 V2000
    6.4940   -0.1940   -1.7120 C   0  0  0  0  0  0  0  0  0  0  0  0
    5.8080   -0.1500   -0.4760 O   0  0  0  0  0  0  0  0  0  0  0  0
    4.4050   -0.1920   -0.4220 C   0  0  0  0  0  0  0  0  0  0  0  0
    3.8340   -0.2680   -1.5220 O   0  0  0  0  0  0  0  0  0  0  0  0
    3.7010   -0.1480    0.8470 C   0  0  0  0  0  0  0  0  0  0  0  0
    2.1980   -0.1740    0.8110 C   0  0  2  0  0  0  0  0  0  0  0  0
    1.6600    0.8840    0.1260 O   0  0  0  0  0  0  0  0  0  0  0  0
    0.7700    0.5690   -0.8810 C   0  0  0  0  0  0  0  0  0  0  0  0
   -0.4740   -0.1550   -0.3680 C   0  0  2  0  0  0  0  0  0  0  0  0
   -1.3150   -0.4390   -1.5960 C   0  0  0  0  0  0  0  0  0  0  0  0
   -2.6830   -0.9370   -1.2780 C   0  0  0  0  0  0  0  0  0  0  0  0
   -3.3150   -0.1640   -0.1140 C   0  0  2  0  0  0  0  0  0  0  0  0
   -3.2060   -1.0490    1.1000 C   0  0  0  0  0  0  0  0  0  0  0  0
   -4.7830    0.0830   -0.3800 C   0  0  0  0  0  0  0  0  0  0  0  0
   -2.5270    1.1140    0.0110 C   0  0  1  0  0  0  0  0  0  0  0  0
   -3.2340    2.1250    0.7680 N   0  0  0  0  0  0  0  0  0  0  0  0
   -1.1840    0.7920    0.5710 C   0  0  0  0  0  0  0  0  0  0  0  0
    1.8150   -0.1110    2.2760 C   0  0  0  0  0  0  0  0  0  0  0  0
    2.2210   -1.1610    3.1050 N   0  0  0  0  0  0  0  0  0  0  0  0
    1.1700    0.8460    2.6830 O   0  0  0  0  0  0  0  0  0  0  0  0
  1  2  1  0
  2  3  1  0
  3  4  2  0
  3  5  1  0
  6  5  1  1
  6  7  1  0
  6 18  1  0
  7  8  1  0
  9  8  1  6
  9 10  1  0
  9 17  1  0
 10 11  1  0
 11 12  1  0
 12 13  1  1
 12 14  1  0
 12 15  1  0
 15 16  1  1
 15 17  1  0
 18 19  1  0
 18 20  2  0
M  CHG  1  16   1
M  END
