
     RDKit          3D

 20 20  0  0  0  0  0  0  0  0999 V2000
   -3.2150    3.0990   -1.0140 C   0  0  0  0  0  0  0  0  0  0  0  0
   -3.0860    1.6010   -1.1160 C   0  0  2  0  0  0  0  0  0  0  0  0
   -3.8430    1.1290   -2.3130 C   0  0  0  0  0  0  0  0  0  0  0  0
   -3.6190    0.8800    0.1050 C   0  0  0  0  0  0  0  0  0  0  0  0
   -2.9760   -0.4980   -0.1000 C   0  0  0  0  0  0  0  0  0  0  0  0
   -1.7050   -0.1290   -0.8180 C   0  0  2  0  0  0  0  0  0  0  0  0
   -1.5990   -0.9060   -2.1270 C   0  0  0  0  0  0  0  0  0  0  0  0
   -0.5520   -0.5130    0.0950 C   0  0  0  0  0  0  0  0  0  0  0  0
    0.7700   -0.2110   -0.4880 C   0  0  1  0  0  0  0  0  0  0  0  0
    0.9410    1.1270   -0.7420 O   0  0  0  0  0  0  0  0  0  0  0  0
    1.9580   -0.7410    0.3510 C   0  0  1  0  0  0  0  0  0  0  0  0
    1.7290   -2.0710    0.5870 O   0  0  0  0  0  0  0  0  0  0  0  0
    3.1540   -0.4960   -0.5060 C   0  0  0  0  0  0  0  0  0  0  0  0
    4.4030   -1.0060   -0.0130 N   0  0  0  0  0  0  0  0  0  0  0  0
    2.0460    0.0310    1.6410 C   0  0  0  0  0  0  0  0  0  0  0  0
    2.8690   -0.3850    2.5000 O   0  0  0  0  0  0  0  0  0  0  0  0
    3.6720   -0.7900    3.3390 C   0  0  0  0  0  0  0  0  0  0  0  0
    4.3930   -2.0820    3.0570 C   0  0  0  0  0  0  0  0  0  0  0  0
    4.9580   -3.0640    2.8550 N   0  0  0  0  0  0  0  0  0  0  0  0
   -1.7560    1.2040   -1.1140 O   0  0  0  0  0  0  0  0  0  0  0  0
  2  1  1  1
  2  3  1  0
  2  4  1  0
  2 20  1  0
  4  5  1  0
  5  6  1  0
  6  7  1  6
  6  8  1  0
  6 20  1  0
  8  9  1  0
  9 10  1  1
  9 11  1  0
 11 12  1  1
 11 13  1  0
 11 15  1  0
 13 14  1  0
 15 16  1  0
 16 17  1  0
 17 18  1  0
 18 19  3  0
M  CHG  1  14   1
M  END
