
     RDKit          3D

 20 20  0  0  0  0  0  0  0  0999 V2000
   -2.4030    3.7890   -0.7940 C   0  0  0  0  0  0  0  0  0  0  0  0
   -2.8300    2.3370   -0.7790 C   0  0  0  0  0  0  0  0  0  0  0  0
   -1.8970    1.5220    0.1240 C   0  0  2  0  0  0  0  0  0  0  0  0
   -0.4950    1.7010   -0.5130 C   0  0  0  0  0  0  0  0  0  0  0  0
    0.5410    0.9660    0.2450 C   0  0  0  0  0  0  0  0  0  0  0  0
    1.1800   -0.2320   -0.2870 C   0  0  2  0  0  0  0  0  0  0  0  0
    2.5770   -0.0370   -0.4210 O   0  0  0  0  0  0  0  0  0  0  0  0
    3.3190   -0.8340    0.4100 C   0  0  0  0  0  0  0  0  0  0  0  0
    4.7840   -0.6020    0.2410 C   0  0  0  0  0  0  0  0  0  0  0  0
    5.1320    0.8190    0.5490 C   0  0  0  0  0  0  0  0  0  0  0  0
    6.4880    1.0750    0.4040 O   0  0  0  0  0  0  0  0  0  0  0  0
    0.6910   -0.8830   -1.5280 C   0  0  0  0  0  0  0  0  0  0  0  0
    0.2790   -2.3490   -1.3240 C   0  0  0  0  0  0  0  0  0  0  0  0
   -1.0740   -2.5300   -1.1760 O   0  0  0  0  0  0  0  0  0  0  0  0
   -1.4500   -2.9850    0.0630 C   0  0  0  0  0  0  0  0  0  0  0  0
   -2.8170   -2.6780    0.5270 C   0  0  0  0  0  0  0  0  0  0  0  0
   -3.5040   -1.6690   -0.0600 O   0  0  0  0  0  0  0  0  0  0  0  0
   -3.3430   -0.4080    0.5660 C   0  0  1  0  0  0  0  0  0  0  0  0
   -3.1500   -0.5600    1.9930 N   0  0  0  0  0  0  0  0  0  0  0  0
   -2.1550    0.1310    0.0040 N   0  0  0  0  0  0  0  0  0  0  0  0
  1  2  1  0
  3  2  1  6
  3  4  1  0
  3 20  1  0
  4  5  1  0
  5  6  1  0
  6  7  1  6
  6 12  1  0
  7  8  1  0
  8  9  1  0
  9 10  1  0
 10 11  1  0
 12 13  1  0
 13 14  1  0
 14 15  1  0
 15 16  1  0
 16 17  1  0
 17 18  1  0
 18 19  1  1
 18 20  1  0
M  CHG  1  20   1
M  END
