
     RDKit          3D

 20 20  0  0  0  0  0  0  0  0999 V2000
   -4.5220    1.5240   -1.0230 C   0  0  0  0  0  0  0  0  0  0  0  0
   -3.2570    1.2420   -0.2400 C   0  0  2  0  0  0  0  0  0  0  0  0
   -3.6460    0.9570    1.1770 C   0  0  0  0  0  0  0  0  0  0  0  0
   -2.4210    2.5080   -0.2870 C   0  0  0  0  0  0  0  0  0  0  0  0
   -2.5260    0.1030   -0.9020 C   0  0  0  0  0  0  0  0  0  0  0  0
   -1.2310   -0.2300   -0.1520 C   0  0  0  0  0  0  0  0  0  0  0  0
   -0.5730   -1.3570   -0.8720 C   0  0  2  0  0  0  0  0  0  0  0  0
   -1.5610   -2.4580   -0.8210 N   0  0  0  0  0  0  0  0  0  0  0  0
    0.6550   -1.9140   -0.2260 C   0  0  2  0  0  0  0  0  0  0  0  0
    0.4700   -2.2740    1.0900 O   0  0  0  0  0  0  0  0  0  0  0  0
    1.3610   -3.3400    1.3330 C   0  0  0  0  0  0  0  0  0  0  0  0
    2.7470   -2.9990    0.8840 C   0  0  0  0  0  0  0  0  0  0  0  0
    2.9030   -1.7310    0.4020 O   0  0  0  0  0  0  0  0  0  0  0  0
    1.9310   -1.2270   -0.4010 C   0  0  2  0  0  0  0  0  0  0  0  0
    1.9280    0.2780   -0.2330 C   0  0  0  0  0  0  0  0  0  0  0  0
    3.3190    0.8210   -0.4320 C   0  0  0  0  0  0  0  0  0  0  0  0
    4.2930    0.0720   -0.6980 O   0  0  0  0  0  0  0  0  0  0  0  0
    3.5820    2.2130   -0.3260 N   0  0  0  0  0  0  0  0  0  0  0  0
    4.9150    2.7600   -0.5150 C   0  0  0  0  0  0  0  0  0  0  0  0
    4.9360    4.1330   -0.3660 O   0  0  0  0  0  0  0  0  0  0  0  0
  2  1  1  6
  2  3  1  0
  2  4  1  0
  2  5  1  0
  5  6  1  0
  6  7  1  0
  7  8  1  1
  7  9  1  0
  9 10  1  1
  9 14  1  0
 10 11  1  0
 11 12  1  0
 12 13  1  0
 13 14  1  0
 14 15  1  1
 15 16  1  0
 16 17  2  0
 16 18  1  0
 18 19  1  0
 19 20  1  0
M  CHG  1   8   1
M  END
