
     RDKit          3D

 28 28  0  0  0  0  0  0  0  0999 V2000
    0.5140    2.7820    0.3550 C   0  0  0  0  0  0  0  0  0  0  0  0
    0.8160    1.3190    0.1880 C   0  0  1  0  0  0  0  0  0  0  0  0
    0.7870    0.6830    1.5690 C   0  0  0  0  0  0  0  0  0  0  0  0
   -0.2320    0.6260   -0.6490 C   0  0  0  0  0  0  0  0  0  0  0  0
   -1.5070    0.7660    0.0030 N   0  0  0  0  0  0  0  0  0  0  0  0
   -2.7120    0.2190   -0.5350 C   0  0  0  0  0  0  0  0  0  0  0  0
   -2.6350   -0.4010   -1.6150 O   0  0  0  0  0  0  0  0  0  0  0  0
   -3.9580    0.4290    0.2260 C   0  0  0  0  0  0  0  0  0  0  0  0
   -5.0770   -0.1540   -0.4020 O   0  0  0  0  0  0  0  0  0  0  0  0
   -6.3150   -0.0500    0.1780 C   0  0  0  0  0  0  0  0  0  0  0  0
   -6.4180    0.5690    1.2660 O   0  0  0  0  0  0  0  0  0  0  0  0
   -7.5270   -0.6190   -0.3960 C   0  0  0  0  0  0  0  0  0  0  0  0
   -7.5030   -1.2880   -1.5420 C   0  0  0  0  0  0  0  0  0  0  0  0
   -6.2890   -1.4310   -2.1800 O   0  0  0  0  0  0  0  0  0  0  0  0
   -8.7560   -0.4840    0.2340 O   0  0  0  0  0  0  0  0  0  0  0  0
   -9.3730   -1.5320    0.8980 N   0  0  0  0  0  0  0  0  0  0  0  0
    2.1490    1.0870   -0.4910 C   0  0  0  0  0  0  0  0  0  0  0  0
    3.1900    1.6480    0.2540 O   0  0  0  0  0  0  0  0  0  0  0  0
    4.3410    1.4580   -0.3170 O   0  0  0  0  0  0  0  0  0  0  0  0
    4.5210   -0.1610   -0.8770 S   0  0  0  0  0  0  0  0  0  0  0  0
    6.1360   -0.7000   -0.4700 N   0  0  0  0  0  0  0  0  0  0  0  0
    6.4040   -1.5860    0.4130 C   0  0  0  0  0  0  0  0  0  0  0  0
    5.3940   -2.2220    1.1560 O   0  0  0  0  0  0  0  0  0  0  0  0
    3.8110   -2.3160    0.4550 Cl  0  0  0  0  0  0  0  0  0  0  0  0
    7.7420   -1.9050    0.6200 O   0  0  0  0  0  0  0  0  0  0  0  0
    8.7270   -1.6970   -0.2950 N   0  0  0  0  0  0  0  0  0  0  0  0
    9.2370   -0.4480   -0.6270 C   0  0  0  0  0  0  0  0  0  0  0  0
    9.9310   -1.1750    0.4210 N   0  0  0  0  0  0  0  0  0  0  0  0
  2  1  1  1
  2  3  1  0
  2  4  1  0
  2 17  1  0
  4  5  1  0
  5  6  1  0
  6  7  2  0
  6  8  1  0
  8  9  1  0
  9 10  1  0
 10 11  2  0
 10 12  1  0
 12 13  2  3
 12 15  1  0
 13 14  1  0
 15 16  1  0
 17 18  1  0
 18 19  1  0
 19 20  1  0
 20 21  1  0
 21 22  2  3
 22 23  1  0
 22 25  1  0
 23 24  1  0
 25 26  1  0
 26 27  1  0
 26 28  1  0
 27 28  1  0
M  END
