
     RDKit          3D

 29 28  0  0  0  0  0  0  0  0999 V2000
    0.0880    1.6100   -3.9720 C   0  0  0  0  0  0  0  0  0  0  0  0
    1.3610    1.7110   -3.4680 O   0  0  0  0  0  0  0  0  0  0  0  0
    1.7190    0.5090   -2.8360 C   0  0  0  0  0  0  0  0  0  0  0  0
    0.8300    0.2310   -1.7430 C   0  0  0  0  0  0  0  0  0  0  0  0
    1.0430    0.0810   -0.4430 C   0  0  0  0  0  0  0  0  0  0  0  0
    2.3830    0.2010    0.0820 C   0  0  0  0  0  0  0  0  0  0  0  0
    3.3990    0.4990   -0.6330 O   0  0  0  0  0  0  0  0  0  0  0  0
    2.7260   -0.0070    1.4590 N   0  0  0  0  0  0  0  0  0  0  0  0
    4.0750    0.1390    1.8860 N   0  0  0  0  0  0  0  0  0  0  0  0
    4.8820   -1.4000    1.7870 S   0  0  1  0  0  0  0  0  0  0  0  0
    4.2540   -2.1360    0.6520 O   0  0  0  0  0  0  0  0  0  0  0  0
    6.3400   -1.1970    1.5350 O   0  0  0  0  0  0  0  0  0  0  0  0
    4.6950   -2.2290    3.2560 O   0  0  0  0  0  0  0  0  0  0  0  0
   -0.0490   -0.2110    0.4490 C   0  0  0  0  0  0  0  0  0  0  0  0
   -1.2090   -0.3610   -0.1940 C   0  0  0  0  0  0  0  0  0  0  0  0
   -2.2830   -0.7770   -0.8110 C   0  0  0  0  0  0  0  0  0  0  0  0
   -2.4520   -2.1360   -0.9140 N   0  0  0  0  0  0  0  0  0  0  0  0
   -3.0790    0.2680   -1.2680 N   0  0  0  0  0  0  0  0  0  0  0  0
   -4.2180   -0.1100   -1.9460 O   0  0  0  0  0  0  0  0  0  0  0  0
   -4.9640   -0.9990   -1.2070 C   0  0  0  0  0  0  0  0  0  0  0  0
   -2.8560    1.6490   -1.1320 C   0  0  0  0  0  0  0  0  0  0  0  0
   -1.8360    2.0580   -0.5500 O   0  0  0  0  0  0  0  0  0  0  0  0
   -3.9980    2.7920   -1.7750 Cl  0  0  0  0  0  0  0  0  0  0  0  0
   -0.1710   -0.3710    1.7620 O   0  0  0  0  0  0  0  0  0  0  0  0
   -0.4710    0.6410    2.6950 C   0  0  0  0  0  0  0  0  0  0  0  0
   -0.6330    1.7950    2.2350 O   0  0  0  0  0  0  0  0  0  0  0  0
   -0.5830    0.3500    4.1150 C   0  0  0  0  0  0  0  0  0  0  0  0
   -0.8680    1.4000    5.0200 N   0  0  0  0  0  0  0  0  0  0  0  0
   -0.4340   -0.8050    4.5880 O   0  0  0  0  0  0  0  0  0  0  0  0
  1  2  1  0
  2  3  1  0
  3  4  1  0
  4  5  2  3
  5  6  1  0
  5 14  1  0
  6  7  2  0
  6  8  1  0
  8  9  1  0
  9 10  1  0
 10 11  2  0
 10 12  2  0
 10 13  1  1
 14 15  2  0
 14 24  1  0
 15 16  2  0
 16 17  1  0
 16 18  1  0
 18 19  1  0
 18 21  1  0
 19 20  1  0
 21 22  2  0
 21 23  1  0
 24 25  1  0
 25 26  2  0
 25 27  1  0
 27 28  1  0
 27 29  2  0
M  END
