
     RDKit          3D

 33 36  0  0  0  0  0  0  0  0999 V2000
    7.9100    2.4700    1.6230 C   0  0  0  0  0  0  0  0  0  0  0  0
    7.2210    1.9720    0.6340 C   0  0  0  0  0  0  0  0  0  0  0  0
    6.0010    1.1790    0.9070 C   0  0  0  0  0  0  0  0  0  0  0  0
    4.9230    1.8170    0.2940 O   0  0  0  0  0  0  0  0  0  0  0  0
    3.6160    1.4100    0.3050 C   0  0  0  0  0  0  0  0  0  0  0  0
    3.2560    0.2670    0.9650 C   0  0  0  0  0  0  0  0  0  0  0  0
    1.9270   -0.1710    0.9920 C   0  0  0  0  0  0  0  0  0  0  0  0
    0.9550    0.5560    0.3420 C   0  0  0  0  0  0  0  0  0  0  0  0
   -0.4510    0.1410    0.3310 C   0  0  0  0  0  0  0  0  0  0  0  0
   -1.4940    0.9870    0.5850 N   0  0  0  0  0  0  0  0  0  0  0  0
   -2.6490    0.3080    0.4940 C   0  0  0  0  0  0  0  0  0  0  0  0
   -3.9620    0.9060    0.7050 C   0  0  0  0  0  0  0  0  0  0  0  0
   -4.0860    2.2420    1.0210 C   0  0  0  0  0  0  0  0  0  0  0  0
   -5.3130    2.8140    1.2210 C   0  0  0  0  0  0  0  0  0  0  0  0
   -6.4830    2.0920    1.1190 C   0  0  0  0  0  0  0  0  0  0  0  0
   -7.7220    2.7000    1.3290 O   0  0  0  0  0  0  0  0  0  0  0  0
   -6.3470    0.7560    0.8030 C   0  0  0  0  0  0  0  0  0  0  0  0
   -7.4960   -0.0040    0.6910 O   0  0  0  0  0  0  0  0  0  0  0  0
   -5.1270    0.1640    0.5990 C   0  0  0  0  0  0  0  0  0  0  0  0
   -2.3660   -0.9730    0.1830 N   0  0  0  0  0  0  0  0  0  0  0  0
   -1.0250   -1.0810    0.0820 C   0  0  0  0  0  0  0  0  0  0  0  0
   -0.2810   -2.2600   -0.2360 N   0  0  0  0  0  0  0  0  0  0  0  0
   -0.9970   -3.4920   -0.4830 C   0  0  1  0  0  0  0  0  0  0  0  0
   -1.8730   -3.2850   -1.6910 C   0  0  0  0  0  0  0  0  0  0  0  0
   -1.2130   -4.0830   -2.7840 C   0  0  0  0  0  0  0  0  0  0  0  0
   -0.5910   -5.2410   -2.0570 C   0  0  0  0  0  0  0  0  0  0  0  0
   -0.0140   -4.5780   -0.8160 C   0  0  0  0  0  0  0  0  0  0  0  0
    1.3650    1.7030   -0.3110 C   0  0  0  0  0  0  0  0  0  0  0  0
    2.6650    2.1470   -0.3470 C   0  0  0  0  0  0  0  0  0  0  0  0
    3.0260    3.3540   -1.0480 N   0  0  0  0  0  0  0  0  0  0  0  0
    2.9470    4.4830   -0.2250 C   0  0  0  0  0  0  0  0  0  0  0  0
    2.5730    5.5950   -0.6600 O   0  0  0  0  0  0  0  0  0  0  0  0
    3.2870    4.3840    1.1120 O   0  0  0  0  0  0  0  0  0  0  0  0
  1  2  2  0
  2  3  1  0
  3  4  1  0
  4  5  1  0
  5  6  2  0
  5 29  1  0
  6  7  1  0
  7  8  2  0
  8  9  1  0
  8 28  1  0
  9 10  1  0
  9 21  2  0
 10 11  2  0
 11 12  1  0
 11 20  1  0
 12 13  2  0
 12 19  1  0
 13 14  1  0
 14 15  2  0
 15 16  1  0
 15 17  1  0
 17 18  1  0
 17 19  2  0
 20 21  1  0
 21 22  1  0
 23 22  1  6
 23 24  1  0
 23 27  1  0
 24 25  1  0
 25 26  1  0
 26 27  1  0
 28 29  2  0
 29 30  1  0
 30 31  1  0
 31 32  2  0
 31 33  1  0
M  CHG  2  30   1  33  -1
M  END
