
     RDKit          3D

 32 33  0  0  0  0  0  0  0  0999 V2000
    6.3740    0.3230    1.6630 O   0  0  0  0  0  0  0  0  0  0  0  0
    5.7240   -0.5230    2.2920 C   0  0  0  0  0  0  0  0  0  0  0  0
    6.4440   -1.4750    3.0090 O   0  0  0  0  0  0  0  0  0  0  0  0
    4.2260   -0.5940    2.3360 C   0  0  2  0  0  0  0  0  0  0  0  0
    3.8220   -1.8650    1.6500 C   0  0  0  0  0  0  0  0  0  0  0  0
    3.6220   -1.4690    0.3420 O   0  0  0  0  0  0  0  0  0  0  0  0
    2.9710   -0.2070    0.4430 C   0  0  2  0  0  0  0  0  0  0  0  0
    1.5230   -0.5090    0.5470 C   0  0  0  0  0  0  0  0  0  0  0  0
    0.5780    0.6240    0.6530 C   0  0  1  0  0  0  0  0  0  0  0  0
    0.8210    1.4010    1.7740 O   0  0  0  0  0  0  0  0  0  0  0  0
    0.5040    1.5170   -0.5410 C   0  0  0  0  0  0  0  0  0  0  0  0
    0.1980    0.8290   -1.8290 C   0  0  0  0  0  0  0  0  0  0  0  0
   -0.5000   -0.3420   -1.5320 O   0  0  0  0  0  0  0  0  0  0  0  0
   -1.4560   -0.0760   -0.5500 C   0  0  1  0  0  0  0  0  0  0  0  0
   -2.3820   -1.0880   -0.5180 O   0  0  0  0  0  0  0  0  0  0  0  0
   -3.6440   -0.6540   -0.8400 C   0  0  0  0  0  0  0  0  0  0  0  0
   -4.1670    0.3840    0.1100 C   0  0  2  0  0  0  0  0  0  0  0  0
   -4.2010   -0.1790    1.3860 O   0  0  0  0  0  0  0  0  0  0  0  0
   -5.6100    0.6810   -0.3560 C   0  0  0  0  0  0  0  0  0  0  0  0
   -6.2530   -0.5180   -0.3600 O   0  0  0  0  0  0  0  0  0  0  0  0
   -7.5480   -0.5450   -0.7700 C   0  0  0  0  0  0  0  0  0  0  0  0
   -8.4840    0.2820    0.0430 C   0  0  0  0  0  0  0  0  0  0  0  0
   -8.2010    1.6260    0.0760 O   0  0  0  0  0  0  0  0  0  0  0  0
   -0.8200    0.0080    0.8280 C   0  0  1  0  0  0  0  0  0  0  0  0
   -0.6950   -1.2600    1.3760 O   0  0  0  0  0  0  0  0  0  0  0  0
    3.3040    0.4700   -0.7280 O   0  0  0  0  0  0  0  0  0  0  0  0
    4.6000    0.6140   -0.8260 O   0  0  0  0  0  0  0  0  0  0  0  0
    4.9120    0.6010   -2.1890 C   0  0  0  0  0  0  0  0  0  0  0  0
    6.4240    0.7700   -2.2850 C   0  0  2  0  0  0  0  0  0  0  0  0
    6.9970   -0.2900   -1.6140 O   0  0  0  0  0  0  0  0  0  0  0  0
    6.7530    1.9430   -1.5970 O   0  0  0  0  0  0  0  0  0  0  0  0
    3.5930    0.4290    1.5480 N   0  0  0  0  0  0  0  0  0  0  0  0
  1  2  2  0
  2  3  1  0
  4  2  1  6
  4  5  1  0
  4 32  1  0
  5  6  1  0
  6  7  1  0
  7  8  1  1
  7 26  1  0
  7 32  1  0
  8  9  1  0
  9 10  1  1
  9 11  1  0
  9 24  1  0
 11 12  1  0
 12 13  1  0
 13 14  1  0
 14 15  1  1
 14 24  1  0
 15 16  1  0
 16 17  1  0
 17 18  1  1
 17 19  1  0
 19 20  1  0
 20 21  1  0
 21 22  1  0
 22 23  1  0
 24 25  1  6
 26 27  1  0
 27 28  1  0
 28 29  1  0
 29 30  1  1
 29 31  1  0
M  END
