
     RDKit          3D

 31 31  0  0  0  0  0  0  0  0999 V2000
   -3.1640   -5.3580    1.3730 N   0  0  0  0  0  0  0  0  0  0  0  0
   -2.4800   -4.1750    1.4980 O   0  0  0  0  0  0  0  0  0  0  0  0
   -3.0710   -2.9990    1.0350 C   0  0  0  0  0  0  0  0  0  0  0  0
   -4.2150   -3.1130    0.5260 O   0  0  0  0  0  0  0  0  0  0  0  0
   -2.3520   -1.6830    1.1520 C   0  0  0  0  0  0  0  0  0  0  0  0
   -1.3720   -1.6490   -0.0400 C   0  0  1  0  0  0  0  0  0  0  0  0
   -2.2140   -1.7220   -1.2260 C   0  0  0  0  0  0  0  0  0  0  0  0
   -1.7390   -1.7040   -2.4860 O   0  0  0  0  0  0  0  0  0  0  0  0
   -0.2550   -0.6960    0.1030 C   0  0  1  0  0  0  0  0  0  0  0  0
    0.3830   -1.1270    1.3150 O   0  0  0  0  0  0  0  0  0  0  0  0
    0.8070   -1.0180   -0.9210 C   0  0  0  0  0  0  0  0  0  0  0  0
    1.7270   -2.1620   -0.5470 C   0  0  0  0  0  0  0  0  0  0  0  0
    2.7800   -1.8620    0.2580 O   0  0  0  0  0  0  0  0  0  0  0  0
    3.9680   -1.5170   -0.3230 C   0  0  0  0  0  0  0  0  0  0  0  0
    4.1940   -0.0300   -0.1830 C   0  0  2  0  0  0  0  0  0  0  0  0
    5.5190    0.1670   -0.6590 O   0  0  0  0  0  0  0  0  0  0  0  0
    4.0690    0.4950    1.2220 C   0  0  0  0  0  0  0  0  0  0  0  0
    3.8210    1.8440    1.2890 O   0  0  0  0  0  0  0  0  0  0  0  0
    2.5390    2.2050    1.7030 C   0  0  0  0  0  0  0  0  0  0  0  0
    1.5870    1.5620    0.7120 C   0  0  0  0  0  0  0  0  0  0  0  0
    0.2890    1.4700    1.1110 O   0  0  0  0  0  0  0  0  0  0  0  0
   -0.5570    0.7270    0.3490 C   0  0  2  0  0  0  0  0  0  0  0  0
   -1.7390    0.7180    1.1470 O   0  0  0  0  0  0  0  0  0  0  0  0
   -0.9380    1.5220   -0.8640 C   0  0  0  0  0  0  0  0  0  0  0  0
   -1.2440    2.9500   -0.5570 C   0  0  2  0  0  0  0  0  0  0  0  0
   -0.2470    3.6940    0.0110 O   0  0  0  0  0  0  0  0  0  0  0  0
   -2.4880    3.1450    0.3050 C   0  0  0  0  0  0  0  0  0  0  0  0
   -2.8820    4.4810    0.3180 O   0  0  0  0  0  0  0  0  0  0  0  0
   -1.6340    3.6140   -1.8750 C   0  0  0  0  0  0  0  0  0  0  0  0
   -1.0520    4.6550   -2.2440 O   0  0  0  0  0  0  0  0  0  0  0  0
   -2.6270    3.0840   -2.6810 O   0  0  0  0  0  0  0  0  0  0  0  0
  1  2  1  0
  2  3  1  0
  3  4  2  0
  3  5  1  0
  6  5  1  1
  6  7  1  0
  6  9  1  0
  7  8  1  0
  9 10  1  1
  9 11  1  0
  9 22  1  0
 11 12  1  0
 12 13  1  0
 13 14  1  0
 14 15  1  0
 15 16  1  1
 15 17  1  0
 17 18  1  0
 18 19  1  0
 19 20  1  0
 20 21  1  0
 21 22  1  0
 22 23  1  1
 22 24  1  0
 24 25  1  0
 25 26  1  1
 25 27  1  0
 25 29  1  0
 27 28  1  0
 29 30  2  0
 29 31  1  0
M  END
