
     RDKit          3D

 31 32  0  0  0  0  0  0  0  0999 V2000
    2.7620    0.9190   -1.6600 O   0  0  0  0  0  0  0  0  0  0  0  0
    3.4760    1.2460   -0.6780 C   0  0  0  0  0  0  0  0  0  0  0  0
    2.8950    2.0320    0.4350 C   0  0  0  0  0  0  0  0  0  0  0  0
    1.4980    2.2940    0.1510 N   0  0  0  0  0  0  0  0  0  0  0  0
    0.5370    1.2610   -0.0340 C   0  0  0  0  0  0  0  0  0  0  0  0
    0.9530    0.0750    0.0590 O   0  0  0  0  0  0  0  0  0  0  0  0
   -0.9110    1.5620   -0.3290 C   0  0  2  0  0  0  0  0  0  0  0  0
   -1.0350    2.9240   -0.3650 O   0  0  0  0  0  0  0  0  0  0  0  0
   -1.7200    0.8390    0.6790 C   0  0  1  0  0  0  0  0  0  0  0  0
   -1.3500    1.3310    1.9530 O   0  0  0  0  0  0  0  0  0  0  0  0
   -3.1790    0.7650    0.4950 C   0  0  2  0  0  0  0  0  0  0  0  0
   -3.9520    2.0260    0.4440 C   0  0  0  0  0  0  0  0  0  0  0  0
   -3.6230    2.9050   -0.5660 O   0  0  0  0  0  0  0  0  0  0  0  0
   -3.7430   -0.0460    1.6710 C   0  0  0  0  0  0  0  0  0  0  0  0
   -5.0430   -0.4610    1.3980 O   0  0  0  0  0  0  0  0  0  0  0  0
   -4.9900   -1.2760    0.2560 C   0  0  1  0  0  0  0  0  0  0  0  0
   -6.3150   -2.0010    0.1770 C   0  0  2  0  0  0  0  0  0  0  0  0
   -6.4740   -2.7620    1.3330 O   0  0  0  0  0  0  0  0  0  0  0  0
   -6.3980   -2.8950   -1.0310 C   0  0  0  0  0  0  0  0  0  0  0  0
   -7.6680   -3.4970   -1.0000 O   0  0  0  0  0  0  0  0  0  0  0  0
   -4.7940   -0.4320   -0.8300 O   0  0  0  0  0  0  0  0  0  0  0  0
   -3.4800    0.0010   -0.8040 C   0  0  0  0  0  0  0  0  0  0  0  0
    4.7990    0.8360   -0.7060 O   0  0  0  0  0  0  0  0  0  0  0  0
    5.3570    0.0890   -1.7600 C   0  0  1  0  0  0  0  0  0  0  0  0
    6.4700    0.8160   -2.2230 O   0  0  0  0  0  0  0  0  0  0  0  0
    7.2490    0.8910   -1.0580 C   0  0  0  0  0  0  0  0  0  0  0  0
    7.1900   -0.4740   -0.4250 C   0  0  0  0  0  0  0  0  0  0  0  0
    6.0420   -1.1260   -1.1720 C   0  0  2  0  0  0  0  0  0  0  0  0
    6.5880   -1.9400   -2.1450 O   0  0  0  0  0  0  0  0  0  0  0  0
    5.1270   -1.8800   -0.2340 C   0  0  0  0  0  0  0  0  0  0  0  0
    5.8460   -2.8820    0.3980 O   0  0  0  0  0  0  0  0  0  0  0  0
  1  2  2  0
  2  3  1  0
  2 23  1  0
  3  4  1  0
  4  5  1  0
  5  6  2  0
  5  7  1  0
  7  8  1  1
  7  9  1  0
  9 10  1  1
  9 11  1  0
 11 12  1  6
 11 14  1  0
 11 22  1  0
 12 13  1  0
 14 15  1  0
 16 15  1  1
 16 17  1  0
 16 21  1  0
 17 18  1  1
 17 19  1  0
 19 20  1  0
 21 22  1  0
 24 23  1  1
 24 25  1  0
 24 28  1  0
 25 26  1  0
 26 27  1  0
 27 28  1  0
 28 29  1  6
 28 30  1  0
 30 31  1  0
M  END
