
     RDKit          3D

 33 36  0  0  0  0  0  0  0  0999 V2000
   -6.4240   -1.4110   -0.3640 C   0  0  0  0  0  0  0  0  0  0  0  0
   -5.1970   -1.2030   -1.1510 C   0  0  0  0  0  0  0  0  0  0  0  0
   -5.0370   -1.7550   -2.4030 C   0  0  0  0  0  0  0  0  0  0  0  0
   -3.8800   -1.5600   -3.1410 C   0  0  0  0  0  0  0  0  0  0  0  0
   -3.7110   -2.1230   -4.4340 N   0  0  0  0  0  0  0  0  0  0  0  0
   -2.8550   -0.7980   -2.6230 C   0  0  0  0  0  0  0  0  0  0  0  0
   -1.6540   -0.5660   -3.4170 C   0  0  0  0  0  0  0  0  0  0  0  0
   -0.6020    0.0960   -2.8020 N   0  0  0  0  0  0  0  0  0  0  0  0
    0.1780   -0.6530   -1.7420 C   0  0  0  0  0  0  0  0  0  0  0  0
   -0.1490   -1.7690   -1.5580 O   0  0  0  0  0  0  0  0  0  0  0  0
    1.1420    0.2010   -1.2060 N   0  0  0  0  0  0  0  0  0  0  0  0
    1.9080   -0.9500   -0.1490 C   0  0  0  0  0  0  0  0  0  0  0  0
    1.3950   -1.9890   -0.1580 O   0  0  0  0  0  0  0  0  0  0  0  0
    3.0220   -0.3940    0.5230 C   0  0  0  0  0  0  0  0  0  0  0  0
    4.2800   -0.4900   -0.0920 C   0  0  0  0  0  0  0  0  0  0  0  0
    5.4300    0.0050    0.4640 C   0  0  0  0  0  0  0  0  0  0  0  0
    6.7560   -0.1220   -0.2300 C   0  0  0  0  0  0  0  0  0  0  0  0
    5.3680    0.6320    1.6890 C   0  0  0  0  0  0  0  0  0  0  0  0
    4.1590    0.7480    2.3240 C   0  0  0  0  0  0  0  0  0  0  0  0
    2.9990    0.2370    1.7410 C   0  0  0  0  0  0  0  0  0  0  0  0
    4.4250    1.4610    3.6060 C   0  0  0  0  0  0  0  0  0  0  0  0
    5.8990    1.1050    3.8390 C   0  0  0  0  0  0  0  0  0  0  0  0
    6.3710    1.2280    2.4880 O   0  0  0  0  0  0  0  0  0  0  0  0
   -3.0050   -0.2410   -1.3790 C   0  0  0  0  0  0  0  0  0  0  0  0
   -2.0030    0.5280   -0.8610 O   0  0  0  0  0  0  0  0  0  0  0  0
   -2.0890    1.1800    0.3270 C   0  0  0  0  0  0  0  0  0  0  0  0
   -1.1770    0.8420    1.3380 C   0  0  0  0  0  0  0  0  0  0  0  0
   -1.2120    1.4720    2.5640 C   0  0  0  0  0  0  0  0  0  0  0  0
   -2.1130    2.4360    2.8570 N   0  0  0  0  0  0  0  0  0  0  0  0
   -2.9930    2.7720    1.9030 C   0  0  0  0  0  0  0  0  0  0  0  0
   -2.9860    2.1680    0.6780 C   0  0  0  0  0  0  0  0  0  0  0  0
   -3.9140    2.5420   -0.2970 O   0  0  0  0  0  0  0  0  0  0  0  0
   -4.1720   -0.4380   -0.6310 C   0  0  0  0  0  0  0  0  0  0  0  0
  1  2  1  0
  2  3  2  0
  2 33  1  0
  3  4  1  0
  4  5  1  0
  4  6  2  0
  6  7  1  0
  6 24  1  0
  7  8  1  0
  8  9  1  0
  9 10  2  0
  9 11  1  0
 11 12  1  0
 12 13  2  0
 12 14  1  0
 14 15  2  0
 14 20  1  0
 15 16  1  0
 16 17  1  0
 16 18  2  0
 18 19  1  0
 18 23  1  0
 19 20  2  0
 19 21  1  0
 21 22  1  0
 22 23  1  0
 24 25  1  0
 24 33  2  0
 25 26  1  0
 26 27  2  0
 26 31  1  0
 27 28  1  0
 28 29  2  0
 29 30  1  0
 30 31  2  0
 31 32  1  0
M  CHG  2  29   1  32  -1
M  END
