
     RDKit          3D

 31 33  0  0  0  0  0  0  0  0999 V2000
    6.9490   -2.5000   -0.0040 O   0  0  0  0  0  0  0  0  0  0  0  0
    6.3560   -1.6260    0.6930 C   0  0  0  0  0  0  0  0  0  0  0  0
    6.9820   -1.2450    1.8740 O   0  0  0  0  0  0  0  0  0  0  0  0
    5.0850   -1.0290    0.3130 C   0  0  0  0  0  0  0  0  0  0  0  0
    4.5340   -0.0710    1.1280 C   0  0  0  0  0  0  0  0  0  0  0  0
    3.3400    0.5430    0.8350 C   0  0  0  0  0  0  0  0  0  0  0  0
    2.6490    0.1870   -0.3370 C   0  0  0  0  0  0  0  0  0  0  0  0
    1.4390    0.8860   -0.5810 N   0  0  0  0  0  0  0  0  0  0  0  0
    0.4040    0.4440   -1.4400 C   0  0  0  0  0  0  0  0  0  0  0  0
    0.4770   -0.6570   -2.0720 O   0  0  0  0  0  0  0  0  0  0  0  0
   -0.7910    1.2600   -1.6200 C   0  0  2  0  0  0  0  0  0  0  0  0
   -1.1100    2.2220   -0.5200 C   0  0  0  0  0  0  0  0  0  0  0  0
   -2.3790    3.0100   -0.8320 C   0  0  0  0  0  0  0  0  0  0  0  0
   -2.7370    4.1970    0.5530 P   0  0  0  0  0  0  0  0  0  0  0  0
   -1.2720    4.8960    1.1870 O   0  0  0  0  0  0  0  0  0  0  0  0
   -3.4980    3.3420    1.8660 O   0  0  0  0  0  0  0  0  0  0  0  0
   -1.9450    0.4680   -2.0490 N   0  0  0  0  0  0  0  0  0  0  0  0
   -2.4210   -0.5760   -1.1880 C   0  0  0  0  0  0  0  0  0  0  0  0
   -1.6940   -1.0710   -0.2250 N   0  0  0  0  0  0  0  0  0  0  0  0
   -2.4090   -2.0850    0.4690 C   0  0  0  0  0  0  0  0  0  0  0  0
   -2.1190   -2.8890    1.5200 N   0  0  0  0  0  0  0  0  0  0  0  0
   -3.0270   -3.7720    1.9660 C   0  0  0  0  0  0  0  0  0  0  0  0
   -2.7790   -4.5440    2.9570 O   0  0  0  0  0  0  0  0  0  0  0  0
   -4.2230   -3.9060    1.4200 O   0  0  0  0  0  0  0  0  0  0  0  0
   -4.5700   -3.1540    0.3900 C   0  0  0  0  0  0  0  0  0  0  0  0
   -5.6940   -3.2410   -0.1660 O   0  0  0  0  0  0  0  0  0  0  0  0
   -3.6590   -2.2310   -0.0960 C   0  0  0  0  0  0  0  0  0  0  0  0
   -3.7080   -1.2480   -1.1980 C   0  0  0  0  0  0  0  0  0  0  0  0
   -4.6600   -1.0340   -1.9820 O   0  0  0  0  0  0  0  0  0  0  0  0
    3.1940   -0.7700   -1.1570 C   0  0  0  0  0  0  0  0  0  0  0  0
    4.4130   -1.3810   -0.8360 C   0  0  0  0  0  0  0  0  0  0  0  0
  1  2  2  0
  2  3  1  0
  2  4  1  0
  4  5  2  0
  4 31  1  0
  5  6  1  0
  6  7  2  0
  7  8  1  0
  7 30  1  0
  8  9  1  0
  9 10  2  0
  9 11  1  0
 11 12  1  1
 11 17  1  0
 12 13  1  0
 13 14  1  0
 14 15  1  0
 14 16  1  0
 17 18  1  0
 18 19  2  0
 18 28  1  0
 19 20  1  0
 20 21  1  0
 20 27  2  0
 21 22  1  0
 22 23  2  0
 22 24  1  0
 24 25  1  0
 25 26  2  0
 25 27  1  0
 27 28  1  0
 28 29  2  0
 30 31  2  0
M  END
