
     RDKit          3D

 31 33  0  0  0  0  0  0  0  0999 V2000
   -2.0050    1.7620   -0.4880 C   0  0  0  0  0  0  0  0  0  0  0  0
   -3.2360    1.0340   -0.4050 C   0  0  0  0  0  0  0  0  0  0  0  0
   -3.4900   -0.1990   -0.0450 C   0  0  0  0  0  0  0  0  0  0  0  0
   -2.4890   -1.1340    0.3730 C   0  0  0  0  0  0  0  0  0  0  0  0
   -2.8950   -2.3040    0.6990 O   0  0  0  0  0  0  0  0  0  0  0  0
   -1.0970   -0.9810    0.4880 N   0  0  0  0  0  0  0  0  0  0  0  0
   -0.2540   -2.0600    0.9340 C   0  0  0  0  0  0  0  0  0  0  0  0
    1.0390   -1.9920    1.0720 C   0  0  0  0  0  0  0  0  0  0  0  0
    1.8720   -3.0660    1.5070 O   0  0  0  0  0  0  0  0  0  0  0  0
    3.2330   -2.7020    1.2080 C   0  0  0  0  0  0  0  0  0  0  0  0
    3.1270   -1.5790    0.2200 C   0  0  2  0  0  0  0  0  0  0  0  0
    4.2530   -0.6860    0.0590 C   0  0  0  0  0  0  0  0  0  0  0  0
    5.3810   -1.1650   -0.2210 O   0  0  0  0  0  0  0  0  0  0  0  0
    4.1700    0.7400    0.2000 N   0  0  0  0  0  0  0  0  0  0  0  0
    5.2790    1.5930   -0.1320 C   0  0  1  0  0  0  0  0  0  0  0  0
    6.5190    1.2160    0.5650 C   0  0  0  0  0  0  0  0  0  0  0  0
    7.4430    0.9570   -0.2850 N   0  0  0  0  0  0  0  0  0  0  0  0
    7.0040    1.1060   -1.6040 N   0  0  0  0  0  0  0  0  0  0  0  0
    5.6480    1.5060   -1.5590 C   0  0  0  0  0  0  0  0  0  0  0  0
    4.9020    1.7410   -2.5280 O   0  0  0  0  0  0  0  0  0  0  0  0
    2.9720    1.3210    0.6760 C   0  0  0  0  0  0  0  0  0  0  0  0
    2.8360    2.5610    0.8300 O   0  0  0  0  0  0  0  0  0  0  0  0
    1.8500    0.4130    0.9970 C   0  0  0  0  0  0  0  0  0  0  0  0
    1.9340   -0.8690    0.8410 C   0  0  0  0  0  0  0  0  0  0  0  0
   -4.9220   -0.5820   -0.0960 C   0  0  0  0  0  0  0  0  0  0  0  0
   -5.5120   -1.6630    0.1760 C   0  0  0  0  0  0  0  0  0  0  0  0
   -5.0980   -2.8960    0.6170 O   0  0  0  0  0  0  0  0  0  0  0  0
   -5.7470    0.5160   -0.5440 O   0  0  0  0  0  0  0  0  0  0  0  0
   -7.3380    0.2090   -1.1950 P   0  0  0  0  0  0  0  0  0  0  0  0
   -8.5670    0.3590    0.0300 O   0  0  0  0  0  0  0  0  0  0  0  0
   -7.7170    1.2170   -2.5420 O   0  0  0  0  0  0  0  0  0  0  0  0
  1  2  1  0
  2  3  2  3
  3  4  1  0
  3 25  1  0
  4  5  2  0
  4  6  1  0
  6  7  1  0
  7  8  2  3
  8  9  1  0
  8 24  1  0
  9 10  1  0
 11 10  1  1
 11 12  1  0
 11 24  1  0
 12 13  2  0
 12 14  1  0
 15 14  1  6
 14 21  1  0
 15 16  1  0
 15 19  1  0
 16 17  2  0
 17 18  1  0
 18 19  1  0
 19 20  2  0
 21 22  2  0
 21 23  1  0
 23 24  2  0
 25 26  2  3
 25 28  1  0
 26 27  1  0
 28 29  1  0
 29 30  1  0
 29 31  1  0
M  END
