
     RDKit          3D

 30 32  0  0  0  0  0  0  0  0999 V2000
    0.8790    4.5230   -1.2220 C   0  0  0  0  0  0  0  0  0  0  0  0
    0.4020    3.3080   -0.6270 O   0  0  0  0  0  0  0  0  0  0  0  0
   -0.0310    2.2570   -1.4340 C   0  0  0  0  0  0  0  0  0  0  0  0
    0.0110    2.4090   -2.6600 O   0  0  0  0  0  0  0  0  0  0  0  0
   -0.5090    1.0370   -0.7370 C   0  0  2  0  0  0  0  0  0  0  0  0
    0.5640    0.4530    0.1090 C   0  0  0  0  0  0  0  0  0  0  0  0
    1.8450    0.2770   -0.2650 N   0  0  0  0  0  0  0  0  0  0  0  0
    2.5490   -0.2750    0.7400 C   0  0  0  0  0  0  0  0  0  0  0  0
    3.9730   -0.6260    0.7370 C   0  0  0  0  0  0  0  0  0  0  0  0
    4.5840   -1.1820    1.8130 C   0  0  0  0  0  0  0  0  0  0  0  0
    5.9420   -1.4860    1.7280 C   0  0  0  0  0  0  0  0  0  0  0  0
    6.6650   -1.2340    0.5790 C   0  0  0  0  0  0  0  0  0  0  0  0
    8.0180   -1.5220    0.4530 O   0  0  0  0  0  0  0  0  0  0  0  0
    5.9980   -0.6680   -0.4910 C   0  0  0  0  0  0  0  0  0  0  0  0
    4.6900   -0.3850   -0.3790 N   0  0  0  0  0  0  0  0  0  0  0  0
    1.6600   -0.4290    1.7380 N   0  0  0  0  0  0  0  0  0  0  0  0
    0.4970    0.0110    1.3320 O   0  0  0  0  0  0  0  0  0  0  0  0
   -1.0730    0.0180   -1.6900 C   0  0  0  0  0  0  0  0  0  0  0  0
   -2.2660   -0.5450   -1.0650 N   0  0  0  0  0  0  0  0  0  0  0  0
   -2.2860   -1.9680   -1.1570 C   0  0  0  0  0  0  0  0  0  0  0  0
   -3.5120   -2.6030   -0.5700 C   0  0  1  0  0  0  0  0  0  0  0  0
   -3.4580   -4.0120   -0.7520 O   0  0  0  0  0  0  0  0  0  0  0  0
   -3.6360   -2.3540    1.2780 P   0  0  0  0  0  0  0  0  0  0  0  0
   -5.2500   -2.6190    1.8180 O   0  0  0  0  0  0  0  0  0  0  0  0
   -2.4800   -3.3000    2.1280 O   0  0  0  0  0  0  0  0  0  0  0  0
   -2.3620    0.0060    0.2570 C   0  0  0  0  0  0  0  0  0  0  0  0
   -1.7170    1.3940    0.0620 C   0  0  1  0  0  0  0  0  0  0  0  0
   -1.4470    2.0770    1.3550 C   0  0  0  0  0  0  0  0  0  0  0  0
   -2.6700    2.1600   -0.8290 C   0  0  0  0  0  0  0  0  0  0  0  0
   -3.8070    2.5020   -0.0920 O   0  0  0  0  0  0  0  0  0  0  0  0
  1  2  1  0
  2  3  1  0
  3  4  2  0
  5  3  1  6
  5  6  1  0
  5 18  1  0
  5 27  1  0
  6  7  2  0
  6 17  1  0
  7  8  1  0
  8  9  1  0
  8 16  2  0
  9 10  2  0
  9 15  1  0
 10 11  1  0
 11 12  2  0
 12 13  1  0
 12 14  1  0
 14 15  2  0
 16 17  1  0
 18 19  1  0
 19 20  1  0
 19 26  1  0
 20 21  1  0
 21 22  1  1
 21 23  1  0
 23 24  1  0
 23 25  1  0
 26 27  1  0
 27 28  1  1
 27 29  1  0
 29 30  1  0
M  END
