
     RDKit          3D

 31 33  0  0  0  0  0  0  0  0999 V2000
   -0.2800   -1.1620    0.0160 O   0  0  0  0  0  0  0  0  0  0  0  0
   -1.4710   -0.7640   -0.0610 C   0  0  0  0  0  0  0  0  0  0  0  0
   -2.5100   -1.7310   -0.0610 N   0  0  0  0  0  0  0  0  0  0  0  0
   -2.1520   -3.1410    0.0290 C   0  0  0  0  0  0  0  0  0  0  0  0
   -3.4290   -3.9590    0.0110 C   0  0  0  0  0  0  0  0  0  0  0  0
   -3.1660   -5.3090    0.0930 O   0  0  0  0  0  0  0  0  0  0  0  0
   -1.7580    0.6660   -0.1490 C   0  0  0  0  0  0  0  0  0  0  0  0
   -0.7670    1.5380   -0.1470 C   0  0  0  0  0  0  0  0  0  0  0  0
    0.5550    1.0390   -0.0580 N   0  0  0  0  0  0  0  0  0  0  0  0
    1.4090    1.4060   -0.9410 C   0  0  0  0  0  0  0  0  0  0  0  0
    1.1300    2.2400   -1.9530 N   0  0  0  0  0  0  0  0  0  0  0  0
    2.0460    2.6140   -2.8740 C   0  0  0  0  0  0  0  0  0  0  0  0
    3.2810    2.1240   -2.7570 N   0  0  0  0  0  0  0  0  0  0  0  0
    3.6240    1.2780   -1.7570 C   0  0  0  0  0  0  0  0  0  0  0  0
    2.6890    0.9010   -0.8270 C   0  0  0  0  0  0  0  0  0  0  0  0
    2.9810    0.0490    0.3060 C   0  0  0  0  0  0  0  0  0  0  0  0
    2.4510    0.3520    1.4330 O   0  0  0  0  0  0  0  0  0  0  0  0
    3.8250   -1.1300    0.2820 C   0  0  0  0  0  0  0  0  0  0  0  0
    4.4150   -1.6500   -0.7550 C   0  0  0  0  0  0  0  0  0  0  0  0
    5.2850   -2.8670   -0.7490 C   0  0  0  0  0  0  0  0  0  0  0  0
    5.4210   -3.4370    0.5190 O   0  0  0  0  0  0  0  0  0  0  0  0
    4.8080   -2.9120    1.6540 C   0  0  0  0  0  0  0  0  0  0  0  0
    4.0600   -1.8360    1.5640 C   0  0  0  0  0  0  0  0  0  0  0  0
   -1.0750    2.8850   -0.2310 O   0  0  0  0  0  0  0  0  0  0  0  0
   -2.4210    3.3270   -0.4720 C   0  0  0  0  0  0  0  0  0  0  0  0
   -3.3560    2.4070    0.2380 C   0  0  1  0  0  0  0  0  0  0  0  0
   -4.6590    2.7920   -0.0730 O   0  0  0  0  0  0  0  0  0  0  0  0
   -5.4580    3.1670    1.4260 P   0  0  0  0  0  0  0  0  0  0  0  0
   -4.3590    3.0340    2.7740 O   0  0  0  0  0  0  0  0  0  0  0  0
   -6.1270    4.7730    1.3840 O   0  0  0  0  0  0  0  0  0  0  0  0
   -3.0970    1.0780   -0.2330 O   0  0  0  0  0  0  0  0  0  0  0  0
  1  2  2  0
  2  3  1  0
  2  7  1  0
  3  4  1  0
  4  5  1  0
  5  6  1  0
  7  8  2  0
  7 31  1  0
  8  9  1  0
  8 24  1  0
  9 10  2  3
 10 11  1  0
 10 15  1  0
 11 12  2  0
 12 13  1  0
 13 14  1  0
 14 15  2  0
 15 16  1  0
 16 17  2  0
 16 18  1  0
 18 19  2  0
 18 23  1  0
 19 20  1  0
 20 21  1  0
 21 22  1  0
 22 23  2  0
 24 25  1  0
 25 26  1  0
 26 27  1  6
 26 31  1  0
 27 28  1  0
 28 29  1  0
 28 30  1  0
M  END
