
     RDKit          3D

 50 57  0  0  0  0  0  0  0  0999 V2000
   -7.8540   -1.6680   -1.1760 C   0  0  0  0  0  0  0  0  0  0  0  0
   -6.6230   -2.1300   -1.2560 C   0  0  0  0  0  0  0  0  0  0  0  0
   -5.4420   -1.2970   -1.1200 C   0  0  0  0  0  0  0  0  0  0  0  0
   -4.2410   -1.8330   -1.2100 C   0  0  0  0  0  0  0  0  0  0  0  0
   -2.9570   -1.0900   -1.0880 C   0  0  2  0  0  0  0  0  0  0  0  0
   -1.8320   -1.8170   -0.5510 C   0  0  2  0  0  0  0  0  0  0  0  0
   -0.7730   -2.0870   -1.4590 O   0  0  0  0  0  0  0  0  0  0  0  0
    0.0900   -2.9270   -0.7170 C   0  0  2  0  0  0  0  0  0  0  0  0
    1.4010   -2.2500   -0.6310 C   0  0  0  0  0  0  0  0  0  0  0  0
    1.9780   -2.1420    0.7760 C   0  0  1  0  0  0  0  0  0  0  0  0
    2.9340   -3.2450    0.9880 C   0  0  0  0  0  0  0  0  0  0  0  0
    4.2020   -2.9110    1.6790 C   0  0  0  0  0  0  0  0  0  0  0  0
    4.2530   -1.5140    2.2280 C   0  0  0  0  0  0  0  0  0  0  0  0
    3.7290   -0.6210    1.0930 C   0  0  2  0  0  0  0  0  0  0  0  0
    4.5370   -0.8200   -0.1580 C   0  0  0  0  0  0  0  0  0  0  0  0
    4.4690    0.5320   -0.7930 C   0  0  0  0  0  0  0  0  0  0  0  0
    4.3460    1.4390    0.4090 C   0  0  2  0  0  0  0  0  0  0  0  0
    3.3050    2.3260    0.1550 O   0  0  0  0  0  0  0  0  0  0  0  0
    3.6580    3.6440    0.2250 C   0  0  1  0  0  0  0  0  0  0  0  0
    4.7840    3.9250   -0.7790 C   0  0  0  0  0  0  0  0  0  0  0  0
    6.0040    3.2400   -0.2080 C   0  0  0  0  0  0  0  0  0  0  0  0
    5.6480    2.1180    0.7320 C   0  0  2  0  0  0  0  0  0  0  0  0
    6.7870    1.1150    0.6530 C   0  0  0  0  0  0  0  0  0  0  0  0
    5.6480    2.5340    2.0840 O   0  0  0  0  0  0  0  0  0  0  0  0
    2.4570    4.5050   -0.0680 C   0  0  0  0  0  0  0  0  0  0  0  0
    1.5340    3.9580   -1.0730 C   0  0  0  0  0  0  0  0  0  0  0  0
    1.6340    4.3250   -2.3280 C   0  0  0  0  0  0  0  0  0  0  0  0
    0.4960    2.9980   -0.6490 C   0  0  0  0  0  0  0  0  0  0  0  0
   -0.2820    2.3770   -1.7740 C   0  0  0  0  0  0  0  0  0  0  0  0
   -0.8820    1.0260   -1.3160 C   0  0  0  0  0  0  0  0  0  0  0  0
   -2.1740    1.2650   -0.6440 C   0  0  0  0  0  0  0  0  0  0  0  0
   -2.2310    2.4670   -0.2480 N   0  0  0  0  0  0  0  0  0  0  0  0
   -3.1420    3.3110    0.4330 C   0  0  0  0  0  0  0  0  0  0  0  0
   -4.0620    2.5690    1.3700 C   0  0  2  0  0  0  0  0  0  0  0  0
   -4.2270    3.4740    2.6040 C   0  0  0  0  0  0  0  0  0  0  0  0
   -3.4910    1.2900    1.8530 C   0  0  1  0  0  0  0  0  0  0  0  0
   -4.2050    0.9440    3.1670 C   0  0  0  0  0  0  0  0  0  0  0  0
   -3.5880    0.1210    0.9680 C   0  0  0  0  0  0  0  0  0  0  0  0
   -3.2440    0.2760   -0.4650 C   0  0  2  0  0  0  0  0  0  0  0  0
   -4.4090    0.8230   -1.3110 C   0  0  0  0  0  0  0  0  0  0  0  0
   -5.6760    0.1630   -0.8930 C   0  0  0  0  0  0  0  0  0  0  0  0
    3.9680    0.6680    1.4760 O   0  0  0  0  0  0  0  0  0  0  0  0
    2.4040   -0.8760    0.9670 O   0  0  0  0  0  0  0  0  0  0  0  0
    0.2720   -4.2590   -1.4180 C   0  0  0  0  0  0  0  0  0  0  0  0
   -0.7770   -5.2020   -0.8720 C   0  0  1  0  0  0  0  0  0  0  0  0
   -0.4560   -5.6830    0.5090 C   0  0  0  0  0  0  0  0  0  0  0  0
   -2.0560   -4.3350   -0.8310 C   0  0  1  0  0  0  0  0  0  0  0  0
   -3.1250   -5.1410   -0.4060 O   0  0  0  0  0  0  0  0  0  0  0  0
   -1.9030   -3.1430    0.0670 C   0  0  1  0  0  0  0  0  0  0  0  0
   -0.5370   -3.1920    0.4940 O   0  0  0  0  0  0  0  0  0  0  0  0
  1  2  2  0
  2  3  1  0
  3  4  2  0
  3 41  1  0
  5  4  1  1
  5  6  1  0
  5 39  1  0
  6  7  1  6
  6 49  1  0
  7  8  1  0
  8  9  1  1
  8 44  1  0
  8 50  1  0
 10  9  1  6
 10 11  1  0
 10 43  1  0
 11 12  1  0
 12 13  1  0
 14 13  1  1
 14 15  1  0
 14 42  1  0
 14 43  1  0
 15 16  1  0
 17 16  1  6
 17 18  1  0
 17 22  1  0
 17 42  1  0
 18 19  1  0
 19 20  1  6
 19 25  1  0
 20 21  1  0
 21 22  1  0
 22 23  1  1
 22 24  1  0
 25 26  1  0
 26 27  2  0
 26 28  1  0
 28 29  1  0
 29 30  1  0
 30 31  1  0
 31 32  2  0
 31 39  1  0
 32 33  1  0
 33 34  1  0
 34 35  1  1
 34 36  1  0
 36 37  1  1
 36 38  1  0
 39 38  1  1
 39 40  1  0
 40 41  1  0
 44 45  1  0
 45 46  1  1
 45 47  1  0
 47 48  1  1
 47 49  1  0
 49 50  1  6
M  END
