
     RDKit          3D

 47 50  0  0  0  0  0  0  0  0999 V2000
    0.5760    3.4750   -3.6970 C   0  0  0  0  0  0  0  0  0  0  0  0
    1.5080    3.6650   -2.4920 C   0  0  0  0  0  0  0  0  0  0  0  0
    1.3080    2.4080   -1.6400 C   0  0  0  0  0  0  0  0  0  0  0  0
    1.6650    1.1740   -2.4000 C   0  0  1  0  0  0  0  0  0  0  0  0
    3.0940    1.1340   -2.8690 C   0  0  0  0  0  0  0  0  0  0  0  0
    4.1030    1.6250   -1.9090 C   0  0  0  0  0  0  0  0  0  0  0  0
    4.5900    0.5980   -0.9110 C   0  0  0  0  0  0  0  0  0  0  0  0
    5.9200    0.9410   -0.3670 C   0  0  0  0  0  0  0  0  0  0  0  0
    6.3470    2.2490   -0.4580 C   0  0  0  0  0  0  0  0  0  0  0  0
    7.5920    2.6250    0.0360 C   0  0  0  0  0  0  0  0  0  0  0  0
    8.4140    1.6890    0.6250 C   0  0  0  0  0  0  0  0  0  0  0  0
    7.9720    0.3660    0.7120 C   0  0  0  0  0  0  0  0  0  0  0  0
    6.7390   -0.0100    0.2230 C   0  0  0  0  0  0  0  0  0  0  0  0
    6.2870   -1.4300    0.3290 C   0  0  0  0  0  0  0  0  0  0  0  0
    6.6690   -1.9480    1.7070 C   0  0  2  0  0  0  0  0  0  0  0  0
    7.9470   -2.7610    1.5160 C   0  0  0  0  0  0  0  0  0  0  0  0
    5.5940   -2.7800    2.2900 C   0  0  0  0  0  0  0  0  0  0  0  0
    5.7290   -4.0430    2.1360 O   0  0  0  0  0  0  0  0  0  0  0  0
    4.4640   -2.2980    2.9830 N   0  0  0  0  0  0  0  0  0  0  0  0
    4.0390   -3.0220    4.1810 C   0  0  0  0  0  0  0  0  0  0  0  0
    3.6860   -1.1390    2.5970 C   0  0  0  0  0  0  0  0  0  0  0  0
    2.5400   -1.6760    1.7470 C   0  0  0  0  0  0  0  0  0  0  0  0
    1.4840   -0.6440    1.4670 C   0  0  0  0  0  0  0  0  0  0  0  0
    0.6030   -1.1280    0.3650 C   0  0  0  0  0  0  0  0  0  0  0  0
    0.2670   -0.0060   -0.6400 C   0  0  2  0  0  0  0  0  0  0  0  0
   -0.9990   -0.4140   -1.1650 O   0  0  0  0  0  0  0  0  0  0  0  0
   -2.1410    0.3330   -0.9430 C   0  0  0  0  0  0  0  0  0  0  0  0
   -2.0440    1.3680   -0.2750 O   0  0  0  0  0  0  0  0  0  0  0  0
   -3.4290   -0.1580   -1.5260 C   0  0  1  0  0  0  0  0  0  0  0  0
   -3.6560   -1.5780   -0.9270 C   0  0  0  0  0  0  0  0  0  0  0  0
   -5.1120   -1.5680   -0.5080 C   0  0  2  0  0  0  0  0  0  0  0  0
   -5.8470   -2.7670   -0.2550 C   0  0  0  0  0  0  0  0  0  0  0  0
   -6.4710   -2.9180    1.0990 C   0  0  0  0  0  0  0  0  0  0  0  0
   -6.3620   -1.8000    2.0800 C   0  0  0  0  0  0  0  0  0  0  0  0
   -7.3010   -0.6790    1.8970 C   0  0  0  0  0  0  0  0  0  0  0  0
   -7.0750    0.6200    1.9260 C   0  0  0  0  0  0  0  0  0  0  0  0
   -5.8410    1.3540    2.1460 C   0  0  0  0  0  0  0  0  0  0  0  0
   -5.3290    2.3140    1.1910 C   0  0  2  0  0  0  0  0  0  0  0  0
   -5.5420    3.7410    1.7500 C   0  0  0  0  0  0  0  0  0  0  0  0
   -5.7880    2.3870   -0.1180 O   0  0  0  0  0  0  0  0  0  0  0  0
   -5.1260    1.7840   -1.2290 C   0  0  0  0  0  0  0  0  0  0  0  0
   -5.0730    2.4490   -2.3050 O   0  0  0  0  0  0  0  0  0  0  0  0
   -4.6140    0.5190   -0.9870 C   0  0  1  0  0  0  0  0  0  0  0  0
   -5.6140   -0.5530   -1.4900 C   0  0  1  0  0  0  0  0  0  0  0  0
   -5.2790   -0.8990   -2.9240 C   0  0  0  0  0  0  0  0  0  0  0  0
   -7.0150   -0.1510   -1.4500 C   0  0  0  0  0  0  0  0  0  0  0  0
    1.2610   -0.1120   -1.7370 C   0  0  0  0  0  0  0  0  0  0  0  0
  1  2  1  0
  2  3  1  0
  4  3  1  1
  4  5  1  0
  4 47  1  0
  5  6  1  0
  6  7  1  0
  7  8  1  0
  8  9  2  0
  8 13  1  0
  9 10  1  0
 10 11  2  0
 11 12  1  0
 12 13  2  0
 13 14  1  0
 14 15  1  0
 15 16  1  6
 15 17  1  0
 17 18  2  0
 17 19  1  0
 19 20  1  0
 19 21  1  0
 21 22  1  0
 22 23  1  0
 23 24  1  0
 24 25  1  0
 25 26  1  6
 25 47  1  0
 26 27  1  0
 27 28  2  0
 29 27  1  1
 29 30  1  0
 29 43  1  0
 31 30  1  6
 31 32  1  0
 31 44  1  0
 32 33  1  0
 33 34  1  0
 34 35  1  0
 35 36  2  0
 36 37  1  0
 37 38  1  0
 38 39  1  1
 38 40  1  0
 40 41  1  0
 41 42  2  0
 43 41  1  6
 43 44  1  0
 44 45  1  6
 44 46  1  0
M  END
