
     RDKit          3D

 42 47  0  0  0  0  0  0  0  0999 V2000
   -7.6820    2.9080   -3.1610 C   0  0  0  0  0  0  0  0  0  0  0  0
   -6.7150    2.2020   -3.5840 N   0  0  0  0  0  0  0  0  0  0  0  0
   -5.9830    1.2990   -2.7650 C   0  0  0  0  0  0  0  0  0  0  0  0
   -6.2380    0.0350   -2.8180 C   0  0  0  0  0  0  0  0  0  0  0  0
   -4.9790    1.8780   -1.8690 C   0  0  0  0  0  0  0  0  0  0  0  0
   -4.3590    0.9340   -1.0900 O   0  0  0  0  0  0  0  0  0  0  0  0
   -4.8510    0.1220   -0.1020 C   0  0  0  0  0  0  0  0  0  0  0  0
   -6.1640    0.1030    0.3550 C   0  0  0  0  0  0  0  0  0  0  0  0
   -6.6010   -0.7300    1.3520 C   0  0  0  0  0  0  0  0  0  0  0  0
   -5.6840   -1.6090    1.9450 C   0  0  0  0  0  0  0  0  0  0  0  0
   -4.3830   -1.5930    1.4960 C   0  0  0  0  0  0  0  0  0  0  0  0
   -3.9470   -0.7610    0.5000 C   0  0  0  0  0  0  0  0  0  0  0  0
   -2.5490   -0.7610    0.0270 C   0  0  1  0  0  0  0  0  0  0  0  0
   -2.0940    0.5760    0.1370 O   0  0  0  0  0  0  0  0  0  0  0  0
   -1.7310   -1.6510    0.9110 C   0  0  0  0  0  0  0  0  0  0  0  0
   -0.3070   -1.6150    0.5250 N   0  0  0  0  0  0  0  0  0  0  0  0
    0.4580   -0.6220    1.1350 C   0  0  0  0  0  0  0  0  0  0  0  0
   -0.1830    0.2370    1.9060 O   0  0  0  0  0  0  0  0  0  0  0  0
    1.8770   -0.3500    1.0730 C   0  0  0  0  0  0  0  0  0  0  0  0
    2.3190    0.9180    1.4670 C   0  0  0  0  0  0  0  0  0  0  0  0
    3.6570    1.2800    1.5110 C   0  0  0  0  0  0  0  0  0  0  0  0
    4.6240    0.4020    1.1660 C   0  0  0  0  0  0  0  0  0  0  0  0
    6.0610    0.6680    1.1630 C   0  0  1  0  0  0  0  0  0  0  0  0
    6.6250    1.1010   -0.1420 C   0  0  0  0  0  0  0  0  0  0  0  0
    6.0780    0.6210   -1.3020 C   0  0  0  0  0  0  0  0  0  0  0  0
    6.5740    0.9920   -2.5560 C   0  0  0  0  0  0  0  0  0  0  0  0
    7.6400    1.8590   -2.6500 C   0  0  0  0  0  0  0  0  0  0  0  0
    8.1550    2.2440   -3.9040 O   0  0  0  0  0  0  0  0  0  0  0  0
    8.1880    2.3390   -1.4810 C   0  0  0  0  0  0  0  0  0  0  0  0
    7.6900    1.9680   -0.2250 C   0  0  0  0  0  0  0  0  0  0  0  0
    8.3450    2.5460    0.9460 C   0  0  0  0  0  0  0  0  0  0  0  0
    8.0210    1.7430    2.1810 C   0  0  0  0  0  0  0  0  0  0  0  0
    6.4750    1.6460    2.2320 C   0  0  1  0  0  0  0  0  0  0  0  0
    6.0680    2.9320    1.8290 O   0  0  0  0  0  0  0  0  0  0  0  0
    4.2070   -0.8760    0.7680 C   0  0  0  0  0  0  0  0  0  0  0  0
    2.8630   -1.2330    0.7270 C   0  0  0  0  0  0  0  0  0  0  0  0
    0.1100   -2.4930   -0.5040 C   0  0  2  0  0  0  0  0  0  0  0  0
   -0.8500   -3.3210   -1.2770 C   0  0  0  0  0  0  0  0  0  0  0  0
   -0.1120   -3.9750   -0.1480 C   0  0  0  0  0  0  0  0  0  0  0  0
   -6.4170   -2.3930    2.9900 C   0  0  0  0  0  0  0  0  0  0  0  0
   -7.8230   -2.4020    2.3710 C   0  0  0  0  0  0  0  0  0  0  0  0
   -7.9310   -0.9200    1.9870 C   0  0  0  0  0  0  0  0  0  0  0  0
  1  2  2  0
  2  3  1  0
  3  4  2  0
  3  5  1  0
  5  6  1  0
  6  7  1  0
  7  8  2  0
  7 12  1  0
  8  9  1  0
  9 10  2  0
  9 42  1  0
 10 11  1  0
 10 40  1  0
 11 12  2  0
 12 13  1  0
 13 14  1  1
 13 15  1  0
 15 16  1  0
 16 17  1  0
 37 16  1  1
 17 18  2  0
 17 19  1  0
 19 20  2  0
 19 36  1  0
 20 21  1  0
 21 22  2  0
 23 22  1  6
 22 35  1  0
 23 24  1  0
 23 33  1  0
 24 25  2  0
 24 30  1  0
 25 26  1  0
 26 27  2  0
 27 28  1  0
 27 29  1  0
 29 30  2  0
 30 31  1  0
 31 32  1  0
 32 33  1  0
 33 34  1  6
 35 36  2  0
 37 38  1  0
 37 39  1  0
 38 39  1  0
 40 41  1  0
 41 42  1  0
M  END
