
     RDKit          3D

 42 46  0  0  0  0  0  0  0  0999 V2000
    0.0930   -5.8240   -0.9120 C   0  0  0  0  0  0  0  0  0  0  0  0
    0.7340   -5.1290    0.2480 C   0  0  0  0  0  0  0  0  0  0  0  0
    1.0540   -3.6750    0.0270 C   0  0  1  0  0  0  0  0  0  0  0  0
    1.9460   -3.4900   -1.1720 C   0  0  0  0  0  0  0  0  0  0  0  0
    3.2600   -4.1410   -1.0470 C   0  0  0  0  0  0  0  0  0  0  0  0
    4.1620   -4.1230   -2.1180 N   0  0  0  0  0  0  0  0  0  0  0  0
    3.5800   -4.7120    0.0110 O   0  0  0  0  0  0  0  0  0  0  0  0
   -0.0480   -2.7270    0.0450 C   0  0  0  0  0  0  0  0  0  0  0  0
   -1.3300   -3.2000   -0.0830 C   0  0  0  0  0  0  0  0  0  0  0  0
   -2.3770   -2.3050   -0.1240 C   0  0  0  0  0  0  0  0  0  0  0  0
   -2.1710   -0.9460   -0.0400 C   0  0  0  0  0  0  0  0  0  0  0  0
   -3.3450   -0.0640   -0.0900 C   0  0  2  0  0  0  0  0  0  0  0  0
   -3.2060    1.1140   -0.9610 C   0  0  0  0  0  0  0  0  0  0  0  0
   -2.3070    1.2440   -1.7960 O   0  0  0  0  0  0  0  0  0  0  0  0
   -4.1840    2.2210   -0.8540 C   0  0  0  0  0  0  0  0  0  0  0  0
   -5.3740    1.7570   -0.0340 C   0  0  2  0  0  0  0  0  0  0  0  0
   -6.5030    2.6910   -0.0090 C   0  0  0  0  0  0  0  0  0  0  0  0
   -6.6640    3.5540    1.2020 C   0  0  0  0  0  0  0  0  0  0  0  0
   -6.4570    2.8200    2.4970 C   0  0  0  0  0  0  0  0  0  0  0  0
   -5.3610    1.8270    2.4150 C   0  0  0  0  0  0  0  0  0  0  0  0
   -4.8260    1.3830    3.6130 C   0  0  0  0  0  0  0  0  0  0  0  0
   -3.7850    0.4460    3.6320 C   0  0  0  0  0  0  0  0  0  0  0  0
   -3.2860   -0.0390    2.4410 C   0  0  0  0  0  0  0  0  0  0  0  0
   -3.8070    0.3930    1.2400 C   0  0  0  0  0  0  0  0  0  0  0  0
   -4.8400    1.3230    1.2680 C   0  0  0  0  0  0  0  0  0  0  0  0
   -0.8780   -0.5020    0.0900 C   0  0  0  0  0  0  0  0  0  0  0  0
    0.1940   -1.3440    0.1370 C   0  0  0  0  0  0  0  0  0  0  0  0
    1.5190   -0.8980    0.3700 N   0  0  0  0  0  0  0  0  0  0  0  0
    2.0030    0.4140    0.3350 C   0  0  0  0  0  0  0  0  0  0  0  0
    1.2400    1.3580    0.0690 O   0  0  0  0  0  0  0  0  0  0  0  0
    3.4090    0.7540    0.6070 C   0  0  0  0  0  0  0  0  0  0  0  0
    3.9330    0.3680    1.8150 C   0  0  0  0  0  0  0  0  0  0  0  0
    5.2330    0.6200    2.1830 C   0  0  0  0  0  0  0  0  0  0  0  0
    6.0410    1.2820    1.3150 C   0  0  0  0  0  0  0  0  0  0  0  0
    5.5160    1.6810    0.0780 C   0  0  0  0  0  0  0  0  0  0  0  0
    4.2180    1.4400   -0.3100 C   0  0  0  0  0  0  0  0  0  0  0  0
    3.6490    1.7840   -1.5640 C   0  0  0  0  0  0  0  0  0  0  0  0
    3.9530    2.5450   -2.5400 C   0  0  0  0  0  0  0  0  0  0  0  0
    4.9830    3.4510   -2.9240 C   0  0  0  0  0  0  0  0  0  0  0  0
    4.9060    4.0370   -4.0870 O   0  0  0  0  0  0  0  0  0  0  0  0
    6.0760    3.8090   -2.2180 O   0  0  0  0  0  0  0  0  0  0  0  0
    7.0500    4.7050   -2.6450 C   0  0  0  0  0  0  0  0  0  0  0  0
  1  2  1  0
  3  2  1  6
  3  4  1  0
  3  8  1  0
  4  5  1  0
  5  6  1  0
  5  7  2  0
  8  9  2  0
  8 27  1  0
  9 10  1  0
 10 11  2  0
 12 11  1  1
 11 26  1  0
 12 13  1  0
 12 24  1  0
 13 14  2  0
 13 15  1  0
 16 15  1  6
 16 17  1  0
 16 25  1  0
 17 18  1  0
 18 19  1  0
 19 20  1  0
 20 21  2  0
 20 25  1  0
 21 22  1  0
 22 23  2  0
 23 24  1  0
 24 25  2  0
 26 27  2  0
 27 28  1  0
 28 29  1  0
 29 30  2  0
 29 31  1  0
 31 32  2  0
 31 36  1  0
 32 33  1  0
 33 34  2  0
 34 35  1  0
 35 36  2  0
 36 37  1  0
 37 38  2  3
 38 39  1  0
 39 40  2  0
 39 41  1  0
 41 42  1  0
M  END
