
     RDKit          3D

 42 46  0  0  0  0  0  0  0  0999 V2000
   -6.4750   -2.0630   -1.4690 C   0  0  0  0  0  0  0  0  0  0  0  0
   -5.1610   -1.8190   -2.1780 C   0  0  0  0  0  0  0  0  0  0  0  0
   -4.0200   -2.6140   -1.6740 C   0  0  1  0  0  0  0  0  0  0  0  0
   -2.9070   -2.2630   -2.5070 O   0  0  0  0  0  0  0  0  0  0  0  0
   -3.5740   -2.3590   -0.2510 C   0  0  0  0  0  0  0  0  0  0  0  0
   -3.0820   -0.9920    0.0340 C   0  0  1  0  0  0  0  0  0  0  0  0
   -3.9320    0.1690   -0.0930 C   0  0  0  0  0  0  0  0  0  0  0  0
   -5.2210    0.3090    0.3640 C   0  0  0  0  0  0  0  0  0  0  0  0
   -5.9250    1.4760    0.2070 C   0  0  0  0  0  0  0  0  0  0  0  0
   -7.3360    1.5510    0.7370 C   0  0  0  0  0  0  0  0  0  0  0  0
   -5.3880    2.5790   -0.4160 C   0  0  0  0  0  0  0  0  0  0  0  0
   -4.1060    2.4890   -0.8900 C   0  0  0  0  0  0  0  0  0  0  0  0
   -3.4130    1.3130   -0.7250 C   0  0  0  0  0  0  0  0  0  0  0  0
   -3.7180    3.8010   -1.5370 C   0  0  0  0  0  0  0  0  0  0  0  0
   -4.6880    4.7640   -0.8910 C   0  0  0  0  0  0  0  0  0  0  0  0
   -5.8490    3.8990   -0.7240 N   0  0  0  0  0  0  0  0  0  0  0  0
   -2.0470   -0.9350    1.1290 C   0  0  0  0  0  0  0  0  0  0  0  0
   -0.6810   -0.8900    0.7770 C   0  0  0  0  0  0  0  0  0  0  0  0
    0.3400   -0.8530    1.6940 C   0  0  0  0  0  0  0  0  0  0  0  0
    1.7620   -0.7790    1.2970 C   0  0  0  0  0  0  0  0  0  0  0  0
    2.0610   -0.0120    0.3700 O   0  0  0  0  0  0  0  0  0  0  0  0
    2.7570   -1.5370    1.9290 N   0  0  0  0  0  0  0  0  0  0  0  0
    4.1350   -1.5560    1.6680 C   0  0  0  0  0  0  0  0  0  0  0  0
    4.7640   -0.7060    0.8040 C   0  0  0  0  0  0  0  0  0  0  0  0
    6.1440   -0.7480    0.5930 C   0  0  0  0  0  0  0  0  0  0  0  0
    6.8220    0.0890   -0.2630 O   0  0  0  0  0  0  0  0  0  0  0  0
    6.3180    1.1240   -1.0370 C   0  0  1  0  0  0  0  0  0  0  0  0
    6.9770    2.4170   -0.5840 C   0  0  0  0  0  0  0  0  0  0  0  0
    7.6190    3.0470   -1.7750 C   0  0  0  0  0  0  0  0  0  0  0  0
    7.1920    2.2680   -2.9840 C   0  0  0  0  0  0  0  0  0  0  0  0
    6.7470    0.9140   -2.4770 C   0  0  1  0  0  0  0  0  0  0  0  0
    7.8390   -0.0750   -2.5790 C   0  0  0  0  0  0  0  0  0  0  0  0
    8.4990   -0.3600   -1.5590 O   0  0  0  0  0  0  0  0  0  0  0  0
    8.1300   -0.6790   -3.7830 O   0  0  0  0  0  0  0  0  0  0  0  0
    6.9080   -1.6770    1.2740 C   0  0  0  0  0  0  0  0  0  0  0  0
    6.2980   -2.5350    2.1410 C   0  0  0  0  0  0  0  0  0  0  0  0
    4.9520   -2.4680    2.3260 C   0  0  0  0  0  0  0  0  0  0  0  0
    4.3210   -3.4180    3.2780 C   0  0  0  0  0  0  0  0  0  0  0  0
   -0.0300   -0.8630    3.0170 C   0  0  0  0  0  0  0  0  0  0  0  0
   -1.3500   -0.9060    3.3930 C   0  0  0  0  0  0  0  0  0  0  0  0
   -2.3910   -0.9420    2.4400 C   0  0  0  0  0  0  0  0  0  0  0  0
   -3.7830   -0.9690    2.8910 C   0  0  0  0  0  0  0  0  0  0  0  0
  1  2  1  0
  2  3  1  0
  3  4  1  6
  3  5  1  0
  6  5  1  1
  6  7  1  0
  6 17  1  0
  7  8  2  0
  7 13  1  0
  8  9  1  0
  9 10  1  0
  9 11  2  0
 11 12  1  0
 11 16  1  0
 12 13  2  0
 12 14  1  0
 14 15  1  0
 15 16  1  0
 17 18  2  0
 17 41  1  0
 18 19  1  0
 19 20  1  0
 19 39  2  0
 20 21  2  0
 20 22  1  0
 22 23  1  0
 23 24  2  0
 23 37  1  0
 24 25  1  0
 25 26  1  0
 25 35  2  0
 27 26  1  1
 27 28  1  0
 27 31  1  0
 28 29  1  0
 29 30  1  0
 30 31  1  0
 31 32  1  1
 32 33  2  0
 32 34  1  0
 35 36  1  0
 36 37  2  0
 37 38  1  0
 39 40  1  0
 40 41  2  0
 41 42  1  0
M  CHG  1  34  -1
M  END
