
     RDKit          3D

 33 35  0  0  0  0  0  0  0  0999 V2000
   -3.2740    4.1590    4.0160 C   0  0  0  0  0  0  0  0  0  0  0  0
   -2.9100    2.8720    3.3380 C   0  0  0  0  0  0  0  0  0  0  0  0
   -2.9250    2.7660    1.8910 C   0  0  1  0  0  0  0  0  0  0  0  0
   -4.1890    3.0760    1.2710 O   0  0  0  0  0  0  0  0  0  0  0  0
   -1.8930    3.4060    1.0020 C   0  0  0  0  0  0  0  0  0  0  0  0
   -2.3670    2.8320   -0.3720 C   0  0  0  0  0  0  0  0  0  0  0  0
   -2.9240    3.4870   -1.1740 O   0  0  0  0  0  0  0  0  0  0  0  0
   -2.0550    1.4260   -0.4750 N   0  0  0  0  0  0  0  0  0  0  0  0
   -2.3710    0.5610   -1.5110 C   0  0  0  0  0  0  0  0  0  0  0  0
   -3.7140    0.0810   -1.7920 C   0  0  0  0  0  0  0  0  0  0  0  0
   -4.8460    0.5460   -0.9920 C   0  0  0  0  0  0  0  0  0  0  0  0
   -3.8120   -0.8710   -2.7400 C   0  0  0  0  0  0  0  0  0  0  0  0
   -2.9560   -1.4390   -3.4580 C   0  0  0  0  0  0  0  0  0  0  0  0
   -2.8640   -2.5840   -4.3250 C   0  0  0  0  0  0  0  0  0  0  0  0
   -2.8040   -3.5120   -5.0440 N   0  0  0  0  0  0  0  0  0  0  0  0
   -1.5460   -0.9250   -3.1680 C   0  0  0  0  0  0  0  0  0  0  0  0
   -1.3290   -0.0140   -2.2640 C   0  0  0  0  0  0  0  0  0  0  0  0
    0.1000    0.2810   -1.8280 C   0  0  0  0  0  0  0  0  0  0  0  0
    0.6000   -0.7470   -1.1800 C   0  0  0  0  0  0  0  0  0  0  0  0
    1.8670   -0.9320   -0.5920 N   0  0  0  0  0  0  0  0  0  0  0  0
    2.6080   -2.1160   -1.1810 C   0  0  0  0  0  0  0  0  0  0  0  0
    2.0580   -2.5570   -2.1310 O   0  0  0  0  0  0  0  0  0  0  0  0
    3.7960   -2.4370   -0.4550 C   0  0  0  0  0  0  0  0  0  0  0  0
    4.3840   -1.8060    0.6410 C   0  0  0  0  0  0  0  0  0  0  0  0
    5.5020   -2.5480    1.0510 C   0  0  0  0  0  0  0  0  0  0  0  0
    6.3410   -2.0680    2.2110 C   0  0  2  0  0  0  0  0  0  0  0  0
    6.4440   -0.4840    2.2140 C   0  0  0  0  0  0  0  0  0  0  0  0
    7.6350   -1.3340    1.9130 C   0  0  0  0  0  0  0  0  0  0  0  0
    5.5470   -3.5440    0.2210 N   0  0  0  0  0  0  0  0  0  0  0  0
    4.6110   -3.5630   -0.6590 N   0  0  0  0  0  0  0  0  0  0  0  0
   -0.3440   -1.8440   -0.7140 C   0  0  0  0  0  0  0  0  0  0  0  0
    0.2230   -3.0980   -0.3790 N   0  0  0  0  0  0  0  0  0  0  0  0
   -1.5460   -1.7480   -0.6310 O   0  0  0  0  0  0  0  0  0  0  0  0
  1  2  1  0
  2  3  1  0
  3  4  1  6
  3  5  1  0
  5  6  1  0
  6  7  2  0
  6  8  1  0
  8  9  1  0
  9 10  2  0
  9 17  1  0
 10 11  1  0
 10 12  1  0
 12 13  2  0
 13 14  1  0
 13 16  1  0
 14 15  3  0
 16 17  2  0
 17 18  1  0
 18 19  2  3
 19 20  1  0
 19 31  1  0
 20 21  1  0
 21 22  2  0
 21 23  1  0
 23 24  2  0
 23 30  1  0
 24 25  1  0
 26 25  1  6
 25 29  2  0
 26 27  1  0
 26 28  1  0
 27 28  1  0
 29 30  1  0
 31 32  1  0
 31 33  2  0
M  END
