
     RDKit          3D

 33 34  0  0  0  0  0  0  0  0999 V2000
   -3.5380   -3.9260   -0.0070 C   0  0  0  0  0  0  0  0  0  0  0  0
   -2.8360   -2.8260   -0.1490 C   0  0  0  0  0  0  0  0  0  0  0  0
   -3.2920   -1.6810   -0.9770 C   0  0  0  0  0  0  0  0  0  0  0  0
   -3.4280   -0.4140   -0.1590 C   0  0  0  0  0  0  0  0  0  0  0  0
   -2.6760    0.6090   -0.3400 C   0  0  0  0  0  0  0  0  0  0  0  0
   -1.5430    0.9370   -1.2610 C   0  0  2  0  0  0  0  0  0  0  0  0
   -2.1100    1.7140   -2.4080 C   0  0  0  0  0  0  0  0  0  0  0  0
   -3.1550    1.0130   -3.2160 C   0  0  0  0  0  0  0  0  0  0  0  0
   -3.6580    1.8930   -4.3450 C   0  0  0  0  0  0  0  0  0  0  0  0
   -0.5580   -0.0140   -1.4690 N   0  0  0  0  0  0  0  0  0  0  0  0
    0.7530    0.0920   -0.9420 C   0  0  0  0  0  0  0  0  0  0  0  0
    1.0240    1.0840   -0.2680 O   0  0  0  0  0  0  0  0  0  0  0  0
    1.7570   -0.8990   -1.1650 N   0  0  0  0  0  0  0  0  0  0  0  0
    3.0650   -0.7440   -0.6300 N   0  0  0  0  0  0  0  0  0  0  0  0
    3.9810    0.1590   -1.1980 C   0  0  0  0  0  0  0  0  0  0  0  0
    3.4410    0.7840   -2.2310 O   0  0  0  0  0  0  0  0  0  0  0  0
    5.3180    0.4740   -0.8450 C   0  0  0  0  0  0  0  0  0  0  0  0
    6.1480    0.0990    0.0410 C   0  0  0  0  0  0  0  0  0  0  0  0
    6.0120   -0.8570    1.0860 C   0  0  0  0  0  0  0  0  0  0  0  0
    7.0300   -1.1040    1.9230 C   0  0  0  0  0  0  0  0  0  0  0  0
    8.2890   -0.4820    1.8730 N   0  0  0  0  0  0  0  0  0  0  0  0
    9.0520   -1.0550    2.9490 C   0  0  0  0  0  0  0  0  0  0  0  0
   10.2360   -0.7370    3.2140 O   0  0  0  0  0  0  0  0  0  0  0  0
    8.2690   -2.0160    3.6520 N   0  0  0  0  0  0  0  0  0  0  0  0
    7.0020   -2.0710    3.0360 C   0  0  0  0  0  0  0  0  0  0  0  0
    6.0210   -2.7970    3.3560 O   0  0  0  0  0  0  0  0  0  0  0  0
   -3.2550    1.9110    0.8050 S   0  0  0  0  0  0  0  0  0  0  0  0
   -4.5170    0.9080    1.5530 C   0  0  0  0  0  0  0  0  0  0  0  0
   -5.3120    1.2870    2.5390 C   0  0  0  0  0  0  0  0  0  0  0  0
   -5.2340    2.6410    3.1500 C   0  0  0  0  0  0  0  0  0  0  0  0
   -4.9370    2.5770    4.5850 N   0  0  0  0  0  0  0  0  0  0  0  0
   -4.4530   -0.3320    0.8520 C   0  0  0  0  0  0  0  0  0  0  0  0
   -5.2720   -1.2740    1.1400 O   0  0  0  0  0  0  0  0  0  0  0  0
  1  2  2  0
  2  3  1  0
  3  4  1  0
  4  5  2  0
  4 32  1  0
  5  6  1  0
  5 27  1  0
  6  7  1  6
  6 10  1  0
  7  8  1  0
  8  9  1  0
 10 11  1  0
 11 12  2  0
 11 13  1  0
 13 14  1  0
 14 15  1  0
 15 16  2  0
 15 17  1  0
 17 18  2  3
 18 19  1  0
 19 20  2  3
 20 21  1  0
 20 25  1  0
 21 22  1  0
 22 23  2  0
 22 24  1  0
 24 25  1  0
 25 26  2  0
 27 28  1  0
 28 29  2  3
 28 32  1  0
 29 30  1  0
 30 31  1  0
 32 33  2  0
M  END
