
     RDKit          3D

 33 35  0  0  0  0  0  0  0  0999 V2000
    3.6590   -3.6110    2.3430 C   0  0  0  0  0  0  0  0  0  0  0  0
    3.1190   -2.1980    2.4090 C   0  0  0  0  0  0  0  0  0  0  0  0
    2.3010   -1.8490    1.2080 C   0  0  0  0  0  0  0  0  0  0  0  0
    1.7590   -0.4190    1.2900 C   0  0  2  0  0  0  0  0  0  0  0  0
    2.9500    0.4710    1.3700 C   0  0  0  0  0  0  0  0  0  0  0  0
    3.8560    0.3450    0.2050 N   0  0  0  0  0  0  0  0  0  0  0  0
    3.4220    0.6490   -1.0890 C   0  0  0  0  0  0  0  0  0  0  0  0
    2.1750    1.0500   -1.1880 O   0  0  0  0  0  0  0  0  0  0  0  0
    4.1450    0.5840   -2.3070 C   0  0  0  0  0  0  0  0  0  0  0  0
    3.3660    0.9620   -3.5250 N   0  0  0  0  0  0  0  0  0  0  0  0
    5.3410    0.2640   -2.5940 C   0  0  0  0  0  0  0  0  0  0  0  0
    6.4630   -0.1660   -1.7830 C   0  0  0  0  0  0  0  0  0  0  0  0
    6.9130   -1.4610   -2.1650 O   0  0  0  0  0  0  0  0  0  0  0  0
    0.8610   -0.3320    2.3670 N   0  0  0  0  0  0  0  0  0  0  0  0
   -0.2970   -1.1570    2.2010 C   0  0  0  0  0  0  0  0  0  0  0  0
   -1.2500   -0.5990    1.1560 C   0  0  0  0  0  0  0  0  0  0  0  0
   -1.5740    0.7550    1.5310 N   0  0  0  0  0  0  0  0  0  0  0  0
   -2.7540    1.3400    1.0030 C   0  0  0  0  0  0  0  0  0  0  0  0
   -3.4690    0.6480    0.0400 C   0  0  0  0  0  0  0  0  0  0  0  0
   -4.6210    1.1460   -0.5120 C   0  0  0  0  0  0  0  0  0  0  0  0
   -5.3890    0.4160   -1.5410 C   0  0  0  0  0  0  0  0  0  0  0  0
   -4.9780   -0.8200   -1.9860 C   0  0  0  0  0  0  0  0  0  0  0  0
   -5.7280   -1.4800   -2.9570 C   0  0  0  0  0  0  0  0  0  0  0  0
   -6.8300   -0.9410   -3.4620 N   0  0  0  0  0  0  0  0  0  0  0  0
   -7.2510    0.2510   -3.0530 C   0  0  0  0  0  0  0  0  0  0  0  0
   -8.4010    0.8350   -3.5650 O   0  0  0  0  0  0  0  0  0  0  0  0
   -6.5310    0.9530   -2.0770 C   0  0  0  0  0  0  0  0  0  0  0  0
   -5.0520    2.3480   -0.0880 N   0  0  0  0  0  0  0  0  0  0  0  0
   -4.3670    3.0500    0.8590 C   0  0  0  0  0  0  0  0  0  0  0  0
   -4.8020    4.1770    1.2330 O   0  0  0  0  0  0  0  0  0  0  0  0
   -3.2150    2.5690    1.4200 C   0  0  0  0  0  0  0  0  0  0  0  0
   -0.7680    1.5430    2.4050 C   0  0  0  0  0  0  0  0  0  0  0  0
    0.4910    0.9200    2.8910 C   0  0  0  0  0  0  0  0  0  0  0  0
  1  2  1  0
  2  3  1  0
  4  3  1  1
  4  5  1  0
  4 14  1  0
  5  6  1  0
  6  7  1  0
  7  8  2  0
  7  9  1  0
  9 10  1  0
  9 11  2  3
 11 12  1  0
 12 13  1  0
 14 15  1  0
 14 33  1  0
 15 16  1  0
 16 17  1  0
 17 18  1  0
 17 32  1  0
 18 19  1  0
 18 31  2  0
 19 20  2  0
 20 21  1  0
 20 28  1  0
 21 22  2  0
 21 27  1  0
 22 23  1  0
 23 24  2  0
 24 25  1  0
 25 26  1  0
 25 27  2  0
 28 29  1  0
 29 30  2  0
 29 31  1  0
 32 33  1  0
M  END
