
     RDKit          3D

 33 33  0  0  0  0  0  0  0  0999 V2000
    7.9590    2.6080    0.4520 C   0  0  0  0  0  0  0  0  0  0  0  0
    6.7760    2.0910   -0.2650 N   0  0  0  0  0  0  0  0  0  0  0  0
    6.9710    0.7050   -0.4570 C   0  0  0  0  0  0  0  0  0  0  0  0
    5.8840   -0.1840   -0.0110 C   0  0  0  0  0  0  0  0  0  0  0  0
    4.7160    0.2410    0.5490 C   0  0  0  0  0  0  0  0  0  0  0  0
    3.7580   -0.6660    1.0520 C   0  0  0  0  0  0  0  0  0  0  0  0
    2.5190   -0.1430    1.4850 N   0  0  0  0  0  0  0  0  0  0  0  0
    1.5330    0.1790    0.5270 C   0  0  0  0  0  0  0  0  0  0  0  0
    1.7880   -0.0230   -0.6690 O   0  0  0  0  0  0  0  0  0  0  0  0
    0.2500    0.7280    0.9250 C   0  0  0  0  0  0  0  0  0  0  0  0
    0.0040    1.0420    2.1200 O   0  0  0  0  0  0  0  0  0  0  0  0
   -0.7390    0.8960   -0.0790 N   0  0  0  0  0  0  0  0  0  0  0  0
   -2.1130    1.4520    0.2530 C   0  0  2  0  0  0  0  0  0  0  0  0
   -2.6930    0.2640    0.9740 C   0  0  0  0  0  0  0  0  0  0  0  0
   -4.0580    0.2080    1.3330 N   0  0  0  0  0  0  0  0  0  0  0  0
   -5.0060   -0.2700    0.3940 C   0  0  0  0  0  0  0  0  0  0  0  0
   -4.7100   -0.7670   -0.7330 O   0  0  0  0  0  0  0  0  0  0  0  0
   -6.4000   -0.1910    0.7430 N   0  0  0  0  0  0  0  0  0  0  0  0
   -7.3730   -0.6670   -0.1950 C   0  0  2  0  0  0  0  0  0  0  0  0
   -7.2670   -2.1220   -0.3960 C   0  0  0  0  0  0  0  0  0  0  0  0
   -7.0970   -0.0400   -1.5960 C   0  0  0  0  0  0  0  0  0  0  0  0
   -8.7390   -0.1790    0.2040 C   0  0  0  0  0  0  0  0  0  0  0  0
   -8.7560    1.3540    0.1290 C   0  0  0  0  0  0  0  0  0  0  0  0
   -7.8390    1.9500    0.9350 O   0  0  0  0  0  0  0  0  0  0  0  0
   -2.7610    1.9950   -0.8910 C   0  0  0  0  0  0  0  0  0  0  0  0
   -2.2530    3.2160   -1.5290 N   0  0  0  0  0  0  0  0  0  0  0  0
   -3.7600    1.5400   -1.4790 O   0  0  0  0  0  0  0  0  0  0  0  0
    3.9950   -1.9950    0.9880 C   0  0  0  0  0  0  0  0  0  0  0  0
    5.1780   -2.4260    0.4120 C   0  0  0  0  0  0  0  0  0  0  0  0
    6.1190   -1.5850   -0.0910 C   0  0  0  0  0  0  0  0  0  0  0  0
    7.2360   -1.9940   -0.9490 C   0  0  0  0  0  0  0  0  0  0  0  0
    7.4860   -3.7700   -0.8770 S   0  0  0  0  0  0  0  0  0  0  0  0
    8.6120   -4.2040    0.5100 C   0  0  0  0  0  0  0  0  0  0  0  0
  1  2  1  0
  2  3  1  0
  3  4  1  0
  4  5  2  0
  4 30  1  0
  5  6  1  0
  6  7  1  0
  6 28  2  0
  7  8  1  0
  8  9  2  0
  8 10  1  0
 10 11  2  0
 10 12  1  0
 12 13  1  0
 13 14  1  6
 13 25  1  0
 14 15  1  0
 15 16  1  0
 16 17  2  0
 16 18  1  0
 18 19  1  0
 19 20  1  6
 19 21  1  0
 19 22  1  0
 22 23  1  0
 23 24  1  0
 25 26  1  0
 25 27  2  0
 28 29  1  0
 29 30  2  0
 30 31  1  0
 31 32  1  0
 32 33  1  0
M  CHG  1   2   1
M  END
