
     RDKit          3D

 33 35  0  0  0  0  0  0  0  0999 V2000
   -1.7790    2.1670    0.0700 C   0  0  0  0  0  0  0  0  0  0  0  0
   -3.2570    2.0190    0.3410 C   0  0  0  0  0  0  0  0  0  0  0  0
   -3.7790    0.6580   -0.0660 C   0  0  1  0  0  0  0  0  0  0  0  0
   -3.1580   -0.4880    0.6340 C   0  0  0  0  0  0  0  0  0  0  0  0
   -1.7570   -0.7150    0.4890 N   0  0  0  0  0  0  0  0  0  0  0  0
   -1.0850   -1.2110   -0.6660 C   0  0  0  0  0  0  0  0  0  0  0  0
   -1.7130   -1.5390   -1.7550 C   0  0  0  0  0  0  0  0  0  0  0  0
   -1.0090   -2.0280   -2.8830 N   0  0  0  0  0  0  0  0  0  0  0  0
    0.4080   -1.7530   -3.0130 C   0  0  0  0  0  0  0  0  0  0  0  0
    1.0380   -1.9970   -1.7060 N   0  0  0  0  0  0  0  0  0  0  0  0
    0.3640   -1.4270   -0.5810 C   0  0  0  0  0  0  0  0  0  0  0  0
    1.0530   -1.0770    0.4730 N   0  0  0  0  0  0  0  0  0  0  0  0
    2.4420   -1.2690    0.6140 C   0  0  0  0  0  0  0  0  0  0  0  0
    2.8920   -2.5600    0.9040 C   0  0  0  0  0  0  0  0  0  0  0  0
    1.9590   -3.6390    1.0740 C   0  0  0  0  0  0  0  0  0  0  0  0
    0.5690   -3.5530    1.1140 N   0  0  0  0  0  0  0  0  0  0  0  0
    2.4420   -4.8190    1.2100 O   0  0  0  0  0  0  0  0  0  0  0  0
    4.2670   -2.7600    1.0760 C   0  0  0  0  0  0  0  0  0  0  0  0
    4.6280   -3.9400    1.3340 O   0  0  0  0  0  0  0  0  0  0  0  0
    5.1310   -1.7510    0.9710 N   0  0  0  0  0  0  0  0  0  0  0  0
    4.7420   -0.5020    0.6970 C   0  0  0  0  0  0  0  0  0  0  0  0
    5.6970    0.5220    0.6400 C   0  0  0  0  0  0  0  0  0  0  0  0
    5.3260    1.8020    0.4040 C   0  0  0  0  0  0  0  0  0  0  0  0
    3.9860    2.0570    0.2190 C   0  0  0  0  0  0  0  0  0  0  0  0
    3.5280    3.3350   -0.0280 O   0  0  0  0  0  0  0  0  0  0  0  0
    4.3900    4.4540   -0.1100 C   0  0  0  0  0  0  0  0  0  0  0  0
    3.0330    1.0320    0.2740 C   0  0  0  0  0  0  0  0  0  0  0  0
    1.6990    1.4230    0.0640 O   0  0  0  0  0  0  0  0  0  0  0  0
    1.3110    1.6500   -1.2980 C   0  0  0  0  0  0  0  0  0  0  0  0
    3.3740   -0.2490    0.5120 C   0  0  0  0  0  0  0  0  0  0  0  0
   -5.2900    0.6350   -0.0370 C   0  0  1  0  0  0  0  0  0  0  0  0
   -5.8410   -0.7140   -0.4400 C   0  0  0  0  0  0  0  0  0  0  0  0
   -5.8730    0.9700    1.3170 C   0  0  0  0  0  0  0  0  0  0  0  0
  1  2  1  0
  3  2  1  1
  3  4  1  0
  3 31  1  0
  4  5  1  0
  5  6  1  0
  6  7  2  0
  6 11  1  0
  7  8  1  0
  8  9  1  0
  9 10  1  0
 10 11  1  0
 11 12  2  3
 12 13  1  0
 13 14  2  0
 13 30  1  0
 14 15  1  0
 14 18  1  0
 15 16  1  0
 15 17  2  0
 18 19  2  0
 18 20  1  0
 20 21  1  0
 21 22  2  0
 21 30  1  0
 22 23  1  0
 23 24  2  0
 24 25  1  0
 24 27  1  0
 25 26  1  0
 27 28  1  0
 27 30  2  0
 28 29  1  0
 31 32  1  1
 31 33  1  0
M  END
