
     RDKit          3D

 12 13  0  0  0  0  0  0  0  0999 V2000
   -3.2350    0.1720   -0.0850 C   0  0  0  0  0  0  0  0  0  0  0  0
   -1.8570   -0.2150    0.4070 C   0  0  1  0  0  0  0  0  0  0  0  0
   -1.0300   -0.6650   -0.7660 C   0  0  0  0  0  0  0  0  0  0  0  0
    0.3540   -0.3520   -0.2920 C   0  0  0  0  0  0  0  0  0  0  0  0
    1.4900   -0.8400   -0.6770 C   0  0  0  0  0  0  0  0  0  0  0  0
    2.9800   -0.3150    0.0270 S   0  0  2  0  0  0  0  0  0  0  0  0
    3.8500    0.3080   -1.0240 O   0  0  0  0  0  0  0  0  0  0  0  0
    3.7530   -1.4360    0.6470 O   0  0  0  0  0  0  0  0  0  0  0  0
    2.5760    0.8660    1.2090 N   0  0  0  0  0  0  0  0  0  0  0  0
    1.2170    1.1790    1.3890 C   0  0  0  0  0  0  0  0  0  0  0  0
    0.2240    0.6520    0.7360 C   0  0  0  0  0  0  0  0  0  0  0  0
   -1.1530    0.9140    0.8600 O   0  0  0  0  0  0  0  0  0  0  0  0
  2  1  1  6
  2  3  1  0
  2 12  1  0
  3  4  1  0
  4  5  2  0
  4 11  1  0
  5  6  1  0
  6  7  2  0
  6  8  2  0
  6  9  1  1
  9 10  1  0
 10 11  2  0
 11 12  1  0
M  END
