
     RDKit          3D

 12 13  0  0  0  0  0  0  0  0999 V2000
   -1.9850    2.2020   -0.9380 O   0  0  0  0  0  0  0  0  0  0  0  0
   -1.1670    1.4120   -0.3910 C   0  0  0  0  0  0  0  0  0  0  0  0
    0.1920    1.6790   -0.5470 O   0  0  0  0  0  0  0  0  0  0  0  0
    1.2940    0.8220   -0.3120 C   0  0  0  0  0  0  0  0  0  0  0  0
    2.5330    1.4080   -0.4190 C   0  0  0  0  0  0  0  0  0  0  0  0
    3.6480    0.0670   -0.0690 S   0  0  0  0  0  0  0  0  0  0  0  0
    2.4640   -1.0990    0.1780 C   0  0  0  0  0  0  0  0  0  0  0  0
    1.2410   -0.4700   -0.0050 C   0  0  0  0  0  0  0  0  0  0  0  0
    0.0720   -1.2810    0.1580 N   0  0  0  0  0  0  0  0  0  0  0  0
   -1.2880   -0.9880   -0.3240 C   0  0  0  0  0  0  0  0  0  0  0  0
   -1.7270    0.2640    0.3720 C   0  0  2  0  0  0  0  0  0  0  0  0
   -3.0860    0.3610    0.5560 O   0  0  0  0  0  0  0  0  0  0  0  0
  1  2  2  0
  2  3  1  0
  2 11  1  0
  3  4  1  0
  4  5  2  0
  4  8  1  0
  5  6  1  0
  6  7  1  0
  7  8  2  0
  8  9  1  0
  9 10  1  0
 10 11  1  0
 11 12  1  6
M  END
