
     RDKit          3D

 12 12  0  0  0  0  0  0  0  0999 V2000
    3.4330   -0.3000    0.3660 C   0  0  0  0  0  0  0  0  0  0  0  0
    2.2060   -0.4950   -0.1370 C   0  0  0  0  0  0  0  0  0  0  0  0
    2.0380   -1.3890   -1.2740 C   0  0  0  0  0  0  0  0  0  0  0  0
    2.8500   -2.0650   -1.9310 O   0  0  0  0  0  0  0  0  0  0  0  0
    0.2830   -1.3400   -1.5900 S   0  0  0  0  0  0  0  0  0  0  0  0
   -0.1160   -0.2020   -0.2760 C   0  0  0  0  0  0  0  0  0  0  0  0
   -1.4870    0.2790    0.0230 C   0  0  0  0  0  0  0  0  0  0  0  0
   -1.7220    1.0810    0.9580 O   0  0  0  0  0  0  0  0  0  0  0  0
   -2.5460   -0.1560   -0.7410 O   0  0  0  0  0  0  0  0  0  0  0  0
   -3.8790    0.2340   -0.5470 C   0  0  0  0  0  0  0  0  0  0  0  0
    0.9910    0.1000    0.3340 C   0  0  0  0  0  0  0  0  0  0  0  0
    0.9730    1.0180    1.4600 N   0  0  0  0  0  0  0  0  0  0  0  0
  1  2  2  0
  2  3  1  0
  2 11  1  0
  3  4  2  0
  3  5  1  0
  5  6  1  0
  6  7  1  0
  6 11  2  0
  7  8  2  0
  7  9  1  0
  9 10  1  0
 11 12  1  0
M  END
