
     RDKit          3D

 12 12  0  0  0  0  0  0  0  0999 V2000
    4.1810    0.3880    0.2400 N   0  0  0  0  0  0  0  0  0  0  0  0
    3.0490   -0.4400    0.2130 C   0  0  0  0  0  0  0  0  0  0  0  0
    3.1890   -2.0620    0.1860 S   0  0  0  0  0  0  0  0  0  0  0  0
    1.7030    0.1900    0.2100 C   0  0  0  0  0  0  0  0  0  0  0  0
    1.6450    1.4410    0.2310 O   0  0  0  0  0  0  0  0  0  0  0  0
    0.6200   -0.6120    0.1840 O   0  0  0  0  0  0  0  0  0  0  0  0
   -0.6930   -0.2290    0.1760 C   0  0  0  0  0  0  0  0  0  0  0  0
   -1.5890   -1.2330    0.1490 C   0  0  0  0  0  0  0  0  0  0  0  0
   -3.0120   -0.9830    0.1370 C   0  0  0  0  0  0  0  0  0  0  0  0
   -3.3760    0.3690    0.1570 O   0  0  0  0  0  0  0  0  0  0  0  0
   -2.4470    1.3870    0.1860 C   0  0  0  0  0  0  0  0  0  0  0  0
   -1.1320    1.1270    0.1950 C   0  0  0  0  0  0  0  0  0  0  0  0
  1  2  1  0
  2  3  2  0
  2  4  1  0
  4  5  2  0
  4  6  1  0
  6  7  1  0
  7  8  2  0
  7 12  1  0
  8  9  1  0
  9 10  1  0
 10 11  1  0
 11 12  2  0
M  END
