
     RDKit          3D

 12 13  0  0  0  0  0  0  0  0999 V2000
   -3.7590   -1.6400   -0.2940 O   0  0  0  0  0  0  0  0  0  0  0  0
   -2.7730   -0.8440   -0.3700 C   0  0  0  0  0  0  0  0  0  0  0  0
   -2.8890    0.5840    0.0630 C   0  0  0  0  0  0  0  0  0  0  0  0
   -1.6460    1.0110    0.5920 O   0  0  0  0  0  0  0  0  0  0  0  0
   -0.4210    0.5950    0.1040 C   0  0  0  0  0  0  0  0  0  0  0  0
   -0.3510   -0.5060   -0.6030 C   0  0  0  0  0  0  0  0  0  0  0  0
   -1.5110   -1.2640   -0.8670 N   0  0  0  0  0  0  0  0  0  0  0  0
    1.1190   -1.2300   -1.3310 S   0  0  0  0  0  0  0  0  0  0  0  0
    2.4630   -1.1060   -0.1080 C   0  0  0  0  0  0  0  0  0  0  0  0
    2.6340    0.3000    0.4000 C   0  0  0  0  0  0  0  0  0  0  0  0
    1.8150    1.2150   -0.2570 O   0  0  0  0  0  0  0  0  0  0  0  0
    0.6920    1.5410    0.4940 C   0  0  0  0  0  0  0  0  0  0  0  0
  1  2  2  0
  2  3  1  0
  2  7  1  0
  3  4  1  0
  4  5  1  0
  5  6  2  0
  5 12  1  0
  6  7  1  0
  6  8  1  0
  8  9  1  0
  9 10  1  0
 10 11  1  0
 11 12  1  0
M  END
