
     RDKit          3D

 12 12  0  0  0  0  0  0  0  0999 V2000
    3.3110   -0.3170   -0.0890 N   0  0  0  0  0  0  0  0  0  0  0  0
    2.0960    0.1070   -0.1350 C   0  0  0  0  0  0  0  0  0  0  0  0
    1.8680    1.8620   -0.3680 S   0  0  0  0  0  0  0  0  0  0  0  0
    3.3400    2.6950   -0.4930 O   0  0  0  0  0  0  0  0  0  0  0  0
    0.9680   -0.7930   -0.0050 C   0  0  0  0  0  0  0  0  0  0  0  0
    1.1930   -2.1450    0.1750 O   0  0  0  0  0  0  0  0  0  0  0  0
   -0.2920   -0.3970   -0.0470 C   0  0  0  0  0  0  0  0  0  0  0  0
   -1.4130   -1.3140    0.0860 C   0  0  0  0  0  0  0  0  0  0  0  0
   -2.6490   -0.9180    0.0440 C   0  0  0  0  0  0  0  0  0  0  0  0
   -2.9480    0.4930   -0.1430 C   0  0  0  0  0  0  0  0  0  0  0  0
   -1.9490    1.3600   -0.2680 C   0  0  0  0  0  0  0  0  0  0  0  0
   -0.6200    0.9620   -0.2260 O   0  0  0  0  0  0  0  0  0  0  0  0
  1  2  2  0
  2  3  1  0
  2  5  1  0
  3  4  1  0
  5  6  1  0
  5  7  2  3
  7  8  1  0
  7 12  1  0
  8  9  2  0
  9 10  1  0
 10 11  2  0
 11 12  1  0
M  END
