
     RDKit          3D

 12 13  0  0  0  0  0  0  0  0999 V2000
   -2.6000   -0.6090    0.6250 C   0  0  0  0  0  0  0  0  0  0  0  0
   -1.9340   -0.3750   -0.7030 C   0  0  1  0  0  0  0  0  0  0  0  0
   -1.2610    0.9550   -0.7980 C   0  0  0  0  0  0  0  0  0  0  0  0
    0.1450    0.6300   -0.3430 C   0  0  0  0  0  0  0  0  0  0  0  0
    1.0860    1.4650    0.0390 C   0  0  0  0  0  0  0  0  0  0  0  0
    2.6320    0.8580    0.5220 S   0  0  1  0  0  0  0  0  0  0  0  0
    3.7630    1.4620   -0.2550 O   0  0  0  0  0  0  0  0  0  0  0  0
    2.8330    1.2140    1.9700 O   0  0  0  0  0  0  0  0  0  0  0  0
    2.5900   -0.8530    0.3770 N   0  0  0  0  0  0  0  0  0  0  0  0
    1.3910   -1.4540   -0.0750 C   0  0  0  0  0  0  0  0  0  0  0  0
    0.2960   -0.8050   -0.3980 C   0  0  0  0  0  0  0  0  0  0  0  0
   -0.9180   -1.3550   -0.8500 O   0  0  0  0  0  0  0  0  0  0  0  0
  2  1  1  1
  2  3  1  0
  2 12  1  0
  3  4  1  0
  4  5  2  0
  4 11  1  0
  5  6  1  0
  6  7  2  0
  6  8  2  0
  6  9  1  1
  9 10  1  0
 10 11  2  0
 11 12  1  0
M  END
