
     RDKit          3D

 12 13  0  0  0  0  0  0  0  0999 V2000
   -1.9020   -2.3080    0.5550 O   0  0  0  0  0  0  0  0  0  0  0  0
   -1.1260   -1.4150    0.0870 C   0  0  0  0  0  0  0  0  0  0  0  0
    0.2430   -1.6820    0.1370 O   0  0  0  0  0  0  0  0  0  0  0  0
    1.3280   -0.7750    0.2330 C   0  0  0  0  0  0  0  0  0  0  0  0
    2.5920   -1.3640    0.3650 C   0  0  0  0  0  0  0  0  0  0  0  0
    3.7000    0.0010    0.4590 S   0  0  0  0  0  0  0  0  0  0  0  0
    2.4750    1.2520    0.3230 C   0  0  0  0  0  0  0  0  0  0  0  0
    1.2600    0.5430    0.2110 C   0  0  0  0  0  0  0  0  0  0  0  0
    0.0840    1.3570    0.0830 N   0  0  0  0  0  0  0  0  0  0  0  0
   -1.3140    1.0230    0.3520 C   0  0  0  0  0  0  0  0  0  0  0  0
   -1.7450   -0.1840   -0.4610 C   0  0  2  0  0  0  0  0  0  0  0  0
   -3.1230   -0.2630   -0.4130 O   0  0  0  0  0  0  0  0  0  0  0  0
  1  2  2  0
  2  3  1  0
  2 11  1  0
  3  4  1  0
  4  5  2  0
  4  8  1  0
  5  6  1  0
  6  7  1  0
  7  8  2  0
  8  9  1  0
  9 10  1  0
 10 11  1  0
 11 12  1  1
M  END
