
     RDKit          3D

 12 13  0  0  0  0  0  0  0  0999 V2000
   -3.3770   -0.0760    1.4030 O   0  0  0  0  0  0  0  0  0  0  0  0
   -2.2470    0.1360    0.8860 C   0  0  0  0  0  0  0  0  0  0  0  0
   -1.3520   -0.8480    0.9170 N   0  0  0  0  0  0  0  0  0  0  0  0
   -0.1250   -0.6270    0.3600 C   0  0  0  0  0  0  0  0  0  0  0  0
    0.1620    0.5800   -0.2120 C   0  0  0  0  0  0  0  0  0  0  0  0
   -0.7550    1.5430   -0.2270 O   0  0  0  0  0  0  0  0  0  0  0  0
   -1.9240    1.3430    0.3000 C   0  0  0  0  0  0  0  0  0  0  0  0
   -2.8340    2.2260    0.3140 O   0  0  0  0  0  0  0  0  0  0  0  0
    1.5360    0.5390   -0.7260 C   0  0  0  0  0  0  0  0  0  0  0  0
    2.3420    1.9230   -1.5660 S   0  0  0  0  0  0  0  0  0  0  0  0
    2.0560   -0.6430   -0.4750 C   0  0  0  0  0  0  0  0  0  0  0  0
    1.0790   -1.4740    0.2190 C   0  0  0  0  0  0  0  0  0  0  0  0
  1  2  2  0
  2  3  1  0
  2  7  1  0
  3  4  1  0
  4  5  2  0
  4 12  1  0
  5  6  1  0
  5  9  1  0
  6  7  1  0
  7  8  2  0
  9 10  1  0
  9 11  2  0
 11 12  1  0
M  END
