
     RDKit          3D

 12 12  0  0  0  0  0  0  0  0999 V2000
   -3.1470   -1.6940    0.3930 N   0  0  0  0  0  0  0  0  0  0  0  0
   -2.2140   -0.9130   -0.1640 C   0  0  0  0  0  0  0  0  0  0  0  0
   -2.6630   -0.1750   -1.6580 S   0  0  0  0  0  0  0  0  0  0  0  0
   -1.5700    0.7990   -2.4040 O   0  0  0  0  0  0  0  0  0  0  0  0
   -1.0000   -0.8020    0.5430 C   0  0  0  0  0  0  0  0  0  0  0  0
   -0.9450   -1.5520    1.7690 O   0  0  0  0  0  0  0  0  0  0  0  0
    0.0630   -0.1190    0.2350 C   0  0  0  0  0  0  0  0  0  0  0  0
    1.2120   -0.1900    1.1830 C   0  0  0  0  0  0  0  0  0  0  0  0
    2.2910    0.4990    0.8770 C   0  0  0  0  0  0  0  0  0  0  0  0
    2.3590    1.2970   -0.3350 C   0  0  0  0  0  0  0  0  0  0  0  0
    1.3520    1.3710   -1.1850 C   0  0  0  0  0  0  0  0  0  0  0  0
    0.2160    0.6590   -0.8850 O   0  0  0  0  0  0  0  0  0  0  0  0
  1  2  2  0
  2  3  1  0
  2  5  1  0
  3  4  1  0
  5  6  1  0
  5  7  2  3
  7  8  1  0
  7 12  1  0
  8  9  2  0
  9 10  1  0
 10 11  2  0
 11 12  1  0
M  END
