
     RDKit          3D

 12 12  0  0  0  0  0  0  0  0999 V2000
    3.7760    0.1150    0.6710 N   0  0  0  0  0  0  0  0  0  0  0  0
    3.0860    0.2830   -0.5580 C   0  0  0  0  0  0  0  0  0  0  0  0
    3.9870    0.5770   -1.8820 S   0  0  0  0  0  0  0  0  0  0  0  0
    1.6480    0.2050   -0.6840 C   0  0  0  0  0  0  0  0  0  0  0  0
    1.1240    0.3670   -1.8110 O   0  0  0  0  0  0  0  0  0  0  0  0
    0.7960   -0.0400    0.3790 O   0  0  0  0  0  0  0  0  0  0  0  0
   -0.5910   -0.1100    0.2300 C   0  0  0  0  0  0  0  0  0  0  0  0
   -1.2380   -1.2220   -0.0360 C   0  0  0  0  0  0  0  0  0  0  0  0
   -2.7030   -1.2370   -0.1820 C   0  0  0  0  0  0  0  0  0  0  0  0
   -3.2890    0.0200   -0.0110 O   0  0  0  0  0  0  0  0  0  0  0  0
   -2.6180    1.1820    0.2660 C   0  0  0  0  0  0  0  0  0  0  0  0
   -1.3180    1.1650    0.3910 C   0  0  0  0  0  0  0  0  0  0  0  0
  1  2  1  0
  2  3  2  0
  2  4  1  0
  4  5  2  0
  4  6  1  0
  6  7  1  0
  7  8  2  0
  7 12  1  0
  8  9  1  0
  9 10  1  0
 10 11  1  0
 11 12  2  0
M  END
