
     RDKit          3D

 12 13  0  0  0  0  0  0  0  0999 V2000
   -3.6390    0.1300   -0.2780 O   0  0  0  0  0  0  0  0  0  0  0  0
   -2.3880    0.2470   -0.2090 C   0  0  0  0  0  0  0  0  0  0  0  0
   -1.6530   -0.8610   -0.1610 N   0  0  0  0  0  0  0  0  0  0  0  0
   -0.2920   -0.6980   -0.0870 C   0  0  0  0  0  0  0  0  0  0  0  0
    0.2480    0.5650   -0.0650 C   0  0  0  0  0  0  0  0  0  0  0  0
   -0.5250    1.6560   -0.1150 O   0  0  0  0  0  0  0  0  0  0  0  0
   -1.8090    1.4850   -0.1850 C   0  0  0  0  0  0  0  0  0  0  0  0
   -2.5460    2.5190   -0.2320 O   0  0  0  0  0  0  0  0  0  0  0  0
    1.7130    0.4840    0.0170 C   0  0  0  0  0  0  0  0  0  0  0  0
    2.8360    1.8750    0.0700 S   0  0  0  0  0  0  0  0  0  0  0  0
    2.0180   -0.7980    0.0420 C   0  0  0  0  0  0  0  0  0  0  0  0
    0.8260   -1.6540   -0.0190 C   0  0  0  0  0  0  0  0  0  0  0  0
  1  2  2  0
  2  3  1  0
  2  7  1  0
  3  4  1  0
  4  5  2  0
  4 12  1  0
  5  6  1  0
  5  9  1  0
  6  7  1  0
  7  8  2  0
  9 10  1  0
  9 11  2  0
 11 12  1  0
M  END
