
     RDKit          3D

 33 33  0  0  0  0  0  0  0  0999 V2000
   -5.3540   -3.5140   -2.2570 C   0  0  0  0  0  0  0  0  0  0  0  0
   -5.2710   -2.6150   -1.2960 C   0  0  0  0  0  0  0  0  0  0  0  0
   -6.3590   -2.5240   -0.3360 C   0  0  0  0  0  0  0  0  0  0  0  0
   -7.4120   -3.2550   -0.3170 N   0  0  0  0  0  0  0  0  0  0  0  0
   -4.1320   -1.6750   -1.2100 C   0  0  0  0  0  0  0  0  0  0  0  0
   -3.1440   -1.9170   -0.1360 C   0  0  2  0  0  0  0  0  0  0  0  0
   -2.5780   -3.3400   -0.5390 C   0  0  0  0  0  0  0  0  0  0  0  0
   -3.6510   -2.2130    1.2440 C   0  0  0  0  0  0  0  0  0  0  0  0
   -4.4210   -3.3670    1.3390 O   0  0  0  0  0  0  0  0  0  0  0  0
   -1.9760   -1.0300   -0.0890 C   0  0  0  0  0  0  0  0  0  0  0  0
   -0.6850   -1.5000   -0.3200 C   0  0  0  0  0  0  0  0  0  0  0  0
    0.4590   -0.7140   -0.3570 C   0  0  0  0  0  0  0  0  0  0  0  0
    1.7110   -1.3150   -0.6240 N   0  0  0  0  0  0  0  0  0  0  0  0
    2.9290   -0.6590   -0.3240 C   0  0  0  0  0  0  0  0  0  0  0  0
    3.0180    0.4740    0.1960 O   0  0  0  0  0  0  0  0  0  0  0  0
    4.2350   -1.3520   -0.6430 C   0  0  0  0  0  0  0  0  0  0  0  0
    5.3480   -0.3920   -0.1990 C   0  0  0  0  0  0  0  0  0  0  0  0
    6.6340   -1.0810   -0.5170 C   0  0  0  0  0  0  0  0  0  0  0  0
    7.8020   -0.2490   -0.1070 C   0  0  0  0  0  0  0  0  0  0  0  0
    7.7960    1.0610   -0.8350 C   0  0  0  0  0  0  0  0  0  0  0  0
    8.9670    1.8190   -0.4130 N   0  0  0  0  0  0  0  0  0  0  0  0
    9.1730    3.1050   -0.9760 C   0  0  0  0  0  0  0  0  0  0  0  0
   10.3080    3.8430   -0.5680 N   0  0  0  0  0  0  0  0  0  0  0  0
    8.3370    3.5270   -1.8100 O   0  0  0  0  0  0  0  0  0  0  0  0
    0.2810    0.6180   -0.1480 C   0  0  0  0  0  0  0  0  0  0  0  0
   -0.9870    1.1590    0.0910 C   0  0  0  0  0  0  0  0  0  0  0  0
   -2.0930    0.3160    0.1170 C   0  0  0  0  0  0  0  0  0  0  0  0
   -3.3280    0.9280    0.4140 N   0  0  0  0  0  0  0  0  0  0  0  0
   -3.4630    2.3650    0.7110 C   0  0  2  0  0  0  0  0  0  0  0  0
   -2.9920    2.7340    2.0780 C   0  0  0  0  0  0  0  0  0  0  0  0
   -3.7650    2.0090    3.1680 C   0  0  0  0  0  0  0  0  0  0  0  0
   -4.9410    2.7830    0.6470 C   0  0  0  0  0  0  0  0  0  0  0  0
   -5.0390    4.1760    0.9370 N   0  0  0  0  0  0  0  0  0  0  0  0
  1  2  2  0
  2  3  1  0
  2  5  1  0
  3  4  2  0
  5  6  1  0
  6  7  1  6
  6  8  1  0
  6 10  1  0
  8  9  1  0
 10 11  2  0
 10 27  1  0
 11 12  1  0
 12 13  1  0
 12 25  2  0
 13 14  1  0
 14 15  2  0
 14 16  1  0
 16 17  1  0
 17 18  1  0
 18 19  1  0
 19 20  1  0
 20 21  1  0
 21 22  1  0
 22 23  1  0
 22 24  2  0
 25 26  1  0
 26 27  2  0
 27 28  1  0
 28 29  1  0
 29 30  1  1
 29 32  1  0
 30 31  1  0
 32 33  1  0
M  CHG  1  33   1
M  END
