
     RDKit          3D

 30 30  0  0  0  0  0  0  0  0999 V2000
   -5.0770    2.6130    1.1400 C   0  0  0  0  0  0  0  0  0  0  0  0
   -4.0450    1.9080    1.7030 O   0  0  0  0  0  0  0  0  0  0  0  0
   -3.8370    0.6540    1.1370 C   0  0  2  0  0  0  0  0  0  0  0  0
   -5.0440   -0.2080    1.2690 C   0  0  0  0  0  0  0  0  0  0  0  0
   -2.6990    0.0710    1.8620 N   0  0  0  0  0  0  0  0  0  0  0  0
   -3.3800    0.8580   -0.2860 C   0  0  1  0  0  0  0  0  0  0  0  0
   -2.1670    1.6140   -0.2610 N   0  0  0  0  0  0  0  0  0  0  0  0
   -0.9470    0.8220   -0.4880 C   0  0  0  0  0  0  0  0  0  0  0  0
    0.0980    0.9690    0.2990 C   0  0  0  0  0  0  0  0  0  0  0  0
    1.3560    0.3430    0.2960 N   0  0  0  0  0  0  0  0  0  0  0  0
    2.3630    0.6660    1.2670 C   0  0  0  0  0  0  0  0  0  0  0  0
    2.0370    1.5560    2.1270 O   0  0  0  0  0  0  0  0  0  0  0  0
    3.7020    0.0510    1.3270 C   0  0  0  0  0  0  0  0  0  0  0  0
    4.0400   -0.8440    0.4680 C   0  0  0  0  0  0  0  0  0  0  0  0
    5.2530   -1.5780    0.3110 C   0  0  0  0  0  0  0  0  0  0  0  0
    6.3400   -1.4220    1.1330 O   0  0  0  0  0  0  0  0  0  0  0  0
    5.3260   -2.4770   -0.7080 C   0  0  0  0  0  0  0  0  0  0  0  0
    6.4670   -3.2070   -0.9020 O   0  0  0  0  0  0  0  0  0  0  0  0
    4.5460    0.5430    2.4020 C   0  0  0  0  0  0  0  0  0  0  0  0
    3.9910    1.4700    3.1720 N   0  0  0  0  0  0  0  0  0  0  0  0
    5.8120    0.1860    2.7240 O   0  0  0  0  0  0  0  0  0  0  0  0
   -1.2300    0.0040   -1.6600 C   0  0  1  0  0  0  0  0  0  0  0  0
   -1.7400    0.8830   -2.8220 C   0  0  0  0  0  0  0  0  0  0  0  0
   -0.8400    1.8330   -3.2100 O   0  0  0  0  0  0  0  0  0  0  0  0
   -0.3440   -1.0530   -2.1370 C   0  0  1  0  0  0  0  0  0  0  0  0
   -1.0320   -1.6810   -3.3790 C   0  0  0  0  0  0  0  0  0  0  0  0
    0.8060   -0.5100   -2.6680 F   0  0  0  0  0  0  0  0  0  0  0  0
   -0.1550   -2.0340   -1.1850 O   0  0  0  0  0  0  0  0  0  0  0  0
    0.6610   -2.9910   -1.6480 F   0  0  0  0  0  0  0  0  0  0  0  0
   -2.8190   -0.7360   -1.0110 S   0  0  0  0  0  0  0  0  0  0  0  0
  1  2  1  0
  2  3  1  0
  3  4  1  6
  3  5  1  0
  3  6  1  0
  6  7  1  1
  6 30  1  0
  7  8  1  0
  8  9  2  3
  8 22  1  0
  9 10  1  0
 10 11  1  0
 11 12  2  0
 11 13  1  0
 13 14  2  3
 13 19  1  0
 14 15  1  0
 15 16  1  0
 15 17  2  3
 17 18  1  0
 19 20  2  0
 19 21  1  0
 22 23  1  6
 22 25  1  0
 22 30  1  0
 23 24  1  0
 25 26  1  6
 25 27  1  0
 25 28  1  0
 28 29  1  0
M  CHG  1  24  -1
M  END
