
     RDKit          3D

 32 35  0  0  0  0  0  0  0  0999 V2000
    2.4040   -0.5660   -3.2600 C   0  0  0  0  0  0  0  0  0  0  0  0
    3.2860   -0.7890   -2.0810 C   0  0  0  0  0  0  0  0  0  0  0  0
    4.1570   -1.8360   -2.0500 N   0  0  0  0  0  0  0  0  0  0  0  0
    4.8450   -1.8080   -0.8860 C   0  0  0  0  0  0  0  0  0  0  0  0
    5.8140   -2.6650   -0.4160 C   0  0  0  0  0  0  0  0  0  0  0  0
    6.3710   -2.4250    0.8400 C   0  0  0  0  0  0  0  0  0  0  0  0
    5.9120   -1.3300    1.5450 C   0  0  0  0  0  0  0  0  0  0  0  0
    4.9430   -0.4820    1.0630 C   0  0  0  0  0  0  0  0  0  0  0  0
    4.3800   -0.7080   -0.1850 C   0  0  0  0  0  0  0  0  0  0  0  0
    3.4030   -0.0610   -0.9230 C   0  0  0  0  0  0  0  0  0  0  0  0
    2.6120    1.1380   -0.5690 C   0  0  0  0  0  0  0  0  0  0  0  0
    1.2990    0.8700    0.0330 C   0  0  0  0  0  0  0  0  0  0  0  0
    1.2720    0.2430    1.1500 O   0  0  0  0  0  0  0  0  0  0  0  0
    0.0300    1.2310   -0.4820 N   0  0  0  0  0  0  0  0  0  0  0  0
   -1.1970    0.9100    0.2640 C   0  0  1  0  0  0  0  0  0  0  0  0
   -2.2270    1.9950    0.1120 C   0  0  0  0  0  0  0  0  0  0  0  0
   -1.8900    3.3210    0.5650 C   0  0  0  0  0  0  0  0  0  0  0  0
   -2.1820    3.7120    1.8730 C   0  0  0  0  0  0  0  0  0  0  0  0
   -1.8970    4.9720    2.3530 C   0  0  0  0  0  0  0  0  0  0  0  0
   -1.3000    5.9020    1.5270 C   0  0  0  0  0  0  0  0  0  0  0  0
   -0.9960    5.5450    0.2190 C   0  0  0  0  0  0  0  0  0  0  0  0
   -1.2980    4.2650   -0.2310 C   0  0  0  0  0  0  0  0  0  0  0  0
   -1.8670   -0.3250   -0.3040 C   0  0  0  0  0  0  0  0  0  0  0  0
   -1.8450   -0.5140   -1.5420 O   0  0  0  0  0  0  0  0  0  0  0  0
   -2.5150   -1.2550    0.5360 N   0  0  0  0  0  0  0  0  0  0  0  0
   -2.2070   -1.2020    1.9810 C   0  0  0  0  0  0  0  0  0  0  0  0
   -3.4190   -2.2700    0.1220 C   0  0  0  0  0  0  0  0  0  0  0  0
   -3.6200   -2.6740   -1.1800 C   0  0  0  0  0  0  0  0  0  0  0  0
   -4.5290   -3.6550   -1.5530 C   0  0  0  0  0  0  0  0  0  0  0  0
   -5.2870   -4.2810   -0.5970 C   0  0  0  0  0  0  0  0  0  0  0  0
   -5.1200   -3.9090    0.7170 C   0  0  0  0  0  0  0  0  0  0  0  0
   -4.2140   -2.9340    1.0690 C   0  0  0  0  0  0  0  0  0  0  0  0
  1  2  1  0
  2  3  1  0
  2 10  2  0
  3  4  1  0
  4  5  2  0
  4  9  1  0
  5  6  1  0
  6  7  2  0
  7  8  1  0
  8  9  2  0
  9 10  1  0
 10 11  1  0
 11 12  1  0
 12 13  2  0
 12 14  1  0
 14 15  1  0
 15 16  1  6
 15 23  1  0
 16 17  1  0
 17 18  2  0
 17 22  1  0
 18 19  1  0
 19 20  2  0
 20 21  1  0
 21 22  2  0
 23 24  2  0
 23 25  1  0
 25 26  1  0
 25 27  1  0
 27 28  2  0
 27 32  1  0
 28 29  1  0
 29 30  2  0
 30 31  1  0
 31 32  2  0
M  END
