
     RDKit          3D

 33 33  0  0  0  0  0  0  0  0999 V2000
   -7.9290   -0.1350    3.8020 C   0  0  0  0  0  0  0  0  0  0  0  0
   -7.4640    0.8340    2.6720 C   0  0  0  0  0  0  0  0  0  0  0  0
   -6.2510    0.2190    2.1080 C   0  0  0  0  0  0  0  0  0  0  0  0
   -5.4860    0.9040    1.0330 C   0  0  0  0  0  0  0  0  0  0  0  0
   -6.1220    1.2170   -0.2410 C   0  0  1  0  0  0  0  0  0  0  0  0
   -7.3160    2.1560   -0.0090 C   0  0  0  0  0  0  0  0  0  0  0  0
   -5.2580    1.9310   -1.2350 C   0  0  0  0  0  0  0  0  0  0  0  0
   -4.0520    1.3570   -1.6990 N   0  0  0  0  0  0  0  0  0  0  0  0
   -2.8440    1.1720   -1.0000 C   0  0  0  0  0  0  0  0  0  0  0  0
   -2.7090    1.5570    0.1820 O   0  0  0  0  0  0  0  0  0  0  0  0
   -1.7060    0.4920   -1.7170 C   0  0  0  0  0  0  0  0  0  0  0  0
   -0.5550    0.4220   -0.7610 C   0  0  0  0  0  0  0  0  0  0  0  0
    0.6290   -0.2510   -1.4100 C   0  0  0  0  0  0  0  0  0  0  0  0
    0.4940   -0.6350   -2.5850 O   0  0  0  0  0  0  0  0  0  0  0  0
    1.8400   -0.4460   -0.7380 N   0  0  0  0  0  0  0  0  0  0  0  0
    3.0150   -1.0620   -1.2290 C   0  0  0  0  0  0  0  0  0  0  0  0
    3.0900   -1.7470   -2.4130 C   0  0  0  0  0  0  0  0  0  0  0  0
    4.2890   -2.3300   -2.8640 C   0  0  0  0  0  0  0  0  0  0  0  0
    5.4430   -2.2370   -2.1340 C   0  0  0  0  0  0  0  0  0  0  0  0
    6.7210   -2.8520   -2.6020 C   0  0  0  0  0  0  0  0  0  0  0  0
    5.3830   -1.5470   -0.9320 C   0  0  0  0  0  0  0  0  0  0  0  0
    6.5660   -1.4580   -0.1560 N   0  0  0  0  0  0  0  0  0  0  0  0
    6.6770   -0.6810    1.0640 C   0  0  1  0  0  0  0  0  0  0  0  0
    7.9870   -1.0010    1.7700 C   0  0  0  0  0  0  0  0  0  0  0  0
    8.0580   -2.4170    2.1050 N   0  0  0  0  0  0  0  0  0  0  0  0
    6.7540    0.8030    0.7360 C   0  0  0  0  0  0  0  0  0  0  0  0
    6.8580    1.6830    1.9410 C   0  0  0  0  0  0  0  0  0  0  0  0
    6.9080    3.0690    1.4440 N   0  0  0  0  0  0  0  0  0  0  0  0
    4.2090   -0.9790   -0.4960 C   0  0  0  0  0  0  0  0  0  0  0  0
   -6.6510    0.0050   -0.9480 C   0  0  0  0  0  0  0  0  0  0  0  0
   -6.5000   -1.1220   -0.4390 O   0  0  0  0  0  0  0  0  0  0  0  0
   -7.3200    0.1340   -2.1880 N   0  0  0  0  0  0  0  0  0  0  0  0
   -7.8470   -1.0050   -2.9060 C   0  0  0  0  0  0  0  0  0  0  0  0
  1  2  1  0
  2  3  1  0
  3  4  1  0
  4  5  1  0
  5  6  1  1
  5  7  1  0
  5 30  1  0
  7  8  1  0
  8  9  1  0
  9 10  2  0
  9 11  1  0
 11 12  1  0
 12 13  1  0
 13 14  2  0
 13 15  1  0
 15 16  1  0
 16 17  2  0
 16 29  1  0
 17 18  1  0
 18 19  2  0
 19 20  1  0
 19 21  1  0
 21 22  1  0
 21 29  2  0
 22 23  1  0
 23 24  1  6
 23 26  1  0
 24 25  1  0
 26 27  1  0
 27 28  1  0
 30 31  2  0
 30 32  1  0
 32 33  1  0
M  CHG  2  25   1  28   1
M  END
