
     RDKit          3D

 13 14  0  0  0  0  0  0  0  0999 V2000
   -3.8240   -0.4210    0.0160 C   0  0  0  0  0  0  0  0  0  0  0  0
   -2.8080    0.4460   -0.6980 C   0  0  0  0  0  0  0  0  0  0  0  0
   -1.5500    0.4380    0.1130 C   0  0  1  0  0  0  0  0  0  0  0  0
   -0.9810   -1.3080    0.2220 S   0  0  0  0  0  0  0  0  0  0  0  0
    0.7700   -0.8660    0.0730 C   0  0  0  0  0  0  0  0  0  0  0  0
    0.8680    0.3400   -0.3630 C   0  0  0  0  0  0  0  0  0  0  0  0
    2.2240    0.9170   -0.5690 C   0  0  0  0  0  0  0  0  0  0  0  0
    3.1870    0.3510    0.4260 C   0  0  0  0  0  0  0  0  0  0  0  0
    3.1750   -1.1290    0.2790 C   0  0  0  0  0  0  0  0  0  0  0  0
    4.1430   -1.8560    0.0510 O   0  0  0  0  0  0  0  0  0  0  0  0
    1.8640   -1.7140    0.4300 N   0  0  0  0  0  0  0  0  0  0  0  0
   -0.3930    1.0090   -0.6130 C   0  0  0  0  0  0  0  0  0  0  0  0
   -0.5430    1.9990   -1.3750 O   0  0  0  0  0  0  0  0  0  0  0  0
  1  2  1  0
  3  2  1  6
  3  4  1  0
  3 12  1  0
  4  5  1  0
  5  6  2  0
  5 11  1  0
  6  7  1  0
  6 12  1  0
  7  8  1  0
  8  9  1  0
  9 10  2  0
  9 11  1  0
 12 13  2  0
M  END
