
     RDKit          3D

 36 40  0  0  0  0  0  0  0  0999 V2000
    0.0660   -2.4630    2.3280 O   0  0  0  0  0  0  0  0  0  0  0  0
    0.9230   -1.6060    2.0070 C   0  0  0  0  0  0  0  0  0  0  0  0
    0.5410   -0.3370    1.5970 N   0  0  0  0  0  0  0  0  0  0  0  0
   -0.7620    0.1430    1.4800 C   0  0  0  0  0  0  0  0  0  0  0  0
   -1.0080    1.5220    1.3950 C   0  0  0  0  0  0  0  0  0  0  0  0
   -2.2900    1.9830    1.2600 C   0  0  0  0  0  0  0  0  0  0  0  0
   -3.3830    1.1470    1.2020 C   0  0  0  0  0  0  0  0  0  0  0  0
   -3.1780   -0.1890    1.2810 C   0  0  0  0  0  0  0  0  0  0  0  0
   -4.2120   -1.1960    1.2310 C   0  0  0  0  0  0  0  0  0  0  0  0
   -4.2790   -2.1870    2.2120 C   0  0  0  0  0  0  0  0  0  0  0  0
   -5.2570   -3.1600    2.2200 C   0  0  0  0  0  0  0  0  0  0  0  0
   -6.2050   -3.1480    1.2160 C   0  0  0  0  0  0  0  0  0  0  0  0
   -6.1540   -2.1770    0.2380 C   0  0  0  0  0  0  0  0  0  0  0  0
   -5.1480   -1.1920    0.2460 C   0  0  0  0  0  0  0  0  0  0  0  0
   -5.1140   -0.2250   -0.7820 N   0  0  0  0  0  0  0  0  0  0  0  0
   -6.2680    0.6330   -0.9560 C   0  0  0  0  0  0  0  0  0  0  0  0
   -6.5080    0.8650   -2.4370 C   0  0  0  0  0  0  0  0  0  0  0  0
   -5.3530    1.6650   -2.9830 C   0  0  0  0  0  0  0  0  0  0  0  0
   -4.0790    1.3840   -2.2510 C   0  0  0  0  0  0  0  0  0  0  0  0
   -4.0130   -0.0310   -1.7050 C   0  0  0  0  0  0  0  0  0  0  0  0
   -1.8570   -0.6620    1.4200 C   0  0  0  0  0  0  0  0  0  0  0  0
    2.3540   -1.9990    2.0810 C   0  0  0  0  0  0  0  0  0  0  0  0
    2.8010   -3.2310    2.4830 C   0  0  0  0  0  0  0  0  0  0  0  0
    4.1840   -3.2010    2.4150 C   0  0  0  0  0  0  0  0  0  0  0  0
    4.5190   -1.9080    1.9600 C   0  0  0  0  0  0  0  0  0  0  0  0
    5.9010   -1.5370    1.7760 C   0  0  0  0  0  0  0  0  0  0  0  0
    6.2880   -0.3570    1.3670 C   0  0  0  0  0  0  0  0  0  0  0  0
    5.3680    0.7320    1.0460 C   0  0  0  0  0  0  0  0  0  0  0  0
    5.5140    1.1220   -0.2820 O   0  0  0  0  0  0  0  0  0  0  0  0
    6.5150    1.6760   -0.9720 C   0  0  0  0  0  0  0  0  0  0  0  0
    6.3210    1.9080   -2.3430 C   0  0  0  0  0  0  0  0  0  0  0  0
    7.3220    2.4830   -3.1080 C   0  0  0  0  0  0  0  0  0  0  0  0
    8.5300    2.8370   -2.5320 C   0  0  0  0  0  0  0  0  0  0  0  0
    8.7320    2.6200   -1.2100 C   0  0  0  0  0  0  0  0  0  0  0  0
    7.7180    2.0410   -0.4460 C   0  0  0  0  0  0  0  0  0  0  0  0
    3.3920   -1.2920    1.7970 O   0  0  0  0  0  0  0  0  0  0  0  0
  1  2  2  0
  2  3  1  0
  2 22  1  0
  3  4  1  0
  4  5  2  0
  4 21  1  0
  5  6  1  0
  6  7  2  0
  7  8  1  0
  8  9  1  0
  8 21  2  0
  9 10  2  0
  9 14  1  0
 10 11  1  0
 11 12  2  0
 12 13  1  0
 13 14  2  0
 14 15  1  0
 15 16  1  0
 15 20  1  0
 16 17  1  0
 17 18  1  0
 18 19  1  0
 19 20  1  0
 22 23  2  0
 22 36  1  0
 23 24  1  0
 24 25  2  0
 25 26  1  0
 25 36  1  0
 26 27  2  3
 27 28  1  0
 28 29  1  0
 29 30  1  0
 30 31  2  0
 30 35  1  0
 31 32  1  0
 32 33  2  0
 33 34  1  0
 34 35  2  0
M  END
