
     RDKit          3D

 36 40  0  0  0  0  0  0  0  0999 V2000
    9.3530   -0.4050    2.3560 C   0  0  0  0  0  0  0  0  0  0  0  0
    7.9920    0.1420    2.0110 C   0  0  0  0  0  0  0  0  0  0  0  0
    7.6400   -0.1220    0.5580 C   0  0  0  0  0  0  0  0  0  0  0  0
    6.3040    0.4140    0.2160 C   0  0  0  0  0  0  0  0  0  0  0  0
    6.0170    1.7340   -0.0080 C   0  0  0  0  0  0  0  0  0  0  0  0
    6.9400    2.8890    0.0340 C   0  0  0  0  0  0  0  0  0  0  0  0
    4.7080    1.7790   -0.2790 N   0  0  0  0  0  0  0  0  0  0  0  0
    4.1450    0.5580   -0.2390 C   0  0  0  0  0  0  0  0  0  0  0  0
    2.7390    0.3260   -0.4940 C   0  0  0  0  0  0  0  0  0  0  0  0
    1.9000    1.4000   -0.7750 C   0  0  0  0  0  0  0  0  0  0  0  0
    0.5680    1.2890   -1.0330 C   0  0  0  0  0  0  0  0  0  0  0  0
   -0.0420    0.0250   -1.0250 C   0  0  0  0  0  0  0  0  0  0  0  0
   -1.3750   -0.0520   -1.2860 O   0  0  0  0  0  0  0  0  0  0  0  0
   -2.0280   -0.6080   -2.3560 C   0  0  0  0  0  0  0  0  0  0  0  0
   -1.3800   -1.1720   -3.4640 C   0  0  0  0  0  0  0  0  0  0  0  0
   -2.1020   -1.7080   -4.4940 C   0  0  0  0  0  0  0  0  0  0  0  0
   -3.4890   -1.6940   -4.4440 C   0  0  0  0  0  0  0  0  0  0  0  0
   -4.1370   -1.1380   -3.3490 C   0  0  0  0  0  0  0  0  0  0  0  0
   -3.4170   -0.5970   -2.3090 C   0  0  0  0  0  0  0  0  0  0  0  0
   -4.0840   -0.0160   -1.1530 C   0  0  0  0  0  0  0  0  0  0  0  0
   -5.4660    0.0590   -0.9930 C   0  0  0  0  0  0  0  0  0  0  0  0
   -5.7130    0.6690    0.2200 C   0  0  0  0  0  0  0  0  0  0  0  0
   -7.0440    0.9630    0.8150 C   0  0  1  0  0  0  0  0  0  0  0  0
   -7.2020    0.0930    2.0540 C   0  0  0  0  0  0  0  0  0  0  0  0
   -8.6970    0.0650    2.3520 C   0  0  0  0  0  0  0  0  0  0  0  0
   -9.1800    1.3340    2.0550 O   0  0  0  0  0  0  0  0  0  0  0  0
   -8.2870    2.3560    2.3580 C   0  0  0  0  0  0  0  0  0  0  0  0
   -7.2140    2.3770    1.2590 C   0  0  0  0  0  0  0  0  0  0  0  0
   -4.5030    0.9340    0.7360 N   0  0  0  0  0  0  0  0  0  0  0  0
   -3.5840    0.5250   -0.0840 O   0  0  0  0  0  0  0  0  0  0  0  0
    0.7560   -1.0650   -0.7480 C   0  0  0  0  0  0  0  0  0  0  0  0
    0.2130   -2.4230   -0.6580 C   0  0  0  0  0  0  0  0  0  0  0  0
   -0.5270   -2.5920    0.6830 C   0  0  0  0  0  0  0  0  0  0  0  0
    2.1230   -0.9010   -0.4890 C   0  0  0  0  0  0  0  0  0  0  0  0
    5.1360   -0.3450    0.0750 C   0  0  0  0  0  0  0  0  0  0  0  0
    5.0470   -1.8140    0.2470 C   0  0  0  0  0  0  0  0  0  0  0  0
  1  2  1  0
  2  3  1  0
  3  4  1  0
  4  5  2  0
  4 35  1  0
  5  6  1  0
  5  7  1  0
  7  8  1  0
  8  9  1  0
  8 35  2  0
  9 10  2  0
  9 34  1  0
 10 11  1  0
 11 12  2  0
 12 13  1  0
 12 31  1  0
 13 14  1  0
 14 15  2  0
 14 19  1  0
 15 16  1  0
 16 17  2  0
 17 18  1  0
 18 19  2  0
 19 20  1  0
 20 21  2  0
 20 30  1  0
 21 22  1  0
 23 22  1  1
 22 29  2  0
 23 24  1  0
 23 28  1  0
 24 25  1  0
 25 26  1  0
 26 27  1  0
 27 28  1  0
 29 30  1  0
 31 32  1  0
 31 34  2  0
 32 33  1  0
 35 36  1  0
M  END
