
     RDKit          3D

 36 40  0  0  0  0  0  0  0  0999 V2000
    7.7060   -2.7540   -2.0810 C   0  0  0  0  0  0  0  0  0  0  0  0
    6.4390   -2.3670   -1.6020 O   0  0  0  0  0  0  0  0  0  0  0  0
    5.9750   -1.0960   -1.8870 C   0  0  0  0  0  0  0  0  0  0  0  0
    6.7140   -0.2040   -2.6210 C   0  0  0  0  0  0  0  0  0  0  0  0
    6.2350    1.0530   -2.8920 C   0  0  0  0  0  0  0  0  0  0  0  0
    4.9760    1.4220   -2.4110 C   0  0  0  0  0  0  0  0  0  0  0  0
    4.2340    0.5350   -1.6780 C   0  0  0  0  0  0  0  0  0  0  0  0
    4.7160   -0.7260   -1.4050 C   0  0  0  0  0  0  0  0  0  0  0  0
    4.0360   -1.6810   -0.6740 O   0  0  0  0  0  0  0  0  0  0  0  0
    2.7970   -1.5430   -0.0820 C   0  0  0  0  0  0  0  0  0  0  0  0
    2.6640   -0.5490    0.9820 C   0  0  0  0  0  0  0  0  0  0  0  0
    3.7290    0.1850    1.4490 C   0  0  0  0  0  0  0  0  0  0  0  0
    3.5560    1.0990    2.4820 C   0  0  0  0  0  0  0  0  0  0  0  0
    2.3220    1.2740    3.0440 C   0  0  0  0  0  0  0  0  0  0  0  0
    1.2770    0.5380    2.5700 C   0  0  0  0  0  0  0  0  0  0  0  0
    1.3990   -0.3720    1.5560 C   0  0  0  0  0  0  0  0  0  0  0  0
    0.3080   -1.1190    1.0830 O   0  0  0  0  0  0  0  0  0  0  0  0
   -0.9310   -0.9450    1.6430 C   0  0  0  0  0  0  0  0  0  0  0  0
   -1.2870   -1.7260    2.7170 C   0  0  0  0  0  0  0  0  0  0  0  0
   -0.3610   -2.7530    3.2860 C   0  0  0  0  0  0  0  0  0  0  0  0
   -2.5310   -1.5670    3.2950 C   0  0  0  0  0  0  0  0  0  0  0  0
   -3.4100   -0.6300    2.7970 C   0  0  0  0  0  0  0  0  0  0  0  0
   -3.0110    0.1300    1.7200 C   0  0  0  0  0  0  0  0  0  0  0  0
   -1.7860    0.0150    1.1040 C   0  0  0  0  0  0  0  0  0  0  0  0
   -1.3440    0.8550   -0.0500 C   0  0  0  0  0  0  0  0  0  0  0  0
   -2.4320    1.7190   -0.4050 N   0  0  0  0  0  0  0  0  0  0  0  0
   -3.6280    1.2950   -1.0410 C   0  0  0  0  0  0  0  0  0  0  0  0
   -4.3080    0.1650   -1.3470 C   0  0  0  0  0  0  0  0  0  0  0  0
   -5.1870   -0.7990   -0.6860 C   0  0  0  0  0  0  0  0  0  0  0  0
   -6.2230   -0.6140    0.2140 C   0  0  0  0  0  0  0  0  0  0  0  0
   -6.9500    0.6790    0.4510 C   0  0  0  0  0  0  0  0  0  0  0  0
   -6.9280    1.8660   -0.2100 C   0  0  0  0  0  0  0  0  0  0  0  0
   -5.9560    2.3970   -1.2730 C   0  0  0  0  0  0  0  0  0  0  0  0
   -4.8180    1.9470   -1.7110 C   0  0  0  0  0  0  0  0  0  0  0  0
   -4.5640    1.6490   -3.1670 C   0  0  0  0  0  0  0  0  0  0  0  0
   -4.3130    0.1700   -2.8310 N   0  0  0  0  0  0  0  0  0  0  0  0
  1  2  1  0
  2  3  1  0
  3  4  2  0
  3  8  1  0
  4  5  1  0
  5  6  2  0
  6  7  1  0
  7  8  2  0
  8  9  1  0
  9 10  1  0
 10 11  1  0
 11 12  2  0
 11 16  1  0
 12 13  1  0
 13 14  2  0
 14 15  1  0
 15 16  2  0
 16 17  1  0
 17 18  1  0
 18 19  2  0
 18 24  1  0
 19 20  1  0
 19 21  1  0
 21 22  2  0
 22 23  1  0
 23 24  2  0
 24 25  1  0
 25 26  1  0
 26 27  1  0
 27 28  2  0
 27 34  1  0
 28 29  1  0
 28 36  1  0
 29 30  2  0
 30 31  1  0
 31 32  2  0
 32 33  1  0
 33 34  2  0
 34 35  1  0
 35 36  1  0
M  END
