
     RDKit          3D

 36 40  0  0  0  0  0  0  0  0999 V2000
    4.3550   -3.0340   -1.7660 C   0  0  0  0  0  0  0  0  0  0  0  0
    5.2150   -2.0100   -1.1240 C   0  0  0  0  0  0  0  0  0  0  0  0
    6.5530   -2.2560   -0.9370 C   0  0  0  0  0  0  0  0  0  0  0  0
    7.3790   -1.3310   -0.3470 C   0  0  0  0  0  0  0  0  0  0  0  0
    6.9230   -0.0840    0.1040 C   0  0  0  0  0  0  0  0  0  0  0  0
    7.8510    0.8360    0.7460 C   0  0  0  0  0  0  0  0  0  0  0  0
    9.0970    0.5090    1.0840 C   0  0  0  0  0  0  0  0  0  0  0  0
    9.8040    1.6560    1.7190 C   0  0  0  0  0  0  0  0  0  0  0  0
    8.8180    2.6710    1.6840 N   0  0  0  0  0  0  0  0  0  0  0  0
    7.7230    2.2170    1.1420 C   0  0  0  0  0  0  0  0  0  0  0  0
    5.5930    0.1530   -0.0840 C   0  0  0  0  0  0  0  0  0  0  0  0
    4.9370    1.4260    0.3750 C   0  0  0  0  0  0  0  0  0  0  0  0
    4.7500   -0.7980   -0.6900 C   0  0  0  0  0  0  0  0  0  0  0  0
    3.4110   -0.5270   -0.8670 O   0  0  0  0  0  0  0  0  0  0  0  0
    2.4530   -0.8460    0.0890 C   0  0  0  0  0  0  0  0  0  0  0  0
    2.6030   -1.4430    1.3040 C   0  0  0  0  0  0  0  0  0  0  0  0
    1.3450   -1.5300    1.8580 C   0  0  0  0  0  0  0  0  0  0  0  0
    0.5030   -1.0070    1.0050 O   0  0  0  0  0  0  0  0  0  0  0  0
    1.0960   -0.5770   -0.0780 C   0  0  0  0  0  0  0  0  0  0  0  0
    0.4870    0.0550   -1.2340 C   0  0  0  0  0  0  0  0  0  0  0  0
   -0.7580    0.3130   -1.4120 C   0  0  0  0  0  0  0  0  0  0  0  0
   -1.8900    0.0620   -0.5500 C   0  0  0  0  0  0  0  0  0  0  0  0
   -1.8470   -0.4800    0.5820 O   0  0  0  0  0  0  0  0  0  0  0  0
   -3.2310    0.4480   -0.9690 N   0  0  0  0  0  0  0  0  0  0  0  0
   -4.3080    0.1720   -0.0720 C   0  0  0  0  0  0  0  0  0  0  0  0
   -5.6380    0.5730   -0.5260 C   0  0  0  0  0  0  0  0  0  0  0  0
   -5.9410    1.1890   -1.7160 C   0  0  0  0  0  0  0  0  0  0  0  0
   -7.2410    1.5370   -2.0590 C   0  0  0  0  0  0  0  0  0  0  0  0
   -8.2920    1.2800   -1.2200 C   0  0  0  0  0  0  0  0  0  0  0  0
   -8.0090    0.6530   -0.0020 C   0  0  0  0  0  0  0  0  0  0  0  0
   -9.0870    0.4020    0.8310 C   0  0  0  0  0  0  0  0  0  0  0  0
  -10.4490    0.7900    0.4220 C   0  0  0  0  0  0  0  0  0  0  0  0
   -8.8780   -0.2130    2.0430 C   0  0  0  0  0  0  0  0  0  0  0  0
   -7.5940   -0.5550    2.3770 C   0  0  0  0  0  0  0  0  0  0  0  0
   -6.5120   -0.3010    1.5390 C   0  0  0  0  0  0  0  0  0  0  0  0
   -6.7250    0.3170    0.3210 C   0  0  0  0  0  0  0  0  0  0  0  0
  1  2  1  0
  2  3  2  0
  2 13  1  0
  3  4  1  0
  4  5  2  0
  5  6  1  0
  5 11  1  0
  6  7  2  0
  6 10  1  0
  7  8  1  0
  8  9  1  0
  9 10  2  0
 11 12  1  0
 11 13  2  0
 13 14  1  0
 14 15  1  0
 15 16  1  0
 15 19  2  0
 16 17  2  0
 17 18  1  0
 18 19  1  0
 19 20  1  0
 20 21  2  3
 21 22  1  0
 22 23  2  0
 22 24  1  0
 24 25  1  0
 25 26  1  0
 26 27  2  0
 26 36  1  0
 27 28  1  0
 28 29  2  0
 29 30  1  0
 30 31  2  0
 30 36  1  0
 31 32  1  0
 31 33  1  0
 33 34  2  0
 34 35  1  0
 35 36  2  0
M  END
