
     RDKit          3D

 40 45  0  0  0  0  0  0  0  0999 V2000
    8.3140    2.8770   -1.9890 C   0  0  0  0  0  0  0  0  0  0  0  0
    7.4470    1.9930   -1.2210 N   0  0  0  0  0  0  0  0  0  0  0  0
    7.9300    0.6210   -1.2470 C   0  0  0  0  0  0  0  0  0  0  0  0
    7.0280   -0.1850   -0.4730 N   0  0  0  0  0  0  0  0  0  0  0  0
    7.3750   -1.5580   -0.4050 C   0  0  0  0  0  0  0  0  0  0  0  0
    6.9420   -2.2800    0.7450 N   0  0  0  0  0  0  0  0  0  0  0  0
    5.5670   -1.8410    1.0280 C   0  0  0  0  0  0  0  0  0  0  0  0
    5.7230   -0.4420    1.5980 C   0  0  2  0  0  0  0  0  0  0  0  0
    4.4420    0.1150    2.0090 C   0  0  0  0  0  0  0  0  0  0  0  0
    4.3010    0.3400    3.2760 O   0  0  0  0  0  0  0  0  0  0  0  0
    3.3240    0.4480    1.2330 N   0  0  0  0  0  0  0  0  0  0  0  0
    3.3160    0.2780   -0.1950 C   0  0  0  0  0  0  0  0  0  0  0  0
    2.3200   -0.7740   -0.6080 C   0  0  0  0  0  0  0  0  0  0  0  0
    0.9510   -0.2970   -0.0900 C   0  0  0  0  0  0  0  0  0  0  0  0
    0.9650    0.4630    0.9690 C   0  0  0  0  0  0  0  0  0  0  0  0
   -0.7800    0.8040    1.2570 S   0  0  0  0  0  0  0  0  0  0  0  0
   -1.3640   -0.1380   -0.1150 C   0  0  0  0  0  0  0  0  0  0  0  0
   -0.2300   -0.6360   -0.6870 C   0  0  0  0  0  0  0  0  0  0  0  0
   -0.4930   -1.4120   -1.7940 N   0  0  0  0  0  0  0  0  0  0  0  0
   -1.7010   -1.6650   -2.2740 C   0  0  0  0  0  0  0  0  0  0  0  0
   -1.8390   -2.4010   -3.3130 O   0  0  0  0  0  0  0  0  0  0  0  0
   -2.8360   -1.1740   -1.7120 C   0  0  0  0  0  0  0  0  0  0  0  0
   -4.1150   -1.4210   -2.1940 C   0  0  0  0  0  0  0  0  0  0  0  0
   -4.2970   -2.2660   -3.3770 C   0  0  0  0  0  0  0  0  0  0  0  0
   -5.1850   -0.8600   -1.5310 C   0  0  0  0  0  0  0  0  0  0  0  0
   -6.4740   -1.0660   -1.9600 C   0  0  0  0  0  0  0  0  0  0  0  0
   -7.5510   -0.4780   -1.2630 C   0  0  0  0  0  0  0  0  0  0  0  0
   -7.3400    0.3020   -0.1560 C   0  0  0  0  0  0  0  0  0  0  0  0
   -8.3990    0.8940    0.5490 O   0  0  0  0  0  0  0  0  0  0  0  0
   -9.7340    0.7390    0.1870 C   0  0  0  0  0  0  0  0  0  0  0  0
  -10.5910    1.4890    1.1320 C   0  0  0  0  0  0  0  0  0  0  0  0
  -11.8310    1.4920    1.0050 O   0  0  0  0  0  0  0  0  0  0  0  0
  -10.0050    2.1930    2.1670 O   0  0  0  0  0  0  0  0  0  0  0  0
  -10.7720    2.9380    3.1130 C   0  0  0  0  0  0  0  0  0  0  0  0
   -6.0430    0.4850    0.2410 C   0  0  0  0  0  0  0  0  0  0  0  0
   -4.9350   -0.0700   -0.4060 C   0  0  0  0  0  0  0  0  0  0  0  0
   -3.6950    0.1670    0.0580 N   0  0  0  0  0  0  0  0  0  0  0  0
   -2.6600   -0.3750   -0.5830 C   0  0  0  0  0  0  0  0  0  0  0  0
    2.1130    0.9700    1.7930 C   0  0  0  0  0  0  0  0  0  0  0  0
    6.5590    0.4380    0.7120 C   0  0  0  0  0  0  0  0  0  0  0  0
  1  2  1  0
  2  3  1  0
  3  4  1  0
  4  5  1  0
  4 40  1  0
  5  6  1  0
  6  7  1  0
  7  8  1  0
  8  9  1  6
  8 40  1  0
  9 10  2  0
  9 11  1  0
 11 12  1  0
 11 39  1  0
 12 13  1  0
 13 14  1  0
 14 15  2  0
 14 18  1  0
 15 16  1  0
 15 39  1  0
 16 17  1  0
 17 18  2  0
 17 38  1  0
 18 19  1  0
 19 20  1  0
 20 21  2  0
 20 22  1  0
 22 23  2  0
 22 38  1  0
 23 24  1  0
 23 25  1  0
 25 26  2  0
 25 36  1  0
 26 27  1  0
 27 28  2  0
 28 29  1  0
 28 35  1  0
 29 30  1  0
 30 31  1  0
 31 32  2  0
 31 33  1  0
 33 34  1  0
 35 36  2  0
 36 37  1  0
 37 38  2  0
M  CHG  1   6   1
M  END
