
     RDKit          3D

 40 44  0  0  0  0  0  0  0  0999 V2000
    6.7180    1.4430    2.3300 C   0  0  0  0  0  0  0  0  0  0  0  0
    7.4130    0.2000    2.7540 C   0  0  0  0  0  0  0  0  0  0  0  0
    6.7040   -1.0550    2.3830 C   0  0  0  0  0  0  0  0  0  0  0  0
    6.5000   -1.3000    1.0690 O   0  0  0  0  0  0  0  0  0  0  0  0
    5.7290   -0.7270    0.0960 C   0  0  0  0  0  0  0  0  0  0  0  0
    5.0150    0.2330    0.3820 O   0  0  0  0  0  0  0  0  0  0  0  0
    5.7530   -1.2650   -1.3180 C   0  0  2  0  0  0  0  0  0  0  0  0
    4.4220   -1.7740   -1.7690 C   0  0  0  0  0  0  0  0  0  0  0  0
    3.3420   -0.8570   -1.7780 N   0  0  0  0  0  0  0  0  0  0  0  0
    2.3860   -0.6280   -0.7120 C   0  0  0  0  0  0  0  0  0  0  0  0
    1.0930   -0.5930   -1.5520 C   0  0  1  0  0  0  0  0  0  0  0  0
   -0.0590   -0.1950   -0.7080 C   0  0  0  0  0  0  0  0  0  0  0  0
    0.0600   -0.0280    0.5030 O   0  0  0  0  0  0  0  0  0  0  0  0
   -1.3300   -0.0040   -1.3280 N   0  0  0  0  0  0  0  0  0  0  0  0
   -2.5230    0.3650   -0.6730 C   0  0  0  0  0  0  0  0  0  0  0  0
   -2.6920    0.4200    0.6870 C   0  0  0  0  0  0  0  0  0  0  0  0
   -3.9110    0.7660    1.2610 C   0  0  0  0  0  0  0  0  0  0  0  0
   -5.0000    1.0690    0.4990 C   0  0  0  0  0  0  0  0  0  0  0  0
   -6.2580    1.5080    1.1510 C   0  0  0  0  0  0  0  0  0  0  0  0
   -6.7540    2.7800    0.8810 C   0  0  0  0  0  0  0  0  0  0  0  0
   -7.8740    3.2110    1.5480 C   0  0  0  0  0  0  0  0  0  0  0  0
   -8.4980    2.4110    2.4650 C   0  0  0  0  0  0  0  0  0  0  0  0
   -7.9910    1.1470    2.7210 C   0  0  0  0  0  0  0  0  0  0  0  0
   -8.6210    0.3260    3.6310 C   0  0  0  0  0  0  0  0  0  0  0  0
   -8.1300   -0.9390    3.8800 C   0  0  0  0  0  0  0  0  0  0  0  0
   -7.0100   -1.3920    3.2210 C   0  0  0  0  0  0  0  0  0  0  0  0
   -6.3600   -0.5920    2.3040 C   0  0  0  0  0  0  0  0  0  0  0  0
   -6.8600    0.6730    2.0670 C   0  0  0  0  0  0  0  0  0  0  0  0
   -4.8580    1.0210   -0.8610 C   0  0  0  0  0  0  0  0  0  0  0  0
   -5.9760    1.3250   -1.6310 C   0  0  0  0  0  0  0  0  0  0  0  0
   -5.9170    1.2980   -3.0030 C   0  0  0  0  0  0  0  0  0  0  0  0
   -4.7340    0.9640   -3.6040 C   0  0  0  0  0  0  0  0  0  0  0  0
   -3.6100    0.6560   -2.8230 C   0  0  0  0  0  0  0  0  0  0  0  0
   -3.6440    0.6760   -1.4500 C   0  0  0  0  0  0  0  0  0  0  0  0
    1.4940    0.4590   -2.5650 C   0  0  0  0  0  0  0  0  0  0  0  0
    2.9040    0.0370   -2.8200 C   0  0  0  0  0  0  0  0  0  0  0  0
    3.6090    0.4000   -3.7890 O   0  0  0  0  0  0  0  0  0  0  0  0
    6.7230   -2.2980   -1.3820 O   0  0  0  0  0  0  0  0  0  0  0  0
    7.7820   -1.9470   -2.2130 C   0  0  0  0  0  0  0  0  0  0  0  0
    8.7560   -3.1050   -2.1910 C   0  0  0  0  0  0  0  0  0  0  0  0
  1  2  1  0
  2  3  1  0
  3  4  1  0
  4  5  1  0
  5  6  2  0
  5  7  1  0
  7  8  1  1
  7 38  1  0
  8  9  1  0
  9 10  1  0
  9 36  1  0
 10 11  1  0
 11 12  1  1
 11 35  1  0
 12 13  2  0
 12 14  1  0
 14 15  1  0
 15 16  2  0
 15 34  1  0
 16 17  1  0
 17 18  2  0
 18 19  1  0
 18 29  1  0
 19 20  2  0
 19 28  1  0
 20 21  1  0
 21 22  2  0
 22 23  1  0
 23 24  2  0
 23 28  1  0
 24 25  1  0
 25 26  2  0
 26 27  1  0
 27 28  2  0
 29 30  2  0
 29 34  1  0
 30 31  1  0
 31 32  2  0
 32 33  1  0
 33 34  2  0
 35 36  1  0
 36 37  2  0
 38 39  1  0
 39 40  1  0
M  END
