
     RDKit          3D

 40 43  0  0  0  0  0  0  0  0999 V2000
   11.0150    2.0380   -1.1560 C   0  0  0  0  0  0  0  0  0  0  0  0
    9.6740    1.5090   -1.4320 N   0  0  0  0  0  0  0  0  0  0  0  0
    8.9170    0.8660   -0.4240 C   0  0  0  0  0  0  0  0  0  0  0  0
    9.4730    0.7850    0.7120 O   0  0  0  0  0  0  0  0  0  0  0  0
    7.5910    0.3070   -0.5770 C   0  0  0  0  0  0  0  0  0  0  0  0
    6.9840   -0.2850    0.5280 C   0  0  0  0  0  0  0  0  0  0  0  0
    5.7310   -0.8370    0.4740 C   0  0  0  0  0  0  0  0  0  0  0  0
    4.9690   -0.8440   -0.7040 C   0  0  0  0  0  0  0  0  0  0  0  0
    3.6820   -1.4330   -0.6900 N   0  0  0  0  0  0  0  0  0  0  0  0
    2.8050   -1.4760   -1.7640 C   0  0  0  0  0  0  0  0  0  0  0  0
    3.0650   -0.9890   -2.8750 O   0  0  0  0  0  0  0  0  0  0  0  0
    1.4560   -2.1290   -1.6410 C   0  0  0  0  0  0  0  0  0  0  0  0
    1.3370   -2.6170   -0.3310 O   0  0  0  0  0  0  0  0  0  0  0  0
    0.2530   -3.2710    0.1860 C   0  0  0  0  0  0  0  0  0  0  0  0
   -0.7420   -3.4670   -0.5570 O   0  0  0  0  0  0  0  0  0  0  0  0
    0.3120   -3.7170    1.6060 C   0  0  2  0  0  0  0  0  0  0  0  0
   -0.9040   -4.3180    1.9250 O   0  0  0  0  0  0  0  0  0  0  0  0
    0.5240   -2.5620    2.5560 C   0  0  0  0  0  0  0  0  0  0  0  0
   -0.5680   -1.6280    2.3840 N   0  0  0  0  0  0  0  0  0  0  0  0
   -0.6890   -0.4330    3.1050 C   0  0  0  0  0  0  0  0  0  0  0  0
    0.1830   -0.1240    3.9560 O   0  0  0  0  0  0  0  0  0  0  0  0
   -1.8110    0.4550    2.8820 C   0  0  0  0  0  0  0  0  0  0  0  0
   -2.8770    0.4000    2.0670 C   0  0  0  0  0  0  0  0  0  0  0  0
   -3.7910    1.3920    2.0680 C   0  0  0  0  0  0  0  0  0  0  0  0
   -5.0110    1.4240    1.2080 C   0  0  0  0  0  0  0  0  0  0  0  0
   -5.7990    2.3750    1.3360 O   0  0  0  0  0  0  0  0  0  0  0  0
   -5.2430    0.3260    0.2340 C   0  0  1  0  0  0  0  0  0  0  0  0
   -6.6670   -0.1940    0.0930 C   0  0  0  0  0  0  0  0  0  0  0  0
   -6.0650    0.6600   -0.9490 C   0  0  1  0  0  0  0  0  0  0  0  0
   -6.5210    2.0550   -1.1990 C   0  0  0  0  0  0  0  0  0  0  0  0
   -7.1480    2.0220   -2.5810 C   0  0  0  0  0  0  0  0  0  0  0  0
   -6.9410    0.6160   -3.1140 C   0  0  0  0  0  0  0  0  0  0  0  0
   -5.7850    0.0490   -2.3070 C   0  0  1  0  0  0  0  0  0  0  0  0
   -4.6090    0.5160   -2.8510 F   0  0  0  0  0  0  0  0  0  0  0  0
   -3.5630    2.4290    2.9340 C   0  0  0  0  0  0  0  0  0  0  0  0
   -4.3590    3.6730    3.1880 C   0  0  0  0  0  0  0  0  0  0  0  0
   -2.0820    2.0130    3.7350 S   0  0  0  0  0  0  0  0  0  0  0  0
    5.5680   -0.2630   -1.7820 C   0  0  0  0  0  0  0  0  0  0  0  0
    6.8540    0.3040   -1.7290 C   0  0  0  0  0  0  0  0  0  0  0  0
    7.3400    0.8500   -2.8640 F   0  0  0  0  0  0  0  0  0  0  0  0
  1  2  1  0
  2  3  1  0
  3  4  2  0
  3  5  1  0
  5  6  2  0
  5 39  1  0
  6  7  1  0
  7  8  2  0
  8  9  1  0
  8 38  1  0
  9 10  1  0
 10 11  2  0
 10 12  1  0
 12 13  1  0
 13 14  1  0
 14 15  2  0
 14 16  1  0
 16 17  1  1
 16 18  1  0
 18 19  1  0
 19 20  1  0
 20 21  2  0
 20 22  1  0
 22 23  2  0
 22 37  1  0
 23 24  1  0
 24 25  1  0
 24 35  2  0
 25 26  2  0
 27 25  1  1
 27 28  1  0
 27 29  1  0
 29 28  1  1
 29 30  1  0
 29 33  1  0
 30 31  1  0
 31 32  1  0
 32 33  1  0
 33 34  1  6
 35 36  1  0
 35 37  1  0
 38 39  2  0
 39 40  1  0
M  END
