
     RDKit          3D

 40 42  0  0  0  0  0  0  0  0999 V2000
   -6.6730   -3.0480   -0.4580 C   0  0  0  0  0  0  0  0  0  0  0  0
   -6.3350   -1.9860    0.5280 N   0  0  0  0  0  0  0  0  0  0  0  0
   -5.2930   -1.1190    0.1960 C   0  0  0  0  0  0  0  0  0  0  0  0
   -4.7510   -1.3370   -0.9670 O   0  0  0  0  0  0  0  0  0  0  0  0
   -4.7590   -0.0580    0.9700 C   0  0  0  0  0  0  0  0  0  0  0  0
   -5.0610    0.2550    2.2040 C   0  0  0  0  0  0  0  0  0  0  0  0
   -5.7980   -0.0020    3.3640 C   0  0  0  0  0  0  0  0  0  0  0  0
   -5.5910    0.8950    4.4250 C   0  0  0  0  0  0  0  0  0  0  0  0
   -6.2640    0.7010    5.5510 F   0  0  0  0  0  0  0  0  0  0  0  0
   -6.7360   -1.0690    3.7500 C   0  0  0  0  0  0  0  0  0  0  0  0
   -6.1340   -2.3330    3.6800 F   0  0  0  0  0  0  0  0  0  0  0  0
   -3.7330    0.8010    0.3200 C   0  0  0  0  0  0  0  0  0  0  0  0
   -3.3160    1.6980    1.2540 O   0  0  0  0  0  0  0  0  0  0  0  0
   -3.1040    0.9770   -0.8570 N   0  0  0  0  0  0  0  0  0  0  0  0
   -3.1070    0.4680   -2.1750 C   0  0  0  0  0  0  0  0  0  0  0  0
   -1.8030   -0.2710   -2.3600 C   0  0  2  0  0  0  0  0  0  0  0  0
   -1.6380   -1.2930   -1.2760 C   0  0  0  0  0  0  0  0  0  0  0  0
   -0.7200    0.5730   -2.2940 O   0  0  0  0  0  0  0  0  0  0  0  0
   -0.9640    1.8200   -1.8310 C   0  0  2  0  0  0  0  0  0  0  0  0
    0.3200    2.4540   -1.3680 C   0  0  0  0  0  0  0  0  0  0  0  0
    1.3140    2.5940   -2.4460 C   0  0  0  0  0  0  0  0  0  0  0  0
    1.8060    1.3470   -3.0820 C   0  0  1  0  0  0  0  0  0  0  0  0
    2.8430    1.6870   -4.1770 C   0  0  0  0  0  0  0  0  0  0  0  0
    2.4330    0.4720   -2.0990 N   0  0  0  0  0  0  0  0  0  0  0  0
    2.2620   -0.9090   -2.0240 C   0  0  0  0  0  0  0  0  0  0  0  0
    1.4860   -1.4470   -2.8800 O   0  0  0  0  0  0  0  0  0  0  0  0
    3.0260   -1.9790   -0.8590 S   0  0  0  0  0  0  0  0  0  0  0  0
    4.4640   -1.2480   -0.1500 C   0  0  0  0  0  0  0  0  0  0  0  0
    4.8590   -1.7290    1.0510 C   0  0  0  0  0  0  0  0  0  0  0  0
    6.0090   -1.3060    1.8620 C   0  0  0  0  0  0  0  0  0  0  0  0
    6.4680   -2.2190    2.6780 C   0  0  0  0  0  0  0  0  0  0  0  0
    7.6180   -2.0090    3.5860 C   0  0  0  0  0  0  0  0  0  0  0  0
    8.1330   -0.7180    3.4380 O   0  0  0  0  0  0  0  0  0  0  0  0
    7.6500    0.2220    2.5890 C   0  0  0  0  0  0  0  0  0  0  0  0
    6.6050    0.0330    1.7680 C   0  0  0  0  0  0  0  0  0  0  0  0
    6.2820    1.2100    0.9620 C   0  0  0  0  0  0  0  0  0  0  0  0
    5.7210    0.9490   -0.3040 O   0  0  0  0  0  0  0  0  0  0  0  0
    5.1400   -0.1680   -0.8710 C   0  0  0  0  0  0  0  0  0  0  0  0
    5.1560   -0.3440   -2.1230 O   0  0  0  0  0  0  0  0  0  0  0  0
   -1.9900    2.0620   -0.8200 C   0  0  0  0  0  0  0  0  0  0  0  0
  1  2  1  0
  2  3  1  0
  3  4  2  0
  3  5  1  0
  5  6  2  3
  5 12  1  0
  6  7  1  0
  7  8  2  3
  7 10  1  0
  8  9  1  0
 10 11  1  0
 12 13  2  0
 12 14  1  0
 14 15  1  0
 14 40  1  0
 15 16  1  0
 16 17  1  1
 16 18  1  0
 18 19  1  0
 19 20  1  1
 19 40  1  0
 20 21  1  0
 21 22  1  0
 22 23  1  6
 22 24  1  0
 24 25  1  0
 25 26  2  0
 25 27  1  0
 27 28  1  0
 28 29  2  0
 28 38  1  0
 29 30  1  0
 30 31  2  0
 30 35  1  0
 31 32  1  0
 32 33  1  0
 33 34  1  0
 34 35  2  0
 35 36  1  0
 36 37  1  0
 37 38  1  0
 38 39  2  0
M  END
