
     RDKit          3D

 40 43  0  0  0  0  0  0  0  0999 V2000
    7.7970   -3.7760    1.5080 C   0  0  0  0  0  0  0  0  0  0  0  0
    6.9320   -2.5850    1.2190 C   0  0  0  0  0  0  0  0  0  0  0  0
    7.1600   -1.4090    1.8840 C   0  0  0  0  0  0  0  0  0  0  0  0
    6.3550   -0.3500    1.5950 C   0  0  0  0  0  0  0  0  0  0  0  0
    5.3100   -0.3810    0.6650 C   0  0  0  0  0  0  0  0  0  0  0  0
    4.5860    0.7880    0.4730 N   0  0  0  0  0  0  0  0  0  0  0  0
    3.3880    0.8340   -0.2750 C   0  0  0  0  0  0  0  0  0  0  0  0
    2.8510   -0.1450   -0.8270 O   0  0  0  0  0  0  0  0  0  0  0  0
    2.7450    2.0940   -0.4090 N   0  0  0  0  0  0  0  0  0  0  0  0
    1.4930    2.1760   -1.1830 C   0  0  2  0  0  0  0  0  0  0  0  0
    1.6030    3.1550   -2.2900 C   0  0  0  0  0  0  0  0  0  0  0  0
    0.8580    4.6180   -1.6320 S   0  0  1  0  0  0  0  0  0  0  0  0
    1.8640    5.7360   -1.4700 O   0  0  0  0  0  0  0  0  0  0  0  0
   -0.3230    5.0600   -2.4210 O   0  0  0  0  0  0  0  0  0  0  0  0
    0.4500    4.0070   -0.0150 C   0  0  0  0  0  0  0  0  0  0  0  0
    0.4130    2.5530   -0.2140 C   0  0  1  0  0  0  0  0  0  0  0  0
   -0.8460    1.9140   -0.4240 N   0  0  0  0  0  0  0  0  0  0  0  0
   -1.6690    2.1530   -1.5610 C   0  0  0  0  0  0  0  0  0  0  0  0
   -2.6950    3.1890   -1.2580 C   0  0  0  0  0  0  0  0  0  0  0  0
   -3.5910    3.4890   -2.4460 C   0  0  0  0  0  0  0  0  0  0  0  0
   -4.5200    4.4610   -2.0920 O   0  0  0  0  0  0  0  0  0  0  0  0
   -1.2690    0.9640    0.5300 C   0  0  0  0  0  0  0  0  0  0  0  0
   -0.4900    0.6970    1.5260 O   0  0  0  0  0  0  0  0  0  0  0  0
   -2.5410    0.2030    0.5420 C   0  0  2  0  0  0  0  0  0  0  0  0
   -3.3420    0.7330    1.7030 C   0  0  0  0  0  0  0  0  0  0  0  0
   -4.7900    0.2050    1.6940 C   0  0  0  0  0  0  0  0  0  0  0  0
   -4.6420   -1.2240    1.4490 C   0  0  1  0  0  0  0  0  0  0  0  0
   -5.7240   -2.2010    1.7090 C   0  0  0  0  0  0  0  0  0  0  0  0
   -5.0790   -3.5080    1.1980 C   0  0  0  0  0  0  0  0  0  0  0  0
   -3.5690   -3.3430    0.9900 C   0  0  0  0  0  0  0  0  0  0  0  0
   -3.1970   -2.2000    0.1040 C   0  0  2  0  0  0  0  0  0  0  0  0
   -2.8730   -2.6110   -1.3010 C   0  0  0  0  0  0  0  0  0  0  0  0
   -2.6330   -1.5080   -2.1050 O   0  0  0  0  0  0  0  0  0  0  0  0
   -2.1540   -1.2560    0.6900 C   0  0  0  0  0  0  0  0  0  0  0  0
   -4.3560   -1.3880    0.0720 O   0  0  0  0  0  0  0  0  0  0  0  0
    5.1050   -1.5530    0.0220 C   0  0  0  0  0  0  0  0  0  0  0  0
    5.9180   -2.6600    0.2990 C   0  0  0  0  0  0  0  0  0  0  0  0
    5.6850   -3.9560   -0.4180 C   0  0  1  0  0  0  0  0  0  0  0  0
    6.8390   -4.3150   -1.0640 F   0  0  0  0  0  0  0  0  0  0  0  0
    5.3480   -4.9680    0.4540 F   0  0  0  0  0  0  0  0  0  0  0  0
  1  2  1  0
  2  3  2  0
  2 37  1  0
  3  4  1  0
  4  5  2  0
  5  6  1  0
  5 36  1  0
  6  7  1  0
  7  8  2  0
  7  9  1  0
 10  9  1  1
 10 11  1  0
 10 16  1  0
 12 11  1  6
 12 13  2  0
 12 14  2  0
 12 15  1  0
 15 16  1  0
 16 17  1  6
 17 18  1  0
 17 22  1  0
 18 19  1  0
 19 20  1  0
 20 21  1  0
 22 23  2  0
 24 22  1  1
 24 25  1  0
 24 34  1  0
 25 26  1  0
 27 26  1  6
 27 28  1  0
 27 35  1  0
 28 29  1  0
 29 30  1  0
 30 31  1  0
 31 32  1  6
 31 34  1  0
 31 35  1  0
 32 33  1  0
 36 37  2  0
 37 38  1  0
 38 39  1  1
 38 40  1  0
M  END
