
     RDKit          3D

 39 41  0  0  0  0  0  0  0  0999 V2000
    2.1490    0.4800   -0.5260 C   0  0  0  0  0  0  0  0  0  0  0  0
    2.0820   -0.8760    0.0680 C   0  0  1  0  0  0  0  0  0  0  0  0
    3.3670   -1.2740    0.7400 C   0  0  0  0  0  0  0  0  0  0  0  0
    3.7780   -0.5370    1.7610 O   0  0  0  0  0  0  0  0  0  0  0  0
    4.1520    0.7240    1.7760 C   0  0  0  0  0  0  0  0  0  0  0  0
    5.3990    1.1300    1.0660 C   0  0  0  0  0  0  0  0  0  0  0  0
    5.5970    2.3770    0.9020 O   0  0  0  0  0  0  0  0  0  0  0  0
    6.3220    0.1810    0.5990 N   0  0  0  0  0  0  0  0  0  0  0  0
    7.5100    0.4740   -0.0770 C   0  0  0  0  0  0  0  0  0  0  0  0
    8.0740    1.7080   -0.1210 C   0  0  0  0  0  0  0  0  0  0  0  0
    9.2580    1.9560   -0.8320 C   0  0  0  0  0  0  0  0  0  0  0  0
    9.8430    0.9200   -1.4890 C   0  0  0  0  0  0  0  0  0  0  0  0
   11.0420    1.1360   -2.2200 N   0  0  0  0  0  0  0  0  0  0  0  0
    9.3080   -0.3450   -1.4730 C   0  0  0  0  0  0  0  0  0  0  0  0
    9.9500   -1.3210   -2.1540 F   0  0  0  0  0  0  0  0  0  0  0  0
    8.1510   -0.5610   -0.7710 C   0  0  0  0  0  0  0  0  0  0  0  0
    0.9350   -1.0250    1.0530 C   0  0  0  0  0  0  0  0  0  0  0  0
   -0.3770   -0.7570    0.3600 C   0  0  0  0  0  0  0  0  0  0  0  0
   -0.3430   -0.4550   -0.8460 O   0  0  0  0  0  0  0  0  0  0  0  0
   -1.5390   -0.8560    1.0820 N   0  0  0  0  0  0  0  0  0  0  0  0
   -1.5630   -1.2270    2.5020 C   0  0  0  0  0  0  0  0  0  0  0  0
   -2.9900   -1.4570    2.9440 C   0  0  0  0  0  0  0  0  0  0  0  0
   -3.7750   -2.3280    1.9930 C   0  0  1  0  0  0  0  0  0  0  0  0
   -5.1370   -2.1210    2.2320 O   0  0  0  0  0  0  0  0  0  0  0  0
   -3.4950   -2.0170    0.5590 C   0  0  0  0  0  0  0  0  0  0  0  0
   -2.8700   -0.5990    0.5160 C   0  0  2  0  0  0  0  0  0  0  0  0
   -2.8480   -0.1390   -0.8900 C   0  0  0  0  0  0  0  0  0  0  0  0
   -4.2000    0.1690   -1.3960 C   0  0  0  0  0  0  0  0  0  0  0  0
   -5.2700    0.1140   -0.6430 C   0  0  0  0  0  0  0  0  0  0  0  0
   -6.6850    0.3590   -0.8920 C   0  0  0  0  0  0  0  0  0  0  0  0
   -7.6040   -0.3940   -0.1430 O   0  0  0  0  0  0  0  0  0  0  0  0
   -8.5280    0.2200    0.7310 C   0  0  0  0  0  0  0  0  0  0  0  0
   -9.2780   -0.7890    1.3050 F   0  0  0  0  0  0  0  0  0  0  0  0
   -7.2230    1.2100   -1.7440 C   0  0  0  0  0  0  0  0  0  0  0  0
   -6.6530    2.1830   -2.7110 C   0  0  1  0  0  0  0  0  0  0  0  0
   -5.8290    3.2480   -2.0240 C   0  0  0  0  0  0  0  0  0  0  0  0
   -5.5520    1.2500   -3.8130 S   0  0  0  0  0  0  0  0  0  0  0  0
   -4.2620    0.5420   -2.8360 C   0  0  0  0  0  0  0  0  0  0  0  0
   -3.1990    0.3060   -3.4610 O   0  0  0  0  0  0  0  0  0  0  0  0
  2  1  1  1
  2  3  1  0
  2 17  1  0
  3  4  1  0
  4  5  1  0
  5  6  1  0
  6  7  2  0
  6  8  1  0
  8  9  1  0
  9 10  2  0
  9 16  1  0
 10 11  1  0
 11 12  2  0
 12 13  1  0
 12 14  1  0
 14 15  1  0
 14 16  2  0
 17 18  1  0
 18 19  2  0
 18 20  1  0
 20 21  1  0
 20 26  1  0
 21 22  1  0
 22 23  1  0
 23 24  1  1
 23 25  1  0
 25 26  1  0
 26 27  1  6
 27 28  1  0
 28 29  2  0
 28 38  1  0
 29 30  1  0
 30 31  1  0
 30 34  2  0
 31 32  1  0
 32 33  1  0
 34 35  1  0
 35 36  1  1
 35 37  1  0
 37 38  1  0
 38 39  2  0
M  END
