
     RDKit          3D

 40 43  0  0  0  0  0  0  0  0999 V2000
   -4.3360    5.4910    0.3180 C   0  0  0  0  0  0  0  0  0  0  0  0
   -3.6780    4.2700    0.7910 C   0  0  0  0  0  0  0  0  0  0  0  0
   -3.7820    3.0340    0.1720 C   0  0  0  0  0  0  0  0  0  0  0  0
   -3.0230    2.1490    0.9210 C   0  0  0  0  0  0  0  0  0  0  0  0
   -2.8950    0.7160    0.5630 C   0  0  0  0  0  0  0  0  0  0  0  0
   -3.5670    0.3900   -0.4570 O   0  0  0  0  0  0  0  0  0  0  0  0
   -2.1090   -0.1560    1.3020 N   0  0  0  0  0  0  0  0  0  0  0  0
   -1.3370    0.4750    2.4170 C   0  0  0  0  0  0  0  0  0  0  0  0
   -0.1000    1.0570    1.8950 C   0  0  0  0  0  0  0  0  0  0  0  0
    0.8850    0.2010    1.2130 C   0  0  0  0  0  0  0  0  0  0  0  0
    0.7660   -0.9950    0.8810 O   0  0  0  0  0  0  0  0  0  0  0  0
    2.1810    0.7630    0.8540 N   0  0  0  0  0  0  0  0  0  0  0  0
    3.1290   -0.0660    0.1940 C   0  0  0  0  0  0  0  0  0  0  0  0
    4.4270    0.5890   -0.1260 C   0  0  0  0  0  0  0  0  0  0  0  0
    5.2800   -0.4500   -0.8210 C   0  0  2  0  0  0  0  0  0  0  0  0
    6.5840    0.0770   -1.1820 N   0  0  0  0  0  0  0  0  0  0  0  0
    7.1280   -0.8880   -2.1110 C   0  0  2  0  0  0  0  0  0  0  0  0
    8.5700   -0.6800   -2.4110 C   0  0  0  0  0  0  0  0  0  0  0  0
    6.2430   -0.7830   -3.3650 C   0  0  0  0  0  0  0  0  0  0  0  0
    4.6120   -0.7780   -2.5070 S   0  0  0  0  0  0  0  0  0  0  0  0
   -2.0430   -1.5410    1.2490 C   0  0  0  0  0  0  0  0  0  0  0  0
   -1.4030   -2.1120    2.2810 O   0  0  0  0  0  0  0  0  0  0  0  0
   -2.5500   -2.4660    0.2550 C   0  0  0  0  0  0  0  0  0  0  0  0
   -2.3520   -3.8070    0.3890 C   0  0  0  0  0  0  0  0  0  0  0  0
   -2.9440   -4.4960   -0.7290 C   0  0  0  0  0  0  0  0  0  0  0  0
   -2.9500   -5.8010   -0.9310 C   0  0  0  0  0  0  0  0  0  0  0  0
   -3.5910   -6.4120   -2.1220 C   0  0  2  0  0  0  0  0  0  0  0  0
   -3.8210   -7.7410   -1.8780 O   0  0  0  0  0  0  0  0  0  0  0  0
   -2.6910   -6.2170   -3.3260 C   0  0  1  0  0  0  0  0  0  0  0  0
   -3.2700   -6.7790   -4.4540 F   0  0  0  0  0  0  0  0  0  0  0  0
   -2.5070   -4.8810   -3.6070 F   0  0  0  0  0  0  0  0  0  0  0  0
   -3.4940   -3.5690   -1.5380 O   0  0  0  0  0  0  0  0  0  0  0  0
   -3.3370   -2.2960   -0.9740 C   0  0  0  0  0  0  0  0  0  0  0  0
   -2.5390    2.8470    1.8770 O   0  0  0  0  0  0  0  0  0  0  0  0
   -2.8770    4.1030    1.8730 C   0  0  0  0  0  0  0  0  0  0  0  0
   -2.4520    5.1010    2.8580 C   0  0  0  0  0  0  0  0  0  0  0  0
   -2.7600    6.4200    2.9110 C   0  0  0  0  0  0  0  0  0  0  0  0
   -2.1170    6.9480    4.0340 C   0  0  0  0  0  0  0  0  0  0  0  0
   -1.4490    5.8850    4.5970 C   0  0  0  0  0  0  0  0  0  0  0  0
   -1.6630    4.8150    3.8870 O   0  0  0  0  0  0  0  0  0  0  0  0
  1  2  1  0
  2  3  1  0
  2 35  2  0
  3  4  2  0
  4  5  1  0
  4 34  1  0
  5  6  2  0
  5  7  1  0
  7  8  1  0
  7 21  1  0
  8  9  1  0
  9 10  1  0
 10 11  2  0
 10 12  1  0
 12 13  1  0
 13 14  1  0
 15 14  1  6
 15 16  1  0
 15 20  1  0
 16 17  1  0
 17 18  1  6
 17 19  1  0
 19 20  1  0
 21 22  2  0
 21 23  1  0
 23 24  2  0
 23 33  1  0
 24 25  1  0
 25 26  2  3
 25 32  1  0
 26 27  1  0
 27 28  1  1
 27 29  1  0
 29 30  1  6
 29 31  1  0
 32 33  1  0
 34 35  1  0
 35 36  1  0
 36 37  2  0
 36 40  1  0
 37 38  1  0
 38 39  2  0
 39 40  1  0
M  END
