
     RDKit          3D

 41 46  0  0  0  0  0  0  0  0999 V2000
   -8.1100    2.1520    2.6200 C   0  0  0  0  0  0  0  0  0  0  0  0
   -6.7770    2.5950    2.1710 C   0  0  0  0  0  0  0  0  0  0  0  0
   -6.2140    3.7680    2.5880 C   0  0  0  0  0  0  0  0  0  0  0  0
   -4.9400    4.1610    2.1690 C   0  0  0  0  0  0  0  0  0  0  0  0
   -4.2080    3.3720    1.3000 C   0  0  0  0  0  0  0  0  0  0  0  0
   -3.0330    3.4540    0.7220 O   0  0  0  0  0  0  0  0  0  0  0  0
   -2.7910    2.4160   -0.0590 C   0  0  0  0  0  0  0  0  0  0  0  0
   -1.7070    2.2670   -0.7390 O   0  0  0  0  0  0  0  0  0  0  0  0
   -3.8540    1.6260    0.0230 N   0  0  0  0  0  0  0  0  0  0  0  0
   -4.1880    0.4200   -0.6550 C   0  0  0  0  0  0  0  0  0  0  0  0
   -3.6480   -0.8780   -0.0790 C   0  0  0  0  0  0  0  0  0  0  0  0
   -2.2450   -0.9760   -0.1740 N   0  0  1  0  0  0  0  0  0  0  0  0
   -1.5960   -2.0100    0.6740 C   0  0  0  0  0  0  0  0  0  0  0  0
   -0.2110   -1.5930    0.7910 C   0  0  0  0  0  0  0  0  0  0  0  0
    0.8810   -1.4850    1.4510 C   0  0  0  0  0  0  0  0  0  0  0  0
    1.9000   -0.7630    0.5800 C   0  0  0  0  0  0  0  0  0  0  0  0
    1.3370    0.1650   -0.3700 C   0  0  0  0  0  0  0  0  0  0  0  0
    2.0810    0.7220   -1.3820 C   0  0  0  0  0  0  0  0  0  0  0  0
    3.3980    0.3820   -1.4860 C   0  0  0  0  0  0  0  0  0  0  0  0
    3.9620   -0.5240   -0.5540 C   0  0  0  0  0  0  0  0  0  0  0  0
    3.1900   -1.0540    0.4520 C   0  0  0  0  0  0  0  0  0  0  0  0
    3.8760   -1.9130    1.5810 C   0  0  0  0  0  0  0  0  0  0  0  0
    4.8500   -0.9510    1.9150 O   0  0  0  0  0  0  0  0  0  0  0  0
    5.9550   -0.4750    1.3760 C   0  0  0  0  0  0  0  0  0  0  0  0
    6.6490   -1.0390    0.3490 C   0  0  0  0  0  0  0  0  0  0  0  0
    7.7480   -0.4520   -0.2460 C   0  0  0  0  0  0  0  0  0  0  0  0
    8.1530    0.7660    0.2370 C   0  0  0  0  0  0  0  0  0  0  0  0
    7.4690    1.3410    1.2760 C   0  0  0  0  0  0  0  0  0  0  0  0
    6.3990    0.7930    1.8770 C   0  0  0  0  0  0  0  0  0  0  0  0
    8.0240    2.7400    1.4410 C   0  0  0  0  0  0  0  0  0  0  0  0
    9.2410    2.7170    0.7930 O   0  0  0  0  0  0  0  0  0  0  0  0
    9.1950    1.7680   -0.2090 C   0  0  0  0  0  0  0  0  0  0  0  0
   -1.7870   -1.0830   -1.5490 C   0  0  0  0  0  0  0  0  0  0  0  0
   -2.4110   -2.1790   -2.3600 C   0  0  0  0  0  0  0  0  0  0  0  0
   -2.0710   -3.5120   -2.1950 C   0  0  0  0  0  0  0  0  0  0  0  0
   -2.6660   -4.5040   -2.9630 C   0  0  0  0  0  0  0  0  0  0  0  0
   -3.6060   -4.1810   -3.9060 C   0  0  0  0  0  0  0  0  0  0  0  0
   -3.9640   -2.8640   -4.0990 C   0  0  0  0  0  0  0  0  0  0  0  0
   -3.3540   -1.8870   -3.3180 C   0  0  0  0  0  0  0  0  0  0  0  0
   -4.7810    2.2100    0.8940 C   0  0  0  0  0  0  0  0  0  0  0  0
   -6.0280    1.7920    1.2920 C   0  0  0  0  0  0  0  0  0  0  0  0
  1  2  1  0
  2  3  2  0
  2 41  1  0
  3  4  1  0
  4  5  2  0
  5  6  1  0
  5 40  1  0
  6  7  1  0
  7  8  2  0
  7  9  1  0
  9 10  1  0
  9 40  1  0
 10 11  1  0
 12 11  1  6
 12 13  1  0
 12 33  1  0
 13 14  1  0
 14 15  2  3
 15 16  1  0
 16 17  2  0
 16 21  1  0
 17 18  1  0
 18 19  2  0
 19 20  1  0
 20 21  2  0
 21 22  1  0
 22 23  1  0
 23 24  1  0
 24 25  2  0
 24 29  1  0
 25 26  1  0
 26 27  2  0
 27 28  1  0
 27 32  1  0
 28 29  2  0
 28 30  1  0
 30 31  1  0
 31 32  1  0
 33 34  1  0
 34 35  2  0
 34 39  1  0
 35 36  1  0
 36 37  2  0
 37 38  1  0
 38 39  2  0
 40 41  2  0
M  CHG  1  12   1
M  END
