
     RDKit          3D

 41 46  0  0  0  0  0  0  0  0999 V2000
   -4.4010   -2.3790   -2.3410 C   0  0  0  0  0  0  0  0  0  0  0  0
   -3.6630   -1.5680   -1.3560 C   0  0  0  0  0  0  0  0  0  0  0  0
   -2.2950   -1.7700   -1.2590 C   0  0  0  0  0  0  0  0  0  0  0  0
   -1.5370   -1.0460   -0.3580 C   0  0  0  0  0  0  0  0  0  0  0  0
   -0.1500   -1.2790   -0.2680 N   0  0  0  0  0  0  0  0  0  0  0  0
    0.8390   -0.5480    0.3730 C   0  0  0  0  0  0  0  0  0  0  0  0
    0.4710    0.5120    0.9850 O   0  0  0  0  0  0  0  0  0  0  0  0
    2.2670   -0.8640    0.4240 C   0  0  0  0  0  0  0  0  0  0  0  0
    3.1540   -0.0250    1.1060 C   0  0  0  0  0  0  0  0  0  0  0  0
    4.5100   -0.2690    1.1850 C   0  0  0  0  0  0  0  0  0  0  0  0
    5.0380   -1.3790    0.5730 C   0  0  0  0  0  0  0  0  0  0  0  0
    6.3730   -1.6560    0.6250 O   0  0  0  0  0  0  0  0  0  0  0  0
    7.3980   -0.9290    1.2220 C   0  0  0  0  0  0  0  0  0  0  0  0
    7.6210    0.3850    0.6130 C   0  0  0  0  0  0  0  0  0  0  0  0
    6.9210    0.7850   -0.5020 C   0  0  0  0  0  0  0  0  0  0  0  0
    7.1840    2.0340   -1.0700 C   0  0  0  0  0  0  0  0  0  0  0  0
    8.1250    2.8680   -0.5430 C   0  0  0  0  0  0  0  0  0  0  0  0
    8.8410    2.4950    0.5680 C   0  0  0  0  0  0  0  0  0  0  0  0
    9.8070    3.3220    1.1240 C   0  0  0  0  0  0  0  0  0  0  0  0
   10.4990    2.8960    2.2370 C   0  0  0  0  0  0  0  0  0  0  0  0
   10.2570    1.6710    2.8140 C   0  0  0  0  0  0  0  0  0  0  0  0
    9.2800    0.8710    2.2270 C   0  0  0  0  0  0  0  0  0  0  0  0
    8.5780    1.2650    1.1240 C   0  0  0  0  0  0  0  0  0  0  0  0
    4.2000   -2.2160   -0.1000 C   0  0  0  0  0  0  0  0  0  0  0  0
    2.8330   -1.9610   -0.1730 C   0  0  0  0  0  0  0  0  0  0  0  0
    2.2560   -2.9960   -0.9260 O   0  0  0  0  0  0  0  0  0  0  0  0
    3.2760   -3.7440   -1.5280 C   0  0  0  0  0  0  0  0  0  0  0  0
    4.4190   -3.3810   -0.7990 O   0  0  0  0  0  0  0  0  0  0  0  0
   -2.1780   -0.1340    0.4240 C   0  0  0  0  0  0  0  0  0  0  0  0
   -3.5700    0.0690    0.3220 C   0  0  0  0  0  0  0  0  0  0  0  0
   -4.3160   -0.6510   -0.5720 C   0  0  0  0  0  0  0  0  0  0  0  0
   -5.8030   -0.4530   -0.7010 C   0  0  0  0  0  0  0  0  0  0  0  0
   -6.5540   -1.5610   -0.0450 C   0  0  0  0  0  0  0  0  0  0  0  0
   -8.0120   -1.4800   -0.1500 C   0  0  0  0  0  0  0  0  0  0  0  0
   -8.8190   -0.4200    0.4400 C   0  0  0  0  0  0  0  0  0  0  0  0
   -8.6330    0.9800    0.0700 C   0  0  0  0  0  0  0  0  0  0  0  0
   -9.1790    1.4420   -1.1280 C   0  0  0  0  0  0  0  0  0  0  0  0
   -9.1000    2.7550   -1.5020 C   0  0  0  0  0  0  0  0  0  0  0  0
   -8.4810    3.6500   -0.7070 N   0  0  0  0  0  0  0  0  0  0  0  0
   -7.9470    3.2270    0.4540 C   0  0  0  0  0  0  0  0  0  0  0  0
   -8.0120    1.9230    0.8510 C   0  0  0  0  0  0  0  0  0  0  0  0
  1  2  1  0
  2  3  2  0
  2 31  1  0
  3  4  1  0
  4  5  1  0
  4 29  2  0
  5  6  1  0
  6  7  2  0
  6  8  1  0
  8  9  2  0
  8 25  1  0
  9 10  1  0
 10 11  2  0
 11 12  1  0
 11 24  1  0
 12 13  1  0
 13 14  1  0
 14 15  2  0
 14 23  1  0
 15 16  1  0
 16 17  2  0
 17 18  1  0
 18 19  2  0
 18 23  1  0
 19 20  1  0
 20 21  2  0
 21 22  1  0
 22 23  2  0
 24 25  2  0
 24 28  1  0
 25 26  1  0
 26 27  1  0
 27 28  1  0
 29 30  1  0
 30 31  2  0
 31 32  1  0
 32 33  1  0
 33 34  1  0
 34 35  1  0
 35 36  1  0
 36 37  2  0
 36 41  1  0
 37 38  1  0
 38 39  2  0
 39 40  1  0
 40 41  2  0
M  CHG  1  39   1
M  END
