
     RDKit          3D

 41 46  0  0  0  0  0  0  0  0999 V2000
    4.1550   -0.7600    2.8530 C   0  0  0  0  0  0  0  0  0  0  0  0
    3.7590    0.4950    2.7340 C   0  0  0  0  0  0  0  0  0  0  0  0
    3.6490    1.1290    1.3710 C   0  0  0  0  0  0  0  0  0  0  0  0
    4.0540    0.1340    0.3680 N   0  0  0  0  0  0  0  0  0  0  0  0
    5.4460    0.1120   -0.0020 C   0  0  0  0  0  0  0  0  0  0  0  0
    5.8220    1.0990   -1.0220 C   0  0  0  0  0  0  0  0  0  0  0  0
    5.2480    1.1380   -2.2500 C   0  0  0  0  0  0  0  0  0  0  0  0
    5.6550    2.0980   -3.1890 C   0  0  0  0  0  0  0  0  0  0  0  0
    6.6440    2.9940   -2.8410 C   0  0  0  0  0  0  0  0  0  0  0  0
    7.0660    3.9890   -3.8160 C   0  0  0  0  0  0  0  0  0  0  0  0
    6.5460    4.0450   -4.9450 O   0  0  0  0  0  0  0  0  0  0  0  0
    7.2340    2.9630   -1.5960 C   0  0  0  0  0  0  0  0  0  0  0  0
    6.8140    2.0170   -0.7070 C   0  0  0  0  0  0  0  0  0  0  0  0
    3.1230   -0.7480   -0.2190 C   0  0  0  0  0  0  0  0  0  0  0  0
    3.5500   -1.6040   -1.0450 O   0  0  0  0  0  0  0  0  0  0  0  0
    1.6600   -0.7120    0.0920 C   0  0  0  0  0  0  0  0  0  0  0  0
    1.0090   -1.9380   -0.5060 C   0  0  0  0  0  0  0  0  0  0  0  0
   -0.4480   -1.9850   -0.2660 C   0  0  0  0  0  0  0  0  0  0  0  0
   -1.0270   -2.7740    0.6990 C   0  0  0  0  0  0  0  0  0  0  0  0
   -2.3920   -2.7950    0.9070 C   0  0  0  0  0  0  0  0  0  0  0  0
   -2.9560   -3.6500    1.9910 C   0  0  2  0  0  0  0  0  0  0  0  0
   -3.0100   -3.0500    3.3700 C   0  0  0  0  0  0  0  0  0  0  0  0
   -2.0420   -4.1450    3.0910 C   0  0  0  0  0  0  0  0  0  0  0  0
   -3.2160   -2.0080    0.1300 C   0  0  0  0  0  0  0  0  0  0  0  0
   -2.6670   -1.2140   -0.8370 C   0  0  0  0  0  0  0  0  0  0  0  0
   -1.3270   -1.2050   -1.0260 C   0  0  0  0  0  0  0  0  0  0  0  0
   -0.7520   -0.4190   -1.9840 O   0  0  0  0  0  0  0  0  0  0  0  0
   -1.5620    0.3990   -2.7910 C   0  0  0  0  0  0  0  0  0  0  0  0
   -0.9910    0.8760   -3.8230 O   0  0  0  0  0  0  0  0  0  0  0  0
   -2.9610    0.6860   -2.4760 C   0  0  0  0  0  0  0  0  0  0  0  0
   -3.5640   -0.3870   -1.6590 C   0  0  2  0  0  0  0  0  0  0  0  0
   -4.8090    0.0100   -0.9590 C   0  0  0  0  0  0  0  0  0  0  0  0
   -6.0700   -0.4180   -1.3240 C   0  0  0  0  0  0  0  0  0  0  0  0
   -7.2170   -0.0550   -0.7000 C   0  0  0  0  0  0  0  0  0  0  0  0
   -7.1610    0.7730    0.3470 N   0  0  0  0  0  0  0  0  0  0  0  0
   -5.9520    1.2210    0.7460 C   0  0  0  0  0  0  0  0  0  0  0  0
   -5.9000    2.0620    1.8230 C   0  0  0  0  0  0  0  0  0  0  0  0
   -4.7210    2.5600    2.3020 C   0  0  0  0  0  0  0  0  0  0  0  0
   -3.5590    2.2000    1.6770 C   0  0  0  0  0  0  0  0  0  0  0  0
   -3.5890    1.3610    0.6000 C   0  0  0  0  0  0  0  0  0  0  0  0
   -4.7650    0.8640    0.1230 C   0  0  0  0  0  0  0  0  0  0  0  0
  1  2  2  0
  2  3  1  0
  3  4  1  0
  4  5  1  0
  4 14  1  0
  5  6  1  0
  6  7  2  0
  6 13  1  0
  7  8  1  0
  8  9  2  0
  9 10  1  0
  9 12  1  0
 10 11  2  0
 12 13  2  0
 14 15  2  0
 14 16  1  0
 16 17  1  0
 17 18  1  0
 18 19  2  0
 18 26  1  0
 19 20  1  0
 21 20  1  6
 20 24  2  0
 21 22  1  0
 21 23  1  0
 22 23  1  0
 24 25  1  0
 25 26  2  0
 25 31  1  0
 26 27  1  0
 27 28  1  0
 28 29  2  0
 28 30  1  0
 30 31  1  0
 31 32  1  1
 32 33  2  0
 32 41  1  0
 33 34  1  0
 34 35  2  0
 35 36  1  0
 36 37  2  0
 36 41  1  0
 37 38  1  0
 38 39  2  0
 39 40  1  0
 40 41  2  0
M  CHG  1  35   1
M  END
