
     RDKit          3D

 41 46  0  0  0  0  0  0  0  0999 V2000
   -6.0010   -3.8970    1.2070 C   0  0  0  0  0  0  0  0  0  0  0  0
   -5.0350   -3.1950    1.7670 C   0  0  0  0  0  0  0  0  0  0  0  0
   -5.1850   -2.4560    2.9510 C   0  0  0  0  0  0  0  0  0  0  0  0
   -3.9880   -1.8720    3.2210 C   0  0  0  0  0  0  0  0  0  0  0  0
   -3.0850   -2.1930    2.2830 N   0  0  0  0  0  0  0  0  0  0  0  0
   -1.6950   -1.7860    2.2220 C   0  0  0  0  0  0  0  0  0  0  0  0
   -1.6270   -0.5280    1.3390 C   0  0  0  0  0  0  0  0  0  0  0  0
   -0.1980   -0.0520    1.2890 C   0  0  0  0  0  0  0  0  0  0  0  0
    0.0530    1.1100    0.4440 C   0  0  0  0  0  0  0  0  0  0  0  0
    0.2680    1.0710   -0.9280 C   0  0  0  0  0  0  0  0  0  0  0  0
    0.2650   -0.2360   -1.6070 C   0  0  0  0  0  0  0  0  0  0  0  0
    0.5460   -0.1800   -3.0200 N   0  0  0  0  0  0  0  0  0  0  0  0
    1.9770   -0.1680   -3.2870 C   0  0  0  0  0  0  0  0  0  0  0  0
    2.5780   -1.5020   -2.9050 C   0  0  0  0  0  0  0  0  0  0  0  0
    2.4740   -2.5710   -3.7700 C   0  0  0  0  0  0  0  0  0  0  0  0
    2.9910   -3.7980   -3.4700 C   0  0  0  0  0  0  0  0  0  0  0  0
    3.6510   -4.0020   -2.2550 C   0  0  0  0  0  0  0  0  0  0  0  0
    3.7590   -2.9410   -1.3900 C   0  0  0  0  0  0  0  0  0  0  0  0
    3.2200   -1.6850   -1.7170 C   0  0  0  0  0  0  0  0  0  0  0  0
    4.4070   -3.3260   -0.3100 C   0  0  0  0  0  0  0  0  0  0  0  0
    4.7660   -4.7510   -0.4450 C   0  0  0  0  0  0  0  0  0  0  0  0
    4.2130   -5.0980   -1.7730 C   0  0  0  0  0  0  0  0  0  0  0  0
    0.4820    2.2470   -1.6290 C   0  0  0  0  0  0  0  0  0  0  0  0
    0.4950    3.4980   -1.0150 C   0  0  0  0  0  0  0  0  0  0  0  0
    0.2830    3.5340    0.3410 C   0  0  0  0  0  0  0  0  0  0  0  0
    0.0670    2.3570    1.0490 C   0  0  0  0  0  0  0  0  0  0  0  0
   -0.1440    2.5240    2.4820 C   0  0  0  0  0  0  0  0  0  0  0  0
   -1.3160    2.6850    2.8810 O   0  0  0  0  0  0  0  0  0  0  0  0
    0.8710    2.5140    3.4040 O   0  0  0  0  0  0  0  0  0  0  0  0
    0.6660    2.6800    4.8040 C   0  0  0  0  0  0  0  0  0  0  0  0
    0.2920    4.7770    0.9690 O   0  0  0  0  0  0  0  0  0  0  0  0
    0.5060    5.9530    0.2710 C   0  0  0  0  0  0  0  0  0  0  0  0
    0.5040    7.1500    0.9450 C   0  0  0  0  0  0  0  0  0  0  0  0
    0.7140    8.3320    0.2700 C   0  0  0  0  0  0  0  0  0  0  0  0
    0.9290    8.2730   -1.1130 C   0  0  0  0  0  0  0  0  0  0  0  0
    0.9290    7.0690   -1.7800 C   0  0  0  0  0  0  0  0  0  0  0  0
    0.7150    5.8670   -1.0950 C   0  0  0  0  0  0  0  0  0  0  0  0
    0.7160    4.6570   -1.7720 O   0  0  0  0  0  0  0  0  0  0  0  0
   -3.7190   -3.0130    1.3730 C   0  0  0  0  0  0  0  0  0  0  0  0
   -3.1160   -3.4800    0.3100 C   0  0  0  0  0  0  0  0  0  0  0  0
   -3.6970   -4.3130   -0.7350 C   0  0  0  0  0  0  0  0  0  0  0  0
  1  2  2  0
  2  3  1  0
  2 39  1  0
  3  4  2  0
  4  5  1  0
  5  6  1  0
  5 39  1  0
  6  7  1  0
  7  8  1  0
  8  9  1  0
  9 10  1  0
  9 26  2  0
 10 11  1  0
 10 23  2  0
 11 12  1  0
 12 13  1  0
 13 14  1  0
 14 15  1  0
 14 19  2  0
 15 16  2  0
 16 17  1  0
 17 18  1  0
 17 22  2  0
 18 19  1  0
 18 20  2  0
 20 21  1  0
 21 22  1  0
 23 24  1  0
 24 25  2  0
 24 38  1  0
 25 26  1  0
 25 31  1  0
 26 27  1  0
 27 28  2  0
 27 29  1  0
 29 30  1  0
 31 32  1  0
 32 33  2  0
 32 37  1  0
 33 34  1  0
 34 35  2  0
 35 36  1  0
 36 37  2  0
 37 38  1  0
 39 40  2  3
 40 41  1  0
M  CHG  1  12   1
M  END
