
     RDKit          3D

 38 42  0  0  0  0  0  0  0  0999 V2000
   -2.6360    5.2930    0.8140 C   0  0  0  0  0  0  0  0  0  0  0  0
   -2.7550    3.8240    0.6210 C   0  0  0  0  0  0  0  0  0  0  0  0
   -1.6690    3.0180    0.9210 C   0  0  0  0  0  0  0  0  0  0  0  0
   -1.7120    1.6400    0.7640 C   0  0  0  0  0  0  0  0  0  0  0  0
   -2.8760    1.0410    0.2870 C   0  0  0  0  0  0  0  0  0  0  0  0
   -3.9330    1.8510   -0.0010 C   0  0  0  0  0  0  0  0  0  0  0  0
   -3.9110    3.2420    0.1520 C   0  0  0  0  0  0  0  0  0  0  0  0
   -5.1010    4.0690   -0.1800 C   0  0  0  0  0  0  0  0  0  0  0  0
   -2.8690   -0.3830    0.0460 N   0  0  0  0  0  0  0  0  0  0  0  0
   -3.8950   -0.8810   -0.8650 C   0  0  0  0  0  0  0  0  0  0  0  0
   -4.8720   -1.6830   -0.1000 C   0  0  0  0  0  0  0  0  0  0  0  0
   -5.9830   -2.2350   -0.9100 C   0  0  0  0  0  0  0  0  0  0  0  0
   -7.1160   -1.4230   -1.0290 C   0  0  0  0  0  0  0  0  0  0  0  0
   -8.1880   -1.8860   -1.7710 C   0  0  0  0  0  0  0  0  0  0  0  0
   -8.1250   -3.0940   -2.3570 N   0  0  0  0  0  0  0  0  0  0  0  0
   -7.0330   -3.8890   -2.2490 C   0  0  0  0  0  0  0  0  0  0  0  0
   -5.9470   -3.4670   -1.5220 C   0  0  0  0  0  0  0  0  0  0  0  0
   -1.9040   -1.2640    0.6450 C   0  0  2  0  0  0  0  0  0  0  0  0
   -2.5070   -1.9240    1.8920 C   0  0  0  0  0  0  0  0  0  0  0  0
   -0.7060   -0.4950    1.1150 C   0  0  0  0  0  0  0  0  0  0  0  0
    0.4710   -1.1600    1.5640 N   0  0  0  0  0  0  0  0  0  0  0  0
    1.7920   -0.7180    1.3480 C   0  0  0  0  0  0  0  0  0  0  0  0
    2.8360   -1.4040    1.9440 C   0  0  0  0  0  0  0  0  0  0  0  0
    4.1550   -1.0420    1.7810 C   0  0  0  0  0  0  0  0  0  0  0  0
    4.4840    0.0430    0.9980 C   0  0  0  0  0  0  0  0  0  0  0  0
    5.8510    0.4270    0.8220 N   0  0  0  0  0  0  0  0  0  0  0  0
    6.5570   -0.1550   -0.0870 C   0  0  0  0  0  0  0  0  0  0  0  0
    6.0280   -1.1180   -0.8710 N   0  0  0  0  0  0  0  0  0  0  0  0
    6.7490   -1.7410   -1.8290 C   0  0  0  0  0  0  0  0  0  0  0  0
    6.2330   -2.6460   -2.5590 O   0  0  0  0  0  0  0  0  0  0  0  0
    8.0220   -1.3920   -2.0040 N   0  0  0  0  0  0  0  0  0  0  0  0
    8.5900   -0.4360   -1.2440 C   0  0  0  0  0  0  0  0  0  0  0  0
   10.0200   -0.0280   -1.4250 C   0  0  0  0  0  0  0  0  0  0  0  0
    7.8700    0.2210   -0.2500 C   0  0  0  0  0  0  0  0  0  0  0  0
    8.4780    1.2200    0.5420 N   0  0  0  0  0  0  0  0  0  0  0  0
    3.4640    0.7330    0.4010 C   0  0  0  0  0  0  0  0  0  0  0  0
    2.1250    0.3580    0.5720 C   0  0  0  0  0  0  0  0  0  0  0  0
   -0.6630    0.7940    1.1550 N   0  0  0  0  0  0  0  0  0  0  0  0
  1  2  1  0
  2  3  2  0
  2  7  1  0
  3  4  1  0
  4  5  2  0
  4 38  1  0
  5  6  1  0
  5  9  1  0
  6  7  2  0
  7  8  1  0
  9 10  1  0
  9 18  1  0
 10 11  1  0
 11 12  1  0
 12 13  2  0
 12 17  1  0
 13 14  1  0
 14 15  2  0
 15 16  1  0
 16 17  2  0
 18 19  1  1
 18 20  1  0
 20 21  1  0
 20 38  2  0
 21 22  1  0
 22 23  2  0
 22 37  1  0
 23 24  1  0
 24 25  2  0
 25 26  1  0
 25 36  1  0
 26 27  2  3
 27 28  1  0
 27 34  1  0
 28 29  1  0
 29 30  2  0
 29 31  1  0
 31 32  1  0
 32 33  1  0
 32 34  2  0
 34 35  1  0
 36 37  2  0
M  END
