
     RDKit          3D

 38 42  0  0  0  0  0  0  0  0999 V2000
    6.4840   -2.8830   -3.7480 C   0  0  0  0  0  0  0  0  0  0  0  0
    6.5380   -2.5500   -2.2990 C   0  0  0  0  0  0  0  0  0  0  0  0
    6.8270   -3.4900   -1.3350 C   0  0  0  0  0  0  0  0  0  0  0  0
    6.8770   -3.1840    0.0040 C   0  0  0  0  0  0  0  0  0  0  0  0
    6.6330   -1.8760    0.4540 C   0  0  0  0  0  0  0  0  0  0  0  0
    6.7080   -1.6050    1.8450 N   0  0  0  0  0  0  0  0  0  0  0  0
    6.3140   -0.3420    2.3350 C   0  0  0  0  0  0  0  0  0  0  0  0
    7.1150    0.3500    3.3070 N   0  0  0  0  0  0  0  0  0  0  0  0
    5.2200    0.1940    1.9220 N   0  0  0  0  0  0  0  0  0  0  0  0
    4.7830    1.4640    2.3870 C   0  0  0  0  0  0  0  0  0  0  0  0
    5.4520    2.2400    3.2690 N   0  0  0  0  0  0  0  0  0  0  0  0
    4.7200    3.3710    3.4730 C   0  0  0  0  0  0  0  0  0  0  0  0
    3.6450    3.2340    2.7090 N   0  0  0  0  0  0  0  0  0  0  0  0
    3.6730    2.0710    2.0410 N   0  0  0  0  0  0  0  0  0  0  0  0
    2.6130    1.6790    1.1460 C   0  0  0  0  0  0  0  0  0  0  0  0
    2.8330    0.7490    0.1600 C   0  0  0  0  0  0  0  0  0  0  0  0
    1.8020    0.3920   -0.6790 C   0  0  0  0  0  0  0  0  0  0  0  0
    0.5280    0.9740   -0.5310 C   0  0  0  0  0  0  0  0  0  0  0  0
    0.2660    1.9060    0.4400 C   0  0  0  0  0  0  0  0  0  0  0  0
   -0.9700    2.5520    0.6560 N   0  0  0  0  0  0  0  0  0  0  0  0
   -2.0730    2.4990   -0.1910 C   0  0  0  0  0  0  0  0  0  0  0  0
   -2.0440    1.8580   -1.2480 O   0  0  0  0  0  0  0  0  0  0  0  0
   -3.3110    3.1740    0.0940 N   0  0  0  0  0  0  0  0  0  0  0  0
   -4.4510    3.1200   -0.7790 C   0  0  0  0  0  0  0  0  0  0  0  0
   -5.0970    1.7850   -0.6020 C   0  0  0  0  0  0  0  0  0  0  0  0
   -4.6420    0.8290    0.2830 C   0  0  0  0  0  0  0  0  0  0  0  0
   -5.2780   -0.3970    0.4100 C   0  0  0  0  0  0  0  0  0  0  0  0
   -4.7680   -1.4040    1.3680 C   0  0  0  0  0  0  0  0  0  0  0  0
   -6.3820   -0.6350   -0.3760 C   0  0  0  0  0  0  0  0  0  0  0  0
   -6.8720    0.2910   -1.2740 C   0  0  0  0  0  0  0  0  0  0  0  0
   -6.2230    1.4980   -1.3800 C   0  0  0  0  0  0  0  0  0  0  0  0
   -8.0700   -0.0790   -2.0680 C   0  0  0  0  0  0  0  0  0  0  0  0
   -7.7830   -1.4340   -2.6790 C   0  0  0  0  0  0  0  0  0  0  0  0
   -7.3380   -2.4540   -1.6750 C   0  0  0  0  0  0  0  0  0  0  0  0
   -7.1170   -1.9270   -0.2960 C   0  0  0  0  0  0  0  0  0  0  0  0
    1.3660    2.2200    1.2570 C   0  0  0  0  0  0  0  0  0  0  0  0
    6.3490   -0.9550   -0.5200 C   0  0  0  0  0  0  0  0  0  0  0  0
    6.2970   -1.2630   -1.8740 C   0  0  0  0  0  0  0  0  0  0  0  0
  1  2  1  0
  2  3  2  0
  2 38  1  0
  3  4  1  0
  4  5  2  0
  5  6  1  0
  5 37  1  0
  6  7  1  0
  7  8  1  0
  7  9  2  3
  9 10  1  0
 10 11  2  0
 10 14  1  0
 11 12  1  0
 12 13  2  0
 13 14  1  0
 14 15  1  0
 15 16  2  0
 15 36  1  0
 16 17  1  0
 17 18  2  0
 18 19  1  0
 19 20  1  0
 19 36  2  0
 20 21  1  0
 21 22  2  0
 21 23  1  0
 23 24  1  0
 24 25  1  0
 25 26  2  0
 25 31  1  0
 26 27  1  0
 27 28  1  0
 27 29  2  0
 29 30  1  0
 29 35  1  0
 30 31  2  0
 30 32  1  0
 32 33  1  0
 33 34  1  0
 34 35  1  0
 37 38  2  0
M  END
