
     RDKit          3D

 38 42  0  0  0  0  0  0  0  0999 V2000
    9.1030   -3.1750    0.2570 N   0  0  0  0  0  0  0  0  0  0  0  0
    8.4340   -2.0340   -0.2290 C   0  0  0  0  0  0  0  0  0  0  0  0
    8.7250   -1.4650   -1.4050 N   0  0  0  0  0  0  0  0  0  0  0  0
    8.0510   -0.3830   -1.8930 C   0  0  0  0  0  0  0  0  0  0  0  0
    7.0590    0.1500   -1.1990 N   0  0  0  0  0  0  0  0  0  0  0  0
    6.7100   -0.3790    0.0070 C   0  0  0  0  0  0  0  0  0  0  0  0
    7.3880   -1.4590    0.4920 C   0  0  0  0  0  0  0  0  0  0  0  0
    6.8530   -1.7650    1.6750 N   0  0  0  0  0  0  0  0  0  0  0  0
    5.8600   -0.9090    1.9260 C   0  0  0  0  0  0  0  0  0  0  0  0
    5.7670   -0.0480    0.8870 N   0  0  0  0  0  0  0  0  0  0  0  0
    4.7630    0.9240    0.7090 C   0  0  2  0  0  0  0  0  0  0  0  0
    4.0300    0.5190   -0.5080 O   0  0  0  0  0  0  0  0  0  0  0  0
    2.9550    1.4640   -0.1980 C   0  0  2  0  0  0  0  0  0  0  0  0
    1.8020    1.0220   -1.0970 C   0  0  0  0  0  0  0  0  0  0  0  0
    1.8680   -0.3510   -1.0540 O   0  0  0  0  0  0  0  0  0  0  0  0
    1.0410   -1.3010   -0.1200 S   0  0  2  0  0  0  0  0  0  0  0  0
    1.6600   -1.2210    1.3540 O   0  0  0  0  0  0  0  0  0  0  0  0
    1.3520   -2.7680   -0.4690 O   0  0  0  0  0  0  0  0  0  0  0  0
   -0.6300   -1.2280    0.1470 N   0  0  0  0  0  0  0  0  0  0  0  0
   -1.1670   -0.0910    0.7720 C   0  0  0  0  0  0  0  0  0  0  0  0
   -0.4210    0.8720    1.0680 O   0  0  0  0  0  0  0  0  0  0  0  0
   -2.5830    0.0230    1.1050 C   0  0  0  0  0  0  0  0  0  0  0  0
   -3.3730    0.7740    0.1290 C   0  0  0  0  0  0  0  0  0  0  0  0
   -3.6990    0.1130   -1.1580 C   0  0  0  0  0  0  0  0  0  0  0  0
   -4.5020   -1.1730   -1.0350 C   0  0  0  0  0  0  0  0  0  0  0  0
   -5.6560   -1.0900   -0.1740 C   0  0  2  0  0  0  0  0  0  0  0  0
   -6.7500   -2.5370   -0.1740 S   0  0  0  0  0  0  0  0  0  0  0  0
   -8.3450   -1.5250   -0.2290 C   0  0  0  0  0  0  0  0  0  0  0  0
   -7.8530   -0.4010    0.6180 C   0  0  2  0  0  0  0  0  0  0  0  0
   -8.5940    0.8130    0.5030 N   0  0  0  0  0  0  0  0  0  0  0  0
   -8.1280    1.4400   -0.7160 C   0  0  0  0  0  0  0  0  0  0  0  0
   -8.6010    2.4940   -1.2300 O   0  0  0  0  0  0  0  0  0  0  0  0
   -7.0430    0.6530   -1.2300 N   0  0  0  0  0  0  0  0  0  0  0  0
   -6.5240    0.0500   -0.0400 C   0  0  2  0  0  0  0  0  0  0  0  0
    3.7370    2.6800   -0.5030 C   0  0  1  0  0  0  0  0  0  0  0  0
    3.2240    3.8680   -0.0780 O   0  0  0  0  0  0  0  0  0  0  0  0
    5.0400    2.3240    0.3340 C   0  0  2  0  0  0  0  0  0  0  0  0
    6.1540    2.5220   -0.3980 F   0  0  0  0  0  0  0  0  0  0  0  0
  1  2  1  0
  2  3  2  0
  2  7  1  0
  3  4  1  0
  4  5  2  0
  5  6  1  0
  6  7  2  0
  6 10  1  0
  7  8  1  0
  8  9  2  0
  9 10  1  0
 11 10  1  6
 11 12  1  0
 11 37  1  0
 12 13  1  0
 13 14  1  6
 13 35  1  0
 14 15  1  0
 15 16  1  0
 16 17  2  0
 16 18  2  0
 16 19  1  1
 19 20  1  0
 20 21  2  0
 20 22  1  0
 22 23  1  0
 23 24  1  0
 24 25  1  0
 26 25  1  6
 26 27  1  0
 26 34  1  0
 27 28  1  0
 29 28  1  6
 29 30  1  0
 29 34  1  0
 30 31  1  0
 31 32  2  0
 31 33  1  0
 34 33  1  6
 35 36  1  1
 35 37  1  0
 37 38  1  6
M  END
