
     RDKit          3D

 38 42  0  0  0  0  0  0  0  0999 V2000
    3.5570   -4.0200   -3.0280 C   0  0  0  0  0  0  0  0  0  0  0  0
    3.3550   -3.4410   -1.6650 C   0  0  0  0  0  0  0  0  0  0  0  0
    3.5510   -1.9710   -1.6120 C   0  0  0  0  0  0  0  0  0  0  0  0
    2.5040   -1.0790   -1.5300 C   0  0  0  0  0  0  0  0  0  0  0  0
    2.7000    0.2930   -1.4790 C   0  0  0  0  0  0  0  0  0  0  0  0
    1.6290    1.2400   -1.4320 C   0  0  0  0  0  0  0  0  0  0  0  0
    0.3520    0.8950   -1.4270 C   0  0  0  0  0  0  0  0  0  0  0  0
   -0.7820    1.7340   -1.3870 C   0  0  0  0  0  0  0  0  0  0  0  0
   -1.9630    1.0810   -1.4700 N   0  0  0  0  0  0  0  0  0  0  0  0
   -1.7590   -0.2840   -1.5550 N   0  0  0  0  0  0  0  0  0  0  0  0
   -2.0760   -1.1070   -0.4410 C   0  0  0  0  0  0  0  0  0  0  0  0
   -3.3740   -1.5680   -0.2650 C   0  0  0  0  0  0  0  0  0  0  0  0
   -3.7640   -2.3660    0.7820 C   0  0  0  0  0  0  0  0  0  0  0  0
   -5.0280   -2.8030    0.9330 N   0  0  0  0  0  0  0  0  0  0  0  0
   -5.3620   -3.5850    1.9780 C   0  0  0  0  0  0  0  0  0  0  0  0
   -6.7440   -4.0600    2.1470 C   0  0  0  0  0  0  0  0  0  0  0  0
   -4.3790   -3.9310    2.8910 C   0  0  0  0  0  0  0  0  0  0  0  0
   -3.0770   -3.5090    2.7760 C   0  0  0  0  0  0  0  0  0  0  0  0
   -2.7710   -2.7100    1.6940 C   0  0  0  0  0  0  0  0  0  0  0  0
   -1.4770   -2.2530    1.5220 C   0  0  0  0  0  0  0  0  0  0  0  0
   -1.1850   -1.4840    0.4820 N   0  0  0  0  0  0  0  0  0  0  0  0
   -0.5200   -2.6520    2.5000 N   0  0  0  0  0  0  0  0  0  0  0  0
   -0.6950   -3.8050    3.2360 N   0  0  0  0  0  0  0  0  0  0  0  0
   -2.0450   -3.8870    3.7570 C   0  0  0  0  0  0  0  0  0  0  0  0
   -1.2170    3.0380   -1.4690 N   0  0  0  0  0  0  0  0  0  0  0  0
   -0.6320    4.0780   -0.7590 C   0  0  0  0  0  0  0  0  0  0  0  0
    0.2570    3.5710    0.0160 O   0  0  0  0  0  0  0  0  0  0  0  0
   -1.0010    5.4010   -0.8960 N   0  0  0  0  0  0  0  0  0  0  0  0
   -0.3980    6.3740   -0.0730 C   0  0  0  0  0  0  0  0  0  0  0  0
    0.8380    6.2500    0.5080 C   0  0  0  0  0  0  0  0  0  0  0  0
    1.3740    7.1900    1.3730 C   0  0  0  0  0  0  0  0  0  0  0  0
    0.5990    8.2860    1.6360 C   0  0  0  0  0  0  0  0  0  0  0  0
   -0.6270    8.4290    1.0710 C   0  0  0  0  0  0  0  0  0  0  0  0
   -1.1680    7.5170    0.2200 C   0  0  0  0  0  0  0  0  0  0  0  0
    3.9970    0.8290   -1.5090 C   0  0  0  0  0  0  0  0  0  0  0  0
    5.0330   -0.0640   -1.5910 C   0  0  0  0  0  0  0  0  0  0  0  0
    4.8080   -1.4180   -1.6410 C   0  0  0  0  0  0  0  0  0  0  0  0
    5.9520   -2.3860   -1.7390 C   0  0  0  0  0  0  0  0  0  0  0  0
  1  2  1  0
  2  3  1  0
  3  4  2  0
  3 37  1  0
  4  5  1  0
  5  6  1  0
  5 35  2  0
  6  7  2  3
  7  8  1  0
  8  9  2  3
  8 25  1  0
  9 10  1  0
 10 11  1  0
 11 12  2  0
 11 21  1  0
 12 13  1  0
 13 14  2  0
 13 19  1  0
 14 15  1  0
 15 16  1  0
 15 17  2  0
 17 18  1  0
 18 19  2  0
 18 24  1  0
 19 20  1  0
 20 21  2  0
 20 22  1  0
 22 23  1  0
 23 24  1  0
 25 26  1  0
 26 27  2  0
 26 28  1  0
 28 29  1  0
 29 30  2  0
 29 34  1  0
 30 31  1  0
 31 32  2  0
 32 33  1  0
 33 34  2  0
 35 36  1  0
 36 37  2  0
 37 38  1  0
M  END
