
     RDKit          3D

 39 42  0  0  0  0  0  0  0  0999 V2000
   -3.4240   -1.6430   -3.7190 C   0  0  0  0  0  0  0  0  0  0  0  0
   -3.4180   -1.6330   -2.3270 O   0  0  0  0  0  0  0  0  0  0  0  0
   -2.2000   -1.1950   -1.8170 C   0  0  0  0  0  0  0  0  0  0  0  0
   -2.3380   -1.2360   -0.3000 C   0  0  1  0  0  0  0  0  0  0  0  0
   -2.6010   -2.5980    0.0610 C   0  0  0  0  0  0  0  0  0  0  0  0
   -2.3640   -3.5850   -0.7540 O   0  0  0  0  0  0  0  0  0  0  0  0
   -3.1280   -3.0660    1.2740 O   0  0  0  0  0  0  0  0  0  0  0  0
   -3.3650   -4.4180    1.5630 C   0  0  0  0  0  0  0  0  0  0  0  0
   -1.2400   -0.4370    0.3930 C   0  0  1  0  0  0  0  0  0  0  0  0
   -1.4030   -0.5760    1.8280 C   0  0  0  0  0  0  0  0  0  0  0  0
   -2.4600   -0.1890    2.7460 C   0  0  0  0  0  0  0  0  0  0  0  0
   -2.8490    1.1140    3.0700 N   0  0  0  0  0  0  0  0  0  0  0  0
    0.1100   -0.9760    0.0120 C   0  0  0  0  0  0  0  0  0  0  0  0
    0.9850   -0.3190   -0.6950 C   0  0  0  0  0  0  0  0  0  0  0  0
    2.3210   -0.9250   -1.0530 C   0  0  0  0  0  0  0  0  0  0  0  0
    2.8010   -1.7750    0.0760 C   0  0  2  0  0  0  0  0  0  0  0  0
    4.0730   -2.4760   -0.2310 C   0  0  0  0  0  0  0  0  0  0  0  0
    5.1380   -1.5800   -0.3480 O   0  0  0  0  0  0  0  0  0  0  0  0
    5.6540   -0.7590    0.6110 C   0  0  0  0  0  0  0  0  0  0  0  0
    5.1260    0.3690    0.9980 C   0  0  0  0  0  0  0  0  0  0  0  0
    5.7050    1.2610    2.0540 C   0  0  2  0  0  0  0  0  0  0  0  0
    5.9460    2.5170    1.4940 O   0  0  0  0  0  0  0  0  0  0  0  0
    6.8870    0.7420    2.5800 O   0  0  0  0  0  0  0  0  0  0  0  0
    7.4660   -0.4410    2.1920 C   0  0  0  0  0  0  0  0  0  0  0  0
    6.9110   -1.1710    1.2680 C   0  0  0  0  0  0  0  0  0  0  0  0
    7.5470   -2.3740    0.9090 O   0  0  0  0  0  0  0  0  0  0  0  0
    1.7640   -2.7850    0.2750 O   0  0  0  0  0  0  0  0  0  0  0  0
    0.4740   -2.3170    0.5610 C   0  0  0  0  0  0  0  0  0  0  0  0
   -0.2110   -3.0700    1.2370 O   0  0  0  0  0  0  0  0  0  0  0  0
    0.7800    0.9930   -1.1790 O   0  0  0  0  0  0  0  0  0  0  0  0
   -0.4160    1.5410   -0.8550 C   0  0  0  0  0  0  0  0  0  0  0  0
   -1.3550    0.9420   -0.1510 C   0  0  0  0  0  0  0  0  0  0  0  0
   -2.5380    1.8390   -0.0260 C   0  0  1  0  0  0  0  0  0  0  0  0
   -2.2850    2.9760    0.7330 O   0  0  0  0  0  0  0  0  0  0  0  0
   -2.9910    2.4180   -1.3390 C   0  0  0  0  0  0  0  0  0  0  0  0
   -1.9310    3.2300   -1.9540 C   0  0  2  0  0  0  0  0  0  0  0  0
   -2.2740    4.7070   -1.7260 C   0  0  0  0  0  0  0  0  0  0  0  0
   -1.8410    3.0340   -3.4630 C   0  0  0  0  0  0  0  0  0  0  0  0
   -0.6260    2.9330   -1.3660 C   0  0  0  0  0  0  0  0  0  0  0  0
  1  2  1  0
  2  3  1  0
  4  3  1  6
  4  5  1  0
  4  9  1  0
  5  6  2  0
  5  7  1  0
  7  8  1  0
  9 10  1  1
  9 13  1  0
  9 32  1  0
 10 11  1  0
 11 12  1  0
 13 14  2  0
 13 28  1  0
 14 15  1  0
 14 30  1  0
 15 16  1  0
 16 17  1  6
 16 27  1  0
 17 18  1  0
 18 19  1  0
 19 20  2  0
 19 25  1  0
 20 21  1  0
 21 22  1  6
 21 23  1  0
 23 24  1  0
 24 25  2  0
 25 26  1  0
 27 28  1  0
 28 29  2  0
 30 31  1  0
 31 32  2  0
 31 39  1  0
 32 33  1  0
 33 34  1  1
 33 35  1  0
 35 36  1  0
 36 37  1  6
 36 38  1  0
 36 39  1  0
M  CHG  1  12   1
M  END
