
     RDKit          3D

 39 43  0  0  0  0  0  0  0  0999 V2000
   -2.6690    0.2770   -1.8000 N   0  0  0  0  0  0  0  0  0  0  0  0
   -2.5740    0.1660   -0.3120 C   0  0  2  0  0  0  0  0  0  0  0  0
   -1.1210   -0.1130   -0.1680 C   0  0  0  0  0  0  0  0  0  0  0  0
   -0.2310    0.6930   -0.5470 O   0  0  0  0  0  0  0  0  0  0  0  0
   -0.6480   -1.3090    0.3640 O   0  0  0  0  0  0  0  0  0  0  0  0
    0.6030   -1.8160    0.4220 C   0  0  0  0  0  0  0  0  0  0  0  0
    1.7240   -1.0610    0.9800 C   0  0  0  0  0  0  0  0  0  0  0  0
    1.9020   -0.1530    1.9640 C   0  0  0  0  0  0  0  0  0  0  0  0
    3.2660    0.2090    1.9750 C   0  0  0  0  0  0  0  0  0  0  0  0
    3.8600   -0.5020    0.9910 C   0  0  0  0  0  0  0  0  0  0  0  0
    5.2780   -0.5190    0.5170 C   0  0  0  0  0  0  0  0  0  0  0  0
    5.5570   -1.5380   -0.3120 C   0  0  0  0  0  0  0  0  0  0  0  0
    6.7890   -1.9500   -1.0350 C   0  0  1  0  0  0  0  0  0  0  0  0
    6.3550   -2.7720   -2.1180 O   0  0  0  0  0  0  0  0  0  0  0  0
    7.6220   -0.8440   -1.5460 C   0  0  2  0  0  0  0  0  0  0  0  0
    8.6050   -1.3170   -2.3910 O   0  0  0  0  0  0  0  0  0  0  0  0
    8.1760    0.0270   -0.4980 C   0  0  0  0  0  0  0  0  0  0  0  0
    9.4370    0.4380   -0.4110 O   0  0  0  0  0  0  0  0  0  0  0  0
    9.5750    1.2270    0.6280 C   0  0  0  0  0  0  0  0  0  0  0  0
    8.3710    1.3370    1.2470 C   0  0  0  0  0  0  0  0  0  0  0  0
    7.9600    2.1040    2.4820 C   0  0  0  0  0  0  0  0  0  0  0  0
    8.2740    3.4690    2.0600 O   0  0  0  0  0  0  0  0  0  0  0  0
    7.4640    0.5640    0.5420 C   0  0  0  0  0  0  0  0  0  0  0  0
    6.1260    0.4490    0.9230 O   0  0  0  0  0  0  0  0  0  0  0  0
    2.9570   -1.2250    0.4320 O   0  0  0  0  0  0  0  0  0  0  0  0
   -3.2800   -1.1080    0.1210 C   0  0  0  0  0  0  0  0  0  0  0  0
   -4.7710   -0.9730    0.0460 C   0  0  1  0  0  0  0  0  0  0  0  0
   -5.4280   -2.2700    0.3650 C   0  0  0  0  0  0  0  0  0  0  0  0
   -6.9230   -2.2250    0.3560 C   0  0  0  0  0  0  0  0  0  0  0  0
   -7.5020   -3.5890    0.6140 C   0  0  0  0  0  0  0  0  0  0  0  0
   -7.0140   -4.5700   -0.2840 O   0  0  0  0  0  0  0  0  0  0  0  0
   -5.1890    0.0890    0.7770 O   0  0  0  0  0  0  0  0  0  0  0  0
   -4.7060    1.3060    0.3060 C   0  0  2  0  0  0  0  0  0  0  0  0
   -5.1940    2.3200    1.3220 C   0  0  0  0  0  0  0  0  0  0  0  0
   -4.8510    3.7190    0.9730 C   0  0  0  0  0  0  0  0  0  0  0  0
   -4.9620    4.0000   -0.5080 C   0  0  0  0  0  0  0  0  0  0  0  0
   -4.5580    2.9760   -1.3110 O   0  0  0  0  0  0  0  0  0  0  0  0
   -5.2090    1.7520   -1.0180 C   0  0  0  0  0  0  0  0  0  0  0  0
   -3.1680    1.3250    0.3270 C   0  0  0  0  0  0  0  0  0  0  0  0
  2  1  1  6
  2  3  1  0
  2 26  1  0
  2 39  1  0
  3  4  2  0
  3  5  1  0
  5  6  1  0
  6  7  1  0
  7  8  2  0
  7 25  1  0
  8  9  1  0
  9 10  2  0
 10 11  1  0
 10 25  1  0
 11 12  2  0
 11 24  1  0
 12 13  1  0
 13 14  1  6
 13 15  1  0
 15 16  1  1
 15 17  1  0
 17 18  1  0
 17 23  2  0
 18 19  1  0
 19 20  2  0
 20 21  1  0
 20 23  1  0
 21 22  1  0
 23 24  1  0
 26 27  1  0
 27 28  1  1
 27 32  1  0
 28 29  1  0
 29 30  1  0
 30 31  1  0
 32 33  1  0
 33 34  1  1
 33 38  1  0
 33 39  1  0
 34 35  1  0
 35 36  1  0
 36 37  1  0
 37 38  1  0
M  CHG  1   1   1
M  END
