
     RDKit          3D

 39 42  0  0  0  0  0  0  0  0999 V2000
    2.5440    3.8170    2.7120 C   0  0  0  0  0  0  0  0  0  0  0  0
    1.5710    2.9810    1.9880 C   0  0  0  0  0  0  0  0  0  0  0  0
    1.8720    1.7050    1.6500 C   0  0  0  0  0  0  0  0  0  0  0  0
    3.2320    1.3170    2.0890 C   0  0  0  0  0  0  0  0  0  0  0  0
    4.3460    1.1430    1.1070 C   0  0  2  0  0  0  0  0  0  0  0  0
    4.6400    2.3010    0.4580 O   0  0  0  0  0  0  0  0  0  0  0  0
    4.7570    2.0250   -0.8980 C   0  0  0  0  0  0  0  0  0  0  0  0
    3.8230    0.7870   -1.0690 C   0  0  0  0  0  0  0  0  0  0  0  0
    4.0420    0.0400    0.1430 C   0  0  2  0  0  0  0  0  0  0  0  0
    3.1500   -0.6740    0.8730 O   0  0  0  0  0  0  0  0  0  0  0  0
    5.1420   -0.9600   -0.1560 C   0  0  0  0  0  0  0  0  0  0  0  0
    4.6960   -1.9740   -1.1270 N   0  0  0  0  0  0  0  0  0  0  0  0
    3.3220   -2.2520   -0.9780 C   0  0  0  0  0  0  0  0  0  0  0  0
    2.5980   -3.1300   -1.9610 C   0  0  0  0  0  0  0  0  0  0  0  0
    1.0940   -2.7560   -1.8550 C   0  0  1  0  0  0  0  0  0  0  0  0
    0.3460   -3.6700   -2.6000 O   0  0  0  0  0  0  0  0  0  0  0  0
    0.6000   -2.6540   -0.4820 C   0  0  0  0  0  0  0  0  0  0  0  0
   -0.6220   -1.8650   -0.2040 C   0  0  0  0  0  0  0  0  0  0  0  0
   -1.7810   -2.6380   -0.1000 C   0  0  0  0  0  0  0  0  0  0  0  0
   -1.8280   -3.9930   -0.3020 O   0  0  0  0  0  0  0  0  0  0  0  0
   -3.0040   -2.0450    0.2260 C   0  0  0  0  0  0  0  0  0  0  0  0
   -3.0920   -0.6990    0.4430 C   0  0  0  0  0  0  0  0  0  0  0  0
   -1.9370    0.0990    0.3460 C   0  0  0  0  0  0  0  0  0  0  0  0
   -2.0170    1.4100    0.5710 O   0  0  0  0  0  0  0  0  0  0  0  0
   -2.1530    2.6560    0.1310 C   0  0  0  0  0  0  0  0  0  0  0  0
   -3.3550    3.0880   -0.6500 C   0  0  0  0  0  0  0  0  0  0  0  0
   -3.1580    4.4630   -0.9480 O   0  0  0  0  0  0  0  0  0  0  0  0
   -0.7060   -0.5210    0.0160 C   0  0  0  0  0  0  0  0  0  0  0  0
    0.4220    0.4570   -0.1180 C   0  0  0  0  0  0  0  0  0  0  0  0
    0.9460    0.9790    1.0010 O   0  0  0  0  0  0  0  0  0  0  0  0
   -4.5450   -0.3640    0.6710 C   0  0  1  0  0  0  0  0  0  0  0  0
   -4.7610    0.6470    1.7290 C   0  0  0  0  0  0  0  0  0  0  0  0
   -5.2260   -0.0140   -0.6700 C   0  0  1  0  0  0  0  0  0  0  0  0
   -4.8530   -1.0170   -1.5740 O   0  0  0  0  0  0  0  0  0  0  0  0
   -6.7330   -0.1940   -0.4170 C   0  0  0  0  0  0  0  0  0  0  0  0
   -7.2300    0.7410    0.4540 O   0  0  0  0  0  0  0  0  0  0  0  0
   -5.1580   -1.6220    0.9760 O   0  0  0  0  0  0  0  0  0  0  0  0
   -4.3080   -2.6010    0.5570 C   0  0  0  0  0  0  0  0  0  0  0  0
   -4.6040   -3.8150    0.4690 O   0  0  0  0  0  0  0  0  0  0  0  0
  1  2  1  0
  2  3  2  3
  3  4  1  0
  3 30  1  0
  5  4  1  1
  5  6  1  0
  5  9  1  0
  6  7  1  0
  7  8  1  0
  8  9  1  0
  9 10  1  1
  9 11  1  0
 11 12  1  0
 12 13  1  0
 13 14  1  0
 14 15  1  0
 15 16  1  6
 15 17  1  0
 17 18  1  0
 18 19  2  0
 18 28  1  0
 19 20  1  0
 19 21  1  0
 21 22  2  0
 21 38  1  0
 22 23  1  0
 22 31  1  0
 23 24  1  0
 23 28  2  0
 24 25  1  0
 25 26  1  0
 26 27  1  0
 28 29  1  0
 29 30  1  0
 31 32  1  1
 31 33  1  0
 31 37  1  0
 33 34  1  6
 33 35  1  0
 35 36  1  0
 37 38  1  0
 38 39  2  0
M  CHG  1  12   1
M  END
