
     RDKit          3D

 39 43  0  0  0  0  0  0  0  0999 V2000
   -7.4420   -2.1180    3.0510 C   0  0  0  0  0  0  0  0  0  0  0  0
   -7.7280   -0.6430    3.1660 C   0  0  0  0  0  0  0  0  0  0  0  0
   -7.6470    0.0790    1.8470 C   0  0  0  0  0  0  0  0  0  0  0  0
   -6.3130   -0.0290    1.2320 C   0  0  0  0  0  0  0  0  0  0  0  0
   -5.4160   -0.6590    1.8360 O   0  0  0  0  0  0  0  0  0  0  0  0
   -5.9870    0.5620   -0.0480 N   0  0  0  0  0  0  0  0  0  0  0  0
   -7.0660    1.2710   -0.6760 C   0  0  0  0  0  0  0  0  0  0  0  0
   -4.6880    0.3900   -0.5510 C   0  0  0  0  0  0  0  0  0  0  0  0
   -3.9270   -0.3410    0.2310 O   0  0  0  0  0  0  0  0  0  0  0  0
   -4.0710    0.8770   -1.7710 C   0  0  2  0  0  0  0  0  0  0  0  0
   -2.7450    0.2880   -1.9840 N   0  0  0  0  0  0  0  0  0  0  0  0
   -1.6840    0.4540   -1.0870 C   0  0  0  0  0  0  0  0  0  0  0  0
   -1.8730    1.1520   -0.0360 O   0  0  0  0  0  0  0  0  0  0  0  0
   -0.3970   -0.1300   -1.3100 N   0  0  0  0  0  0  0  0  0  0  0  0
   -0.1840   -0.9360   -2.4850 C   0  0  0  0  0  0  0  0  0  0  0  0
    0.9970   -1.8680   -2.1970 C   0  0  0  0  0  0  0  0  0  0  0  0
    0.9310   -2.3560   -0.7550 C   0  0  0  0  0  0  0  0  0  0  0  0
    1.0290   -1.2490    0.2370 C   0  0  1  0  0  0  0  0  0  0  0  0
    2.2430   -1.2760    1.0140 N   0  0  0  0  0  0  0  0  0  0  0  0
    3.4370   -0.9480    0.3120 C   0  0  2  0  0  0  0  0  0  0  0  0
    4.2800   -2.2060    0.1610 C   0  0  0  0  0  0  0  0  0  0  0  0
    4.1850    0.1150    1.0880 C   0  0  1  0  0  0  0  0  0  0  0  0
    4.4960   -0.3520    2.3220 O   0  0  0  0  0  0  0  0  0  0  0  0
    5.6240    0.1330    2.9680 C   0  0  0  0  0  0  0  0  0  0  0  0
    6.7840   -0.1680    2.0880 C   0  0  2  0  0  0  0  0  0  0  0  0
    8.1360    0.2880    2.4730 C   0  0  0  0  0  0  0  0  0  0  0  0
    9.0570    0.1250    1.4810 O   0  0  0  0  0  0  0  0  0  0  0  0
    8.7020    0.3360    0.1740 C   0  0  0  0  0  0  0  0  0  0  0  0
    7.5240    1.2350    0.1040 C   0  0  1  0  0  0  0  0  0  0  0  0
    6.8730    1.5050   -1.1610 C   0  0  0  0  0  0  0  0  0  0  0  0
    7.4330    1.8510   -2.2610 O   0  0  0  0  0  0  0  0  0  0  0  0
    5.4640    1.3220   -0.9900 N   0  0  0  0  0  0  0  0  0  0  0  0
    5.2970    0.6900    0.2890 C   0  0  0  0  0  0  0  0  0  0  0  0
    6.4630    0.5220    0.8260 C   0  0  0  0  0  0  0  0  0  0  0  0
    0.7240    0.0550   -0.4140 C   0  0  0  0  0  0  0  0  0  0  0  0
   -3.8820    2.3850   -1.7470 C   0  0  0  0  0  0  0  0  0  0  0  0
   -3.4250    2.6260   -3.1920 C   0  0  0  0  0  0  0  0  0  0  0  0
   -4.0290    1.5270   -4.0130 C   0  0  0  0  0  0  0  0  0  0  0  0
   -4.8990    0.7280   -3.0270 C   0  0  0  0  0  0  0  0  0  0  0  0
  1  2  1  0
  2  3  1  0
  3  4  1  0
  4  5  2  0
  4  6  1  0
  6  7  1  0
  6  8  1  0
  8  9  2  0
  8 10  1  0
 10 11  1  6
 10 36  1  0
 10 39  1  0
 11 12  1  0
 12 13  2  0
 12 14  1  0
 14 15  1  0
 14 35  1  0
 15 16  1  0
 16 17  1  0
 17 18  1  0
 18 19  1  6
 18 35  1  0
 19 20  1  0
 20 21  1  1
 20 22  1  0
 22 23  1  1
 22 33  1  0
 23 24  1  0
 25 24  1  1
 25 26  1  0
 25 34  1  0
 26 27  1  0
 27 28  1  0
 29 28  1  6
 29 30  1  0
 29 34  1  0
 30 31  2  0
 30 32  1  0
 32 33  1  0
 33 34  2  0
 36 37  1  0
 37 38  1  0
 38 39  1  0
M  CHG  1  19   1
M  END
