
     RDKit          3D

 36 40  0  0  0  0  0  0  0  0999 V2000
   -5.7060    0.6310    0.5900 C   0  0  0  0  0  0  0  0  0  0  0  0
   -4.9170   -0.5870    0.2880 C   0  0  0  0  0  0  0  0  0  0  0  0
   -5.4250   -1.7940    0.3360 C   0  0  0  0  0  0  0  0  0  0  0  0
   -6.8050   -2.0290    0.6890 C   0  0  0  0  0  0  0  0  0  0  0  0
   -7.2970   -3.2040    0.7350 O   0  0  0  0  0  0  0  0  0  0  0  0
   -4.6390   -3.0420    0.0310 C   0  0  2  0  0  0  0  0  0  0  0  0
   -4.6990   -4.0050    1.2030 C   0  0  0  0  0  0  0  0  0  0  0  0
   -3.3400   -2.7550   -0.2970 O   0  0  0  0  0  0  0  0  0  0  0  0
   -2.7350   -1.4820   -0.3600 C   0  0  0  0  0  0  0  0  0  0  0  0
   -1.3240   -1.4250   -0.7220 C   0  0  0  0  0  0  0  0  0  0  0  0
   -0.8380   -2.1700   -1.8140 C   0  0  0  0  0  0  0  0  0  0  0  0
    0.5180   -1.9400   -1.9290 C   0  0  0  0  0  0  0  0  0  0  0  0
    0.8080   -1.0560   -0.8950 C   0  0  0  0  0  0  0  0  0  0  0  0
    2.1480   -0.5410   -0.6440 C   0  0  0  0  0  0  0  0  0  0  0  0
    2.3880    0.3500    0.3980 C   0  0  0  0  0  0  0  0  0  0  0  0
    3.6600    0.8480    0.6470 C   0  0  0  0  0  0  0  0  0  0  0  0
    4.7010    0.4500   -0.1540 C   0  0  0  0  0  0  0  0  0  0  0  0
    5.9950    0.9130    0.0450 C   0  0  0  0  0  0  0  0  0  0  0  0
    7.0300    0.4910   -0.7840 C   0  0  0  0  0  0  0  0  0  0  0  0
    6.7660   -0.3690   -1.7800 N   0  0  0  0  0  0  0  0  0  0  0  0
    5.5340   -0.8320   -1.9980 C   0  0  0  0  0  0  0  0  0  0  0  0
    5.3080   -1.6450   -2.9470 O   0  0  0  0  0  0  0  0  0  0  0  0
    4.4900   -0.4420   -1.2070 C   0  0  0  0  0  0  0  0  0  0  0  0
    3.2100   -0.9140   -1.4220 C   0  0  0  0  0  0  0  0  0  0  0  0
    8.2690    0.9160   -0.6090 C   0  0  0  0  0  0  0  0  0  0  0  0
    8.5410    1.7790    0.3950 O   0  0  0  0  0  0  0  0  0  0  0  0
    7.6040    2.2830    1.2800 C   0  0  0  0  0  0  0  0  0  0  0  0
    6.2560    1.7530    1.0130 C   0  0  0  0  0  0  0  0  0  0  0  0
   -0.2980   -0.8080   -0.2470 O   0  0  0  0  0  0  0  0  0  0  0  0
   -3.4950   -0.4430   -0.0810 C   0  0  0  0  0  0  0  0  0  0  0  0
   -2.9300    0.8950   -0.1870 C   0  0  0  0  0  0  0  0  0  0  0  0
   -1.7280    1.0970   -0.5580 O   0  0  0  0  0  0  0  0  0  0  0  0
   -3.6240    2.0680    0.1000 O   0  0  0  0  0  0  0  0  0  0  0  0
   -3.0230    3.3490   -0.0190 C   0  0  0  0  0  0  0  0  0  0  0  0
   -3.9860    4.4460    0.3500 C   0  0  0  0  0  0  0  0  0  0  0  0
   -4.5080    4.2080    2.0490 Cl  0  0  0  0  0  0  0  0  0  0  0  0
  1  2  1  0
  2  3  2  0
  2 30  1  0
  3  4  1  0
  3  6  1  0
  4  5  2  0
  6  7  1  1
  6  8  1  0
  8  9  1  0
  9 10  1  0
  9 30  2  0
 10 11  2  0
 10 29  1  0
 11 12  1  0
 12 13  2  0
 13 14  1  0
 13 29  1  0
 14 15  2  0
 14 24  1  0
 15 16  1  0
 16 17  2  0
 17 18  1  0
 17 23  1  0
 18 19  1  0
 18 28  2  0
 19 20  1  0
 19 25  2  0
 20 21  1  0
 21 22  2  0
 21 23  1  0
 23 24  2  0
 25 26  1  0
 26 27  1  0
 27 28  1  0
 30 31  1  0
 31 32  2  0
 31 33  1  0
 33 34  1  0
 34 35  1  0
 35 36  1  0
M  END
