
     RDKit          3D

 36 40  0  0  0  0  0  0  0  0999 V2000
   -3.4980   -4.1620   -1.0390 C   0  0  0  0  0  0  0  0  0  0  0  0
   -3.7880   -2.8400   -1.3640 O   0  0  0  0  0  0  0  0  0  0  0  0
   -2.8980   -1.7790   -1.0180 C   0  0  0  0  0  0  0  0  0  0  0  0
   -1.8800   -2.1730   -0.4170 O   0  0  0  0  0  0  0  0  0  0  0  0
   -3.2490   -0.4060   -1.3830 C   0  0  0  0  0  0  0  0  0  0  0  0
   -2.3990    0.6260   -1.0780 O   0  0  0  0  0  0  0  0  0  0  0  0
   -1.9310    1.0440    0.1230 C   0  0  0  0  0  0  0  0  0  0  0  0
   -2.8080    1.8800    0.8450 C   0  0  0  0  0  0  0  0  0  0  0  0
   -4.1200    2.2410    0.3000 C   0  0  0  0  0  0  0  0  0  0  0  0
   -5.2230    2.1800    1.1060 C   0  0  0  0  0  0  0  0  0  0  0  0
   -6.5000    2.5140    0.6390 C   0  0  0  0  0  0  0  0  0  0  0  0
   -6.6530    2.9140   -0.6570 C   0  0  0  0  0  0  0  0  0  0  0  0
   -8.2110    3.3540   -1.3390 Cl  0  0  0  0  0  0  0  0  0  0  0  0
   -5.5360    2.9820   -1.4970 C   0  0  0  0  0  0  0  0  0  0  0  0
   -4.2980    2.6480   -1.0090 C   0  0  0  0  0  0  0  0  0  0  0  0
   -2.3800    2.3360    2.0630 C   0  0  0  0  0  0  0  0  0  0  0  0
   -1.1410    1.9930    2.5620 C   0  0  0  0  0  0  0  0  0  0  0  0
   -0.2760    1.1800    1.8680 C   0  0  0  0  0  0  0  0  0  0  0  0
   -0.6870    0.7080    0.6380 C   0  0  0  0  0  0  0  0  0  0  0  0
    0.4600   -0.1050    0.1110 C   0  0  0  0  0  0  0  0  0  0  0  0
    1.6470    0.4960    0.8480 C   0  0  2  0  0  0  0  0  0  0  0  0
    1.9880    1.8230    0.3060 C   0  0  0  0  0  0  0  0  0  0  0  0
    2.7430   -0.4650    1.0910 C   0  0  1  0  0  0  0  0  0  0  0  0
    3.5670   -0.0020    2.3110 C   0  0  0  0  0  0  0  0  0  0  0  0
    2.1140   -1.6460    1.5720 O   0  0  0  0  0  0  0  0  0  0  0  0
    3.6500   -0.7700   -0.0060 C   0  0  0  0  0  0  0  0  0  0  0  0
    3.5480   -0.2520   -1.2660 C   0  0  0  0  0  0  0  0  0  0  0  0
    4.4640   -0.5880   -2.2690 C   0  0  0  0  0  0  0  0  0  0  0  0
    4.3660   -0.0660   -3.5480 O   0  0  0  0  0  0  0  0  0  0  0  0
    5.4980   -1.4570   -2.0040 C   0  0  0  0  0  0  0  0  0  0  0  0
    5.6080   -1.9810   -0.7420 C   0  0  0  0  0  0  0  0  0  0  0  0
    4.6990   -1.6400    0.2290 C   0  0  0  0  0  0  0  0  0  0  0  0
    5.1020   -2.3450    1.3770 O   0  0  0  0  0  0  0  0  0  0  0  0
    6.1250   -3.2560    1.0410 C   0  0  0  0  0  0  0  0  0  0  0  0
    6.5510   -2.8660   -0.2400 O   0  0  0  0  0  0  0  0  0  0  0  0
    1.0190    0.6920    2.1500 O   0  0  0  0  0  0  0  0  0  0  0  0
  1  2  1  0
  2  3  1  0
  3  4  2  0
  3  5  1  0
  5  6  1  0
  6  7  1  0
  7  8  2  0
  7 19  1  0
  8  9  1  0
  8 16  1  0
  9 10  2  0
  9 15  1  0
 10 11  1  0
 11 12  2  0
 12 13  1  0
 12 14  1  0
 14 15  2  0
 16 17  2  0
 17 18  1  0
 18 19  2  0
 18 36  1  0
 19 20  1  0
 20 21  1  0
 21 22  1  6
 21 23  1  0
 21 36  1  0
 23 24  1  1
 23 25  1  0
 23 26  1  0
 26 27  2  0
 26 32  1  0
 27 28  1  0
 28 29  1  0
 28 30  2  0
 30 31  1  0
 31 32  2  0
 31 35  1  0
 32 33  1  0
 33 34  1  0
 34 35  1  0
M  END
