
     RDKit          3D

 36 40  0  0  0  0  0  0  0  0999 V2000
    6.0680    3.8010   -0.1320 C   0  0  0  0  0  0  0  0  0  0  0  0
    5.1370    3.7050   -1.2980 C   0  0  0  0  0  0  0  0  0  0  0  0
    3.9770    2.8240   -1.0380 C   0  0  0  0  0  0  0  0  0  0  0  0
    3.1260    2.6250   -1.8880 O   0  0  0  0  0  0  0  0  0  0  0  0
    3.7810    2.1290    0.2780 C   0  0  1  0  0  0  0  0  0  0  0  0
    3.6360    3.2090    1.3370 C   0  0  0  0  0  0  0  0  0  0  0  0
    2.6380    1.3520    0.3010 O   0  0  0  0  0  0  0  0  0  0  0  0
    2.4760    0.0250    0.5340 C   0  0  0  0  0  0  0  0  0  0  0  0
    3.5100   -0.8380    0.8080 C   0  0  0  0  0  0  0  0  0  0  0  0
    3.2630   -2.1970    1.0370 C   0  0  0  0  0  0  0  0  0  0  0  0
    1.9780   -2.6940    0.9930 C   0  0  0  0  0  0  0  0  0  0  0  0
    1.6930   -4.0270    1.2130 C   0  0  0  0  0  0  0  0  0  0  0  0
    0.4030   -4.5100    1.1660 C   0  0  0  0  0  0  0  0  0  0  0  0
   -0.6680   -3.6490    0.8890 C   0  0  0  0  0  0  0  0  0  0  0  0
   -0.3740   -2.3490    0.6750 C   0  0  0  0  0  0  0  0  0  0  0  0
   -1.4490   -1.4000    0.3710 C   0  0  0  0  0  0  0  0  0  0  0  0
   -2.0530   -0.7900    1.3190 O   0  0  0  0  0  0  0  0  0  0  0  0
   -1.8760   -1.0950   -0.9130 O   0  0  0  0  0  0  0  0  0  0  0  0
   -2.9030   -0.1690   -1.1070 C   0  0  0  0  0  0  0  0  0  0  0  0
   -2.6550    1.1960   -1.0310 C   0  0  0  0  0  0  0  0  0  0  0  0
   -3.6860    2.0910   -1.2250 C   0  0  0  0  0  0  0  0  0  0  0  0
   -4.9540    1.6450   -1.4930 C   0  0  0  0  0  0  0  0  0  0  0  0
   -5.1690    0.2880   -1.5630 C   0  0  0  0  0  0  0  0  0  0  0  0
   -6.7800   -0.3000   -1.9040 Cl  0  0  0  0  0  0  0  0  0  0  0  0
   -4.1610   -0.6520   -1.3740 C   0  0  0  0  0  0  0  0  0  0  0  0
   -4.4470   -2.0190   -1.4610 O   0  0  0  0  0  0  0  0  0  0  0  0
   -6.0020    2.5930   -1.6900 N   0  0  0  0  0  0  0  0  0  0  0  0
   -5.7680    3.9970   -1.6140 C   0  0  0  0  0  0  0  0  0  0  0  0
   -6.5840    4.8380   -2.0090 O   0  0  0  0  0  0  0  0  0  0  0  0
   -4.4830    4.4310   -1.0330 C   0  0  0  0  0  0  0  0  0  0  0  0
   -3.4810    3.4680   -1.1580 O   0  0  0  0  0  0  0  0  0  0  0  0
    0.9360   -1.8460    0.7210 C   0  0  0  0  0  0  0  0  0  0  0  0
    1.1850   -0.5100    0.4960 C   0  0  0  0  0  0  0  0  0  0  0  0
   -1.9200   -4.4390    0.9140 C   0  0  0  0  0  0  0  0  0  0  0  0
   -1.3950   -5.8300    0.5280 C   0  0  0  0  0  0  0  0  0  0  0  0
   -0.1320   -5.8820    1.3670 C   0  0  0  0  0  0  0  0  0  0  0  0
  1  2  1  0
  2  3  1  0
  3  4  2  0
  3  5  1  0
  5  6  1  1
  5  7  1  0
  7  8  1  0
  8  9  2  0
  8 33  1  0
  9 10  1  0
 10 11  2  0
 11 12  1  0
 11 32  1  0
 12 13  2  0
 13 14  1  0
 13 36  1  0
 14 15  2  0
 14 34  1  0
 15 16  1  0
 15 32  1  0
 16 17  2  0
 16 18  1  0
 18 19  1  0
 19 20  2  0
 19 25  1  0
 20 21  1  0
 21 22  2  0
 21 31  1  0
 22 23  1  0
 22 27  1  0
 23 24  1  0
 23 25  2  0
 25 26  1  0
 27 28  1  0
 28 29  2  0
 28 30  1  0
 30 31  1  0
 32 33  2  0
 34 35  1  0
 35 36  1  0
M  END
