
     RDKit          3D

 36 40  0  0  0  0  0  0  0  0999 V2000
   -5.9130    3.3900   -0.1100 C   0  0  0  0  0  0  0  0  0  0  0  0
   -6.1610    2.5350    1.1060 C   0  0  0  0  0  0  0  0  0  0  0  0
   -5.6100    1.1760    0.9710 C   0  0  0  0  0  0  0  0  0  0  0  0
   -6.1490    0.1410    0.2370 C   0  0  0  0  0  0  0  0  0  0  0  0
   -7.4090    0.1550   -0.5840 C   0  0  0  0  0  0  0  0  0  0  0  0
   -5.3200   -0.9020    0.3970 N   0  0  0  0  0  0  0  0  0  0  0  0
   -4.2810   -0.5650    1.2020 C   0  0  0  0  0  0  0  0  0  0  0  0
   -4.4360    0.7500    1.5840 C   0  0  0  0  0  0  0  0  0  0  0  0
   -3.4510    1.3520    2.4490 C   0  0  0  0  0  0  0  0  0  0  0  0
   -3.6610    2.5060    2.8950 O   0  0  0  0  0  0  0  0  0  0  0  0
   -2.1860    0.6830    2.8490 C   0  0  0  0  0  0  0  0  0  0  0  0
   -2.2620   -0.8060    2.7140 C   0  0  0  0  0  0  0  0  0  0  0  0
   -3.1470   -1.2680    1.6890 N   0  0  0  0  0  0  0  0  0  0  0  0
   -2.8730   -2.5750    1.0860 C   0  0  0  0  0  0  0  0  0  0  0  0
   -1.6180   -2.5810    0.2640 C   0  0  0  0  0  0  0  0  0  0  0  0
   -1.6760   -1.5950   -0.8820 C   0  0  0  0  0  0  0  0  0  0  0  0
   -0.4170   -1.6310   -1.6650 C   0  0  0  0  0  0  0  0  0  0  0  0
   -0.3880   -2.3190   -2.8610 C   0  0  0  0  0  0  0  0  0  0  0  0
    0.7790   -2.3830   -3.6030 C   0  0  0  0  0  0  0  0  0  0  0  0
    0.8340   -2.9990   -4.6910 O   0  0  0  0  0  0  0  0  0  0  0  0
    1.9170   -1.7830   -3.1900 N   0  0  0  0  0  0  0  0  0  0  0  0
    1.8870   -1.1140   -2.0240 C   0  0  0  0  0  0  0  0  0  0  0  0
    3.0570   -0.4690   -1.5610 C   0  0  0  0  0  0  0  0  0  0  0  0
    3.1100    0.2320   -0.3940 C   0  0  0  0  0  0  0  0  0  0  0  0
    4.2700    0.8660    0.1980 C   0  0  0  0  0  0  0  0  0  0  0  0
    4.0320    1.7150    1.1680 O   0  0  0  0  0  0  0  0  0  0  0  0
    5.5990    0.6770   -0.1400 N   0  0  0  0  0  0  0  0  0  0  0  0
    6.0570   -0.2790   -1.1210 C   0  0  0  0  0  0  0  0  0  0  0  0
    7.5570   -0.4850   -0.8030 C   0  0  0  0  0  0  0  0  0  0  0  0
    7.7880   -0.6570    0.5350 O   0  0  0  0  0  0  0  0  0  0  0  0
    7.4700    0.4710    1.2940 C   0  0  0  0  0  0  0  0  0  0  0  0
    6.6610    1.4550    0.4660 C   0  0  2  0  0  0  0  0  0  0  0  0
    6.2480    2.6580    1.2240 C   0  0  0  0  0  0  0  0  0  0  0  0
    1.9200    0.3060    0.3750 C   0  0  0  0  0  0  0  0  0  0  0  0
    0.7960   -0.3210   -0.0850 C   0  0  0  0  0  0  0  0  0  0  0  0
    0.7480   -1.0300   -1.2650 C   0  0  0  0  0  0  0  0  0  0  0  0
  1  2  1  0
  2  3  1  0
  3  4  2  0
  3  8  1  0
  4  5  1  0
  4  6  1  0
  6  7  1  0
  7  8  2  0
  7 13  1  0
  8  9  1  0
  9 10  2  0
  9 11  1  0
 11 12  1  0
 12 13  1  0
 13 14  1  0
 14 15  1  0
 15 16  1  0
 16 17  1  0
 17 18  2  0
 17 36  1  0
 18 19  1  0
 19 20  2  0
 19 21  1  0
 21 22  1  0
 22 23  2  0
 22 36  1  0
 23 24  1  0
 24 25  1  0
 24 34  2  0
 25 26  2  0
 25 27  1  0
 27 28  1  0
 27 32  1  0
 28 29  1  0
 29 30  1  0
 30 31  1  0
 31 32  1  0
 32 33  1  1
 34 35  1  0
 35 36  2  0
M  END
