
     RDKit          3D

 36 40  0  0  0  0  0  0  0  0999 V2000
    2.6130    3.6010    0.1530 C   0  0  0  0  0  0  0  0  0  0  0  0
    2.6850    2.1000    0.1660 C   0  0  0  0  0  0  0  0  0  0  0  0
    3.8020    1.5400   -0.0660 N   0  0  0  0  0  0  0  0  0  0  0  0
    3.9110    0.1260   -0.0570 N   0  0  0  0  0  0  0  0  0  0  0  0
    5.1680   -0.4970   -0.3180 C   0  0  0  0  0  0  0  0  0  0  0  0
    5.6370   -0.7060   -1.5480 C   0  0  0  0  0  0  0  0  0  0  0  0
    6.9820   -1.3760   -1.6420 C   0  0  0  0  0  0  0  0  0  0  0  0
    7.8800   -0.6390   -0.6790 C   0  0  0  0  0  0  0  0  0  0  0  0
    7.3770   -0.4700    0.5790 O   0  0  0  0  0  0  0  0  0  0  0  0
    6.0920   -0.9710    0.7600 C   0  0  0  0  0  0  0  0  0  0  0  0
    2.7630   -0.6410    0.2160 C   0  0  0  0  0  0  0  0  0  0  0  0
    2.9420   -2.1210    0.1970 C   0  0  0  0  0  0  0  0  0  0  0  0
    1.6020   -0.0810    0.4600 C   0  0  0  0  0  0  0  0  0  0  0  0
    0.4050   -0.8870    0.7540 C   0  0  0  0  0  0  0  0  0  0  0  0
    0.5970   -2.1580    0.7370 O   0  0  0  0  0  0  0  0  0  0  0  0
   -0.8930   -0.4950    1.0530 N   0  0  0  0  0  0  0  0  0  0  0  0
   -1.8130   -1.5920    1.4680 C   0  0  0  0  0  0  0  0  0  0  0  0
   -2.5300   -2.2280    0.3380 C   0  0  2  0  0  0  0  0  0  0  0  0
   -3.4160   -1.3300   -0.4680 C   0  0  0  0  0  0  0  0  0  0  0  0
   -4.6190   -2.1560   -0.9570 C   0  0  0  0  0  0  0  0  0  0  0  0
   -4.1660   -3.1560   -2.0190 C   0  0  0  0  0  0  0  0  0  0  0  0
   -3.9550   -4.5310   -1.4220 C   0  0  0  0  0  0  0  0  0  0  0  0
   -3.9560   -4.3880    0.0170 N   0  0  0  0  0  0  0  0  0  0  0  0
   -3.3790   -3.3750    0.8200 C   0  0  0  0  0  0  0  0  0  0  0  0
   -3.6050   -3.4560    2.0520 O   0  0  0  0  0  0  0  0  0  0  0  0
   -1.4790    0.7980    1.0750 C   0  0  0  0  0  0  0  0  0  0  0  0
   -1.7220    1.4180    2.3130 C   0  0  0  0  0  0  0  0  0  0  0  0
   -2.3230    2.6510    2.3750 C   0  0  0  0  0  0  0  0  0  0  0  0
   -2.7180    3.3490    1.2570 C   0  0  0  0  0  0  0  0  0  0  0  0
   -2.4850    2.7520    0.0310 C   0  0  0  0  0  0  0  0  0  0  0  0
   -1.8810    1.5120   -0.0240 C   0  0  0  0  0  0  0  0  0  0  0  0
   -2.8990    3.4850   -1.1850 C   0  0  0  0  0  0  0  0  0  0  0  0
   -3.9090    4.5410   -0.8000 C   0  0  0  0  0  0  0  0  0  0  0  0
   -3.4620    5.3520    0.2210 O   0  0  0  0  0  0  0  0  0  0  0  0
   -3.3570    4.6670    1.4300 C   0  0  0  0  0  0  0  0  0  0  0  0
    1.4350    1.3810    0.4060 C   0  0  0  0  0  0  0  0  0  0  0  0
  1  2  1  0
  2  3  2  0
  2 36  1  0
  3  4  1  0
  4  5  1  0
  4 11  1  0
  5  6  2  0
  5 10  1  0
  6  7  1  0
  7  8  1  0
  8  9  1  0
  9 10  1  0
 11 12  1  0
 11 13  2  0
 13 14  1  0
 13 36  1  0
 14 15  2  0
 14 16  1  0
 16 17  1  0
 16 26  1  0
 18 17  1  1
 18 19  1  0
 18 24  1  0
 19 20  1  0
 20 21  1  0
 21 22  1  0
 22 23  1  0
 23 24  1  0
 24 25  2  0
 26 27  2  0
 26 31  1  0
 27 28  1  0
 28 29  2  0
 29 30  1  0
 29 35  1  0
 30 31  2  0
 30 32  1  0
 32 33  1  0
 33 34  1  0
 34 35  1  0
M  END
