
     RDKit          3D

 36 40  0  0  0  0  0  0  0  0999 V2000
    4.7550    2.1870   -2.0660 C   0  0  0  0  0  0  0  0  0  0  0  0
    5.5270    2.5540   -1.0790 C   0  0  0  0  0  0  0  0  0  0  0  0
    5.6970    1.9150    0.1720 N   0  0  0  0  0  0  0  0  0  0  0  0
    6.6020    2.5070    1.1090 C   0  0  0  0  0  0  0  0  0  0  0  0
    6.7650    1.9610    2.2170 O   0  0  0  0  0  0  0  0  0  0  0  0
    4.9950    0.6940    0.5600 C   0  0  1  0  0  0  0  0  0  0  0  0
    3.5440    0.9660    0.6190 C   0  0  0  0  0  0  0  0  0  0  0  0
    2.7050   -0.1760    0.1420 C   0  0  0  0  0  0  0  0  0  0  0  0
    3.3360   -1.4690    0.5270 C   0  0  1  0  0  0  0  0  0  0  0  0
    3.6770   -1.5550    1.9810 C   0  0  0  0  0  0  0  0  0  0  0  0
    3.0330   -2.7250    2.6840 C   0  0  0  0  0  0  0  0  0  0  0  0
    1.5680   -2.8630    2.4870 C   0  0  0  0  0  0  0  0  0  0  0  0
    1.2430   -2.4480    1.0660 N   0  0  0  0  0  0  0  0  0  0  0  0
   -0.0460   -2.0170    0.8260 C   0  0  0  0  0  0  0  0  0  0  0  0
   -0.8070   -2.0610    1.9080 O   0  0  0  0  0  0  0  0  0  0  0  0
   -0.6810   -1.5440   -0.3600 C   0  0  0  0  0  0  0  0  0  0  0  0
   -0.1070   -1.3180   -1.5730 C   0  0  0  0  0  0  0  0  0  0  0  0
   -0.8230   -0.8670   -2.6940 C   0  0  0  0  0  0  0  0  0  0  0  0
   -2.1630   -0.6260   -2.6220 C   0  0  0  0  0  0  0  0  0  0  0  0
   -3.1020   -0.2160   -3.4950 N   0  0  0  0  0  0  0  0  0  0  0  0
   -4.2940   -0.1550   -2.9030 C   0  0  0  0  0  0  0  0  0  0  0  0
   -5.3980    0.1890   -3.4270 O   0  0  0  0  0  0  0  0  0  0  0  0
   -4.0970   -0.5410   -1.6130 N   0  0  0  0  0  0  0  0  0  0  0  0
   -5.1450   -0.6290   -0.6530 C   0  0  0  0  0  0  0  0  0  0  0  0
   -5.4800    0.6110    0.0810 C   0  0  2  0  0  0  0  0  0  0  0  0
   -6.6490    0.2340    1.0250 C   0  0  0  0  0  0  0  0  0  0  0  0
   -5.9190    1.7500   -0.8300 C   0  0  0  0  0  0  0  0  0  0  0  0
   -6.1150    3.0120    0.0270 C   0  0  0  0  0  0  0  0  0  0  0  0
   -4.7240    3.4110    0.4770 C   0  0  0  0  0  0  0  0  0  0  0  0
   -3.8350    2.3390    0.3630 O   0  0  0  0  0  0  0  0  0  0  0  0
   -4.3920    1.1780    0.9410 C   0  0  0  0  0  0  0  0  0  0  0  0
   -2.7800   -0.8410   -1.4120 C   0  0  0  0  0  0  0  0  0  0  0  0
   -2.0770   -1.2810   -0.3250 C   0  0  0  0  0  0  0  0  0  0  0  0
    2.3630   -2.6110    0.2010 C   0  0  0  0  0  0  0  0  0  0  0  0
    4.5720   -1.6390   -0.3180 C   0  0  0  0  0  0  0  0  0  0  0  0
    5.4500   -0.4190   -0.3260 C   0  0  0  0  0  0  0  0  0  0  0  0
  1  2  2  0
  2  3  1  0
  3  4  1  0
  6  3  1  6
  4  5  2  0
  6  7  1  0
  6 36  1  0
  7  8  1  0
  9  8  1  1
  9 10  1  0
  9 34  1  0
  9 35  1  0
 10 11  1  0
 11 12  1  0
 12 13  1  0
 13 14  1  0
 13 34  1  0
 14 15  2  0
 14 16  1  0
 16 17  2  0
 16 33  1  0
 17 18  1  0
 18 19  2  0
 19 20  1  0
 19 32  1  0
 20 21  1  0
 21 22  2  0
 21 23  1  0
 23 24  1  0
 23 32  1  0
 24 25  1  0
 25 26  1  1
 25 27  1  0
 25 31  1  0
 27 28  1  0
 28 29  1  0
 29 30  1  0
 30 31  1  0
 32 33  2  0
 35 36  1  0
M  END
