
     RDKit          3D

 37 41  0  0  0  0  0  0  0  0999 V2000
   -9.0600    1.7060    1.2980 C   0  0  0  0  0  0  0  0  0  0  0  0
   -8.8580    1.0350    0.1630 C   0  0  0  0  0  0  0  0  0  0  0  0
   -9.1410    1.7030   -1.1630 C   0  0  0  0  0  0  0  0  0  0  0  0
   -8.3770   -0.3020    0.1330 C   0  0  0  0  0  0  0  0  0  0  0  0
   -9.1960   -1.3400   -0.0870 N   0  0  0  0  0  0  0  0  0  0  0  0
   -8.7590   -2.6340   -0.2000 C   0  0  0  0  0  0  0  0  0  0  0  0
   -7.4350   -2.8970   -0.0920 C   0  0  0  0  0  0  0  0  0  0  0  0
   -6.5660   -1.8490    0.1390 C   0  0  0  0  0  0  0  0  0  0  0  0
   -7.0410   -0.5920    0.2440 C   0  0  0  0  0  0  0  0  0  0  0  0
   -6.0750    0.5810    0.4860 C   0  0  0  0  0  0  0  0  0  0  0  0
   -4.7670   -0.0070    0.6010 N   0  0  0  0  0  0  0  0  0  0  0  0
   -3.5210    0.2640    0.0310 C   0  0  0  0  0  0  0  0  0  0  0  0
   -3.1600    1.4860   -0.4510 C   0  0  0  0  0  0  0  0  0  0  0  0
   -1.8070    1.7880   -0.8350 C   0  0  0  0  0  0  0  0  0  0  0  0
   -0.8520    0.8670   -0.7250 C   0  0  0  0  0  0  0  0  0  0  0  0
    0.5630    1.0060   -0.6600 C   0  0  0  0  0  0  0  0  0  0  0  0
    1.7550    1.1110   -0.6110 C   0  0  0  0  0  0  0  0  0  0  0  0
    3.1610    1.2300   -0.5450 C   0  0  0  0  0  0  0  0  0  0  0  0
    3.9880    2.2410   -0.6370 C   0  0  0  0  0  0  0  0  0  0  0  0
    5.4000    2.0610   -0.5230 C   0  0  0  0  0  0  0  0  0  0  0  0
    5.9820    0.8730   -0.3160 C   0  0  0  0  0  0  0  0  0  0  0  0
    7.3420    0.5420   -0.1800 N   0  0  0  0  0  0  0  0  0  0  0  0
    8.5580    0.8910   -0.8540 C   0  0  0  0  0  0  0  0  0  0  0  0
    8.8000    2.0020   -1.3500 O   0  0  0  0  0  0  0  0  0  0  0  0
    9.3730   -0.3880   -0.7900 C   0  0  1  0  0  0  0  0  0  0  0  0
   10.7480   -0.4040   -0.9970 C   0  0  0  0  0  0  0  0  0  0  0  0
   11.3690   -0.6770    0.1310 C   0  0  0  0  0  0  0  0  0  0  0  0
   12.8740   -0.7950    0.3100 C   0  0  0  0  0  0  0  0  0  0  0  0
   10.4250   -0.8220    1.1330 O   0  0  0  0  0  0  0  0  0  0  0  0
    9.2110   -0.6060    0.6850 N   0  0  0  0  0  0  0  0  0  0  0  0
    7.7550   -0.4310    0.8260 C   0  0  0  0  0  0  0  0  0  0  0  0
    7.1360   -1.0710    1.6830 O   0  0  0  0  0  0  0  0  0  0  0  0
    5.1000   -0.2170   -0.2230 C   0  0  0  0  0  0  0  0  0  0  0  0
    3.7810   -0.0750   -0.3250 C   0  0  0  0  0  0  0  0  0  0  0  0
   -1.2580   -0.4040   -0.2390 C   0  0  0  0  0  0  0  0  0  0  0  0
   -2.5430   -0.7180    0.1400 C   0  0  0  0  0  0  0  0  0  0  0  0
   -2.8360   -2.0740    0.6440 C   0  0  0  0  0  0  0  0  0  0  0  0
  1  2  2  0
  2  3  1  0
  2  4  1  0
  4  5  2  0
  4  9  1  0
  5  6  1  0
  6  7  2  0
  7  8  1  0
  8  9  2  0
  9 10  1  0
 10 11  1  0
 11 12  1  0
 12 13  2  0
 12 36  1  0
 13 14  1  0
 14 15  2  0
 15 16  1  0
 15 35  1  0
 16 17  3  0
 17 18  1  0
 18 19  2  0
 18 34  1  0
 19 20  1  0
 20 21  2  0
 21 22  1  0
 21 33  1  0
 22 23  1  0
 22 31  1  0
 23 24  2  0
 23 25  1  0
 25 26  1  1
 25 30  1  0
 26 27  2  0
 27 28  1  0
 27 29  1  0
 29 30  1  0
 30 31  1  0
 31 32  2  0
 33 34  2  0
 35 36  2  0
 36 37  1  0
M  CHG  1   5   1
M  END
