
     RDKit          3D

 37 42  0  0  0  0  0  0  0  0999 V2000
    9.8310   -1.4870   -0.4490 C   0  0  0  0  0  0  0  0  0  0  0  0
    8.4980   -2.0620   -0.1630 C   0  0  0  0  0  0  0  0  0  0  0  0
    8.1580   -3.2910    0.0770 C   0  0  0  0  0  0  0  0  0  0  0  0
    6.7260   -3.3870    0.3030 C   0  0  0  0  0  0  0  0  0  0  0  0
    6.1510   -2.1670    0.1990 C   0  0  0  0  0  0  0  0  0  0  0  0
    4.7420   -1.9870    0.3790 C   0  0  0  0  0  0  0  0  0  0  0  0
    3.8730   -1.0820    0.3670 C   0  0  0  0  0  0  0  0  0  0  0  0
    3.8670    0.3280    0.1490 C   0  0  0  0  0  0  0  0  0  0  0  0
    4.8400    1.1620   -0.1240 O   0  0  0  0  0  0  0  0  0  0  0  0
    4.4710    2.3940   -0.2600 C   0  0  0  0  0  0  0  0  0  0  0  0
    5.1130    3.5330   -0.5310 N   0  0  0  0  0  0  0  0  0  0  0  0
    4.5030    4.7210   -0.6250 C   0  0  0  0  0  0  0  0  0  0  0  0
    3.1400    4.7670   -0.4310 C   0  0  0  0  0  0  0  0  0  0  0  0
    2.4470    3.6130   -0.1500 C   0  0  0  0  0  0  0  0  0  0  0  0
    3.1150    2.4110   -0.0620 C   0  0  0  0  0  0  0  0  0  0  0  0
    2.7040    1.1250    0.1980 C   0  0  0  0  0  0  0  0  0  0  0  0
    1.4060    0.6770    0.4590 N   0  0  0  0  0  0  0  0  0  0  0  0
    0.5070    0.2460   -0.5610 C   0  0  0  0  0  0  0  0  0  0  0  0
    0.9580    0.2920   -1.7390 O   0  0  0  0  0  0  0  0  0  0  0  0
   -0.8380   -0.2150   -0.2650 C   0  0  0  0  0  0  0  0  0  0  0  0
   -1.3850   -0.3070    0.9790 C   0  0  0  0  0  0  0  0  0  0  0  0
   -2.6720   -0.7520    1.2220 C   0  0  0  0  0  0  0  0  0  0  0  0
   -3.4510   -1.1260    0.1520 C   0  0  0  0  0  0  0  0  0  0  0  0
   -4.8350   -1.6040    0.4170 C   0  0  0  0  0  0  0  0  0  0  0  0
   -5.7300   -0.4630    0.3890 N   0  0  0  0  0  0  0  0  0  0  0  0
   -5.6960    0.7000    1.2210 C   0  0  0  0  0  0  0  0  0  0  0  0
   -7.1620    1.0410    1.3630 C   0  0  0  0  0  0  0  0  0  0  0  0
   -7.7250    0.6240    0.0660 C   0  0  0  0  0  0  0  0  0  0  0  0
   -8.8700    0.9370   -0.6380 C   0  0  0  0  0  0  0  0  0  0  0  0
   -9.0750    0.3340   -1.8600 C   0  0  0  0  0  0  0  0  0  0  0  0
   -8.1780   -0.5610   -2.3900 C   0  0  0  0  0  0  0  0  0  0  0  0
   -7.0700   -0.8600   -1.7030 N   0  0  0  0  0  0  0  0  0  0  0  0
   -6.8330   -0.2860   -0.4940 C   0  0  0  0  0  0  0  0  0  0  0  0
   -2.9270   -1.0460   -1.1350 C   0  0  0  0  0  0  0  0  0  0  0  0
   -1.6410   -0.5990   -1.3470 C   0  0  0  0  0  0  0  0  0  0  0  0
    7.2410   -1.2690   -0.1010 C   0  0  0  0  0  0  0  0  0  0  0  0
    7.1910   -0.0430   -0.2830 O   0  0  0  0  0  0  0  0  0  0  0  0
  1  2  1  0
  2  3  2  0
  2 36  1  0
  3  4  1  0
  4  5  2  0
  5  6  1  0
  5 36  1  0
  6  7  2  3
  7  8  1  0
  8  9  1  0
  8 16  2  0
  9 10  1  0
 10 11  2  0
 10 15  1  0
 11 12  1  0
 12 13  2  0
 13 14  1  0
 14 15  2  0
 15 16  1  0
 16 17  1  0
 17 18  1  0
 18 19  2  0
 18 20  1  0
 20 21  2  0
 20 35  1  0
 21 22  1  0
 22 23  2  0
 23 24  1  0
 23 34  1  0
 24 25  1  0
 25 26  1  0
 25 33  1  0
 26 27  1  0
 27 28  1  0
 28 29  2  0
 28 33  1  0
 29 30  1  0
 30 31  2  0
 31 32  1  0
 32 33  2  0
 34 35  2  0
 36 37  2  0
M  CHG  1  32   1
M  END
