
     RDKit          3D

 36 40  0  0  0  0  0  0  0  0999 V2000
   -6.4640    3.0860   -1.7920 C   0  0  0  0  0  0  0  0  0  0  0  0
   -5.1360    2.3680   -1.8250 C   0  0  0  0  0  0  0  0  0  0  0  0
   -4.7760    1.7980   -0.6040 O   0  0  0  0  0  0  0  0  0  0  0  0
   -5.5020    0.8200    0.0080 C   0  0  0  0  0  0  0  0  0  0  0  0
   -6.6610    0.2760   -0.5070 C   0  0  0  0  0  0  0  0  0  0  0  0
   -7.3520   -0.7130    0.1690 C   0  0  0  0  0  0  0  0  0  0  0  0
   -6.9180   -1.1960    1.3790 C   0  0  0  0  0  0  0  0  0  0  0  0
   -5.7660   -0.6540    1.8870 C   0  0  0  0  0  0  0  0  0  0  0  0
   -5.0410    0.3380    1.2430 C   0  0  0  0  0  0  0  0  0  0  0  0
   -3.7790    0.8350    1.8520 C   0  0  0  0  0  0  0  0  0  0  0  0
   -2.6130    0.1170    1.3060 C   0  0  0  0  0  0  0  0  0  0  0  0
   -2.3610    0.1750   -0.1550 C   0  0  0  0  0  0  0  0  0  0  0  0
   -1.1340   -0.6080   -0.4530 N   0  0  0  0  0  0  0  0  0  0  0  0
    0.0970   -0.1620   -0.4820 N   0  0  0  0  0  0  0  0  0  0  0  0
    0.9330   -1.1620   -0.7910 C   0  0  0  0  0  0  0  0  0  0  0  0
    2.3480   -1.1450   -0.9360 N   0  0  0  0  0  0  0  0  0  0  0  0
    3.1780   -0.8540    0.0050 C   0  0  0  0  0  0  0  0  0  0  0  0
    2.7680   -0.4940    1.3810 C   0  0  0  0  0  0  0  0  0  0  0  0
    3.5390    0.6980    1.7800 C   0  0  0  0  0  0  0  0  0  0  0  0
    2.9870    1.6370    2.2910 O   0  0  0  0  0  0  0  0  0  0  0  0
    4.9940    0.7250    1.5450 C   0  0  0  0  0  0  0  0  0  0  0  0
    5.5030   -0.4630    0.7970 C   0  0  2  0  0  0  0  0  0  0  0  0
    6.8140   -0.0960    0.1770 C   0  0  0  0  0  0  0  0  0  0  0  0
    6.9340    0.9690   -0.6900 C   0  0  0  0  0  0  0  0  0  0  0  0
    8.1370    1.3140   -1.2690 C   0  0  0  0  0  0  0  0  0  0  0  0
    9.2820    0.5950   -0.9990 C   0  0  0  0  0  0  0  0  0  0  0  0
   10.5970    0.9710   -1.6320 C   0  0  0  0  0  0  0  0  0  0  0  0
    9.1830   -0.4710   -0.1380 C   0  0  0  0  0  0  0  0  0  0  0  0
    7.9760   -0.8070    0.4350 C   0  0  0  0  0  0  0  0  0  0  0  0
    4.6100   -0.8900   -0.3370 C   0  0  0  0  0  0  0  0  0  0  0  0
    0.1640   -2.2560   -0.9530 N   0  0  0  0  0  0  0  0  0  0  0  0
   -1.1170   -1.9160   -0.7450 C   0  0  0  0  0  0  0  0  0  0  0  0
   -2.1430   -2.6650   -0.8040 O   0  0  0  0  0  0  0  0  0  0  0  0
   -7.8120   -2.1880    1.8310 O   0  0  0  0  0  0  0  0  0  0  0  0
   -8.4230   -2.7300    0.6490 C   0  0  0  0  0  0  0  0  0  0  0  0
   -8.5990   -1.4510   -0.1590 C   0  0  0  0  0  0  0  0  0  0  0  0
  1  2  1  0
  2  3  1  0
  3  4  1  0
  4  5  2  0
  4  9  1  0
  5  6  1  0
  6  7  2  0
  6 36  1  0
  7  8  1  0
  7 34  1  0
  8  9  2  0
  9 10  1  0
 10 11  1  0
 11 12  1  0
 12 13  1  0
 13 14  1  0
 13 32  1  0
 14 15  2  0
 15 16  1  0
 15 31  1  0
 16 17  2  3
 17 18  1  0
 17 30  1  0
 18 19  1  0
 19 20  2  0
 19 21  1  0
 21 22  1  0
 22 23  1  6
 22 30  1  0
 23 24  2  0
 23 29  1  0
 24 25  1  0
 25 26  2  0
 26 27  1  0
 26 28  1  0
 28 29  2  0
 31 32  1  0
 32 33  2  0
 34 35  1  0
 35 36  1  0
M  END
