
     RDKit          3D

 34 37  0  0  0  0  0  0  0  0999 V2000
    0.0580    3.3460    1.7560 C   0  0  0  0  0  0  0  0  0  0  0  0
   -0.2130    2.1210    0.8870 C   0  0  0  0  0  0  0  0  0  0  0  0
   -0.0830    0.5290    1.6290 S   0  0  0  0  0  0  0  0  0  0  0  0
    0.8010   -0.7130    0.7340 C   0  0  2  0  0  0  0  0  0  0  0  0
    0.7660   -2.0000    1.5460 C   0  0  0  0  0  0  0  0  0  0  0  0
    2.2350   -0.3160    0.4800 C   0  0  0  0  0  0  0  0  0  0  0  0
    2.6460    0.7810    0.9000 O   0  0  0  0  0  0  0  0  0  0  0  0
    3.1130   -1.1680   -0.2250 N   0  0  0  0  0  0  0  0  0  0  0  0
    4.4720   -0.9210   -0.5310 C   0  0  0  0  0  0  0  0  0  0  0  0
    5.1760    0.1950   -0.1930 C   0  0  0  0  0  0  0  0  0  0  0  0
    6.5010    0.3510   -0.5330 C   0  0  0  0  0  0  0  0  0  0  0  0
    7.3640    1.8060   -0.0740 Cl  0  0  0  0  0  0  0  0  0  0  0  0
    7.1990   -0.6130   -1.2390 C   0  0  0  0  0  0  0  0  0  0  0  0
    6.5000   -1.7400   -1.5840 C   0  0  0  0  0  0  0  0  0  0  0  0
    5.1620   -1.9120   -1.2470 C   0  0  0  0  0  0  0  0  0  0  0  0
    4.5830   -3.0840   -1.6530 O   0  0  0  0  0  0  0  0  0  0  0  0
   -0.4790    2.3240   -0.3710 C   0  0  0  0  0  0  0  0  0  0  0  0
   -0.4860    3.7400   -0.9170 C   0  0  0  0  0  0  0  0  0  0  0  0
   -0.0930    3.6740   -2.3790 C   0  0  0  0  0  0  0  0  0  0  0  0
    0.6730    2.3910   -2.7260 C   0  0  0  0  0  0  0  0  0  0  0  0
   -0.2950    1.2670   -2.4600 C   0  0  0  0  0  0  0  0  0  0  0  0
   -0.8760    1.2390   -1.2680 C   0  0  0  0  0  0  0  0  0  0  0  0
   -1.8610    0.2540   -0.8760 C   0  0  0  0  0  0  0  0  0  0  0  0
   -2.2250   -0.7890   -1.6950 C   0  0  0  0  0  0  0  0  0  0  0  0
   -3.1910   -1.7350   -1.3340 C   0  0  0  0  0  0  0  0  0  0  0  0
   -3.8230   -1.6440   -0.1160 C   0  0  0  0  0  0  0  0  0  0  0  0
   -3.4380   -0.5840    0.6870 C   0  0  0  0  0  0  0  0  0  0  0  0
   -2.5080    0.3010    0.3070 N   0  0  0  0  0  0  0  0  0  0  0  0
   -3.9750   -0.3160    1.9870 N   0  0  0  0  0  0  0  0  0  0  0  0
   -4.6850   -1.2030    2.8880 C   0  0  0  0  0  0  0  0  0  0  0  0
   -5.9360   -1.7860    2.2700 C   0  0  0  0  0  0  0  0  0  0  0  0
   -5.6610   -2.8200    1.2970 N   0  0  0  0  0  0  0  0  0  0  0  0
   -4.8140   -2.6820    0.1570 C   0  0  0  0  0  0  0  0  0  0  0  0
   -4.9070   -3.5480   -0.7470 O   0  0  0  0  0  0  0  0  0  0  0  0
  1  2  1  0
  2  3  1  0
  2 17  2  3
  3  4  1  0
  4  5  1  1
  4  6  1  0
  6  7  2  0
  6  8  1  0
  8  9  1  0
  9 10  2  0
  9 15  1  0
 10 11  1  0
 11 12  1  0
 11 13  2  0
 13 14  1  0
 14 15  2  0
 15 16  1  0
 17 18  1  0
 17 22  1  0
 18 19  1  0
 19 20  1  0
 20 21  1  0
 21 22  2  0
 22 23  1  0
 23 24  2  0
 23 28  1  0
 24 25  1  0
 25 26  2  0
 26 27  1  0
 26 33  1  0
 27 28  2  0
 27 29  1  0
 29 30  1  0
 30 31  1  0
 31 32  1  0
 32 33  1  0
 33 34  2  0
M  END
