
     RDKit          3D

 34 37  0  0  0  0  0  0  0  0999 V2000
   -6.7540   -0.7360   -3.4230 C   0  0  0  0  0  0  0  0  0  0  0  0
   -6.3190    0.5050   -2.7150 C   0  0  0  0  0  0  0  0  0  0  0  0
   -7.0620    1.6550   -2.8390 C   0  0  0  0  0  0  0  0  0  0  0  0
   -6.6030    2.7790   -2.1690 C   0  0  0  0  0  0  0  0  0  0  0  0
   -5.4550    2.7370   -1.4190 C   0  0  0  0  0  0  0  0  0  0  0  0
   -4.9410    4.2110   -0.5990 Cl  0  0  0  0  0  0  0  0  0  0  0  0
   -4.6880    1.5720   -1.2850 C   0  0  0  0  0  0  0  0  0  0  0  0
   -3.5020    1.6750   -0.5280 N   0  0  0  0  0  0  0  0  0  0  0  0
   -2.6550    0.6190   -0.1340 C   0  0  0  0  0  0  0  0  0  0  0  0
   -2.9390   -0.5450   -0.4060 O   0  0  0  0  0  0  0  0  0  0  0  0
   -1.4400    0.8360    0.5850 N   0  0  0  0  0  0  0  0  0  0  0  0
   -0.5940   -0.2660    0.9770 C   0  0  2  0  0  0  0  0  0  0  0  0
    0.6830    0.2570    1.5550 C   0  0  0  0  0  0  0  0  0  0  0  0
   -0.2540   -1.3860   -0.3890 S   0  0  0  0  0  0  0  0  0  0  0  0
    1.0870   -2.4580    0.0620 C   0  0  0  0  0  0  0  0  0  0  0  0
    2.4300   -1.8250   -0.0250 C   0  0  0  0  0  0  0  0  0  0  0  0
    3.3810   -2.4570    0.4780 O   0  0  0  0  0  0  0  0  0  0  0  0
    2.6830   -0.5990   -0.6260 N   0  0  0  0  0  0  0  0  0  0  0  0
    3.9060    0.0940   -0.7680 C   0  0  0  0  0  0  0  0  0  0  0  0
    3.9720    1.1990   -1.6390 C   0  0  0  0  0  0  0  0  0  0  0  0
    5.1230    1.9170   -1.8230 C   0  0  0  0  0  0  0  0  0  0  0  0
    6.2760    1.5690   -1.1450 C   0  0  0  0  0  0  0  0  0  0  0  0
    6.2180    0.4930   -0.2940 C   0  0  0  0  0  0  0  0  0  0  0  0
    5.0510   -0.2490   -0.0960 C   0  0  0  0  0  0  0  0  0  0  0  0
    7.5490    0.2830    0.3500 C   0  0  0  0  0  0  0  0  0  0  0  0
    8.4800    1.0630   -0.5390 C   0  0  0  0  0  0  0  0  0  0  0  0
    7.6070    2.0940   -1.1200 N   0  0  0  0  0  0  0  0  0  0  0  0
   -1.3220   -1.0350    2.0830 C   0  0  0  0  0  0  0  0  0  0  0  0
   -2.5510   -0.7000    2.5780 C   0  0  0  0  0  0  0  0  0  0  0  0
   -2.8740   -1.6370    3.5720 C   0  0  0  0  0  0  0  0  0  0  0  0
   -1.7740   -2.4910    3.5980 C   0  0  0  0  0  0  0  0  0  0  0  0
   -1.6820   -3.6500    4.5190 C   0  0  0  0  0  0  0  0  0  0  0  0
   -0.9000   -2.0870    2.7020 O   0  0  0  0  0  0  0  0  0  0  0  0
   -5.1490    0.4790   -1.9440 C   0  0  0  0  0  0  0  0  0  0  0  0
  1  2  1  0
  2  3  2  0
  2 34  1  0
  3  4  1  0
  4  5  2  0
  5  6  1  0
  5  7  1  0
  7  8  1  0
  7 34  2  0
  8  9  1  0
  9 10  2  0
  9 11  1  0
 11 12  1  0
 12 13  1  1
 12 14  1  0
 12 28  1  0
 14 15  1  0
 15 16  1  0
 16 17  2  0
 16 18  1  0
 18 19  1  0
 19 20  2  0
 19 24  1  0
 20 21  1  0
 21 22  2  0
 22 23  1  0
 22 27  1  0
 23 24  2  0
 23 25  1  0
 25 26  1  0
 26 27  1  0
 28 29  2  0
 28 33  1  0
 29 30  1  0
 30 31  2  0
 31 32  1  0
 31 33  1  0
M  END
