
     RDKit          3D

 34 37  0  0  0  0  0  0  0  0999 V2000
   10.2240    1.8070   -1.2960 C   0  0  0  0  0  0  0  0  0  0  0  0
    9.2110    0.7130   -1.2430 C   0  0  0  0  0  0  0  0  0  0  0  0
    8.8870    0.2720    0.1690 C   0  0  0  0  0  0  0  0  0  0  0  0
    7.6420   -1.0630    0.1100 S   0  0  0  0  0  0  0  0  0  0  0  0
    6.0860   -0.3310   -0.4970 C   0  0  1  0  0  0  0  0  0  0  0  0
    5.0230   -1.3740   -0.6490 C   0  0  0  0  0  0  0  0  0  0  0  0
    3.7910   -0.7300   -0.1230 C   0  0  0  0  0  0  0  0  0  0  0  0
    2.4680   -1.0870   -0.2290 C   0  0  0  0  0  0  0  0  0  0  0  0
    1.4900   -0.2890    0.3930 C   0  0  0  0  0  0  0  0  0  0  0  0
    0.1360   -0.7120    0.3150 N   0  0  0  0  0  0  0  0  0  0  0  0
   -0.9500    0.1410    0.4560 C   0  0  0  0  0  0  0  0  0  0  0  0
   -0.6970    1.4090    0.6490 O   0  0  0  0  0  0  0  0  0  0  0  0
   -2.3430   -0.2400    0.4130 C   0  0  0  0  0  0  0  0  0  0  0  0
   -2.8500   -1.4320    0.2380 C   0  0  0  0  0  0  0  0  0  0  0  0
   -2.2040   -2.7630    0.0280 C   0  0  0  0  0  0  0  0  0  0  0  0
   -3.3410   -3.6740    0.0070 N   0  0  0  0  0  0  0  0  0  0  0  0
   -4.5390   -2.9650    0.1100 C   0  0  0  0  0  0  0  0  0  0  0  0
   -5.9040   -3.6060    0.0630 C   0  0  0  0  0  0  0  0  0  0  0  0
   -4.3260   -1.6700    0.2470 C   0  0  0  0  0  0  0  0  0  0  0  0
   -5.3560   -0.6550    0.4170 C   0  0  0  0  0  0  0  0  0  0  0  0
   -6.3730   -0.8970    1.3490 C   0  0  0  0  0  0  0  0  0  0  0  0
   -7.3830    0.0200    1.5290 C   0  0  0  0  0  0  0  0  0  0  0  0
   -8.6600   -0.2740    2.7030 Cl  0  0  0  0  0  0  0  0  0  0  0  0
   -7.3510    1.1660    0.7640 C   0  0  0  0  0  0  0  0  0  0  0  0
   -6.3420    1.4010   -0.1580 C   0  0  0  0  0  0  0  0  0  0  0  0
   -6.4170    2.6280   -0.9220 C   0  0  0  0  0  0  0  0  0  0  0  0
   -5.5060    2.8590   -1.7700 O   0  0  0  0  0  0  0  0  0  0  0  0
   -7.4200    3.5500   -0.7770 O   0  0  0  0  0  0  0  0  0  0  0  0
   -7.5550    4.7480   -1.4830 C   0  0  0  0  0  0  0  0  0  0  0  0
   -5.3700    0.4730   -0.3010 N   0  0  0  0  0  0  0  0  0  0  0  0
    1.8620    0.8270    1.0920 C   0  0  0  0  0  0  0  0  0  0  0  0
    3.2120    1.1860    1.1970 C   0  0  0  0  0  0  0  0  0  0  0  0
    4.1610    0.3960    0.5830 C   0  0  0  0  0  0  0  0  0  0  0  0
    5.5710    0.5320    0.5430 N   0  0  0  0  0  0  0  0  0  0  0  0
  1  2  1  0
  2  3  1  0
  3  4  1  0
  5  4  1  1
  5  6  1  0
  5 34  1  0
  6  7  1  0
  7  8  2  0
  7 33  1  0
  8  9  1  0
  9 10  1  0
  9 31  2  0
 10 11  1  0
 11 12  2  0
 11 13  1  0
 13 14  2  3
 14 15  1  0
 14 19  1  0
 15 16  1  0
 16 17  1  0
 17 18  1  0
 17 19  2  0
 19 20  1  0
 20 21  2  0
 20 30  1  0
 21 22  1  0
 22 23  1  0
 22 24  2  0
 24 25  1  0
 25 26  1  0
 25 30  2  0
 26 27  2  0
 26 28  1  0
 28 29  1  0
 31 32  1  0
 32 33  2  0
 33 34  1  0
M  END
