
     RDKit          3D

 26 29  0  0  0  0  0  0  0  0999 V2000
    7.4070    0.7180    1.2970 C   0  0  0  0  0  0  0  0  0  0  0  0
    6.9680    2.0250    0.6330 C   0  0  0  0  0  0  0  0  0  0  0  0
    6.0770    1.6990   -0.5370 C   0  0  0  0  0  0  0  0  0  0  0  0
    4.8370    0.9360   -0.1250 C   0  0  0  0  0  0  0  0  0  0  0  0
    4.0610    0.6960   -1.4240 C   0  0  0  0  0  0  0  0  0  0  0  0
    2.8150   -0.0420   -1.1990 C   0  0  0  0  0  0  0  0  0  0  0  0
    2.5770   -1.3650   -1.2010 N   0  0  0  0  0  0  0  0  0  0  0  0
    1.2600   -1.6160   -0.9430 C   0  0  0  0  0  0  0  0  0  0  0  0
    0.5350   -2.7420   -0.8390 N   0  0  0  0  0  0  0  0  0  0  0  0
   -0.7670   -2.7130   -0.5730 C   0  0  0  0  0  0  0  0  0  0  0  0
   -1.3990   -1.4960   -0.3990 C   0  0  0  0  0  0  0  0  0  0  0  0
   -2.8370   -1.4730   -0.1060 C   0  0  0  0  0  0  0  0  0  0  0  0
   -3.5460   -0.3110    0.0820 C   0  0  0  0  0  0  0  0  0  0  0  0
   -4.9180   -0.3160    0.3610 C   0  0  0  0  0  0  0  0  0  0  0  0
   -5.6290    0.9220    0.5520 N   0  0  0  0  0  0  0  0  0  0  0  0
   -5.4510    2.0540   -0.1510 C   0  0  0  0  0  0  0  0  0  0  0  0
   -6.3090    3.0200    0.3200 C   0  0  0  0  0  0  0  0  0  0  0  0
   -7.0150    2.4420    1.3310 C   0  0  0  0  0  0  0  0  0  0  0  0
   -6.5730    1.1790    1.4370 N   0  0  0  0  0  0  0  0  0  0  0  0
   -5.5130   -1.5100    0.4360 N   0  0  0  0  0  0  0  0  0  0  0  0
   -4.8440   -2.6620    0.2570 C   0  0  0  0  0  0  0  0  0  0  0  0
   -5.5700   -3.9550    0.3550 C   0  0  0  0  0  0  0  0  0  0  0  0
   -3.5200   -2.6230   -0.0110 N   0  0  0  0  0  0  0  0  0  0  0  0
   -0.6330   -0.3640   -0.5110 C   0  0  0  0  0  0  0  0  0  0  0  0
    0.6990   -0.4080   -0.7840 N   0  0  0  0  0  0  0  0  0  0  0  0
    1.6280    0.5360   -0.9360 N   0  0  0  0  0  0  0  0  0  0  0  0
  1  2  1  0
  2  3  1  0
  3  4  1  0
  4  5  1  0
  5  6  1  0
  6  7  1  0
  6 26  2  0
  7  8  2  0
  8  9  1  0
  8 25  1  0
  9 10  2  0
 10 11  1  0
 11 12  1  0
 11 24  2  0
 12 13  2  0
 12 23  1  0
 13 14  1  0
 14 15  1  0
 14 20  2  0
 15 16  1  0
 15 19  1  0
 16 17  2  0
 17 18  1  0
 18 19  2  0
 20 21  1  0
 21 22  1  0
 21 23  2  0
 24 25  1  0
 25 26  1  0
M  END
