
     RDKit          3D

 27 30  0  0  0  0  0  0  0  0999 V2000
   -1.7340    3.4010    0.8550 C   0  0  0  0  0  0  0  0  0  0  0  0
   -1.0850    2.2550    0.9780 C   0  0  0  0  0  0  0  0  0  0  0  0
   -1.0740    1.2920   -0.1530 C   0  0  0  0  0  0  0  0  0  0  0  0
   -1.6620    0.0610    0.2770 N   0  0  0  0  0  0  0  0  0  0  0  0
   -1.1210   -1.0360    0.8130 C   0  0  0  0  0  0  0  0  0  0  0  0
    0.3200   -1.2610    1.0930 C   0  0  2  0  0  0  0  0  0  0  0  0
    0.9820   -0.1850    1.6750 N   0  0  0  0  0  0  0  0  0  0  0  0
    2.0960    0.2540    1.2820 C   0  0  0  0  0  0  0  0  0  0  0  0
    2.8740   -0.3260    0.1220 C   0  0  0  0  0  0  0  0  0  0  0  0
    3.9970    0.1880   -0.2020 C   0  0  0  0  0  0  0  0  0  0  0  0
    5.0330    0.0200   -1.1440 C   0  0  0  0  0  0  0  0  0  0  0  0
    6.0980    0.8390   -1.1210 N   0  0  0  0  0  0  0  0  0  0  0  0
    6.1620    1.8690   -0.1380 C   0  0  0  0  0  0  0  0  0  0  0  0
    2.2020   -1.4530   -0.5030 C   0  0  0  0  0  0  0  0  0  0  0  0
    2.7950   -2.0990   -1.5910 C   0  0  0  0  0  0  0  0  0  0  0  0
    2.1340   -3.1370   -2.1350 N   0  0  0  0  0  0  0  0  0  0  0  0
    0.9570   -3.5670   -1.6870 C   0  0  0  0  0  0  0  0  0  0  0  0
    0.3490   -2.9810   -0.6480 N   0  0  0  0  0  0  0  0  0  0  0  0
    0.9850   -1.9220   -0.0630 C   0  0  0  0  0  0  0  0  0  0  0  0
   -2.0720   -1.9450    1.0650 N   0  0  0  0  0  0  0  0  0  0  0  0
   -3.2680   -1.4480    0.6900 C   0  0  0  0  0  0  0  0  0  0  0  0
   -4.5540   -1.9490    0.7230 C   0  0  0  0  0  0  0  0  0  0  0  0
   -5.5330   -1.1550    0.2530 N   0  0  0  0  0  0  0  0  0  0  0  0
   -5.3120    0.0790   -0.2360 C   0  0  0  0  0  0  0  0  0  0  0  0
   -6.4590    0.9070   -0.7430 C   0  0  0  0  0  0  0  0  0  0  0  0
   -4.0490    0.5320   -0.2520 N   0  0  0  0  0  0  0  0  0  0  0  0
   -2.9970   -0.1840    0.1950 C   0  0  0  0  0  0  0  0  0  0  0  0
  1  2  2  0
  2  3  1  0
  3  4  1  0
  4  5  1  0
  4 27  1  0
  6  5  1  6
  5 20  2  0
  6  7  1  0
  6 19  1  0
  7  8  2  0
  8  9  1  0
  9 10  2  3
  9 14  1  0
 10 11  1  0
 11 12  2  3
 12 13  1  0
 14 15  2  0
 14 19  1  0
 15 16  1  0
 16 17  2  0
 17 18  1  0
 18 19  2  0
 20 21  1  0
 21 22  2  0
 21 27  1  0
 22 23  1  0
 23 24  2  0
 24 25  1  0
 24 26  1  0
 26 27  2  0
M  END
