
     RDKit          3D

 27 30  0  0  0  0  0  0  0  0999 V2000
   -3.9240    0.5250    1.8180 C   0  0  0  0  0  0  0  0  0  0  0  0
   -4.8410    0.1810    0.7310 C   0  0  0  0  0  0  0  0  0  0  0  0
   -4.3970   -0.1520   -0.4460 C   0  0  0  0  0  0  0  0  0  0  0  0
   -2.9500   -0.1600   -0.6010 C   0  0  0  0  0  0  0  0  0  0  0  0
   -2.3600   -0.4570   -1.7720 N   0  0  0  0  0  0  0  0  0  0  0  0
   -1.0550   -0.3810   -1.5930 N   0  0  0  0  0  0  0  0  0  0  0  0
   -0.7900   -0.0440   -0.3460 N   0  0  0  0  0  0  0  0  0  0  0  0
    0.5220    0.1330    0.2160 C   0  0  0  0  0  0  0  0  0  0  0  0
    0.8570   -0.4330    1.4260 C   0  0  0  0  0  0  0  0  0  0  0  0
    2.1350   -0.2550    1.9700 C   0  0  0  0  0  0  0  0  0  0  0  0
    3.0050    0.4770    1.2770 N   0  0  0  0  0  0  0  0  0  0  0  0
    2.7140    1.0350    0.1110 C   0  0  0  0  0  0  0  0  0  0  0  0
    3.6580    1.8370   -0.6490 C   0  0  0  0  0  0  0  0  0  0  0  0
    5.0700    1.9050   -0.1880 C   0  0  0  0  0  0  0  0  0  0  0  0
    5.7740    0.7190   -0.2580 N   0  0  0  0  0  0  0  0  0  0  0  0
    5.6040   -0.4130    0.5080 C   0  0  0  0  0  0  0  0  0  0  0  0
    6.9320   -1.2220    0.3220 C   0  0  0  0  0  0  0  0  0  0  0  0
    7.4950   -0.6400   -0.9570 C   0  0  0  0  0  0  0  0  0  0  0  0
    7.1250    0.8170   -0.7770 C   0  0  0  0  0  0  0  0  0  0  0  0
    1.4520    0.8530   -0.4160 N   0  0  0  0  0  0  0  0  0  0  0  0
   -1.9540    0.0900    0.2570 N   0  0  0  0  0  0  0  0  0  0  0  0
   -5.1800   -0.5170   -1.6390 C   0  0  0  0  0  0  0  0  0  0  0  0
   -6.4620   -0.8140   -1.7690 C   0  0  0  0  0  0  0  0  0  0  0  0
   -7.4380   -0.8530   -0.7260 N   0  0  0  0  0  0  0  0  0  0  0  0
   -8.6140   -1.6410   -0.9560 C   0  0  0  0  0  0  0  0  0  0  0  0
   -7.3500   -0.1850    0.5130 C   0  0  0  0  0  0  0  0  0  0  0  0
   -6.2660    0.2530    1.1330 C   0  0  0  0  0  0  0  0  0  0  0  0
  1  2  1  0
  2  3  2  0
  2 27  1  0
  3  4  1  0
  3 22  1  0
  4  5  1  0
  4 21  2  0
  5  6  2  0
  6  7  1  0
  7  8  1  0
  7 21  1  0
  8  9  2  0
  8 20  1  0
  9 10  1  0
 10 11  2  0
 11 12  1  0
 12 13  1  0
 12 20  2  0
 13 14  1  0
 14 15  1  0
 15 16  1  0
 15 19  1  0
 16 17  1  0
 17 18  1  0
 18 19  1  0
 22 23  2  0
 23 24  1  0
 24 25  1  0
 24 26  1  0
 26 27  2  0
M  END
