
     RDKit          3D

 27 30  0  0  0  0  0  0  0  0999 V2000
   -5.9660    1.6810   -0.2550 C   0  0  0  0  0  0  0  0  0  0  0  0
   -6.7930    0.6680   -0.4210 C   0  0  0  0  0  0  0  0  0  0  0  0
   -6.2910   -0.5720   -1.1340 C   0  0  0  0  0  0  0  0  0  0  0  0
   -5.0090   -0.4450   -1.5090 N   0  0  0  0  0  0  0  0  0  0  0  0
   -3.8260   -0.4520   -1.2740 C   0  0  0  0  0  0  0  0  0  0  0  0
   -2.9570   -0.1950   -2.3330 N   0  0  0  0  0  0  0  0  0  0  0  0
   -1.6460   -0.1840   -2.1590 C   0  0  0  0  0  0  0  0  0  0  0  0
   -1.0850   -0.4160   -0.9720 N   0  0  0  0  0  0  0  0  0  0  0  0
    0.2970   -0.4080   -0.7700 N   0  0  0  0  0  0  0  0  0  0  0  0
    0.8570    0.6470   -0.3530 C   0  0  0  0  0  0  0  0  0  0  0  0
    2.3100    0.7020   -0.1250 C   0  0  0  0  0  0  0  0  0  0  0  0
    3.2300   -0.3080   -0.3120 C   0  0  0  0  0  0  0  0  0  0  0  0
    4.4670    0.1310    0.0060 N   0  0  0  0  0  0  0  0  0  0  0  0
    5.6720   -0.6420   -0.0640 C   0  0  0  0  0  0  0  0  0  0  0  0
    6.8880   -0.2270    0.2440 C   0  0  0  0  0  0  0  0  0  0  0  0
    7.8700   -1.3460    0.0320 C   0  0  0  0  0  0  0  0  0  0  0  0
    7.0310   -2.4150   -0.4290 N   0  0  0  0  0  0  0  0  0  0  0  0
    5.8000   -2.0190   -0.4820 C   0  0  0  0  0  0  0  0  0  0  0  0
    4.3180    1.3790    0.3810 N   0  0  0  0  0  0  0  0  0  0  0  0
    3.0450    1.7790    0.3230 C   0  0  0  0  0  0  0  0  0  0  0  0
    2.4300    3.0920    0.6500 C   0  0  0  0  0  0  0  0  0  0  0  0
   -1.8660   -0.6720    0.0990 C   0  0  0  0  0  0  0  0  0  0  0  0
   -1.2770   -0.9070    1.3080 N   0  0  0  0  0  0  0  0  0  0  0  0
   -1.9960   -1.1650    2.3960 C   0  0  0  0  0  0  0  0  0  0  0  0
   -3.3700   -1.1980    2.3150 C   0  0  0  0  0  0  0  0  0  0  0  0
   -3.9740   -0.9580    1.0830 C   0  0  0  0  0  0  0  0  0  0  0  0
   -3.2220   -0.6930   -0.0340 C   0  0  0  0  0  0  0  0  0  0  0  0
  1  2  2  0
  2  3  1  0
  3  4  1  0
  4  5  2  3
  5  6  1  0
  5 27  1  0
  6  7  2  0
  7  8  1  0
  8  9  1  0
  8 22  1  0
  9 10  2  3
 10 11  1  0
 11 12  2  0
 11 20  1  0
 12 13  1  0
 13 14  1  0
 13 19  1  0
 14 15  2  0
 14 18  1  0
 15 16  1  0
 16 17  1  0
 17 18  2  0
 19 20  2  0
 20 21  1  0
 22 23  2  0
 22 27  1  0
 23 24  1  0
 24 25  2  0
 25 26  1  0
 26 27  2  0
M  END
