
     RDKit          3D

 27 30  0  0  0  0  0  0  0  0999 V2000
   -4.8590    3.4780    0.1770 C   0  0  0  0  0  0  0  0  0  0  0  0
   -4.7710    2.4400    0.9080 N   0  0  0  0  0  0  0  0  0  0  0  0
   -4.8640    1.1350    0.3340 C   0  0  0  0  0  0  0  0  0  0  0  0
   -6.0880    0.7540   -0.1930 C   0  0  0  0  0  0  0  0  0  0  0  0
   -6.2020   -0.4840   -0.7460 C   0  0  0  0  0  0  0  0  0  0  0  0
   -5.1170   -1.3210   -0.7710 C   0  0  0  0  0  0  0  0  0  0  0  0
   -3.9070   -0.9270   -0.2430 C   0  0  0  0  0  0  0  0  0  0  0  0
   -2.7760   -1.8870   -0.3050 C   0  0  1  0  0  0  0  0  0  0  0  0
   -1.7090   -1.2520   -1.1730 C   0  0  0  0  0  0  0  0  0  0  0  0
   -0.7830   -0.4830   -0.2690 C   0  0  0  0  0  0  0  0  0  0  0  0
    0.0130   -1.4140    0.4640 N   0  0  0  0  0  0  0  0  0  0  0  0
    1.1720   -1.8320   -0.2710 C   0  0  0  0  0  0  0  0  0  0  0  0
    2.0330   -0.6640   -0.5870 C   0  0  0  0  0  0  0  0  0  0  0  0
    1.9500   -0.0400   -1.7660 N   0  0  0  0  0  0  0  0  0  0  0  0
    2.7040    1.0180   -2.1020 C   0  0  0  0  0  0  0  0  0  0  0  0
    3.5900    1.4700   -1.1980 N   0  0  0  0  0  0  0  0  0  0  0  0
    3.7130    0.8710    0.0160 C   0  0  0  0  0  0  0  0  0  0  0  0
    4.6770    1.4210    0.9040 N   0  0  0  0  0  0  0  0  0  0  0  0
    4.3790    2.1270    2.0010 N   0  0  0  0  0  0  0  0  0  0  0  0
    5.5030    2.5080    2.6280 C   0  0  0  0  0  0  0  0  0  0  0  0
    6.5410    2.0080    1.8720 C   0  0  0  0  0  0  0  0  0  0  0  0
    6.0040    1.3330    0.8000 C   0  0  0  0  0  0  0  0  0  0  0  0
    6.7320    0.6270   -0.2860 C   0  0  0  0  0  0  0  0  0  0  0  0
    2.9330   -0.1860    0.3020 N   0  0  0  0  0  0  0  0  0  0  0  0
   -0.7320   -2.5070    1.0180 C   0  0  0  0  0  0  0  0  0  0  0  0
   -2.1890   -2.1490    1.0620 C   0  0  0  0  0  0  0  0  0  0  0  0
   -3.8110    0.2880    0.2950 N   0  0  0  0  0  0  0  0  0  0  0  0
  1  2  2  0
  2  3  1  0
  3  4  2  0
  3 27  1  0
  4  5  1  0
  5  6  2  0
  6  7  1  0
  8  7  1  1
  7 27  2  0
  8  9  1  0
  8 26  1  0
  9 10  1  0
 10 11  1  0
 11 12  1  0
 11 25  1  0
 12 13  1  0
 13 14  2  0
 13 24  1  0
 14 15  1  0
 15 16  2  0
 16 17  1  0
 17 18  1  0
 17 24  2  0
 18 19  1  0
 18 22  1  0
 19 20  2  0
 20 21  1  0
 21 22  2  0
 22 23  1  0
 25 26  1  0
M  END
