
     RDKit          3D

 26 29  0  0  0  0  0  0  0  0999 V2000
    6.2660    0.2650    2.6110 C   0  0  0  0  0  0  0  0  0  0  0  0
    6.0440    0.5940    1.2910 O   0  0  0  0  0  0  0  0  0  0  0  0
    4.7800    1.1520    1.1310 C   0  0  0  0  0  0  0  0  0  0  0  0
    3.7260    0.2080    1.4720 C   0  0  0  0  0  0  0  0  0  0  0  0
    2.7610   -0.3060    0.8180 C   0  0  0  0  0  0  0  0  0  0  0  0
    2.3460   -0.1380   -0.5470 C   0  0  0  0  0  0  0  0  0  0  0  0
    2.9340    0.5240   -1.6040 C   0  0  0  0  0  0  0  0  0  0  0  0
    2.1400    0.3980   -2.6750 N   0  0  0  0  0  0  0  0  0  0  0  0
    2.0740    0.7650   -3.9900 C   0  0  0  0  0  0  0  0  0  0  0  0
    0.8990    0.2360   -4.4660 C   0  0  0  0  0  0  0  0  0  0  0  0
    0.3050   -0.4120   -3.4690 N   0  0  0  0  0  0  0  0  0  0  0  0
    1.0770   -0.3090   -2.3630 C   0  0  0  0  0  0  0  0  0  0  0  0
    1.1420   -0.6770   -1.0410 C   0  0  0  0  0  0  0  0  0  0  0  0
    0.1020   -1.4590   -0.2940 C   0  0  0  0  0  0  0  0  0  0  0  0
   -0.8190   -0.5820    0.4780 C   0  0  0  0  0  0  0  0  0  0  0  0
   -0.2480    0.1520    1.3360 O   0  0  0  0  0  0  0  0  0  0  0  0
   -2.2080   -0.5530    0.2900 N   0  0  0  0  0  0  0  0  0  0  0  0
   -2.9100   -1.2370   -0.7950 C   0  0  0  0  0  0  0  0  0  0  0  0
   -3.5980   -0.1510   -1.6210 C   0  0  0  0  0  0  0  0  0  0  0  0
   -4.7010    0.4500   -0.8110 C   0  0  0  0  0  0  0  0  0  0  0  0
   -4.2860    0.6840    0.5810 C   0  0  0  0  0  0  0  0  0  0  0  0
   -5.1260    1.4150    1.4040 C   0  0  0  0  0  0  0  0  0  0  0  0
   -4.7620    1.6370    2.7030 C   0  0  0  0  0  0  0  0  0  0  0  0
   -3.5970    1.1780    3.2670 C   0  0  0  0  0  0  0  0  0  0  0  0
   -2.7500    0.4410    2.4390 C   0  0  0  0  0  0  0  0  0  0  0  0
   -3.1010    0.2110    1.1350 C   0  0  0  0  0  0  0  0  0  0  0  0
  1  2  1  0
  2  3  1  0
  3  4  1  0
  4  5  2  3
  5  6  1  0
  6  7  2  0
  6 13  1  0
  7  8  1  0
  8  9  1  0
  8 12  1  0
  9 10  2  0
 10 11  1  0
 11 12  1  0
 12 13  2  0
 13 14  1  0
 14 15  1  0
 15 16  2  0
 15 17  1  0
 17 18  1  0
 17 26  1  0
 18 19  1  0
 19 20  1  0
 20 21  1  0
 21 22  2  0
 21 26  1  0
 22 23  1  0
 23 24  2  0
 24 25  1  0
 25 26  2  0
M  END
