
     RDKit          3D

 25 28  0  0  0  0  0  0  0  0999 V2000
   -6.2030    0.1120    0.9130 C   0  0  0  0  0  0  0  0  0  0  0  0
   -4.8990    0.0620    0.1640 C   0  0  0  0  0  0  0  0  0  0  0  0
   -3.9060    0.7970    0.5160 N   0  0  0  0  0  0  0  0  0  0  0  0
   -2.6380    0.4570    0.1050 C   0  0  0  0  0  0  0  0  0  0  0  0
   -1.6100    1.2320    0.5920 C   0  0  0  0  0  0  0  0  0  0  0  0
   -1.9220    2.5410    1.2280 C   0  0  0  0  0  0  0  0  0  0  0  0
   -0.3380    0.8100    0.2800 C   0  0  0  0  0  0  0  0  0  0  0  0
   -0.1180   -0.3220   -0.4750 C   0  0  0  0  0  0  0  0  0  0  0  0
    1.2290   -0.7580   -0.6840 O   0  0  0  0  0  0  0  0  0  0  0  0
    2.1050   -0.1220    0.2120 C   0  0  0  0  0  0  0  0  0  0  0  0
    3.5170   -0.1660    0.1690 C   0  0  0  0  0  0  0  0  0  0  0  0
    4.2790    0.8660    0.7480 C   0  0  0  0  0  0  0  0  0  0  0  0
    5.5500    0.5930    0.5410 N   0  0  0  0  0  0  0  0  0  0  0  0
    6.7060    1.2460    0.8090 C   0  0  0  0  0  0  0  0  0  0  0  0
    7.9450    0.7750    0.4280 C   0  0  0  0  0  0  0  0  0  0  0  0
    7.9890   -0.4350   -0.2770 C   0  0  0  0  0  0  0  0  0  0  0  0
    6.8200   -1.0870   -0.5430 C   0  0  0  0  0  0  0  0  0  0  0  0
    5.6300   -0.5670   -0.1310 C   0  0  0  0  0  0  0  0  0  0  0  0
    4.3590   -1.0290   -0.3620 N   0  0  0  0  0  0  0  0  0  0  0  0
   -1.1760   -1.0260   -0.9490 C   0  0  0  0  0  0  0  0  0  0  0  0
   -2.4640   -0.6530   -0.6700 C   0  0  0  0  0  0  0  0  0  0  0  0
   -3.5670   -1.4710   -1.0820 C   0  0  0  0  0  0  0  0  0  0  0  0
   -4.8180   -1.0980   -0.6630 C   0  0  0  0  0  0  0  0  0  0  0  0
   -6.1180   -1.4260   -1.3240 C   0  0  0  0  0  0  0  0  0  0  0  0
   -6.7460   -2.5740   -1.3550 O   0  0  0  0  0  0  0  0  0  0  0  0
  1  2  1  0
  2  3  2  0
  2 23  1  0
  3  4  1  0
  4  5  2  0
  4 21  1  0
  5  6  1  0
  5  7  1  0
  7  8  2  0
  8  9  1  0
  8 20  1  0
  9 10  1  0
 10 11  1  0
 11 12  2  0
 11 19  1  0
 12 13  1  0
 13 14  1  0
 13 18  1  0
 14 15  2  0
 15 16  1  0
 16 17  2  0
 17 18  1  0
 18 19  2  0
 20 21  2  0
 21 22  1  0
 22 23  2  0
 23 24  1  0
 24 25  1  0
M  END
