
     RDKit          3D

 20 22  0  0  0  0  0  0  0  0999 V2000
   -5.7370    2.0740    0.5980 O   0  0  0  0  0  0  0  0  0  0  0  0
   -4.6740    1.4290    0.4220 C   0  0  0  0  0  0  0  0  0  0  0  0
   -3.9330    1.0340    1.5100 C   0  0  0  0  0  0  0  0  0  0  0  0
   -2.7570    0.3220    1.3440 C   0  0  0  0  0  0  0  0  0  0  0  0
   -2.2920   -0.0120    0.1270 N   0  0  0  0  0  0  0  0  0  0  0  0
   -1.0800   -0.7450   -0.0270 C   0  0  0  0  0  0  0  0  0  0  0  0
   -1.1000   -2.1180   -0.2080 C   0  0  0  0  0  0  0  0  0  0  0  0
    0.0580   -2.8490   -0.3590 C   0  0  0  0  0  0  0  0  0  0  0  0
    1.2710   -2.1940   -0.3300 C   0  0  0  0  0  0  0  0  0  0  0  0
    1.3340   -0.8120   -0.1500 C   0  0  0  0  0  0  0  0  0  0  0  0
    2.6480   -0.1550   -0.1260 C   0  0  0  0  0  0  0  0  0  0  0  0
    2.8860    0.9780    0.6230 C   0  0  0  0  0  0  0  0  0  0  0  0
    4.1490    1.5670    0.6140 C   0  0  0  0  0  0  0  0  0  0  0  0
    5.1890    1.0480   -0.1290 C   0  0  0  0  0  0  0  0  0  0  0  0
    4.9480   -0.0850   -0.8770 C   0  0  0  0  0  0  0  0  0  0  0  0
    3.6950   -0.6650   -0.8660 C   0  0  0  0  0  0  0  0  0  0  0  0
    0.1560   -0.1340   -0.0050 C   0  0  0  0  0  0  0  0  0  0  0  0
   -3.0120    0.3710   -0.9340 C   0  0  0  0  0  0  0  0  0  0  0  0
   -4.1910    1.0820   -0.8260 C   0  0  0  0  0  0  0  0  0  0  0  0
   -4.9230    1.4700   -1.9360 O   0  0  0  0  0  0  0  0  0  0  0  0
  1  2  2  0
  2  3  1  0
  2 19  1  0
  3  4  2  0
  4  5  1  0
  5  6  1  0
  5 18  1  0
  6  7  2  0
  6 17  1  0
  7  8  1  0
  8  9  2  0
  9 10  1  0
 10 11  1  0
 10 17  2  0
 11 12  2  0
 11 16  1  0
 12 13  1  0
 13 14  2  0
 14 15  1  0
 15 16  2  0
 18 19  2  0
 19 20  1  0
M  END
