
     RDKit          3D

 26 29  0  0  0  0  0  0  0  0999 V2000
   -1.0920    2.5810   -1.7390 C   0  0  0  0  0  0  0  0  0  0  0  0
   -1.9450    1.7690   -0.8260 C   0  0  0  0  0  0  0  0  0  0  0  0
   -3.2780    1.4860   -0.9910 C   0  0  0  0  0  0  0  0  0  0  0  0
   -3.6660    0.7090    0.0820 C   0  0  0  0  0  0  0  0  0  0  0  0
   -4.9810    0.1510    0.3620 C   0  0  0  0  0  0  0  0  0  0  0  0
   -5.7300   -0.3440   -0.6070 C   0  0  0  0  0  0  0  0  0  0  0  0
   -5.9700   -0.6830   -2.0490 C   0  0  0  0  0  0  0  0  0  0  0  0
   -7.0010   -0.9980   -1.0730 C   0  0  0  0  0  0  0  0  0  0  0  0
   -2.5200    0.5570    0.8590 C   0  0  0  0  0  0  0  0  0  0  0  0
   -2.5140   -0.2260    2.1440 C   0  0  0  0  0  0  0  0  0  0  0  0
   -1.4770    1.1890    0.3250 N   0  0  0  0  0  0  0  0  0  0  0  0
   -0.1100    1.2750    0.7820 C   0  0  0  0  0  0  0  0  0  0  0  0
    0.7710    0.1900    0.1640 C   0  0  2  0  0  0  0  0  0  0  0  0
    0.2230   -1.1910    0.5690 C   0  0  0  0  0  0  0  0  0  0  0  0
    2.1450    0.2420    0.6800 C   0  0  0  0  0  0  0  0  0  0  0  0
    2.3800    0.8310    1.7570 O   0  0  0  0  0  0  0  0  0  0  0  0
    3.2010   -0.3720   -0.0290 N   0  0  0  0  0  0  0  0  0  0  0  0
    3.0920   -0.9950   -1.1960 C   0  0  0  0  0  0  0  0  0  0  0  0
    2.0850   -1.1940   -1.9550 O   0  0  0  0  0  0  0  0  0  0  0  0
    4.3160   -1.4440   -1.5260 N   0  0  0  0  0  0  0  0  0  0  0  0
    5.2180   -1.1200   -0.5860 C   0  0  0  0  0  0  0  0  0  0  0  0
    6.5830   -1.3550   -0.4720 C   0  0  0  0  0  0  0  0  0  0  0  0
    7.2300   -0.8830    0.6340 C   0  0  0  0  0  0  0  0  0  0  0  0
    6.5230   -0.1910    1.6060 C   0  0  0  0  0  0  0  0  0  0  0  0
    5.1500    0.0430    1.4870 C   0  0  0  0  0  0  0  0  0  0  0  0
    4.5080   -0.4380    0.3680 C   0  0  0  0  0  0  0  0  0  0  0  0
  1  2  1  0
  2  3  2  0
  2 11  1  0
  3  4  1  0
  4  5  1  0
  4  9  2  0
  5  6  2  3
  6  7  1  0
  6  8  1  0
  7  8  1  0
  9 10  1  0
  9 11  1  0
 11 12  1  0
 12 13  1  0
 13 14  1  1
 13 15  1  0
 15 16  2  0
 15 17  1  0
 17 18  1  0
 17 26  1  0
 18 19  2  0
 18 20  1  0
 20 21  1  0
 21 22  2  0
 21 26  1  0
 22 23  1  0
 23 24  2  0
 24 25  1  0
 25 26  2  0
M  END
