
     RDKit          3D

 26 29  0  0  0  0  0  0  0  0999 V2000
   -0.3360   -3.4090   -0.2720 C   0  0  0  0  0  0  0  0  0  0  0  0
   -0.5370   -2.3930   -1.3420 C   0  0  0  0  0  0  0  0  0  0  0  0
   -0.8730   -1.0260   -0.8950 C   0  0  0  0  0  0  0  0  0  0  0  0
   -2.1780   -0.7620   -0.4370 C   0  0  0  0  0  0  0  0  0  0  0  0
   -2.5780    0.4930   -0.0450 C   0  0  0  0  0  0  0  0  0  0  0  0
   -1.6930    1.5570   -0.0900 C   0  0  0  0  0  0  0  0  0  0  0  0
   -2.0770    2.8820    0.3130 N   0  0  0  0  0  0  0  0  0  0  0  0
   -1.9210    3.3250    1.6880 C   0  0  0  0  0  0  0  0  0  0  0  0
   -0.4360    1.2640   -0.5390 C   0  0  0  0  0  0  0  0  0  0  0  0
    0.3890    2.2220   -0.5890 O   0  0  0  0  0  0  0  0  0  0  0  0
   -0.0330    0.0160   -0.9290 N   0  0  0  0  0  0  0  0  0  0  0  0
    1.3340   -0.1250   -1.4300 C   0  0  0  0  0  0  0  0  0  0  0  0
    2.3180   -0.2480   -0.3790 N   0  0  0  0  0  0  0  0  0  0  0  0
    2.1550   -1.2830    0.6310 C   0  0  0  0  0  0  0  0  0  0  0  0
    3.0430   -1.1500    1.8160 C   0  0  0  0  0  0  0  0  0  0  0  0
    4.3450   -0.7060    1.4980 O   0  0  0  0  0  0  0  0  0  0  0  0
    4.4390    0.3700    0.6340 C   0  0  0  0  0  0  0  0  0  0  0  0
    5.5530    1.1900    0.7360 C   0  0  0  0  0  0  0  0  0  0  0  0
    5.6780    2.2850   -0.1230 C   0  0  0  0  0  0  0  0  0  0  0  0
    4.6860    2.5150   -1.0480 C   0  0  0  0  0  0  0  0  0  0  0  0
    3.5840    1.6610   -1.1110 C   0  0  0  0  0  0  0  0  0  0  0  0
    3.4470    0.5920   -0.2840 C   0  0  0  0  0  0  0  0  0  0  0  0
   -3.9530    0.8120    0.4520 C   0  0  0  0  0  0  0  0  0  0  0  0
   -4.8950   -0.1720   -0.2010 C   0  0  0  0  0  0  0  0  0  0  0  0
   -4.4340   -1.5510    0.2480 C   0  0  0  0  0  0  0  0  0  0  0  0
   -3.1190   -1.9210   -0.4130 C   0  0  0  0  0  0  0  0  0  0  0  0
  1  2  1  0
  2  3  1  0
  3  4  2  0
  3 11  1  0
  4  5  1  0
  4 26  1  0
  5  6  2  0
  5 23  1  0
  6  7  1  0
  6  9  1  0
  7  8  1  0
  9 10  2  0
  9 11  1  0
 11 12  1  0
 12 13  1  0
 13 14  1  0
 13 22  1  0
 14 15  1  0
 15 16  1  0
 16 17  1  0
 17 18  2  0
 17 22  1  0
 18 19  1  0
 19 20  2  0
 20 21  1  0
 21 22  2  0
 23 24  1  0
 24 25  1  0
 25 26  1  0
M  END
