
     RDKit          3D

 26 28  0  0  0  0  0  0  0  0999 V2000
   -4.2190   -0.2000    2.2090 C   0  0  0  0  0  0  0  0  0  0  0  0
   -5.3110   -0.1160    1.5750 C   0  0  0  0  0  0  0  0  0  0  0  0
   -5.5610    0.1410    0.1720 C   0  0  0  0  0  0  0  0  0  0  0  0
   -6.8300    0.1960   -0.3350 C   0  0  0  0  0  0  0  0  0  0  0  0
   -8.0560   -0.0010    0.5010 C   0  0  0  0  0  0  0  0  0  0  0  0
   -6.7640    0.4670   -1.7650 C   0  0  0  0  0  0  0  0  0  0  0  0
   -5.3870    0.5760   -2.1070 N   0  0  0  0  0  0  0  0  0  0  0  0
   -4.6120    0.3720   -0.8970 C   0  0  0  0  0  0  0  0  0  0  0  0
   -3.3040    0.4080   -0.8660 C   0  0  0  0  0  0  0  0  0  0  0  0
   -2.5080    0.6630   -2.0840 C   0  0  0  0  0  0  0  0  0  0  0  0
   -1.1940    0.6930   -2.0230 C   0  0  0  0  0  0  0  0  0  0  0  0
   -0.5160    0.4830   -0.7970 N   0  0  0  0  0  0  0  0  0  0  0  0
    0.0810   -0.7840   -0.4370 C   0  0  0  0  0  0  0  0  0  0  0  0
    1.0320   -0.5340    0.7130 C   0  0  0  0  0  0  0  0  0  0  0  0
    1.7670    0.6660    0.4300 N   0  0  0  0  0  0  0  0  0  0  0  0
    3.1730    0.6220    0.3110 C   0  0  0  0  0  0  0  0  0  0  0  0
    3.8620    1.6580    0.0610 O   0  0  0  0  0  0  0  0  0  0  0  0
    3.8780   -0.6840    0.4840 C   0  0  0  0  0  0  0  0  0  0  0  0
    5.3760   -0.4630    0.3130 C   0  0  0  0  0  0  0  0  0  0  0  0
    6.0770   -1.7510    0.4840 C   0  0  0  0  0  0  0  0  0  0  0  0
    5.4570   -2.7530    0.7170 O   0  0  0  0  0  0  0  0  0  0  0  0
    7.5480   -1.8160    0.3680 C   0  0  2  0  0  0  0  0  0  0  0  0
    8.2970   -0.6400    0.8690 C   0  0  0  0  0  0  0  0  0  0  0  0
    8.2720   -0.9150   -0.6000 C   0  0  0  0  0  0  0  0  0  0  0  0
    1.0610    1.9090    0.2690 C   0  0  0  0  0  0  0  0  0  0  0  0
   -0.4340    1.6240    0.1290 C   0  0  0  0  0  0  0  0  0  0  0  0
  1  2  2  0
  2  3  1  0
  3  4  2  0
  3  8  1  0
  4  5  1  0
  4  6  1  0
  6  7  1  0
  7  8  1  0
  8  9  2  3
  9 10  1  0
 10 11  2  3
 11 12  1  0
 12 13  1  0
 12 26  1  0
 13 14  1  0
 14 15  1  0
 15 16  1  0
 15 25  1  0
 16 17  2  0
 16 18  1  0
 18 19  1  0
 19 20  1  0
 20 21  2  0
 22 20  1  6
 22 23  1  0
 22 24  1  0
 23 24  1  0
 25 26  1  0
M  END
