
     RDKit          3D

 26 29  0  0  0  0  0  0  0  0999 V2000
    6.7820   -0.0830    0.5840 C   0  0  0  0  0  0  0  0  0  0  0  0
    5.4070   -0.7040    0.4340 C   0  0  1  0  0  0  0  0  0  0  0  0
    5.2610   -1.7970    1.4830 C   0  0  0  0  0  0  0  0  0  0  0  0
    4.4430    0.2600    0.6500 O   0  0  0  0  0  0  0  0  0  0  0  0
    3.5500    0.4020   -0.4280 C   0  0  0  0  0  0  0  0  0  0  0  0
    2.7910   -0.8550   -0.6740 C   0  0  0  0  0  0  0  0  0  0  0  0
    1.8350   -0.7880   -1.8320 C   0  0  0  0  0  0  0  0  0  0  0  0
    0.7560    0.2430   -1.7190 C   0  0  1  0  0  0  0  0  0  0  0  0
   -0.0930   -0.0290   -0.4580 C   0  0  0  0  0  0  0  0  0  0  0  0
   -1.2470    0.8330   -0.6300 N   0  0  0  0  0  0  0  0  0  0  0  0
   -2.5940    0.4620   -0.4320 C   0  0  0  0  0  0  0  0  0  0  0  0
   -3.5160    0.4730   -1.4860 C   0  0  0  0  0  0  0  0  0  0  0  0
   -4.8340    0.1090   -1.3240 C   0  0  0  0  0  0  0  0  0  0  0  0
   -5.8820    0.0390   -2.1610 N   0  0  0  0  0  0  0  0  0  0  0  0
   -6.9780   -0.3840   -1.5030 C   0  0  0  0  0  0  0  0  0  0  0  0
   -6.6230   -0.5870   -0.2280 N   0  0  0  0  0  0  0  0  0  0  0  0
   -5.3000   -0.2880   -0.0930 C   0  0  0  0  0  0  0  0  0  0  0  0
   -4.4150   -0.3070    0.9550 C   0  0  0  0  0  0  0  0  0  0  0  0
   -4.8880   -0.7020    2.1840 C   0  0  0  0  0  0  0  0  0  0  0  0
   -4.0890   -0.7540    3.2900 C   0  0  0  0  0  0  0  0  0  0  0  0
   -2.7680   -0.3900    3.1400 C   0  0  0  0  0  0  0  0  0  0  0  0
   -2.2860    0.0110    1.8920 C   0  0  0  0  0  0  0  0  0  0  0  0
   -3.0940    0.0600    0.7870 C   0  0  0  0  0  0  0  0  0  0  0  0
   -0.9450    2.1860   -1.0540 C   0  0  0  0  0  0  0  0  0  0  0  0
    0.5100    2.4840   -1.1360 C   0  0  0  0  0  0  0  0  0  0  0  0
    1.2790    1.5020   -1.7040 O   0  0  0  0  0  0  0  0  0  0  0  0
  2  1  1  1
  2  3  1  0
  2  4  1  0
  4  5  1  0
  5  6  1  0
  6  7  1  0
  8  7  1  1
  8  9  1  0
  8 26  1  0
  9 10  1  0
 10 11  1  0
 10 24  1  0
 11 12  2  0
 11 23  1  0
 12 13  1  0
 13 14  1  0
 13 17  2  0
 14 15  1  0
 15 16  2  0
 16 17  1  0
 17 18  1  0
 18 19  2  0
 18 23  1  0
 19 20  1  0
 20 21  2  0
 21 22  1  0
 22 23  2  0
 24 25  1  0
 25 26  1  0
M  END
