
     RDKit          3D

 36 38  0  0  0  0  0  0  0  0999 V2000
    7.1400   -2.5990   -0.0720 C   0  0  0  0  0  0  0  0  0  0  0  0
    7.1490   -1.5140    0.9520 C   0  0  2  0  0  0  0  0  0  0  0  0
    7.0840   -0.1710    0.2130 C   0  0  0  0  0  0  0  0  0  0  0  0
    7.5900    0.7970    1.1320 N   0  0  0  0  0  0  0  0  0  0  0  0
    6.8360    1.7720    1.7560 C   0  0  0  0  0  0  0  0  0  0  0  0
    7.4300    2.5840    2.5610 O   0  0  0  0  0  0  0  0  0  0  0  0
    5.4090    1.9790    1.5950 C   0  0  0  0  0  0  0  0  0  0  0  0
    4.6330    2.9660    2.2260 C   0  0  0  0  0  0  0  0  0  0  0  0
    3.3930    2.8420    1.8380 O   0  0  0  0  0  0  0  0  0  0  0  0
    3.3050    1.8450    1.0000 C   0  0  0  0  0  0  0  0  0  0  0  0
    2.0980    1.3790    0.3390 C   0  0  0  0  0  0  0  0  0  0  0  0
    0.8940    2.0040    0.5840 C   0  0  0  0  0  0  0  0  0  0  0  0
   -0.2420    1.5650   -0.0390 C   0  0  0  0  0  0  0  0  0  0  0  0
   -0.2150    0.4910   -0.9240 C   0  0  0  0  0  0  0  0  0  0  0  0
   -1.3800    0.0280   -1.5710 N   0  0  0  0  0  0  0  0  0  0  0  0
   -2.6610    0.6380   -1.3170 C   0  0  0  0  0  0  0  0  0  0  0  0
   -3.7670    0.0040   -2.1150 C   0  0  0  0  0  0  0  0  0  0  0  0
   -3.8550   -0.0860   -3.5360 C   0  0  0  0  0  0  0  0  0  0  0  0
   -3.2390    0.3390   -4.5580 C   0  0  0  0  0  0  0  0  0  0  0  0
   -4.0540   -0.3030   -6.1220 Cl  0  0  0  0  0  0  0  0  0  0  0  0
   -2.1760    1.2350   -4.9210 C   0  0  0  0  0  0  0  0  0  0  0  0
   -1.3940    2.2170   -3.7360 Cl  0  0  0  0  0  0  0  0  0  0  0  0
   -4.7210   -0.5960   -1.3560 C   0  0  0  0  0  0  0  0  0  0  0  0
   -5.8520   -1.2510   -1.8860 C   0  0  0  0  0  0  0  0  0  0  0  0
   -6.7510   -1.8300   -1.1160 N   0  0  0  0  0  0  0  0  0  0  0  0
   -6.5810   -1.7970    0.3020 C   0  0  0  0  0  0  0  0  0  0  0  0
   -7.1370   -0.5010    0.8470 C   0  0  0  0  0  0  0  0  0  0  0  0
   -6.9780   -0.4190    2.2830 N   0  0  2  0  0  0  0  0  0  0  0  0
   -5.9520   -1.3280    2.7630 C   0  0  0  0  0  0  0  0  0  0  0  0
   -8.2360   -0.6780    2.9470 C   0  0  0  0  0  0  0  0  0  0  0  0
    0.9820   -0.1190   -1.1580 C   0  0  0  0  0  0  0  0  0  0  0  0
    2.1140    0.3170   -0.5380 C   0  0  0  0  0  0  0  0  0  0  0  0
    4.5180    1.3040    0.8360 N   0  0  0  0  0  0  0  0  0  0  0  0
    9.0380    0.6910    1.4040 C   0  0  0  0  0  0  0  0  0  0  0  0
    9.3200   -0.8030    1.4070 C   0  0  0  0  0  0  0  0  0  0  0  0
    8.2250   -1.5530    1.8180 O   0  0  0  0  0  0  0  0  0  0  0  0
  2  1  1  6
  2  3  1  0
  2 36  1  0
  3  4  1  0
  4  5  1  0
  4 34  1  0
  5  6  2  0
  5  7  1  0
  7  8  2  0
  7 33  1  0
  8  9  1  0
  9 10  1  0
 10 11  1  0
 10 33  2  0
 11 12  2  0
 11 32  1  0
 12 13  1  0
 13 14  2  0
 14 15  1  0
 14 31  1  0
 15 16  1  0
 16 17  1  0
 17 18  1  0
 17 23  2  3
 18 19  2  3
 19 20  1  0
 19 21  1  0
 21 22  1  0
 23 24  1  0
 24 25  2  3
 25 26  1  0
 26 27  1  0
 27 28  1  0
 28 29  1  1
 28 30  1  0
 31 32  2  0
 34 35  1  0
 35 36  1  0
M  CHG  2  25   1  28   1
M  END
