
     RDKit          3D

 36 39  0  0  0  0  0  0  0  0999 V2000
    2.4310    1.2340   -2.8080 C   0  0  0  0  0  0  0  0  0  0  0  0
    2.6750    0.0060   -2.4540 C   0  0  0  0  0  0  0  0  0  0  0  0
    2.5540   -1.0460   -3.4850 C   0  0  0  0  0  0  0  0  0  0  0  0
    3.0630   -0.3680   -1.0670 C   0  0  0  0  0  0  0  0  0  0  0  0
    3.2910   -1.6860   -0.8800 C   0  0  0  0  0  0  0  0  0  0  0  0
    3.6650   -2.4920    0.2350 C   0  0  0  0  0  0  0  0  0  0  0  0
    3.2610   -3.6480    0.7660 C   0  0  0  0  0  0  0  0  0  0  0  0
    2.2620   -4.6220    0.4570 C   0  0  0  0  0  0  0  0  0  0  0  0
    0.9160   -4.5600    0.5740 C   0  0  0  0  0  0  0  0  0  0  0  0
    0.2100   -3.5180    1.0250 N   0  0  0  0  0  0  0  0  0  0  0  0
   -0.4540   -2.5370    1.2330 C   0  0  0  0  0  0  0  0  0  0  0  0
   -0.6370   -2.2790    2.6410 N   0  0  0  0  0  0  0  0  0  0  0  0
   -1.2980   -1.0820    3.0230 C   0  0  0  0  0  0  0  0  0  0  0  0
   -2.0020   -0.9900    4.0660 O   0  0  0  0  0  0  0  0  0  0  0  0
   -1.1420    0.0610    2.1720 C   0  0  1  0  0  0  0  0  0  0  0  0
   -1.5500   -0.3500    0.7850 C   0  0  0  0  0  0  0  0  0  0  0  0
   -2.2600    0.5690    0.0630 C   0  0  0  0  0  0  0  0  0  0  0  0
   -2.4370    0.3640   -1.2830 C   0  0  0  0  0  0  0  0  0  0  0  0
   -3.1790    1.3360   -2.0140 N   0  0  0  0  0  0  0  0  0  0  0  0
   -4.6210    1.2120   -2.1420 C   0  0  0  0  0  0  0  0  0  0  0  0
   -2.5400    2.4730   -2.6540 C   0  0  0  0  0  0  0  0  0  0  0  0
   -1.8940   -0.7540   -1.8500 C   0  0  0  0  0  0  0  0  0  0  0  0
   -1.1820   -1.6670   -1.0850 C   0  0  0  0  0  0  0  0  0  0  0  0
   -0.9640   -1.5200    0.3110 C   0  0  0  0  0  0  0  0  0  0  0  0
   -1.5120    1.3370    2.6020 N   0  0  0  0  0  0  0  0  0  0  0  0
   -2.6970    1.8690    2.9340 C   0  0  0  0  0  0  0  0  0  0  0  0
   -3.8550    1.3050    2.9490 O   0  0  0  0  0  0  0  0  0  0  0  0
   -2.5050    3.1580    3.2710 N   0  0  0  0  0  0  0  0  0  0  0  0
   -1.2090    3.4130    3.1470 C   0  0  0  0  0  0  0  0  0  0  0  0
   -0.6710    4.5450    3.3870 O   0  0  0  0  0  0  0  0  0  0  0  0
   -0.5830    2.2750    2.7280 N   0  0  0  0  0  0  0  0  0  0  0  0
    0.8080    2.0910    2.4940 C   0  0  0  0  0  0  0  0  0  0  0  0
    1.2520    1.9440    1.0690 C   0  0  0  0  0  0  0  0  0  0  0  0
    2.5230    1.1440    0.9770 C   0  0  0  0  0  0  0  0  0  0  0  0
    2.9930    0.8330    2.1410 O   0  0  0  0  0  0  0  0  0  0  0  0
    3.2180    0.7210   -0.1660 N   0  0  0  0  0  0  0  0  0  0  0  0
  1  2  2  0
  2  3  1  0
  2  4  1  0
  4  5  2  0
  4 36  1  0
  5  6  1  0
  6  7  2  0
  7  8  1  0
  8  9  2  0
  9 10  1  0
 10 11  2  0
 11 12  1  0
 11 24  1  0
 12 13  1  0
 13 14  2  0
 13 15  1  0
 15 16  1  0
 15 25  1  1
 16 17  2  0
 16 24  1  0
 17 18  1  0
 18 19  1  0
 18 22  2  0
 19 20  1  0
 19 21  1  0
 22 23  1  0
 23 24  2  0
 25 26  1  0
 25 31  1  0
 26 27  2  0
 26 28  1  0
 28 29  1  0
 29 30  2  0
 29 31  1  0
 31 32  1  0
 32 33  1  0
 33 34  1  0
 34 35  2  0
 34 36  1  0
M  END
