
     RDKit          3D

 36 40  0  0  0  0  0  0  0  0999 V2000
   -5.2090    4.0740   -0.0300 C   0  0  0  0  0  0  0  0  0  0  0  0
   -4.7820    3.2860    1.0300 O   0  0  0  0  0  0  0  0  0  0  0  0
   -4.0430    2.2030    0.6750 C   0  0  2  0  0  0  0  0  0  0  0  0
   -4.6740    0.8590    0.9900 C   0  0  0  0  0  0  0  0  0  0  0  0
   -5.2340    0.1840   -0.2330 C   0  0  0  0  0  0  0  0  0  0  0  0
   -5.2630   -1.3270   -0.1390 C   0  0  0  0  0  0  0  0  0  0  0  0
   -3.9620   -1.9420   -0.6030 C   0  0  2  0  0  0  0  0  0  0  0  0
   -4.1160   -3.3850   -1.0190 C   0  0  0  0  0  0  0  0  0  0  0  0
   -2.8090   -3.8700   -1.6010 C   0  0  0  0  0  0  0  0  0  0  0  0
   -1.6240   -3.5000   -0.7590 C   0  0  0  0  0  0  0  0  0  0  0  0
   -1.7510   -2.1010   -0.1990 C   0  0  1  0  0  0  0  0  0  0  0  0
   -3.0190   -1.9670    0.4380 O   0  0  0  0  0  0  0  0  0  0  0  0
   -0.6900   -1.7450    0.7590 C   0  0  0  0  0  0  0  0  0  0  0  0
   -0.8470   -2.2780    1.9260 O   0  0  0  0  0  0  0  0  0  0  0  0
    0.4300   -0.9280    0.5680 N   0  0  0  0  0  0  0  0  0  0  0  0
    0.4940    0.4490    0.1780 C   0  0  0  0  0  0  0  0  0  0  0  0
    1.5950    1.1530   -0.3370 C   0  0  0  0  0  0  0  0  0  0  0  0
    2.9430    0.6150   -0.6210 C   0  0  0  0  0  0  0  0  0  0  0  0
    3.3580    0.1690   -1.8170 N   0  0  0  0  0  0  0  0  0  0  0  0
    4.5980   -0.2510   -1.7450 N   0  0  0  0  0  0  0  0  0  0  0  0
    5.0260   -0.0770   -0.4430 C   0  0  0  0  0  0  0  0  0  0  0  0
    6.3720   -0.4560   -0.0490 C   0  0  0  0  0  0  0  0  0  0  0  0
    6.8930   -0.3180    1.2090 C   0  0  0  0  0  0  0  0  0  0  0  0
    8.2110   -0.7360    1.4350 C   0  0  0  0  0  0  0  0  0  0  0  0
    8.9890   -1.2630    0.4970 N   0  0  0  0  0  0  0  0  0  0  0  0
    8.5030   -1.4090   -0.7430 C   0  0  0  0  0  0  0  0  0  0  0  0
    9.1910   -1.8990   -1.6690 O   0  0  0  0  0  0  0  0  0  0  0  0
    7.2260   -1.0140   -1.0060 C   0  0  0  0  0  0  0  0  0  0  0  0
    3.9920    0.4490    0.2050 N   0  0  0  0  0  0  0  0  0  0  0  0
    3.9520    0.8010    1.6000 C   0  0  0  0  0  0  0  0  0  0  0  0
    1.1920    2.4390   -0.5510 C   0  0  0  0  0  0  0  0  0  0  0  0
    2.0260    3.5670   -1.0950 C   0  0  0  0  0  0  0  0  0  0  0  0
   -0.0840    2.4890   -0.1790 N   0  0  0  0  0  0  0  0  0  0  0  0
   -0.5000    1.3150    0.2520 N   0  0  0  0  0  0  0  0  0  0  0  0
   -1.8520    1.0160    0.7220 C   0  0  0  0  0  0  0  0  0  0  0  0
   -2.5960    2.2410    1.1980 C   0  0  0  0  0  0  0  0  0  0  0  0
  1  2  1  0
  3  2  1  1
  3  4  1  0
  3 36  1  0
  4  5  1  0
  5  6  1  0
  7  6  1  1
  7  8  1  0
  7 12  1  0
  8  9  1  0
  9 10  1  0
 11 10  1  1
 11 12  1  0
 11 13  1  0
 13 14  2  0
 13 15  1  0
 15 16  1  0
 16 17  2  0
 16 34  1  0
 17 18  1  0
 17 31  1  0
 18 19  2  0
 18 29  1  0
 19 20  1  0
 20 21  2  0
 21 22  1  0
 21 29  1  0
 22 23  1  0
 22 28  2  0
 23 24  2  0
 24 25  1  0
 25 26  1  0
 26 27  2  0
 26 28  1  0
 29 30  1  0
 31 32  1  0
 31 33  2  0
 33 34  1  0
 34 35  1  0
 35 36  1  0
M  END
