
     RDKit          3D

 14 13  0  0  0  0  0  0  0  0999 V2000
   -3.4910    0.4000   -0.8760 O   0  0  0  0  0  0  0  0  0  0  0  0
   -2.5620    1.2350   -0.7120 C   0  0  0  0  0  0  0  0  0  0  0  0
   -2.7260    2.5790   -1.0360 O   0  0  0  0  0  0  0  0  0  0  0  0
   -1.3680    0.7370   -0.1910 O   0  0  0  0  0  0  0  0  0  0  0  0
   -1.2240   -0.6540    0.1340 C   0  0  0  0  0  0  0  0  0  0  0  0
    0.2060   -0.7880    0.6660 C   0  0  2  0  0  0  0  0  0  0  0  0
    1.0430   -0.3820   -0.3600 O   0  0  0  0  0  0  0  0  0  0  0  0
    1.6650    0.7660   -0.0820 O   0  0  0  0  0  0  0  0  0  0  0  0
    2.6720    1.2180   -0.9040 C   0  0  0  0  0  0  0  0  0  0  0  0
    2.9680    0.5020   -1.9130 O   0  0  0  0  0  0  0  0  0  0  0  0
    3.3490    2.3900   -0.6700 O   0  0  0  0  0  0  0  0  0  0  0  0
    0.4950   -2.1330    1.1430 C   0  0  0  0  0  0  0  0  0  0  0  0
    1.4190   -2.8060    0.6380 O   0  0  0  0  0  0  0  0  0  0  0  0
   -0.2500   -2.6860    2.1630 O   0  0  0  0  0  0  0  0  0  0  0  0
  1  2  2  0
  2  3  1  0
  2  4  1  0
  4  5  1  0
  6  5  1  6
  6  7  1  0
  6 12  1  0
  7  8  1  0
  8  9  1  0
  9 10  2  0
  9 11  1  0
 12 13  2  0
 12 14  1  0
M  END
