
     RDKit          3D

 15 15  0  0  0  0  0  0  0  0999 V2000
   -5.1550   -0.9150    0.0170 O   0  0  0  0  0  0  0  0  0  0  0  0
   -4.4590    0.1510   -0.0690 C   0  0  0  0  0  0  0  0  0  0  0  0
   -5.1510    1.4160   -0.1060 O   0  0  0  0  0  0  0  0  0  0  0  0
   -3.1210    0.1480   -0.1720 O   0  0  0  0  0  0  0  0  0  0  0  0
   -2.2860   -0.7920   -0.3580 O   0  0  0  0  0  0  0  0  0  0  0  0
   -1.1670   -0.6910    0.5520 C   0  0  0  0  0  0  0  0  0  0  0  0
    0.0270   -0.7940   -0.3830 C   0  0  2  0  0  0  0  0  0  0  0  0
    1.3300   -0.8890    0.1040 C   0  0  0  0  0  0  0  0  0  0  0  0
    1.4830    0.4570    0.8450 C   0  0  1  0  0  0  0  0  0  0  0  0
    2.5830    1.2020    0.3610 O   0  0  0  0  0  0  0  0  0  0  0  0
    3.8820    0.6780    0.6540 C   0  0  0  0  0  0  0  0  0  0  0  0
    3.8470   -0.3950    1.2320 O   0  0  0  0  0  0  0  0  0  0  0  0
    5.0430    1.4320    0.2470 O   0  0  0  0  0  0  0  0  0  0  0  0
    0.3910    1.0800    0.5540 O   0  0  0  0  0  0  0  0  0  0  0  0
    0.0980    0.6730   -0.7590 O   0  0  0  0  0  0  0  0  0  0  0  0
  1  2  2  0
  2  3  1  0
  2  4  1  0
  4  5  1  0
  5  6  1  0
  7  6  1  1
  7  8  1  0
  7 15  1  0
  8  9  1  0
  9 10  1  6
  9 14  1  0
 10 11  1  0
 11 12  2  0
 11 13  1  0
 14 15  1  0
M  END
