
     RDKit          3D

 12 11  0  0  0  0  0  0  0  0999 V2000
   -3.6160    1.3750    1.3410 C   0  0  0  0  0  0  0  0  0  0  0  0
   -3.6830    0.2620    0.3570 C   0  0  0  0  0  0  0  0  0  0  0  0
   -2.7260    0.0020   -0.5080 C   0  0  0  0  0  0  0  0  0  0  0  0
   -2.8940   -1.1290   -1.4420 C   0  0  0  0  0  0  0  0  0  0  0  0
   -1.5740    0.7540   -0.5660 O   0  0  0  0  0  0  0  0  0  0  0  0
   -0.3950    0.4900    0.1240 C   0  0  0  0  0  0  0  0  0  0  0  0
    0.2090   -0.8640   -0.2220 C   0  0  1  0  0  0  0  0  0  0  0  0
    0.5220   -0.9830   -1.5580 O   0  0  0  0  0  0  0  0  0  0  0  0
    1.3050   -1.1450    0.7240 C   0  0  0  0  0  0  0  0  0  0  0  0
    2.4430   -0.2110    0.7760 C   0  0  0  0  0  0  0  0  0  0  0  0
    3.2390    0.0000   -0.4420 C   0  0  0  0  0  0  0  0  0  0  0  0
    4.3530    0.9930   -0.1660 C   0  0  0  0  0  0  0  0  0  0  0  0
  1  2  1  0
  2  3  2  3
  3  4  1  0
  3  5  1  0
  5  6  1  0
  6  7  1  0
  7  8  1  6
  7  9  1  0
  9 10  1  0
 10 11  1  0
 11 12  1  0
M  END
