
     RDKit          3D

 12 11  0  0  0  0  0  0  0  0999 V2000
    2.9140    1.1600    0.4880 C   0  0  0  0  0  0  0  0  0  0  0  0
    2.7340   -0.3120    0.3020 C   0  0  2  0  0  0  0  0  0  0  0  0
    4.1200   -0.9120    0.0750 C   0  0  0  0  0  0  0  0  0  0  0  0
    1.9260   -0.6440   -0.9360 C   0  0  0  0  0  0  0  0  0  0  0  0
    0.5310   -0.0270   -0.8650 C   0  0  0  0  0  0  0  0  0  0  0  0
   -0.0870   -0.5400    0.2390 O   0  0  0  0  0  0  0  0  0  0  0  0
   -1.3600   -0.1120    0.4920 C   0  0  1  0  0  0  0  0  0  0  0  0
   -1.8200   -0.8260    1.7710 C   0  0  0  0  0  0  0  0  0  0  0  0
   -1.4480    1.3680    0.7890 C   0  0  0  0  0  0  0  0  0  0  0  0
   -2.2960   -0.5190   -0.5980 C   0  0  0  0  0  0  0  0  0  0  0  0
   -3.7130   -0.0700   -0.3610 C   0  0  0  0  0  0  0  0  0  0  0  0
   -3.8370    1.2960   -0.2620 O   0  0  0  0  0  0  0  0  0  0  0  0
  2  1  1  6
  2  3  1  0
  2  4  1  0
  4  5  1  0
  5  6  1  0
  6  7  1  0
  7  8  1  1
  7  9  1  0
  7 10  1  0
 10 11  1  0
 11 12  1  0
M  END
