
     RDKit          3D

 12 11  0  0  0  0  0  0  0  0999 V2000
    1.1680    1.6660   -2.1980 C   0  0  0  0  0  0  0  0  0  0  0  0
    1.8790    0.8410   -1.4490 C   0  0  0  0  0  0  0  0  0  0  0  0
    1.3440    0.1920   -0.2670 C   0  0  0  0  0  0  0  0  0  0  0  0
    0.0490    0.4280    0.1110 O   0  0  0  0  0  0  0  0  0  0  0  0
   -0.9950   -0.3110   -0.4660 C   0  0  0  0  0  0  0  0  0  0  0  0
   -2.3470    0.0930    0.0790 C   0  0  1  0  0  0  0  0  0  0  0  0
   -2.4250   -0.2660    1.5520 C   0  0  0  0  0  0  0  0  0  0  0  0
   -2.6480    1.5430   -0.0960 C   0  0  0  0  0  0  0  0  0  0  0  0
   -3.3020   -0.7080   -0.5670 O   0  0  0  0  0  0  0  0  0  0  0  0
    2.1090   -0.6120    0.4230 C   0  0  0  0  0  0  0  0  0  0  0  0
    1.5260   -1.2640    1.6370 C   0  0  0  0  0  0  0  0  0  0  0  0
    3.5210   -0.9100    0.0680 C   0  0  0  0  0  0  0  0  0  0  0  0
  1  2  2  0
  2  3  1  0
  3  4  1  0
  3 10  2  3
  4  5  1  0
  5  6  1  0
  6  7  1  1
  6  8  1  0
  6  9  1  0
 10 11  1  0
 10 12  1  0
M  END
