
     RDKit          3D

 12 11  0  0  0  0  0  0  0  0999 V2000
   -1.9870   -1.8450    0.9040 C   0  0  0  0  0  0  0  0  0  0  0  0
   -2.1750   -0.8380    0.0290 C   0  0  0  0  0  0  0  0  0  0  0  0
   -3.4610   -0.7020   -0.6440 C   0  0  0  0  0  0  0  0  0  0  0  0
   -1.0520    0.0660   -0.1890 C   0  0  0  0  0  0  0  0  0  0  0  0
   -1.0770    1.0920   -1.0070 C   0  0  0  0  0  0  0  0  0  0  0  0
   -2.1280    1.5800   -1.8510 C   0  0  0  0  0  0  0  0  0  0  0  0
    0.0480   -0.2200    0.5180 O   0  0  0  0  0  0  0  0  0  0  0  0
    1.1020   -0.4930    1.1960 C   0  0  0  0  0  0  0  0  0  0  0  0
    2.3210    0.2740    0.6340 C   0  0  2  0  0  0  0  0  0  0  0  0
    2.4410   -0.0760   -0.8080 C   0  0  0  0  0  0  0  0  0  0  0  0
    3.5480   -0.0170    1.4470 C   0  0  0  0  0  0  0  0  0  0  0  0
    1.9870    1.6200    0.7480 O   0  0  0  0  0  0  0  0  0  0  0  0
  1  2  2  0
  2  3  1  0
  2  4  1  0
  4  5  2  3
  4  7  1  0
  5  6  1  0
  7  8  1  0
  8  9  1  0
  9 10  1  6
  9 11  1  0
  9 12  1  0
M  END
