
     RDKit          3D

 12 11  0  0  0  0  0  0  0  0999 V2000
   -3.2360   -1.6570    0.0500 C   0  0  0  0  0  0  0  0  0  0  0  0
   -2.5430   -0.3140    0.1040 C   0  0  0  0  0  0  0  0  0  0  0  0
   -1.2350   -0.2810    0.0190 C   0  0  0  0  0  0  0  0  0  0  0  0
   -0.3730    0.9200    0.0510 C   0  0  0  0  0  0  0  0  0  0  0  0
    0.6290    0.8610    1.1480 C   0  0  0  0  0  0  0  0  0  0  0  0
    1.6320   -0.2170    1.1260 C   0  0  0  0  0  0  0  0  0  0  0  0
    2.5960   -0.2870    0.0140 C   0  0  2  0  0  0  0  0  0  0  0  0
    3.4600    0.9600   -0.1090 C   0  0  0  0  0  0  0  0  0  0  0  0
    2.1030   -0.7340   -1.3160 C   0  0  0  0  0  0  0  0  0  0  0  0
    3.5490   -1.2810    0.4110 O   0  0  0  0  0  0  0  0  0  0  0  0
   -3.4350    0.8460    0.2450 C   0  0  0  0  0  0  0  0  0  0  0  0
   -4.2850    0.8140   -0.8860 O   0  0  0  0  0  0  0  0  0  0  0  0
  1  2  1  0
  2  3  2  3
  2 11  1  0
  3  4  1  0
  4  5  1  0
  5  6  1  0
  6  7  1  0
  7  8  1  6
  7  9  1  0
  7 10  1  0
 11 12  1  0
M  END
