
     RDKit          3D

 12 11  0  0  0  0  0  0  0  0999 V2000
    4.9910   -0.1910    0.5880 C   0  0  0  0  0  0  0  0  0  0  0  0
    4.4350    0.4890   -0.3950 C   0  0  0  0  0  0  0  0  0  0  0  0
    3.0020    0.4800   -0.6380 C   0  0  0  0  0  0  0  0  0  0  0  0
    2.5130    1.1780   -1.6340 C   0  0  0  0  0  0  0  0  0  0  0  0
    2.1310   -0.3180    0.2460 C   0  0  0  0  0  0  0  0  0  0  0  0
    0.7820   -0.1870   -0.1650 O   0  0  0  0  0  0  0  0  0  0  0  0
   -0.2520   -0.8220    0.4820 C   0  0  0  0  0  0  0  0  0  0  0  0
    0.0040   -1.5390    1.4630 O   0  0  0  0  0  0  0  0  0  0  0  0
   -1.6400   -0.6260   -0.0210 C   0  0  0  0  0  0  0  0  0  0  0  0
   -2.3130    0.4090    0.8720 C   0  0  0  0  0  0  0  0  0  0  0  0
   -3.7360    0.6620    0.4230 C   0  0  0  0  0  0  0  0  0  0  0  0
   -4.5610   -0.6030    0.4750 C   0  0  0  0  0  0  0  0  0  0  0  0
  1  2  2  0
  2  3  1  0
  3  4  2  0
  3  5  1  0
  5  6  1  0
  6  7  1  0
  7  8  2  0
  7  9  1  0
  9 10  1  0
 10 11  1  0
 11 12  1  0
M  END
