
     RDKit          3D

 10  9  0  0  0  0  0  0  0  0999 V2000
    2.3790    0.6820    1.1860 O   0  0  0  0  0  0  0  0  0  0  0  0
    2.6240    0.5500   -0.1530 C   0  0  0  0  0  0  0  0  0  0  0  0
    1.8690   -0.5350   -0.8100 C   0  0  0  0  0  0  0  0  0  0  0  0
    0.5170   -0.5060   -0.8060 O   0  0  0  0  0  0  0  0  0  0  0  0
   -0.0830   -0.5280    0.4310 C   0  0  0  0  0  0  0  0  0  0  0  0
   -1.6050   -0.5410    0.3190 C   0  0  1  0  0  0  0  0  0  0  0  0
   -2.0360   -1.6640   -0.3810 O   0  0  0  0  0  0  0  0  0  0  0  0
   -2.1770   -0.6160    1.5880 O   0  0  0  0  0  0  0  0  0  0  0  0
   -2.0590    0.7510   -0.3150 C   0  0  0  0  0  0  0  0  0  0  0  0
   -1.5850    0.8960   -1.6130 O   0  0  0  0  0  0  0  0  0  0  0  0
  1  2  1  0
  2  3  1  0
  3  4  1  0
  4  5  1  0
  5  6  1  0
  6  7  1  6
  6  8  1  0
  6  9  1  0
  9 10  1  0
M  END
