
     RDKit          3D

 23 24  0  0  0  0  0  0  0  0999 V2000
   -2.4380   -3.7530   -0.2130 C   0  0  0  0  0  0  0  0  0  0  0  0
   -1.6760   -2.5790   -0.2710 O   0  0  0  0  0  0  0  0  0  0  0  0
   -2.1960   -1.3140   -0.0860 C   0  0  0  0  0  0  0  0  0  0  0  0
   -3.4780   -1.1930    0.1570 N   0  0  0  0  0  0  0  0  0  0  0  0
   -4.0700   -0.0260    0.3480 C   0  0  0  0  0  0  0  0  0  0  0  0
   -5.5180    0.1260    0.6460 C   0  0  0  0  0  0  0  0  0  0  0  0
   -3.2490    1.1010    0.2740 C   0  0  0  0  0  0  0  0  0  0  0  0
   -3.8310    2.2950    0.4600 O   0  0  0  0  0  0  0  0  0  0  0  0
   -1.8750    0.9940    0.0140 C   0  0  0  0  0  0  0  0  0  0  0  0
   -1.1510    2.2500   -0.1290 C   0  0  0  0  0  0  0  0  0  0  0  0
   -1.2750   -0.2080   -0.1740 C   0  0  0  0  0  0  0  0  0  0  0  0
    0.0810   -0.5520   -0.4350 C   0  0  1  0  0  0  0  0  0  0  0  0
    0.2570   -0.9610   -1.8120 O   0  0  0  0  0  0  0  0  0  0  0  0
    1.2840    0.2050   -0.0040 C   0  0  2  0  0  0  0  0  0  0  0  0
    1.2710    0.3730    1.5040 C   0  0  0  0  0  0  0  0  0  0  0  0
    2.3000    1.0590    2.0390 O   0  0  0  0  0  0  0  0  0  0  0  0
    1.7220    1.3070   -0.8250 C   0  0  0  0  0  0  0  0  0  0  0  0
    3.1600    1.3170   -1.3250 C   0  0  0  0  0  0  0  0  0  0  0  0
    4.1360    0.9370   -0.2690 C   0  0  0  0  0  0  0  0  0  0  0  0
    3.7580   -0.4160    0.2300 C   0  0  1  0  0  0  0  0  0  0  0  0
    4.1290   -0.6020    1.5810 O   0  0  0  0  0  0  0  0  0  0  0  0
    2.4410   -0.9080   -0.1390 C   0  0  2  0  0  0  0  0  0  0  0  0
    2.3370   -1.3320   -1.4400 O   0  0  0  0  0  0  0  0  0  0  0  0
  1  2  1  0
  2  3  1  0
  3  4  2  0
  3 11  1  0
  4  5  1  0
  5  6  1  0
  5  7  2  0
  7  8  1  0
  7  9  1  0
  9 10  1  0
  9 11  2  0
 11 12  1  0
 12 13  1  6
 12 14  1  0
 14 15  1  1
 14 17  1  0
 14 22  1  0
 15 16  1  0
 17 18  1  0
 18 19  1  0
 19 20  1  0
 20 21  1  1
 20 22  1  0
 22 23  1  6
M  END
