
     RDKit          3D

 23 24  0  0  0  0  0  0  0  0999 V2000
    4.4790    0.8540   -1.6230 C   0  0  0  0  0  0  0  0  0  0  0  0
    4.9750   -0.4980   -1.2780 C   0  0  1  0  0  0  0  0  0  0  0  0
    5.8880   -0.3590   -0.0580 C   0  0  0  0  0  0  0  0  0  0  0  0
    6.3450   -1.6400    0.2510 O   0  0  0  0  0  0  0  0  0  0  0  0
    4.0160   -1.6030   -1.0880 C   0  0  0  0  0  0  0  0  0  0  0  0
    3.0580   -1.5150   -0.0940 O   0  0  0  0  0  0  0  0  0  0  0  0
    1.9890   -0.6430   -0.0270 C   0  0  0  0  0  0  0  0  0  0  0  0
    1.7660    0.1960   -0.9320 O   0  0  0  0  0  0  0  0  0  0  0  0
    1.0790   -0.6450    1.0720 N   0  0  0  0  0  0  0  0  0  0  0  0
   -0.0620    0.1970    1.2520 C   0  0  0  0  0  0  0  0  0  0  0  0
   -1.1500    0.0530    0.2140 C   0  0  1  0  0  0  0  0  0  0  0  0
   -0.7390    0.3630   -1.0630 O   0  0  0  0  0  0  0  0  0  0  0  0
   -1.6530   -1.3760    0.2300 C   0  0  2  0  0  0  0  0  0  0  0  0
   -1.7900   -2.0080   -1.1160 C   0  0  0  0  0  0  0  0  0  0  0  0
   -2.2650   -3.3290   -0.9160 O   0  0  0  0  0  0  0  0  0  0  0  0
   -2.9840   -1.3930    0.9180 C   0  0  0  0  0  0  0  0  0  0  0  0
   -3.0610   -0.0430    1.5570 C   0  0  2  0  0  0  0  0  0  0  0  0
   -4.3640    0.3780    1.7900 O   0  0  0  0  0  0  0  0  0  0  0  0
   -2.3730    0.8350    0.5190 C   0  0  2  0  0  0  0  0  0  0  0  0
   -3.2500    0.9420   -0.7260 C   0  0  0  0  0  0  0  0  0  0  0  0
   -4.0480    2.2260   -0.5220 C   0  0  0  0  0  0  0  0  0  0  0  0
   -2.9910    3.1350    0.0130 C   0  0  0  0  0  0  0  0  0  0  0  0
   -2.2170    2.2340    0.9520 C   0  0  0  0  0  0  0  0  0  0  0  0
  2  1  1  1
  2  3  1  0
  2  5  1  0
  3  4  1  0
  5  6  1  0
  6  7  1  0
  7  8  2  0
  7  9  1  0
  9 10  1  0
 10 11  1  0
 11 12  1  6
 11 13  1  0
 11 19  1  0
 13 14  1  6
 13 16  1  0
 14 15  1  0
 16 17  1  0
 17 18  1  6
 17 19  1  0
 19 20  1  6
 19 23  1  0
 20 21  1  0
 21 22  1  0
 22 23  1  0
M  END
