
     RDKit          3D

  5  4  0  0  0  0  0  0  0  0999 V2000
   -0.9450   -0.5240   -0.5690 C   0  0  0  0  0  0  0  0  0  0  0  0
    0.1290   -0.1390    0.4320 C   0  0  2  0  0  0  0  0  0  0  0  0
    0.2550    1.2730    0.4520 N   0  0  0  0  0  0  0  0  0  0  0  0
    1.4150   -0.7190    0.0490 C   0  0  0  0  0  0  0  0  0  0  0  0
    2.4240   -1.1580   -0.2640 N   0  0  0  0  0  0  0  0  0  0  0  0
  2  1  1  6
  2  3  1  0
  2  4  1  0
  4  5  3  0
M  END
