
     RDKit          3D

  5  4  0  0  0  0  0  0  0  0999 V2000
   -0.2770    1.3300   -0.2110 C   0  0  0  0  0  0  0  0  0  0  0  0
    0.0140    0.0440    0.3610 N   0  0  2  0  0  0  0  0  0  0  0  0
    1.3150   -0.4560    0.0390 C   0  0  0  0  0  0  0  0  0  0  0  0
   -0.9970   -0.8850   -0.1300 C   0  0  0  0  0  0  0  0  0  0  0  0
   -0.1370    0.1660    1.7120 O   0  0  0  0  0  0  0  0  0  0  0  0
  2  1  1  6
  2  3  1  0
  2  4  1  0
  2  5  1  0
M  CHG  2   2   1   5  -1
M  END
