
     RDKit          3D

  5  4  0  0  0  0  0  0  0  0999 V2000
    1.7240   -0.3110    0.1400 C   0  0  0  0  0  0  0  0  0  0  0  0
    0.6340    0.2100   -0.8060 C   0  0  0  0  0  0  0  0  0  0  0  0
   -0.5830    0.4480   -0.1260 N   0  0  0  0  0  0  0  0  0  0  0  0
   -1.4220   -0.5830    0.4070 C   0  0  0  0  0  0  0  0  0  0  0  0
   -0.9550    1.6270    0.0160 N   0  0  0  0  0  0  0  0  0  0  0  0
  1  2  1  0
  2  3  1  0
  3  4  1  0
  3  5  2  0
M  CHG  1   3   1
M  END
