
     RDKit          3D

  5  5  0  0  0  0  0  0  0  0999 V2000
    2.1250    0.0320    0.2560 N   0  0  0  0  0  0  0  0  0  0  0  0
    1.0350    0.5680   -0.0360 N   0  0  0  0  0  0  0  0  0  0  0  0
   -0.1230   -0.2510    0.1840 C   0  0  1  0  0  0  0  0  0  0  0  0
   -1.4040    0.4860   -0.0780 C   0  0  0  0  0  0  0  0  0  0  0  0
   -1.0210   -0.6210   -0.8870 C   0  0  0  0  0  0  0  0  0  0  0  0
  1  2  2  0
  3  2  1  6
  3  4  1  0
  3  5  1  0
  4  5  2  0
M  END
