
     RDKit          3D

 12 12  0  0  0  0  0  0  0  0999 V2000
    3.0910    1.1490   -0.3140 O   0  0  0  0  0  0  0  0  0  0  0  0
    2.6470    0.1310    0.5290 C   0  0  0  0  0  0  0  0  0  0  0  0
    1.5110   -0.6590   -0.0720 C   0  0  0  0  0  0  0  0  0  0  0  0
    0.2980    0.1800   -0.3800 C   0  0  1  0  0  0  0  0  0  0  0  0
   -0.7470   -0.7360   -0.9700 C   0  0  2  0  0  0  0  0  0  0  0  0
   -1.4280   -0.1010   -2.0360 O   0  0  0  0  0  0  0  0  0  0  0  0
   -1.8190   -1.0970    0.0410 C   0  0  2  0  0  0  0  0  0  0  0  0
   -2.7780   -1.8570   -0.5720 O   0  0  0  0  0  0  0  0  0  0  0  0
   -2.3920    0.1530    0.3800 O   0  0  0  0  0  0  0  0  0  0  0  0
   -1.5340    0.7460    1.2610 C   0  0  0  0  0  0  0  0  0  0  0  0
   -0.1670    1.0410    0.7150 C   0  0  2  0  0  0  0  0  0  0  0  0
   -0.1790    2.4120    0.3440 O   0  0  0  0  0  0  0  0  0  0  0  0
  1  2  1  0
  2  3  1  0
  4  3  1  1
  4  5  1  0
  4 11  1  0
  5  6  1  6
  5  7  1  0
  7  8  1  6
  7  9  1  0
  9 10  1  0
 10 11  1  0
 11 12  1  6
M  END
