
     RDKit          3D

 12 12  0  0  0  0  0  0  0  0999 V2000
    2.1420    1.9540    0.0920 O   0  0  0  0  0  0  0  0  0  0  0  0
    2.3270    0.7850    0.8240 C   0  0  0  0  0  0  0  0  0  0  0  0
    1.5840   -0.3410    0.1800 C   0  0  2  0  0  0  0  0  0  0  0  0
    2.0230   -0.5580   -1.1110 O   0  0  0  0  0  0  0  0  0  0  0  0
    0.1020   -0.2220    0.2310 C   0  0  1  0  0  0  0  0  0  0  0  0
   -0.4630    0.9870   -0.4330 C   0  0  0  0  0  0  0  0  0  0  0  0
   -1.9490    0.9570   -0.4870 C   0  0  2  0  0  0  0  0  0  0  0  0
   -2.4590    1.4920    0.7130 O   0  0  0  0  0  0  0  0  0  0  0  0
   -2.5230   -0.2310   -0.8200 O   0  0  0  0  0  0  0  0  0  0  0  0
   -1.9880   -1.3440   -0.1990 C   0  0  0  0  0  0  0  0  0  0  0  0
   -0.5040   -1.4370   -0.4850 C   0  0  2  0  0  0  0  0  0  0  0  0
    0.0380   -2.5560    0.1250 O   0  0  0  0  0  0  0  0  0  0  0  0
  1  2  1  0
  2  3  1  0
  3  4  1  6
  3  5  1  0
  5  6  1  6
  5 11  1  0
  6  7  1  0
  7  8  1  1
  7  9  1  0
  9 10  1  0
 10 11  1  0
 11 12  1  1
M  END
