
     RDKit          3D

 12 12  0  0  0  0  0  0  0  0999 V2000
   -2.7250    1.0560   -1.4370 O   0  0  0  0  0  0  0  0  0  0  0  0
   -1.5020    1.3120   -0.8310 C   0  0  0  0  0  0  0  0  0  0  0  0
   -0.9490    0.1400   -0.0860 C   0  0  2  0  0  0  0  0  0  0  0  0
   -1.9500   -0.3160    0.9740 C   0  0  0  0  0  0  0  0  0  0  0  0
   -2.1950    0.6930    1.9080 O   0  0  0  0  0  0  0  0  0  0  0  0
    0.3670    0.5070    0.5190 C   0  0  0  0  0  0  0  0  0  0  0  0
    1.2360   -0.6770    0.1360 C   0  0  2  0  0  0  0  0  0  0  0  0
    1.1920   -1.6350    1.1290 O   0  0  0  0  0  0  0  0  0  0  0  0
    2.6640   -0.2560   -0.1360 C   0  0  0  0  0  0  0  0  0  0  0  0
    3.2800    0.2770    0.9700 O   0  0  0  0  0  0  0  0  0  0  0  0
    0.5680   -1.1180   -1.1490 C   0  0  0  0  0  0  0  0  0  0  0  0
   -0.7690   -0.9020   -0.9530 O   0  0  0  0  0  0  0  0  0  0  0  0
  1  2  1  0
  3  2  1  6
  3  4  1  0
  3  6  1  0
  3 12  1  0
  4  5  1  0
  6  7  1  0
  7  8  1  1
  7  9  1  0
  7 11  1  0
  9 10  1  0
 11 12  1  0
M  END
