
     RDKit          3D

 11 11  0  0  0  0  0  0  0  0999 V2000
   -3.1000    0.1500   -0.0990 O   0  0  0  0  0  0  0  0  0  0  0  0
   -2.0940   -0.7260   -0.4900 C   0  0  0  0  0  0  0  0  0  0  0  0
   -0.7440   -0.2490    0.0310 C   0  0  2  0  0  0  0  0  0  0  0  0
   -0.8200   -0.2020    1.4290 O   0  0  0  0  0  0  0  0  0  0  0  0
   -0.4590    1.1180   -0.5550 C   0  0  0  0  0  0  0  0  0  0  0  0
    0.3230    1.8770    0.5210 C   0  0  0  0  0  0  0  0  0  0  0  0
    1.1360    0.9360    1.1470 O   0  0  0  0  0  0  0  0  0  0  0  0
    2.0940    0.3950    0.3380 C   0  0  0  0  0  0  0  0  0  0  0  0
    1.6570   -0.6890   -0.5630 C   0  0  0  0  0  0  0  0  0  0  0  0
    0.3140   -1.2550   -0.3260 C   0  0  1  0  0  0  0  0  0  0  0  0
    0.3100   -2.2870    0.6190 O   0  0  0  0  0  0  0  0  0  0  0  0
  1  2  1  0
  2  3  1  0
  3  4  1  1
  3  5  1  0
  3 10  1  0
  5  6  1  0
  6  7  1  0
  7  8  1  0
  8  9  1  0
  9 10  1  0
 10 11  1  1
M  END
