
     RDKit          3D

 39 43  0  0  0  0  0  0  0  0999 V2000
   -1.9230   -0.3830   -2.9560 C   0  0  0  0  0  0  0  0  0  0  0  0
   -1.9230    0.4640   -1.6990 C   0  0  1  0  0  0  0  0  0  0  0  0
   -2.4250   -0.3520   -0.5250 C   0  0  0  0  0  0  0  0  0  0  0  0
   -3.8100   -0.8370   -0.7620 C   0  0  0  0  0  0  0  0  0  0  0  0
   -4.4230   -0.5540   -1.8430 O   0  0  0  0  0  0  0  0  0  0  0  0
   -4.4770   -1.6230    0.2060 N   0  0  0  0  0  0  0  0  0  0  0  0
   -3.6660   -1.8640    1.3690 C   0  0  0  0  0  0  0  0  0  0  0  0
   -4.3110   -2.7180    2.4050 C   0  0  0  0  0  0  0  0  0  0  0  0
   -5.5320   -3.2500    2.0330 O   0  0  0  0  0  0  0  0  0  0  0  0
   -6.4920   -2.2350    2.2350 C   0  0  0  0  0  0  0  0  0  0  0  0
   -6.8360   -1.6840    0.8940 C   0  0  2  0  0  0  0  0  0  0  0  0
   -8.1460   -2.3350    0.4270 C   0  0  0  0  0  0  0  0  0  0  0  0
   -5.8080   -2.0140   -0.1650 C   0  0  0  0  0  0  0  0  0  0  0  0
   -0.5550    0.8690   -1.4440 N   0  0  0  0  0  0  0  0  0  0  0  0
    0.5550   -0.0370   -1.2580 C   0  0  0  0  0  0  0  0  0  0  0  0
    0.4880   -1.2850   -1.2900 O   0  0  0  0  0  0  0  0  0  0  0  0
    1.7280    0.7810   -1.0330 C   0  0  0  0  0  0  0  0  0  0  0  0
    2.9940    0.4130   -0.8100 C   0  0  0  0  0  0  0  0  0  0  0  0
    3.4250   -0.9570   -0.7540 C   0  0  0  0  0  0  0  0  0  0  0  0
    4.6900   -1.2600   -0.5310 C   0  0  0  0  0  0  0  0  0  0  0  0
    5.7350   -0.3510   -0.3280 N   0  0  0  0  0  0  0  0  0  0  0  0
    7.1010   -0.7380   -0.0880 C   0  0  0  0  0  0  0  0  0  0  0  0
    8.0830    0.2010    0.1040 C   0  0  0  0  0  0  0  0  0  0  0  0
    9.3860   -0.1930    0.3330 C   0  0  0  0  0  0  0  0  0  0  0  0
    9.7080   -1.5440    0.3700 C   0  0  0  0  0  0  0  0  0  0  0  0
    8.6880   -2.4480    0.1720 C   0  0  0  0  0  0  0  0  0  0  0  0
    7.3780   -2.0820   -0.0580 C   0  0  0  0  0  0  0  0  0  0  0  0
    6.3680   -3.0320   -0.2550 O   0  0  0  0  0  0  0  0  0  0  0  0
    5.0510   -2.7030   -0.4880 C   0  0  0  0  0  0  0  0  0  0  0  0
    4.1550   -3.5720   -0.6630 O   0  0  0  0  0  0  0  0  0  0  0  0
    1.2540    2.1230   -1.0980 N   0  0  0  0  0  0  0  0  0  0  0  0
    0.0070    2.1680   -1.3220 C   0  0  0  0  0  0  0  0  0  0  0  0
   -0.9470    3.6750   -1.4720 S   0  0  0  0  0  0  0  0  0  0  0  0
    0.1350    5.1090   -1.2520 C   0  0  0  0  0  0  0  0  0  0  0  0
    0.6850    5.2200    0.1030 C   0  0  0  0  0  0  0  0  0  0  0  0
    0.1230    5.8880    1.1600 C   0  0  0  0  0  0  0  0  0  0  0  0
    0.9730    5.7330    2.2350 C   0  0  0  0  0  0  0  0  0  0  0  0
    2.0180    4.9770    1.7900 C   0  0  0  0  0  0  0  0  0  0  0  0
    1.8060    4.7030    0.5430 O   0  0  0  0  0  0  0  0  0  0  0  0
  2  1  1  6
  2  3  1  0
  2 14  1  0
  3  4  1  0
  4  5  2  0
  4  6  1  0
  6  7  1  0
  6 13  1  0
  7  8  1  0
  8  9  1  0
  9 10  1  0
 10 11  1  0
 11 12  1  6
 11 13  1  0
 14 15  1  0
 14 32  1  0
 15 16  2  0
 15 17  1  0
 17 18  2  3
 17 31  1  0
 18 19  1  0
 19 20  2  3
 20 21  1  0
 20 29  1  0
 21 22  1  0
 22 23  2  0
 22 27  1  0
 23 24  1  0
 24 25  2  0
 25 26  1  0
 26 27  2  0
 27 28  1  0
 28 29  1  0
 29 30  2  0
 31 32  2  0
 32 33  1  0
 33 34  1  0
 34 35  1  0
 35 36  2  0
 35 39  1  0
 36 37  1  0
 37 38  2  0
 38 39  1  0
M  END
