
     RDKit          3D

 39 43  0  0  0  0  0  0  0  0999 V2000
   -7.5390   -2.2100   -1.2680 C   0  0  0  0  0  0  0  0  0  0  0  0
   -6.8180   -1.3400   -0.5880 C   0  0  0  0  0  0  0  0  0  0  0  0
   -6.6410   -1.1530    0.8300 C   0  0  0  0  0  0  0  0  0  0  0  0
   -7.1690   -1.8080    1.8280 C   0  0  0  0  0  0  0  0  0  0  0  0
   -8.1040   -2.9340    1.6960 C   0  0  0  0  0  0  0  0  0  0  0  0
   -5.6960   -0.0130    1.0570 C   0  0  0  0  0  0  0  0  0  0  0  0
   -5.2000    0.5600    2.2080 C   0  0  0  0  0  0  0  0  0  0  0  0
   -4.3220    1.6180    2.1280 C   0  0  0  0  0  0  0  0  0  0  0  0
   -3.9540    2.0880    0.8810 C   0  0  0  0  0  0  0  0  0  0  0  0
   -2.9970    3.2450    0.7800 C   0  0  0  0  0  0  0  0  0  0  0  0
   -2.7340    3.5770   -0.6650 C   0  0  0  0  0  0  0  0  0  0  0  0
   -2.1430    2.4690   -1.4160 C   0  0  0  0  0  0  0  0  0  0  0  0
   -1.8820    1.3640   -0.8850 O   0  0  0  0  0  0  0  0  0  0  0  0
   -1.8560    2.6270   -2.7600 O   0  0  0  0  0  0  0  0  0  0  0  0
   -1.2890    1.5580   -3.4750 C   0  0  0  0  0  0  0  0  0  0  0  0
    0.0080    1.2120   -2.8490 C   0  0  0  0  0  0  0  0  0  0  0  0
    0.7050    0.1170   -3.2190 N   0  0  0  0  0  0  0  0  0  0  0  0
    1.8870   -0.1740   -2.6350 C   0  0  0  0  0  0  0  0  0  0  0  0
    2.4240    0.6230   -1.6530 C   0  0  0  0  0  0  0  0  0  0  0  0
    3.6250    0.3380   -1.0510 O   0  0  0  0  0  0  0  0  0  0  0  0
    4.8610    0.7560   -1.5010 C   0  0  0  0  0  0  0  0  0  0  0  0
    4.9210    1.4530   -2.5410 O   0  0  0  0  0  0  0  0  0  0  0  0
    6.1100    0.4250   -0.8220 C   0  0  0  0  0  0  0  0  0  0  0  0
    7.3280    0.8590   -1.3130 C   0  0  0  0  0  0  0  0  0  0  0  0
    8.4880    0.5260   -0.6480 C   0  0  0  0  0  0  0  0  0  0  0  0
    8.3520   -0.2370    0.4920 C   0  0  0  0  0  0  0  0  0  0  0  0
    7.1980   -0.6680    0.9890 N   0  0  0  0  0  0  0  0  0  0  0  0
    6.0470   -0.3210    0.3010 C   0  0  0  0  0  0  0  0  0  0  0  0
    4.9100   -0.7070    0.7300 O   0  0  0  0  0  0  0  0  0  0  0  0
    7.2570   -1.4340    2.1990 C   0  0  0  0  0  0  0  0  0  0  0  0
    8.5380   -2.2330    2.2490 C   0  0  1  0  0  0  0  0  0  0  0  0
    8.5170   -3.4000    1.3100 C   0  0  0  0  0  0  0  0  0  0  0  0
    9.6360   -0.8880    1.5980 S   0  0  0  0  0  0  0  0  0  0  0  0
    1.7000    1.7330   -1.2910 C   0  0  0  0  0  0  0  0  0  0  0  0
    0.5040    2.0100   -1.8950 N   0  0  0  0  0  0  0  0  0  0  0  0
   -4.4590    1.5020   -0.2070 N   0  0  0  0  0  0  0  0  0  0  0  0
   -5.3330    0.4500   -0.1740 C   0  0  0  0  0  0  0  0  0  0  0  0
   -5.9740   -0.2940   -1.2690 C   0  0  1  0  0  0  0  0  0  0  0  0
   -5.0500   -0.8930   -2.1270 O   0  0  0  0  0  0  0  0  0  0  0  0
  1  2  2  0
  2  3  1  0
  2 38  1  0
  3  4  2  3
  3  6  1  0
  4  5  1  0
  6  7  2  0
  6 37  1  0
  7  8  1  0
  8  9  2  0
  9 10  1  0
  9 36  1  0
 10 11  1  0
 11 12  1  0
 12 13  2  0
 12 14  1  0
 14 15  1  0
 15 16  1  0
 16 17  2  0
 16 35  1  0
 17 18  1  0
 18 19  2  0
 19 20  1  0
 19 34  1  0
 20 21  1  0
 21 22  2  0
 21 23  1  0
 23 24  2  0
 23 28  1  0
 24 25  1  0
 25 26  2  0
 26 27  1  0
 26 33  1  0
 27 28  1  0
 27 30  1  0
 28 29  2  0
 30 31  1  0
 31 32  1  6
 31 33  1  0
 34 35  2  0
 36 37  2  0
 37 38  1  0
 38 39  1  6
M  END
