
     RDKit          3D

 39 43  0  0  0  0  0  0  0  0999 V2000
   -6.4550   -1.7380   -3.8490 C   0  0  0  0  0  0  0  0  0  0  0  0
   -6.0620   -1.1560   -2.4960 C   0  0  0  0  0  0  0  0  0  0  0  0
   -4.8670   -1.3260   -2.0410 C   0  0  0  0  0  0  0  0  0  0  0  0
   -4.3620   -0.8370   -0.7850 C   0  0  0  0  0  0  0  0  0  0  0  0
   -5.0420   -0.1950    0.2370 C   0  0  0  0  0  0  0  0  0  0  0  0
   -4.1260    0.1390    1.1950 C   0  0  0  0  0  0  0  0  0  0  0  0
   -2.8660   -0.2730    0.8210 N   0  0  0  0  0  0  0  0  0  0  0  0
   -1.7040   -0.0640    1.5840 C   0  0  0  0  0  0  0  0  0  0  0  0
   -1.8780    0.5440    2.7180 O   0  0  0  0  0  0  0  0  0  0  0  0
   -0.3160   -0.4080    1.3320 C   0  0  2  0  0  0  0  0  0  0  0  0
    0.5780   -0.0660    2.5350 C   0  0  0  0  0  0  0  0  0  0  0  0
    0.9780    1.3200    2.2270 C   0  0  0  0  0  0  0  0  0  0  0  0
    1.2100    2.1950    3.1010 O   0  0  0  0  0  0  0  0  0  0  0  0
    1.0470    1.4710    0.8240 N   0  0  0  0  0  0  0  0  0  0  0  0
    1.6560    2.5540    0.0780 C   0  0  0  0  0  0  0  0  0  0  0  0
    0.9800    3.4000   -0.7060 C   0  0  0  0  0  0  0  0  0  0  0  0
    1.6070    4.3870   -1.3790 C   0  0  0  0  0  0  0  0  0  0  0  0
    3.3420    4.1700   -0.9130 S   0  0  0  0  0  0  0  0  0  0  0  0
    3.0230    2.7440    0.1590 C   0  0  0  0  0  0  0  0  0  0  0  0
    4.0300    2.0370    0.8900 C   0  0  0  0  0  0  0  0  0  0  0  0
    5.2260    2.3810    0.8130 O   0  0  0  0  0  0  0  0  0  0  0  0
    3.6800    0.9710    1.6860 O   0  0  0  0  0  0  0  0  0  0  0  0
    4.6170    0.2320    2.4220 C   0  0  0  0  0  0  0  0  0  0  0  0
    5.6140   -0.4900    1.5760 C   0  0  0  0  0  0  0  0  0  0  0  0
    6.5500   -1.0780    2.1630 O   0  0  0  0  0  0  0  0  0  0  0  0
    5.5460   -0.5380    0.1820 N   0  0  0  0  0  0  0  0  0  0  0  0
    6.4100   -1.1670   -0.7310 C   0  0  0  0  0  0  0  0  0  0  0  0
    7.5800   -1.7540   -0.3460 C   0  0  0  0  0  0  0  0  0  0  0  0
    8.4020   -2.3760   -1.2850 C   0  0  0  0  0  0  0  0  0  0  0  0
    8.0790   -2.4200   -2.5880 N   0  0  0  0  0  0  0  0  0  0  0  0
    6.9310   -1.8440   -2.9690 C   0  0  0  0  0  0  0  0  0  0  0  0
    6.0950   -1.2240   -2.0870 C   0  0  0  0  0  0  0  0  0  0  0  0
    0.3710    0.3040    0.2340 C   0  0  0  0  0  0  0  0  0  0  0  0
   -3.0050   -0.8620   -0.3690 C   0  0  0  0  0  0  0  0  0  0  0  0
   -1.9910   -1.5030   -1.2300 C   0  0  0  0  0  0  0  0  0  0  0  0
   -4.6460    0.8460    2.3950 C   0  0  0  0  0  0  0  0  0  0  0  0
   -5.8620    0.2900    2.8020 O   0  0  0  0  0  0  0  0  0  0  0  0
   -6.8280    0.4320    1.8490 C   0  0  0  0  0  0  0  0  0  0  0  0
   -6.4650    0.1410    0.4450 C   0  0  0  0  0  0  0  0  0  0  0  0
  1  2  1  0
  2  3  2  3
  3  4  1  0
  4  5  1  0
  4 34  2  0
  5  6  2  0
  5 39  1  0
  6  7  1  0
  6 36  1  0
  7  8  1  0
  7 34  1  0
  8  9  2  0
 10  8  1  1
 10 11  1  0
 10 33  1  0
 11 12  1  0
 12 13  2  0
 12 14  1  0
 14 15  1  0
 14 33  1  0
 15 16  1  0
 15 19  2  0
 16 17  2  0
 17 18  1  0
 18 19  1  0
 19 20  1  0
 20 21  2  0
 20 22  1  0
 22 23  1  0
 23 24  1  0
 24 25  2  0
 24 26  1  0
 26 27  1  0
 27 28  2  0
 27 32  1  0
 28 29  1  0
 29 30  2  0
 30 31  1  0
 31 32  2  0
 34 35  1  0
 36 37  1  0
 37 38  1  0
 38 39  1  0
M  END
