
     RDKit          3D

 39 43  0  0  0  0  0  0  0  0999 V2000
   -7.9020    1.9280    0.2480 C   0  0  0  0  0  0  0  0  0  0  0  0
   -6.6040    1.5820   -0.4250 C   0  0  0  0  0  0  0  0  0  0  0  0
   -5.4980    2.4050   -0.3090 C   0  0  0  0  0  0  0  0  0  0  0  0
   -4.3160    2.0820   -0.9280 C   0  0  0  0  0  0  0  0  0  0  0  0
   -4.1770    0.9310   -1.6870 C   0  0  0  0  0  0  0  0  0  0  0  0
   -2.8880    0.5930   -2.3570 C   0  0  0  0  0  0  0  0  0  0  0  0
   -2.0570   -0.0140   -1.3940 O   0  0  0  0  0  0  0  0  0  0  0  0
   -0.7790   -0.4550   -1.6620 C   0  0  0  0  0  0  0  0  0  0  0  0
   -0.3090   -0.3230   -2.8130 O   0  0  0  0  0  0  0  0  0  0  0  0
    0.0760   -1.0920   -0.6160 C   0  0  2  0  0  0  0  0  0  0  0  0
    0.4780   -2.4850   -1.0100 C   0  0  0  0  0  0  0  0  0  0  0  0
   -0.6890   -1.1650    0.6010 N   0  0  0  0  0  0  0  0  0  0  0  0
   -1.8980   -1.9560    0.6220 C   0  0  0  0  0  0  0  0  0  0  0  0
   -0.2650   -0.4710    1.7580 C   0  0  0  0  0  0  0  0  0  0  0  0
   -0.9680   -0.5720    2.8190 O   0  0  0  0  0  0  0  0  0  0  0  0
    0.8530    0.3100    1.8210 O   0  0  0  0  0  0  0  0  0  0  0  0
    1.3450    1.0250    2.8870 C   0  0  0  0  0  0  0  0  0  0  0  0
    1.7760    0.2170    4.0560 C   0  0  1  0  0  0  0  0  0  0  0  0
    0.8300   -0.6110    4.6170 O   0  0  0  0  0  0  0  0  0  0  0  0
    3.0780   -0.4830    3.8880 C   0  0  0  0  0  0  0  0  0  0  0  0
    3.1580   -1.4230    2.8030 N   0  0  0  0  0  0  0  0  0  0  0  0
    2.8750   -2.7120    2.9170 N   0  0  0  0  0  0  0  0  0  0  0  0
    3.0630   -3.3270    1.7300 C   0  0  0  0  0  0  0  0  0  0  0  0
    3.4870   -2.3520    0.8360 C   0  0  0  0  0  0  0  0  0  0  0  0
    3.8290   -2.3740   -0.5050 C   0  0  0  0  0  0  0  0  0  0  0  0
    4.2170   -1.2120   -1.1280 C   0  0  0  0  0  0  0  0  0  0  0  0
    4.5880   -0.9220   -2.3450 O   0  0  0  0  0  0  0  0  0  0  0  0
    4.8740    0.3480   -2.4950 C   0  0  0  0  0  0  0  0  0  0  0  0
    4.6830    0.9730   -1.2840 C   0  0  0  0  0  0  0  0  0  0  0  0
    4.2680   -0.0170   -0.4250 C   0  0  0  0  0  0  0  0  0  0  0  0
    3.9220   -0.0600    0.8830 N   0  0  0  0  0  0  0  0  0  0  0  0
    3.5380   -1.1740    1.5260 C   0  0  0  0  0  0  0  0  0  0  0  0
    4.9000    2.4020   -1.0490 C   0  0  0  0  0  0  0  0  0  0  0  0
    6.1580    2.9370   -1.6380 C   0  0  0  0  0  0  0  0  0  0  0  0
    6.5460    2.3190   -3.2700 S   0  0  0  0  0  0  0  0  0  0  0  0
    5.3260    1.0640   -3.7060 C   0  0  0  0  0  0  0  0  0  0  0  0
   -5.2820    0.1180   -1.7980 C   0  0  0  0  0  0  0  0  0  0  0  0
   -6.4660    0.4370   -1.1810 C   0  0  0  0  0  0  0  0  0  0  0  0
   -7.6360   -0.4490   -1.3200 C   0  0  0  0  0  0  0  0  0  0  0  0
  1  2  1  0
  2  3  2  0
  2 38  1  0
  3  4  1  0
  4  5  2  0
  5  6  1  0
  5 37  1  0
  6  7  1  0
  7  8  1  0
  8  9  2  0
  8 10  1  0
 10 11  1  6
 10 12  1  0
 12 13  1  0
 12 14  1  0
 14 15  2  0
 14 16  1  0
 16 17  1  0
 17 18  1  0
 18 19  1  6
 18 20  1  0
 20 21  1  0
 21 22  1  0
 21 32  1  0
 22 23  2  0
 23 24  1  0
 24 25  2  0
 24 32  1  0
 25 26  1  0
 26 27  1  0
 26 30  2  0
 27 28  1  0
 28 29  2  0
 28 36  1  0
 29 30  1  0
 29 33  1  0
 30 31  1  0
 31 32  2  0
 33 34  1  0
 34 35  1  0
 35 36  1  0
 37 38  2  0
 38 39  1  0
M  END
