
     RDKit          3D

 45 50  0  0  0  0  0  0  0  0999 V2000
   -5.0270    2.0570   -2.7540 O   0  0  0  0  0  0  0  0  0  0  0  0
   -3.6700    1.9960   -2.4320 C   0  0  0  0  0  0  0  0  0  0  0  0
   -3.0290    0.8910   -3.2380 C   0  0  1  0  0  0  0  0  0  0  0  0
   -1.6800    0.8450   -2.9200 O   0  0  0  0  0  0  0  0  0  0  0  0
   -1.1620   -0.4440   -2.9970 C   0  0  1  0  0  0  0  0  0  0  0  0
    0.6220   -0.3820   -2.9140 S   0  0  0  0  0  0  0  0  0  0  0  0
    1.2230    0.1950   -1.3100 C   0  0  2  0  0  0  0  0  0  0  0  0
    0.8940    1.5180   -1.0610 O   0  0  0  0  0  0  0  0  0  0  0  0
    1.0310    1.7540    0.2820 C   0  0  2  0  0  0  0  0  0  0  0  0
    0.7550    3.2460    0.5020 C   0  0  0  0  0  0  0  0  0  0  0  0
   -0.5480    3.5550    0.0750 O   0  0  0  0  0  0  0  0  0  0  0  0
    2.3740    1.4590    0.8510 C   0  0  2  0  0  0  0  0  0  0  0  0
    3.1430    2.6300    0.8300 O   0  0  0  0  0  0  0  0  0  0  0  0
    3.0850    0.2960    0.2510 C   0  0  2  0  0  0  0  0  0  0  0  0
    4.5240    0.4700    0.3080 N   0  0  0  0  0  0  0  0  0  0  0  0
    5.3830   -0.5090    0.6330 C   0  0  0  0  0  0  0  0  0  0  0  0
    6.6660    0.0100    0.5880 C   0  0  0  0  0  0  0  0  0  0  0  0
    7.8560   -0.7740    0.8850 C   0  0  0  0  0  0  0  0  0  0  0  0
    9.1070   -0.2180    0.8270 C   0  0  0  0  0  0  0  0  0  0  0  0
   10.2750   -0.9240    1.1010 C   0  0  0  0  0  0  0  0  0  0  0  0
   10.1400   -2.2710    1.4520 C   0  0  0  0  0  0  0  0  0  0  0  0
    8.9000   -2.8570    1.5180 C   0  0  0  0  0  0  0  0  0  0  0  0
    8.8120   -4.1570    1.8590 F   0  0  0  0  0  0  0  0  0  0  0  0
    7.7800   -2.1080    1.2360 C   0  0  0  0  0  0  0  0  0  0  0  0
    6.5460    1.2850    0.2370 N   0  0  0  0  0  0  0  0  0  0  0  0
    5.2570    1.5240    0.0790 N   0  0  0  0  0  0  0  0  0  0  0  0
    2.7280    0.0790   -1.2040 C   0  0  1  0  0  0  0  0  0  0  0  0
    3.1860   -1.1590   -1.6300 O   0  0  0  0  0  0  0  0  0  0  0  0
   -1.7790   -1.1940   -1.8280 C   0  0  2  0  0  0  0  0  0  0  0  0
   -1.0960   -2.4080   -1.6870 O   0  0  0  0  0  0  0  0  0  0  0  0
   -3.2340   -1.4040   -2.1900 C   0  0  1  0  0  0  0  0  0  0  0  0
   -3.9660   -1.5050   -0.9570 N   0  0  0  0  0  0  0  0  0  0  0  0
   -4.8890   -0.7400   -0.3780 C   0  0  0  0  0  0  0  0  0  0  0  0
   -5.2720   -1.2940    0.8160 C   0  0  0  0  0  0  0  0  0  0  0  0
   -6.2530   -0.7790    1.7580 C   0  0  0  0  0  0  0  0  0  0  0  0
   -6.9260    0.3890    1.5100 C   0  0  0  0  0  0  0  0  0  0  0  0
   -7.8580    0.8870    2.3970 C   0  0  0  0  0  0  0  0  0  0  0  0
   -8.1480    0.2280    3.5680 C   0  0  0  0  0  0  0  0  0  0  0  0
   -7.4840   -0.9540    3.8460 C   0  0  0  0  0  0  0  0  0  0  0  0
   -7.7180   -1.6620    4.9850 F   0  0  0  0  0  0  0  0  0  0  0  0
   -6.5540   -1.4330    2.9400 C   0  0  0  0  0  0  0  0  0  0  0  0
   -4.5430   -2.4150    0.9210 N   0  0  0  0  0  0  0  0  0  0  0  0
   -3.7730   -2.5410   -0.1230 N   0  0  0  0  0  0  0  0  0  0  0  0
   -3.7300   -0.4200   -3.1660 C   0  0  1  0  0  0  0  0  0  0  0  0
   -5.1030   -0.1700   -3.0880 O   0  0  0  0  0  0  0  0  0  0  0  0
  1  2  1  0
  3  2  1  1
  3  4  1  0
  3 44  1  0
  4  5  1  0
  5  6  1  1
  5 29  1  0
  7  6  1  6
  7  8  1  0
  7 27  1  0
  8  9  1  0
  9 10  1  6
  9 12  1  0
 10 11  1  0
 12 13  1  6
 12 14  1  0
 14 15  1  6
 14 27  1  0
 15 16  1  0
 15 26  1  0
 16 17  2  0
 17 18  1  0
 17 25  1  0
 18 19  2  0
 18 24  1  0
 19 20  1  0
 20 21  2  0
 21 22  1  0
 22 23  1  0
 22 24  2  0
 25 26  2  0
 27 28  1  1
 29 30  1  6
 29 31  1  0
 31 32  1  1
 31 44  1  0
 32 33  1  0
 32 43  1  0
 33 34  2  0
 34 35  1  0
 34 42  1  0
 35 36  2  0
 35 41  1  0
 36 37  1  0
 37 38  2  0
 38 39  1  0
 39 40  1  0
 39 41  2  0
 42 43  2  0
 44 45  1  1
M  END
