
     RDKit          3D

 22 24  0  0  0  0  0  0  0  0999 V2000
    6.9430   -0.9700    3.3110 C   0  0  0  0  0  0  0  0  0  0  0  0
    6.5460   -0.9850    2.0670 C   0  0  0  0  0  0  0  0  0  0  0  0
    5.1640   -0.7410    1.7360 C   0  0  0  0  0  0  0  0  0  0  0  0
    4.7190   -0.7470    0.4570 C   0  0  0  0  0  0  0  0  0  0  0  0
    3.3580   -0.5140    0.0440 C   0  0  0  0  0  0  0  0  0  0  0  0
    3.1730   -0.1160   -1.1710 C   0  0  0  0  0  0  0  0  0  0  0  0
    1.9300    0.1890   -1.8330 C   0  0  0  0  0  0  0  0  0  0  0  0
    1.7070    0.6030   -3.0930 N   0  0  0  0  0  0  0  0  0  0  0  0
    0.4090    0.7600   -3.2590 N   0  0  0  0  0  0  0  0  0  0  0  0
   -0.2530    0.4590   -2.1290 C   0  0  0  0  0  0  0  0  0  0  0  0
   -1.7140    0.5020   -1.8680 C   0  0  0  0  0  0  0  0  0  0  0  0
   -2.0390   -0.1380   -0.6100 N   0  0  0  0  0  0  0  0  0  0  0  0
   -1.5940   -1.5420   -0.6620 C   0  0  0  0  0  0  0  0  0  0  0  0
   -3.4790   -0.1840   -0.4900 C   0  0  0  0  0  0  0  0  0  0  0  0
   -4.0470    1.1810   -0.3000 C   0  0  1  0  0  0  0  0  0  0  0  0
   -5.5730    1.1200   -0.1210 C   0  0  0  0  0  0  0  0  0  0  0  0
   -5.6850    1.0020    1.3620 C   0  0  0  0  0  0  0  0  0  0  0  0
   -4.4330    1.6430    1.8700 C   0  0  0  0  0  0  0  0  0  0  0  0
   -3.5750    1.8270    0.8230 O   0  0  0  0  0  0  0  0  0  0  0  0
    0.7020    0.1080   -1.2590 N   0  0  0  0  0  0  0  0  0  0  0  0
    4.7700   -0.0150   -1.9550 S   0  0  0  0  0  0  0  0  0  0  0  0
    5.6600   -1.0040   -0.6670 C   0  0  0  0  0  0  0  0  0  0  0  0
  1  2  2  0
  2  3  1  0
  3  4  2  3
  4  5  1  0
  4 22  1  0
  5  6  2  0
  6  7  1  0
  6 21  1  0
  7  8  2  0
  7 20  1  0
  8  9  1  0
  9 10  1  0
 10 11  1  0
 10 20  2  0
 11 12  1  0
 12 13  1  0
 12 14  1  0
 15 14  1  1
 15 16  1  0
 15 19  1  0
 16 17  1  0
 17 18  1  0
 18 19  1  0
 21 22  1  0
M  END
