
     RDKit          3D

 22 24  0  0  0  0  0  0  0  0999 V2000
   -5.6490   -0.4350    1.2330 C   0  0  0  0  0  0  0  0  0  0  0  0
   -4.7460    0.3880    0.2900 C   0  0  2  0  0  0  0  0  0  0  0  0
   -5.6350    0.5780   -0.9370 C   0  0  0  0  0  0  0  0  0  0  0  0
   -3.2740   -0.2700    0.1830 S   0  0  0  0  0  0  0  0  0  0  0  0
   -3.1710   -0.3080   -1.4200 C   0  0  0  0  0  0  0  0  0  0  0  0
   -3.0300   -0.2900    1.6580 O   0  0  0  0  0  0  0  0  0  0  0  0
   -1.9080    0.8490    0.1800 N   0  0  0  0  0  0  0  0  0  0  0  0
   -0.6020    0.4310    0.3190 C   0  0  0  0  0  0  0  0  0  0  0  0
    0.4020    1.3770    0.2970 C   0  0  0  0  0  0  0  0  0  0  0  0
    1.7580    1.0630    0.4310 C   0  0  0  0  0  0  0  0  0  0  0  0
    2.1340   -0.2320    0.5910 C   0  0  0  0  0  0  0  0  0  0  0  0
    3.4770   -0.7310    0.6780 C   0  0  0  0  0  0  0  0  0  0  0  0
    3.7690   -1.9890    1.1820 N   0  0  0  0  0  0  0  0  0  0  0  0
    5.0280   -2.2440    1.1390 N   0  0  0  0  0  0  0  0  0  0  0  0
    5.6030   -1.1360    0.5920 C   0  0  0  0  0  0  0  0  0  0  0  0
    6.9320   -0.9150    0.3200 C   0  0  0  0  0  0  0  0  0  0  0  0
    7.2930    0.2820   -0.2590 C   0  0  0  0  0  0  0  0  0  0  0  0
    6.3240    1.1980   -0.5390 C   0  0  0  0  0  0  0  0  0  0  0  0
    4.9850    0.9500   -0.2520 C   0  0  0  0  0  0  0  0  0  0  0  0
    4.6440   -0.2230    0.3150 N   0  0  0  0  0  0  0  0  0  0  0  0
    1.1040   -1.1940    0.6140 C   0  0  0  0  0  0  0  0  0  0  0  0
   -0.2300   -0.8720    0.4820 C   0  0  0  0  0  0  0  0  0  0  0  0
  2  1  1  1
  2  3  1  0
  2  4  1  0
  4  5  1  0
  4  6  2  0
  4  7  1  0
  7  8  1  0
  8  9  2  0
  8 22  1  0
  9 10  1  0
 10 11  2  0
 11 12  1  0
 11 21  1  0
 12 13  2  0
 12 20  1  0
 13 14  1  0
 14 15  2  0
 15 16  1  0
 15 20  1  0
 16 17  2  0
 17 18  1  0
 18 19  2  0
 19 20  1  0
 21 22  2  0
M  END
