
     RDKit          3D

 22 24  0  0  0  0  0  0  0  0999 V2000
   -4.6310   -1.9520    0.8840 C   0  0  0  0  0  0  0  0  0  0  0  0
   -3.1850   -1.5900    1.1340 C   0  0  0  0  0  0  0  0  0  0  0  0
   -2.7450   -0.5060    0.2760 N   0  0  0  0  0  0  0  0  0  0  0  0
   -3.3550    0.7530    0.5660 C   0  0  0  0  0  0  0  0  0  0  0  0
   -2.3640    1.8790    0.7700 C   0  0  0  0  0  0  0  0  0  0  0  0
   -1.2810    1.8550   -0.2910 C   0  0  0  0  0  0  0  0  0  0  0  0
   -0.8350    2.8570   -1.0270 C   0  0  0  0  0  0  0  0  0  0  0  0
   -1.3000    4.3050   -1.0010 C   0  0  0  0  0  0  0  0  0  0  0  0
    0.3930    2.1360   -2.0200 S   0  0  0  0  0  0  0  0  0  0  0  0
    0.2420    0.5090   -1.3890 C   0  0  0  0  0  0  0  0  0  0  0  0
    0.9840   -0.6460   -1.7960 N   0  0  0  0  0  0  0  0  0  0  0  0
    2.0890   -1.0450   -1.3580 C   0  0  0  0  0  0  0  0  0  0  0  0
    2.5920   -2.2360   -1.9560 O   0  0  0  0  0  0  0  0  0  0  0  0
    1.6050   -3.0860   -2.5380 C   0  0  0  0  0  0  0  0  0  0  0  0
    2.9200   -0.4470   -0.3200 C   0  0  0  0  0  0  0  0  0  0  0  0
    4.1600   -0.9590    0.1110 C   0  0  0  0  0  0  0  0  0  0  0  0
    4.6350   -0.1280    1.0950 C   0  0  0  0  0  0  0  0  0  0  0  0
    5.9300   -0.3240    1.8160 C   0  0  0  0  0  0  0  0  0  0  0  0
    3.7280    0.8380    1.2510 N   0  0  0  0  0  0  0  0  0  0  0  0
    2.7090    0.6530    0.4140 N   0  0  0  0  0  0  0  0  0  0  0  0
   -0.7320    0.6350   -0.4670 C   0  0  0  0  0  0  0  0  0  0  0  0
   -1.2900   -0.4540    0.4010 C   0  0  0  0  0  0  0  0  0  0  0  0
  1  2  1  0
  2  3  1  0
  3  4  1  0
  3 22  1  0
  4  5  1  0
  5  6  1  0
  6  7  2  0
  6 21  1  0
  7  8  1  0
  7  9  1  0
  9 10  1  0
 10 11  1  0
 10 21  2  0
 11 12  2  3
 12 13  1  0
 12 15  1  0
 13 14  1  0
 15 16  2  0
 15 20  1  0
 16 17  1  0
 17 18  1  0
 17 19  2  0
 19 20  1  0
 21 22  1  0
M  END
