
     RDKit          3D

 22 24  0  0  0  0  0  0  0  0999 V2000
   -3.9090    2.2230   -0.8950 C   0  0  0  0  0  0  0  0  0  0  0  0
   -3.6790    1.0020   -0.0640 C   0  0  0  0  0  0  0  0  0  0  0  0
   -3.5860   -0.2040   -1.0020 C   0  0  0  0  0  0  0  0  0  0  0  0
   -3.3540   -1.4540   -0.2610 C   0  0  0  0  0  0  0  0  0  0  0  0
   -4.3900   -2.3270   -0.0420 N   0  0  0  0  0  0  0  0  0  0  0  0
   -3.8980   -3.3380    0.6460 C   0  0  0  0  0  0  0  0  0  0  0  0
   -2.5950   -3.1320    0.8650 N   0  0  0  0  0  0  0  0  0  0  0  0
   -2.2160   -1.9400    0.3000 C   0  0  0  0  0  0  0  0  0  0  0  0
   -0.8860   -1.4390    0.3500 C   0  0  0  0  0  0  0  0  0  0  0  0
   -0.3560   -0.3620   -0.1520 C   0  0  0  0  0  0  0  0  0  0  0  0
    1.0200    0.0880   -0.0760 C   0  0  0  0  0  0  0  0  0  0  0  0
    1.1120    1.4510    0.0690 N   0  0  0  0  0  0  0  0  0  0  0  0
    2.2740    2.0900    0.1470 C   0  0  0  0  0  0  0  0  0  0  0  0
    2.3500    3.5750    0.3050 C   0  0  0  0  0  0  0  0  0  0  0  0
    3.3970    1.2960    0.0740 C   0  0  0  0  0  0  0  0  0  0  0  0
    3.2950   -0.1030   -0.0790 C   0  0  0  0  0  0  0  0  0  0  0  0
    4.4490   -0.8770   -0.2090 C   0  0  0  0  0  0  0  0  0  0  0  0
    5.8900   -0.4960   -0.1600 C   0  0  0  0  0  0  0  0  0  0  0  0
    3.8830   -2.4450   -0.4470 S   0  0  0  0  0  0  0  0  0  0  0  0
    2.1280   -2.0220   -0.3650 C   0  0  0  0  0  0  0  0  0  0  0  0
    1.2190   -2.9190   -0.5080 O   0  0  0  0  0  0  0  0  0  0  0  0
    2.1400   -0.6970   -0.1550 N   0  0  0  0  0  0  0  0  0  0  0  0
  1  2  1  0
  2  3  1  0
  3  4  1  0
  4  5  1  0
  4  8  2  0
  5  6  2  0
  6  7  1  0
  7  8  1  0
  8  9  1  0
  9 10  2  3
 10 11  1  0
 11 12  2  0
 11 22  1  0
 12 13  1  0
 13 14  1  0
 13 15  2  0
 15 16  1  0
 16 17  2  0
 16 22  1  0
 17 18  1  0
 17 19  1  0
 19 20  1  0
 20 21  2  0
 20 22  1  0
M  END
