
     RDKit          3D

 22 24  0  0  0  0  0  0  0  0999 V2000
    6.6100    0.7340    1.6580 C   0  0  0  0  0  0  0  0  0  0  0  0
    5.3300    0.3680    2.2870 C   0  0  0  0  0  0  0  0  0  0  0  0
    4.2650    0.1300    1.5380 C   0  0  0  0  0  0  0  0  0  0  0  0
    2.9840   -0.2340    2.1170 C   0  0  0  0  0  0  0  0  0  0  0  0
    1.9570   -0.4610    1.3450 C   0  0  0  0  0  0  0  0  0  0  0  0
    2.0640   -0.3550   -0.1480 C   0  0  2  0  0  0  0  0  0  0  0  0
    2.2530    1.0550   -0.6080 C   0  0  0  0  0  0  0  0  0  0  0  0
    0.9090   -1.0210   -0.8060 C   0  0  0  0  0  0  0  0  0  0  0  0
    0.9060   -2.1090   -1.5960 N   0  0  0  0  0  0  0  0  0  0  0  0
   -0.3350   -2.3830   -1.9830 N   0  0  0  0  0  0  0  0  0  0  0  0
   -1.1520   -1.4540   -1.4330 C   0  0  0  0  0  0  0  0  0  0  0  0
   -2.4300   -1.0250   -1.3170 N   0  0  0  0  0  0  0  0  0  0  0  0
   -2.4890    0.0690   -0.5330 C   0  0  0  0  0  0  0  0  0  0  0  0
   -3.5550    0.7470   -0.2030 C   0  0  0  0  0  0  0  0  0  0  0  0
   -4.8940    0.3810   -0.6710 C   0  0  0  0  0  0  0  0  0  0  0  0
   -6.0240    0.1580    0.0080 C   0  0  0  0  0  0  0  0  0  0  0  0
   -7.1480   -0.1700   -0.6470 C   0  0  0  0  0  0  0  0  0  0  0  0
   -7.1410   -0.2750   -2.0000 C   0  0  0  0  0  0  0  0  0  0  0  0
   -5.4020    0.1230   -2.3680 S   0  0  0  0  0  0  0  0  0  0  0  0
   -1.1860    0.3130   -0.1580 C   0  0  0  0  0  0  0  0  0  0  0  0
   -0.7600    1.2560    0.5910 O   0  0  0  0  0  0  0  0  0  0  0  0
   -0.3760   -0.6190   -0.7100 N   0  0  0  0  0  0  0  0  0  0  0  0
  1  2  1  0
  2  3  2  3
  3  4  1  0
  4  5  2  3
  5  6  1  0
  6  7  1  1
  6  8  1  0
  8  9  2  0
  8 22  1  0
  9 10  1  0
 10 11  2  0
 11 12  1  0
 11 22  1  0
 12 13  1  0
 13 14  2  3
 13 20  1  0
 14 15  1  0
 15 16  2  0
 15 19  1  0
 16 17  1  0
 17 18  2  0
 18 19  1  0
 20 21  2  0
 20 22  1  0
M  END
