
     RDKit          3D

 22 24  0  0  0  0  0  0  0  0999 V2000
   -3.1780   -2.7920   -0.1590 C   0  0  0  0  0  0  0  0  0  0  0  0
   -3.7690   -1.5250   -0.5110 N   0  0  0  0  0  0  0  0  0  0  0  0
   -5.1100   -1.4170   -0.7990 C   0  0  0  0  0  0  0  0  0  0  0  0
   -5.4170   -0.1010   -1.0590 C   0  0  0  0  0  0  0  0  0  0  0  0
   -4.2730    0.5650   -0.9280 N   0  0  0  0  0  0  0  0  0  0  0  0
   -3.2550   -0.3010   -0.5930 C   0  0  0  0  0  0  0  0  0  0  0  0
   -1.8530    0.1580   -0.4420 C   0  0  0  0  0  0  0  0  0  0  0  0
   -0.8550   -0.6420   -0.3850 C   0  0  0  0  0  0  0  0  0  0  0  0
    0.5650   -0.4230   -0.2430 C   0  0  0  0  0  0  0  0  0  0  0  0
    1.4340   -1.4340   -0.2020 C   0  0  0  0  0  0  0  0  0  0  0  0
    2.8500   -1.1700   -0.0580 C   0  0  0  0  0  0  0  0  0  0  0  0
    3.3270    0.0140    0.0350 N   0  0  0  0  0  0  0  0  0  0  0  0
    4.7200    0.2090    0.1740 C   0  0  0  0  0  0  0  0  0  0  0  0
    5.6060   -0.6100    0.8380 C   0  0  0  0  0  0  0  0  0  0  0  0
    6.8370   -0.0260    0.7100 C   0  0  0  0  0  0  0  0  0  0  0  0
    6.7190    1.0870    0.0090 O   0  0  0  0  0  0  0  0  0  0  0  0
    5.4610    1.2570   -0.3270 C   0  0  0  0  0  0  0  0  0  0  0  0
   -1.7360    1.6040   -0.3080 C   0  0  0  0  0  0  0  0  0  0  0  0
   -2.4690    2.5180   -0.3790 N   0  0  0  0  0  0  0  0  0  0  0  0
   -2.2390    3.7890   -0.2000 C   0  0  0  0  0  0  0  0  0  0  0  0
   -0.9360    4.0790    0.1190 C   0  0  0  0  0  0  0  0  0  0  0  0
   -0.1510    2.4880    0.1320 S   0  0  0  0  0  0  0  0  0  0  0  0
  1  2  1  0
  2  3  1  0
  2  6  1  0
  3  4  2  0
  4  5  1  0
  5  6  2  0
  6  7  1  0
  7  8  2  3
  7 18  1  0
  8  9  1  0
  9 10  2  3
 10 11  1  0
 11 12  2  3
 12 13  1  0
 13 14  1  0
 13 17  2  0
 14 15  2  0
 15 16  1  0
 16 17  1  0
 18 19  2  0
 18 22  1  0
 19 20  1  0
 20 21  2  0
 21 22  1  0
M  END
