
     RDKit          3D

 22 24  0  0  0  0  0  0  0  0999 V2000
   -3.6540    2.7240    1.2960 C   0  0  0  0  0  0  0  0  0  0  0  0
   -4.3360    1.8780    0.6000 N   0  0  0  0  0  0  0  0  0  0  0  0
   -3.7830    0.6140    0.3140 C   0  0  0  0  0  0  0  0  0  0  0  0
   -4.6170   -0.3940    0.3690 C   0  0  0  0  0  0  0  0  0  0  0  0
   -4.3250   -1.8470    0.1160 C   0  0  0  0  0  0  0  0  0  0  0  0
   -3.1510   -2.2880    0.9650 C   0  0  0  0  0  0  0  0  0  0  0  0
   -1.8610   -1.6770    0.5060 C   0  0  0  0  0  0  0  0  0  0  0  0
   -1.6880   -0.3100    0.8680 N   0  0  0  0  0  0  0  0  0  0  0  0
   -0.3780    0.0450    1.2850 C   0  0  0  0  0  0  0  0  0  0  0  0
    0.6160   -0.0130    0.1810 C   0  0  0  0  0  0  0  0  0  0  0  0
    0.2760   -0.3510   -1.0010 O   0  0  0  0  0  0  0  0  0  0  0  0
    1.9710    0.3010    0.3890 N   0  0  0  0  0  0  0  0  0  0  0  0
    2.9380    0.2530   -0.6460 C   0  0  0  0  0  0  0  0  0  0  0  0
    2.5130   -0.1080   -1.8650 N   0  0  0  0  0  0  0  0  0  0  0  0
    3.3450   -0.1860   -2.9200 C   0  0  0  0  0  0  0  0  0  0  0  0
    4.6660    0.1220   -2.6980 C   0  0  0  0  0  0  0  0  0  0  0  0
    5.1500    0.5060   -1.4270 C   0  0  0  0  0  0  0  0  0  0  0  0
    6.4780    0.8210   -1.1800 C   0  0  0  0  0  0  0  0  0  0  0  0
    6.5000    1.2210    0.5580 S   0  0  0  0  0  0  0  0  0  0  0  0
    4.7470    0.9430    0.8350 C   0  0  0  0  0  0  0  0  0  0  0  0
    4.2990    0.5750   -0.3970 C   0  0  0  0  0  0  0  0  0  0  0  0
   -2.3440    0.6110   -0.0070 C   0  0  0  0  0  0  0  0  0  0  0  0
  1  2  2  0
  2  3  1  0
  3  4  2  0
  3 22  1  0
  4  5  1  0
  5  6  1  0
  6  7  1  0
  7  8  1  0
  8  9  1  0
  8 22  1  0
  9 10  1  0
 10 11  2  0
 10 12  1  0
 12 13  1  0
 13 14  2  0
 13 21  1  0
 14 15  1  0
 15 16  2  0
 16 17  1  0
 17 18  2  0
 17 21  1  0
 18 19  1  0
 19 20  1  0
 20 21  2  0
M  END
