
     RDKit          3D

 11 11  0  0  0  0  0  0  0  0999 V2000
   -2.2320    1.4570   -0.4880 N   0  0  0  0  0  0  0  0  0  0  0  0
   -1.6980    0.6080    0.5440 C   0  0  1  0  0  0  0  0  0  0  0  0
   -2.6450   -0.4420    1.0110 C   0  0  0  0  0  0  0  0  0  0  0  0
   -2.4410   -1.4850    0.0950 O   0  0  0  0  0  0  0  0  0  0  0  0
   -1.0350   -1.6080    0.1320 C   0  0  0  0  0  0  0  0  0  0  0  0
   -0.5230   -0.2240   -0.0410 C   0  0  2  0  0  0  0  0  0  0  0  0
    0.5170    0.0450    0.8030 O   0  0  0  0  0  0  0  0  0  0  0  0
    1.6590    0.5270    0.4580 C   0  0  0  0  0  0  0  0  0  0  0  0
    2.7290   -0.3340   -0.2190 C   0  0  0  0  0  0  0  0  0  0  0  0
    3.8190    0.5520   -0.2290 O   0  0  0  0  0  0  0  0  0  0  0  0
    4.8020    0.0500    0.4620 O   0  0  0  0  0  0  0  0  0  0  0  0
  2  1  1  6
  2  3  1  0
  2  6  1  0
  3  4  1  0
  4  5  1  0
  5  6  1  0
  6  7  1  1
  7  8  1  0
  8  9  1  0
  9 10  1  0
 10 11  1  0
M  CHG  1   1   1
M  END
