
     RDKit          3D

 11 11  0  0  0  0  0  0  0  0999 V2000
   -1.4020    1.3640   -0.7310 N   0  0  0  0  0  0  0  0  0  0  0  0
   -1.2940   -0.0420   -0.9400 C   0  0  2  0  0  0  0  0  0  0  0  0
   -2.6000   -0.5150   -1.2680 O   0  0  0  0  0  0  0  0  0  0  0  0
   -2.8550   -1.5330   -0.3680 C   0  0  0  0  0  0  0  0  0  0  0  0
   -2.1940   -1.1290    0.8100 O   0  0  0  0  0  0  0  0  0  0  0  0
   -0.9110   -0.8690    0.2110 C   0  0  2  0  0  0  0  0  0  0  0  0
    0.0170   -0.3520    1.2290 C   0  0  0  0  0  0  0  0  0  0  0  0
    1.2670   -0.1110    0.8170 O   0  0  0  0  0  0  0  0  0  0  0  0
    1.6190    0.7850   -0.1020 C   0  0  0  0  0  0  0  0  0  0  0  0
    3.1760    0.7340   -0.1910 C   0  0  0  0  0  0  0  0  0  0  0  0
    3.5640   -0.5520   -0.5640 O   0  0  0  0  0  0  0  0  0  0  0  0
  2  1  1  1
  2  3  1  0
  2  6  1  0
  3  4  1  0
  4  5  1  0
  5  6  1  0
  6  7  1  1
  7  8  1  0
  8  9  1  0
  9 10  1  0
 10 11  1  0
M  CHG  1   1   1
M  END
