
     RDKit          3D

 11 11  0  0  0  0  0  0  0  0999 V2000
   -1.2080    2.0480   -0.2670 N   0  0  0  0  0  0  0  0  0  0  0  0
   -0.4020    1.0660   -0.9210 C   0  0  0  0  0  0  0  0  0  0  0  0
   -0.2100   -0.1990   -0.1330 C   0  0  2  0  0  0  0  0  0  0  0  0
   -1.4860   -0.9160    0.1680 C   0  0  1  0  0  0  0  0  0  0  0  0
   -2.3440   -0.1150    0.9280 O   0  0  0  0  0  0  0  0  0  0  0  0
   -2.1060   -1.4310   -0.9630 O   0  0  0  0  0  0  0  0  0  0  0  0
    0.5110    0.0500    1.1650 C   0  0  0  0  0  0  0  0  0  0  0  0
    1.6390    0.8120    0.8850 O   0  0  0  0  0  0  0  0  0  0  0  0
    2.4880    0.0420    0.1090 C   0  0  0  0  0  0  0  0  0  0  0  0
    1.8540   -1.2230   -0.3910 C   0  0  0  0  0  0  0  0  0  0  0  0
    0.5900   -1.0570   -0.8900 O   0  0  0  0  0  0  0  0  0  0  0  0
  1  2  1  0
  3  2  1  6
  3  4  1  0
  3  7  1  0
  3 11  1  0
  4  5  1  6
  4  6  1  0
  7  8  1  0
  8  9  1  0
  9 10  1  0
 10 11  1  0
M  CHG  1   1   1
M  END
