
     RDKit          3D

 26 29  0  0  0  0  0  0  0  0999 V2000
    1.3970   -2.0700   -1.6510 C   0  0  0  0  0  0  0  0  0  0  0  0
    0.3350   -2.0410   -0.6150 C   0  0  0  0  0  0  0  0  0  0  0  0
    0.0710   -0.6750    0.0160 C   0  0  1  0  0  0  0  0  0  0  0  0
    1.2070   -0.1330    0.6950 N   0  0  0  0  0  0  0  0  0  0  0  0
    2.5030    0.1970    0.3100 C   0  0  0  0  0  0  0  0  0  0  0  0
    2.9690    0.5790   -0.9210 C   0  0  0  0  0  0  0  0  0  0  0  0
    4.3230    0.8490   -1.1770 C   0  0  0  0  0  0  0  0  0  0  0  0
    5.2610    0.7430   -0.1920 C   0  0  0  0  0  0  0  0  0  0  0  0
    6.7120    1.0230   -0.4300 C   0  0  0  0  0  0  0  0  0  0  0  0
    4.8320    0.3640    1.0570 C   0  0  0  0  0  0  0  0  0  0  0  0
    6.0550    0.2340    2.3140 Cl  0  0  0  0  0  0  0  0  0  0  0  0
    3.5080    0.1030    1.2950 C   0  0  0  0  0  0  0  0  0  0  0  0
   -0.4690    0.2080   -0.9540 N   0  0  0  0  0  0  0  0  0  0  0  0
   -1.7630    0.7740   -0.9200 C   0  0  0  0  0  0  0  0  0  0  0  0
   -2.1910    1.6620   -1.9170 C   0  0  0  0  0  0  0  0  0  0  0  0
   -3.4530    2.2150   -1.8910 C   0  0  0  0  0  0  0  0  0  0  0  0
   -4.3110    1.8920   -0.8660 C   0  0  0  0  0  0  0  0  0  0  0  0
   -3.8770    1.0150    0.1130 C   0  0  0  0  0  0  0  0  0  0  0  0
   -2.6250    0.4550    0.1010 C   0  0  0  0  0  0  0  0  0  0  0  0
   -2.1240   -0.4660    1.1050 C   0  0  0  0  0  0  0  0  0  0  0  0
   -0.9370   -0.9790    1.0870 C   0  0  0  0  0  0  0  0  0  0  0  0
   -0.5350   -1.9040    2.2080 C   0  0  0  0  0  0  0  0  0  0  0  0
   -1.6110   -2.0190    3.1640 N   0  0  0  0  0  0  0  0  0  0  0  0
   -4.9930    0.8680    1.0530 C   0  0  0  0  0  0  0  0  0  0  0  0
   -5.8820    1.8980    0.7860 O   0  0  0  0  0  0  0  0  0  0  0  0
   -5.7000    2.2850   -0.5260 C   0  0  0  0  0  0  0  0  0  0  0  0
  1  2  1  0
  3  2  1  6
  3  4  1  0
  3 13  1  0
  3 21  1  0
  4  5  1  0
  5  6  2  0
  5 12  1  0
  6  7  1  0
  7  8  2  0
  8  9  1  0
  8 10  1  0
 10 11  1  0
 10 12  2  0
 13 14  1  0
 14 15  2  0
 14 19  1  0
 15 16  1  0
 16 17  2  0
 17 18  1  0
 17 26  1  0
 18 19  2  0
 18 24  1  0
 19 20  1  0
 20 21  2  0
 21 22  1  0
 22 23  1  0
 24 25  1  0
 25 26  1  0
M  CHG  1  23   1
M  END
