
     RDKit          3D

 26 29  0  0  0  0  0  0  0  0999 V2000
   -5.7990   -1.8250    1.0250 N   0  0  0  0  0  0  0  0  0  0  0  0
   -5.4960   -0.7810   -0.0140 C   0  0  0  0  0  0  0  0  0  0  0  0
   -4.0690   -0.5020   -0.0070 C   0  0  0  0  0  0  0  0  0  0  0  0
   -3.2720   -1.4020   -0.7420 C   0  0  0  0  0  0  0  0  0  0  0  0
   -4.0110   -2.9400   -1.2450 Cl  0  0  0  0  0  0  0  0  0  0  0  0
   -1.9760   -1.1520   -0.9790 C   0  0  0  0  0  0  0  0  0  0  0  0
   -1.3480   -0.0070   -0.5200 C   0  0  0  0  0  0  0  0  0  0  0  0
   -0.0340    0.2540   -1.0120 N   0  0  0  0  0  0  0  0  0  0  0  0
    0.9100   -0.7640   -1.2070 C   0  0  0  0  0  0  0  0  0  0  0  0
    0.4960   -1.9370   -0.7760 O   0  0  0  0  0  0  0  0  0  0  0  0
    2.2200   -0.7300   -1.8160 C   0  0  0  0  0  0  0  0  0  0  0  0
    3.4180   -0.9280   -1.0130 C   0  0  0  0  0  0  0  0  0  0  0  0
    3.8850   -2.1720   -0.5570 C   0  0  0  0  0  0  0  0  0  0  0  0
    4.9770   -2.0150    0.2020 N   0  0  0  0  0  0  0  0  0  0  0  0
    5.2780   -0.6980    0.2810 C   0  0  0  0  0  0  0  0  0  0  0  0
    6.3300   -0.0480    0.9180 C   0  0  0  0  0  0  0  0  0  0  0  0
    6.4080    1.2970    0.7830 C   0  0  0  0  0  0  0  0  0  0  0  0
    5.4710    1.9850    0.0370 C   0  0  0  0  0  0  0  0  0  0  0  0
    4.4170    1.3210   -0.5910 C   0  0  0  0  0  0  0  0  0  0  0  0
    4.3370   -0.0270   -0.4510 C   0  0  0  0  0  0  0  0  0  0  0  0
   -2.0940    0.8870    0.2000 C   0  0  0  0  0  0  0  0  0  0  0  0
   -1.4890    2.0770    0.6370 C   0  0  0  0  0  0  0  0  0  0  0  0
   -2.1980    3.0180    1.3120 C   0  0  0  0  0  0  0  0  0  0  0  0
   -3.5340    2.7480    1.5470 C   0  0  0  0  0  0  0  0  0  0  0  0
   -4.1640    1.5960    1.1470 C   0  0  0  0  0  0  0  0  0  0  0  0
   -3.4460    0.6210    0.4490 C   0  0  0  0  0  0  0  0  0  0  0  0
  1  2  1  0
  2  3  1  0
  3  4  2  0
  3 26  1  0
  4  5  1  0
  4  6  1  0
  6  7  2  0
  7  8  1  0
  7 21  1  0
  8  9  1  0
  9 10  2  0
  9 11  1  0
 11 12  1  0
 12 13  2  0
 12 20  1  0
 13 14  1  0
 14 15  1  0
 15 16  2  0
 15 20  1  0
 16 17  1  0
 17 18  2  0
 18 19  1  0
 19 20  2  0
 21 22  2  0
 21 26  1  0
 22 23  1  0
 23 24  2  0
 24 25  1  0
 25 26  2  0
M  CHG  1   1   1
M  END
