
     RDKit          3D

 26 29  0  0  0  0  0  0  0  0999 V2000
   -6.1820   -0.6420   -1.7060 N   0  0  0  0  0  0  0  0  0  0  0  0
   -5.6720    0.0180   -0.4740 C   0  0  1  0  0  0  0  0  0  0  0  0
   -5.7520   -1.0710    0.6080 C   0  0  0  0  0  0  0  0  0  0  0  0
   -4.4920   -0.8660    1.4740 C   0  0  0  0  0  0  0  0  0  0  0  0
   -4.2530    0.5910    1.5160 C   0  0  0  0  0  0  0  0  0  0  0  0
   -3.4870    1.0710    0.3340 C   0  0  1  0  0  0  0  0  0  0  0  0
   -2.1100    0.7190    0.2330 C   0  0  0  0  0  0  0  0  0  0  0  0
   -1.6240   -0.3720   -0.4280 C   0  0  0  0  0  0  0  0  0  0  0  0
   -0.2750   -0.5990   -0.5670 N   0  0  0  0  0  0  0  0  0  0  0  0
    0.6550    0.2130   -0.0700 C   0  0  0  0  0  0  0  0  0  0  0  0
    2.0750   -0.0190   -0.2370 C   0  0  0  0  0  0  0  0  0  0  0  0
    2.6510   -0.7460   -1.2700 C   0  0  0  0  0  0  0  0  0  0  0  0
    3.9970   -1.0330   -1.2670 C   0  0  0  0  0  0  0  0  0  0  0  0
    4.8320   -0.6180   -0.2500 C   0  0  0  0  0  0  0  0  0  0  0  0
    6.2480   -0.9010   -0.2570 C   0  0  0  0  0  0  0  0  0  0  0  0
    6.9290   -1.3130   -1.4010 C   0  0  0  0  0  0  0  0  0  0  0  0
    8.2810   -1.4660   -1.1080 C   0  0  0  0  0  0  0  0  0  0  0  0
    8.3860   -1.1430    0.2220 C   0  0  0  0  0  0  0  0  0  0  0  0
    7.1450   -0.8090    0.6880 N   0  0  0  0  0  0  0  0  0  0  0  0
    4.2540    0.1140    0.7800 C   0  0  0  0  0  0  0  0  0  0  0  0
    5.0080    0.5810    1.8380 O   0  0  0  0  0  0  0  0  0  0  0  0
    2.9190    0.3820    0.7540 C   0  0  0  0  0  0  0  0  0  0  0  0
    0.1970    1.3530    0.6180 C   0  0  0  0  0  0  0  0  0  0  0  0
   -1.1460    1.5900    0.7580 C   0  0  0  0  0  0  0  0  0  0  0  0
   -1.7670    2.9700    1.5820 Cl  0  0  0  0  0  0  0  0  0  0  0  0
   -4.2250    0.3620   -0.8330 C   0  0  0  0  0  0  0  0  0  0  0  0
  2  1  1  6
  2  3  1  0
  2 26  1  0
  3  4  1  0
  4  5  1  0
  5  6  1  0
  6  7  1  1
  6 26  1  0
  7  8  2  0
  7 24  1  0
  8  9  1  0
  9 10  2  0
 10 11  1  0
 10 23  1  0
 11 12  2  0
 11 22  1  0
 12 13  1  0
 13 14  2  0
 14 15  1  0
 14 20  1  0
 15 16  2  0
 15 19  1  0
 16 17  1  0
 17 18  2  0
 18 19  1  0
 20 21  1  0
 20 22  2  0
 23 24  2  0
 24 25  1  0
M  CHG  1   1   1
M  END
