
     RDKit          3D

  8  7  0  0  0  0  0  0  0  0999 V2000
    1.3980    1.2580    0.5490 C   0  0  0  0  0  0  0  0  0  0  0  0
    1.3660   -0.2140    0.2760 C   0  0  2  0  0  0  0  0  0  0  0  0
    2.5520   -0.4800   -0.6760 C   0  0  0  0  0  0  0  0  0  0  0  0
    0.1500   -0.7500   -0.3660 C   0  0  0  0  0  0  0  0  0  0  0  0
   -1.1540   -0.6090    0.3340 C   0  0  2  0  0  0  0  0  0  0  0  0
   -2.1520   -1.2850   -0.5530 N   0  0  0  0  0  0  0  0  0  0  0  0
   -1.6710    0.8130    0.4130 C   0  0  0  0  0  0  0  0  0  0  0  0
   -1.7290    1.4040   -0.8490 O   0  0  0  0  0  0  0  0  0  0  0  0
  2  1  1  6
  2  3  1  0
  2  4  1  0
  4  5  1  0
  5  6  1  6
  5  7  1  0
  7  8  1  0
M  CHG  1   6   1
M  END
