
     RDKit          3D

  8  7  0  0  0  0  0  0  0  0999 V2000
   -0.4020   -1.2090    2.1190 C   0  0  0  0  0  0  0  0  0  0  0  0
   -0.2700   -0.6950    0.9310 C   0  0  0  0  0  0  0  0  0  0  0  0
    0.9670   -0.0450    0.5500 C   0  0  0  0  0  0  0  0  0  0  0  0
    1.1940    0.4940   -0.6190 C   0  0  0  0  0  0  0  0  0  0  0  0
    2.4630    1.1180   -0.8940 N   0  0  0  0  0  0  0  0  0  0  0  0
   -1.3910   -0.7630   -0.0290 C   0  0  1  0  0  0  0  0  0  0  0  0
   -1.8460    0.6270   -0.3450 C   0  0  0  0  0  0  0  0  0  0  0  0
   -0.8870   -1.3790   -1.1870 O   0  0  0  0  0  0  0  0  0  0  0  0
  1  2  2  0
  2  3  1  0
  2  6  1  0
  3  4  2  3
  4  5  1  0
  6  7  1  6
  6  8  1  0
M  CHG  1   5   1
M  END
