
     RDKit          3D

 25 26  0  0  0  0  0  0  0  0999 V2000
   -2.0160    1.7580    2.2170 C   0  0  0  0  0  0  0  0  0  0  0  0
   -1.3100    0.7470    1.3960 C   0  0  1  0  0  0  0  0  0  0  0  0
   -2.3320   -0.2730    0.8350 C   0  0  1  0  0  0  0  0  0  0  0  0
   -3.2430    0.4280   -0.0660 N   0  0  0  0  0  0  0  0  0  0  0  0
   -1.6020   -1.3640    0.1560 C   0  0  1  0  0  0  0  0  0  0  0  0
   -2.5030   -2.3540   -0.5090 C   0  0  0  0  0  0  0  0  0  0  0  0
   -3.4400   -3.0890    0.3950 C   0  0  0  0  0  0  0  0  0  0  0  0
   -4.3180   -2.3030    1.0790 O   0  0  0  0  0  0  0  0  0  0  0  0
   -0.5700   -0.9050   -0.8460 C   0  0  0  0  0  0  0  0  0  0  0  0
    0.1960    0.2230   -0.3070 N   0  0  0  0  0  0  0  0  0  0  0  0
    1.5850    0.1880   -0.2710 C   0  0  0  0  0  0  0  0  0  0  0  0
    2.2930    1.1000    0.1900 O   0  0  0  0  0  0  0  0  0  0  0  0
    2.2860   -1.0310   -0.8250 C   0  0  0  0  0  0  0  0  0  0  0  0
    3.7160   -0.8930   -0.7070 N   0  0  0  0  0  0  0  0  0  0  0  0
    4.5180   -0.3680   -1.5920 N   0  0  0  0  0  0  0  0  0  0  0  0
    5.7880   -0.4010   -1.1540 C   0  0  0  0  0  0  0  0  0  0  0  0
    6.7990    0.0330   -1.7870 O   0  0  0  0  0  0  0  0  0  0  0  0
    5.7730   -0.9760    0.0620 N   0  0  0  0  0  0  0  0  0  0  0  0
    4.4840   -1.2760    0.3280 C   0  0  0  0  0  0  0  0  0  0  0  0
    4.0660   -1.8260    1.3780 O   0  0  0  0  0  0  0  0  0  0  0  0
   -0.6210    1.3080    0.1760 C   0  0  2  0  0  0  0  0  0  0  0  0
    0.1040    2.5800    0.3690 C   0  0  0  0  0  0  0  0  0  0  0  0
    0.7070    3.0050   -0.9180 C   0  0  0  0  0  0  0  0  0  0  0  0
    0.4440    2.3370   -1.9700 N   0  0  0  0  0  0  0  0  0  0  0  0
    1.7670    4.4280   -1.0210 S   0  0  0  0  0  0  0  0  0  0  0  0
  2  1  1  6
  2  3  1  0
  2 21  1  0
  3  4  1  6
  3  5  1  0
  5  6  1  6
  5  9  1  0
  6  7  1  0
  7  8  1  0
  9 10  1  0
 10 11  1  0
 10 21  1  0
 11 12  2  0
 11 13  1  0
 13 14  1  0
 14 15  1  0
 14 19  1  0
 15 16  1  0
 16 17  2  0
 16 18  1  0
 18 19  1  0
 19 20  2  0
 21 22  1  1
 22 23  1  0
 23 24  2  0
 23 25  1  0
M  CHG  1   4   1
M  END
