
     RDKit          3D

  8  7  0  0  0  0  0  0  0  0999 V2000
    1.2050    1.6340    0.3680 C   0  0  0  0  0  0  0  0  0  0  0  0
    0.3750    0.6360    0.1550 C   0  0  0  0  0  0  0  0  0  0  0  0
    0.9080   -0.7290    0.1410 C   0  0  0  0  0  0  0  0  0  0  0  0
    2.3490   -0.7490    0.4070 N   0  0  0  0  0  0  0  0  0  0  0  0
   -1.0190    0.9030   -0.0550 C   0  0  0  0  0  0  0  0  0  0  0  0
   -1.3330    2.3050   -0.0110 O   0  0  0  0  0  0  0  0  0  0  0  0
   -2.0110    0.0940   -0.2730 C   0  0  0  0  0  0  0  0  0  0  0  0
   -1.9970   -1.3550   -0.3690 C   0  0  0  0  0  0  0  0  0  0  0  0
  1  2  2  0
  2  3  1  0
  2  5  1  0
  3  4  1  0
  5  6  1  0
  5  7  2  3
  7  8  1  0
M  CHG  1   4   1
M  END
