
     RDKit          3D

 26 28  0  0  0  0  0  0  0  0999 V2000
   -0.0580   -0.2630    2.9690 C   0  0  0  0  0  0  0  0  0  0  0  0
    0.4910   -0.7740    1.6700 C   0  0  2  0  0  0  0  0  0  0  0  0
    1.6340    0.0070    1.2080 N   0  0  0  0  0  0  0  0  0  0  0  0
    2.9110   -0.5290    1.0460 C   0  0  0  0  0  0  0  0  0  0  0  0
    3.0150   -1.7670    1.3500 O   0  0  0  0  0  0  0  0  0  0  0  0
    4.1220    0.2250    0.5650 C   0  0  0  0  0  0  0  0  0  0  0  0
    5.3580   -0.3300    0.9510 C   0  0  0  0  0  0  0  0  0  0  0  0
    6.5410    0.8220    0.1660 S   0  0  0  0  0  0  0  0  0  0  0  0
    5.2860    1.8350   -0.5370 C   0  0  0  0  0  0  0  0  0  0  0  0
    5.1350    2.9510   -1.3230 N   0  0  0  0  0  0  0  0  0  0  0  0
    3.8250    3.1080   -1.4510 C   0  0  0  0  0  0  0  0  0  0  0  0
    3.2110    4.0250   -2.1040 O   0  0  0  0  0  0  0  0  0  0  0  0
    3.2300    2.1120   -0.7600 N   0  0  0  0  0  0  0  0  0  0  0  0
    4.1470    1.3040   -0.1780 N   0  0  0  0  0  0  0  0  0  0  0  0
   -0.6000   -0.8430    0.6520 C   0  0  2  0  0  0  0  0  0  0  0  0
   -1.1130    0.4160    0.3000 O   0  0  0  0  0  0  0  0  0  0  0  0
   -2.1260    0.4930   -0.6300 C   0  0  0  0  0  0  0  0  0  0  0  0
   -2.0090    0.0140   -1.8640 C   0  0  0  0  0  0  0  0  0  0  0  0
   -3.2560    0.2410   -2.6340 C   0  0  1  0  0  0  0  0  0  0  0  0
   -3.8420   -1.0050   -3.0920 N   0  0  0  0  0  0  0  0  0  0  0  0
   -4.1280    0.9310   -1.6530 C   0  0  0  0  0  0  0  0  0  0  0  0
   -3.4590    1.0560   -0.5360 C   0  0  0  0  0  0  0  0  0  0  0  0
   -3.9620    1.6570    0.6090 O   0  0  0  0  0  0  0  0  0  0  0  0
   -1.6920   -1.6780    1.2100 C   0  0  0  0  0  0  0  0  0  0  0  0
   -1.4410   -3.0030    1.6460 N   0  0  0  0  0  0  0  0  0  0  0  0
   -2.8590   -1.2260    1.3070 O   0  0  0  0  0  0  0  0  0  0  0  0
  2  1  1  1
  2  3  1  0
  2 15  1  0
  3  4  1  0
  4  5  2  0
  4  6  1  0
  6  7  2  0
  6 14  1  0
  7  8  1  0
  8  9  1  0
  9 10  2  0
  9 14  1  0
 10 11  1  0
 11 12  2  0
 11 13  1  0
 13 14  1  0
 15 16  1  1
 15 24  1  0
 16 17  1  0
 17 18  2  0
 17 22  1  0
 18 19  1  0
 19 20  1  1
 19 21  1  0
 21 22  2  0
 22 23  1  0
 24 25  1  0
 24 26  2  0
M  CHG  1  20   1
M  END
