
     RDKit          3D

 12 12  0  0  0  0  0  0  0  0999 V2000
   -1.9220    0.5760    1.4750 C   0  0  0  0  0  0  0  0  0  0  0  0
   -1.4460    0.0840    0.1550 C   0  0  2  0  0  0  0  0  0  0  0  0
   -2.6160   -0.5710   -0.5570 C   0  0  0  0  0  0  0  0  0  0  0  0
   -3.6240    0.3350   -0.8330 O   0  0  0  0  0  0  0  0  0  0  0  0
   -0.3760   -0.9830    0.2640 C   0  0  0  0  0  0  0  0  0  0  0  0
    0.9740   -0.4250    0.5670 C   0  0  1  0  0  0  0  0  0  0  0  0
    1.4400   -1.0650    1.7310 O   0  0  0  0  0  0  0  0  0  0  0  0
    1.9810   -0.7880   -0.5330 C   0  0  0  0  0  0  0  0  0  0  0  0
    3.2990   -0.3210   -0.1740 N   0  0  0  0  0  0  0  0  0  0  0  0
    1.0030    1.0570    0.7310 C   0  0  0  0  0  0  0  0  0  0  0  0
    0.0810    1.7930   -0.1860 C   0  0  0  0  0  0  0  0  0  0  0  0
   -0.9610    1.0720   -0.6780 O   0  0  0  0  0  0  0  0  0  0  0  0
  2  1  1  1
  2  3  1  0
  2  5  1  0
  2 12  1  0
  3  4  1  0
  5  6  1  0
  6  7  1  1
  6  8  1  0
  6 10  1  0
  8  9  1  0
 10 11  1  0
 11 12  1  0
M  CHG  1   9   1
M  END
