
     RDKit          3D

 12 12  0  0  0  0  0  0  0  0999 V2000
    2.3430   -0.1720    1.2160 N   0  0  0  0  0  0  0  0  0  0  0  0
    2.2560    0.8670    0.2300 C   0  0  0  0  0  0  0  0  0  0  0  0
    1.4770    0.3700   -0.9790 C   0  0  2  0  0  0  0  0  0  0  0  0
    1.3870    1.3710   -1.9410 O   0  0  0  0  0  0  0  0  0  0  0  0
    0.1390   -0.1070   -0.5460 C   0  0  0  0  0  0  0  0  0  0  0  0
   -0.1430   -1.4340   -0.4130 C   0  0  0  0  0  0  0  0  0  0  0  0
   -1.3890   -1.8430   -0.0110 C   0  0  0  0  0  0  0  0  0  0  0  0
   -2.3780   -0.9140    0.2650 C   0  0  0  0  0  0  0  0  0  0  0  0
   -3.6040   -1.3850    0.6630 O   0  0  0  0  0  0  0  0  0  0  0  0
   -2.0770    0.4350    0.1250 C   0  0  0  0  0  0  0  0  0  0  0  0
   -3.0930    1.3460    0.4100 O   0  0  0  0  0  0  0  0  0  0  0  0
   -0.8250    0.8460   -0.2790 C   0  0  0  0  0  0  0  0  0  0  0  0
  1  2  1  0
  2  3  1  0
  3  4  1  6
  3  5  1  0
  5  6  2  0
  5 12  1  0
  6  7  1  0
  7  8  2  0
  8  9  1  0
  8 10  1  0
 10 11  1  0
 10 12  2  0
M  CHG  1   1   1
M  END
