
     RDKit          3D

 26 27  0  0  0  0  0  0  0  0999 V2000
    7.1320   -1.1730   -0.0540 C   0  0  0  0  0  0  0  0  0  0  0  0
    5.5970   -1.1790    0.0670 C   0  0  0  0  0  0  0  0  0  0  0  0
    4.9400   -2.3510    0.5100 C   0  0  0  0  0  0  0  0  0  0  0  0
    3.2510   -1.9350    0.4910 S   0  0  0  0  0  0  0  0  0  0  0  0
    3.4640   -0.2570   -0.0910 C   0  0  0  0  0  0  0  0  0  0  0  0
    2.3640    0.6360   -0.3130 N   0  0  0  0  0  0  0  0  0  0  0  0
    1.0260    0.0830   -0.0310 C   0  0  0  0  0  0  0  0  0  0  0  0
   -0.0380    1.0970   -0.2960 C   0  0  0  0  0  0  0  0  0  0  0  0
   -1.2870    0.4970   -0.0040 O   0  0  0  0  0  0  0  0  0  0  0  0
   -2.4820    1.1580   -0.1410 C   0  0  0  0  0  0  0  0  0  0  0  0
   -2.4760    2.3440   -0.5420 O   0  0  0  0  0  0  0  0  0  0  0  0
   -3.7270    0.4890    0.1740 C   0  0  0  0  0  0  0  0  0  0  0  0
   -4.8550    1.1720    0.0240 C   0  0  0  0  0  0  0  0  0  0  0  0
   -6.1440    0.5980    0.3100 C   0  0  0  0  0  0  0  0  0  0  0  0
   -7.3430    1.4140    0.1210 C   0  0  0  0  0  0  0  0  0  0  0  0
   -8.4890    0.9580    0.3570 O   0  0  0  0  0  0  0  0  0  0  0  0
   -6.1940   -0.6450    0.7330 C   0  0  0  0  0  0  0  0  0  0  0  0
   -5.0330   -1.5050    0.9390 C   0  0  0  0  0  0  0  0  0  0  0  0
   -3.7050   -0.9090    0.6430 C   0  0  2  0  0  0  0  0  0  0  0  0
   -2.9650   -0.9250    1.8330 F   0  0  0  0  0  0  0  0  0  0  0  0
   -3.0450   -1.6860   -0.3200 F   0  0  0  0  0  0  0  0  0  0  0  0
    4.7960   -0.1380   -0.2270 C   0  0  0  0  0  0  0  0  0  0  0  0
    5.4330    1.1650   -0.7050 C   0  0  2  0  0  0  0  0  0  0  0  0
    4.5010    2.1080   -0.9790 F   0  0  0  0  0  0  0  0  0  0  0  0
    6.1870    0.8790   -1.8250 F   0  0  0  0  0  0  0  0  0  0  0  0
    6.2500    1.6690    0.2920 F   0  0  0  0  0  0  0  0  0  0  0  0
  1  2  1  0
  2  3  2  0
  2 22  1  0
  3  4  1  0
  4  5  1  0
  5  6  1  0
  5 22  2  0
  6  7  1  0
  7  8  1  0
  8  9  1  0
  9 10  1  0
 10 11  2  0
 10 12  1  0
 12 13  2  0
 12 19  1  0
 13 14  1  0
 14 15  1  0
 14 17  2  0
 15 16  2  0
 17 18  1  0
 18 19  1  0
 19 20  1  1
 19 21  1  0
 22 23  1  0
 23 24  1  6
 23 25  1  0
 23 26  1  0
M  END
