
     RDKit          3D

 27 28  0  0  0  0  0  0  0  0999 V2000
    2.8700    1.8420   -2.3150 C   0  0  0  0  0  0  0  0  0  0  0  0
    2.4960    0.5870   -1.8230 O   0  0  0  0  0  0  0  0  0  0  0  0
    3.1490   -0.0570   -0.7860 C   0  0  0  0  0  0  0  0  0  0  0  0
    4.2370    0.6120   -0.2300 C   0  0  0  0  0  0  0  0  0  0  0  0
    4.9410    0.0400    0.7960 C   0  0  0  0  0  0  0  0  0  0  0  0
    4.5600   -1.1880    1.2620 C   0  0  0  0  0  0  0  0  0  0  0  0
    5.2920   -1.7580    2.3130 O   0  0  0  0  0  0  0  0  0  0  0  0
    3.4850   -1.8450    0.7120 C   0  0  0  0  0  0  0  0  0  0  0  0
    2.7440   -1.2870   -0.3390 C   0  0  0  0  0  0  0  0  0  0  0  0
    1.5940   -1.9930   -0.8620 C   0  0  0  0  0  0  0  0  0  0  0  0
    0.3700   -1.5520   -0.9630 C   0  0  0  0  0  0  0  0  0  0  0  0
   -0.0780   -0.2360   -0.5530 C   0  0  0  0  0  0  0  0  0  0  0  0
   -1.3020   -0.1770    0.2210 N   0  0  0  0  0  0  0  0  0  0  0  0
   -2.2270    0.7740   -0.2860 C   0  0  0  0  0  0  0  0  0  0  0  0
   -3.4590    0.9800    0.5140 C   0  0  1  0  0  0  0  0  0  0  0  0
   -4.2570   -0.1150    0.7160 O   0  0  0  0  0  0  0  0  0  0  0  0
   -3.1820    1.6880    1.8280 C   0  0  1  0  0  0  0  0  0  0  0  0
   -2.3120    1.0010    2.6370 F   0  0  0  0  0  0  0  0  0  0  0  0
   -2.6090    2.9310    1.5840 F   0  0  0  0  0  0  0  0  0  0  0  0
   -4.3890    1.8450    2.5000 F   0  0  0  0  0  0  0  0  0  0  0  0
   -4.3300    1.9570   -0.3180 C   0  0  1  0  0  0  0  0  0  0  0  0
   -5.5110    2.2130    0.3500 F   0  0  0  0  0  0  0  0  0  0  0  0
   -3.6050    3.1030   -0.5600 F   0  0  0  0  0  0  0  0  0  0  0  0
   -4.6780    1.3160   -1.5010 F   0  0  0  0  0  0  0  0  0  0  0  0
   -1.7890   -1.4370    0.6090 C   0  0  0  0  0  0  0  0  0  0  0  0
   -2.3370   -2.3140   -0.5040 C   0  0  0  0  0  0  0  0  0  0  0  0
   -0.9300   -2.6250   -1.6670 S   0  0  0  0  0  0  0  0  0  0  0  0
  1  2  1  0
  2  3  1  0
  3  4  2  0
  3  9  1  0
  4  5  1  0
  5  6  2  0
  6  7  1  0
  6  8  1  0
  8  9  2  0
  9 10  1  0
 10 11  2  3
 11 12  1  0
 11 27  1  0
 12 13  1  0
 13 14  1  0
 13 25  1  0
 14 15  1  0
 15 16  1  1
 15 17  1  0
 15 21  1  0
 17 18  1  1
 17 19  1  0
 17 20  1  0
 21 22  1  1
 21 23  1  0
 21 24  1  0
 25 26  1  0
 26 27  1  0
M  END
