
     RDKit          3D

  9  8  0  0  0  0  0  0  0  0999 V2000
   -2.0990    1.7680   -0.0760 C   0  0  0  0  0  0  0  0  0  0  0  0
   -1.3520    0.6790    0.5360 N   0  0  0  0  0  0  0  0  0  0  0  0
   -0.7030   -0.0840   -0.4770 C   0  0  1  0  0  0  0  0  0  0  0  0
    0.7300   -0.0490   -0.3420 C   0  0  0  0  0  0  0  0  0  0  0  0
    1.9550   -0.0330   -0.2390 C   0  0  0  0  0  0  0  0  0  0  0  0
    3.4010   -0.0160   -0.1420 C   0  0  0  0  0  0  0  0  0  0  0  0
    3.8400    0.4920    1.0610 O   0  0  0  0  0  0  0  0  0  0  0  0
   -1.1510   -1.5520   -0.3510 C   0  0  0  0  0  0  0  0  0  0  0  0
   -0.8000   -2.0470    0.9060 O   0  0  0  0  0  0  0  0  0  0  0  0
  1  2  1  0
  2  3  1  0
  3  4  1  1
  3  8  1  0
  4  5  3  0
  5  6  1  0
  6  7  1  0
  8  9  1  0
M  END
