
     RDKit          3D

 20 22  0  0  0  0  0  0  0  0999 V2000
    1.7890   -2.3360    0.2350 C   0  0  0  0  0  0  0  0  0  0  0  0
    2.4620   -1.5320   -0.4920 C   0  0  0  0  0  0  0  0  0  0  0  0
    2.4590   -0.2010   -0.9040 C   0  0  0  0  0  0  0  0  0  0  0  0
    3.6300    0.0480   -1.6610 C   0  0  0  0  0  0  0  0  0  0  0  0
    1.7380    1.0210   -0.6940 C   0  0  0  0  0  0  0  0  0  0  0  0
    0.5680    1.3040   -0.2240 C   0  0  0  0  0  0  0  0  0  0  0  0
    0.3550    2.7660   -0.2140 C   0  0  0  0  0  0  0  0  0  0  0  0
   -0.8310    3.0160    0.2170 N   0  0  0  0  0  0  0  0  0  0  0  0
   -1.5510    1.8390    0.5260 C   0  0  0  0  0  0  0  0  0  0  0  0
   -2.8660    1.6220    0.9540 C   0  0  0  0  0  0  0  0  0  0  0  0
   -3.3490    0.3470    1.1040 C   0  0  0  0  0  0  0  0  0  0  0  0
   -2.5170   -0.7100    0.8250 C   0  0  0  0  0  0  0  0  0  0  0  0
   -2.9570   -2.1050    0.9560 C   0  0  0  0  0  0  0  0  0  0  0  0
   -4.1430   -2.3010    1.3400 O   0  0  0  0  0  0  0  0  0  0  0  0
   -2.1340   -3.1690    0.6790 O   0  0  0  0  0  0  0  0  0  0  0  0
   -1.2050   -0.4690    0.4000 C   0  0  0  0  0  0  0  0  0  0  0  0
   -0.7120    0.7850    0.2550 C   0  0  0  0  0  0  0  0  0  0  0  0
    1.5820    3.3360   -0.7570 C   0  0  0  0  0  0  0  0  0  0  0  0
    1.8010    4.5800   -0.9140 O   0  0  0  0  0  0  0  0  0  0  0  0
    2.3760    2.2870   -1.0330 O   0  0  0  0  0  0  0  0  0  0  0  0
  1  2  2  0
  2  3  1  0
  3  4  2  0
  3  5  1  0
  5  6  2  0
  5 20  1  0
  6  7  1  0
  6 17  1  0
  7  8  2  0
  7 18  1  0
  8  9  1  0
  9 10  2  0
  9 17  1  0
 10 11  1  0
 11 12  2  0
 12 13  1  0
 12 16  1  0
 13 14  2  0
 13 15  1  0
 16 17  2  0
 18 19  2  0
 18 20  1  0
M  END
