
     RDKit          3D

 20 22  0  0  0  0  0  0  0  0999 V2000
   -6.0680   -0.5870   -1.2470 C   0  0  0  0  0  0  0  0  0  0  0  0
   -5.0170   -0.2890   -0.3460 O   0  0  0  0  0  0  0  0  0  0  0  0
   -3.6820   -0.3430   -0.6910 C   0  0  0  0  0  0  0  0  0  0  0  0
   -3.3630   -0.6700   -1.8560 O   0  0  0  0  0  0  0  0  0  0  0  0
   -2.6220   -0.0320    0.2550 C   0  0  0  0  0  0  0  0  0  0  0  0
   -2.9160    0.3400    1.5720 C   0  0  0  0  0  0  0  0  0  0  0  0
   -1.9160    0.6360    2.4730 C   0  0  0  0  0  0  0  0  0  0  0  0
   -0.6080    0.5630    2.0640 C   0  0  0  0  0  0  0  0  0  0  0  0
   -0.2560    0.2010    0.7750 C   0  0  0  0  0  0  0  0  0  0  0  0
    1.1370    0.1300    0.3610 C   0  0  0  0  0  0  0  0  0  0  0  0
    2.2310    0.3970    1.1540 C   0  0  0  0  0  0  0  0  0  0  0  0
    3.3670    0.2140    0.3860 C   0  0  0  0  0  0  0  0  0  0  0  0
    4.7160    0.3350    0.6390 C   0  0  0  0  0  0  0  0  0  0  0  0
    5.0940    0.6800    1.7860 O   0  0  0  0  0  0  0  0  0  0  0  0
    5.6070    0.0800   -0.3460 N   0  0  0  0  0  0  0  0  0  0  0  0
    5.1370   -0.2860   -1.5520 C   0  0  0  0  0  0  0  0  0  0  0  0
    3.8140   -0.4230   -1.8670 C   0  0  0  0  0  0  0  0  0  0  0  0
    2.8940   -0.1630   -0.8590 C   0  0  0  0  0  0  0  0  0  0  0  0
    1.5750   -0.1990   -0.8250 O   0  0  0  0  0  0  0  0  0  0  0  0
   -1.2920   -0.0850   -0.0870 C   0  0  0  0  0  0  0  0  0  0  0  0
  1  2  1  0
  2  3  1  0
  3  4  2  0
  3  5  1  0
  5  6  2  0
  5 20  1  0
  6  7  1  0
  7  8  2  0
  8  9  1  0
  9 10  1  0
  9 20  2  0
 10 11  2  0
 10 19  1  0
 11 12  1  0
 12 13  1  0
 12 18  2  0
 13 14  2  0
 13 15  1  0
 15 16  1  0
 16 17  2  0
 17 18  1  0
 18 19  1  0
M  END
