
     RDKit          3D

 20 22  0  0  0  0  0  0  0  0999 V2000
   -2.4870    3.2770    0.2350 C   0  0  0  0  0  0  0  0  0  0  0  0
   -3.0540    2.0040   -0.0590 O   0  0  0  0  0  0  0  0  0  0  0  0
   -2.2200    0.8720   -0.1240 C   0  0  0  0  0  0  0  0  0  0  0  0
   -0.8630    0.9670    0.0900 C   0  0  0  0  0  0  0  0  0  0  0  0
    0.0000   -0.0990    0.0400 C   0  0  0  0  0  0  0  0  0  0  0  0
    1.4060    0.0390    0.2690 N   0  0  0  0  0  0  0  0  0  0  0  0
    2.2950   -0.3380   -0.7790 C   0  0  0  0  0  0  0  0  0  0  0  0
    3.5990    0.3920   -0.7870 C   0  0  0  0  0  0  0  0  0  0  0  0
    3.9620    1.0100    0.5330 C   0  0  0  0  0  0  0  0  0  0  0  0
    3.3030    0.2590    1.6880 C   0  0  0  0  0  0  0  0  0  0  0  0
    1.8220    0.5540    1.5560 C   0  0  0  0  0  0  0  0  0  0  0  0
   -0.5460   -1.3630   -0.2490 C   0  0  0  0  0  0  0  0  0  0  0  0
    0.3280   -2.4000   -0.2930 O   0  0  0  0  0  0  0  0  0  0  0  0
   -1.9010   -1.4790   -0.4670 C   0  0  0  0  0  0  0  0  0  0  0  0
   -2.5110   -2.6780   -0.7540 C   0  0  0  0  0  0  0  0  0  0  0  0
   -1.8330   -3.7100   -0.8260 O   0  0  0  0  0  0  0  0  0  0  0  0
   -3.8870   -2.7750   -0.9720 C   0  0  0  0  0  0  0  0  0  0  0  0
   -4.6180   -1.6110   -0.8860 C   0  0  0  0  0  0  0  0  0  0  0  0
   -4.0410   -0.4700   -0.6130 O   0  0  0  0  0  0  0  0  0  0  0  0
   -2.7380   -0.3730   -0.4060 C   0  0  0  0  0  0  0  0  0  0  0  0
  1  2  1  0
  2  3  1  0
  3  4  2  0
  3 20  1  0
  4  5  1  0
  5  6  1  0
  5 12  2  0
  6  7  1  0
  6 11  1  0
  7  8  1  0
  8  9  1  0
  9 10  1  0
 10 11  1  0
 12 13  1  0
 12 14  1  0
 14 15  1  0
 14 20  2  0
 15 16  2  0
 15 17  1  0
 17 18  2  0
 18 19  1  0
 19 20  1  0
M  END
