
     RDKit          3D

 20 21  0  0  0  0  0  0  0  0999 V2000
    7.0280   -0.0970   -0.0280 C   0  0  0  0  0  0  0  0  0  0  0  0
    5.8300   -0.6600   -0.4700 O   0  0  0  0  0  0  0  0  0  0  0  0
    4.5930   -0.1500   -0.0460 C   0  0  0  0  0  0  0  0  0  0  0  0
    4.6320    0.8300    0.7450 O   0  0  0  0  0  0  0  0  0  0  0  0
    3.3200   -0.7550   -0.5220 C   0  0  0  0  0  0  0  0  0  0  0  0
    2.2020   -0.0210    0.0820 C   0  0  0  0  0  0  0  0  0  0  0  0
    0.8450   -0.5150   -0.3030 C   0  0  0  0  0  0  0  0  0  0  0  0
    0.8590   -1.4770   -1.0780 O   0  0  0  0  0  0  0  0  0  0  0  0
   -0.3420    0.0580    0.1690 N   0  0  0  0  0  0  0  0  0  0  0  0
   -1.6490   -0.3780   -0.1490 C   0  0  0  0  0  0  0  0  0  0  0  0
   -1.8220   -1.6000   -0.6140 C   0  0  0  0  0  0  0  0  0  0  0  0
   -3.0200   -2.3000   -1.0160 C   0  0  0  0  0  0  0  0  0  0  0  0
   -4.2840   -1.9440   -1.0580 C   0  0  0  0  0  0  0  0  0  0  0  0
   -4.8280   -0.6350   -0.6730 C   0  0  0  0  0  0  0  0  0  0  0  0
   -4.2040    0.4180   -0.2210 C   0  0  0  0  0  0  0  0  0  0  0  0
   -5.0620    1.4950    0.0370 O   0  0  0  0  0  0  0  0  0  0  0  0
   -4.6050    2.7090    0.5170 C   0  0  0  0  0  0  0  0  0  0  0  0
   -3.3200    2.8390    0.7330 C   0  0  0  0  0  0  0  0  0  0  0  0
   -2.3380    1.7410    0.4850 C   0  0  0  0  0  0  0  0  0  0  0  0
   -2.7660    0.5840    0.0300 C   0  0  0  0  0  0  0  0  0  0  0  0
  1  2  1  0
  2  3  1  0
  3  4  2  0
  3  5  1  0
  5  6  1  0
  6  7  1  0
  7  8  2  0
  7  9  1  0
  9 10  1  0
 10 11  2  0
 10 20  1  0
 11 12  1  0
 12 13  2  0
 13 14  1  0
 14 15  2  0
 15 16  1  0
 15 20  1  0
 16 17  1  0
 17 18  2  0
 18 19  1  0
 19 20  2  0
M  END
