
     RDKit          3D

 29 32  0  0  0  0  0  0  0  0999 V2000
   -6.4540   -2.4720    0.2180 C   0  0  0  0  0  0  0  0  0  0  0  0
   -5.8390   -1.1940   -0.2230 C   0  0  0  0  0  0  0  0  0  0  0  0
   -6.4860   -0.4390   -1.1840 C   0  0  0  0  0  0  0  0  0  0  0  0
   -5.9140    0.7480   -1.5930 C   0  0  0  0  0  0  0  0  0  0  0  0
   -6.6260    1.5570   -2.6350 C   0  0  0  0  0  0  0  0  0  0  0  0
   -4.7560    1.1320   -1.0510 N   0  0  0  0  0  0  0  0  0  0  0  0
   -4.0870    0.4330   -0.1130 C   0  0  0  0  0  0  0  0  0  0  0  0
   -2.8050    0.9020    0.4670 C   0  0  0  0  0  0  0  0  0  0  0  0
   -2.1440   -0.1600    1.1460 N   0  0  0  0  0  0  0  0  0  0  0  0
   -1.7890   -1.2740    0.3350 C   0  0  0  0  0  0  0  0  0  0  0  0
   -0.3820   -1.2830   -0.0990 C   0  0  0  0  0  0  0  0  0  0  0  0
   -0.0490   -2.0180   -1.0570 O   0  0  0  0  0  0  0  0  0  0  0  0
    0.6310   -0.4670    0.5470 C   0  0  0  0  0  0  0  0  0  0  0  0
    1.9340   -0.4080    0.1420 C   0  0  0  0  0  0  0  0  0  0  0  0
    2.9070    0.3840    0.7740 C   0  0  0  0  0  0  0  0  0  0  0  0
    4.2130    0.3340    0.2280 N   0  0  0  0  0  0  0  0  0  0  0  0
    5.3590    0.9990    0.7150 C   0  0  0  0  0  0  0  0  0  0  0  0
    5.2610    1.7150    1.7320 O   0  0  0  0  0  0  0  0  0  0  0  0
    6.6730    0.8610    0.0430 C   0  0  0  0  0  0  0  0  0  0  0  0
    6.9880    0.1390   -1.0630 C   0  0  0  0  0  0  0  0  0  0  0  0
    8.3310    0.3340   -1.2900 C   0  0  0  0  0  0  0  0  0  0  0  0
    9.1980   -0.2140   -2.3590 C   0  0  0  0  0  0  0  0  0  0  0  0
    8.7690    1.1340   -0.3540 O   0  0  0  0  0  0  0  0  0  0  0  0
    7.8000    1.4600    0.4490 N   0  0  0  0  0  0  0  0  0  0  0  0
    2.4830    1.1070    1.8350 C   0  0  0  0  0  0  0  0  0  0  0  0
    1.1440    1.0540    2.2620 C   0  0  0  0  0  0  0  0  0  0  0  0
    0.2120    0.2750    1.6300 C   0  0  0  0  0  0  0  0  0  0  0  0
   -1.1800    0.2520    2.1130 C   0  0  0  0  0  0  0  0  0  0  0  0
   -4.6340   -0.7500    0.3110 C   0  0  0  0  0  0  0  0  0  0  0  0
  1  2  1  0
  2  3  2  0
  2 29  1  0
  3  4  1  0
  4  5  1  0
  4  6  2  0
  6  7  1  0
  7  8  1  0
  7 29  2  0
  8  9  1  0
  9 10  1  0
  9 28  1  0
 10 11  1  0
 11 12  2  0
 11 13  1  0
 13 14  2  0
 13 27  1  0
 14 15  1  0
 15 16  1  0
 15 25  2  0
 16 17  1  0
 17 18  2  0
 17 19  1  0
 19 20  1  0
 19 24  2  0
 20 21  2  0
 21 22  1  0
 21 23  1  0
 23 24  1  0
 25 26  1  0
 26 27  2  0
 27 28  1  0
M  END
