
     RDKit          3D

 29 31  0  0  0  0  0  0  0  0999 V2000
   -1.2480    0.4030    3.0130 C   0  0  0  0  0  0  0  0  0  0  0  0
   -0.3290    0.9830    2.0000 C   0  0  0  0  0  0  0  0  0  0  0  0
   -0.7670    0.9720    0.7020 C   0  0  0  0  0  0  0  0  0  0  0  0
   -2.0390    0.4140    0.4360 C   0  0  0  0  0  0  0  0  0  0  0  0
   -2.7810    0.1480   -0.5940 C   0  0  0  0  0  0  0  0  0  0  0  0
   -2.4930    0.3550   -1.9910 C   0  0  2  0  0  0  0  0  0  0  0  0
   -3.5760    1.1520   -2.7120 C   0  0  0  0  0  0  0  0  0  0  0  0
   -2.5400   -1.0400   -2.6930 C   0  0  0  0  0  0  0  0  0  0  0  0
   -4.1140   -0.3590   -0.2940 N   0  0  0  0  0  0  0  0  0  0  0  0
   -4.7000   -1.6220   -0.6010 C   0  0  0  0  0  0  0  0  0  0  0  0
   -5.6550   -1.9060    0.5710 C   0  0  0  0  0  0  0  0  0  0  0  0
   -6.0700   -0.5490    0.9440 N   0  0  0  0  0  0  0  0  0  0  0  0
   -7.2640   -0.2790    1.7010 C   0  0  0  0  0  0  0  0  0  0  0  0
   -5.1180    0.3630    0.4370 C   0  0  0  0  0  0  0  0  0  0  0  0
   -5.1080    1.6050    0.5770 O   0  0  0  0  0  0  0  0  0  0  0  0
    0.0580    1.6410   -0.3030 C   0  0  0  0  0  0  0  0  0  0  0  0
   -0.5430    2.4470   -1.0540 O   0  0  0  0  0  0  0  0  0  0  0  0
    1.4840    1.4520   -0.4860 N   0  0  0  0  0  0  0  0  0  0  0  0
    2.3910    0.9550    0.5220 C   0  0  0  0  0  0  0  0  0  0  0  0
    3.5620    0.5670    0.0550 C   0  0  0  0  0  0  0  0  0  0  0  0
    4.6550    0.0310    0.8160 C   0  0  0  0  0  0  0  0  0  0  0  0
    4.6170   -0.1440    2.0770 O   0  0  0  0  0  0  0  0  0  0  0  0
    5.8570   -0.3340    0.1580 N   0  0  0  0  0  0  0  0  0  0  0  0
    6.0960   -0.2130   -1.2570 C   0  0  0  0  0  0  0  0  0  0  0  0
    7.3820   -0.9530   -1.5210 C   0  0  0  0  0  0  0  0  0  0  0  0
    8.1260   -0.8510   -0.2270 C   0  0  0  0  0  0  0  0  0  0  0  0
    7.0220   -0.8810    0.8090 C   0  0  0  0  0  0  0  0  0  0  0  0
    2.1820    0.8280    1.9680 C   0  0  0  0  0  0  0  0  0  0  0  0
    0.9660    1.4760    2.5400 C   0  0  0  0  0  0  0  0  0  0  0  0
  1  2  1  0
  2  3  2  0
  2 29  1  0
  3  4  1  0
  3 16  1  0
  4  5  2  3
  5  6  1  0
  5  9  1  0
  6  7  1  6
  6  8  1  0
  9 10  1  0
  9 14  1  0
 10 11  1  0
 11 12  1  0
 12 13  1  0
 12 14  1  0
 14 15  2  0
 16 17  2  0
 16 18  1  0
 18 19  1  0
 19 20  2  3
 19 28  1  0
 20 21  1  0
 21 22  2  0
 21 23  1  0
 23 24  1  0
 23 27  1  0
 24 25  1  0
 25 26  1  0
 26 27  1  0
 28 29  1  0
M  END
