
     RDKit          3D

 29 32  0  0  0  0  0  0  0  0999 V2000
    0.5390   -4.9080   -0.4170 C   0  0  0  0  0  0  0  0  0  0  0  0
    0.0130   -3.5400   -0.4870 N   0  0  0  0  0  0  0  0  0  0  0  0
    0.8610   -2.4620   -0.8460 C   0  0  0  0  0  0  0  0  0  0  0  0
    2.2160   -2.8060   -0.9710 C   0  0  0  0  0  0  0  0  0  0  0  0
    3.1630   -1.8390   -1.2090 C   0  0  0  0  0  0  0  0  0  0  0  0
    2.7220   -0.5490   -1.3160 C   0  0  0  0  0  0  0  0  0  0  0  0
    3.7220    0.4880   -1.5660 C   0  0  0  0  0  0  0  0  0  0  0  0
    3.9830    0.7580   -2.7510 O   0  0  0  0  0  0  0  0  0  0  0  0
    4.3560    1.1440   -0.4910 N   0  0  0  0  0  0  0  0  0  0  0  0
    4.1600    0.9400    0.9200 C   0  0  0  0  0  0  0  0  0  0  0  0
    4.6960    2.1550    1.6220 C   0  0  0  0  0  0  0  0  0  0  0  0
    4.9440    3.1330    0.4950 C   0  0  0  0  0  0  0  0  0  0  0  0
    5.3600    2.1840   -0.6280 C   0  0  0  0  0  0  0  0  0  0  0  0
    1.3870   -0.2480   -1.1920 C   0  0  0  0  0  0  0  0  0  0  0  0
    1.0160    0.9410   -1.2980 O   0  0  0  0  0  0  0  0  0  0  0  0
    0.4500   -1.1970   -0.9600 N   0  0  0  0  0  0  0  0  0  0  0  0
   -0.9380   -0.8690   -1.0340 C   0  0  0  0  0  0  0  0  0  0  0  0
   -1.8010   -1.6720   -1.5880 C   0  0  0  0  0  0  0  0  0  0  0  0
   -3.2370   -1.6170   -1.7970 C   0  0  0  0  0  0  0  0  0  0  0  0
   -3.6490   -2.0060   -2.9480 O   0  0  0  0  0  0  0  0  0  0  0  0
   -4.2560   -1.1660   -0.8360 C   0  0  0  0  0  0  0  0  0  0  0  0
   -3.7890    0.0200   -0.1110 C   0  0  0  0  0  0  0  0  0  0  0  0
   -4.9460    0.6100    0.1390 C   0  0  0  0  0  0  0  0  0  0  0  0
   -5.3070    1.8540    0.8330 C   0  0  0  0  0  0  0  0  0  0  0  0
   -4.5320    1.8240    2.1620 C   0  0  0  0  0  0  0  0  0  0  0  0
   -3.1520    2.2830    1.8390 C   0  0  0  0  0  0  0  0  0  0  0  0
   -2.1840    1.1620    1.5120 C   0  0  0  0  0  0  0  0  0  0  0  0
   -2.5120    0.4810    0.2670 N   0  0  0  0  0  0  0  0  0  0  0  0
   -1.2490    0.4420   -0.4010 C   0  0  0  0  0  0  0  0  0  0  0  0
  1  2  1  0
  2  3  1  0
  3  4  2  0
  3 16  1  0
  4  5  1  0
  5  6  2  0
  6  7  1  0
  6 14  1  0
  7  8  2  0
  7  9  1  0
  9 10  1  0
  9 13  1  0
 10 11  1  0
 11 12  1  0
 12 13  1  0
 14 15  2  0
 14 16  1  0
 16 17  1  0
 17 18  2  0
 17 29  1  0
 18 19  1  0
 19 20  2  0
 19 21  1  0
 21 22  1  0
 22 23  2  0
 22 28  1  0
 23 24  1  0
 24 25  1  0
 25 26  1  0
 26 27  1  0
 27 28  1  0
 28 29  1  0
M  END
