
     RDKit          3D

 29 32  0  0  0  0  0  0  0  0999 V2000
   -6.1550   -1.5880   -1.0000 C   0  0  0  0  0  0  0  0  0  0  0  0
   -5.3160   -2.3450    0.0340 C   0  0  2  0  0  0  0  0  0  0  0  0
   -5.9610   -2.1330    1.3850 C   0  0  0  0  0  0  0  0  0  0  0  0
   -3.9760   -1.7060    0.0660 C   0  0  0  0  0  0  0  0  0  0  0  0
   -3.8950   -0.3730    0.3990 C   0  0  0  0  0  0  0  0  0  0  0  0
   -2.6760    0.2400    0.4370 C   0  0  0  0  0  0  0  0  0  0  0  0
   -1.4580   -0.4070    0.1520 C   0  0  0  0  0  0  0  0  0  0  0  0
   -0.2600    0.3540    0.1510 C   0  0  0  0  0  0  0  0  0  0  0  0
    0.9660   -0.0030    0.1960 C   0  0  0  0  0  0  0  0  0  0  0  0
    1.7490   -1.1710    0.2710 C   0  0  0  0  0  0  0  0  0  0  0  0
    1.3530   -2.3340    0.3480 O   0  0  0  0  0  0  0  0  0  0  0  0
    3.2090   -1.0370    0.2590 N   0  0  0  0  0  0  0  0  0  0  0  0
    3.9540    0.1860    0.1700 C   0  0  0  0  0  0  0  0  0  0  0  0
    5.3260   -0.2160   -0.1760 C   0  0  0  0  0  0  0  0  0  0  0  0
    6.4600    0.4820   -0.5600 C   0  0  0  0  0  0  0  0  0  0  0  0
    7.6140   -0.2280   -0.8160 C   0  0  0  0  0  0  0  0  0  0  0  0
    8.6440    0.3870   -1.1640 O   0  0  0  0  0  0  0  0  0  0  0  0
    7.6970   -1.5660   -0.7110 N   0  0  0  0  0  0  0  0  0  0  0  0
    6.6050   -2.2170   -0.3430 N   0  0  0  0  0  0  0  0  0  0  0  0
    5.4400   -1.5760   -0.0770 C   0  0  0  0  0  0  0  0  0  0  0  0
    4.1480   -2.1330    0.3380 C   0  0  0  0  0  0  0  0  0  0  0  0
   -0.4510    1.8270    0.0660 N   0  0  0  0  0  0  0  0  0  0  0  0
   -0.7640    2.4900   -1.1600 C   0  0  0  0  0  0  0  0  0  0  0  0
    0.0110    3.8000   -1.1630 C   0  0  0  0  0  0  0  0  0  0  0  0
   -0.1490    4.5460   -0.0300 O   0  0  0  0  0  0  0  0  0  0  0  0
   -0.9420    3.9640    0.9430 C   0  0  0  0  0  0  0  0  0  0  0  0
   -0.3150    2.5980    1.2640 C   0  0  0  0  0  0  0  0  0  0  0  0
   -1.5840   -1.7180   -0.1730 C   0  0  0  0  0  0  0  0  0  0  0  0
   -2.8350   -2.3840   -0.2200 C   0  0  0  0  0  0  0  0  0  0  0  0
  2  1  1  6
  2  3  1  0
  2  4  1  0
  4  5  2  0
  4 29  1  0
  5  6  1  0
  6  7  2  0
  7  8  1  0
  7 28  1  0
  8  9  2  3
  8 22  1  0
  9 10  1  0
 10 11  2  0
 10 12  1  0
 12 13  1  0
 12 21  1  0
 13 14  1  0
 14 15  2  0
 14 20  1  0
 15 16  1  0
 16 17  2  0
 16 18  1  0
 18 19  1  0
 19 20  2  0
 20 21  1  0
 22 23  1  0
 22 27  1  0
 23 24  1  0
 24 25  1  0
 25 26  1  0
 26 27  1  0
 28 29  2  0
M  END
