
     RDKit          3D

 24 28  0  0  0  0  0  0  0  0999 V2000
   -6.5290    0.5870   -2.0420 N   0  0  0  0  0  0  0  0  0  0  0  0
   -5.2300    0.5020   -1.4630 C   0  0  0  0  0  0  0  0  0  0  0  0
   -4.0770    0.8140   -2.0900 N   0  0  0  0  0  0  0  0  0  0  0  0
   -3.0660    0.6210   -1.2660 N   0  0  0  0  0  0  0  0  0  0  0  0
   -3.5590    0.1880   -0.1160 C   0  0  0  0  0  0  0  0  0  0  0  0
   -2.8900   -0.1760    1.1220 C   0  0  0  0  0  0  0  0  0  0  0  0
   -3.4000   -0.6250    2.3180 C   0  0  0  0  0  0  0  0  0  0  0  0
   -2.4020   -0.8370    3.1930 N   0  0  0  0  0  0  0  0  0  0  0  0
   -1.2270   -0.5330    2.5940 C   0  0  0  0  0  0  0  0  0  0  0  0
    0.0640   -0.5630    3.0070 N   0  0  0  0  0  0  0  0  0  0  0  0
    1.0400   -0.1880    2.1520 C   0  0  0  0  0  0  0  0  0  0  0  0
    0.7800    0.2250    0.8680 C   0  0  0  0  0  0  0  0  0  0  0  0
    1.8590    0.6150   -0.0280 C   0  0  0  0  0  0  0  0  0  0  0  0
    1.9530    1.7550   -0.8100 C   0  0  0  0  0  0  0  0  0  0  0  0
    3.1150    1.7420   -1.4860 N   0  0  0  0  0  0  0  0  0  0  0  0
    3.8100    0.6300   -1.1860 C   0  0  0  0  0  0  0  0  0  0  0  0
    5.0210    0.0950   -1.5610 C   0  0  0  0  0  0  0  0  0  0  0  0
    5.4820   -1.1110   -1.0670 C   0  0  0  0  0  0  0  0  0  0  0  0
    4.6970   -1.7980   -0.1670 C   0  0  0  0  0  0  0  0  0  0  0  0
    3.4740   -1.2890    0.2300 C   0  0  0  0  0  0  0  0  0  0  0  0
    3.0470   -0.0780   -0.2860 C   0  0  0  0  0  0  0  0  0  0  0  0
   -0.5160    0.2640    0.4290 C   0  0  0  0  0  0  0  0  0  0  0  0
   -1.5290   -0.1230    1.3120 C   0  0  0  0  0  0  0  0  0  0  0  0
   -4.8820    0.1240   -0.2630 O   0  0  0  0  0  0  0  0  0  0  0  0
  1  2  1  0
  2  3  2  0
  2 24  1  0
  3  4  1  0
  4  5  2  0
  5  6  1  0
  5 24  1  0
  6  7  2  0
  6 23  1  0
  7  8  1  0
  8  9  1  0
  9 10  2  0
  9 23  1  0
 10 11  1  0
 11 12  2  0
 12 13  1  0
 12 22  1  0
 13 14  2  0
 13 21  1  0
 14 15  1  0
 15 16  1  0
 16 17  2  0
 16 21  1  0
 17 18  1  0
 18 19  2  0
 19 20  1  0
 20 21  2  0
 22 23  2  0
M  END
