
     RDKit          3D

 28 31  0  0  0  0  0  0  0  0999 V2000
    6.6010    0.3520   -0.0190 C   0  0  0  0  0  0  0  0  0  0  0  0
    4.9500    0.3980    0.6980 S   0  0  0  0  0  0  0  0  0  0  0  0
    3.6550    0.1180   -0.4760 C   0  0  0  0  0  0  0  0  0  0  0  0
    3.9710    0.0370   -1.9310 C   0  0  0  0  0  0  0  0  0  0  0  0
    2.4200   -0.0760   -0.0980 C   0  0  0  0  0  0  0  0  0  0  0  0
    1.9510   -0.0900    1.2730 C   0  0  0  0  0  0  0  0  0  0  0  0
    2.6100   -0.4030    2.3900 N   0  0  0  0  0  0  0  0  0  0  0  0
    1.8300   -0.3810    3.4400 N   0  0  0  0  0  0  0  0  0  0  0  0
    0.6060   -0.0410    3.0260 C   0  0  0  0  0  0  0  0  0  0  0  0
    0.6450    0.1540    1.6460 C   0  0  0  0  0  0  0  0  0  0  0  0
   -0.4990    0.5660    0.8460 C   0  0  0  0  0  0  0  0  0  0  0  0
   -0.7440    1.8380    0.4100 C   0  0  0  0  0  0  0  0  0  0  0  0
   -1.8540    2.2150   -0.2940 C   0  0  0  0  0  0  0  0  0  0  0  0
   -2.1410    3.5810   -0.7310 C   0  0  0  0  0  0  0  0  0  0  0  0
   -1.3670    4.6890   -0.4430 C   0  0  0  0  0  0  0  0  0  0  0  0
   -2.0290    5.7760   -1.0350 C   0  0  0  0  0  0  0  0  0  0  0  0
   -3.1120    5.2900   -1.6170 N   0  0  0  0  0  0  0  0  0  0  0  0
   -3.2030    3.9840   -1.4520 N   0  0  0  0  0  0  0  0  0  0  0  0
   -2.7940    1.2170   -0.5820 C   0  0  0  0  0  0  0  0  0  0  0  0
   -2.6040   -0.0870   -0.1710 C   0  0  0  0  0  0  0  0  0  0  0  0
   -1.4690   -0.4010    0.5340 C   0  0  0  0  0  0  0  0  0  0  0  0
   -1.1940   -1.6800    0.9830 O   0  0  0  0  0  0  0  0  0  0  0  0
   -1.9480   -2.7920    0.7560 C   0  0  0  0  0  0  0  0  0  0  0  0
   -1.6540   -3.5730   -0.3300 C   0  0  0  0  0  0  0  0  0  0  0  0
   -2.3890   -4.6980   -0.5960 C   0  0  0  0  0  0  0  0  0  0  0  0
   -3.4490   -5.0660    0.2350 C   0  0  0  0  0  0  0  0  0  0  0  0
   -3.7160   -4.2580    1.3180 C   0  0  0  0  0  0  0  0  0  0  0  0
   -2.9790   -3.1270    1.5880 C   0  0  0  0  0  0  0  0  0  0  0  0
  1  2  1  0
  2  3  1  0
  3  4  1  0
  3  5  2  3
  5  6  1  0
  6  7  1  0
  6 10  2  0
  7  8  1  0
  8  9  2  0
  9 10  1  0
 10 11  1  0
 11 12  2  0
 11 21  1  0
 12 13  1  0
 13 14  1  0
 13 19  2  0
 14 15  2  0
 14 18  1  0
 15 16  1  0
 16 17  2  0
 17 18  1  0
 19 20  1  0
 20 21  2  0
 21 22  1  0
 22 23  1  0
 23 24  2  0
 23 28  1  0
 24 25  1  0
 25 26  2  0
 26 27  1  0
 27 28  2  0
M  END
