
     RDKit          3D

 28 31  0  0  0  0  0  0  0  0999 V2000
   -6.5700    0.4820   -1.3730 C   0  0  0  0  0  0  0  0  0  0  0  0
   -6.4770   -0.2770   -0.3120 C   0  0  0  0  0  0  0  0  0  0  0  0
   -7.5990   -1.0780    0.1250 C   0  0  0  0  0  0  0  0  0  0  0  0
   -7.5510   -1.8390    1.1640 N   0  0  0  0  0  0  0  0  0  0  0  0
   -5.2670   -0.3180    0.4180 N   0  0  0  0  0  0  0  0  0  0  0  0
   -4.5770   -1.5480    0.7390 C   0  0  0  0  0  0  0  0  0  0  0  0
   -3.4750   -1.2440    1.7510 C   0  0  0  0  0  0  0  0  0  0  0  0
   -2.5920   -0.2320    1.0910 C   0  0  0  0  0  0  0  0  0  0  0  0
   -1.2950   -0.3550    0.9320 N   0  0  0  0  0  0  0  0  0  0  0  0
   -0.5630    0.5990    0.3260 C   0  0  0  0  0  0  0  0  0  0  0  0
    0.8950    0.4100    0.1730 C   0  0  0  0  0  0  0  0  0  0  0  0
    1.4770   -0.7510    0.6580 C   0  0  0  0  0  0  0  0  0  0  0  0
    2.8330   -0.9760    0.5400 C   0  0  0  0  0  0  0  0  0  0  0  0
    3.6440   -0.0370   -0.0710 C   0  0  0  0  0  0  0  0  0  0  0  0
    5.0790   -0.3070   -0.1800 C   0  0  0  0  0  0  0  0  0  0  0  0
    5.5690   -1.3860    0.2770 O   0  0  0  0  0  0  0  0  0  0  0  0
    5.9990    0.5740   -0.7760 N   0  0  0  0  0  0  0  0  0  0  0  0
    7.3870    0.3130   -0.8820 C   0  0  0  0  0  0  0  0  0  0  0  0
    8.2280   -0.6790   -0.5290 C   0  0  0  0  0  0  0  0  0  0  0  0
    9.5290   -0.5770   -0.8010 C   0  0  0  0  0  0  0  0  0  0  0  0
   10.0500    0.5070   -1.4310 C   0  0  0  0  0  0  0  0  0  0  0  0
    8.5200    1.5490   -1.6930 S   0  0  0  0  0  0  0  0  0  0  0  0
    3.0590    1.1030   -0.5450 C   0  0  0  0  0  0  0  0  0  0  0  0
    1.6900    1.3230   -0.4230 C   0  0  0  0  0  0  0  0  0  0  0  0
   -1.1800    1.7310   -0.1380 C   0  0  0  0  0  0  0  0  0  0  0  0
   -2.5340    1.8880    0.0130 C   0  0  0  0  0  0  0  0  0  0  0  0
   -3.2530    0.9100    0.6280 C   0  0  0  0  0  0  0  0  0  0  0  0
   -4.7180    0.9620    0.8530 C   0  0  0  0  0  0  0  0  0  0  0  0
  1  2  2  0
  2  3  1  0
  2  5  1  0
  3  4  2  0
  5  6  1  0
  5 28  1  0
  6  7  1  0
  7  8  1  0
  8  9  2  0
  8 27  1  0
  9 10  1  0
 10 11  1  0
 10 25  2  0
 11 12  2  0
 11 24  1  0
 12 13  1  0
 13 14  2  0
 14 15  1  0
 14 23  1  0
 15 16  2  0
 15 17  1  0
 17 18  1  0
 18 19  2  0
 18 22  1  0
 19 20  1  0
 20 21  2  0
 21 22  1  0
 23 24  2  0
 25 26  1  0
 26 27  2  0
 27 28  1  0
M  END
