
     RDKit          3D

 34 36  0  0  0  0  0  0  0  0999 V2000
    7.6350   -1.0130   -1.5850 C   0  0  0  0  0  0  0  0  0  0  0  0
    6.3400   -0.5230   -1.0050 C   0  0  0  0  0  0  0  0  0  0  0  0
    4.9490   -1.4850   -0.6740 S   0  0  0  0  0  0  0  0  0  0  0  0
    3.9090   -0.1320   -0.0220 C   0  0  0  0  0  0  0  0  0  0  0  0
    2.5710   -0.3970    0.4390 C   0  0  0  0  0  0  0  0  0  0  0  0
    2.1610   -1.7230    0.6860 C   0  0  0  0  0  0  0  0  0  0  0  0
    0.8720   -2.0160    1.0750 C   0  0  0  0  0  0  0  0  0  0  0  0
   -0.0590   -1.0110    1.2340 C   0  0  0  0  0  0  0  0  0  0  0  0
   -1.4590   -1.2740    1.6470 C   0  0  0  0  0  0  0  0  0  0  0  0
   -2.3820   -1.2480    0.6050 O   0  0  0  0  0  0  0  0  0  0  0  0
   -2.4250   -2.0290   -0.5130 C   0  0  0  0  0  0  0  0  0  0  0  0
   -1.4660   -2.8970   -0.5810 O   0  0  0  0  0  0  0  0  0  0  0  0
   -3.3950   -1.9590   -1.5640 C   0  0  0  0  0  0  0  0  0  0  0  0
   -4.4290   -1.2070   -1.6720 C   0  0  0  0  0  0  0  0  0  0  0  0
   -4.9410   -0.1870   -0.7170 C   0  0  0  0  0  0  0  0  0  0  0  0
   -5.2170    1.0680   -1.0930 C   0  0  0  0  0  0  0  0  0  0  0  0
   -5.7630    1.9640   -0.2520 C   0  0  0  0  0  0  0  0  0  0  0  0
   -6.1590    3.3740   -0.4000 C   0  0  0  0  0  0  0  0  0  0  0  0
   -5.9900    4.0600   -1.6240 N   0  0  0  0  0  0  0  0  0  0  0  0
   -6.6540    3.9310    0.6200 O   0  0  0  0  0  0  0  0  0  0  0  0
   -5.9460    1.0070    1.2860 S   0  0  0  0  0  0  0  0  0  0  0  0
   -5.2490   -0.5300    0.5890 C   0  0  0  0  0  0  0  0  0  0  0  0
   -5.2470   -1.7570    1.3340 C   0  0  0  0  0  0  0  0  0  0  0  0
   -5.1220   -3.0070    0.7070 N   0  0  0  0  0  0  0  0  0  0  0  0
   -5.3660   -1.7270    2.5810 O   0  0  0  0  0  0  0  0  0  0  0  0
    0.3050    0.2850    1.0020 C   0  0  0  0  0  0  0  0  0  0  0  0
    1.6210    0.5460    0.6090 C   0  0  0  0  0  0  0  0  0  0  0  0
    4.7390    0.9260   -0.1210 C   0  0  0  0  0  0  0  0  0  0  0  0
    4.2610    2.2840    0.4290 C   0  0  0  0  0  0  0  0  0  0  0  0
    5.9850    0.7560   -0.6220 C   0  0  0  0  0  0  0  0  0  0  0  0
    7.0520    1.8220   -0.8420 C   0  0  2  0  0  0  0  0  0  0  0  0
    6.7140    3.0610   -0.5180 F   0  0  0  0  0  0  0  0  0  0  0  0
    7.4150    1.8050   -2.1970 F   0  0  0  0  0  0  0  0  0  0  0  0
    8.2000    1.4660   -0.1570 F   0  0  0  0  0  0  0  0  0  0  0  0
  1  2  1  0
  2  3  1  0
  2 30  2  0
  3  4  1  0
  4  5  1  0
  4 28  2  0
  5  6  2  0
  5 27  1  0
  6  7  1  0
  7  8  2  0
  8  9  1  0
  8 26  1  0
  9 10  1  0
 10 11  1  0
 11 12  2  0
 11 13  1  0
 13 14  2  3
 14 15  1  0
 15 16  1  0
 15 22  2  0
 16 17  2  0
 17 18  1  0
 17 21  1  0
 18 19  1  0
 18 20  2  0
 21 22  1  0
 22 23  1  0
 23 24  1  0
 23 25  2  0
 26 27  2  0
 28 29  1  0
 28 30  1  0
 30 31  1  0
 31 32  1  1
 31 33  1  0
 31 34  1  0
M  END
