
     RDKit          3D

 35 39  0  0  0  0  0  0  0  0999 V2000
   10.6260   -0.2110    1.3970 C   0  0  0  0  0  0  0  0  0  0  0  0
    9.7840    0.9180    1.5040 O   0  0  0  0  0  0  0  0  0  0  0  0
    8.4380    0.7850    1.2010 C   0  0  0  0  0  0  0  0  0  0  0  0
    7.8570   -0.3660    0.8020 N   0  0  0  0  0  0  0  0  0  0  0  0
    6.5520   -0.4860    0.5100 C   0  0  0  0  0  0  0  0  0  0  0  0
    5.7510   -1.4780    0.1000 N   0  0  0  0  0  0  0  0  0  0  0  0
    4.4700   -1.0420   -0.0570 C   0  0  0  0  0  0  0  0  0  0  0  0
    3.3500   -1.8040   -0.4900 N   0  0  0  0  0  0  0  0  0  0  0  0
    3.5490   -3.2200   -0.7420 C   0  0  0  0  0  0  0  0  0  0  0  0
    2.4990   -3.6860   -1.7520 C   0  0  0  0  0  0  0  0  0  0  0  0
    1.1330   -3.3870   -1.2440 C   0  0  0  0  0  0  0  0  0  0  0  0
    0.9390   -1.8930   -1.1190 C   0  0  1  0  0  0  0  0  0  0  0  0
   -0.3200   -1.6310   -0.3610 C   0  0  0  0  0  0  0  0  0  0  0  0
   -0.9050   -2.6880    0.0950 O   0  0  0  0  0  0  0  0  0  0  0  0
   -0.9310   -0.4140   -0.0890 N   0  0  0  0  0  0  0  0  0  0  0  0
   -0.5220    0.9140   -0.4520 C   0  0  0  0  0  0  0  0  0  0  0  0
   -1.5270    1.4280   -1.4670 C   0  0  0  0  0  0  0  0  0  0  0  0
   -2.9010    0.8830   -1.2450 C   0  0  0  0  0  0  0  0  0  0  0  0
   -3.1420    0.6340    0.2160 C   0  0  1  0  0  0  0  0  0  0  0  0
   -4.5550    0.1840    0.5010 C   0  0  0  0  0  0  0  0  0  0  0  0
   -5.5280    1.1840    0.0820 N   0  0  2  0  0  0  0  0  0  0  0  0
   -6.3490    1.6480    1.1500 C   0  0  0  0  0  0  0  0  0  0  0  0
   -7.5990    0.8820    1.4090 C   0  0  0  0  0  0  0  0  0  0  0  0
   -8.3040    0.4360    0.1610 C   0  0  1  0  0  0  0  0  0  0  0  0
   -8.9560    1.5530   -0.6110 C   0  0  0  0  0  0  0  0  0  0  0  0
   -7.2970   -0.2800   -0.7180 C   0  0  0  0  0  0  0  0  0  0  0  0
   -6.2150    0.6850   -1.0740 C   0  0  0  0  0  0  0  0  0  0  0  0
   -2.2040   -0.4590    0.6810 C   0  0  0  0  0  0  0  0  0  0  0  0
    2.1020   -1.1050   -0.6740 C   0  0  0  0  0  0  0  0  0  0  0  0
    4.5140    0.2610    0.2750 N   0  0  0  0  0  0  0  0  0  0  0  0
    5.7430    0.6020    0.6130 N   0  0  0  0  0  0  0  0  0  0  0  0
    6.3070    1.7800    1.0140 C   0  0  0  0  0  0  0  0  0  0  0  0
    7.6440    1.9050    1.3140 C   0  0  0  0  0  0  0  0  0  0  0  0
    8.2500    3.2110    1.7490 C   0  0  0  0  0  0  0  0  0  0  0  0
    7.2240    4.1420    1.7750 O   0  0  0  0  0  0  0  0  0  0  0  0
  1  2  1  0
  2  3  1  0
  3  4  2  0
  3 33  1  0
  4  5  1  0
  5  6  2  0
  5 31  1  0
  6  7  1  0
  7  8  1  0
  7 30  2  0
  8  9  1  0
  8 29  1  0
  9 10  1  0
 10 11  1  0
 11 12  1  0
 12 13  1  1
 12 29  1  0
 13 14  2  0
 13 15  1  0
 15 16  1  0
 15 28  1  0
 16 17  1  0
 17 18  1  0
 18 19  1  0
 19 20  1  6
 19 28  1  0
 21 20  1  1
 21 22  1  0
 21 27  1  0
 22 23  1  0
 23 24  1  0
 24 25  1  6
 24 26  1  0
 26 27  1  0
 30 31  1  0
 31 32  1  0
 32 33  2  0
 33 34  1  0
 34 35  1  0
M  CHG  1  21   1
M  END
