
     RDKit          3D

 38 40  0  0  0  0  0  0  0  0999 V2000
   -8.1790    1.7970   -3.2890 C   0  0  0  0  0  0  0  0  0  0  0  0
   -6.5390    0.9910   -3.4230 S   0  0  0  0  0  0  0  0  0  0  0  0
   -5.6580    0.7900   -1.9560 C   0  0  0  0  0  0  0  0  0  0  0  0
   -6.1990    0.3370   -0.8500 N   0  0  0  0  0  0  0  0  0  0  0  0
   -5.7740    0.0850    0.4540 C   0  0  1  0  0  0  0  0  0  0  0  0
   -6.4240   -0.9520    1.3280 C   0  0  0  0  0  0  0  0  0  0  0  0
   -7.8140   -0.7600    1.5500 C   0  0  0  0  0  0  0  0  0  0  0  0
   -8.3980    0.6070    1.3650 N   0  0  0  0  0  0  0  0  0  0  0  0
   -8.6670   -1.5780    1.8960 O   0  0  0  0  0  0  0  0  0  0  0  0
   -3.9260   -0.1780    0.4880 S   0  0  0  0  0  0  0  0  0  0  0  0
   -3.4010    0.6050   -0.9920 C   0  0  0  0  0  0  0  0  0  0  0  0
   -2.0070    1.1430   -0.9460 N   0  0  0  0  0  0  0  0  0  0  0  0
   -1.0600    0.8090   -0.0250 C   0  0  0  0  0  0  0  0  0  0  0  0
   -1.7420   -0.2510    0.7830 O   0  0  0  0  0  0  0  0  0  0  0  0
    0.1350    0.9500    0.6160 C   0  0  0  0  0  0  0  0  0  0  0  0
    1.0170    1.9720    0.5830 C   0  0  0  0  0  0  0  0  0  0  0  0
    2.2430    2.0350    1.4000 N   0  0  0  0  0  0  0  0  0  0  0  0
    2.3410    1.4340    2.5640 C   0  0  0  0  0  0  0  0  0  0  0  0
    1.3810    0.6130    3.2360 N   0  0  0  0  0  0  0  0  0  0  0  0
    0.6200   -0.4490    2.5370 C   0  0  0  0  0  0  0  0  0  0  0  0
   -0.0170   -1.2650    3.2150 O   0  0  0  0  0  0  0  0  0  0  0  0
    0.6340   -0.4730    1.0470 C   0  0  2  0  0  0  0  0  0  0  0  0
    2.0690   -0.5380    0.7190 N   0  0  0  0  0  0  0  0  0  0  0  0
    2.6920   -1.5230   -0.0050 C   0  0  0  0  0  0  0  0  0  0  0  0
    1.9560   -2.4590   -0.5060 O   0  0  0  0  0  0  0  0  0  0  0  0
    4.0120   -1.7540   -0.2780 N   0  0  0  0  0  0  0  0  0  0  0  0
    5.2820   -2.2080   -0.6470 C   0  0  0  0  0  0  0  0  0  0  0  0
    5.2470   -3.3050   -1.2490 O   0  0  0  0  0  0  0  0  0  0  0  0
    6.3880   -1.4950   -0.3220 N   0  0  0  0  0  0  0  0  0  0  0  0
    7.7500   -1.7130   -0.5850 C   0  0  2  0  0  0  0  0  0  0  0  0
    8.5330   -0.9710    0.5040 C   0  0  0  0  0  0  0  0  0  0  0  0
    9.5840   -0.3340   -0.2750 C   0  0  0  0  0  0  0  0  0  0  0  0
    8.8840    0.1570   -1.4600 O   0  0  0  0  0  0  0  0  0  0  0  0
    8.0440   -0.8720   -1.8430 C   0  0  0  0  0  0  0  0  0  0  0  0
    7.6220   -1.0590   -2.9800 O   0  0  0  0  0  0  0  0  0  0  0  0
   -4.2000    0.9050   -1.8500 C   0  0  0  0  0  0  0  0  0  0  0  0
   -3.4800    1.9530   -2.9300 C   0  0  0  0  0  0  0  0  0  0  0  0
   -3.0940    2.5010   -3.4920 N   0  0  0  0  0  0  0  0  0  0  0  0
  1  2  1  0
  2  3  1  0
  3  4  2  0
  3 36  1  0
  4  5  1  0
  5  6  1  6
  5 10  1  0
  6  7  1  0
  7  8  1  0
  7  9  2  0
 10 11  1  0
 11 12  1  0
 11 36  2  0
 12 13  1  0
 13 14  2  0
 13 15  1  0
 15 16  2  0
 15 22  1  0
 16 17  1  0
 17 18  2  0
 18 19  1  0
 19 20  1  0
 20 21  2  0
 20 22  1  0
 22 23  1  1
 23 24  1  0
 24 25  2  0
 24 26  1  0
 26 27  1  0
 27 28  2  0
 27 29  1  0
 30 29  1  1
 30 31  1  0
 30 34  1  0
 31 32  1  0
 32 33  1  0
 33 34  1  0
 34 35  2  0
 36 37  1  0
 37 38  3  0
M  END
