
     RDKit          3D

 38 42  0  0  0  0  0  0  0  0999 V2000
   -5.5420   -3.9560   -4.1820 C   0  0  0  0  0  0  0  0  0  0  0  0
   -4.6840   -3.0880   -3.3310 C   0  0  0  0  0  0  0  0  0  0  0  0
   -3.3750   -3.3450   -3.1820 N   0  0  0  0  0  0  0  0  0  0  0  0
   -2.5910   -2.5500   -2.4170 C   0  0  0  0  0  0  0  0  0  0  0  0
   -1.2130   -2.7930   -2.2660 N   0  0  0  0  0  0  0  0  0  0  0  0
   -0.4160   -1.9100   -1.4950 C   0  0  0  0  0  0  0  0  0  0  0  0
   -0.3420   -0.9650   -0.8240 N   0  0  0  0  0  0  0  0  0  0  0  0
    0.6910   -0.3870   -0.2670 C   0  0  0  0  0  0  0  0  0  0  0  0
    1.8960   -0.9390   -0.4730 C   0  0  0  0  0  0  0  0  0  0  0  0
    3.2550   -0.6370   -0.0840 C   0  0  0  0  0  0  0  0  0  0  0  0
    4.1430   -1.4090   -0.4980 O   0  0  0  0  0  0  0  0  0  0  0  0
    3.5970    0.4630    0.7150 N   0  0  0  0  0  0  0  0  0  0  0  0
    4.8880    0.8480    1.1390 C   0  0  0  0  0  0  0  0  0  0  0  0
    5.0150    2.0150    1.9100 C   0  0  0  0  0  0  0  0  0  0  0  0
    6.2370    2.4620    2.3460 C   0  0  0  0  0  0  0  0  0  0  0  0
    7.3970    1.7760    2.0420 C   0  0  0  0  0  0  0  0  0  0  0  0
    8.6270    2.2380    2.4870 O   0  0  0  0  0  0  0  0  0  0  0  0
    9.7990    1.5790    2.2040 C   0  0  0  0  0  0  0  0  0  0  0  0
   10.2840    0.5980    3.0460 C   0  0  0  0  0  0  0  0  0  0  0  0
   11.4570   -0.0720    2.7750 C   0  0  0  0  0  0  0  0  0  0  0  0
   12.1700    0.2360    1.6430 C   0  0  0  0  0  0  0  0  0  0  0  0
   11.7060    1.2140    0.7860 C   0  0  0  0  0  0  0  0  0  0  0  0
   10.5180    1.8780    1.0750 C   0  0  0  0  0  0  0  0  0  0  0  0
    7.2680    0.6430    1.2950 C   0  0  0  0  0  0  0  0  0  0  0  0
    6.0200    0.1650    0.8360 C   0  0  0  0  0  0  0  0  0  0  0  0
    1.4530   -2.3560   -1.5270 S   0  0  0  0  0  0  0  0  0  0  0  0
   -3.1660   -1.4690   -1.7930 C   0  0  0  0  0  0  0  0  0  0  0  0
   -4.5290   -1.2060   -1.9510 C   0  0  0  0  0  0  0  0  0  0  0  0
   -5.0600   -0.0970   -1.2690 N   0  0  0  0  0  0  0  0  0  0  0  0
   -4.5180    0.3300    0.0010 C   0  0  0  0  0  0  0  0  0  0  0  0
   -5.6620    0.4950    1.0080 C   0  0  0  0  0  0  0  0  0  0  0  0
   -6.7230    1.2970    0.4180 N   0  0  2  0  0  0  0  0  0  0  0  0
   -7.7480    1.4570    1.4110 C   0  0  0  0  0  0  0  0  0  0  0  0
   -9.1390    1.5760    0.9010 C   0  0  0  0  0  0  0  0  0  0  0  0
   -9.5580    0.4590    0.2070 O   0  0  0  0  0  0  0  0  0  0  0  0
   -7.2500    0.7460   -0.7840 C   0  0  0  0  0  0  0  0  0  0  0  0
   -6.1430    0.6510   -1.8390 C   0  0  0  0  0  0  0  0  0  0  0  0
   -5.2310   -2.0290   -2.7160 N   0  0  0  0  0  0  0  0  0  0  0  0
  1  2  1  0
  2  3  2  0
  2 38  1  0
  3  4  1  0
  4  5  1  0
  4 27  2  0
  5  6  1  0
  6  7  2  0
  6 26  1  0
  7  8  1  0
  8  9  2  0
  9 10  1  0
  9 26  1  0
 10 11  2  0
 10 12  1  0
 12 13  1  0
 13 14  2  0
 13 25  1  0
 14 15  1  0
 15 16  2  0
 16 17  1  0
 16 24  1  0
 17 18  1  0
 18 19  2  0
 18 23  1  0
 19 20  1  0
 20 21  2  0
 21 22  1  0
 22 23  2  0
 24 25  2  0
 27 28  1  0
 28 29  1  0
 28 38  2  0
 29 30  1  0
 29 37  1  0
 30 31  1  0
 31 32  1  0
 32 33  1  1
 32 36  1  0
 33 34  1  0
 34 35  1  0
 36 37  1  0
M  CHG  1  32   1
M  END
