
     RDKit          3D

 38 40  0  0  0  0  0  0  0  0999 V2000
   -4.6330   -0.2530    2.4980 C   0  0  0  0  0  0  0  0  0  0  0  0
   -3.6960   -0.2850    1.3420 C   0  0  0  0  0  0  0  0  0  0  0  0
   -3.2090   -1.3930    0.9700 N   0  0  0  0  0  0  0  0  0  0  0  0
   -2.3130   -1.6170   -0.0940 C   0  0  0  0  0  0  0  0  0  0  0  0
   -1.8440   -2.8140   -0.3920 C   0  0  0  0  0  0  0  0  0  0  0  0
   -2.2260   -4.0150    0.3720 C   0  0  1  0  0  0  0  0  0  0  0  0
   -3.6160   -4.3020    0.3920 N   0  0  0  0  0  0  0  0  0  0  0  0
   -4.0520   -4.7540   -0.8900 C   0  0  0  0  0  0  0  0  0  0  0  0
   -3.2780   -6.0700   -1.0880 C   0  0  0  0  0  0  0  0  0  0  0  0
   -1.6380   -5.5030   -0.5120 S   0  0  0  0  0  0  0  0  0  0  0  0
   -0.8610   -5.1020   -1.7430 O   0  0  0  0  0  0  0  0  0  0  0  0
   -1.9010   -0.4090   -0.8620 C   0  0  0  0  0  0  0  0  0  0  0  0
   -0.8410   -0.6080   -2.2040 S   0  0  2  0  0  0  0  0  0  0  0  0
   -0.9000    0.6220   -3.0680 O   0  0  0  0  0  0  0  0  0  0  0  0
   -1.2540   -1.7300   -3.1240 O   0  0  0  0  0  0  0  0  0  0  0  0
    0.8240   -0.7740   -1.7600 N   0  0  0  0  0  0  0  0  0  0  0  0
    1.4640    0.0200   -0.7770 C   0  0  0  0  0  0  0  0  0  0  0  0
    0.8020    0.8990   -0.1890 O   0  0  0  0  0  0  0  0  0  0  0  0
    2.8910   -0.2040   -0.4670 C   0  0  0  0  0  0  0  0  0  0  0  0
    3.4640    0.7160    0.5540 C   0  0  0  0  0  0  0  0  0  0  0  0
    4.9040    0.3450    0.7400 C   0  0  0  0  0  0  0  0  0  0  0  0
    5.4150   -0.6340    0.0930 O   0  0  0  0  0  0  0  0  0  0  0  0
    5.7820    1.0330    1.6230 N   0  0  0  0  0  0  0  0  0  0  0  0
    7.1320    0.6100    1.7360 N   0  0  0  0  0  0  0  0  0  0  0  0
    8.0010    0.5320    0.6170 C   0  0  0  0  0  0  0  0  0  0  0  0
    7.5120    0.8610   -0.4960 O   0  0  0  0  0  0  0  0  0  0  0  0
    9.3870    0.0960    0.7160 C   0  0  0  0  0  0  0  0  0  0  0  0
   10.1900    0.0440   -0.4500 N   0  0  0  0  0  0  0  0  0  0  0  0
    9.8720   -0.2300    1.8190 O   0  0  0  0  0  0  0  0  0  0  0  0
   -2.3960    0.7560   -0.4920 C   0  0  0  0  0  0  0  0  0  0  0  0
   -2.0770    1.9750   -1.1500 N   0  0  0  0  0  0  0  0  0  0  0  0
   -1.6870    3.0730   -0.3330 N   0  0  0  0  0  0  0  0  0  0  0  0
   -2.6010    4.1560   -0.1300 C   0  0  0  0  0  0  0  0  0  0  0  0
   -3.1820    4.8420   -1.0950 C   0  0  0  0  0  0  0  0  0  0  0  0
   -4.0600    5.8830   -0.4990 C   0  0  0  0  0  0  0  0  0  0  0  0
   -3.8920    5.6880    0.9650 C   0  0  0  0  0  0  0  0  0  0  0  0
   -3.0460    4.6870    1.1480 C   0  0  0  0  0  0  0  0  0  0  0  0
   -3.3170    0.8680    0.6270 N   0  0  0  0  0  0  0  0  0  0  0  0
  1  2  1  0
  2  3  2  0
  2 38  1  0
  3  4  1  0
  4  5  2  3
  4 12  1  0
  6  5  1  6
  6  7  1  0
  6 10  1  0
  7  8  1  0
  8  9  1  0
 10  9  1  6
 10 11  2  0
 12 13  1  0
 12 30  2  0
 13 14  2  0
 13 15  2  0
 13 16  1  1
 16 17  1  0
 17 18  2  0
 17 19  1  0
 19 20  1  0
 20 21  1  0
 21 22  2  0
 21 23  1  0
 23 24  1  0
 24 25  1  0
 25 26  2  0
 25 27  1  0
 27 28  1  0
 27 29  2  0
 30 31  1  0
 30 38  1  0
 31 32  1  0
 32 33  1  0
 33 34  2  0
 33 37  1  0
 34 35  1  0
 35 36  1  0
 36 37  2  0
M  END
