
     RDKit          3D

 38 40  0  0  0  0  0  0  0  0999 V2000
   -5.8470    5.8690    0.8960 C   0  0  0  0  0  0  0  0  0  0  0  0
   -5.4300    4.5120    0.7930 C   0  0  0  0  0  0  0  0  0  0  0  0
   -6.3530    3.6310    1.0840 O   0  0  0  0  0  0  0  0  0  0  0  0
   -4.1720    3.9180    0.3890 N   0  0  0  0  0  0  0  0  0  0  0  0
   -4.2400    2.5610    0.2900 N   0  0  0  0  0  0  0  0  0  0  0  0
   -3.5710    1.6200    1.1620 C   0  0  0  0  0  0  0  0  0  0  0  0
   -2.9610    1.9950    2.1520 O   0  0  0  0  0  0  0  0  0  0  0  0
   -3.7090    0.1380    0.7090 C   0  0  0  0  0  0  0  0  0  0  0  0
   -2.8540    0.2540   -0.6080 C   0  0  2  0  0  0  0  0  0  0  0  0
   -3.0070   -0.9400   -1.2790 N   0  0  0  0  0  0  0  0  0  0  0  0
   -2.4950   -2.4640   -0.9510 S   0  0  2  0  0  0  0  0  0  0  0  0
   -1.5780   -2.7420    0.1690 O   0  0  0  0  0  0  0  0  0  0  0  0
   -1.8660   -3.0690   -2.2400 O   0  0  0  0  0  0  0  0  0  0  0  0
   -3.9220   -3.5250   -0.6580 C   0  0  0  0  0  0  0  0  0  0  0  0
   -4.5510   -4.0840   -1.6770 C   0  0  0  0  0  0  0  0  0  0  0  0
   -5.6630   -4.9270   -1.4170 N   0  0  0  0  0  0  0  0  0  0  0  0
   -5.8850   -5.4480   -0.0860 C   0  0  0  0  0  0  0  0  0  0  0  0
   -5.6200   -4.4380    0.8870 O   0  0  0  0  0  0  0  0  0  0  0  0
   -4.3980   -3.6620    0.6530 C   0  0  0  0  0  0  0  0  0  0  0  0
   -3.9850   -3.1650    1.7150 O   0  0  0  0  0  0  0  0  0  0  0  0
   -1.5780    0.6020   -0.3530 C   0  0  0  0  0  0  0  0  0  0  0  0
   -0.6790   -0.3860   -0.5190 O   0  0  0  0  0  0  0  0  0  0  0  0
   -0.8270    2.0170    0.1500 N   0  0  0  0  0  0  0  0  0  0  0  0
    0.5750    1.5560    0.3910 C   0  0  0  0  0  0  0  0  0  0  0  0
    0.9280    0.5090    0.9300 O   0  0  0  0  0  0  0  0  0  0  0  0
    1.5270    2.4620   -0.0800 N   0  0  0  0  0  0  0  0  0  0  0  0
    2.8710    2.3010    0.2590 C   0  0  0  0  0  0  0  0  0  0  0  0
    3.5490    1.0210    0.0060 C   0  0  0  0  0  0  0  0  0  0  0  0
    2.9000    0.0590   -0.6280 O   0  0  0  0  0  0  0  0  0  0  0  0
    4.8010    0.7300    0.3390 O   0  0  0  0  0  0  0  0  0  0  0  0
    5.5910   -0.2780    0.1060 C   0  0  2  0  0  0  0  0  0  0  0  0
    5.7790   -1.5540    0.9640 C   0  0  0  0  0  0  0  0  0  0  0  0
    6.7450   -2.2780   -0.0450 C   0  0  0  0  0  0  0  0  0  0  0  0
    7.7530   -1.1480   -0.1520 C   0  0  0  0  0  0  0  0  0  0  0  0
    9.0360   -0.8960   -0.2950 C   0  0  0  0  0  0  0  0  0  0  0  0
    9.2290    0.5800   -0.2870 C   0  0  0  0  0  0  0  0  0  0  0  0
    7.8640    1.1240   -0.0190 C   0  0  0  0  0  0  0  0  0  0  0  0
    7.0630    0.0570   -0.0350 C   0  0  0  0  0  0  0  0  0  0  0  0
  1  2  1  0
  2  3  2  0
  2  4  1  0
  4  5  1  0
  5  6  1  0
  6  7  2  0
  6  8  1  0
  9  8  1  1
  9 10  1  0
  9 21  1  0
 11 10  1  6
 11 12  2  0
 11 13  2  0
 11 14  1  0
 14 15  2  0
 14 19  1  0
 15 16  1  0
 16 17  1  0
 17 18  1  0
 18 19  1  0
 19 20  2  0
 21 22  2  0
 21 23  1  0
 23 24  1  0
 24 25  2  0
 24 26  1  0
 26 27  1  0
 27 28  1  0
 28 29  2  0
 28 30  1  0
 31 30  1  1
 31 32  1  0
 31 38  1  0
 32 33  1  0
 33 34  1  0
 34 35  2  0
 34 38  1  0
 35 36  1  0
 36 37  1  0
 37 38  2  0
M  END
