
     RDKit          3D

 38 42  0  0  0  0  0  0  0  0999 V2000
    3.1230   -0.2260   -3.0650 N   0  0  0  0  0  0  0  0  0  0  0  0
    1.8680   -0.3130   -2.4200 C   0  0  0  0  0  0  0  0  0  0  0  0
    0.8600    0.1610   -2.9930 O   0  0  0  0  0  0  0  0  0  0  0  0
    1.7130   -0.9430   -1.0960 C   0  0  2  0  0  0  0  0  0  0  0  0
    0.3920   -0.8460   -0.6670 O   0  0  0  0  0  0  0  0  0  0  0  0
   -0.3230    0.2860   -0.3760 C   0  0  0  0  0  0  0  0  0  0  0  0
    0.2440    1.5230   -0.4930 C   0  0  0  0  0  0  0  0  0  0  0  0
   -0.5100    2.6270   -0.1910 C   0  0  0  0  0  0  0  0  0  0  0  0
   -1.8460    2.5350    0.2370 C   0  0  0  0  0  0  0  0  0  0  0  0
   -2.4930    3.6990    0.5080 O   0  0  0  0  0  0  0  0  0  0  0  0
   -2.4270    1.2930    0.3580 C   0  0  0  0  0  0  0  0  0  0  0  0
   -3.7970    1.0730    0.7890 C   0  0  0  0  0  0  0  0  0  0  0  0
   -4.5930    2.0250    1.0970 O   0  0  0  0  0  0  0  0  0  0  0  0
   -4.4010   -0.2090    0.9170 N   0  0  0  0  0  0  0  0  0  0  0  0
   -5.7690   -0.3960    1.3490 C   0  0  2  0  0  0  0  0  0  0  0  0
   -5.8560   -1.2060    2.5890 C   0  0  0  0  0  0  0  0  0  0  0  0
   -5.8160   -0.8470    3.7970 O   0  0  0  0  0  0  0  0  0  0  0  0
   -6.0000   -2.5540    2.1710 N   0  0  0  0  0  0  0  0  0  0  0  0
   -6.7140   -2.5760    0.9130 C   0  0  0  0  0  0  0  0  0  0  0  0
   -6.6090   -1.1690    0.4030 C   0  0  2  0  0  0  0  0  0  0  0  0
   -6.0500   -1.0740   -1.3160 S   0  0  0  0  0  0  0  0  0  0  0  0
   -7.1460    0.1610   -1.9850 C   0  0  0  0  0  0  0  0  0  0  0  0
   -8.1420    0.4210   -1.2790 N   0  0  0  0  0  0  0  0  0  0  0  0
   -8.2840   -0.4430    0.1980 S   0  0  0  0  0  0  0  0  0  0  0  0
   -1.6570    0.1980    0.0510 C   0  0  0  0  0  0  0  0  0  0  0  0
    2.6590   -0.4520   -0.0820 C   0  0  0  0  0  0  0  0  0  0  0  0
    2.2110   -0.0280    1.0210 O   0  0  0  0  0  0  0  0  0  0  0  0
    4.0580   -0.4430   -0.3070 N   0  0  0  0  0  0  0  0  0  0  0  0
    4.9540    0.0350    0.6810 N   0  0  0  0  0  0  0  0  0  0  0  0
    4.6670    0.5130    1.8770 N   0  0  0  0  0  0  0  0  0  0  0  0
    5.7870    0.8640    2.5210 N   0  0  0  0  0  0  0  0  0  0  0  0
    6.8160    0.6070    1.7210 C   0  0  0  0  0  0  0  0  0  0  0  0
    8.1430    0.7500    1.8300 N   0  0  0  0  0  0  0  0  0  0  0  0
    8.9850    0.4010    0.8450 C   0  0  0  0  0  0  0  0  0  0  0  0
   10.3430    0.5780    1.0290 O   0  0  0  0  0  0  0  0  0  0  0  0
    8.5020   -0.1220   -0.3230 C   0  0  0  0  0  0  0  0  0  0  0  0
    7.1420   -0.2810   -0.4630 C   0  0  0  0  0  0  0  0  0  0  0  0
    6.3060    0.0830    0.5570 C   0  0  0  0  0  0  0  0  0  0  0  0
  1  2  1  0
  2  3  2  0
  2  4  1  0
  4  5  1  1
  4 26  1  0
  5  6  1  0
  6  7  2  0
  6 25  1  0
  7  8  1  0
  8  9  2  0
  9 10  1  0
  9 11  1  0
 11 12  1  0
 11 25  2  0
 12 13  2  0
 12 14  1  0
 15 14  1  6
 15 16  1  0
 15 20  1  0
 16 17  2  0
 16 18  1  0
 18 19  1  0
 20 19  1  1
 20 21  1  0
 20 24  1  0
 21 22  1  0
 22 23  2  0
 23 24  1  0
 26 27  2  0
 26 28  1  0
 28 29  1  0
 29 30  1  0
 29 38  1  0
 30 31  2  0
 31 32  1  0
 32 33  2  0
 32 38  1  0
 33 34  1  0
 34 35  1  0
 34 36  2  0
 36 37  1  0
 37 38  2  0
M  END
