
     RDKit          3D

 38 41  0  0  0  0  0  0  0  0999 V2000
   -4.8920    2.3960    0.1380 C   0  0  0  0  0  0  0  0  0  0  0  0
   -3.6880    1.4300    0.0380 C   0  0  2  0  0  0  0  0  0  0  0  0
   -2.6530    2.1930   -0.6950 C   0  0  0  0  0  0  0  0  0  0  0  0
   -1.3470    1.5520   -0.8610 N   0  0  0  0  0  0  0  0  0  0  0  0
   -1.0620    0.3980   -1.5880 C   0  0  0  0  0  0  0  0  0  0  0  0
   -2.0890   -0.0970   -2.2000 O   0  0  0  0  0  0  0  0  0  0  0  0
    0.1600   -0.3460   -1.7650 C   0  0  0  0  0  0  0  0  0  0  0  0
    1.3000   -0.0960   -1.1520 C   0  0  0  0  0  0  0  0  0  0  0  0
    1.5380    0.9440   -0.1420 C   0  0  0  0  0  0  0  0  0  0  0  0
    2.7130    1.7670   -0.6730 C   0  0  1  0  0  0  0  0  0  0  0  0
    2.7480    3.1330   -0.1580 C   0  0  0  0  0  0  0  0  0  0  0  0
    3.9120    0.9070   -0.3490 C   0  0  0  0  0  0  0  0  0  0  0  0
    4.9650    1.1980    0.3180 N   0  0  0  0  0  0  0  0  0  0  0  0
    5.8860    0.3260    0.5360 C   0  0  0  0  0  0  0  0  0  0  0  0
    7.0560    0.4380    1.2680 N   0  0  0  0  0  0  0  0  0  0  0  0
    8.0340   -0.6900    1.3390 C   0  0  0  0  0  0  0  0  0  0  0  0
    7.7420   -1.6450    0.6680 O   0  0  0  0  0  0  0  0  0  0  0  0
    9.0520   -0.3110    2.1990 N   0  0  0  0  0  0  0  0  0  0  0  0
   10.0790   -1.6470    1.8160 C   0  0  0  0  0  0  0  0  0  0  0  0
   11.2550   -1.6200    2.5550 N   0  0  0  0  0  0  0  0  0  0  0  0
    9.6810   -2.3930    1.0100 O   0  0  0  0  0  0  0  0  0  0  0  0
    5.2060   -1.1290   -0.3090 S   0  0  0  0  0  0  0  0  0  0  0  0
    3.7390   -0.3780   -0.8640 C   0  0  0  0  0  0  0  0  0  0  0  0
    2.5660   -0.7490   -1.6450 C   0  0  1  0  0  0  0  0  0  0  0  0
    2.3800   -2.1250   -1.8470 N   0  0  0  0  0  0  0  0  0  0  0  0
    1.1660   -2.4550   -2.5660 C   0  0  0  0  0  0  0  0  0  0  0  0
    1.1270   -3.5540   -3.2240 O   0  0  0  0  0  0  0  0  0  0  0  0
    0.0740   -1.5940   -2.5310 N   0  0  0  0  0  0  0  0  0  0  0  0
   -4.0890    0.2600   -0.6460 N   0  0  0  0  0  0  0  0  0  0  0  0
   -4.1850   -1.1740    0.2620 S   0  0  2  0  0  0  0  0  0  0  0  0
   -2.9030   -1.2990    1.0430 O   0  0  0  0  0  0  0  0  0  0  0  0
   -4.1870   -2.3340   -0.7090 O   0  0  0  0  0  0  0  0  0  0  0  0
   -5.5270   -1.1810    1.2840 N   0  0  0  0  0  0  0  0  0  0  0  0
   -6.8170   -1.3880    0.7540 C   0  0  1  0  0  0  0  0  0  0  0  0
   -7.5300   -0.2010    0.1410 C   0  0  0  0  0  0  0  0  0  0  0  0
   -7.0310   -2.6820   -0.0210 C   0  0  0  0  0  0  0  0  0  0  0  0
   -8.2140   -2.9210    0.6610 O   0  0  0  0  0  0  0  0  0  0  0  0
   -7.7160   -2.1640    1.7010 C   0  0  0  0  0  0  0  0  0  0  0  0
  2  1  1  6
  2  3  1  0
  2 29  1  0
  3  4  1  0
  4  5  1  0
  5  6  2  0
  5  7  1  0
  7  8  2  0
  7 28  1  0
  8  9  1  0
  8 24  1  0
  9 10  1  0
 10 11  1  1
 10 12  1  0
 12 13  1  0
 12 23  2  0
 13 14  2  0
 14 15  1  0
 14 22  1  0
 15 16  1  0
 16 17  2  0
 16 18  1  0
 18 19  1  0
 19 20  1  0
 19 21  2  0
 22 23  1  0
 23 24  1  0
 24 25  1  1
 25 26  1  0
 26 27  2  0
 26 28  1  0
 30 29  1  6
 30 31  2  0
 30 32  2  0
 30 33  1  0
 33 34  1  0
 34 35  1  6
 34 36  1  0
 34 38  1  0
 36 37  1  0
 37 38  1  0
M  END
