
     RDKit          3D

 25 26  0  0  0  0  0  0  0  0999 V2000
    6.9940    0.9820   -1.8350 N   0  0  0  0  0  0  0  0  0  0  0  0
    5.9780    0.4910   -1.5790 C   0  0  0  0  0  0  0  0  0  0  0  0
    4.6750   -0.1310   -1.2380 C   0  0  1  0  0  0  0  0  0  0  0  0
    4.8550   -1.5970   -1.3230 C   0  0  0  0  0  0  0  0  0  0  0  0
    4.1400   -2.2150   -2.1540 O   0  0  0  0  0  0  0  0  0  0  0  0
    5.7360   -2.3170   -0.5690 O   0  0  0  0  0  0  0  0  0  0  0  0
    4.2060    0.3130    0.4650 S   0  0  0  0  0  0  0  0  0  0  0  0
    2.4890    0.9090    0.3510 C   0  0  0  0  0  0  0  0  0  0  0  0
    1.6960    0.0540   -0.6180 C   0  0  1  0  0  0  0  0  0  0  0  0
    0.3920    0.6020   -0.6380 O   0  0  0  0  0  0  0  0  0  0  0  0
   -0.7020   -0.1290   -0.2090 C   0  0  0  0  0  0  0  0  0  0  0  0
   -0.4690   -1.2950    0.1940 O   0  0  0  0  0  0  0  0  0  0  0  0
   -2.0720    0.4600   -0.2350 C   0  0  2  0  0  0  0  0  0  0  0  0
   -1.9880    1.7620   -0.7380 O   0  0  0  0  0  0  0  0  0  0  0  0
   -2.5870    0.5350    1.1860 C   0  0  2  0  0  0  0  0  0  0  0  0
   -1.6310    1.3140    1.8830 O   0  0  0  0  0  0  0  0  0  0  0  0
   -2.5850   -0.8610    1.7620 C   0  0  0  0  0  0  0  0  0  0  0  0
   -3.8900   -1.0120    2.5510 C   0  0  0  0  0  0  0  0  0  0  0  0
   -4.9960   -0.9080    1.4950 C   0  0  0  0  0  0  0  0  0  0  0  0
   -4.8930    0.4580    0.8790 C   0  0  2  0  0  0  0  0  0  0  0  0
   -4.9610    0.4290   -0.5180 O   0  0  0  0  0  0  0  0  0  0  0  0
   -3.7950    1.1830    1.2820 O   0  0  0  0  0  0  0  0  0  0  0  0
    2.2640   -0.0030   -1.9760 C   0  0  0  0  0  0  0  0  0  0  0  0
    3.6610    0.4110   -2.1590 C   0  0  1  0  0  0  0  0  0  0  0  0
    3.7270    1.8130   -2.1150 O   0  0  0  0  0  0  0  0  0  0  0  0
  1  2  3  0
  3  2  1  6
  3  4  1  0
  3  7  1  0
  3 24  1  0
  4  5  2  0
  4  6  1  0
  7  8  1  0
  8  9  1  0
  9 10  1  6
  9 23  1  0
 10 11  1  0
 11 12  2  0
 11 13  1  0
 13 14  1  1
 13 15  1  0
 15 16  1  1
 15 17  1  0
 15 22  1  0
 17 18  1  0
 18 19  1  0
 19 20  1  0
 20 21  1  6
 20 22  1  0
 23 24  1  0
 24 25  1  1
M  END
