
     RDKit          3D

 24 25  0  0  0  0  0  0  0  0999 V2000
    5.6560    0.1840   -0.5090 N   0  0  0  0  0  0  0  0  0  0  0  0
    4.3300   -0.3630   -0.7360 C   0  0  0  0  0  0  0  0  0  0  0  0
    3.4960   -0.1700    0.5200 C   0  0  2  0  0  0  0  0  0  0  0  0
    2.2050   -0.7010    0.3030 O   0  0  0  0  0  0  0  0  0  0  0  0
    1.6770   -1.7410    1.0300 C   0  0  0  0  0  0  0  0  0  0  0  0
    2.3690   -2.2570    1.9380 O   0  0  0  0  0  0  0  0  0  0  0  0
    0.3380   -2.2480    0.7620 C   0  0  1  0  0  0  0  0  0  0  0  0
   -0.7540   -1.2530    0.9220 C   0  0  0  0  0  0  0  0  0  0  0  0
   -1.1480   -0.7600   -0.4470 C   0  0  2  0  0  0  0  0  0  0  0  0
   -0.0110   -0.1520   -1.0090 O   0  0  0  0  0  0  0  0  0  0  0  0
   -2.2350    0.2310   -0.4200 C   0  0  1  0  0  0  0  0  0  0  0  0
   -2.4710    0.7920   -1.8230 C   0  0  0  0  0  0  0  0  0  0  0  0
   -3.4990    1.7520   -1.7820 O   0  0  0  0  0  0  0  0  0  0  0  0
   -3.5380   -0.3880    0.0850 C   0  0  0  0  0  0  0  0  0  0  0  0
   -4.0970    0.5410    1.1230 C   0  0  0  0  0  0  0  0  0  0  0  0
   -2.8720    1.1850    1.7030 C   0  0  0  0  0  0  0  0  0  0  0  0
   -2.0050    1.4060    0.4730 C   0  0  0  0  0  0  0  0  0  0  0  0
   -1.4210   -1.9890   -1.2760 C   0  0  1  0  0  0  0  0  0  0  0  0
   -1.5580   -1.7890   -2.6110 O   0  0  0  0  0  0  0  0  0  0  0  0
    0.1470   -2.9050   -0.9180 S   0  0  0  0  0  0  0  0  0  0  0  0
    3.3750    1.2790    0.8260 C   0  0  0  0  0  0  0  0  0  0  0  0
    2.2470    1.8410    0.8600 O   0  0  0  0  0  0  0  0  0  0  0  0
    4.4790    2.0670    1.0840 O   0  0  0  0  0  0  0  0  0  0  0  0
    4.3960    3.3560    1.3580 O   0  0  0  0  0  0  0  0  0  0  0  0
  1  2  1  0
  3  2  1  6
  3  4  1  0
  3 21  1  0
  4  5  1  0
  5  6  2  0
  7  5  1  6
  7  8  1  0
  7 20  1  0
  8  9  1  0
  9 10  1  6
  9 11  1  0
  9 18  1  0
 11 12  1  6
 11 14  1  0
 11 17  1  0
 12 13  1  0
 14 15  1  0
 15 16  1  0
 16 17  1  0
 18 19  1  6
 18 20  1  0
 21 22  2  0
 21 23  1  0
 23 24  1  0
M  END
