
     RDKit          3D

 24 26  0  0  0  0  0  0  0  0999 V2000
   -5.7060    1.6430    0.1880 O   0  0  0  0  0  0  0  0  0  0  0  0
   -4.5240    1.2840   -0.0220 C   0  0  0  0  0  0  0  0  0  0  0  0
   -3.3020    1.9590    0.2450 N   0  0  0  0  0  0  0  0  0  0  0  0
   -2.2080    0.9980    0.2240 C   0  0  2  0  0  0  0  0  0  0  0  0
   -1.1980    1.4050   -0.6420 O   0  0  0  0  0  0  0  0  0  0  0  0
   -0.3400    2.3310   -0.0910 C   0  0  0  0  0  0  0  0  0  0  0  0
    1.0680    2.2240   -0.6350 C   0  0  1  0  0  0  0  0  0  0  0  0
    1.5150    3.4870   -1.0670 O   0  0  0  0  0  0  0  0  0  0  0  0
    1.9640    1.6900    0.4550 C   0  0  2  0  0  0  0  0  0  0  0  0
    3.2790    2.4690    0.3600 C   0  0  0  0  0  0  0  0  0  0  0  0
    3.7890    2.2220   -0.9070 O   0  0  0  0  0  0  0  0  0  0  0  0
    2.3020    0.2400    0.2910 C   0  0  0  0  0  0  0  0  0  0  0  0
    1.3030   -0.6110    0.7810 O   0  0  0  0  0  0  0  0  0  0  0  0
    0.8760   -1.3900   -0.2800 C   0  0  1  0  0  0  0  0  0  0  0  0
    1.9580   -2.2510   -0.8670 C   0  0  0  0  0  0  0  0  0  0  0  0
    1.7680   -3.6390   -0.3170 C   0  0  0  0  0  0  0  0  0  0  0  0
    0.4200   -3.6910    0.3340 C   0  0  0  0  0  0  0  0  0  0  0  0
   -0.2220   -2.3410    0.0630 C   0  0  1  0  0  0  0  0  0  0  0  0
   -1.2810   -1.7900    1.3970 S   0  0  0  0  0  0  0  0  0  0  0  0
   -2.9060   -1.3470    0.7690 C   0  0  1  0  0  0  0  0  0  0  0  0
   -3.8040   -1.0230    1.7640 O   0  0  0  0  0  0  0  0  0  0  0  0
   -2.8620   -0.2560   -0.2710 C   0  0  2  0  0  0  0  0  0  0  0  0
   -2.2450   -0.7000   -1.4390 O   0  0  0  0  0  0  0  0  0  0  0  0
   -4.2000    0.0630   -0.5990 O   0  0  0  0  0  0  0  0  0  0  0  0
  1  2  2  0
  2  3  1  0
  2 24  1  0
  4  3  1  6
  4  5  1  0
  4 22  1  0
  5  6  1  0
  6  7  1  0
  7  8  1  1
  7  9  1  0
  9 10  1  6
  9 12  1  0
 10 11  1  0
 12 13  1  0
 13 14  1  0
 14 15  1  1
 14 18  1  0
 15 16  1  0
 16 17  1  0
 18 17  1  1
 18 19  1  0
 19 20  1  0
 20 21  1  1
 20 22  1  0
 22 23  1  6
 22 24  1  0
M  END
