
     RDKit          3D

 25 25  0  0  0  0  0  0  0  0999 V2000
    0.8160   -3.0840   -0.9410 N   0  0  0  0  0  0  0  0  0  0  0  0
    1.2550   -1.8920   -0.2560 C   0  0  1  0  0  0  0  0  0  0  0  0
    0.2480   -1.3300    0.5270 O   0  0  0  0  0  0  0  0  0  0  0  0
   -0.5170   -0.5140   -0.3410 C   0  0  0  0  0  0  0  0  0  0  0  0
   -1.4910    0.3270    0.3840 C   0  0  2  0  0  0  0  0  0  0  0  0
   -2.9000   -0.0100   -0.0560 C   0  0  2  0  0  0  0  0  0  0  0  0
   -3.7970    0.8040    0.6450 O   0  0  0  0  0  0  0  0  0  0  0  0
   -3.2820   -1.4450    0.3240 C   0  0  0  0  0  0  0  0  0  0  0  0
   -4.7190   -1.6180   -0.1880 C   0  0  0  0  0  0  0  0  0  0  0  0
   -5.1580   -2.9140    0.1180 O   0  0  0  0  0  0  0  0  0  0  0  0
   -1.2860    1.8030    0.2810 C   0  0  2  0  0  0  0  0  0  0  0  0
   -1.0230    2.2590   -1.1490 C   0  0  0  0  0  0  0  0  0  0  0  0
   -1.1410    3.6540   -1.2500 O   0  0  0  0  0  0  0  0  0  0  0  0
   -0.4100    2.3450    1.2090 O   0  0  0  0  0  0  0  0  0  0  0  0
    0.4460    3.4040    1.1360 C   0  0  0  0  0  0  0  0  0  0  0  0
    0.2960    4.5220    1.7220 O   0  0  0  0  0  0  0  0  0  0  0  0
    1.6730    3.2790    0.3080 C   0  0  0  0  0  0  0  0  0  0  0  0
    2.2620    1.5690    0.4410 S   0  0  0  0  0  0  0  0  0  0  0  0
    3.8510    1.3440   -0.3840 C   0  0  0  0  0  0  0  0  0  0  0  0
    4.7000    0.5070    0.4670 C   0  0  0  0  0  0  0  0  0  0  0  0
    5.6090    1.0500    1.1470 O   0  0  0  0  0  0  0  0  0  0  0  0
    4.5760   -0.8710    0.5830 O   0  0  0  0  0  0  0  0  0  0  0  0
    3.7460   -1.6700   -0.2000 C   0  0  0  0  0  0  0  0  0  0  0  0
    2.5120   -2.1620    0.5560 C   0  0  2  0  0  0  0  0  0  0  0  0
    2.5670   -3.5360    0.7810 O   0  0  0  0  0  0  0  0  0  0  0  0
  2  1  1  1
  2  3  1  0
  2 24  1  0
  3  4  1  0
  5  4  1  6
  5  6  1  0
  5 11  1  0
  6  7  1  1
  6  8  1  0
  8  9  1  0
  9 10  1  0
 11 12  1  6
 11 14  1  0
 12 13  1  0
 14 15  1  0
 15 16  2  0
 15 17  1  0
 17 18  1  0
 18 19  1  0
 19 20  1  0
 20 21  2  0
 20 22  1  0
 22 23  1  0
 23 24  1  0
 24 25  1  6
M  END
