
     RDKit          3D

 25 26  0  0  0  0  0  0  0  0999 V2000
    6.1220    2.4060    0.8610 C   0  0  0  0  0  0  0  0  0  0  0  0
    4.8900    1.9040    0.3860 O   0  0  0  0  0  0  0  0  0  0  0  0
    4.7810    0.5480    0.1380 C   0  0  0  0  0  0  0  0  0  0  0  0
    5.7920   -0.1690    0.3500 O   0  0  0  0  0  0  0  0  0  0  0  0
    3.5540   -0.1220   -0.3630 C   0  0  0  0  0  0  0  0  0  0  0  0
    2.5870   -0.6510    1.0520 S   0  0  0  0  0  0  0  0  0  0  0  0
    1.0550   -1.4920    0.5650 C   0  0  2  0  0  0  0  0  0  0  0  0
    1.4640   -2.7770   -0.1240 C   0  0  0  0  0  0  0  0  0  0  0  0
    0.9310   -2.6050   -1.5040 C   0  0  0  0  0  0  0  0  0  0  0  0
    0.5920   -1.2940   -1.6410 O   0  0  0  0  0  0  0  0  0  0  0  0
    0.2510   -0.7360   -0.4290 C   0  0  2  0  0  0  0  0  0  0  0  0
    0.7360    0.5990   -0.4840 O   0  0  0  0  0  0  0  0  0  0  0  0
   -1.2200   -0.6660   -0.1840 C   0  0  1  0  0  0  0  0  0  0  0  0
   -1.9350   -1.9750   -0.1360 C   0  0  0  0  0  0  0  0  0  0  0  0
   -1.4750   -2.8320    0.8660 O   0  0  0  0  0  0  0  0  0  0  0  0
   -1.5890    0.1160    1.0420 C   0  0  0  0  0  0  0  0  0  0  0  0
   -2.5960    1.1960    0.8270 C   0  0  2  0  0  0  0  0  0  0  0  0
   -3.1620    1.5210    2.0810 O   0  0  0  0  0  0  0  0  0  0  0  0
   -3.7440    0.8100   -0.0660 C   0  0  1  0  0  0  0  0  0  0  0  0
   -4.4360    2.0910   -0.4570 C   0  0  0  0  0  0  0  0  0  0  0  0
   -5.1240    2.8720    0.5160 N   0  0  0  0  0  0  0  0  0  0  0  0
   -4.4430    2.5270   -1.6360 O   0  0  0  0  0  0  0  0  0  0  0  0
   -3.1760    0.3020   -1.2700 O   0  0  0  0  0  0  0  0  0  0  0  0
   -1.8090    0.0780   -1.3570 C   0  0  0  0  0  0  0  0  0  0  0  0
   -1.1040    0.4620   -2.3340 O   0  0  0  0  0  0  0  0  0  0  0  0
  1  2  1  0
  2  3  1  0
  3  4  2  0
  3  5  1  0
  5  6  1  0
  7  6  1  6
  7  8  1  0
  7 11  1  0
  8  9  1  0
  9 10  1  0
 10 11  1  0
 11 12  1  6
 11 13  1  0
 13 14  1  1
 13 16  1  0
 13 24  1  0
 14 15  1  0
 16 17  1  0
 17 18  1  1
 17 19  1  0
 19 20  1  6
 19 23  1  0
 20 21  1  0
 20 22  2  0
 23 24  1  0
 24 25  2  0
M  END
