
     RDKit          3D

 15 16  0  0  0  0  0  0  0  0999 V2000
   -3.6520   -0.2180    1.3610 O   0  0  0  0  0  0  0  0  0  0  0  0
   -3.2280   -0.5120    0.2150 C   0  0  0  0  0  0  0  0  0  0  0  0
   -4.1250   -0.3530   -0.8540 O   0  0  0  0  0  0  0  0  0  0  0  0
   -1.8410   -0.9950    0.0590 C   0  0  0  0  0  0  0  0  0  0  0  0
   -0.8350    0.0210    0.3430 C   0  0  0  0  0  0  0  0  0  0  0  0
   -1.1640    1.1720    0.9680 N   0  0  0  0  0  0  0  0  0  0  0  0
   -0.2750    2.1280    1.2330 N   0  0  0  0  0  0  0  0  0  0  0  0
    1.0320    1.9480    0.8600 C   0  0  0  0  0  0  0  0  0  0  0  0
    1.8810    2.8400    1.1050 O   0  0  0  0  0  0  0  0  0  0  0  0
    1.4550    0.8050    0.2180 C   0  0  0  0  0  0  0  0  0  0  0  0
    2.7610    0.6180   -0.1530 C   0  0  0  0  0  0  0  0  0  0  0  0
    3.1390   -0.5630   -0.8010 C   0  0  0  0  0  0  0  0  0  0  0  0
    2.1730   -1.5310   -1.0570 C   0  0  0  0  0  0  0  0  0  0  0  0
    0.8500   -1.3430   -0.6820 C   0  0  0  0  0  0  0  0  0  0  0  0
    0.4800   -0.1600   -0.0330 C   0  0  0  0  0  0  0  0  0  0  0  0
  1  2  2  0
  2  3  1  0
  2  4  1  0
  4  5  1  0
  5  6  2  0
  5 15  1  0
  6  7  1  0
  7  8  1  0
  8  9  2  0
  8 10  1  0
 10 11  2  0
 10 15  1  0
 11 12  1  0
 12 13  2  0
 13 14  1  0
 14 15  2  0
M  END
