
     RDKit          3D

 20 22  0  0  0  0  0  0  0  0999 V2000
   -2.1600   -1.5910   -0.3420 O   0  0  0  0  0  0  0  0  0  0  0  0
   -3.0150   -0.6160   -0.3840 C   0  0  0  0  0  0  0  0  0  0  0  0
   -4.4340   -0.9890   -0.5300 C   0  0  0  0  0  0  0  0  0  0  0  0
   -5.3200    0.1580   -0.5680 C   0  0  0  0  0  0  0  0  0  0  0  0
   -4.8890    1.3890   -0.4820 C   0  0  0  0  0  0  0  0  0  0  0  0
   -3.4960    1.7370   -0.3400 C   0  0  0  0  0  0  0  0  0  0  0  0
   -2.5790    0.7400   -0.2930 C   0  0  0  0  0  0  0  0  0  0  0  0
   -1.1730    1.1280   -0.1490 C   0  0  0  0  0  0  0  0  0  0  0  0
   -0.9450    2.3740   -0.0810 O   0  0  0  0  0  0  0  0  0  0  0  0
   -0.1190    0.2460   -0.0840 N   0  0  0  0  0  0  0  0  0  0  0  0
    1.2860    0.5790    0.0580 C   0  0  0  0  0  0  0  0  0  0  0  0
    1.7430    1.8680    0.1490 C   0  0  0  0  0  0  0  0  0  0  0  0
    3.1040    2.1650    0.2860 C   0  0  0  0  0  0  0  0  0  0  0  0
    4.0430    1.1820    0.3350 C   0  0  0  0  0  0  0  0  0  0  0  0
    3.6100   -0.1200    0.2460 C   0  0  0  0  0  0  0  0  0  0  0  0
    4.5730   -1.1190    0.2970 C   0  0  0  0  0  0  0  0  0  0  0  0
    4.1690   -2.4310    0.2100 C   0  0  0  0  0  0  0  0  0  0  0  0
    2.8420   -2.7570    0.0750 C   0  0  0  0  0  0  0  0  0  0  0  0
    1.8800   -1.7460    0.0250 C   0  0  0  0  0  0  0  0  0  0  0  0
    2.2580   -0.4290    0.1090 C   0  0  0  0  0  0  0  0  0  0  0  0
  1  2  2  0
  2  3  1  0
  2  7  1  0
  3  4  1  0
  4  5  2  0
  5  6  1  0
  6  7  2  0
  7  8  1  0
  8  9  2  0
  8 10  1  0
 10 11  1  0
 11 12  2  0
 11 20  1  0
 12 13  1  0
 13 14  2  0
 14 15  1  0
 15 16  2  0
 15 20  1  0
 16 17  1  0
 17 18  2  0
 18 19  1  0
 19 20  2  0
M  END
