
     RDKit          3D

 20 22  0  0  0  0  0  0  0  0999 V2000
   -2.8790   -2.6810    1.4760 C   0  0  0  0  0  0  0  0  0  0  0  0
   -2.0510   -1.7590    0.7980 O   0  0  0  0  0  0  0  0  0  0  0  0
   -2.6510   -0.6870    0.1580 C   0  0  0  0  0  0  0  0  0  0  0  0
   -4.0340   -0.5220    0.1830 C   0  0  0  0  0  0  0  0  0  0  0  0
   -4.5950    0.5580   -0.4660 C   0  0  0  0  0  0  0  0  0  0  0  0
   -3.7790    1.4530   -1.1250 C   0  0  0  0  0  0  0  0  0  0  0  0
   -2.4150    1.2840   -1.1460 C   0  0  0  0  0  0  0  0  0  0  0  0
   -1.8270    0.2050   -0.5010 C   0  0  0  0  0  0  0  0  0  0  0  0
   -0.4230   -0.0140   -0.4920 N   0  0  0  0  0  0  0  0  0  0  0  0
    0.3240    0.9550   -0.0170 C   0  0  0  0  0  0  0  0  0  0  0  0
   -0.1200    2.2430    0.5090 C   0  0  0  0  0  0  0  0  0  0  0  0
    0.9140    2.9370    0.8860 C   0  0  0  0  0  0  0  0  0  0  0  0
    2.1020    2.1360    0.6260 C   0  0  0  0  0  0  0  0  0  0  0  0
    1.7650    0.9770    0.0990 C   0  0  0  0  0  0  0  0  0  0  0  0
    2.7030   -0.0840   -0.2920 C   0  0  0  0  0  0  0  0  0  0  0  0
    2.3970   -1.2530   -0.8220 C   0  0  0  0  0  0  0  0  0  0  0  0
    3.6190   -2.0330   -1.0710 C   0  0  0  0  0  0  0  0  0  0  0  0
    4.7070   -1.1520   -0.6090 C   0  0  0  0  0  0  0  0  0  0  0  0
    4.1530   -0.0410   -0.1670 C   0  0  0  0  0  0  0  0  0  0  0  0
    4.9060    1.0260    0.3510 O   0  0  0  0  0  0  0  0  0  0  0  0
  1  2  1  0
  2  3  1  0
  3  4  2  0
  3  8  1  0
  4  5  1  0
  5  6  2  0
  6  7  1  0
  7  8  2  0
  8  9  1  0
  9 10  2  3
 10 11  1  0
 10 14  1  0
 11 12  2  0
 12 13  1  0
 13 14  2  0
 14 15  1  0
 15 16  2  0
 15 19  1  0
 16 17  1  0
 17 18  1  0
 18 19  2  0
 19 20  1  0
M  END
