
     RDKit          3D

 20 22  0  0  0  0  0  0  0  0999 V2000
    2.1110   -3.7250   -1.3090 O   0  0  0  0  0  0  0  0  0  0  0  0
    2.4880   -2.4590   -0.7920 C   0  0  0  0  0  0  0  0  0  0  0  0
    3.0960   -1.6420   -1.8830 C   0  0  0  0  0  0  0  0  0  0  0  0
    3.5130   -0.3750   -1.5150 O   0  0  0  0  0  0  0  0  0  0  0  0
    2.7430    0.6470   -0.9940 C   0  0  0  0  0  0  0  0  0  0  0  0
    3.3640    1.8550   -0.7010 C   0  0  0  0  0  0  0  0  0  0  0  0
    2.6040    2.8700   -0.1860 C   0  0  0  0  0  0  0  0  0  0  0  0
    1.2550    2.6740    0.0290 C   0  0  0  0  0  0  0  0  0  0  0  0
    0.6340    1.4690   -0.2620 C   0  0  0  0  0  0  0  0  0  0  0  0
   -0.8030    1.3060   -0.0670 C   0  0  0  0  0  0  0  0  0  0  0  0
   -1.3190    0.2890    0.6320 C   0  0  0  0  0  0  0  0  0  0  0  0
   -0.4180   -0.6970    1.2330 C   0  0  0  0  0  0  0  0  0  0  0  0
   -0.9640   -1.6940    1.9040 C   0  0  0  0  0  0  0  0  0  0  0  0
   -2.4040   -1.8920    2.0950 C   0  0  0  0  0  0  0  0  0  0  0  0
   -3.2580   -0.8810    1.4770 C   0  0  0  0  0  0  0  0  0  0  0  0
   -2.7540    0.1440    0.7890 C   0  0  0  0  0  0  0  0  0  0  0  0
   -3.7330    1.0930    0.2200 C   0  0  0  0  0  0  0  0  0  0  0  0
   -3.0660    2.1650   -0.5220 C   0  0  0  0  0  0  0  0  0  0  0  0
   -1.7620    2.2410   -0.6380 C   0  0  0  0  0  0  0  0  0  0  0  0
    1.4410    0.5200   -0.7640 N   0  0  0  0  0  0  0  0  0  0  0  0
  1  2  1  0
  2  3  1  0
  3  4  1  0
  4  5  1  0
  5  6  2  0
  5 20  1  0
  6  7  1  0
  7  8  2  0
  8  9  1  0
  9 10  1  0
  9 20  2  0
 10 11  2  0
 10 19  1  0
 11 12  1  0
 11 16  1  0
 12 13  2  0
 13 14  1  0
 14 15  1  0
 15 16  2  0
 16 17  1  0
 17 18  1  0
 18 19  2  0
M  END
