
     RDKit          3D

 20 22  0  0  0  0  0  0  0  0999 V2000
   -4.3550   -3.4960    0.3390 C   0  0  0  0  0  0  0  0  0  0  0  0
   -3.1680   -2.6790    0.4570 N   0  0  0  0  0  0  0  0  0  0  0  0
   -3.1690   -1.4580    0.1210 C   0  0  0  0  0  0  0  0  0  0  0  0
   -2.0080   -0.5850    0.2150 C   0  0  0  0  0  0  0  0  0  0  0  0
   -2.1760    0.7550   -0.2020 C   0  0  0  0  0  0  0  0  0  0  0  0
   -1.1330    1.6460   -0.1460 C   0  0  0  0  0  0  0  0  0  0  0  0
    0.0760    1.1930    0.3270 C   0  0  0  0  0  0  0  0  0  0  0  0
    0.2850   -0.0830    0.7380 C   0  0  0  0  0  0  0  0  0  0  0  0
    1.4830   -0.5440    1.2100 O   0  0  0  0  0  0  0  0  0  0  0  0
    2.4800   -1.1040    0.4040 C   0  0  0  0  0  0  0  0  0  0  0  0
    2.3230   -2.0330   -0.5150 C   0  0  0  0  0  0  0  0  0  0  0  0
    3.6270   -2.3310   -1.1210 C   0  0  0  0  0  0  0  0  0  0  0  0
    4.5720   -1.4390   -0.4220 C   0  0  0  0  0  0  0  0  0  0  0  0
    3.8850   -0.7370    0.4580 C   0  0  0  0  0  0  0  0  0  0  0  0
   -0.7960   -0.9980    0.6780 C   0  0  0  0  0  0  0  0  0  0  0  0
   -0.5720   -2.2750    1.0940 O   0  0  0  0  0  0  0  0  0  0  0  0
    1.2420    2.1400    0.4030 C   0  0  0  0  0  0  0  0  0  0  0  0
    0.7500    3.5670    0.5650 C   0  0  0  0  0  0  0  0  0  0  0  0
   -0.1290    3.8660   -0.6290 C   0  0  0  0  0  0  0  0  0  0  0  0
   -1.3720    3.0370   -0.5970 C   0  0  0  0  0  0  0  0  0  0  0  0
  1  2  1  0
  2  3  2  3
  3  4  1  0
  4  5  2  0
  4 15  1  0
  5  6  1  0
  6  7  2  0
  6 20  1  0
  7  8  1  0
  7 17  1  0
  8  9  1  0
  8 15  2  0
  9 10  1  0
 10 11  2  0
 10 14  1  0
 11 12  1  0
 12 13  1  0
 13 14  2  0
 15 16  1  0
 17 18  1  0
 18 19  1  0
 19 20  1  0
M  END
