
     RDKit          3D

 12 12  0  0  0  0  0  0  0  0999 V2000
    4.7820   -0.1190    0.1410 C   0  0  0  0  0  0  0  0  0  0  0  0
    3.4670    0.3840   -0.1580 O   0  0  0  0  0  0  0  0  0  0  0  0
    2.3990    0.0010    0.6190 C   0  0  0  0  0  0  0  0  0  0  0  0
    2.6540   -0.8060    1.5870 O   0  0  0  0  0  0  0  0  0  0  0  0
    1.0310    0.4720    0.3840 C   0  0  0  0  0  0  0  0  0  0  0  0
   -0.0210   -0.8380   -0.3480 S   0  0  0  0  0  0  0  0  0  0  0  0
   -1.6840   -0.1390   -0.3960 C   0  0  0  0  0  0  0  0  0  0  0  0
   -2.1000    0.9980    0.0380 N   0  0  0  0  0  0  0  0  0  0  0  0
   -3.4720    1.1240   -0.2090 N   0  0  0  0  0  0  0  0  0  0  0  0
   -3.8910   -0.0230   -0.8550 N   0  0  0  0  0  0  0  0  0  0  0  0
   -4.8240   -0.7090   -0.1380 O   0  0  0  0  0  0  0  0  0  0  0  0
   -2.7710   -0.8430   -0.9620 N   0  0  0  0  0  0  0  0  0  0  0  0
  1  2  1  0
  2  3  1  0
  3  4  2  0
  3  5  1  0
  5  6  1  0
  6  7  1  0
  7  8  2  0
  7 12  1  0
  8  9  1  0
  9 10  1  0
 10 11  1  0
 10 12  1  0
M  END
