
     RDKit          3D

 13 13  0  0  0  0  0  0  0  0999 V2000
    3.4810    0.1510   -0.6270 N   0  0  0  0  0  0  0  0  0  0  0  0
    2.7360   -0.3080    0.4810 C   0  0  0  0  0  0  0  0  0  0  0  0
    3.5040   -0.3650    1.9190 S   0  0  0  0  0  0  0  0  0  0  0  0
    1.3360   -0.7290    0.4140 C   0  0  0  0  0  0  0  0  0  0  0  0
    0.4660    0.3230   -0.0430 N   0  0  0  0  0  0  0  0  0  0  0  0
   -0.9510    0.0500   -0.1560 C   0  0  0  0  0  0  0  0  0  0  0  0
   -1.3490   -1.1490   -0.3490 N   0  0  0  0  0  0  0  0  0  0  0  0
   -3.0690   -1.0700   -0.4280 S   0  0  2  0  0  0  0  0  0  0  0  0
   -3.7050   -1.7850    0.7190 O   0  0  0  0  0  0  0  0  0  0  0  0
   -3.6000   -1.4960   -1.7540 O   0  0  0  0  0  0  0  0  0  0  0  0
   -3.1860    0.6340   -0.1910 N   0  0  0  0  0  0  0  0  0  0  0  0
   -1.9830    1.0530   -0.0680 C   0  0  0  0  0  0  0  0  0  0  0  0
   -1.7690    2.4390    0.1420 O   0  0  0  0  0  0  0  0  0  0  0  0
  1  2  1  0
  2  3  2  0
  2  4  1  0
  4  5  1  0
  5  6  1  0
  6  7  2  0
  6 12  1  0
  8  7  1  6
  8  9  2  0
  8 10  2  0
  8 11  1  0
 11 12  2  0
 12 13  1  0
M  END
