
     RDKit          3D

 35 38  0  0  0  0  0  0  0  0999 V2000
    1.5870   -2.0150   -1.0390 C   0  0  0  0  0  0  0  0  0  0  0  0
    0.9910   -0.6920   -1.0950 N   0  0  0  0  0  0  0  0  0  0  0  0
    1.6760    0.4590   -1.1850 C   0  0  0  0  0  0  0  0  0  0  0  0
    3.1790    0.6020   -1.2450 C   0  0  0  0  0  0  0  0  0  0  0  0
    3.7690    0.1960    0.0050 N   0  0  0  0  0  0  0  0  0  0  0  0
    5.1650    0.1910    0.2410 C   0  0  0  0  0  0  0  0  0  0  0  0
    6.0790    0.6070   -0.6930 C   0  0  0  0  0  0  0  0  0  0  0  0
    7.4410    0.5980   -0.4900 C   0  0  0  0  0  0  0  0  0  0  0  0
    7.9550    0.1450    0.7250 C   0  0  0  0  0  0  0  0  0  0  0  0
    9.3710    0.1370    0.9130 C   0  0  0  0  0  0  0  0  0  0  0  0
   10.2170    0.6010   -0.1650 N   0  0  0  0  0  0  0  0  0  0  0  0
    9.9030   -0.2720    2.0100 N   0  0  0  0  0  0  0  0  0  0  0  0
    7.0540   -0.2760    1.6750 C   0  0  0  0  0  0  0  0  0  0  0  0
    5.6980   -0.2550    1.4440 C   0  0  0  0  0  0  0  0  0  0  0  0
    0.7690    1.4440   -1.2110 N   0  0  0  0  0  0  0  0  0  0  0  0
   -0.4760    0.9140   -1.1370 C   0  0  0  0  0  0  0  0  0  0  0  0
   -1.7420    1.4340   -1.1210 C   0  0  0  0  0  0  0  0  0  0  0  0
   -2.9050    0.6650   -1.0340 C   0  0  0  0  0  0  0  0  0  0  0  0
   -4.1980    1.2920   -1.0670 C   0  0  0  0  0  0  0  0  0  0  0  0
   -4.1650    2.5590   -1.3820 O   0  0  0  0  0  0  0  0  0  0  0  0
   -5.4650    0.7620   -0.8210 N   0  0  0  0  0  0  0  0  0  0  0  0
   -6.6380    1.5420   -1.2460 C   0  0  0  0  0  0  0  0  0  0  0  0
   -7.1620    2.4890   -0.2450 C   0  0  0  0  0  0  0  0  0  0  0  0
   -7.6800    1.9110    1.0070 C   0  0  0  0  0  0  0  0  0  0  0  0
   -7.6920    2.5770    2.1000 O   0  0  0  0  0  0  0  0  0  0  0  0
   -8.1700    0.6380    1.0440 O   0  0  0  0  0  0  0  0  0  0  0  0
   -5.7220   -0.5060   -0.2260 C   0  0  0  0  0  0  0  0  0  0  0  0
   -5.3440   -0.7520    1.1040 C   0  0  0  0  0  0  0  0  0  0  0  0
   -5.5930   -1.9620    1.7070 C   0  0  0  0  0  0  0  0  0  0  0  0
   -6.2260   -2.9410    0.9750 C   0  0  0  0  0  0  0  0  0  0  0  0
   -6.6040   -2.6970   -0.3540 C   0  0  0  0  0  0  0  0  0  0  0  0
   -6.3340   -1.4970   -0.8850 N   0  0  0  0  0  0  0  0  0  0  0  0
   -2.7120   -0.6870   -0.9640 C   0  0  0  0  0  0  0  0  0  0  0  0
   -1.4440   -1.2890   -0.9750 C   0  0  0  0  0  0  0  0  0  0  0  0
   -0.3520   -0.4590   -1.0620 C   0  0  0  0  0  0  0  0  0  0  0  0
  1  2  1  0
  2  3  1  0
  2 35  1  0
  3  4  1  0
  3 15  2  0
  4  5  1  0
  5  6  1  0
  6  7  2  0
  6 14  1  0
  7  8  1  0
  8  9  2  0
  9 10  1  0
  9 13  1  0
 10 11  1  0
 10 12  2  0
 13 14  2  0
 15 16  1  0
 16 17  2  0
 16 35  1  0
 17 18  1  0
 18 19  1  0
 18 33  2  0
 19 20  2  0
 19 21  1  0
 21 22  1  0
 21 27  1  0
 22 23  1  0
 23 24  1  0
 24 25  2  0
 24 26  1  0
 27 28  2  0
 27 32  1  0
 28 29  1  0
 29 30  2  0
 30 31  1  0
 31 32  2  0
 33 34  1  0
 34 35  2  0
M  CHG  1  12   1
M  END
