
     RDKit          3D

 35 38  0  0  0  0  0  0  0  0999 V2000
   -1.2670    1.9780   -4.4740 C   0  0  0  0  0  0  0  0  0  0  0  0
   -1.1030    2.3410   -3.1050 O   0  0  0  0  0  0  0  0  0  0  0  0
   -1.7050    1.5370   -2.1570 C   0  0  0  0  0  0  0  0  0  0  0  0
   -2.9880    1.8030   -1.7430 C   0  0  0  0  0  0  0  0  0  0  0  0
   -3.7370    2.9590   -2.3130 C   0  0  0  0  0  0  0  0  0  0  0  0
   -3.6340    1.0100   -0.7830 C   0  0  0  0  0  0  0  0  0  0  0  0
   -2.9880   -0.0590   -0.2320 C   0  0  0  0  0  0  0  0  0  0  0  0
   -1.6920   -0.3430   -0.6380 C   0  0  0  0  0  0  0  0  0  0  0  0
   -1.0750    0.4450   -1.5810 C   0  0  0  0  0  0  0  0  0  0  0  0
    0.1960   -0.0270   -1.8220 O   0  0  0  0  0  0  0  0  0  0  0  0
    0.3380   -1.3660   -1.3350 C   0  0  1  0  0  0  0  0  0  0  0  0
    1.7130   -1.5370   -0.7610 C   0  0  0  0  0  0  0  0  0  0  0  0
    1.9980   -2.6540   -0.2930 O   0  0  0  0  0  0  0  0  0  0  0  0
    2.6440   -0.4970   -0.7470 N   0  0  0  0  0  0  0  0  0  0  0  0
    3.9550   -0.5170   -0.2440 C   0  0  0  0  0  0  0  0  0  0  0  0
    4.5360   -1.5380    0.4260 C   0  0  0  0  0  0  0  0  0  0  0  0
    5.8440   -1.4720    0.8780 C   0  0  0  0  0  0  0  0  0  0  0  0
    6.6570   -0.3540    0.6770 C   0  0  0  0  0  0  0  0  0  0  0  0
    8.0220   -0.3370    1.1710 C   0  0  0  0  0  0  0  0  0  0  0  0
    8.8040    0.6840    1.0020 C   0  0  0  0  0  0  0  0  0  0  0  0
   10.1800    0.6700    1.5150 C   0  0  0  0  0  0  0  0  0  0  0  0
   10.6920   -0.4630    2.2090 N   0  0  0  0  0  0  0  0  0  0  0  0
   10.9570    1.6460    1.3650 O   0  0  0  0  0  0  0  0  0  0  0  0
    6.0590    0.6790   -0.0050 C   0  0  0  0  0  0  0  0  0  0  0  0
    4.7520    0.6140   -0.4570 C   0  0  0  0  0  0  0  0  0  0  0  0
   -0.7240   -1.4000   -0.2570 C   0  0  0  0  0  0  0  0  0  0  0  0
   -3.6560   -0.9000    0.7820 C   0  0  0  0  0  0  0  0  0  0  0  0
   -5.1070   -0.6590    0.9580 C   0  0  1  0  0  0  0  0  0  0  0  0
   -5.9150   -1.2620   -0.2040 C   0  0  0  0  0  0  0  0  0  0  0  0
   -5.6180   -1.3390    2.1920 C   0  0  0  0  0  0  0  0  0  0  0  0
   -4.9980   -0.9100    3.4750 C   0  0  0  0  0  0  0  0  0  0  0  0
   -5.6080   -1.6400    4.5050 O   0  0  0  0  0  0  0  0  0  0  0  0
   -5.4590    0.8210    0.9430 C   0  0  0  0  0  0  0  0  0  0  0  0
   -4.9940    1.3210   -0.3730 C   0  0  0  0  0  0  0  0  0  0  0  0
   -5.7330    1.9970   -1.1360 O   0  0  0  0  0  0  0  0  0  0  0  0
  1  2  1  0
  2  3  1  0
  3  4  2  0
  3  9  1  0
  4  5  1  0
  4  6  1  0
  6  7  2  0
  6 34  1  0
  7  8  1  0
  7 27  1  0
  8  9  2  0
  8 26  1  0
  9 10  1  0
 10 11  1  0
 11 12  1  1
 11 26  1  0
 12 13  2  0
 12 14  1  0
 14 15  1  0
 15 16  2  0
 15 25  1  0
 16 17  1  0
 17 18  2  0
 18 19  1  0
 18 24  1  0
 19 20  2  3
 20 21  1  0
 21 22  1  0
 21 23  2  0
 24 25  2  0
 27 28  1  0
 28 29  1  6
 28 30  1  0
 28 33  1  0
 30 31  1  0
 31 32  1  0
 33 34  1  0
 34 35  2  0
M  END
