
     RDKit          3D

 35 40  0  0  0  0  0  0  0  0999 V2000
   -4.6170   -3.9590    0.7810 C   0  0  0  0  0  0  0  0  0  0  0  0
   -4.6180   -2.6010    0.1050 C   0  0  0  0  0  0  0  0  0  0  0  0
   -5.7920   -2.2720   -0.5000 C   0  0  0  0  0  0  0  0  0  0  0  0
   -5.9170   -1.0540   -1.1060 C   0  0  0  0  0  0  0  0  0  0  0  0
   -4.8490   -0.2090   -1.0790 C   0  0  0  0  0  0  0  0  0  0  0  0
   -3.6440   -0.5570   -0.4520 C   0  0  0  0  0  0  0  0  0  0  0  0
   -3.4720   -1.7690    0.1660 C   0  0  0  0  0  0  0  0  0  0  0  0
   -2.3300   -2.2880    0.8230 N   0  0  0  0  0  0  0  0  0  0  0  0
   -0.9880   -2.5140    0.4370 C   0  0  0  0  0  0  0  0  0  0  0  0
   -0.3710   -3.4520    1.1640 O   0  0  0  0  0  0  0  0  0  0  0  0
   -0.1220   -1.9670   -0.5720 C   0  0  0  0  0  0  0  0  0  0  0  0
    0.5810   -0.8500   -0.6220 C   0  0  0  0  0  0  0  0  0  0  0  0
    0.6440    0.1910    0.4630 C   0  0  0  0  0  0  0  0  0  0  0  0
    0.6980    1.4560   -0.0060 O   0  0  0  0  0  0  0  0  0  0  0  0
   -0.3890    2.2570    0.2910 C   0  0  2  0  0  0  0  0  0  0  0  0
    0.1540    3.5090    0.9630 C   0  0  0  0  0  0  0  0  0  0  0  0
   -0.1070    3.3420    2.4310 C   0  0  0  0  0  0  0  0  0  0  0  0
   -0.7890    2.0720    2.5660 N   0  0  0  0  0  0  0  0  0  0  0  0
   -1.2860    1.6340    1.2950 C   0  0  0  0  0  0  0  0  0  0  0  0
   -2.2880    0.8650    0.9180 C   0  0  0  0  0  0  0  0  0  0  0  0
   -2.6370    0.5350   -0.4830 C   0  0  0  0  0  0  0  0  0  0  0  0
    1.2930   -0.7410   -1.9060 C   0  0  0  0  0  0  0  0  0  0  0  0
    2.3190   -0.1290   -2.2900 N   0  0  0  0  0  0  0  0  0  0  0  0
    3.1990    0.7090   -1.6100 C   0  0  0  0  0  0  0  0  0  0  0  0
    3.2810    2.0730   -1.8660 C   0  0  0  0  0  0  0  0  0  0  0  0
    4.1560    2.8770   -1.1900 C   0  0  0  0  0  0  0  0  0  0  0  0
    4.9710    2.4000   -0.2560 N   0  0  0  0  0  0  0  0  0  0  0  0
    4.9390    1.0830    0.0390 C   0  0  0  0  0  0  0  0  0  0  0  0
    5.8120    0.6550    1.0150 C   0  0  0  0  0  0  0  0  0  0  0  0
    5.8210   -0.6780    1.3540 C   0  0  0  0  0  0  0  0  0  0  0  0
    4.9550   -1.5260    0.6980 C   0  0  0  0  0  0  0  0  0  0  0  0
    4.0810   -1.0910   -0.2830 C   0  0  0  0  0  0  0  0  0  0  0  0
    4.0680    0.2450   -0.6250 C   0  0  0  0  0  0  0  0  0  0  0  0
    0.4490   -1.6270   -2.7970 C   0  0  0  0  0  0  0  0  0  0  0  0
    0.1690   -2.6030   -1.8310 O   0  0  0  0  0  0  0  0  0  0  0  0
  1  2  1  0
  2  3  2  0
  2  7  1  0
  3  4  1  0
  4  5  2  0
  5  6  1  0
  6  7  2  0
  6 21  1  0
  7  8  1  0
  8  9  1  0
  9 10  2  0
  9 11  1  0
 11 12  2  0
 11 35  1  0
 12 13  1  0
 12 22  1  0
 13 14  1  0
 14 15  1  0
 15 16  1  1
 15 19  1  0
 16 17  1  0
 17 18  1  0
 18 19  1  0
 19 20  2  0
 20 21  1  0
 22 23  2  3
 22 34  1  0
 23 24  1  0
 24 25  2  0
 24 33  1  0
 25 26  1  0
 26 27  2  0
 27 28  1  0
 28 29  2  0
 28 33  1  0
 29 30  1  0
 30 31  2  0
 31 32  1  0
 32 33  2  0
 34 35  1  0
M  CHG  1  27   1
M  END
