
     RDKit          3D

 35 39  0  0  0  0  0  0  0  0999 V2000
   -0.1210    3.6410   -1.0920 C   0  0  0  0  0  0  0  0  0  0  0  0
    0.3390    2.3040   -0.4550 C   0  0  2  0  0  0  0  0  0  0  0  0
   -0.3060    2.2730    0.8870 C   0  0  0  0  0  0  0  0  0  0  0  0
   -1.5920    1.5620    0.9820 C   0  0  0  0  0  0  0  0  0  0  0  0
   -2.7190    1.5110    0.3350 C   0  0  0  0  0  0  0  0  0  0  0  0
   -3.9900    0.7850    0.4770 C   0  0  1  0  0  0  0  0  0  0  0  0
   -5.0090    1.5640   -0.4420 C   0  0  0  0  0  0  0  0  0  0  0  0
   -6.2460    1.5370    0.1490 O   0  0  0  0  0  0  0  0  0  0  0  0
   -6.3940    0.2700    0.7460 C   0  0  0  0  0  0  0  0  0  0  0  0
   -5.6590   -0.7310   -0.1090 C   0  0  0  0  0  0  0  0  0  0  0  0
   -4.1630   -0.5980    0.1130 N   0  0  0  0  0  0  0  0  0  0  0  0
   -3.1350   -1.5980    0.0520 C   0  0  0  0  0  0  0  0  0  0  0  0
   -2.4870   -2.1530    1.0790 C   0  0  0  0  0  0  0  0  0  0  0  0
   -1.0320   -2.5460    1.0600 C   0  0  0  0  0  0  0  0  0  0  0  0
   -0.3520   -2.3350   -0.1740 N   0  0  2  0  0  0  0  0  0  0  0  0
    0.1530   -0.9670   -0.1440 C   0  0  0  0  0  0  0  0  0  0  0  0
    1.3880   -0.6970   -0.8950 C   0  0  0  0  0  0  0  0  0  0  0  0
    1.3320   -1.1800   -2.1040 O   0  0  0  0  0  0  0  0  0  0  0  0
    2.5570   -0.0130   -0.4740 N   0  0  0  0  0  0  0  0  0  0  0  0
    3.7190   -0.9150   -0.3550 C   0  0  0  0  0  0  0  0  0  0  0  0
    4.2550   -1.5110   -1.4410 C   0  0  0  0  0  0  0  0  0  0  0  0
    5.3180   -2.3730   -1.3090 C   0  0  0  0  0  0  0  0  0  0  0  0
    5.8220   -2.6120   -0.0390 C   0  0  0  0  0  0  0  0  0  0  0  0
    5.3000   -2.0210    1.0910 C   0  0  0  0  0  0  0  0  0  0  0  0
    5.8250   -2.2720    2.3950 N   0  0  0  0  0  0  0  0  0  0  0  0
    4.2240   -1.1550    0.9040 C   0  0  0  0  0  0  0  0  0  0  0  0
    2.7340    1.3680   -0.1900 C   0  0  0  0  0  0  0  0  0  0  0  0
    4.0570    1.7800    0.1300 C   0  0  0  0  0  0  0  0  0  0  0  0
    4.4360    3.0430    0.4260 C   0  0  0  0  0  0  0  0  0  0  0  0
    3.5000    4.0460    0.4290 C   0  0  0  0  0  0  0  0  0  0  0  0
    2.2090    3.6890    0.1250 C   0  0  0  0  0  0  0  0  0  0  0  0
    1.8280    2.3740   -0.1800 C   0  0  0  0  0  0  0  0  0  0  0  0
   -1.1800   -2.5740   -1.3090 C   0  0  0  0  0  0  0  0  0  0  0  0
   -2.5960   -2.2210   -1.2330 C   0  0  1  0  0  0  0  0  0  0  0  0
   -3.3700   -3.3940   -1.5440 O   0  0  0  0  0  0  0  0  0  0  0  0
  2  1  1  1
  2  3  1  0
  2 32  1  0
  3  4  1  0
  4  5  2  0
  5  6  1  0
  6  7  1  6
  6 11  1  0
  7  8  1  0
  8  9  1  0
  9 10  1  0
 10 11  1  0
 11 12  1  0
 12 13  2  0
 12 34  1  0
 13 14  1  0
 14 15  1  0
 15 16  1  1
 15 33  1  0
 16 17  1  0
 17 18  2  0
 17 19  1  0
 19 20  1  0
 19 27  1  0
 20 21  2  0
 20 26  1  0
 21 22  1  0
 22 23  2  0
 23 24  1  0
 24 25  1  0
 24 26  2  0
 27 28  2  0
 27 32  1  0
 28 29  1  0
 29 30  2  0
 30 31  1  0
 31 32  2  0
 33 34  1  0
 34 35  1  1
M  CHG  1  15   1
M  END
