
     RDKit          3D

 35 40  0  0  0  0  0  0  0  0999 V2000
   -3.3450   -3.6290    0.8410 C   0  0  0  0  0  0  0  0  0  0  0  0
   -3.7920   -2.1830    0.8950 C   0  0  0  0  0  0  0  0  0  0  0  0
   -4.4070   -1.7470    2.0530 C   0  0  0  0  0  0  0  0  0  0  0  0
   -4.8620   -0.4750    2.1950 C   0  0  0  0  0  0  0  0  0  0  0  0
   -4.6780    0.3650    1.1180 C   0  0  0  0  0  0  0  0  0  0  0  0
   -4.0670   -0.0390   -0.0510 C   0  0  0  0  0  0  0  0  0  0  0  0
   -3.6060   -1.3290   -0.1930 C   0  0  0  0  0  0  0  0  0  0  0  0
   -2.9590   -1.8710   -1.3430 N   0  0  0  0  0  0  0  0  0  0  0  0
   -1.8850   -1.4230   -2.1100 C   0  0  0  0  0  0  0  0  0  0  0  0
   -2.2160   -1.1580   -3.3470 O   0  0  0  0  0  0  0  0  0  0  0  0
   -0.4710   -1.1870   -1.8510 C   0  0  0  0  0  0  0  0  0  0  0  0
    0.0900   -0.4920   -0.8930 C   0  0  0  0  0  0  0  0  0  0  0  0
   -0.6170    0.2530    0.1970 C   0  0  0  0  0  0  0  0  0  0  0  0
   -1.6100    1.0020   -0.2500 O   0  0  0  0  0  0  0  0  0  0  0  0
   -1.5810    2.2910   -0.5370 C   0  0  2  0  0  0  0  0  0  0  0  0
   -0.5630    3.1920    0.0530 C   0  0  0  0  0  0  0  0  0  0  0  0
   -1.2840    4.2050    0.9390 C   0  0  0  0  0  0  0  0  0  0  0  0
   -2.6020    4.2410    0.3280 N   0  0  0  0  0  0  0  0  0  0  0  0
   -2.8810    2.9800   -0.2380 C   0  0  0  0  0  0  0  0  0  0  0  0
   -3.9990    2.3670   -0.5120 C   0  0  0  0  0  0  0  0  0  0  0  0
   -3.9890    1.0180   -1.1060 C   0  0  0  0  0  0  0  0  0  0  0  0
    1.5600   -0.5680   -1.0000 C   0  0  0  0  0  0  0  0  0  0  0  0
    2.4580    0.1880   -0.5220 N   0  0  0  0  0  0  0  0  0  0  0  0
    3.8530   -0.0210   -0.7170 C   0  0  0  0  0  0  0  0  0  0  0  0
    4.5020    0.1630   -1.9210 C   0  0  0  0  0  0  0  0  0  0  0  0
    5.8700   -0.0620   -2.0550 C   0  0  0  0  0  0  0  0  0  0  0  0
    6.5890   -0.4700   -0.9880 N   0  0  0  0  0  0  0  0  0  0  0  0
    5.9980   -0.6650    0.2140 C   0  0  0  0  0  0  0  0  0  0  0  0
    6.7740   -1.0840    1.2920 C   0  0  0  0  0  0  0  0  0  0  0  0
    6.1910   -1.2850    2.5270 C   0  0  0  0  0  0  0  0  0  0  0  0
    4.8200   -1.0550    2.6450 C   0  0  0  0  0  0  0  0  0  0  0  0
    4.0660   -0.6420    1.5730 C   0  0  0  0  0  0  0  0  0  0  0  0
    4.6260   -0.4390    0.3460 C   0  0  0  0  0  0  0  0  0  0  0  0
    1.7700   -1.7830   -1.8300 C   0  0  0  0  0  0  0  0  0  0  0  0
    0.6350   -1.6840   -2.6370 O   0  0  0  0  0  0  0  0  0  0  0  0
  1  2  1  0
  2  3  2  0
  2  7  1  0
  3  4  1  0
  4  5  2  0
  5  6  1  0
  6  7  2  0
  6 21  1  0
  7  8  1  0
  8  9  1  0
  9 10  2  0
  9 11  1  0
 11 12  2  0
 11 35  1  0
 12 13  1  0
 12 22  1  0
 13 14  1  0
 14 15  1  0
 15 16  1  1
 15 19  1  0
 16 17  1  0
 17 18  1  0
 18 19  1  0
 19 20  2  0
 20 21  1  0
 22 23  2  3
 22 34  1  0
 23 24  1  0
 24 25  2  0
 24 33  1  0
 25 26  1  0
 26 27  2  0
 27 28  1  0
 28 29  2  0
 28 33  1  0
 29 30  1  0
 30 31  2  0
 31 32  1  0
 32 33  2  0
 34 35  1  0
M  CHG  1  27   1
M  END
