
     RDKit          3D

 35 40  0  0  0  0  0  0  0  0999 V2000
    2.9840   -0.1950    1.6710 C   0  0  0  0  0  0  0  0  0  0  0  0
    3.7650    0.3710    0.7920 C   0  0  0  0  0  0  0  0  0  0  0  0
    5.1420    0.3320    1.1410 O   0  0  0  0  0  0  0  0  0  0  0  0
    3.3060    0.9710   -0.4080 C   0  0  0  0  0  0  0  0  0  0  0  0
    4.1970    1.5510   -1.2220 C   0  0  0  0  0  0  0  0  0  0  0  0
    5.6370    1.6280   -0.9840 C   0  0  0  0  0  0  0  0  0  0  0  0
    1.8630    1.0320   -0.8700 C   0  0  0  0  0  0  0  0  0  0  0  0
    1.4720   -0.3090   -1.1520 N   0  0  0  0  0  0  0  0  0  0  0  0
    2.1990   -1.0450   -2.2180 C   0  0  0  0  0  0  0  0  0  0  0  0
    2.6180   -2.3710   -1.6220 C   0  0  0  0  0  0  0  0  0  0  0  0
    2.0520   -2.5660   -0.3400 O   0  0  0  0  0  0  0  0  0  0  0  0
    0.7420   -2.2010   -0.0580 C   0  0  0  0  0  0  0  0  0  0  0  0
    0.4020   -0.9480   -0.4960 C   0  0  0  0  0  0  0  0  0  0  0  0
   -0.8570   -0.3220   -0.1620 C   0  0  1  0  0  0  0  0  0  0  0  0
   -0.8470    0.5240    1.0810 C   0  0  0  0  0  0  0  0  0  0  0  0
   -0.8960    1.9130    1.0260 C   0  0  0  0  0  0  0  0  0  0  0  0
   -0.8940    2.7290    2.1170 C   0  0  0  0  0  0  0  0  0  0  0  0
   -0.8400    2.1690    3.3680 C   0  0  0  0  0  0  0  0  0  0  0  0
   -0.7890    0.7980    3.4810 C   0  0  0  0  0  0  0  0  0  0  0  0
   -0.7930   -0.0110    2.3420 C   0  0  0  0  0  0  0  0  0  0  0  0
   -1.5140    0.5570   -1.1860 C   0  0  0  0  0  0  0  0  0  0  0  0
   -0.9420    0.9600   -2.3490 C   0  0  0  0  0  0  0  0  0  0  0  0
   -1.6290    1.8800   -3.1570 C   0  0  0  0  0  0  0  0  0  0  0  0
   -2.8570    2.3780   -2.8040 C   0  0  0  0  0  0  0  0  0  0  0  0
   -3.4140    1.9360   -1.6060 C   0  0  0  0  0  0  0  0  0  0  0  0
   -2.7770    1.0470   -0.8070 C   0  0  0  0  0  0  0  0  0  0  0  0
   -3.4770    0.4410    0.3720 C   0  0  0  0  0  0  0  0  0  0  0  0
   -3.2280   -1.0620    0.2380 C   0  0  2  0  0  0  0  0  0  0  0  0
   -4.0610   -1.9080    0.9930 N   0  0  0  0  0  0  0  0  0  0  0  0
   -3.6790   -2.9790    1.5540 C   0  0  0  0  0  0  0  0  0  0  0  0
   -4.5960   -3.7380    2.2630 O   0  0  0  0  0  0  0  0  0  0  0  0
   -2.3470   -3.3990    1.4800 N   0  0  0  0  0  0  0  0  0  0  0  0
   -1.3720   -2.6140    0.7730 C   0  0  0  0  0  0  0  0  0  0  0  0
   -0.1750   -3.0300    0.6040 N   0  0  0  0  0  0  0  0  0  0  0  0
   -1.8470   -1.4580    0.0240 C   0  0  2  0  0  0  0  0  0  0  0  0
  1  2  2  0
  2  3  1  0
  2  4  1  0
  4  5  2  3
  4  7  1  0
  5  6  1  0
  7  8  1  0
  8  9  1  0
  8 13  1  0
  9 10  1  0
 10 11  1  0
 11 12  1  0
 12 13  2  0
 12 34  1  0
 13 14  1  0
 14 15  1  1
 14 21  1  0
 14 35  1  0
 15 16  2  0
 15 20  1  0
 16 17  1  0
 17 18  2  0
 18 19  1  0
 19 20  2  0
 21 22  2  0
 21 26  1  0
 22 23  1  0
 23 24  2  0
 24 25  1  0
 25 26  2  0
 26 27  1  0
 28 27  1  1
 28 29  1  0
 28 35  1  0
 29 30  2  0
 30 31  1  0
 30 32  1  0
 32 33  1  0
 33 34  2  0
 35 33  1  1
M  CHG  1  29   1
M  END
