
     RDKit          3D

 35 38  0  0  0  0  0  0  0  0999 V2000
    6.5920    2.0680   -2.0420 C   0  0  0  0  0  0  0  0  0  0  0  0
    6.9390    1.0740   -1.2790 C   0  0  0  0  0  0  0  0  0  0  0  0
    6.0010    0.4630   -0.3450 C   0  0  0  0  0  0  0  0  0  0  0  0
    4.7340    0.6740   -0.4870 C   0  0  0  0  0  0  0  0  0  0  0  0
    3.5320    0.2750    0.1930 C   0  0  0  0  0  0  0  0  0  0  0  0
    2.7700    1.3290    0.7490 C   0  0  0  0  0  0  0  0  0  0  0  0
    1.4620    1.1260    1.1740 C   0  0  0  0  0  0  0  0  0  0  0  0
    0.8660   -0.1030    1.0740 C   0  0  0  0  0  0  0  0  0  0  0  0
   -0.4590   -0.3870    1.4480 C   0  0  0  0  0  0  0  0  0  0  0  0
   -0.9740   -1.0590    2.2420 O   0  0  0  0  0  0  0  0  0  0  0  0
   -1.6380    0.4560    0.4380 N   0  0  0  0  0  0  0  0  0  0  0  0
   -2.7360   -0.2620    0.8770 C   0  0  0  0  0  0  0  0  0  0  0  0
   -2.9830   -1.2010    1.5420 O   0  0  0  0  0  0  0  0  0  0  0  0
   -3.9790    0.4300    0.2320 N   0  0  0  0  0  0  0  0  0  0  0  0
   -5.0990   -0.3580    0.3730 C   0  0  0  0  0  0  0  0  0  0  0  0
   -6.4070   -0.0090   -0.0950 C   0  0  0  0  0  0  0  0  0  0  0  0
   -7.3330   -1.0990   -0.0280 C   0  0  0  0  0  0  0  0  0  0  0  0
   -6.7890   -2.2760    0.3750 O   0  0  0  0  0  0  0  0  0  0  0  0
   -7.1850   -3.5490    0.5730 C   0  0  0  0  0  0  0  0  0  0  0  0
   -8.6220   -0.8940   -0.3660 C   0  0  0  0  0  0  0  0  0  0  0  0
   -9.1020    0.3280   -0.7740 C   0  0  0  0  0  0  0  0  0  0  0  0
   -8.2270    1.3770   -0.8440 C   0  0  0  0  0  0  0  0  0  0  0  0
   -6.8980    1.2130   -0.5130 C   0  0  0  0  0  0  0  0  0  0  0  0
   -6.2500    2.5330   -0.6540 C   0  0  0  0  0  0  0  0  0  0  0  0
   -7.3260    3.3740   -1.3650 C   0  0  0  0  0  0  0  0  0  0  0  0
   -8.5140    2.6740   -1.2270 O   0  0  0  0  0  0  0  0  0  0  0  0
    1.6140   -1.1320    0.5390 C   0  0  0  0  0  0  0  0  0  0  0  0
    2.9150   -0.9440    0.1050 C   0  0  0  0  0  0  0  0  0  0  0  0
    3.6380   -2.1330   -0.4210 C   0  0  0  0  0  0  0  0  0  0  0  0
    2.7210   -3.1930   -0.4850 O   0  0  0  0  0  0  0  0  0  0  0  0
    6.5700   -0.3240    0.7890 C   0  0  0  0  0  0  0  0  0  0  0  0
    7.9670   -0.8560    0.4850 C   0  0  0  0  0  0  0  0  0  0  0  0
    8.8950    0.1640   -0.0870 C   0  0  0  0  0  0  0  0  0  0  0  0
    8.3440    0.6280   -1.3810 C   0  0  1  0  0  0  0  0  0  0  0  0
    8.4690   -0.3300   -2.4020 O   0  0  0  0  0  0  0  0  0  0  0  0
  1  2  2  0
  2  3  1  0
  2 34  1  0
  3  4  2  3
  3 31  1  0
  4  5  1  0
  5  6  2  0
  5 28  1  0
  6  7  1  0
  7  8  2  0
  8  9  1  0
  8 27  1  0
  9 10  2  0
  9 11  1  0
 11 12  1  0
 12 13  2  0
 12 14  1  0
 14 15  1  0
 15 16  1  0
 16 17  2  0
 16 23  1  0
 17 18  1  0
 17 20  1  0
 18 19  1  0
 20 21  2  0
 21 22  1  0
 22 23  2  0
 22 26  1  0
 23 24  1  0
 24 25  1  0
 25 26  1  0
 27 28  2  0
 28 29  1  0
 29 30  1  0
 31 32  1  0
 32 33  1  0
 33 34  1  0
 34 35  1  6
M  END
