
     RDKit          3D

 35 40  0  0  0  0  0  0  0  0999 V2000
    3.2440    2.9850    2.2070 C   0  0  0  0  0  0  0  0  0  0  0  0
    3.9450    2.8770    0.8670 C   0  0  0  0  0  0  0  0  0  0  0  0
    2.9940    2.7900   -0.2740 C   0  0  0  0  0  0  0  0  0  0  0  0
    2.0920    1.7640   -0.2970 O   0  0  0  0  0  0  0  0  0  0  0  0
    2.3220    0.4400   -0.3730 C   0  0  0  0  0  0  0  0  0  0  0  0
    3.5560   -0.1690   -0.4670 C   0  0  0  0  0  0  0  0  0  0  0  0
    3.7080   -1.5500   -0.5440 C   0  0  0  0  0  0  0  0  0  0  0  0
    2.5610   -2.3470   -0.5280 C   0  0  0  0  0  0  0  0  0  0  0  0
    1.3320   -1.7360   -0.4350 C   0  0  0  0  0  0  0  0  0  0  0  0
    1.1690   -0.3740   -0.3570 C   0  0  0  0  0  0  0  0  0  0  0  0
   -0.1210    0.2810   -0.2380 C   0  0  2  0  0  0  0  0  0  0  0  0
   -1.2020   -0.8220   -0.2510 C   0  0  0  0  0  0  0  0  0  0  0  0
   -2.5310   -0.1690   -0.1260 C   0  0  0  0  0  0  0  0  0  0  0  0
   -2.7610    0.9210   -0.8490 C   0  0  0  0  0  0  0  0  0  0  0  0
   -4.0290    1.6220   -0.7790 C   0  0  0  0  0  0  0  0  0  0  0  0
   -4.2670    2.6930   -1.4650 N   0  0  0  0  0  0  0  0  0  0  0  0
   -3.2310    3.1560   -2.2980 C   0  0  0  0  0  0  0  0  0  0  0  0
   -3.5190    4.4030   -3.0850 C   0  0  0  0  0  0  0  0  0  0  0  0
   -2.0650    2.5870   -2.4350 C   0  0  0  0  0  0  0  0  0  0  0  0
   -1.6710    1.3590   -1.7270 C   0  0  1  0  0  0  0  0  0  0  0  0
   -0.3700    1.3310   -1.1630 N   0  0  0  0  0  0  0  0  0  0  0  0
   -5.0330    1.1010    0.0960 N   0  0  0  0  0  0  0  0  0  0  0  0
   -4.7000    0.1550    1.1630 C   0  0  0  0  0  0  0  0  0  0  0  0
   -3.5320   -0.7150    0.7490 C   0  0  0  0  0  0  0  0  0  0  0  0
   -3.4830   -1.9540    1.2020 C   0  0  0  0  0  0  0  0  0  0  0  0
   -4.4490   -2.5700    2.0820 C   0  0  0  0  0  0  0  0  0  0  0  0
   -4.8970   -3.8680    2.0160 C   0  0  0  0  0  0  0  0  0  0  0  0
   -5.8060   -4.0520    3.0300 C   0  0  0  0  0  0  0  0  0  0  0  0
   -5.8710   -2.8240    3.6820 C   0  0  0  0  0  0  0  0  0  0  0  0
   -5.0510   -1.9970    3.0780 O   0  0  0  0  0  0  0  0  0  0  0  0
    3.0400   -3.6440   -0.6180 O   0  0  0  0  0  0  0  0  0  0  0  0
    4.3770   -3.6720   -0.0910 C   0  0  0  0  0  0  0  0  0  0  0  0
    4.8520   -2.3870   -0.6300 N   0  0  0  0  0  0  0  0  0  0  0  0
    6.1700   -2.0570   -1.1250 C   0  0  0  0  0  0  0  0  0  0  0  0
    7.1030   -2.0780    0.0900 C   0  0  0  0  0  0  0  0  0  0  0  0
  1  2  1  0
  2  3  1  0
  3  4  1  0
  4  5  1  0
  5  6  2  0
  5 10  1  0
  6  7  1  0
  7  8  2  0
  7 33  1  0
  8  9  1  0
  8 31  1  0
  9 10  2  0
 11 10  1  6
 11 12  1  0
 11 21  1  0
 12 13  1  0
 13 14  2  0
 13 24  1  0
 14 15  1  0
 14 20  1  0
 15 16  2  0
 15 22  1  0
 16 17  1  0
 17 18  1  0
 17 19  2  0
 19 20  1  0
 20 21  1  1
 22 23  1  0
 23 24  1  0
 24 25  2  3
 25 26  1  0
 26 27  2  0
 26 30  1  0
 27 28  1  0
 28 29  2  0
 29 30  1  0
 31 32  1  0
 32 33  1  0
 33 34  1  0
 34 35  1  0
M  CHG  1  16   1
M  END
