
     RDKit          3D

 27 27  0  0  0  0  0  0  0  0999 V2000
   -4.1400   -4.1880    2.0460 C   0  0  0  0  0  0  0  0  0  0  0  0
   -3.4390   -3.0050    1.8070 O   0  0  0  0  0  0  0  0  0  0  0  0
   -3.2290   -2.4600    0.5890 C   0  0  0  0  0  0  0  0  0  0  0  0
   -3.7100   -3.0740   -0.4160 O   0  0  0  0  0  0  0  0  0  0  0  0
   -2.4610   -1.1670    0.3820 C   0  0  0  0  0  0  0  0  0  0  0  0
   -2.3300   -0.7150   -0.8440 C   0  0  0  0  0  0  0  0  0  0  0  0
   -1.7240    0.4070   -1.4910 C   0  0  0  0  0  0  0  0  0  0  0  0
   -1.5670    0.2240   -2.9480 O   0  0  0  0  0  0  0  0  0  0  0  0
   -2.3650    0.9370   -3.7500 O   0  0  0  0  0  0  0  0  0  0  0  0
   -1.2700    1.5670   -1.1070 C   0  0  0  0  0  0  0  0  0  0  0  0
   -1.1550    2.2580    0.1430 C   0  0  0  0  0  0  0  0  0  0  0  0
   -0.1480    2.4750    0.9820 C   0  0  0  0  0  0  0  0  0  0  0  0
    1.2410    2.0470    0.8630 C   0  0  0  0  0  0  0  0  0  0  0  0
    2.1320    2.9000    1.3700 C   0  0  0  0  0  0  0  0  0  0  0  0
    1.8490    4.1880    2.0160 C   0  0  0  0  0  0  0  0  0  0  0  0
    2.3470    4.1060    3.3260 O   0  0  0  0  0  0  0  0  0  0  0  0
    1.7510    0.8710    0.2550 N   0  0  0  0  0  0  0  0  0  0  0  0
    1.2830   -0.4750    0.4240 C   0  0  0  0  0  0  0  0  0  0  0  0
    2.0480   -1.5840   -0.2990 C   0  0  2  0  0  0  0  0  0  0  0  0
    3.4540   -1.5370    0.1230 N   0  0  0  0  0  0  0  0  0  0  0  0
    2.0420   -1.3990   -1.7600 C   0  0  0  0  0  0  0  0  0  0  0  0
    0.9500   -1.4420   -2.3630 O   0  0  0  0  0  0  0  0  0  0  0  0
    3.1920   -1.1800   -2.4850 O   0  0  0  0  0  0  0  0  0  0  0  0
    3.1020   -1.0110   -3.8950 C   0  0  0  0  0  0  0  0  0  0  0  0
    0.3160   -0.6430    1.1420 N   0  0  0  0  0  0  0  0  0  0  0  0
   -0.6910   -0.3210    1.9590 C   0  0  0  0  0  0  0  0  0  0  0  0
   -1.9510   -0.5640    1.6040 C   0  0  0  0  0  0  0  0  0  0  0  0
  1  2  1  0
  2  3  1  0
  3  4  2  0
  3  5  1  0
  5  6  2  0
  5 27  1  0
  6  7  1  0
  7  8  1  0
  7 10  2  0
  8  9  1  0
 10 11  1  0
 11 12  2  0
 12 13  1  0
 13 14  2  3
 13 17  1  0
 14 15  1  0
 15 16  1  0
 17 18  1  0
 18 19  1  0
 18 25  2  0
 19 20  1  1
 19 21  1  0
 21 22  2  0
 21 23  1  0
 23 24  1  0
 25 26  1  0
 26 27  2  0
M  END
