
     RDKit          3D

 27 27  0  0  0  0  0  0  0  0999 V2000
    4.0750   -1.8430    0.6430 C   0  0  0  0  0  0  0  0  0  0  0  0
    3.5900   -0.8970   -0.0810 C   0  0  0  0  0  0  0  0  0  0  0  0
    4.3220   -0.4630   -1.2780 C   0  0  0  0  0  0  0  0  0  0  0  0
    4.0230    0.4580   -2.1460 C   0  0  0  0  0  0  0  0  0  0  0  0
    4.8990    0.6930   -3.2290 O   0  0  0  0  0  0  0  0  0  0  0  0
    2.3270   -0.2860    0.2380 C   0  0  0  0  0  0  0  0  0  0  0  0
    1.8460    0.6480   -0.4840 O   0  0  0  0  0  0  0  0  0  0  0  0
    1.5070   -0.6450    1.3440 O   0  0  0  0  0  0  0  0  0  0  0  0
    0.2850    0.0650    1.4510 C   0  0  0  0  0  0  0  0  0  0  0  0
    0.2960    1.2800    2.2470 C   0  0  0  0  0  0  0  0  0  0  0  0
    1.3010    1.6610    2.7860 N   0  0  0  0  0  0  0  0  0  0  0  0
    2.4540    2.0120    3.3490 C   0  0  0  0  0  0  0  0  0  0  0  0
    3.1610    3.0680    2.5500 C   0  0  0  0  0  0  0  0  0  0  0  0
    4.2760    3.4560    2.9270 O   0  0  0  0  0  0  0  0  0  0  0  0
    2.6060    3.6230    1.4070 O   0  0  0  0  0  0  0  0  0  0  0  0
   -0.7570   -0.4310    0.8170 C   0  0  0  0  0  0  0  0  0  0  0  0
   -2.0950    0.1250    0.7800 C   0  0  0  0  0  0  0  0  0  0  0  0
   -3.0570   -0.4540    0.1240 C   0  0  0  0  0  0  0  0  0  0  0  0
   -4.3490    0.2130    0.1660 N   0  0  0  0  0  0  0  0  0  0  0  0
   -4.9100    0.7260   -1.0440 C   0  0  0  0  0  0  0  0  0  0  0  0
   -6.1550    1.3810   -1.1560 N   0  0  0  0  0  0  0  0  0  0  0  0
   -4.2080    0.5680   -2.0930 O   0  0  0  0  0  0  0  0  0  0  0  0
   -2.9390   -1.7110   -0.6090 C   0  0  0  0  0  0  0  0  0  0  0  0
   -4.0280   -2.2730   -1.2940 C   0  0  0  0  0  0  0  0  0  0  0  0
   -3.6250   -3.4470   -1.8900 C   0  0  0  0  0  0  0  0  0  0  0  0
   -2.3000   -3.5700   -1.5490 C   0  0  0  0  0  0  0  0  0  0  0  0
   -1.9710   -2.5320   -0.8110 O   0  0  0  0  0  0  0  0  0  0  0  0
  1  2  2  0
  2  3  1  0
  2  6  1  0
  3  4  2  3
  4  5  1  0
  6  7  2  0
  6  8  1  0
  8  9  1  0
  9 10  1  0
  9 16  2  3
 10 11  2  3
 11 12  1  0
 12 13  1  0
 13 14  2  0
 13 15  1  0
 16 17  1  0
 17 18  2  3
 18 19  1  0
 18 23  1  0
 19 20  1  0
 20 21  1  0
 20 22  2  0
 23 24  2  0
 23 27  1  0
 24 25  1  0
 25 26  2  0
 26 27  1  0
M  END
