
     RDKit          3D

 27 28  0  0  0  0  0  0  0  0999 V2000
   -4.7360   -0.5740    1.8440 C   0  0  0  0  0  0  0  0  0  0  0  0
   -3.6590   -1.0340    0.9300 C   0  0  1  0  0  0  0  0  0  0  0  0
   -3.7670   -0.4480   -0.4220 C   0  0  0  0  0  0  0  0  0  0  0  0
   -4.9740   -0.5440   -1.1310 N   0  0  0  0  0  0  0  0  0  0  0  0
   -6.1270    0.1680   -0.8490 C   0  0  0  0  0  0  0  0  0  0  0  0
   -5.9570    1.6720   -1.1630 C   0  0  0  0  0  0  0  0  0  0  0  0
   -7.1690    2.2690   -0.8370 O   0  0  0  0  0  0  0  0  0  0  0  0
   -7.0450    3.5650   -1.1170 O   0  0  0  0  0  0  0  0  0  0  0  0
   -2.3920   -0.8770    1.4530 O   0  0  0  0  0  0  0  0  0  0  0  0
   -1.7000   -2.0120    1.6890 C   0  0  0  0  0  0  0  0  0  0  0  0
   -1.2210   -2.7850    0.4940 C   0  0  0  0  0  0  0  0  0  0  0  0
   -0.1760   -1.9100   -0.1850 C   0  0  0  0  0  0  0  0  0  0  0  0
   -0.3770   -1.2450   -1.2030 O   0  0  0  0  0  0  0  0  0  0  0  0
    1.0350   -1.9100    0.4280 O   0  0  0  0  0  0  0  0  0  0  0  0
    2.1500   -1.2150    0.0580 C   0  0  0  0  0  0  0  0  0  0  0  0
    3.2240   -1.4250    0.8460 C   0  0  0  0  0  0  0  0  0  0  0  0
    4.3910   -0.7790    0.5690 O   0  0  0  0  0  0  0  0  0  0  0  0
    4.5260    0.1100   -0.5150 C   0  0  0  0  0  0  0  0  0  0  0  0
    5.8250    0.7300   -0.6860 C   0  0  0  0  0  0  0  0  0  0  0  0
    6.9090    0.4570    0.1440 C   0  0  0  0  0  0  0  0  0  0  0  0
    8.1290    1.0740   -0.0270 C   0  0  0  0  0  0  0  0  0  0  0  0
    8.3360    2.0020   -1.0410 C   0  0  0  0  0  0  0  0  0  0  0  0
    9.5720    2.6220   -1.2100 O   0  0  0  0  0  0  0  0  0  0  0  0
    7.2670    2.2770   -1.8660 C   0  0  0  0  0  0  0  0  0  0  0  0
    6.0430    1.6540   -1.6900 C   0  0  0  0  0  0  0  0  0  0  0  0
    3.5090    0.3040   -1.2560 N   0  0  0  0  0  0  0  0  0  0  0  0
    2.2950   -0.3280   -1.0210 N   0  0  0  0  0  0  0  0  0  0  0  0
  2  1  1  1
  2  3  1  0
  2  9  1  0
  3  4  1  0
  4  5  1  0
  5  6  1  0
  6  7  1  0
  7  8  1  0
  9 10  1  0
 10 11  1  0
 11 12  1  0
 12 13  2  0
 12 14  1  0
 14 15  1  0
 15 16  2  0
 15 27  1  0
 16 17  1  0
 17 18  1  0
 18 19  1  0
 18 26  2  0
 19 20  2  0
 19 25  1  0
 20 21  1  0
 21 22  2  0
 22 23  1  0
 22 24  1  0
 24 25  2  0
 26 27  1  0
M  END
