
     RDKit          3D

 27 28  0  0  0  0  0  0  0  0999 V2000
   -3.8430   -1.2240   -3.4200 O   0  0  0  0  0  0  0  0  0  0  0  0
   -3.5810   -2.3660   -2.9890 C   0  0  0  0  0  0  0  0  0  0  0  0
   -3.2750   -2.5450   -1.6280 N   0  0  0  0  0  0  0  0  0  0  0  0
   -3.2810   -1.3260   -0.7670 C   0  0  1  0  0  0  0  0  0  0  0  0
   -4.3870   -1.5880    0.2610 C   0  0  0  0  0  0  0  0  0  0  0  0
   -4.0520   -2.7590    0.9710 O   0  0  0  0  0  0  0  0  0  0  0  0
   -1.9880   -1.3030   -0.1040 C   0  0  0  0  0  0  0  0  0  0  0  0
   -1.2510   -2.3600   -0.1500 O   0  0  0  0  0  0  0  0  0  0  0  0
   -1.4290   -0.2000    0.6140 N   0  0  0  0  0  0  0  0  0  0  0  0
   -0.1310   -0.4820    1.2480 C   0  0  0  0  0  0  0  0  0  0  0  0
    0.9910   -0.1370    0.3000 C   0  0  0  0  0  0  0  0  0  0  0  0
    0.7030    0.3220   -0.8300 O   0  0  0  0  0  0  0  0  0  0  0  0
    2.3200   -0.3280    0.6810 N   0  0  0  0  0  0  0  0  0  0  0  0
    3.4450   -0.0530   -0.1120 C   0  0  0  0  0  0  0  0  0  0  0  0
    3.4320    0.2390   -1.4500 C   0  0  0  0  0  0  0  0  0  0  0  0
    4.6140    0.5070   -2.1260 C   0  0  0  0  0  0  0  0  0  0  0  0
    5.8200    0.4830   -1.4620 C   0  0  0  0  0  0  0  0  0  0  0  0
    5.8660    0.1920   -0.1140 C   0  0  0  0  0  0  0  0  0  0  0  0
    7.1040    0.1750    0.5350 O   0  0  0  0  0  0  0  0  0  0  0  0
    4.6950   -0.0660    0.5230 C   0  0  0  0  0  0  0  0  0  0  0  0
   -2.0230    1.0450    0.6720 C   0  0  0  0  0  0  0  0  0  0  0  0
   -3.1720    1.1730    0.0840 O   0  0  0  0  0  0  0  0  0  0  0  0
   -1.5660    2.2720    1.2990 C   0  0  0  0  0  0  0  0  0  0  0  0
   -2.2950    3.4740    1.3800 C   0  0  0  0  0  0  0  0  0  0  0  0
   -1.5460    4.4270    2.0130 C   0  0  0  0  0  0  0  0  0  0  0  0
   -0.4160    3.8600    2.3110 O   0  0  0  0  0  0  0  0  0  0  0  0
   -0.3840    2.5900    1.9080 C   0  0  0  0  0  0  0  0  0  0  0  0
  1  2  2  0
  2  3  1  0
  3  4  1  0
  4  5  1  1
  4  7  1  0
  5  6  1  0
  7  8  2  0
  7  9  1  0
  9 10  1  0
  9 21  1  0
 10 11  1  0
 11 12  2  0
 11 13  1  0
 13 14  1  0
 14 15  2  0
 14 20  1  0
 15 16  1  0
 16 17  2  0
 17 18  1  0
 18 19  1  0
 18 20  2  0
 21 22  2  0
 21 23  1  0
 23 24  1  0
 23 27  2  0
 24 25  2  0
 25 26  1  0
 26 27  1  0
M  END
