
     RDKit          3D

 27 29  0  0  0  0  0  0  0  0999 V2000
    5.5850   -1.9790   -1.0060 C   0  0  0  0  0  0  0  0  0  0  0  0
    5.8190   -1.1480    0.0830 O   0  0  0  0  0  0  0  0  0  0  0  0
    5.1000   -1.5190    1.1950 C   0  0  0  0  0  0  0  0  0  0  0  0
    3.6160   -1.5130    1.0370 C   0  0  0  0  0  0  0  0  0  0  0  0
    3.1320   -0.1950    0.6910 N   0  0  0  0  0  0  0  0  0  0  0  0
    1.6980    0.0520    0.4850 C   0  0  0  0  0  0  0  0  0  0  0  0
    1.0330   -0.9780    0.6450 O   0  0  0  0  0  0  0  0  0  0  0  0
    1.2860    1.3930    0.1410 C   0  0  0  0  0  0  0  0  0  0  0  0
    0.0180    1.7620   -0.0750 C   0  0  0  0  0  0  0  0  0  0  0  0
   -0.9420    0.7750    0.0460 N   0  0  0  0  0  0  0  0  0  0  0  0
   -2.3250    0.7230   -0.0880 C   0  0  0  0  0  0  0  0  0  0  0  0
   -2.9940    1.6970   -0.3740 O   0  0  0  0  0  0  0  0  0  0  0  0
   -3.0670   -0.5640    0.1190 C   0  0  0  0  0  0  0  0  0  0  0  0
   -4.3980   -0.4890    0.4210 C   0  0  0  0  0  0  0  0  0  0  0  0
   -5.1700   -1.6310    0.6230 C   0  0  0  0  0  0  0  0  0  0  0  0
   -4.5750   -2.8560    0.5150 C   0  0  0  0  0  0  0  0  0  0  0  0
   -5.3280   -4.0040    0.7130 O   0  0  0  0  0  0  0  0  0  0  0  0
   -6.6110   -4.1060    0.4090 O   0  0  0  0  0  0  0  0  0  0  0  0
   -3.2290   -2.9350    0.2100 C   0  0  0  0  0  0  0  0  0  0  0  0
   -2.4700   -1.7680    0.0110 C   0  0  0  0  0  0  0  0  0  0  0  0
   -0.2770    3.1760   -0.4230 C   0  0  0  0  0  0  0  0  0  0  0  0
   -1.4280    3.8710   -0.6990 C   0  0  0  0  0  0  0  0  0  0  0  0
   -1.0580    5.1980   -0.9580 C   0  0  0  0  0  0  0  0  0  0  0  0
    0.2550    5.2930   -0.8410 N   0  0  0  0  0  0  0  0  0  0  0  0
    0.7560    4.1030   -0.5220 C   0  0  0  0  0  0  0  0  0  0  0  0
    2.0550    3.6560   -0.2850 O   0  0  0  0  0  0  0  0  0  0  0  0
    2.2820    2.3770    0.0250 O   0  0  0  0  0  0  0  0  0  0  0  0
  1  2  1  0
  2  3  1  0
  3  4  1  0
  4  5  1  0
  5  6  1  0
  6  7  2  0
  6  8  1  0
  8  9  2  0
  8 27  1  0
  9 10  1  0
  9 21  1  0
 10 11  1  0
 11 12  2  0
 11 13  1  0
 13 14  2  0
 13 20  1  0
 14 15  1  0
 15 16  2  0
 16 17  1  0
 16 19  1  0
 17 18  1  0
 19 20  2  0
 21 22  1  0
 21 25  2  0
 22 23  2  0
 23 24  1  0
 24 25  1  0
 25 26  1  0
 26 27  1  0
M  END
