
     RDKit          3D

 27 28  0  0  0  0  0  0  0  0999 V2000
    4.7790   -2.3940    0.2710 C   0  0  0  0  0  0  0  0  0  0  0  0
    4.1980   -1.0420    0.6000 C   0  0  1  0  0  0  0  0  0  0  0  0
    4.3720   -0.0940   -0.5600 C   0  0  0  0  0  0  0  0  0  0  0  0
    3.8520    1.1870   -0.3240 O   0  0  0  0  0  0  0  0  0  0  0  0
    4.2770    2.0260    0.6890 C   0  0  0  0  0  0  0  0  0  0  0  0
    5.1870    1.6550    1.4730 O   0  0  0  0  0  0  0  0  0  0  0  0
    3.7100    3.2840    0.8570 O   0  0  0  0  0  0  0  0  0  0  0  0
    2.7480   -1.2530    0.9050 C   0  0  0  0  0  0  0  0  0  0  0  0
    2.2940   -0.9400    2.0310 O   0  0  0  0  0  0  0  0  0  0  0  0
    1.8830   -1.7870   -0.0180 O   0  0  0  0  0  0  0  0  0  0  0  0
    0.5180   -2.0350    0.1180 C   0  0  0  0  0  0  0  0  0  0  0  0
   -0.3460   -0.8170    0.3450 C   0  0  0  0  0  0  0  0  0  0  0  0
   -0.0430   -0.0980    1.4850 O   0  0  0  0  0  0  0  0  0  0  0  0
   -0.7620    1.0160    1.7990 C   0  0  0  0  0  0  0  0  0  0  0  0
   -1.3840    1.7960    1.0460 N   0  0  0  0  0  0  0  0  0  0  0  0
   -1.5860    1.8510   -0.3270 C   0  0  0  0  0  0  0  0  0  0  0  0
   -0.8290    2.5240   -1.2960 C   0  0  0  0  0  0  0  0  0  0  0  0
   -1.4370    2.2740   -2.4620 N   0  0  0  0  0  0  0  0  0  0  0  0
   -2.5080    1.4930   -2.2440 C   0  0  0  0  0  0  0  0  0  0  0  0
   -3.2890    1.0850   -3.1570 O   0  0  0  0  0  0  0  0  0  0  0  0
   -2.6240    1.2170   -0.9350 N   0  0  0  0  0  0  0  0  0  0  0  0
   -3.6370    0.4240   -0.3310 C   0  0  0  0  0  0  0  0  0  0  0  0
   -3.9790   -0.8110   -0.8380 C   0  0  0  0  0  0  0  0  0  0  0  0
   -4.9490   -1.6270   -0.3020 C   0  0  0  0  0  0  0  0  0  0  0  0
   -5.6380   -1.2060    0.8140 C   0  0  0  0  0  0  0  0  0  0  0  0
   -5.3120    0.0270    1.3380 C   0  0  0  0  0  0  0  0  0  0  0  0
   -4.3380    0.8380    0.7940 C   0  0  0  0  0  0  0  0  0  0  0  0
  2  1  1  6
  2  3  1  0
  2  8  1  0
  3  4  1  0
  4  5  1  0
  5  6  2  0
  5  7  1  0
  8  9  2  0
  8 10  1  0
 10 11  1  0
 11 12  1  0
 12 13  1  0
 13 14  1  0
 14 15  2  3
 15 16  1  0
 16 17  2  0
 16 21  1  0
 17 18  1  0
 18 19  1  0
 19 20  2  0
 19 21  1  0
 21 22  1  0
 22 23  2  0
 22 27  1  0
 23 24  1  0
 24 25  2  0
 25 26  1  0
 26 27  2  0
M  END
