
     RDKit          3D

 22 24  0  0  0  0  0  0  0  0999 V2000
   -1.0640    2.7600   -0.3950 C   0  0  0  0  0  0  0  0  0  0  0  0
   -0.6990    1.5460    0.4380 C   0  0  0  0  0  0  0  0  0  0  0  0
   -1.1410    0.2800   -0.2040 C   0  0  0  0  0  0  0  0  0  0  0  0
   -0.2410   -0.6420   -0.5220 C   0  0  0  0  0  0  0  0  0  0  0  0
    1.1300   -0.4190   -0.2500 N   0  0  0  0  0  0  0  0  0  0  0  0
    1.8370   -0.9570    0.7610 C   0  0  0  0  0  0  0  0  0  0  0  0
    1.3360   -1.8990    1.8100 C   0  0  0  0  0  0  0  0  0  0  0  0
    3.1430   -0.4980    0.6920 C   0  0  0  0  0  0  0  0  0  0  0  0
    4.2770   -0.8240    1.5980 C   0  0  0  0  0  0  0  0  0  0  0  0
    3.1570    0.3370   -0.4160 C   0  0  0  0  0  0  0  0  0  0  0  0
    4.1920    1.0700   -0.9640 C   0  0  0  0  0  0  0  0  0  0  0  0
    5.3100    1.0170   -0.4290 O   0  0  0  0  0  0  0  0  0  0  0  0
    3.9240    1.8060   -2.0580 N   0  0  0  0  0  0  0  0  0  0  0  0
    2.6980    1.8390   -2.6100 C   0  0  0  0  0  0  0  0  0  0  0  0
    1.6620    1.1420   -2.1110 N   0  0  0  0  0  0  0  0  0  0  0  0
    1.9100    0.3890   -1.0040 C   0  0  0  0  0  0  0  0  0  0  0  0
   -2.5860    0.1140   -0.4580 C   0  0  2  0  0  0  0  0  0  0  0  0
   -3.3820    0.1590    0.8360 C   0  0  0  0  0  0  0  0  0  0  0  0
   -4.5320   -0.8340    0.8000 C   0  0  0  0  0  0  0  0  0  0  0  0
   -4.1020   -2.1420    0.6740 O   0  0  0  0  0  0  0  0  0  0  0  0
   -2.9000   -2.2580   -0.0220 C   0  0  0  0  0  0  0  0  0  0  0  0
   -2.9040   -1.2130   -1.1130 C   0  0  0  0  0  0  0  0  0  0  0  0
  1  2  1  0
  2  3  1  0
  3  4  2  3
 17  3  1  1
  4  5  1  0
  5  6  1  0
  5 16  1  0
  6  7  1  0
  6  8  2  0
  8  9  1  0
  8 10  1  0
 10 11  1  0
 10 16  2  0
 11 12  2  0
 11 13  1  0
 13 14  1  0
 14 15  2  0
 15 16  1  0
 17 18  1  0
 17 22  1  0
 18 19  1  0
 19 20  1  0
 20 21  1  0
 21 22  1  0
M  END
