
     RDKit          3D

 22 23  0  0  0  0  0  0  0  0999 V2000
   -4.9920    4.0610   -2.5970 C   0  0  0  0  0  0  0  0  0  0  0  0
   -3.9370    4.4570   -1.6670 C   0  0  0  0  0  0  0  0  0  0  0  0
   -3.0470    3.4980   -1.2730 C   0  0  0  0  0  0  0  0  0  0  0  0
   -3.2160    2.2060   -1.7910 C   0  0  0  0  0  0  0  0  0  0  0  0
   -2.4460    1.1230   -1.5310 C   0  0  0  0  0  0  0  0  0  0  0  0
   -2.9050   -0.1150   -2.2540 C   0  0  0  0  0  0  0  0  0  0  0  0
   -1.3310    1.2580   -0.6650 C   0  0  0  0  0  0  0  0  0  0  0  0
   -0.3490    0.7930   -0.0650 C   0  0  0  0  0  0  0  0  0  0  0  0
    0.5040   -0.2700    0.2750 C   0  0  0  0  0  0  0  0  0  0  0  0
    1.5940    0.0120    1.1220 N   0  0  0  0  0  0  0  0  0  0  0  0
    2.4540   -0.9210    1.5040 C   0  0  0  0  0  0  0  0  0  0  0  0
    3.4970   -0.5920    2.3330 N   0  0  0  0  0  0  0  0  0  0  0  0
    4.3880   -1.4940    2.7480 C   0  0  0  0  0  0  0  0  0  0  0  0
    5.5240   -1.1510    3.6530 C   0  0  0  0  0  0  0  0  0  0  0  0
    4.2590   -2.8080    2.3280 C   0  0  0  0  0  0  0  0  0  0  0  0
    5.1550   -3.7730    2.7300 O   0  0  0  0  0  0  0  0  0  0  0  0
    3.2230   -3.1600    1.4980 C   0  0  0  0  0  0  0  0  0  0  0  0
    2.3260   -2.2210    1.0890 C   0  0  0  0  0  0  0  0  0  0  0  0
    1.2690   -2.5330    0.2580 C   0  0  0  0  0  0  0  0  0  0  0  0
    1.1560   -3.7150   -0.1170 O   0  0  0  0  0  0  0  0  0  0  0  0
    0.4210   -1.5410   -0.1000 N   0  0  0  0  0  0  0  0  0  0  0  0
   -0.6680   -1.9690   -0.9650 C   0  0  0  0  0  0  0  0  0  0  0  0
  1  2  1  0
  2  3  2  3
  3  4  1  0
  4  5  2  3
  5  6  1  0
  5  7  1  0
  7  8  2  3
  8  9  1  0
  9 10  2  0
  9 21  1  0
 10 11  1  0
 11 12  2  0
 11 18  1  0
 12 13  1  0
 13 14  1  0
 13 15  2  0
 15 16  1  0
 15 17  1  0
 17 18  2  0
 18 19  1  0
 19 20  2  0
 19 21  1  0
 21 22  1  0
M  END
