
     RDKit          3D

 22 24  0  0  0  0  0  0  0  0999 V2000
   -4.6750   -0.5170    1.0130 C   0  0  0  0  0  0  0  0  0  0  0  0
   -3.3170   -0.0100    1.4040 C   0  0  0  0  0  0  0  0  0  0  0  0
   -2.3050   -0.2870    0.3820 N   0  0  0  0  0  0  0  0  0  0  0  0
   -1.6340   -1.5140    0.5170 C   0  0  0  0  0  0  0  0  0  0  0  0
   -2.0250   -2.3680    1.4090 O   0  0  0  0  0  0  0  0  0  0  0  0
   -0.4740   -2.0360   -0.2390 C   0  0  0  0  0  0  0  0  0  0  0  0
    0.7860   -2.0650    0.5660 C   0  0  0  0  0  0  0  0  0  0  0  0
    1.8400   -1.7980   -0.2760 O   0  0  0  0  0  0  0  0  0  0  0  0
    2.9520   -0.9850   -0.1060 C   0  0  0  0  0  0  0  0  0  0  0  0
    4.1070   -1.4810   -0.6800 C   0  0  0  0  0  0  0  0  0  0  0  0
    5.3390   -0.8250   -0.6240 C   0  0  0  0  0  0  0  0  0  0  0  0
    5.4220    0.3770    0.0330 C   0  0  0  0  0  0  0  0  0  0  0  0
    4.2790    0.8640    0.5980 C   0  0  0  0  0  0  0  0  0  0  0  0
    3.0190    0.2200    0.5540 C   0  0  0  0  0  0  0  0  0  0  0  0
    1.9250    0.8890    1.1920 N   0  0  0  0  0  0  0  0  0  0  0  0
    0.6400    1.2710    0.7200 C   0  0  0  0  0  0  0  0  0  0  0  0
    0.4240    1.2620   -0.7430 C   0  0  0  0  0  0  0  0  0  0  0  0
   -1.0200    1.3790   -1.1360 C   0  0  0  0  0  0  0  0  0  0  0  0
   -1.3820    2.2270   -2.0840 N   0  0  0  0  0  0  0  0  0  0  0  0
   -2.7620    2.2110   -2.3240 C   0  0  0  0  0  0  0  0  0  0  0  0
   -3.2290    1.2150   -1.3540 C   0  0  0  0  0  0  0  0  0  0  0  0
   -2.1650    0.7170   -0.6490 C   0  0  0  0  0  0  0  0  0  0  0  0
  1  2  1  0
  2  3  1  0
  3  4  1  0
  3 22  1  0
  4  5  2  0
  4  6  1  0
  6  7  1  0
  7  8  1  0
  8  9  1  0
  9 10  2  0
  9 14  1  0
 10 11  1  0
 11 12  2  0
 12 13  1  0
 13 14  2  0
 14 15  1  0
 15 16  1  0
 16 17  1  0
 17 18  1  0
 18 19  2  0
 18 22  1  0
 19 20  1  0
 20 21  1  0
 21 22  2  0
M  END
