
     RDKit          3D

 22 24  0  0  0  0  0  0  0  0999 V2000
   -2.7680   -3.3510    0.9230 C   0  0  0  0  0  0  0  0  0  0  0  0
   -3.7040   -2.2250    0.8690 C   0  0  0  0  0  0  0  0  0  0  0  0
   -3.4380   -0.9630    0.6540 C   0  0  0  0  0  0  0  0  0  0  0  0
   -4.5930   -0.0790    0.6590 C   0  0  0  0  0  0  0  0  0  0  0  0
   -4.8660    1.1190    0.1140 C   0  0  0  0  0  0  0  0  0  0  0  0
   -4.0770    2.0420   -0.7330 C   0  0  0  0  0  0  0  0  0  0  0  0
   -2.6480    2.1990   -0.2610 C   0  0  0  0  0  0  0  0  0  0  0  0
   -1.6800    1.3390   -1.0410 C   0  0  0  0  0  0  0  0  0  0  0  0
   -1.2740    0.2090   -0.2140 N   0  0  0  0  0  0  0  0  0  0  0  0
   -2.0190   -0.7030    0.4570 C   0  0  0  0  0  0  0  0  0  0  0  0
   -1.1200   -1.5070    1.0470 N   0  0  0  0  0  0  0  0  0  0  0  0
    0.1410   -1.1420    0.7780 C   0  0  0  0  0  0  0  0  0  0  0  0
    1.4110   -1.5820    1.1000 C   0  0  0  0  0  0  0  0  0  0  0  0
    2.5270   -0.9380    0.6250 C   0  0  0  0  0  0  0  0  0  0  0  0
    2.3800    0.1620   -0.1830 C   0  0  0  0  0  0  0  0  0  0  0  0
    3.5720    0.8760   -0.7090 C   0  0  0  0  0  0  0  0  0  0  0  0
    3.4460    1.8810   -1.4480 O   0  0  0  0  0  0  0  0  0  0  0  0
    4.8500    0.4480   -0.3960 O   0  0  0  0  0  0  0  0  0  0  0  0
    6.0140    1.1110   -0.8850 C   0  0  0  0  0  0  0  0  0  0  0  0
    7.2300    0.3670   -0.3380 C   0  0  0  0  0  0  0  0  0  0  0  0
    1.1450    0.5820   -0.4910 N   0  0  0  0  0  0  0  0  0  0  0  0
    0.0390   -0.0290   -0.0410 C   0  0  0  0  0  0  0  0  0  0  0  0
  1  2  1  0
  2  3  2  3
  3  4  1  0
  3 10  1  0
  4  5  2  0
  5  6  1  0
  6  7  1  0
  7  8  1  0
  8  9  1  0
  9 10  1  0
  9 22  1  0
 10 11  2  0
 11 12  1  0
 12 13  2  0
 12 22  1  0
 13 14  1  0
 14 15  2  0
 15 16  1  0
 15 21  1  0
 16 17  2  0
 16 18  1  0
 18 19  1  0
 19 20  1  0
 21 22  2  0
M  END
