
     RDKit          3D

 18 19  0  0  0  0  0  0  0  0999 V2000
    3.6090   -0.9080    0.9440 N   0  0  0  0  0  0  0  0  0  0  0  0
    2.8130   -0.7340   -0.2690 C   0  0  1  0  0  0  0  0  0  0  0  0
    1.3990   -1.0820   -0.0110 C   0  0  0  0  0  0  0  0  0  0  0  0
    0.6660   -0.0130   -0.2410 C   0  0  0  0  0  0  0  0  0  0  0  0
   -0.7370    0.0840   -0.1140 N   0  0  0  0  0  0  0  0  0  0  0  0
   -1.5900   -0.9720    0.2870 C   0  0  0  0  0  0  0  0  0  0  0  0
   -1.0730   -2.0770    0.5510 O   0  0  0  0  0  0  0  0  0  0  0  0
   -3.0650   -0.7810    0.3940 C   0  0  0  0  0  0  0  0  0  0  0  0
   -3.8760   -1.8420    0.7920 C   0  0  0  0  0  0  0  0  0  0  0  0
   -5.4930   -1.0970    0.7540 S   0  0  0  0  0  0  0  0  0  0  0  0
   -4.7560    0.5590    0.1920 C   0  0  0  0  0  0  0  0  0  0  0  0
   -5.6680    1.5320    0.0090 O   0  0  0  0  0  0  0  0  0  0  0  0
   -3.7030    0.2970    0.1510 O   0  0  0  0  0  0  0  0  0  0  0  0
    1.5300    1.0970   -0.6590 C   0  0  0  0  0  0  0  0  0  0  0  0
    1.1480    2.4580   -1.0130 C   0  0  0  0  0  0  0  0  0  0  0  0
    2.0500    3.2910   -1.3540 O   0  0  0  0  0  0  0  0  0  0  0  0
   -0.1780    2.8410   -0.9780 O   0  0  0  0  0  0  0  0  0  0  0  0
    2.7960    0.6630   -0.6730 C   0  0  0  0  0  0  0  0  0  0  0  0
  2  1  1  1
  2  3  1  0
  2 18  1  0
  3  4  2  0
  4  5  1  0
  4 14  1  0
  5  6  1  0
  6  7  2  0
  6  8  1  0
  8  9  2  0
  8 13  1  0
  9 10  1  0
 10 11  1  0
 11 12  2  0
 11 13  1  0
 14 15  1  0
 14 18  2  0
 15 16  2  0
 15 17  1  0
M  CHG  1   1   1
M  END
