
     RDKit          3D

 18 19  0  0  0  0  0  0  0  0999 V2000
    6.0680    0.3480    1.2110 N   0  0  0  0  0  0  0  0  0  0  0  0
    5.3280   -0.8400    1.2690 C   0  0  0  0  0  0  0  0  0  0  0  0
    5.9080   -1.9030    1.6540 O   0  0  0  0  0  0  0  0  0  0  0  0
    3.6010   -0.9710    0.8350 S   0  0  0  0  0  0  0  0  0  0  0  0
    3.0260    0.6540    0.3300 C   0  0  0  0  0  0  0  0  0  0  0  0
    1.5980    0.6590   -0.0540 C   0  0  0  0  0  0  0  0  0  0  0  0
    1.0980    1.7470   -0.4230 O   0  0  0  0  0  0  0  0  0  0  0  0
    0.7840   -0.4610   -0.0310 O   0  0  0  0  0  0  0  0  0  0  0  0
   -0.5520   -0.3820   -0.4060 C   0  0  0  0  0  0  0  0  0  0  0  0
   -0.9860   -0.5740   -1.7010 C   0  0  0  0  0  0  0  0  0  0  0  0
   -2.3150   -0.4940   -2.0630 C   0  0  0  0  0  0  0  0  0  0  0  0
   -3.2550   -0.2070   -1.0800 C   0  0  0  0  0  0  0  0  0  0  0  0
   -4.6380   -0.1140   -1.4080 N   0  0  0  0  0  0  0  0  0  0  0  0
   -2.8340   -0.0110    0.2200 C   0  0  0  0  0  0  0  0  0  0  0  0
   -1.4870   -0.0970    0.5660 C   0  0  0  0  0  0  0  0  0  0  0  0
   -1.3360    0.1400    1.9280 O   0  0  0  0  0  0  0  0  0  0  0  0
   -2.6280    0.0490    2.5120 C   0  0  0  0  0  0  0  0  0  0  0  0
   -3.5000    0.2830    1.4060 O   0  0  0  0  0  0  0  0  0  0  0  0
  1  2  1  0
  2  3  2  0
  2  4  1  0
  4  5  1  0
  5  6  1  0
  6  7  2  0
  6  8  1  0
  8  9  1  0
  9 10  2  0
  9 15  1  0
 10 11  1  0
 11 12  2  0
 12 13  1  0
 12 14  1  0
 14 15  2  0
 14 18  1  0
 15 16  1  0
 16 17  1  0
 17 18  1  0
M  CHG  1  13   1
M  END
