
     RDKit          3D

 18 18  0  0  0  0  0  0  0  0999 V2000
    7.0830    0.2930    0.2480 C   0  0  0  0  0  0  0  0  0  0  0  0
    5.7330    0.6910    0.3880 O   0  0  0  0  0  0  0  0  0  0  0  0
    4.6900   -0.0880   -0.0700 C   0  0  0  0  0  0  0  0  0  0  0  0
    4.9460   -1.1820   -0.6260 O   0  0  0  0  0  0  0  0  0  0  0  0
    3.2980    0.3200    0.0720 C   0  0  0  0  0  0  0  0  0  0  0  0
    2.3220   -0.4230   -0.3630 C   0  0  0  0  0  0  0  0  0  0  0  0
    0.9490    0.0140   -0.2050 C   0  0  0  0  0  0  0  0  0  0  0  0
    0.7150    1.1020    0.3500 O   0  0  0  0  0  0  0  0  0  0  0  0
   -0.1440   -0.7760   -0.6710 N   0  0  0  0  0  0  0  0  0  0  0  0
   -1.5160   -0.3520   -0.5190 C   0  0  0  0  0  0  0  0  0  0  0  0
   -2.2170   -0.2000   -1.6240 C   0  0  0  0  0  0  0  0  0  0  0  0
   -3.6320    0.2230   -1.7240 C   0  0  0  0  0  0  0  0  0  0  0  0
   -4.5120   -0.6480   -1.1450 O   0  0  0  0  0  0  0  0  0  0  0  0
   -4.6620   -0.5520    0.5020 S   0  0  0  0  0  0  0  0  0  0  0  0
   -5.9020    0.2350    1.0070 N   0  0  0  0  0  0  0  0  0  0  0  0
   -3.1850   -0.1950    1.3660 C   0  0  0  0  0  0  0  0  0  0  0  0
   -3.2980    0.0570    2.7290 O   0  0  0  0  0  0  0  0  0  0  0  0
   -1.9640   -0.1410    0.8500 C   0  0  0  0  0  0  0  0  0  0  0  0
  1  2  1  0
  2  3  1  0
  3  4  2  0
  3  5  1  0
  5  6  2  3
  6  7  1  0
  7  8  2  0
  7  9  1  0
  9 10  1  0
 10 11  2  0
 10 18  1  0
 11 12  1  0
 12 13  1  0
 14 13  1  6
 14 15  2  0
 14 16  1  0
 16 17  1  0
 16 18  2  0
M  CHG  1  15   1
M  END
