
     RDKit          3D

 20 20  0  0  0  0  0  0  0  0999 V2000
    4.9960   -0.8440   -0.6080 C   0  0  0  0  0  0  0  0  0  0  0  0
    3.6780   -0.7580   -0.5930 C   0  0  0  0  0  0  0  0  0  0  0  0
    2.8530   -2.0140   -0.6560 C   0  0  0  0  0  0  0  0  0  0  0  0
    1.3710   -1.6030   -0.5430 C   0  0  0  0  0  0  0  0  0  0  0  0
    1.2640   -0.6570    0.6090 C   0  0  2  0  0  0  0  0  0  0  0  0
    0.0400   -0.6170    1.3900 C   0  0  2  0  0  0  0  0  0  0  0  0
   -0.1950   -1.9960    1.9880 C   0  0  0  0  0  0  0  0  0  0  0  0
   -1.2260   -0.0550    0.8900 C   0  0  1  0  0  0  0  0  0  0  0  0
   -2.1520   -0.2320    2.0380 N   0  0  0  0  0  0  0  0  0  0  0  0
   -1.1930    1.4370    0.6530 C   0  0  0  0  0  0  0  0  0  0  0  0
   -2.5260    1.9390    0.1400 C   0  0  0  0  0  0  0  0  0  0  0  0
   -2.4490    3.4480   -0.0900 C   0  0  0  0  0  0  0  0  0  0  0  0
   -3.6580    3.9380   -0.5610 O   0  0  0  0  0  0  0  0  0  0  0  0
   -1.8900   -0.6690   -0.2420 C   0  0  0  0  0  0  0  0  0  0  0  0
   -2.9910   -1.2590   -0.0720 O   0  0  0  0  0  0  0  0  0  0  0  0
   -1.4560   -0.6970   -1.5530 O   0  0  0  0  0  0  0  0  0  0  0  0
   -2.1610   -1.3180   -2.6070 C   0  0  0  0  0  0  0  0  0  0  0  0
    1.7730    0.5770    0.1460 O   0  0  0  0  0  0  0  0  0  0  0  0
    2.9890    0.5320   -0.5170 C   0  0  0  0  0  0  0  0  0  0  0  0
    3.5490    1.5820   -1.0760 C   0  0  0  0  0  0  0  0  0  0  0  0
  1  2  2  0
  2  3  1  0
  2 19  1  0
  3  4  1  0
  5  4  1  6
  5  6  1  0
  5 18  1  0
  6  7  1  6
  6  8  1  0
  8  9  1  1
  8 10  1  0
  8 14  1  0
 10 11  1  0
 11 12  1  0
 12 13  1  0
 14 15  2  0
 14 16  1  0
 16 17  1  0
 18 19  1  0
 19 20  2  0
M  CHG  1   9   1
M  END
