
     RDKit          3D

 20 20  0  0  0  0  0  0  0  0999 V2000
   -0.7910    4.8500   -0.9720 C   0  0  0  0  0  0  0  0  0  0  0  0
   -0.6710    3.5630   -0.3970 O   0  0  0  0  0  0  0  0  0  0  0  0
   -1.3630    2.4660   -0.8680 C   0  0  0  0  0  0  0  0  0  0  0  0
   -2.1320    2.5950   -1.8420 O   0  0  0  0  0  0  0  0  0  0  0  0
   -1.1580    1.1640   -0.1860 C   0  0  1  0  0  0  0  0  0  0  0  0
   -1.5830    1.3720    1.2520 C   0  0  0  0  0  0  0  0  0  0  0  0
   -1.9440    0.0630   -0.8580 C   0  0  0  0  0  0  0  0  0  0  0  0
   -1.8250   -1.1470    0.0400 C   0  0  1  0  0  0  0  0  0  0  0  0
   -2.4930   -2.2180   -0.5450 O   0  0  0  0  0  0  0  0  0  0  0  0
   -3.5890   -2.5680    0.2290 C   0  0  0  0  0  0  0  0  0  0  0  0
   -4.3300   -3.6680   -0.3130 N   0  0  0  0  0  0  0  0  0  0  0  0
   -0.4320   -1.4690    0.4230 C   0  0  0  0  0  0  0  0  0  0  0  0
    0.6260   -0.6040   -0.2480 C   0  0  2  0  0  0  0  0  0  0  0  0
    0.6200   -1.0000   -1.5870 O   0  0  0  0  0  0  0  0  0  0  0  0
    1.8910   -0.9060    0.4560 C   0  0  0  0  0  0  0  0  0  0  0  0
    3.1460   -0.2630    0.0770 C   0  0  2  0  0  0  0  0  0  0  0  0
    4.2120   -0.8770    1.0360 C   0  0  0  0  0  0  0  0  0  0  0  0
    3.2840    1.2130    0.3460 C   0  0  0  0  0  0  0  0  0  0  0  0
    3.6480   -0.5350   -1.3030 C   0  0  0  0  0  0  0  0  0  0  0  0
    0.3170    0.8420   -0.2010 C   0  0  0  0  0  0  0  0  0  0  0  0
  1  2  1  0
  2  3  1  0
  3  4  2  0
  3  5  1  0
  5  6  1  1
  5  7  1  0
  5 20  1  0
  7  8  1  0
  8  9  1  6
  8 12  1  0
  9 10  1  0
 10 11  1  0
 12 13  1  0
 13 14  1  6
 13 15  1  0
 13 20  1  0
 15 16  1  0
 16 17  1  1
 16 18  1  0
 16 19  1  0
M  CHG  1  11   1
M  END
