
     RDKit          3D

 20 21  0  0  0  0  0  0  0  0999 V2000
   -5.8500   -0.6750   -0.4070 C   0  0  0  0  0  0  0  0  0  0  0  0
   -4.3770   -0.7370   -0.6960 C   0  0  0  0  0  0  0  0  0  0  0  0
   -3.7480    0.6160   -0.6990 C   0  0  1  0  0  0  0  0  0  0  0  0
   -3.8740    1.3470    0.5970 C   0  0  0  0  0  0  0  0  0  0  0  0
   -3.1750    0.7900    1.6430 O   0  0  0  0  0  0  0  0  0  0  0  0
   -1.8040    0.8100    1.3630 C   0  0  0  0  0  0  0  0  0  0  0  0
   -1.5850   -0.0960    0.1850 C   0  0  2  0  0  0  0  0  0  0  0  0
   -0.0970   -0.2920   -0.1080 C   0  0  2  0  0  0  0  0  0  0  0  0
   -0.0710   -1.1820   -1.2590 N   0  0  0  0  0  0  0  0  0  0  0  0
    0.4580   -1.0610    1.0620 C   0  0  0  0  0  0  0  0  0  0  0  0
   -0.3440   -2.1970    1.3280 O   0  0  0  0  0  0  0  0  0  0  0  0
    0.5960    1.0010   -0.3200 C   0  0  0  0  0  0  0  0  0  0  0  0
    2.0430    0.8760   -0.6120 C   0  0  0  0  0  0  0  0  0  0  0  0
    2.8120    0.2820    0.3700 O   0  0  0  0  0  0  0  0  0  0  0  0
    4.1230    0.2510   -0.0750 C   0  0  1  0  0  0  0  0  0  0  0  0
    4.9690    1.0070    0.9480 C   0  0  0  0  0  0  0  0  0  0  0  0
    6.2520    0.2410    0.9110 C   0  0  0  0  0  0  0  0  0  0  0  0
    6.1060   -0.8130    0.0330 O   0  0  0  0  0  0  0  0  0  0  0  0
    4.7420   -1.1150   -0.0280 C   0  0  0  0  0  0  0  0  0  0  0  0
   -2.2690    0.4800   -1.0140 C   0  0  0  0  0  0  0  0  0  0  0  0
  1  2  1  0
  3  2  1  1
  3  4  1  0
  3 20  1  0
  4  5  1  0
  5  6  1  0
  7  6  1  1
  7  8  1  0
  7 20  1  0
  8  9  1  6
  8 10  1  0
  8 12  1  0
 10 11  1  0
 12 13  1  0
 13 14  1  0
 15 14  1  1
 15 16  1  0
 15 19  1  0
 16 17  1  0
 17 18  1  0
 18 19  1  0
M  CHG  1   9   1
M  END
