
     RDKit          3D

 20 21  0  0  0  0  0  0  0  0999 V2000
   -3.7500    1.5950    0.6310 C   0  0  0  0  0  0  0  0  0  0  0  0
   -2.4760    1.6870    1.3630 C   0  0  0  0  0  0  0  0  0  0  0  0
   -1.5190    0.5580    1.3430 C   0  0  0  0  0  0  0  0  0  0  0  0
   -0.9580    0.2520    0.0020 C   0  0  2  0  0  0  0  0  0  0  0  0
   -1.9960   -0.1380   -0.9730 C   0  0  0  0  0  0  0  0  0  0  0  0
   -1.5430   -1.3010   -1.6990 N   0  0  0  0  0  0  0  0  0  0  0  0
   -0.3730   -1.7910   -1.0620 C   0  0  2  0  0  0  0  0  0  0  0  0
   -0.6210   -3.1870   -0.5440 C   0  0  0  0  0  0  0  0  0  0  0  0
    0.2560   -3.8290    0.0730 O   0  0  0  0  0  0  0  0  0  0  0  0
   -1.8500   -3.7850   -0.7530 O   0  0  0  0  0  0  0  0  0  0  0  0
    0.0400   -0.8690    0.0390 C   0  0  1  0  0  0  0  0  0  0  0  0
    1.4280   -0.4470   -0.0720 C   0  0  0  0  0  0  0  0  0  0  0  0
    2.3780   -1.2570   -0.6290 C   0  0  0  0  0  0  0  0  0  0  0  0
    3.7160   -0.8460   -0.7300 C   0  0  0  0  0  0  0  0  0  0  0  0
    4.0940    0.3870   -0.2680 C   0  0  0  0  0  0  0  0  0  0  0  0
    3.1560    1.2120    0.2930 C   0  0  0  0  0  0  0  0  0  0  0  0
    3.5270    2.5190    0.7900 C   0  0  0  0  0  0  0  0  0  0  0  0
    2.6550    3.2570    1.2980 O   0  0  0  0  0  0  0  0  0  0  0  0
    4.8320    2.9400    0.7000 O   0  0  0  0  0  0  0  0  0  0  0  0
    1.8300    0.7760    0.3810 C   0  0  0  0  0  0  0  0  0  0  0  0
  1  2  1  0
  2  3  1  0
  4  3  1  1
  4  5  1  0
  4 11  1  0
  5  6  1  0
  6  7  1  0
  7  8  1  1
  7 11  1  0
  8  9  2  0
  8 10  1  0
 11 12  1  6
 12 13  2  0
 12 20  1  0
 13 14  1  0
 14 15  2  0
 15 16  1  0
 16 17  1  0
 16 20  2  0
 17 18  2  0
 17 19  1  0
M  CHG  1   6   1
M  END
