
     RDKit          3D

 26 28  0  0  0  0  0  0  0  0999 V2000
   -7.2570    0.0210    0.1910 N   0  0  0  0  0  0  0  0  0  0  0  0
   -6.0530    0.7210    0.0110 C   0  0  0  0  0  0  0  0  0  0  0  0
   -5.9620    2.0610    0.2240 N   0  0  0  0  0  0  0  0  0  0  0  0
   -4.7940    2.6970    0.0420 C   0  0  0  0  0  0  0  0  0  0  0  0
   -3.6940    2.0340   -0.3520 N   0  0  0  0  0  0  0  0  0  0  0  0
   -3.7570    0.7030   -0.5720 C   0  0  0  0  0  0  0  0  0  0  0  0
   -4.9340    0.0240   -0.3940 C   0  0  0  0  0  0  0  0  0  0  0  0
   -4.6780   -1.2640   -0.6870 N   0  0  0  0  0  0  0  0  0  0  0  0
   -3.3820   -1.3590   -1.0300 C   0  0  0  0  0  0  0  0  0  0  0  0
   -2.7810   -0.1510   -0.9680 N   0  0  0  0  0  0  0  0  0  0  0  0
   -1.3830    0.1740   -1.2620 C   0  0  2  0  0  0  0  0  0  0  0  0
   -0.7150   -1.0350   -1.3910 O   0  0  0  0  0  0  0  0  0  0  0  0
    0.3520   -1.0350   -0.4720 C   0  0  2  0  0  0  0  0  0  0  0  0
    0.7720   -2.3970   -0.0850 C   0  0  0  0  0  0  0  0  0  0  0  0
    2.1780   -2.4000    1.0230 S   0  0  0  0  0  0  0  0  0  0  0  0
    3.7450   -2.0880    0.2260 C   0  0  0  0  0  0  0  0  0  0  0  0
    3.9840   -0.7310   -0.3380 C   0  0  0  0  0  0  0  0  0  0  0  0
    3.9460    0.3940    0.6480 C   0  0  2  0  0  0  0  0  0  0  0  0
    4.1940    1.6760   -0.0260 N   0  0  0  0  0  0  0  0  0  0  0  0
    5.0000    0.2640    1.6810 C   0  0  0  0  0  0  0  0  0  0  0  0
    5.0030   -0.7220    2.4540 O   0  0  0  0  0  0  0  0  0  0  0  0
    6.0060    1.2070    1.8300 O   0  0  0  0  0  0  0  0  0  0  0  0
   -0.3460   -0.3330    0.7400 C   0  0  1  0  0  0  0  0  0  0  0  0
    0.4700   -0.1150    1.7870 O   0  0  0  0  0  0  0  0  0  0  0  0
   -0.8010    0.8880   -0.0320 C   0  0  1  0  0  0  0  0  0  0  0  0
    0.3560    1.5760   -0.4060 O   0  0  0  0  0  0  0  0  0  0  0  0
  1  2  1  0
  2  3  2  0
  2  7  1  0
  3  4  1  0
  4  5  2  0
  5  6  1  0
  6  7  2  0
  6 10  1  0
  7  8  1  0
  8  9  2  0
  9 10  1  0
 11 10  1  1
 11 12  1  0
 11 25  1  0
 12 13  1  0
 13 14  1  1
 13 23  1  0
 14 15  1  0
 15 16  1  0
 16 17  1  0
 17 18  1  0
 18 19  1  6
 18 20  1  0
 20 21  2  0
 20 22  1  0
 23 24  1  1
 23 25  1  0
 25 26  1  6
M  CHG  1  19   1
M  END
