
     RDKit          3D

 26 27  0  0  0  0  0  0  0  0999 V2000
   -4.6340   -3.8950    0.5080 N   0  0  0  0  0  0  0  0  0  0  0  0
   -3.5510   -3.1890   -0.0510 C   0  0  0  0  0  0  0  0  0  0  0  0
   -2.4370   -3.7490   -0.1400 O   0  0  0  0  0  0  0  0  0  0  0  0
   -3.7580   -1.7900   -0.5230 C   0  0  2  0  0  0  0  0  0  0  0  0
   -2.5390   -1.3300   -1.0560 N   0  0  0  0  0  0  0  0  0  0  0  0
   -1.3670   -1.2280   -0.1280 C   0  0  0  0  0  0  0  0  0  0  0  0
   -1.4710   -1.5150    1.0080 O   0  0  0  0  0  0  0  0  0  0  0  0
   -0.2550   -0.7450   -0.9270 N   0  0  0  0  0  0  0  0  0  0  0  0
    0.8020   -0.5120    0.4030 C   0  0  0  0  0  0  0  0  0  0  0  0
    0.3740   -0.7040    1.4730 O   0  0  0  0  0  0  0  0  0  0  0  0
    2.0570   -0.1060   -0.0330 N   0  0  0  0  0  0  0  0  0  0  0  0
    2.5150   -0.0310   -1.3900 C   0  0  0  0  0  0  0  0  0  0  0  0
    3.8630   -0.8060   -1.3870 C   0  0  0  0  0  0  0  0  0  0  0  0
    4.7000   -0.3710   -0.3980 O   0  0  0  0  0  0  0  0  0  0  0  0
    4.7710    1.0220   -0.3160 C   0  0  2  0  0  0  0  0  0  0  0  0
    6.0970    1.3560    0.3450 C   0  0  0  0  0  0  0  0  0  0  0  0
    6.3110    2.7730    0.4790 N   0  0  0  0  0  0  0  0  0  0  0  0
    3.6790    1.5450    0.6250 C   0  0  0  0  0  0  0  0  0  0  0  0
    2.9190    0.3150    1.1070 C   0  0  0  0  0  0  0  0  0  0  0  0
   -4.2470   -0.8990    0.5830 C   0  0  2  0  0  0  0  0  0  0  0  0
   -5.5230   -1.4150    1.1190 N   0  0  0  0  0  0  0  0  0  0  0  0
   -4.5020    0.4950    0.1310 C   0  0  0  0  0  0  0  0  0  0  0  0
   -3.7550    1.3940   -0.4490 C   0  0  0  0  0  0  0  0  0  0  0  0
   -4.2770    2.5970   -0.7410 O   0  0  0  0  0  0  0  0  0  0  0  0
   -5.6700    2.6710   -0.8960 C   0  0  0  0  0  0  0  0  0  0  0  0
   -6.1120    1.3470    0.3070 S   0  0  0  0  0  0  0  0  0  0  0  0
  1  2  1  0
  2  3  2  0
  2  4  1  0
  4  5  1  1
  4 20  1  0
  5  6  1  0
  6  7  2  0
  6  8  1  0
  8  9  1  0
  9 10  2  0
  9 11  1  0
 11 12  1  0
 11 19  1  0
 12 13  1  0
 13 14  1  0
 14 15  1  0
 15 16  1  1
 15 18  1  0
 16 17  1  0
 18 19  1  0
 20 21  1  6
 20 22  1  0
 22 23  2  0
 22 26  1  0
 23 24  1  0
 24 25  1  0
 25 26  1  0
M  CHG  1  17   1
M  END
