
     RDKit          3D

 26 27  0  0  0  0  0  0  0  0999 V2000
   -4.7550    1.5350    0.6190 C   0  0  0  0  0  0  0  0  0  0  0  0
   -3.7250    0.5350    0.1520 C   0  0  2  0  0  0  0  0  0  0  0  0
   -3.9040    0.1940   -1.2750 C   0  0  0  0  0  0  0  0  0  0  0  0
   -3.9100   -0.6320    0.9330 O   0  0  0  0  0  0  0  0  0  0  0  0
   -3.0730   -0.5250    2.0020 C   0  0  0  0  0  0  0  0  0  0  0  0
   -2.4000    0.6900    1.9570 O   0  0  0  0  0  0  0  0  0  0  0  0
   -2.3430    0.8950    0.5540 C   0  0  2  0  0  0  0  0  0  0  0  0
   -1.9360    2.2990    0.3530 C   0  0  0  0  0  0  0  0  0  0  0  0
   -1.8430    2.7340   -1.0100 N   0  0  0  0  0  0  0  0  0  0  0  0
   -1.3300   -0.0430    0.0620 C   0  0  0  0  0  0  0  0  0  0  0  0
   -0.0680    0.3310   -0.1600 N   0  0  0  0  0  0  0  0  0  0  0  0
    0.6830   -0.7140   -0.6060 C   0  0  0  0  0  0  0  0  0  0  0  0
    2.1200   -0.5390   -0.8630 C   0  0  2  0  0  0  0  0  0  0  0  0
    2.6180   -1.2760   -1.9080 O   0  0  0  0  0  0  0  0  0  0  0  0
    2.9000   -0.7300    0.4510 C   0  0  0  0  0  0  0  0  0  0  0  0
    4.6580   -0.3380   -0.0620 S   0  0  0  0  0  0  0  0  0  0  0  0
    4.5170    1.4140   -0.6110 C   0  0  0  0  0  0  0  0  0  0  0  0
    5.8480    2.0690   -0.6680 C   0  0  0  0  0  0  0  0  0  0  0  0
    6.4820    2.2560    0.6060 N   0  0  0  0  0  0  0  0  0  0  0  0
    6.4250    2.4490   -1.7110 O   0  0  0  0  0  0  0  0  0  0  0  0
   -0.1610   -1.7600   -0.6710 N   0  0  0  0  0  0  0  0  0  0  0  0
    0.2210   -3.0470   -1.1990 C   0  0  0  0  0  0  0  0  0  0  0  0
    0.8860   -3.9900   -0.3040 C   0  0  0  0  0  0  0  0  0  0  0  0
    0.2750   -4.8670    0.5790 N   0  0  0  0  0  0  0  0  0  0  0  0
    2.1720   -4.0310   -0.3260 O   0  0  0  0  0  0  0  0  0  0  0  0
   -1.3470   -1.3420   -0.2670 N   0  0  0  0  0  0  0  0  0  0  0  0
  2  1  1  1
  2  3  1  0
  2  4  1  0
  2  7  1  0
  4  5  1  0
  5  6  1  0
  6  7  1  0
  7  8  1  1
  7 10  1  0
  8  9  1  0
 10 11  1  0
 10 26  2  0
 11 12  2  0
 12 13  1  0
 12 21  1  0
 13 14  1  6
 13 15  1  0
 15 16  1  0
 16 17  1  0
 17 18  1  0
 18 19  1  0
 18 20  2  0
 21 22  1  0
 21 26  1  0
 22 23  1  0
 23 24  1  0
 23 25  2  0
M  CHG  1   9   1
M  END
