
     RDKit          3D

 15 16  0  0  0  0  0  0  0  0999 V2000
   -0.8580    1.7140    0.4590 C   0  0  0  0  0  0  0  0  0  0  0  0
   -1.6920    0.5900   -0.0680 C   0  0  2  0  0  0  0  0  0  0  0  0
   -3.1560    0.9380    0.2240 C   0  0  0  0  0  0  0  0  0  0  0  0
   -3.5220    0.5300    1.5010 O   0  0  0  0  0  0  0  0  0  0  0  0
   -3.6650   -0.8510    1.4990 C   0  0  0  0  0  0  0  0  0  0  0  0
   -2.6740   -1.4320    0.5440 C   0  0  0  0  0  0  0  0  0  0  0  0
   -1.4070   -0.6830    0.5680 N   0  0  0  0  0  0  0  0  0  0  0  0
   -0.4750   -1.4730   -0.2290 C   0  0  0  0  0  0  0  0  0  0  0  0
    0.8530   -0.8630   -0.3090 C   0  0  0  0  0  0  0  0  0  0  0  0
    1.4770   -0.4800   -1.4000 C   0  0  0  0  0  0  0  0  0  0  0  0
    2.7450    0.0820   -1.2210 N   0  0  0  0  0  0  0  0  0  0  0  0
    3.4610   -0.3840   -0.0450 C   0  0  1  0  0  0  0  0  0  0  0  0
    4.4120    0.6350    0.5000 C   0  0  0  0  0  0  0  0  0  0  0  0
    5.3770    0.9950   -0.4260 O   0  0  0  0  0  0  0  0  0  0  0  0
    1.9650   -0.5090    1.0420 S   0  0  0  0  0  0  0  0  0  0  0  0
  2  1  1  1
  2  3  1  0
  2  7  1  0
  3  4  1  0
  4  5  1  0
  5  6  1  0
  6  7  1  0
  7  8  1  0
  8  9  1  0
  9 10  2  0
  9 15  1  0
 10 11  1  0
 11 12  1  0
 12 13  1  1
 12 15  1  0
 13 14  1  0
M  END
