
     RDKit          3D

 16 17  0  0  0  0  0  0  0  0999 V2000
    4.7220    0.0690   -1.7910 O   0  0  0  0  0  0  0  0  0  0  0  0
    3.8120   -0.2220   -0.6070 S   0  0  1  0  0  0  0  0  0  0  0  0
    4.3330   -1.3970    0.1200 O   0  0  0  0  0  0  0  0  0  0  0  0
    3.8090    1.2670    0.3620 C   0  0  0  0  0  0  0  0  0  0  0  0
    5.0540    1.5280    0.9180 O   0  0  0  0  0  0  0  0  0  0  0  0
    2.2440   -0.4430   -1.2430 N   0  0  0  0  0  0  0  0  0  0  0  0
    1.2280   -0.5970   -0.2230 C   0  0  2  0  0  0  0  0  0  0  0  0
    0.5380   -1.9390   -0.3540 C   0  0  0  0  0  0  0  0  0  0  0  0
   -0.3730   -2.0780    0.8330 C   0  0  0  0  0  0  0  0  0  0  0  0
   -1.3040   -0.9290    1.0560 C   0  0  0  0  0  0  0  0  0  0  0  0
   -1.1250    0.2330    0.1480 C   0  0  2  0  0  0  0  0  0  0  0  0
   -2.1850    0.2840   -0.8300 N   0  0  0  0  0  0  0  0  0  0  0  0
   -3.4920    0.5390   -0.3440 C   0  0  2  0  0  0  0  0  0  0  0  0
   -3.6780    1.9620    0.2740 C   0  0  0  0  0  0  0  0  0  0  0  0
   -3.8770    0.6900    1.0630 C   0  0  0  0  0  0  0  0  0  0  0  0
    0.1690    0.4300   -0.5130 C   0  0  0  0  0  0  0  0  0  0  0  0
  1  2  2  0
  2  3  2  0
  2  4  1  1
  2  6  1  0
  4  5  1  0
  7  6  1  6
  7  8  1  0
  7 16  1  0
  8  9  1  0
  9 10  1  0
 10 11  1  0
 11 12  1  6
 11 16  1  0
 13 12  1  1
 13 14  1  0
 13 15  1  0
 14 15  1  0
M  END
