
     RDKit          3D

 16 17  0  0  0  0  0  0  0  0999 V2000
   -4.3920    0.6700    0.7180 C   0  0  0  0  0  0  0  0  0  0  0  0
   -3.3270   -0.3740    0.6890 C   0  0  0  0  0  0  0  0  0  0  0  0
   -2.6970   -0.5590   -0.6720 C   0  0  1  0  0  0  0  0  0  0  0  0
   -2.0660    0.7420   -1.1170 C   0  0  0  0  0  0  0  0  0  0  0  0
   -0.6570    0.4470   -0.9580 N   0  0  0  0  0  0  0  0  0  0  0  0
    0.6040    0.9790   -0.6810 C   0  0  0  0  0  0  0  0  0  0  0  0
    1.4540   -0.0330   -0.4350 C   0  0  0  0  0  0  0  0  0  0  0  0
    2.7670    0.2030   -0.1330 O   0  0  0  0  0  0  0  0  0  0  0  0
    3.6350   -0.7190    0.4790 C   0  0  0  0  0  0  0  0  0  0  0  0
    4.9620   -0.0440    0.6180 C   0  0  0  0  0  0  0  0  0  0  0  0
    4.9740    1.1510    1.4050 N   0  0  0  0  0  0  0  0  0  0  0  0
    6.3190   -0.5940   -0.0600 S   0  0  0  0  0  0  0  0  0  0  0  0
    0.7360   -1.3100   -0.5500 C   0  0  0  0  0  0  0  0  0  0  0  0
    1.1720   -2.4150   -0.1730 O   0  0  0  0  0  0  0  0  0  0  0  0
   -0.5650   -0.9980   -1.1870 C   0  0  1  0  0  0  0  0  0  0  0  0
   -1.6550   -1.4790   -0.5120 O   0  0  0  0  0  0  0  0  0  0  0  0
  1  2  1  0
  3  2  1  1
  3  4  1  0
  3 16  1  0
  4  5  1  0
  5  6  1  0
  5 15  1  0
  6  7  2  0
  7  8  1  0
  7 13  1  0
  8  9  1  0
  9 10  1  0
 10 11  1  0
 10 12  2  0
 13 14  2  0
 13 15  1  0
 15 16  1  1
M  END
