
     RDKit          3D

 20 22  0  0  0  0  0  0  0  0999 V2000
   -4.5180    1.7920   -0.7990 C   0  0  0  0  0  0  0  0  0  0  0  0
   -3.7130    0.5030   -0.6630 C   0  0  2  0  0  0  0  0  0  0  0  0
   -4.7880   -0.5080   -0.4750 N   0  0  0  0  0  0  0  0  0  0  0  0
   -2.8730    0.5690    0.5710 C   0  0  0  0  0  0  0  0  0  0  0  0
   -3.2830    0.5120    1.8710 C   0  0  0  0  0  0  0  0  0  0  0  0
   -2.1710    0.4030    2.6340 N   0  0  0  0  0  0  0  0  0  0  0  0
   -1.0810    0.3930    1.8510 N   0  0  0  0  0  0  0  0  0  0  0  0
   -1.4600    0.4960    0.5750 C   0  0  0  0  0  0  0  0  0  0  0  0
   -0.7270    0.6130   -0.6210 N   0  0  0  0  0  0  0  0  0  0  0  0
    0.6690    0.5980   -0.8740 C   0  0  0  0  0  0  0  0  0  0  0  0
    1.4110   -0.3270    0.0820 C   0  0  1  0  0  0  0  0  0  0  0  0
    0.5730   -1.4300    0.2150 O   0  0  0  0  0  0  0  0  0  0  0  0
    1.1650   -2.5730    0.6740 C   0  0  0  0  0  0  0  0  0  0  0  0
    1.3990   -3.3920   -0.6120 C   0  0  0  0  0  0  0  0  0  0  0  0
    2.4510   -2.3120   -1.6190 S   0  0  0  0  0  0  0  0  0  0  0  0
    2.6120   -0.7750   -0.7140 C   0  0  0  0  0  0  0  0  0  0  0  0
    3.6490   -0.1220   -0.7590 N   0  0  0  0  0  0  0  0  0  0  0  0
    4.0830    1.0840   -0.2030 C   0  0  2  0  0  0  0  0  0  0  0  0
    5.5930    1.3200   -0.3020 C   0  0  0  0  0  0  0  0  0  0  0  0
    4.9170    1.1300    1.0270 C   0  0  0  0  0  0  0  0  0  0  0  0
  2  1  1  1
  2  3  1  0
  2  4  1  0
  4  5  1  0
  4  8  2  0
  5  6  2  0
  6  7  1  0
  7  8  1  0
  8  9  1  0
  9 10  1  0
 11 10  1  6
 11 12  1  0
 11 16  1  0
 12 13  1  0
 13 14  1  0
 14 15  1  0
 15 16  1  0
 16 17  2  3
 18 17  1  6
 18 19  1  0
 18 20  1  0
 19 20  1  0
M  CHG  1   3   1
M  END
