
     RDKit          3D

 20 21  0  0  0  0  0  0  0  0999 V2000
   -2.3360    3.6560    0.4970 C   0  0  0  0  0  0  0  0  0  0  0  0
   -2.6670    2.3510    0.3660 C   0  0  0  0  0  0  0  0  0  0  0  0
   -4.1390    1.9930   -0.5580 S   0  0  0  0  0  0  0  0  0  0  0  0
   -1.8650    1.2860    0.9630 C   0  0  0  0  0  0  0  0  0  0  0  0
   -1.2810    0.3240   -0.0620 C   0  0  1  0  0  0  0  0  0  0  0  0
   -0.4900    1.1120   -0.9380 N   0  0  0  0  0  0  0  0  0  0  0  0
    0.8850    1.0630   -0.9560 N   0  0  0  0  0  0  0  0  0  0  0  0
    1.5840    0.2250   -0.2700 C   0  0  0  0  0  0  0  0  0  0  0  0
    3.0630    0.1790   -0.3000 C   0  0  2  0  0  0  0  0  0  0  0  0
    3.4480   -1.2340   -0.7410 C   0  0  0  0  0  0  0  0  0  0  0  0
    3.6020    0.3970    1.0980 C   0  0  0  0  0  0  0  0  0  0  0  0
    3.5120    1.1230   -1.1990 O   0  0  0  0  0  0  0  0  0  0  0  0
    4.8950    1.1620   -1.3030 C   0  0  0  0  0  0  0  0  0  0  0  0
    0.8270   -0.6400    0.5690 N   0  0  0  0  0  0  0  0  0  0  0  0
   -0.4160   -0.6290    0.6830 C   0  0  0  0  0  0  0  0  0  0  0  0
   -1.1050   -1.5620    1.5150 N   0  0  0  0  0  0  0  0  0  0  0  0
   -2.3380   -2.1380    1.0870 C   0  0  2  0  0  0  0  0  0  0  0  0
   -2.0280   -3.5050    0.5110 C   0  0  0  0  0  0  0  0  0  0  0  0
   -3.0710   -1.2600    0.1340 C   0  0  0  0  0  0  0  0  0  0  0  0
   -2.2790   -0.4630   -0.7470 N   0  0  0  0  0  0  0  0  0  0  0  0
  1  2  2  0
  2  3  1  0
  2  4  1  0
  5  4  1  1
  5  6  1  0
  5 15  1  0
  5 20  1  0
  6  7  1  0
  7  8  2  0
  8  9  1  0
  8 14  1  0
  9 10  1  6
  9 11  1  0
  9 12  1  0
 12 13  1  0
 14 15  2  0
 15 16  1  0
 16 17  1  0
 17 18  1  6
 17 19  1  0
 19 20  1  0
M  CHG  1  20   1
M  END
