
     RDKit          3D

 40 42  0  0  0  0  0  0  0  0999 V2000
    5.3850    4.1760    1.4130 C   0  0  0  0  0  0  0  0  0  0  0  0
    5.3540    2.8810    0.6410 C   0  0  0  0  0  0  0  0  0  0  0  0
    3.9840    2.4790    0.6090 O   0  0  0  0  0  0  0  0  0  0  0  0
    3.6700    1.2560   -0.0740 C   0  0  0  0  0  0  0  0  0  0  0  0
    4.6610    0.7220   -0.5440 O   0  0  0  0  0  0  0  0  0  0  0  0
    2.3150    0.8230   -0.1270 C   0  0  0  0  0  0  0  0  0  0  0  0
    1.7450   -0.2080   -0.6600 C   0  0  0  0  0  0  0  0  0  0  0  0
    2.2600   -1.3210   -1.4070 C   0  0  0  0  0  0  0  0  0  0  0  0
    1.4170   -2.2320   -1.8180 O   0  0  0  0  0  0  0  0  0  0  0  0
    3.5800   -1.6160   -1.7940 N   0  0  0  0  0  0  0  0  0  0  0  0
    3.8520   -2.8470   -2.5580 C   0  0  0  0  0  0  0  0  0  0  0  0
    3.6020   -4.0980   -1.8580 C   0  0  0  0  0  0  0  0  0  0  0  0
    3.7650   -5.1620   -2.5970 O   0  0  0  0  0  0  0  0  0  0  0  0
    3.2280   -4.3620   -0.5420 N   0  0  0  0  0  0  0  0  0  0  0  0
    2.9640   -5.7340   -0.0160 C   0  0  0  0  0  0  0  0  0  0  0  0
    3.7850   -5.6560    1.2510 C   0  0  0  0  0  0  0  0  0  0  0  0
    3.3960   -4.3150    1.8190 C   0  0  0  0  0  0  0  0  0  0  0  0
    3.0560   -3.4760    0.5970 C   0  0  0  0  0  0  0  0  0  0  0  0
    0.2820   -0.0880   -0.3760 C   0  0  0  0  0  0  0  0  0  0  0  0
   -0.6920   -0.8990   -0.7180 C   0  0  0  0  0  0  0  0  0  0  0  0
   -2.0520   -0.5800   -0.3310 N   0  0  0  0  0  0  0  0  0  0  0  0
   -3.1200   -1.4210   -0.6770 C   0  0  0  0  0  0  0  0  0  0  0  0
   -2.8500   -2.4700   -1.3410 O   0  0  0  0  0  0  0  0  0  0  0  0
   -4.4730   -1.1710   -0.3320 N   0  0  0  0  0  0  0  0  0  0  0  0
   -5.5800   -2.0290   -0.6820 C   0  0  2  0  0  0  0  0  0  0  0  0
   -6.5650   -1.4120   -1.6210 C   0  0  0  0  0  0  0  0  0  0  0  0
   -6.2300   -2.6600    0.5040 C   0  0  0  0  0  0  0  0  0  0  0  0
   -6.8020   -1.7200    1.5080 C   0  0  2  0  0  0  0  0  0  0  0  0
   -7.4020   -2.5960    2.6200 C   0  0  0  0  0  0  0  0  0  0  0  0
   -7.9220   -0.8600    1.0210 C   0  0  0  0  0  0  0  0  0  0  0  0
    0.0510    1.0680    0.3460 O   0  0  0  0  0  0  0  0  0  0  0  0
    1.2450    1.6760    0.5580 C   0  0  2  0  0  0  0  0  0  0  0  0
    1.2880    2.9850   -0.1510 C   0  0  0  0  0  0  0  0  0  0  0  0
    0.9160    3.3400   -1.3800 C   0  0  0  0  0  0  0  0  0  0  0  0
    1.0570    4.6060   -1.8040 C   0  0  0  0  0  0  0  0  0  0  0  0
    1.6020    5.5100   -0.9160 C   0  0  0  0  0  0  0  0  0  0  0  0
    1.8980    6.9630   -1.0560 C   0  0  0  0  0  0  0  0  0  0  0  0
    0.8390    7.7590   -0.6810 O   0  0  0  0  0  0  0  0  0  0  0  0
    1.2460    9.0970   -0.8580 C   0  0  0  0  0  0  0  0  0  0  0  0
    1.9020    4.4950    0.5380 S   0  0  0  0  0  0  0  0  0  0  0  0
  1  2  1  0
  2  3  1  0
  3  4  1  0
  4  5  2  0
  4  6  1  0
  6  7  2  0
  6 32  1  0
  7  8  1  0
  7 19  1  0
  8  9  2  0
  8 10  1  0
 10 11  1  0
 11 12  1  0
 12 13  2  0
 12 14  1  0
 14 15  1  0
 14 18  1  0
 15 16  1  0
 16 17  1  0
 17 18  1  0
 19 20  2  3
 19 31  1  0
 20 21  1  0
 21 22  1  0
 22 23  2  0
 22 24  1  0
 24 25  1  0
 25 26  1  1
 25 27  1  0
 27 28  1  0
 28 29  1  1
 28 30  1  0
 31 32  1  0
 32 33  1  6
 33 34  2  0
 33 40  1  0
 34 35  1  0
 35 36  2  0
 36 37  1  0
 36 40  1  0
 37 38  1  0
 38 39  1  0
M  END
