
     RDKit          3D

 40 42  0  0  0  0  0  0  0  0999 V2000
    9.1150   -4.5190   -1.5200 C   0  0  0  0  0  0  0  0  0  0  0  0
    8.8750   -3.1840   -1.8880 O   0  0  0  0  0  0  0  0  0  0  0  0
    7.8260   -2.4550   -1.3380 C   0  0  0  0  0  0  0  0  0  0  0  0
    6.9720   -3.0110   -0.4080 C   0  0  0  0  0  0  0  0  0  0  0  0
    5.9410   -2.2770    0.1260 C   0  0  0  0  0  0  0  0  0  0  0  0
    5.6840   -0.9440   -0.2240 C   0  0  0  0  0  0  0  0  0  0  0  0
    4.5910   -0.3000    0.3770 N   0  0  0  0  0  0  0  0  0  0  0  0
    4.3170    1.0950    0.4180 C   0  0  0  0  0  0  0  0  0  0  0  0
    5.1510    1.8410   -0.1380 O   0  0  0  0  0  0  0  0  0  0  0  0
    3.1670    1.6100    1.0530 N   0  0  0  0  0  0  0  0  0  0  0  0
    2.8190    2.9670    1.1560 C   0  0  0  0  0  0  0  0  0  0  0  0
    3.6960    3.9730    0.8360 C   0  0  0  0  0  0  0  0  0  0  0  0
    3.3470    5.3200    0.9940 C   0  0  0  0  0  0  0  0  0  0  0  0
    2.1180    5.6580    1.4730 C   0  0  0  0  0  0  0  0  0  0  0  0
    1.2620    4.6490    1.7840 C   0  0  0  0  0  0  0  0  0  0  0  0
    1.5610    3.3140    1.6440 C   0  0  0  0  0  0  0  0  0  0  0  0
    0.6200    2.3180    1.9530 N   0  0  0  0  0  0  0  0  0  0  0  0
   -0.1170    1.4660    1.0320 C   0  0  0  0  0  0  0  0  0  0  0  0
   -1.5360    1.4450    1.6540 C   0  0  1  0  0  0  0  0  0  0  0  0
   -2.2560    0.2620    1.1230 C   0  0  0  0  0  0  0  0  0  0  0  0
   -3.5780    0.0740    1.5520 N   0  0  0  0  0  0  0  0  0  0  0  0
   -3.8260   -0.2640    2.8970 C   0  0  0  0  0  0  0  0  0  0  0  0
   -4.5970    0.7350    0.8360 C   0  0  0  0  0  0  0  0  0  0  0  0
   -4.8290    0.2080   -0.5750 C   0  0  0  0  0  0  0  0  0  0  0  0
   -5.2330   -1.2210   -0.5950 C   0  0  1  0  0  0  0  0  0  0  0  0
   -6.5180   -1.4860    0.1580 C   0  0  0  0  0  0  0  0  0  0  0  0
   -6.8810   -2.9570    0.1060 C   0  0  0  0  0  0  0  0  0  0  0  0
   -5.8700   -3.7540    0.6830 O   0  0  0  0  0  0  0  0  0  0  0  0
   -5.1590   -1.8190   -1.9220 C   0  0  0  0  0  0  0  0  0  0  0  0
   -5.9470   -1.3350   -3.0610 C   0  0  0  0  0  0  0  0  0  0  0  0
   -5.7130    0.2980   -3.6220 S   0  0  1  0  0  0  0  0  0  0  0  0
   -5.6090    0.2720   -5.1550 O   0  0  0  0  0  0  0  0  0  0  0  0
   -6.8990    1.1890   -3.3660 O   0  0  0  0  0  0  0  0  0  0  0  0
   -1.2540    1.4500    3.1230 C   0  0  0  0  0  0  0  0  0  0  0  0
    0.1630    1.9530    3.2480 C   0  0  0  0  0  0  0  0  0  0  0  0
    0.7850    2.0160    4.3360 O   0  0  0  0  0  0  0  0  0  0  0  0
    6.5430   -0.4070   -1.1510 C   0  0  0  0  0  0  0  0  0  0  0  0
    7.5990   -1.1510   -1.7010 C   0  0  0  0  0  0  0  0  0  0  0  0
    8.4640   -0.5170   -2.6740 C   0  0  0  0  0  0  0  0  0  0  0  0
    8.2830    0.6730   -3.0270 O   0  0  0  0  0  0  0  0  0  0  0  0
  1  2  1  0
  2  3  1  0
  3  4  2  0
  3 38  1  0
  4  5  1  0
  5  6  2  0
  6  7  1  0
  6 37  1  0
  7  8  1  0
  8  9  2  0
  8 10  1  0
 10 11  1  0
 11 12  2  0
 11 16  1  0
 12 13  1  0
 13 14  2  0
 14 15  1  0
 15 16  2  0
 16 17  1  0
 17 18  1  0
 17 35  1  0
 18 19  1  0
 19 20  1  1
 19 34  1  0
 20 21  1  0
 21 22  1  0
 21 23  1  0
 23 24  1  0
 25 24  1  6
 25 26  1  0
 25 29  1  0
 26 27  1  0
 27 28  1  0
 29 30  1  0
 31 30  1  6
 31 32  2  0
 31 33  2  0
 34 35  1  0
 35 36  2  0
 37 38  2  0
 38 39  1  0
 39 40  2  0
M  END
