
     RDKit          3D

 40 43  0  0  0  0  0  0  0  0999 V2000
   -1.0800    1.0520   -1.0480 C   0  0  0  0  0  0  0  0  0  0  0  0
   -0.9240    0.6000    0.3460 O   0  0  0  0  0  0  0  0  0  0  0  0
   -2.0720    0.9990    1.1570 C   0  0  0  0  0  0  0  0  0  0  0  0
   -1.7360    2.0790    2.0240 C   0  0  0  0  0  0  0  0  0  0  0  0
   -0.5320    2.5860    2.1160 C   0  0  0  0  0  0  0  0  0  0  0  0
    0.6010    2.1760    1.4140 N   0  0  0  0  0  0  0  0  0  0  0  0
    1.7010    1.5450    2.1230 C   0  0  0  0  0  0  0  0  0  0  0  0
    1.5320    1.4160    3.3640 O   0  0  0  0  0  0  0  0  0  0  0  0
    2.9170    1.0880    1.4730 C   0  0  0  0  0  0  0  0  0  0  0  0
    3.1770    1.1830    0.1970 C   0  0  0  0  0  0  0  0  0  0  0  0
    4.4010    0.7030   -0.3440 N   0  0  0  0  0  0  0  0  0  0  0  0
    5.4220    0.0930    0.4360 C   0  0  0  0  0  0  0  0  0  0  0  0
    6.5720   -0.3360   -0.1160 C   0  0  0  0  0  0  0  0  0  0  0  0
    7.5870   -0.9540    0.7040 C   0  0  0  0  0  0  0  0  0  0  0  0
    8.8540   -0.8330    0.2950 C   0  0  0  0  0  0  0  0  0  0  0  0
    9.9760   -1.4120    1.0410 C   0  0  0  0  0  0  0  0  0  0  0  0
    9.1320   -0.1000   -0.9810 C   0  0  0  0  0  0  0  0  0  0  0  0
    8.1080   -0.5140   -2.0200 C   0  0  0  0  0  0  0  0  0  0  0  0
    6.7340   -0.1360   -1.5550 C   0  0  0  0  0  0  0  0  0  0  0  0
    5.1610   -0.0210    1.8240 N   0  0  0  0  0  0  0  0  0  0  0  0
    3.9350    0.4640    2.3450 C   0  0  0  0  0  0  0  0  0  0  0  0
    3.7140    0.3550    3.5920 O   0  0  0  0  0  0  0  0  0  0  0  0
   -3.1130    0.2870    0.8930 C   0  0  0  0  0  0  0  0  0  0  0  0
   -4.4210    0.3120    1.3800 N   0  0  0  0  0  0  0  0  0  0  0  0
   -5.0110    1.1320    2.3350 C   0  0  0  0  0  0  0  0  0  0  0  0
   -4.4420    2.0250    2.9560 O   0  0  0  0  0  0  0  0  0  0  0  0
   -6.4850    0.9730    2.7030 C   0  0  0  0  0  0  0  0  0  0  0  0
   -7.1860   -0.3160    1.6590 S   0  0  0  0  0  0  0  0  0  0  0  0
   -7.2720    0.1890   -0.0430 C   0  0  0  0  0  0  0  0  0  0  0  0
   -6.8410    1.4540   -0.3780 C   0  0  0  0  0  0  0  0  0  0  0  0
   -6.9200    1.8230   -1.7080 C   0  0  0  0  0  0  0  0  0  0  0  0
   -7.4120    0.9610   -2.6800 C   0  0  0  0  0  0  0  0  0  0  0  0
   -7.8350   -0.2940   -2.3250 C   0  0  0  0  0  0  0  0  0  0  0  0
   -7.7680   -0.6880   -1.0040 C   0  0  0  0  0  0  0  0  0  0  0  0
   -8.1870   -1.9670   -0.5690 N   0  0  0  0  0  0  0  0  0  0  0  0
   -2.8240   -1.0190    0.1640 C   0  0  0  0  0  0  0  0  0  0  0  0
   -3.7900   -1.8180   -0.2620 C   0  0  0  0  0  0  0  0  0  0  0  0
   -3.1510   -3.0240   -0.9440 C   0  0  0  0  0  0  0  0  0  0  0  0
   -1.8800   -2.4110   -1.3350 N   0  0  0  0  0  0  0  0  0  0  0  0
   -1.5760   -1.7480   -0.0340 C   0  0  0  0  0  0  0  0  0  0  0  0
  1  2  1  0
  2  3  1  0
  3  4  1  0
  3 23  2  3
  4  5  2  3
  5  6  1  0
  6  7  1  0
  7  8  2  0
  7  9  1  0
  9 10  2  0
  9 21  1  0
 10 11  1  0
 11 12  1  0
 12 13  2  3
 12 20  1  0
 13 14  1  0
 13 19  1  0
 14 15  2  0
 15 16  1  0
 15 17  1  0
 17 18  1  0
 18 19  1  0
 20 21  1  0
 21 22  2  0
 23 24  1  0
 23 36  1  0
 24 25  1  0
 25 26  2  0
 25 27  1  0
 27 28  1  0
 28 29  1  0
 29 30  2  0
 29 34  1  0
 30 31  1  0
 31 32  2  0
 32 33  1  0
 33 34  2  0
 34 35  1  0
 36 37  2  0
 36 40  1  0
 37 38  1  0
 38 39  1  0
 39 40  1  0
M  CHG  1  39   1
M  END
