
     RDKit          3D

 40 42  0  0  0  0  0  0  0  0999 V2000
    9.6570   -0.8810    0.0610 C   0  0  0  0  0  0  0  0  0  0  0  0
    8.9450   -1.8830   -0.6290 O   0  0  0  0  0  0  0  0  0  0  0  0
    7.6010   -1.6410   -0.9390 C   0  0  0  0  0  0  0  0  0  0  0  0
    6.8050   -2.5500   -1.6050 C   0  0  0  0  0  0  0  0  0  0  0  0
    5.4760   -2.2880   -1.8990 C   0  0  0  0  0  0  0  0  0  0  0  0
    4.9150   -1.0870   -1.5230 C   0  0  0  0  0  0  0  0  0  0  0  0
    3.4770   -0.7430   -1.7970 C   0  0  0  0  0  0  0  0  0  0  0  0
    3.0690    0.3670   -1.0450 O   0  0  0  0  0  0  0  0  0  0  0  0
    3.0710    0.3150    0.3350 C   0  0  0  0  0  0  0  0  0  0  0  0
    3.4450   -0.8240    1.0020 C   0  0  0  0  0  0  0  0  0  0  0  0
    3.4650   -0.8950    2.3950 C   0  0  0  0  0  0  0  0  0  0  0  0
    3.0950    0.2170    3.1090 C   0  0  0  0  0  0  0  0  0  0  0  0
    3.0990    0.1680    4.6050 C   0  0  0  0  0  0  0  0  0  0  0  0
    2.7090    1.3850    2.4690 C   0  0  0  0  0  0  0  0  0  0  0  0
    2.3740    2.5570    3.3570 C   0  0  0  0  0  0  0  0  0  0  0  0
    2.6920    1.4370    1.0990 C   0  0  0  0  0  0  0  0  0  0  0  0
    2.2270    2.6280    0.3800 C   0  0  0  0  0  0  0  0  0  0  0  0
    0.8310    2.6650   -0.0030 N   0  0  0  0  0  0  0  0  0  0  0  0
   -0.1170    3.2420    0.7560 C   0  0  0  0  0  0  0  0  0  0  0  0
    0.0370    3.8530    1.8770 O   0  0  0  0  0  0  0  0  0  0  0  0
   -1.2880    3.0780    0.1400 N   0  0  0  0  0  0  0  0  0  0  0  0
   -1.1430    2.4250   -0.9820 N   0  0  0  0  0  0  0  0  0  0  0  0
   -2.2100    2.0480   -1.9150 C   0  0  0  0  0  0  0  0  0  0  0  0
   -2.7290    0.6870   -1.5410 C   0  0  0  0  0  0  0  0  0  0  0  0
   -2.5720   -0.2730   -2.3070 O   0  0  0  0  0  0  0  0  0  0  0  0
   -3.3920    0.4900   -0.3110 N   0  0  0  0  0  0  0  0  0  0  0  0
   -3.9670   -0.6710    0.2550 C   0  0  0  0  0  0  0  0  0  0  0  0
   -5.1910   -1.2530   -0.3830 C   0  0  2  0  0  0  0  0  0  0  0  0
   -5.5590   -2.4740    0.4910 C   0  0  0  0  0  0  0  0  0  0  0  0
   -5.0690   -1.7430   -1.7780 C   0  0  0  0  0  0  0  0  0  0  0  0
   -4.1340   -2.7500   -1.9600 O   0  0  0  0  0  0  0  0  0  0  0  0
   -6.2620   -0.1940   -0.3530 C   0  0  0  0  0  0  0  0  0  0  0  0
   -7.5750   -0.5100   -0.9400 C   0  0  1  0  0  0  0  0  0  0  0  0
   -8.3260   -1.6300   -0.3230 C   0  0  0  0  0  0  0  0  0  0  0  0
   -8.6630    0.9550   -0.9060 S   0  0  0  0  0  0  0  0  0  0  0  0
   -8.5690    1.5520    0.5040 O   0  0  0  0  0  0  0  0  0  0  0  0
    0.1900    2.1670   -1.0730 C   0  0  0  0  0  0  0  0  0  0  0  0
    0.6900    1.5410   -2.0630 O   0  0  0  0  0  0  0  0  0  0  0  0
    5.6820   -0.1700   -0.8640 C   0  0  0  0  0  0  0  0  0  0  0  0
    6.9990   -0.4350   -0.5740 C   0  0  0  0  0  0  0  0  0  0  0  0
  1  2  1  0
  2  3  1  0
  3  4  2  0
  3 40  1  0
  4  5  1  0
  5  6  2  0
  6  7  1  0
  6 39  1  0
  7  8  1  0
  8  9  1  0
  9 10  2  0
  9 16  1  0
 10 11  1  0
 11 12  2  0
 12 13  1  0
 12 14  1  0
 14 15  1  0
 14 16  2  0
 16 17  1  0
 17 18  1  0
 18 19  1  0
 18 37  1  0
 19 20  2  0
 19 21  1  0
 21 22  1  0
 22 23  1  0
 22 37  1  0
 23 24  1  0
 24 25  2  0
 24 26  1  0
 26 27  1  0
 27 28  1  0
 28 29  1  1
 28 30  1  0
 28 32  1  0
 30 31  1  0
 32 33  1  0
 33 34  1  1
 33 35  1  0
 35 36  2  0
 37 38  2  0
 39 40  2  0
M  END
