
     RDKit          3D

 28 31  0  0  0  0  0  0  0  0999 V2000
   -0.5620    5.1770   -0.0810 C   0  0  0  0  0  0  0  0  0  0  0  0
   -1.0140    3.9480    0.1500 C   0  0  0  0  0  0  0  0  0  0  0  0
   -2.0600    3.7380    1.1450 C   0  0  0  0  0  0  0  0  0  0  0  0
   -2.5930    4.6810    1.8470 N   0  0  0  0  0  0  0  0  0  0  0  0
   -2.4920    2.3780    1.3230 N   0  0  0  0  0  0  0  0  0  0  0  0
   -2.3970    1.4910    0.1670 C   0  0  2  0  0  0  0  0  0  0  0  0
   -2.6110   -0.2380    0.7580 S   0  0  0  0  0  0  0  0  0  0  0  0
   -1.3260   -0.8560   -0.2970 C   0  0  0  0  0  0  0  0  0  0  0  0
   -1.2400   -2.0500   -0.7560 C   0  0  0  0  0  0  0  0  0  0  0  0
   -2.2510   -3.0640   -0.4270 C   0  0  0  0  0  0  0  0  0  0  0  0
   -2.7680   -3.9910   -1.3010 C   0  0  0  0  0  0  0  0  0  0  0  0
   -3.6710   -4.7190   -0.5470 C   0  0  0  0  0  0  0  0  0  0  0  0
   -3.6510   -4.2020    0.7240 C   0  0  0  0  0  0  0  0  0  0  0  0
   -2.7790   -3.2050    0.7420 O   0  0  0  0  0  0  0  0  0  0  0  0
   -0.4260    0.2970   -0.5160 C   0  0  0  0  0  0  0  0  0  0  0  0
    1.0010    0.0130   -0.7400 C   0  0  0  0  0  0  0  0  0  0  0  0
    1.3410   -1.1660   -1.0890 O   0  0  0  0  0  0  0  0  0  0  0  0
    2.0510    0.9450   -0.5870 N   0  0  0  0  0  0  0  0  0  0  0  0
    3.4260    0.5150   -0.8720 C   0  0  0  0  0  0  0  0  0  0  0  0
    3.8400   -0.5780    0.0180 C   0  0  0  0  0  0  0  0  0  0  0  0
    3.4000   -0.9120    1.2470 N   0  0  0  0  0  0  0  0  0  0  0  0
    4.0400   -1.9750    1.7050 N   0  0  0  0  0  0  0  0  0  0  0  0
    4.9080   -2.3430    0.7670 C   0  0  0  0  0  0  0  0  0  0  0  0
    5.7220   -3.3090    0.7860 O   0  0  0  0  0  0  0  0  0  0  0  0
    4.7880   -1.4860   -0.2710 N   0  0  0  0  0  0  0  0  0  0  0  0
   -0.9860    1.4360   -0.2930 C   0  0  0  0  0  0  0  0  0  0  0  0
   -0.4740    2.8120   -0.5790 C   0  0  0  0  0  0  0  0  0  0  0  0
    0.3940    3.0390   -1.4290 O   0  0  0  0  0  0  0  0  0  0  0  0
  1  2  2  0
  2  3  1  0
  2 27  1  0
  3  4  2  0
  3  5  1  0
  6  5  1  1
  6  7  1  0
  6 26  1  0
  7  8  1  0
  8  9  2  3
  8 15  1  0
  9 10  1  0
 10 11  2  0
 10 14  1  0
 11 12  1  0
 12 13  2  0
 13 14  1  0
 15 16  1  0
 15 26  2  0
 16 17  2  0
 16 18  1  0
 18 19  1  0
 19 20  1  0
 20 21  2  0
 20 25  1  0
 21 22  1  0
 22 23  1  0
 23 24  2  0
 23 25  1  0
 26 27  1  0
 27 28  2  0
M  END
