
     RDKit          3D

 25 28  0  0  0  0  0  0  0  0999 V2000
   -7.0310    0.4200    1.2410 N   0  0  0  0  0  0  0  0  0  0  0  0
   -5.8180    0.6650    0.5400 C   0  0  0  0  0  0  0  0  0  0  0  0
   -5.6130    1.7560   -0.1940 N   0  0  0  0  0  0  0  0  0  0  0  0
   -4.4550    1.9310   -0.8580 C   0  0  0  0  0  0  0  0  0  0  0  0
   -3.4680    1.0140   -0.8080 N   0  0  0  0  0  0  0  0  0  0  0  0
   -3.6250   -0.1060   -0.0810 C   0  0  0  0  0  0  0  0  0  0  0  0
   -2.8010   -1.2100    0.1660 C   0  0  0  0  0  0  0  0  0  0  0  0
   -1.4790   -1.5060   -0.4310 C   0  0  0  0  0  0  0  0  0  0  0  0
   -0.6060   -0.4250   -0.3130 N   0  0  2  0  0  0  0  0  0  0  0  0
    0.7860   -0.6940   -0.6290 C   0  0  0  0  0  0  0  0  0  0  0  0
    1.3860    0.7280   -0.5250 C   0  0  2  0  0  0  0  0  0  0  0  0
    2.7940    0.6020   -0.0750 C   0  0  0  0  0  0  0  0  0  0  0  0
    3.6330   -0.4380   -1.3550 S   0  0  0  0  0  0  0  0  0  0  0  0
    5.3260   -0.6390   -0.8440 C   0  0  0  0  0  0  0  0  0  0  0  0
    6.3030    0.2260   -1.3090 C   0  0  0  0  0  0  0  0  0  0  0  0
    7.5810    0.0960   -0.9100 N   0  0  0  0  0  0  0  0  0  0  0  0
    7.9750   -0.8740   -0.0380 C   0  0  0  0  0  0  0  0  0  0  0  0
    6.9610   -1.7320    0.4160 C   0  0  0  0  0  0  0  0  0  0  0  0
    5.6990   -1.5910    0.0050 N   0  0  0  0  0  0  0  0  0  0  0  0
    0.4450    1.4430    0.3750 C   0  0  1  0  0  0  0  0  0  0  0  0
   -0.4030    2.2200   -0.4280 O   0  0  0  0  0  0  0  0  0  0  0  0
   -0.4570    0.3020    0.9070 C   0  0  0  0  0  0  0  0  0  0  0  0
   -3.5320   -2.0220    1.0050 C   0  0  0  0  0  0  0  0  0  0  0  0
   -4.7190   -1.4720    1.2600 N   0  0  0  0  0  0  0  0  0  0  0  0
   -4.7890   -0.3000    0.6010 C   0  0  0  0  0  0  0  0  0  0  0  0
  1  2  1  0
  2  3  2  0
  2 25  1  0
  3  4  1  0
  4  5  2  0
  5  6  1  0
  6  7  1  0
  6 25  2  0
  7  8  1  0
  7 23  2  0
  9  8  1  1
  9 10  1  0
  9 22  1  0
 10 11  1  0
 11 12  1  1
 11 20  1  0
 12 13  1  0
 13 14  1  0
 14 15  2  0
 14 19  1  0
 15 16  1  0
 16 17  2  0
 17 18  1  0
 18 19  2  0
 20 21  1  6
 20 22  1  0
 23 24  1  0
 24 25  1  0
M  CHG  1   9   1
M  END
