
     RDKit          3D

 16 18  0  0  0  0  0  0  0  0999 V2000
   -4.2570    1.4780    1.0050 O   0  0  0  0  0  0  0  0  0  0  0  0
   -3.3120    0.5130    0.6340 C   0  0  0  0  0  0  0  0  0  0  0  0
   -2.0040    0.8370    0.3530 C   0  0  0  0  0  0  0  0  0  0  0  0
   -1.0780   -0.1490   -0.0160 C   0  0  0  0  0  0  0  0  0  0  0  0
    0.2890    0.2170   -0.3130 C   0  0  0  0  0  0  0  0  0  0  0  0
    0.5520    1.2690   -1.1520 C   0  0  0  0  0  0  0  0  0  0  0  0
    1.8250    1.6630   -1.4810 C   0  0  0  0  0  0  0  0  0  0  0  0
    2.9030    0.9850   -0.9560 C   0  0  0  0  0  0  0  0  0  0  0  0
    2.6570   -0.0710   -0.1130 C   0  0  0  0  0  0  0  0  0  0  0  0
    3.4980   -0.9250    0.5580 C   0  0  0  0  0  0  0  0  0  0  0  0
    2.7400   -1.7880    1.2550 N   0  0  0  0  0  0  0  0  0  0  0  0
    1.4510   -1.5200    1.0570 N   0  0  0  0  0  0  0  0  0  0  0  0
    1.3540   -0.4660    0.2160 C   0  0  0  0  0  0  0  0  0  0  0  0
   -1.4850   -1.4660   -0.0980 C   0  0  0  0  0  0  0  0  0  0  0  0
   -2.8040   -1.7400    0.1930 C   0  0  0  0  0  0  0  0  0  0  0  0
   -3.6760   -0.7740    0.5460 N   0  0  0  0  0  0  0  0  0  0  0  0
  1  2  1  0
  2  3  2  0
  2 16  1  0
  3  4  1  0
  4  5  1  0
  4 14  2  0
  5  6  2  0
  5 13  1  0
  6  7  1  0
  7  8  2  0
  8  9  1  0
  9 10  1  0
  9 13  2  0
 10 11  2  0
 11 12  1  0
 12 13  1  0
 14 15  1  0
 15 16  2  0
M  END
