
     RDKit          3D

 16 18  0  0  0  0  0  0  0  0999 V2000
   -0.4890   -2.4720   -0.1900 O   0  0  0  0  0  0  0  0  0  0  0  0
    0.4000   -1.5640   -0.1010 C   0  0  0  0  0  0  0  0  0  0  0  0
    1.7300   -1.8870   -0.0120 N   0  0  0  0  0  0  0  0  0  0  0  0
    2.4770   -0.7870    0.0720 C   0  0  0  0  0  0  0  0  0  0  0  0
    3.8360   -0.5410    0.1780 C   0  0  0  0  0  0  0  0  0  0  0  0
    4.3550    0.7300    0.2490 C   0  0  0  0  0  0  0  0  0  0  0  0
    3.4720    1.7730    0.2120 C   0  0  0  0  0  0  0  0  0  0  0  0
    2.1210    1.5260    0.1060 C   0  0  0  0  0  0  0  0  0  0  0  0
    1.5840    0.2480    0.0330 C   0  0  0  0  0  0  0  0  0  0  0  0
    0.3040   -0.2450   -0.0730 N   0  0  0  0  0  0  0  0  0  0  0  0
   -0.7840    0.5770   -0.1160 N   0  0  0  0  0  0  0  0  0  0  0  0
   -2.1690    0.2460   -0.1620 C   0  0  0  0  0  0  0  0  0  0  0  0
   -3.1200    1.1970    0.0040 C   0  0  0  0  0  0  0  0  0  0  0  0
   -4.4260    0.6040   -0.0900 C   0  0  0  0  0  0  0  0  0  0  0  0
   -4.3350   -0.6710   -0.3060 C   0  0  0  0  0  0  0  0  0  0  0  0
   -2.8890   -1.0090   -0.3670 C   0  0  0  0  0  0  0  0  0  0  0  0
  1  2  2  0
  2  3  1  0
  2 10  1  0
  3  4  1  0
  4  5  2  0
  4  9  1  0
  5  6  1  0
  6  7  2  0
  7  8  1  0
  8  9  2  0
  9 10  1  0
 10 11  1  0
 11 12  1  0
 12 13  2  0
 12 16  1  0
 13 14  1  0
 14 15  2  0
 15 16  1  0
M  END
