
     RDKit          3D

 28 31  0  0  0  0  0  0  0  0999 V2000
   -7.0850   -1.4070   -1.0750 C   0  0  0  0  0  0  0  0  0  0  0  0
   -6.2730   -0.8340   -0.0250 N   0  0  0  0  0  0  0  0  0  0  0  0
   -4.8720   -0.6780   -0.1070 C   0  0  0  0  0  0  0  0  0  0  0  0
   -4.2660   -1.0460   -1.1330 O   0  0  0  0  0  0  0  0  0  0  0  0
   -4.1360   -0.0850    1.0110 C   0  0  2  0  0  0  0  0  0  0  0  0
   -4.6640    1.2540    1.4380 C   0  0  0  0  0  0  0  0  0  0  0  0
   -4.0890    2.4170    0.7190 C   0  0  0  0  0  0  0  0  0  0  0  0
   -3.1960    2.0600   -0.3580 N   0  0  0  0  0  0  0  0  0  0  0  0
   -2.2360    1.0820    0.0090 C   0  0  0  0  0  0  0  0  0  0  0  0
   -0.9300    1.1940   -0.2950 N   0  0  0  0  0  0  0  0  0  0  0  0
   -0.0180    0.2700    0.0500 C   0  0  0  0  0  0  0  0  0  0  0  0
    1.3970    0.4120   -0.2920 C   0  0  0  0  0  0  0  0  0  0  0  0
    1.9400    1.4590   -0.9750 C   0  0  0  0  0  0  0  0  0  0  0  0
    3.2690    1.2390   -1.0990 N   0  0  0  0  0  0  0  0  0  0  0  0
    3.5090    0.0450   -0.4790 C   0  0  0  0  0  0  0  0  0  0  0  0
    4.8500   -0.5210   -0.4130 C   0  0  0  0  0  0  0  0  0  0  0  0
    5.0150   -1.6250    0.1710 O   0  0  0  0  0  0  0  0  0  0  0  0
    5.9880    0.0800   -0.9580 N   0  0  0  0  0  0  0  0  0  0  0  0
    7.2900   -0.4820   -0.8870 C   0  0  0  0  0  0  0  0  0  0  0  0
    7.8640   -1.5740   -0.3860 C   0  0  0  0  0  0  0  0  0  0  0  0
    9.1670   -1.7850   -0.5100 C   0  0  0  0  0  0  0  0  0  0  0  0
    9.9740   -0.8930   -1.1560 C   0  0  0  0  0  0  0  0  0  0  0  0
    8.7390    0.4080   -1.6510 S   0  0  0  0  0  0  0  0  0  0  0  0
    2.3860   -0.4010   -0.0230 O   0  0  0  0  0  0  0  0  0  0  0  0
   -0.4740   -0.8060    0.7330 N   0  0  0  0  0  0  0  0  0  0  0  0
   -1.7690   -0.9670    1.0630 C   0  0  0  0  0  0  0  0  0  0  0  0
   -2.1820   -1.9750    1.7010 O   0  0  0  0  0  0  0  0  0  0  0  0
   -2.6950   -0.0170    0.7060 C   0  0  0  0  0  0  0  0  0  0  0  0
  1  2  1  0
  2  3  1  0
  3  4  2  0
  5  3  1  6
  5  6  1  0
  5 28  1  0
  6  7  1  0
  7  8  1  0
  8  9  1  0
  9 10  1  0
  9 28  2  0
 10 11  2  0
 11 12  1  0
 11 25  1  0
 12 13  2  0
 12 24  1  0
 13 14  1  0
 14 15  2  0
 15 16  1  0
 15 24  1  0
 16 17  2  0
 16 18  1  0
 18 19  1  0
 19 20  2  0
 19 23  1  0
 20 21  1  0
 21 22  2  0
 22 23  1  0
 25 26  1  0
 26 27  2  0
 26 28  1  0
M  CHG  1   8   1
M  END
