
     RDKit          3D

 27 30  0  0  0  0  0  0  0  0999 V2000
    7.3000    2.0670   -0.0270 C   0  0  0  0  0  0  0  0  0  0  0  0
    6.0610    1.3020   -0.2360 C   0  0  0  0  0  0  0  0  0  0  0  0
    5.4970    0.7620   -1.3420 C   0  0  0  0  0  0  0  0  0  0  0  0
    4.3280    0.1020   -1.2110 C   0  0  0  0  0  0  0  0  0  0  0  0
    3.7540   -0.0070   -0.0120 C   0  0  0  0  0  0  0  0  0  0  0  0
    2.5480   -0.6220    0.4730 C   0  0  0  0  0  0  0  0  0  0  0  0
    1.6110   -1.3080   -0.2510 C   0  0  0  0  0  0  0  0  0  0  0  0
    0.6340   -1.7110    0.6350 C   0  0  0  0  0  0  0  0  0  0  0  0
   -0.5970   -2.4950    0.3070 C   0  0  0  0  0  0  0  0  0  0  0  0
   -1.7280   -1.5850   -0.0350 C   0  0  0  0  0  0  0  0  0  0  0  0
   -2.5720   -1.1300    0.9080 N   0  0  0  0  0  0  0  0  0  0  0  0
   -3.5930   -0.3120    0.6110 C   0  0  0  0  0  0  0  0  0  0  0  0
   -4.3450    0.0450    1.7110 C   0  0  0  0  0  0  0  0  0  0  0  0
   -3.9640   -0.3980    2.8250 O   0  0  0  0  0  0  0  0  0  0  0  0
   -5.4480    0.8140    1.7610 N   0  0  0  0  0  0  0  0  0  0  0  0
   -6.1130    1.3420    0.7140 C   0  0  0  0  0  0  0  0  0  0  0  0
   -7.1830    1.9180    1.0400 O   0  0  0  0  0  0  0  0  0  0  0  0
   -5.8010    1.3410   -0.6140 N   0  0  0  0  0  0  0  0  0  0  0  0
   -4.7030    0.8630   -1.2300 C   0  0  0  0  0  0  0  0  0  0  0  0
   -4.5350    1.2090   -2.4280 O   0  0  0  0  0  0  0  0  0  0  0  0
   -3.7250    0.0380   -0.7260 C   0  0  0  0  0  0  0  0  0  0  0  0
   -2.8670   -0.4220   -1.7020 C   0  0  0  0  0  0  0  0  0  0  0  0
   -2.9960   -0.0990   -2.9090 O   0  0  0  0  0  0  0  0  0  0  0  0
   -1.8670   -1.2400   -1.3280 N   0  0  0  0  0  0  0  0  0  0  0  0
    0.9930   -1.2710    1.8540 N   0  0  0  0  0  0  0  0  0  0  0  0
    2.1410   -0.6170    1.7510 N   0  0  0  0  0  0  0  0  0  0  0  0
    4.9380    0.8860    1.0410 S   0  0  0  0  0  0  0  0  0  0  0  0
  1  2  1  0
  2  3  2  0
  2 27  1  0
  3  4  1  0
  4  5  2  0
  5  6  1  0
  5 27  1  0
  6  7  2  0
  6 26  1  0
  7  8  1  0
  8  9  1  0
  8 25  2  0
  9 10  1  0
 10 11  2  0
 10 24  1  0
 11 12  1  0
 12 13  1  0
 12 21  2  0
 13 14  2  0
 13 15  1  0
 15 16  1  0
 16 17  2  0
 16 18  1  0
 18 19  1  0
 19 20  2  0
 19 21  1  0
 21 22  1  0
 22 23  2  0
 22 24  1  0
 25 26  1  0
M  END
