
     RDKit          3D

 12 13  0  0  0  0  0  0  0  0999 V2000
    2.0440   -0.6760   -1.2330 C   0  0  0  0  0  0  0  0  0  0  0  0
    1.2010   -0.1740   -0.0830 C   0  0  2  0  0  0  0  0  0  0  0  0
    1.9540    0.8550    0.7400 C   0  0  1  0  0  0  0  0  0  0  0  0
    2.2650    1.9590   -0.0500 O   0  0  0  0  0  0  0  0  0  0  0  0
    1.1750    1.3100    1.8010 O   0  0  0  0  0  0  0  0  0  0  0  0
    0.8280   -1.3790    0.7530 C   0  0  0  0  0  0  0  0  0  0  0  0
   -0.4920   -1.7610    0.0640 C   0  0  0  0  0  0  0  0  0  0  0  0
   -1.0180   -0.3720   -0.1980 C   0  0  2  0  0  0  0  0  0  0  0  0
   -1.8620    0.1680    0.9750 C   0  0  0  0  0  0  0  0  0  0  0  0
   -2.4020   -0.0620   -0.4510 C   0  0  1  0  0  0  0  0  0  0  0  0
   -2.7050    1.1760   -1.1600 N   0  0  0  0  0  0  0  0  0  0  0  0
    0.0510    0.3980   -0.5470 O   0  0  0  0  0  0  0  0  0  0  0  0
  2  1  1  6
  2  3  1  0
  2  6  1  0
  2 12  1  0
  3  4  1  6
  3  5  1  0
  6  7  1  0
  8  7  1  1
  8  9  1  0
  8 10  1  0
  8 12  1  0
  9 10  1  0
 10 11  1  6
M  CHG  1  11   1
M  END
