
     RDKit          3D

 12 12  0  0  0  0  0  0  0  0999 V2000
   -2.5440   -1.3290    0.5070 C   0  0  0  0  0  0  0  0  0  0  0  0
   -1.5600   -0.1970    0.5200 C   0  0  2  0  0  0  0  0  0  0  0  0
   -2.1050    0.8870   -0.3970 C   0  0  0  0  0  0  0  0  0  0  0  0
   -1.3620    2.0590   -0.2870 O   0  0  0  0  0  0  0  0  0  0  0  0
   -0.0800    1.8240    0.1880 C   0  0  0  0  0  0  0  0  0  0  0  0
    0.5140    0.5700   -0.4680 C   0  0  1  0  0  0  0  0  0  0  0  0
    1.9820    0.6210   -0.3730 C   0  0  2  0  0  0  0  0  0  0  0  0
    2.5560   -0.5070   -0.9620 O   0  0  0  0  0  0  0  0  0  0  0  0
    2.5670    0.7780    0.9890 C   0  0  0  0  0  0  0  0  0  0  0  0
    2.3240   -0.3250    1.8070 O   0  0  0  0  0  0  0  0  0  0  0  0
   -0.1680   -0.6380    0.0490 C   0  0  2  0  0  0  0  0  0  0  0  0
   -0.3140   -1.6390   -0.9850 N   0  0  0  0  0  0  0  0  0  0  0  0
  2  1  1  6
  2  3  1  0
  2 11  1  0
  3  4  1  0
  4  5  1  0
  6  5  1  1
  6  7  1  0
  6 11  1  0
  7  8  1  1
  7  9  1  0
  9 10  1  0
 11 12  1  6
M  CHG  1  12   1
M  END
