
     RDKit          3D

 12 12  0  0  0  0  0  0  0  0999 V2000
    3.0530    0.6530    1.6330 O   0  0  0  0  0  0  0  0  0  0  0  0
    3.0210    0.6100    0.2350 C   0  0  0  0  0  0  0  0  0  0  0  0
    2.4350   -0.6510   -0.2810 C   0  0  0  0  0  0  0  0  0  0  0  0
    1.0520   -1.0010    0.1100 C   0  0  0  0  0  0  0  0  0  0  0  0
   -0.0040   -0.0750   -0.3640 C   0  0  2  0  0  0  0  0  0  0  0  0
    0.0660    1.2810    0.0650 N   0  0  0  0  0  0  0  0  0  0  0  0
   -1.3350    1.6840    0.2330 C   0  0  0  0  0  0  0  0  0  0  0  0
   -1.9150    0.4820    0.9100 C   0  0  0  0  0  0  0  0  0  0  0  0
   -1.3890   -0.6180    0.0400 C   0  0  2  0  0  0  0  0  0  0  0  0
   -1.2240   -1.7690    0.8200 O   0  0  0  0  0  0  0  0  0  0  0  0
   -2.2060   -0.9560   -1.1510 C   0  0  0  0  0  0  0  0  0  0  0  0
   -2.4560    0.0750   -2.0260 O   0  0  0  0  0  0  0  0  0  0  0  0
  1  2  1  0
  2  3  1  0
  3  4  1  0
  5  4  1  1
  5  6  1  0
  5  9  1  0
  6  7  1  0
  7  8  1  0
  8  9  1  0
  9 10  1  1
  9 11  1  0
 11 12  1  0
M  CHG  1   6   1
M  END
