
     RDKit          3D

 12 13  0  0  0  0  0  0  0  0999 V2000
    3.3620    0.1560    0.3960 C   0  0  0  0  0  0  0  0  0  0  0  0
    1.8340    0.1690    0.4720 C   0  0  1  0  0  0  0  0  0  0  0  0
    1.3670    0.3410    1.7450 O   0  0  0  0  0  0  0  0  0  0  0  0
    1.2260    0.8860   -0.7140 C   0  0  0  0  0  0  0  0  0  0  0  0
    1.0480   -0.5720   -0.5070 C   0  0  2  0  0  0  0  0  0  0  0  0
   -0.3600   -1.0400   -0.2660 C   0  0  2  0  0  0  0  0  0  0  0  0
   -0.7230   -1.7550   -1.5110 N   0  0  0  0  0  0  0  0  0  0  0  0
   -1.2660    0.1320   -0.0770 C   0  0  1  0  0  0  0  0  0  0  0  0
   -2.7130   -0.2460    0.1100 C   0  0  0  0  0  0  0  0  0  0  0  0
   -3.1410    0.4780    1.2330 O   0  0  0  0  0  0  0  0  0  0  0  0
   -2.2260    1.5260    1.2590 C   0  0  0  0  0  0  0  0  0  0  0  0
   -1.0090    0.8300    1.0810 O   0  0  0  0  0  0  0  0  0  0  0  0
  2  1  1  1
  2  3  1  0
  2  4  1  0
  2  5  1  0
  5  4  1  6
  5  6  1  0
  6  7  1  6
  6  8  1  0
  8  9  1  1
  8 12  1  0
  9 10  1  0
 10 11  1  0
 11 12  1  0
M  CHG  1   7   1
M  END
