
     RDKit          3D

 32 33  0  0  0  0  0  0  0  0999 V2000
   -1.8540    0.3790    1.9120 C   0  0  0  0  0  0  0  0  0  0  0  0
   -1.9190    0.7580    0.4770 C   0  0  1  0  0  0  0  0  0  0  0  0
   -2.0280   -0.4140   -0.4400 C   0  0  2  0  0  0  0  0  0  0  0  0
   -2.0750   -0.0300   -1.8760 C   0  0  0  0  0  0  0  0  0  0  0  0
   -2.1780   -1.2030   -2.7930 C   0  0  0  0  0  0  0  0  0  0  0  0
   -2.1360   -0.7150   -4.1540 O   0  0  0  0  0  0  0  0  0  0  0  0
   -3.1560   -1.3390   -0.1380 C   0  0  2  0  0  0  0  0  0  0  0  0
   -4.3960   -0.7030   -0.1630 O   0  0  0  0  0  0  0  0  0  0  0  0
   -3.0420   -2.2560    1.0160 C   0  0  0  0  0  0  0  0  0  0  0  0
   -1.8420   -2.9660    1.0730 O   0  0  0  0  0  0  0  0  0  0  0  0
   -3.1030    1.4930    0.3220 O   0  0  0  0  0  0  0  0  0  0  0  0
   -3.0570    2.7040    0.9970 C   0  0  0  0  0  0  0  0  0  0  0  0
   -2.1390    3.7010    0.3470 C   0  0  1  0  0  0  0  0  0  0  0  0
   -1.4600    4.3770    1.3800 O   0  0  0  0  0  0  0  0  0  0  0  0
   -1.1650    2.9390   -0.5240 C   0  0  0  0  0  0  0  0  0  0  0  0
   -0.7610    1.6710    0.1990 C   0  0  2  0  0  0  0  0  0  0  0  0
    0.2940    1.0490   -0.4090 O   0  0  0  0  0  0  0  0  0  0  0  0
    1.4660    1.0350    0.3410 C   0  0  2  0  0  0  0  0  0  0  0  0
    2.5070    1.7520   -0.2400 O   0  0  0  0  0  0  0  0  0  0  0  0
    3.7950    1.4620    0.1460 C   0  0  0  0  0  0  0  0  0  0  0  0
    4.6680    2.3450    0.4310 O   0  0  0  0  0  0  0  0  0  0  0  0
    4.1760    0.0140    0.2310 C   0  0  1  0  0  0  0  0  0  0  0  0
    5.0120   -0.1820   -0.8630 O   0  0  0  0  0  0  0  0  0  0  0  0
    4.9780   -0.0750    1.5200 C   0  0  0  0  0  0  0  0  0  0  0  0
    5.6020   -1.2610    1.7440 O   0  0  0  0  0  0  0  0  0  0  0  0
    3.0050   -0.8480    0.2330 C   0  0  0  0  0  0  0  0  0  0  0  0
    2.9890   -2.1000   -0.1970 C   0  0  0  0  0  0  0  0  0  0  0  0
    1.7260   -2.7590   -0.1000 O   0  0  0  0  0  0  0  0  0  0  0  0
    4.0580   -2.8870   -0.7430 C   0  0  0  0  0  0  0  0  0  0  0  0
    3.7620   -4.1010   -1.0890 O   0  0  0  0  0  0  0  0  0  0  0  0
    5.3680   -2.5680   -0.9670 O   0  0  0  0  0  0  0  0  0  0  0  0
    1.8250   -0.2650    0.7400 O   0  0  0  0  0  0  0  0  0  0  0  0
  2  1  1  1
  2  3  1  0
  2 11  1  0
  2 16  1  0
  3  4  1  6
  3  7  1  0
  4  5  1  0
  5  6  1  0
  7  8  1  1
  7  9  1  0
  9 10  1  0
 11 12  1  0
 12 13  1  0
 13 14  1  1
 13 15  1  0
 15 16  1  0
 16 17  1  6
 18 17  1  6
 18 19  1  0
 18 32  1  0
 19 20  1  0
 20 21  2  0
 20 22  1  0
 22 23  1  6
 22 24  1  0
 22 26  1  0
 24 25  1  0
 26 27  2  3
 26 32  1  0
 27 28  1  0
 27 29  1  0
 29 30  2  0
 29 31  1  0
M  END
