
     RDKit          3D

 23 24  0  0  0  0  0  0  0  0999 V2000
   -0.3710    0.6830   -0.8020 O   0  0  0  0  0  0  0  0  0  0  0  0
    0.1300   -0.4370   -0.9630 C   0  0  0  0  0  0  0  0  0  0  0  0
   -0.6760   -1.4860   -1.4740 N   0  0  0  0  0  0  0  0  0  0  0  0
   -2.0560   -1.3770   -1.8590 C   0  0  0  0  0  0  0  0  0  0  0  0
   -2.9670   -0.8520   -0.8230 C   0  0  0  0  0  0  0  0  0  0  0  0
   -3.7740   -1.4960    0.0600 C   0  0  0  0  0  0  0  0  0  0  0  0
   -4.5350   -0.7880    0.9010 C   0  0  0  0  0  0  0  0  0  0  0  0
   -4.4720    0.5850    0.8430 C   0  0  0  0  0  0  0  0  0  0  0  0
   -5.1980    1.6030    1.6260 C   0  0  1  0  0  0  0  0  0  0  0  0
   -4.8070    2.8830    1.2650 F   0  0  0  0  0  0  0  0  0  0  0  0
   -6.5650    1.5400    1.3170 F   0  0  0  0  0  0  0  0  0  0  0  0
   -5.1030    1.3610    2.9790 F   0  0  0  0  0  0  0  0  0  0  0  0
   -3.2810    0.8430   -0.4620 S   0  0  0  0  0  0  0  0  0  0  0  0
    1.5240   -0.6670   -0.6340 N   0  0  0  0  0  0  0  0  0  0  0  0
    2.3510    0.3340   -0.0830 C   0  0  0  0  0  0  0  0  0  0  0  0
    2.0180    1.5510    0.2910 N   0  0  0  0  0  0  0  0  0  0  0  0
    3.0190    2.1870    0.8010 O   0  0  0  0  0  0  0  0  0  0  0  0
    4.0890    1.3780    0.7800 C   0  0  0  0  0  0  0  0  0  0  0  0
    5.2380    1.8140    1.2530 C   0  0  0  0  0  0  0  0  0  0  0  0
    6.7000    0.8230    1.2630 S   0  0  0  0  0  0  0  0  0  0  0  0
    3.6940    0.1790    0.2150 C   0  0  0  0  0  0  0  0  0  0  0  0
    4.4730   -0.8420   -0.0060 C   0  0  0  0  0  0  0  0  0  0  0  0
    4.0320   -1.9940   -0.6160 F   0  0  0  0  0  0  0  0  0  0  0  0
  1  2  2  0
  2  3  1  0
  2 14  1  0
  3  4  1  0
  4  5  1  0
  5  6  2  0
  5 13  1  0
  6  7  1  0
  7  8  2  0
  8  9  1  0
  8 13  1  0
  9 10  1  1
  9 11  1  0
  9 12  1  0
 14 15  1  0
 15 16  2  0
 15 21  1  0
 16 17  1  0
 17 18  1  0
 18 19  2  3
 18 21  1  0
 19 20  1  0
 21 22  2  3
 22 23  1  0
M  END
