
     RDKit          3D

 24 25  0  0  0  0  0  0  0  0999 V2000
    5.5110   -0.6630    1.1030 C   0  0  0  0  0  0  0  0  0  0  0  0
    4.5620   -0.0580    0.1390 C   0  0  0  0  0  0  0  0  0  0  0  0
    3.1950   -0.2300    0.3700 C   0  0  0  0  0  0  0  0  0  0  0  0
    2.2110    0.1390   -0.5160 C   0  0  0  0  0  0  0  0  0  0  0  0
    0.8120    0.2740   -0.1730 N   0  0  0  0  0  0  0  0  0  0  0  0
   -0.0840   -0.1810   -1.1740 C   0  0  0  0  0  0  0  0  0  0  0  0
   -0.5460   -1.5570   -1.0450 C   0  0  0  0  0  0  0  0  0  0  0  0
    0.0910   -2.4410   -1.7770 O   0  0  0  0  0  0  0  0  0  0  0  0
   -1.5640   -2.0930   -0.2640 N   0  0  0  0  0  0  0  0  0  0  0  0
   -3.0260   -1.8380   -0.1460 C   0  0  2  0  0  0  0  0  0  0  0  0
   -3.6430   -2.8580    0.5920 C   0  0  0  0  0  0  0  0  0  0  0  0
   -3.6010   -1.7090   -1.5140 C   0  0  0  0  0  0  0  0  0  0  0  0
   -3.1840   -0.3900    0.4220 C   0  0  0  0  0  0  0  0  0  0  0  0
   -3.2580    0.2880    0.6950 C   0  0  0  0  0  0  0  0  0  0  0  0
   -3.3950    1.5880    1.1990 C   0  0  0  0  0  0  0  0  0  0  0  0
   -2.2530    2.1870    0.4930 N   0  0  0  0  0  0  0  0  0  0  0  0
   -1.0720    2.7660    0.7800 C   0  0  0  0  0  0  0  0  0  0  0  0
   -0.0730    2.0170    1.5860 C   0  0  0  0  0  0  0  0  0  0  0  0
    0.5190    0.7930    1.1400 C   0  0  0  0  0  0  0  0  0  0  0  0
    0.8970   -0.0180    2.0790 O   0  0  0  0  0  0  0  0  0  0  0  0
    2.7100    0.6920   -1.6840 C   0  0  0  0  0  0  0  0  0  0  0  0
    4.0630    0.8960   -1.9640 C   0  0  0  0  0  0  0  0  0  0  0  0
    4.9830    0.5260   -1.0470 C   0  0  0  0  0  0  0  0  0  0  0  0
    6.7260    0.7750   -1.2060 Cl  0  0  0  0  0  0  0  0  0  0  0  0
  1  2  1  0
  2  3  2  0
  2 23  1  0
  3  4  1  0
  4  5  1  0
  4 21  2  0
  5  6  1  0
  5 19  1  0
  6  7  1  0
  7  8  2  0
  7  9  1  0
  9 10  1  0
 10 11  1  1
 10 12  1  0
 10 13  1  0
 13 14  3  0
 14 15  1  0
 15 16  1  0
 16 17  1  0
 17 18  1  0
 18 19  1  0
 19 20  2  0
 21 22  1  0
 22 23  2  0
 23 24  1  0
M  CHG  1  16   1
M  END
