
     RDKit          3D

 25 26  0  0  0  0  0  0  0  0999 V2000
    6.3870   -0.2900    2.3590 C   0  0  0  0  0  0  0  0  0  0  0  0
    5.3980   -0.4930    1.5070 C   0  0  0  0  0  0  0  0  0  0  0  0
    4.1250   -0.6720    1.9290 N   0  0  0  0  0  0  0  0  0  0  0  0
    3.3430   -0.8570    0.8610 C   0  0  0  0  0  0  0  0  0  0  0  0
    1.8690   -1.0800    0.9980 C   0  0  2  0  0  0  0  0  0  0  0  0
    1.1730   -0.8630   -0.3270 C   0  0  0  0  0  0  0  0  0  0  0  0
   -0.0280   -0.0390   -0.0300 N   0  0  0  0  0  0  0  0  0  0  0  0
   -0.9720   -0.1560   -1.0840 C   0  0  1  0  0  0  0  0  0  0  0  0
   -0.4420    0.4690   -2.3580 C   0  0  0  0  0  0  0  0  0  0  0  0
   -1.1540   -1.6360   -1.4930 C   0  0  0  0  0  0  0  0  0  0  0  0
   -2.3430    0.3410   -0.7700 C   0  0  1  0  0  0  0  0  0  0  0  0
   -2.3810    1.8320   -0.5890 C   0  0  0  0  0  0  0  0  0  0  0  0
   -3.0700    0.0250   -1.9630 O   0  0  0  0  0  0  0  0  0  0  0  0
   -2.8690   -0.3770    0.3970 C   0  0  0  0  0  0  0  0  0  0  0  0
   -4.1930   -0.1410    0.9420 C   0  0  2  0  0  0  0  0  0  0  0  0
   -5.3580   -0.3590    0.0070 C   0  0  0  0  0  0  0  0  0  0  0  0
   -4.4210    1.1350    1.6920 C   0  0  0  0  0  0  0  0  0  0  0  0
    0.5360    1.2780    0.1870 C   0  0  0  0  0  0  0  0  0  0  0  0
    1.5980    1.1070    1.2940 C   0  0  0  0  0  0  0  0  0  0  0  0
    1.4350   -0.1250    1.9450 O   0  0  0  0  0  0  0  0  0  0  0  0
    4.0940   -0.7980   -0.2230 N   0  0  0  0  0  0  0  0  0  0  0  0
    5.3990   -0.5690    0.1520 C   0  0  0  0  0  0  0  0  0  0  0  0
    6.4210   -0.4500   -0.6560 C   0  0  0  0  0  0  0  0  0  0  0  0
    7.6530   -0.2250   -0.1820 F   0  0  0  0  0  0  0  0  0  0  0  0
    6.1820   -0.5870   -2.3830 Cl  0  0  0  0  0  0  0  0  0  0  0  0
  1  2  2  0
  2  3  1  0
  2 22  1  0
  3  4  2  0
  5  4  1  6
  4 21  1  0
  5  6  1  0
  5 20  1  0
  6  7  1  0
  7  8  1  0
  7 18  1  0
  8  9  1  6
  8 10  1  0
  8 11  1  0
 11 12  1  1
 11 13  1  0
 11 14  1  0
 14 15  1  0
 15 16  1  6
 15 17  1  0
 18 19  1  0
 19 20  1  0
 21 22  1  0
 22 23  2  3
 23 24  1  0
 23 25  1  0
M  END
