
     RDKit          3D

 22 23  0  0  0  0  0  0  0  0999 V2000
    3.7040   -0.8800   -1.1110 C   0  0  0  0  0  0  0  0  0  0  0  0
    3.3220    0.0630   -0.0400 C   0  0  0  0  0  0  0  0  0  0  0  0
    4.1860    0.8920    0.4880 C   0  0  0  0  0  0  0  0  0  0  0  0
    5.5860    0.8840   -0.0040 C   0  0  2  0  0  0  0  0  0  0  0  0
    6.2930    1.9780    0.4850 F   0  0  0  0  0  0  0  0  0  0  0  0
    5.6430    0.8710   -1.3890 F   0  0  0  0  0  0  0  0  0  0  0  0
    6.2340   -0.2420    0.4530 F   0  0  0  0  0  0  0  0  0  0  0  0
    1.9880    0.0750    0.4330 N   0  0  0  0  0  0  0  0  0  0  0  0
    0.8350   -0.0490   -0.4190 C   0  0  0  0  0  0  0  0  0  0  0  0
    1.1980   -0.2070   -2.0000 S   0  0  0  0  0  0  0  0  0  0  0  0
   -0.4240   -0.0230    0.1690 N   0  0  0  0  0  0  0  0  0  0  0  0
   -1.7090   -0.1230   -0.4200 C   0  0  0  0  0  0  0  0  0  0  0  0
   -1.9520   -0.2720   -1.7590 C   0  0  0  0  0  0  0  0  0  0  0  0
   -3.1890   -0.3680   -2.3220 N   0  0  0  0  0  0  0  0  0  0  0  0
   -4.2770   -0.3190   -1.5670 C   0  0  0  0  0  0  0  0  0  0  0  0
   -4.0870   -0.1690   -0.2120 C   0  0  0  0  0  0  0  0  0  0  0  0
   -2.8650   -0.0680    0.4110 C   0  0  0  0  0  0  0  0  0  0  0  0
   -2.9350    0.0810    1.8310 C   0  0  0  0  0  0  0  0  0  0  0  0
   -4.1170    0.1050    2.3820 C   0  0  0  0  0  0  0  0  0  0  0  0
   -5.2730   -0.0650    1.0960 S   0  0  2  0  0  0  0  0  0  0  0  0
   -6.0370   -1.3400    1.2120 O   0  0  0  0  0  0  0  0  0  0  0  0
   -6.1500    1.1290    0.9370 O   0  0  0  0  0  0  0  0  0  0  0  0
  1  2  1  0
  2  3  2  3
  2  8  1  0
  3  4  1  0
  4  5  1  1
  4  6  1  0
  4  7  1  0
  8  9  1  0
  9 10  2  0
  9 11  1  0
 11 12  1  0
 12 13  2  0
 12 17  1  0
 13 14  1  0
 14 15  2  0
 15 16  1  0
 16 17  2  0
 16 20  1  0
 17 18  1  0
 18 19  2  0
 20 19  1  1
 20 21  2  0
 20 22  2  0
M  END
