
     RDKit          3D

 23 24  0  0  0  0  0  0  0  0999 V2000
    0.4560   -2.6300   -2.0790 O   0  0  0  0  0  0  0  0  0  0  0  0
   -0.1710   -1.7680   -1.4220 C   0  0  0  0  0  0  0  0  0  0  0  0
   -1.5810   -1.9260   -1.3800 N   0  0  0  0  0  0  0  0  0  0  0  0
   -2.5600   -0.8930   -1.1030 C   0  0  0  0  0  0  0  0  0  0  0  0
   -3.9640   -1.2080   -1.4250 C   0  0  1  0  0  0  0  0  0  0  0  0
   -3.9940   -2.6150   -1.6060 F   0  0  0  0  0  0  0  0  0  0  0  0
   -4.8320   -1.0330   -0.3520 F   0  0  0  0  0  0  0  0  0  0  0  0
   -4.4270   -0.6750   -2.5930 F   0  0  0  0  0  0  0  0  0  0  0  0
   -2.3370    0.2940   -0.5820 C   0  0  0  0  0  0  0  0  0  0  0  0
   -3.5140    1.1680   -0.4070 C   0  0  0  0  0  0  0  0  0  0  0  0
   -3.7780    1.4460    1.0530 C   0  0  0  0  0  0  0  0  0  0  0  0
   -4.8840    2.2660    1.1980 O   0  0  0  0  0  0  0  0  0  0  0  0
   -1.0850    0.8950   -0.1440 N   0  0  0  0  0  0  0  0  0  0  0  0
    0.1090    0.4820   -0.2350 C   0  0  0  0  0  0  0  0  0  0  0  0
    1.2340    1.6640    0.4910 S   0  0  0  0  0  0  0  0  0  0  0  0
    2.8500    0.8960    0.2590 C   0  0  0  0  0  0  0  0  0  0  0  0
    4.2450    1.7860    0.8610 S   0  0  0  0  0  0  0  0  0  0  0  0
    5.8060    0.9400    0.5840 C   0  0  0  0  0  0  0  0  0  0  0  0
    5.8970   -0.3510    1.4020 C   0  0  0  0  0  0  0  0  0  0  0  0
    7.1030   -0.9630    1.1580 F   0  0  0  0  0  0  0  0  0  0  0  0
    2.9740   -0.2390   -0.3140 N   0  0  0  0  0  0  0  0  0  0  0  0
    1.9390   -1.0480   -0.8370 C   0  0  0  0  0  0  0  0  0  0  0  0
    0.6770   -0.7240   -0.7980 C   0  0  0  0  0  0  0  0  0  0  0  0
  1  2  2  0
  2  3  1  0
  2 23  1  0
  3  4  1  0
  4  5  1  0
  4  9  2  0
  5  6  1  6
  5  7  1  0
  5  8  1  0
  9 10  1  0
  9 13  1  0
 10 11  1  0
 11 12  1  0
 13 14  2  0
 14 15  1  0
 14 23  1  0
 15 16  1  0
 16 17  1  0
 16 21  2  0
 17 18  1  0
 18 19  1  0
 19 20  1  0
 21 22  1  0
 22 23  2  0
M  END
