
     RDKit          3D

 20 19  0  0  0  0  0  0  0  0999 V2000
   -4.5730   -2.7070    0.3510 C   0  0  0  0  0  0  0  0  0  0  0  0
   -3.2870   -2.1520    0.4960 O   0  0  0  0  0  0  0  0  0  0  0  0
   -3.3350   -0.8370    0.0370 C   0  0  0  0  0  0  0  0  0  0  0  0
   -1.9720   -0.1670    0.1640 C   0  0  1  0  0  0  0  0  0  0  0  0
   -0.9650   -0.9360   -0.6540 C   0  0  0  0  0  0  0  0  0  0  0  0
    0.3580   -0.3980   -0.6060 N   0  0  0  0  0  0  0  0  0  0  0  0
    1.1120   -1.1360    0.4080 C   0  0  0  0  0  0  0  0  0  0  0  0
    2.4970   -0.0820    0.9310 S   0  0  0  0  0  0  0  0  0  0  0  0
    3.6630    0.1510   -0.4150 C   0  0  2  0  0  0  0  0  0  0  0  0
    4.3000   -1.1970   -0.7050 C   0  0  0  0  0  0  0  0  0  0  0  0
    4.9570   -1.6370    0.4580 O   0  0  0  0  0  0  0  0  0  0  0  0
    4.6920    1.1490   -0.0430 C   0  0  0  0  0  0  0  0  0  0  0  0
    5.7310    1.5270   -0.9280 N   0  0  0  0  0  0  0  0  0  0  0  0
    4.6550    1.6850    1.0910 O   0  0  0  0  0  0  0  0  0  0  0  0
   -2.0680    1.2560   -0.1880 C   0  0  0  0  0  0  0  0  0  0  0  0
   -1.4360    1.7270   -1.1650 O   0  0  0  0  0  0  0  0  0  0  0  0
   -2.8850    2.1190    0.5830 N   0  0  0  0  0  0  0  0  0  0  0  0
   -3.0020    3.4950    0.2730 C   0  0  0  0  0  0  0  0  0  0  0  0
   -2.3650    3.9550   -0.7100 O   0  0  0  0  0  0  0  0  0  0  0  0
   -3.8060    4.3590    1.0300 O   0  0  0  0  0  0  0  0  0  0  0  0
  1  2  1  0
  2  3  1  0
  4  3  1  6
  4  5  1  0
  4 15  1  0
  5  6  1  0
  6  7  1  0
  7  8  1  0
  8  9  1  0
  9 10  1  1
  9 12  1  0
 10 11  1  0
 12 13  1  0
 12 14  2  0
 15 16  2  0
 15 17  1  0
 17 18  1  0
 18 19  2  0
 18 20  1  0
M  CHG  1   6   1
M  END
