
     RDKit          3D

 20 19  0  0  0  0  0  0  0  0999 V2000
   -4.7680    0.4450   -1.8510 C   0  0  0  0  0  0  0  0  0  0  0  0
   -3.3170    0.1160   -2.0050 C   0  0  0  0  0  0  0  0  0  0  0  0
   -2.5100    0.4510   -0.7550 C   0  0  2  0  0  0  0  0  0  0  0  0
   -2.6760    1.8400   -0.5620 O   0  0  0  0  0  0  0  0  0  0  0  0
   -1.0860    0.1010   -1.0380 C   0  0  0  0  0  0  0  0  0  0  0  0
   -0.1730    0.3680    0.0800 C   0  0  0  0  0  0  0  0  0  0  0  0
   -0.4850    0.8400    1.1870 O   0  0  0  0  0  0  0  0  0  0  0  0
    1.2200    0.0540   -0.1200 N   0  0  0  0  0  0  0  0  0  0  0  0
    2.1790    0.2810    0.9150 C   0  0  0  0  0  0  0  0  0  0  0  0
    3.5530   -0.1370    0.4310 C   0  0  1  0  0  0  0  0  0  0  0  0
    3.5890   -1.5950    0.0550 C   0  0  0  0  0  0  0  0  0  0  0  0
    3.9090    0.6030   -0.6930 O   0  0  0  0  0  0  0  0  0  0  0  0
    4.5580    0.0520    1.5210 C   0  0  0  0  0  0  0  0  0  0  0  0
    5.6620    0.9020    1.2800 N   0  0  0  0  0  0  0  0  0  0  0  0
    4.4490   -0.4980    2.5930 O   0  0  0  0  0  0  0  0  0  0  0  0
   -3.0390   -0.2230    0.4460 C   0  0  0  0  0  0  0  0  0  0  0  0
   -3.5370    0.4240    1.4280 O   0  0  0  0  0  0  0  0  0  0  0  0
   -3.0300   -1.6400    0.5910 N   0  0  0  0  0  0  0  0  0  0  0  0
   -3.6660   -2.4060    2.0280 S   0  0  0  0  0  0  0  0  0  0  0  0
   -4.4000   -1.3580    2.8860 O   0  0  0  0  0  0  0  0  0  0  0  0
  1  2  1  0
  2  3  1  0
  3  4  1  1
  3  5  1  0
  3 16  1  0
  5  6  1  0
  6  7  2  0
  6  8  1  0
  8  9  1  0
  9 10  1  0
 10 11  1  6
 10 12  1  0
 10 13  1  0
 13 14  1  0
 13 15  2  0
 16 17  2  0
 16 18  1  0
 18 19  1  0
 19 20  2  0
M  CHG  1  14   1
M  END
