
     RDKit          3D

 20 19  0  0  0  0  0  0  0  0999 V2000
   -4.5210   -0.8850    1.0570 C   0  0  0  0  0  0  0  0  0  0  0  0
   -4.1030   -0.2580   -0.2210 C   0  0  1  0  0  0  0  0  0  0  0  0
   -5.1210    0.7460   -0.5820 N   0  0  0  0  0  0  0  0  0  0  0  0
   -2.7400    0.3430   -0.2790 C   0  0  0  0  0  0  0  0  0  0  0  0
   -1.6430   -0.6120   -0.0610 C   0  0  1  0  0  0  0  0  0  0  0  0
   -0.3740   -0.0260   -0.1300 O   0  0  0  0  0  0  0  0  0  0  0  0
    0.3850   -0.4400   -1.1730 C   0  0  0  0  0  0  0  0  0  0  0  0
    1.7290    0.2070   -1.2120 C   0  0  0  0  0  0  0  0  0  0  0  0
    2.5630   -0.0660   -2.1210 O   0  0  0  0  0  0  0  0  0  0  0  0
    2.1040    1.1290   -0.2490 O   0  0  0  0  0  0  0  0  0  0  0  0
    3.3840    1.7470   -0.2820 C   0  0  0  0  0  0  0  0  0  0  0  0
    4.4340    0.7020   -0.1850 C   0  0  0  0  0  0  0  0  0  0  0  0
    4.1720   -0.5180   -0.0880 O   0  0  0  0  0  0  0  0  0  0  0  0
    5.8130    1.0610   -0.2000 N   0  0  0  0  0  0  0  0  0  0  0  0
    6.8730    0.1400   -0.1130 C   0  0  0  0  0  0  0  0  0  0  0  0
    6.6060   -1.0720   -0.0160 O   0  0  0  0  0  0  0  0  0  0  0  0
    8.2110    0.5210   -0.1300 O   0  0  0  0  0  0  0  0  0  0  0  0
   -1.6780   -1.4630    1.1290 C   0  0  0  0  0  0  0  0  0  0  0  0
   -1.8070   -0.9430    2.4340 N   0  0  0  0  0  0  0  0  0  0  0  0
   -1.5260   -3.0840    0.9630 S   0  0  0  0  0  0  0  0  0  0  0  0
  2  1  1  1
  2  3  1  0
  2  4  1  0
  5  4  1  1
  5  6  1  0
  5 18  1  0
  6  7  1  0
  7  8  1  0
  8  9  2  0
  8 10  1  0
 10 11  1  0
 11 12  1  0
 12 13  2  0
 12 14  1  0
 14 15  1  0
 15 16  2  0
 15 17  1  0
 18 19  1  0
 18 20  2  0
M  CHG  1   3   1
M  END
