
     RDKit          3D

 26 28  0  0  0  0  0  0  0  0999 V2000
    4.9050   -0.5600    1.5400 C   0  0  0  0  0  0  0  0  0  0  0  0
    3.8560   -0.6600    0.5250 C   0  0  0  0  0  0  0  0  0  0  0  0
    3.1260   -1.7640    0.2860 N   0  0  0  0  0  0  0  0  0  0  0  0
    2.2450   -1.5050   -0.6760 C   0  0  0  0  0  0  0  0  0  0  0  0
    1.2620   -2.4780   -1.2150 C   0  0  0  0  0  0  0  0  0  0  0  0
   -0.0310   -2.2920   -0.6660 O   0  0  0  0  0  0  0  0  0  0  0  0
   -0.7460   -1.1230   -0.7960 C   0  0  0  0  0  0  0  0  0  0  0  0
   -0.2160   -0.1770   -1.4370 O   0  0  0  0  0  0  0  0  0  0  0  0
   -2.0740   -0.9020   -0.2460 C   0  0  0  0  0  0  0  0  0  0  0  0
   -2.8290   -1.7950    0.4820 C   0  0  0  0  0  0  0  0  0  0  0  0
   -3.9980   -1.2180    0.8080 N   0  0  0  0  0  0  0  0  0  0  0  0
   -4.0080    0.0300    0.3020 C   0  0  0  0  0  0  0  0  0  0  0  0
   -5.1180    1.0430    0.4170 C   0  0  1  0  0  0  0  0  0  0  0  0
   -6.4730    0.5150   -0.0080 C   0  0  0  0  0  0  0  0  0  0  0  0
   -7.0210    1.0070    1.3320 C   0  0  0  0  0  0  0  0  0  0  0  0
   -5.5890    1.1060    1.8440 C   0  0  0  0  0  0  0  0  0  0  0  0
   -2.8360    0.1990   -0.3300 N   0  0  0  0  0  0  0  0  0  0  0  0
    2.4140   -0.2730   -1.0330 O   0  0  0  0  0  0  0  0  0  0  0  0
    3.3850    0.3050   -0.3390 C   0  0  0  0  0  0  0  0  0  0  0  0
    3.8120    1.6750   -0.5110 C   0  0  0  0  0  0  0  0  0  0  0  0
    5.0240    2.0280   -0.7640 C   0  0  0  0  0  0  0  0  0  0  0  0
    5.3170    3.3580   -0.9000 F   0  0  0  0  0  0  0  0  0  0  0  0
    6.0860    1.0770   -0.9810 C   0  0  0  0  0  0  0  0  0  0  0  0
    7.3300    1.4830   -1.2280 C   0  0  0  0  0  0  0  0  0  0  0  0
    8.5730    0.3020   -1.4830 Cl  0  0  0  0  0  0  0  0  0  0  0  0
    7.6320    3.2050   -1.2760 Cl  0  0  0  0  0  0  0  0  0  0  0  0
  1  2  1  0
  2  3  1  0
  2 19  2  0
  3  4  2  0
  4  5  1  0
  4 18  1  0
  5  6  1  0
  6  7  1  0
  7  8  2  0
  7  9  1  0
  9 10  2  0
  9 17  1  0
 10 11  1  0
 11 12  1  0
 13 12  1  1
 12 17  2  0
 13 14  1  0
 13 16  1  0
 14 15  1  0
 15 16  1  0
 18 19  1  0
 19 20  1  0
 20 21  2  3
 21 22  1  0
 21 23  1  0
 23 24  2  3
 24 25  1  0
 24 26  1  0
M  END
