
     RDKit          3D

 20 19  0  0  0  0  0  0  0  0999 V2000
    5.4050    0.0250   -1.3820 N   0  0  0  0  0  0  0  0  0  0  0  0
    4.3400    0.6740   -0.5930 C   0  0  1  0  0  0  0  0  0  0  0  0
    3.1140   -0.1690   -0.7470 C   0  0  0  0  0  0  0  0  0  0  0  0
    1.9520    0.4020    0.0190 C   0  0  0  0  0  0  0  0  0  0  0  0
    0.7720   -0.4670   -0.1920 C   0  0  0  0  0  0  0  0  0  0  0  0
    0.8890   -1.4770   -0.9190 O   0  0  0  0  0  0  0  0  0  0  0  0
   -0.4940   -0.1780    0.4170 N   0  0  0  0  0  0  0  0  0  0  0  0
   -1.5910   -1.0560    0.1730 C   0  0  1  0  0  0  0  0  0  0  0  0
   -2.0520   -1.5730    1.5410 C   0  0  0  0  0  0  0  0  0  0  0  0
   -0.6230   -2.4420    2.2800 S   0  0  0  0  0  0  0  0  0  0  0  0
   -2.7740   -0.3510   -0.3980 C   0  0  0  0  0  0  0  0  0  0  0  0
   -2.6700    0.8830   -0.5900 O   0  0  0  0  0  0  0  0  0  0  0  0
   -3.9750   -1.0340   -0.7180 N   0  0  0  0  0  0  0  0  0  0  0  0
   -5.1350   -0.3450   -1.2770 C   0  0  0  0  0  0  0  0  0  0  0  0
   -5.6150    0.7000   -0.3620 C   0  0  0  0  0  0  0  0  0  0  0  0
   -5.0410    0.8940    0.7210 O   0  0  0  0  0  0  0  0  0  0  0  0
   -6.7030    1.4570   -0.7180 O   0  0  0  0  0  0  0  0  0  0  0  0
    4.7890    0.8050    0.8060 C   0  0  0  0  0  0  0  0  0  0  0  0
    5.9030    0.3020    1.1730 O   0  0  0  0  0  0  0  0  0  0  0  0
    4.0430    1.4620    1.7480 O   0  0  0  0  0  0  0  0  0  0  0  0
  2  1  1  6
  2  3  1  0
  2 18  1  0
  3  4  1  0
  4  5  1  0
  5  6  2  0
  5  7  1  0
  7  8  1  0
  8  9  1  1
  8 11  1  0
  9 10  1  0
 11 12  2  0
 11 13  1  0
 13 14  1  0
 14 15  1  0
 15 16  2  0
 15 17  1  0
 18 19  2  0
 18 20  1  0
M  CHG  1   1   1
M  END
