
     RDKit          3D

 20 19  0  0  0  0  0  0  0  0999 V2000
    4.0840    0.7340    1.6350 C   0  0  0  0  0  0  0  0  0  0  0  0
    3.4880   -0.5270    1.4810 O   0  0  0  0  0  0  0  0  0  0  0  0
    2.1790   -0.4530    1.1250 C   0  0  0  0  0  0  0  0  0  0  0  0
    1.9370    0.1700   -0.2050 C   0  0  2  0  0  0  0  0  0  0  0  0
    0.5070    0.2850   -0.4360 O   0  0  0  0  0  0  0  0  0  0  0  0
   -0.1430    1.4580   -0.6110 C   0  0  0  0  0  0  0  0  0  0  0  0
    0.6470    2.4930   -0.5510 O   0  0  0  0  0  0  0  0  0  0  0  0
   -1.5520    1.7600   -0.8550 C   0  0  0  0  0  0  0  0  0  0  0  0
   -2.5190    0.8940   -0.8390 O   0  0  0  0  0  0  0  0  0  0  0  0
   -3.0730    0.1610    0.0890 C   0  0  1  0  0  0  0  0  0  0  0  0
   -4.2500   -0.6900   -0.5330 C   0  0  0  0  0  0  0  0  0  0  0  0
   -2.1700   -0.8710    0.7200 C   0  0  0  0  0  0  0  0  0  0  0  0
   -1.7190   -1.7660   -0.3060 N   0  0  0  0  0  0  0  0  0  0  0  0
   -3.8250    0.9070    1.1820 C   0  0  0  0  0  0  0  0  0  0  0  0
   -4.3250    0.2840    2.0870 O   0  0  0  0  0  0  0  0  0  0  0  0
   -3.9580    2.6630    1.1150 S   0  0  0  0  0  0  0  0  0  0  0  0
    2.5420   -0.5510   -1.3510 C   0  0  0  0  0  0  0  0  0  0  0  0
    1.7490   -0.9120   -2.2940 O   0  0  0  0  0  0  0  0  0  0  0  0
    3.9040   -0.8780   -1.5040 N   0  0  0  0  0  0  0  0  0  0  0  0
    4.3440   -1.5710   -2.6530 N   0  0  0  0  0  0  0  0  0  0  0  0
  1  2  1  0
  2  3  1  0
  4  3  1  1
  4  5  1  0
  4 17  1  0
  5  6  1  0
  6  7  2  0
  6  8  1  0
  8  9  1  0
  9 10  1  0
 10 11  1  6
 10 12  1  0
 10 14  1  0
 12 13  1  0
 14 15  2  0
 14 16  1  0
 17 18  2  0
 17 19  1  0
 19 20  1  0
M  CHG  1  13   1
M  END
