
     RDKit          3D

 24 25  0  0  0  0  0  0  0  0999 V2000
   -5.5420    1.2790   -0.1350 C   0  0  0  0  0  0  0  0  0  0  0  0
   -4.0590    1.3250   -0.4620 C   0  0  0  0  0  0  0  0  0  0  0  0
   -3.4740    0.2540   -0.8820 C   0  0  0  0  0  0  0  0  0  0  0  0
   -4.2960   -0.9450   -1.0090 N   0  0  0  0  0  0  0  0  0  0  0  0
   -3.7740   -2.2040   -1.3580 C   0  0  0  0  0  0  0  0  0  0  0  0
   -2.4900   -2.3060   -1.5850 C   0  0  0  0  0  0  0  0  0  0  0  0
   -1.6750   -1.1410   -1.4710 C   0  0  0  0  0  0  0  0  0  0  0  0
   -2.0580    0.1170   -1.1390 C   0  0  0  0  0  0  0  0  0  0  0  0
   -1.0110    1.0470   -0.8640 C   0  0  0  0  0  0  0  0  0  0  0  0
    0.2860    0.4300   -0.3210 C   0  0  0  0  0  0  0  0  0  0  0  0
    0.7120   -0.7230   -0.1080 C   0  0  0  0  0  0  0  0  0  0  0  0
    2.0910   -0.9180    0.4390 C   0  0  0  0  0  0  0  0  0  0  0  0
    2.9330    0.0890    0.7430 C   0  0  0  0  0  0  0  0  0  0  0  0
    4.2270   -0.1240    1.2520 C   0  0  0  0  0  0  0  0  0  0  0  0
    4.6220   -1.4190    1.4360 C   0  0  0  0  0  0  0  0  0  0  0  0
    5.9060   -1.6940    1.9430 O   0  0  0  0  0  0  0  0  0  0  0  0
    6.7740   -0.6300    2.2550 C   0  0  0  0  0  0  0  0  0  0  0  0
    3.7770   -2.4640    1.1330 C   0  0  0  0  0  0  0  0  0  0  0  0
    2.5160   -2.2290    0.6360 C   0  0  0  0  0  0  0  0  0  0  0  0
   -0.8970    2.3280   -0.7510 C   0  0  0  0  0  0  0  0  0  0  0  0
   -1.5990    3.5630   -0.8140 C   0  0  1  0  0  0  0  0  0  0  0  0
   -2.5220    3.7300   -1.8340 F   0  0  0  0  0  0  0  0  0  0  0  0
   -2.0840    4.0230    0.4120 F   0  0  0  0  0  0  0  0  0  0  0  0
   -0.6080    4.5910   -1.1240 F   0  0  0  0  0  0  0  0  0  0  0  0
  1  2  1  0
  2  3  2  3
  3  4  1  0
  3  8  1  0
  4  5  1  0
  5  6  2  0
  6  7  1  0
  7  8  2  0
  8  9  1  0
  9 10  1  0
  9 20  2  3
 10 11  2  3
 11 12  1  0
 12 13  2  0
 12 19  1  0
 13 14  1  0
 14 15  2  0
 15 16  1  0
 15 18  1  0
 16 17  1  0
 18 19  2  0
 20 21  1  0
 21 22  1  6
 21 23  1  0
 21 24  1  0
M  END
