
     RDKit          3D

 25 27  0  0  0  0  0  0  0  0999 V2000
   -5.2860    0.2060   -2.5780 C   0  0  0  0  0  0  0  0  0  0  0  0
   -5.9970    0.0320   -1.2850 C   0  0  0  0  0  0  0  0  0  0  0  0
   -7.2980   -0.0060   -1.1530 N   0  0  0  0  0  0  0  0  0  0  0  0
   -7.6270   -0.1860    0.2360 C   0  0  0  0  0  0  0  0  0  0  0  0
   -6.2940   -0.2470    0.9060 C   0  0  0  0  0  0  0  0  0  0  0  0
   -5.3750   -0.1190    0.0080 C   0  0  0  0  0  0  0  0  0  0  0  0
   -3.9530   -0.1220    0.2280 N   0  0  0  0  0  0  0  0  0  0  0  0
   -3.1830    0.9890   -0.1270 C   0  0  0  0  0  0  0  0  0  0  0  0
   -3.9180    1.9400   -0.6700 O   0  0  0  0  0  0  0  0  0  0  0  0
   -1.8330    1.2490   -0.0010 C   0  0  0  0  0  0  0  0  0  0  0  0
   -0.7580    0.7680    0.4660 C   0  0  0  0  0  0  0  0  0  0  0  0
   -0.4270   -0.4300    1.1850 C   0  0  0  0  0  0  0  0  0  0  0  0
   -1.1480   -1.3460    1.9040 C   0  0  0  0  0  0  0  0  0  0  0  0
   -0.3580   -2.3410    2.3140 O   0  0  0  0  0  0  0  0  0  0  0  0
    0.8510   -2.1180    1.8960 C   0  0  0  0  0  0  0  0  0  0  0  0
    2.0090   -2.8790    2.0790 C   0  0  0  0  0  0  0  0  0  0  0  0
    3.1640   -2.3980    1.5200 C   0  0  0  0  0  0  0  0  0  0  0  0
    3.2450   -1.2230    0.7970 C   0  0  0  0  0  0  0  0  0  0  0  0
    4.4920   -0.7850    0.2350 N   0  0  0  0  0  0  0  0  0  0  0  0
    4.5220    0.4810   -0.4320 C   0  0  1  0  0  0  0  0  0  0  0  0
    4.2000    1.6600    0.4580 C   0  0  0  0  0  0  0  0  0  0  0  0
    5.8490    0.7580   -1.0990 C   0  0  0  0  0  0  0  0  0  0  0  0
    6.1640   -0.2440   -2.0950 N   0  0  0  0  0  0  0  0  0  0  0  0
    2.0720   -0.5010    0.6410 C   0  0  0  0  0  0  0  0  0  0  0  0
    0.8960   -0.9510    1.1870 C   0  0  0  0  0  0  0  0  0  0  0  0
  1  2  1  0
  2  3  2  0
  2  6  1  0
  3  4  1  0
  4  5  1  0
  5  6  2  0
  6  7  1  0
  7  8  1  0
  8  9  2  0
  8 10  1  0
 10 11  2  3
 11 12  1  0
 12 13  2  0
 12 25  1  0
 13 14  1  0
 14 15  1  0
 15 16  2  0
 15 25  1  0
 16 17  1  0
 17 18  2  0
 18 19  1  0
 18 24  1  0
 19 20  1  0
 20 21  1  1
 20 22  1  0
 22 23  1  0
 24 25  2  0
M  CHG  1  23   1
M  END
