
     RDKit          3D

 25 27  0  0  0  0  0  0  0  0999 V2000
   -4.5240   -2.2170    0.3260 C   0  0  0  0  0  0  0  0  0  0  0  0
   -3.6500   -1.0360    0.2110 C   0  0  0  0  0  0  0  0  0  0  0  0
   -2.2710   -1.1560    0.3590 C   0  0  0  0  0  0  0  0  0  0  0  0
   -1.7030   -2.4560    0.6290 N   0  0  0  0  0  0  0  0  0  0  0  0
   -1.3970   -0.1120    0.2660 C   0  0  0  0  0  0  0  0  0  0  0  0
   -0.0520   -0.2870    0.4200 C   0  0  0  0  0  0  0  0  0  0  0  0
    0.8460    0.7430    0.3310 C   0  0  0  0  0  0  0  0  0  0  0  0
    2.2030    0.5110    0.4960 O   0  0  0  0  0  0  0  0  0  0  0  0
    2.7320   -0.7650    0.7590 C   0  0  0  0  0  0  0  0  0  0  0  0
    4.2490   -0.7040    0.8900 C   0  0  0  0  0  0  0  0  0  0  0  0
    4.8780   -0.2020   -0.3440 C   0  0  0  0  0  0  0  0  0  0  0  0
    4.1200    0.0980   -1.3040 O   0  0  0  0  0  0  0  0  0  0  0  0
    6.2710   -0.0720   -0.4260 N   0  0  0  0  0  0  0  0  0  0  0  0
    7.1080   -0.4260    0.6950 C   0  0  0  0  0  0  0  0  0  0  0  0
    6.8960    0.4200   -1.6330 C   0  0  0  0  0  0  0  0  0  0  0  0
    0.3310    1.9900    0.0750 C   0  0  0  0  0  0  0  0  0  0  0  0
   -1.0210    2.2150   -0.0880 C   0  0  0  0  0  0  0  0  0  0  0  0
   -1.9010    1.1680    0.0050 C   0  0  0  0  0  0  0  0  0  0  0  0
   -3.2600    1.3430   -0.1510 C   0  0  0  0  0  0  0  0  0  0  0  0
   -3.7610    2.6010   -0.4080 C   0  0  0  0  0  0  0  0  0  0  0  0
   -5.1240    2.7930   -0.5680 C   0  0  0  0  0  0  0  0  0  0  0  0
   -5.9440    1.7400   -0.4680 N   0  0  0  0  0  0  0  0  0  0  0  0
   -5.4620    0.4800   -0.2120 C   0  0  0  0  0  0  0  0  0  0  0  0
   -6.3940   -0.5570   -0.1250 N   0  0  0  0  0  0  0  0  0  0  0  0
   -4.1150    0.2380   -0.0450 C   0  0  0  0  0  0  0  0  0  0  0  0
  1  2  1  0
  2  3  2  0
  2 25  1  0
  3  4  1  0
  3  5  1  0
  5  6  2  0
  5 18  1  0
  6  7  1  0
  7  8  1  0
  7 16  2  0
  8  9  1  0
  9 10  1  0
 10 11  1  0
 11 12  2  0
 11 13  1  0
 13 14  1  0
 13 15  1  0
 16 17  1  0
 17 18  2  0
 18 19  1  0
 19 20  2  0
 19 25  1  0
 20 21  1  0
 21 22  2  0
 22 23  1  0
 23 24  1  0
 23 25  2  0
M  CHG  1  22   1
M  END
