
     RDKit          3D

 25 27  0  0  0  0  0  0  0  0999 V2000
    3.0620   -1.3150    2.2820 C   0  0  0  0  0  0  0  0  0  0  0  0
    3.3040    0.1790    1.9640 C   0  0  0  0  0  0  0  0  0  0  0  0
    3.5900    0.2760    0.5140 C   0  0  0  0  0  0  0  0  0  0  0  0
    4.9110    0.2820    0.1930 N   0  0  0  0  0  0  0  0  0  0  0  0
    5.2980    0.2610   -1.0680 C   0  0  0  0  0  0  0  0  0  0  0  0
    6.7680    0.3670   -1.3800 C   0  0  0  0  0  0  0  0  0  0  0  0
    4.3810    0.2290   -2.0980 C   0  0  0  0  0  0  0  0  0  0  0  0
    3.0390    0.2270   -1.7730 C   0  0  0  0  0  0  0  0  0  0  0  0
    2.5640    0.2500   -0.4500 C   0  0  0  0  0  0  0  0  0  0  0  0
    1.3140    0.4530   -0.0170 N   0  0  0  0  0  0  0  0  0  0  0  0
   -0.0520    0.3430   -0.3220 C   0  0  0  0  0  0  0  0  0  0  0  0
   -0.7260   -0.6940    0.2730 C   0  0  0  0  0  0  0  0  0  0  0  0
    0.0190   -1.8680    0.7100 C   0  0  0  0  0  0  0  0  0  0  0  0
   -2.1340   -0.7340    0.2980 C   0  0  0  0  0  0  0  0  0  0  0  0
   -2.8030   -1.7880    0.9470 C   0  0  0  0  0  0  0  0  0  0  0  0
   -4.1410   -1.8310    1.0220 C   0  0  0  0  0  0  0  0  0  0  0  0
   -4.8640   -0.8320    0.4440 C   0  0  0  0  0  0  0  0  0  0  0  0
   -6.2280   -0.8230    0.5140 O   0  0  0  0  0  0  0  0  0  0  0  0
   -4.2010    0.2280   -0.2210 C   0  0  0  0  0  0  0  0  0  0  0  0
   -5.1040    1.1060   -0.9780 C   0  0  0  0  0  0  0  0  0  0  0  0
   -5.0500    2.5470   -0.6850 N   0  0  0  0  0  0  0  0  0  0  0  0
   -2.8390    0.2860   -0.3010 C   0  0  0  0  0  0  0  0  0  0  0  0
   -2.2000    1.2910   -0.9140 N   0  0  0  0  0  0  0  0  0  0  0  0
   -0.8360    1.3330   -0.9320 C   0  0  0  0  0  0  0  0  0  0  0  0
   -0.2150    2.2830   -1.5140 O   0  0  0  0  0  0  0  0  0  0  0  0
  1  2  1  0
  2  3  1  0
  3  4  2  0
  3  9  1  0
  4  5  1  0
  5  6  1  0
  5  7  2  0
  7  8  1  0
  8  9  2  0
  9 10  1  0
 10 11  1  0
 11 12  2  0
 11 24  1  0
 12 13  1  0
 12 14  1  0
 14 15  2  0
 14 22  1  0
 15 16  1  0
 16 17  2  0
 17 18  1  0
 17 19  1  0
 19 20  1  0
 19 22  2  0
 20 21  1  0
 22 23  1  0
 23 24  1  0
 24 25  2  0
M  CHG  1  21   1
M  END
