
     RDKit          3D

 25 27  0  0  0  0  0  0  0  0999 V2000
    7.8160   -0.4540   -0.6090 C   0  0  0  0  0  0  0  0  0  0  0  0
    7.5620   -0.3950    0.8840 C   0  0  0  0  0  0  0  0  0  0  0  0
    6.2470   -0.8980    1.1410 O   0  0  0  0  0  0  0  0  0  0  0  0
    5.1800   -0.2260    0.5380 C   0  0  0  0  0  0  0  0  0  0  0  0
    3.9190   -0.7420    0.8110 C   0  0  0  0  0  0  0  0  0  0  0  0
    2.8280   -0.1470    0.2630 C   0  0  0  0  0  0  0  0  0  0  0  0
    1.4130   -0.6220    0.4900 C   0  0  1  0  0  0  0  0  0  0  0  0
    0.8710    0.2240    1.5900 C   0  0  0  0  0  0  0  0  0  0  0  0
    0.6750   -0.6560   -0.7200 N   0  0  0  0  0  0  0  0  0  0  0  0
   -0.4270    0.2080   -0.8610 C   0  0  0  0  0  0  0  0  0  0  0  0
   -1.7110   -0.1750   -0.3080 C   0  0  0  0  0  0  0  0  0  0  0  0
   -2.7780    0.7190   -0.4760 C   0  0  0  0  0  0  0  0  0  0  0  0
   -2.5790    1.9330   -1.1570 N   0  0  0  0  0  0  0  0  0  0  0  0
   -4.0320    0.4390    0.0140 C   0  0  0  0  0  0  0  0  0  0  0  0
   -4.2880   -0.7350    0.6910 C   0  0  0  0  0  0  0  0  0  0  0  0
   -3.2640   -1.5900    0.8500 N   0  0  0  0  0  0  0  0  0  0  0  0
   -2.0110   -1.3290    0.3700 C   0  0  0  0  0  0  0  0  0  0  0  0
   -1.1170   -2.1690    0.5580 O   0  0  0  0  0  0  0  0  0  0  0  0
   -5.6300   -1.0680    1.2320 C   0  0  0  0  0  0  0  0  0  0  0  0
   -6.7500   -0.3690    0.5440 C   0  0  0  0  0  0  0  0  0  0  0  0
   -6.3460    0.4750   -0.6190 C   0  0  0  0  0  0  0  0  0  0  0  0
   -5.1870    1.3630   -0.1450 C   0  0  0  0  0  0  0  0  0  0  0  0
    3.0330    0.9570   -0.5470 C   0  0  0  0  0  0  0  0  0  0  0  0
    4.2940    1.4500   -0.8010 C   0  0  0  0  0  0  0  0  0  0  0  0
    5.3600    0.8450   -0.2490 N   0  0  0  0  0  0  0  0  0  0  0  0
  1  2  1  0
  2  3  1  0
  3  4  1  0
  4  5  2  0
  4 25  1  0
  5  6  1  0
  6  7  1  0
  6 23  2  0
  7  8  1  1
  7  9  1  0
  9 10  1  0
 10 11  1  0
 11 12  2  0
 11 17  1  0
 12 13  1  0
 12 14  1  0
 14 15  2  0
 14 22  1  0
 15 16  1  0
 15 19  1  0
 16 17  1  0
 17 18  2  0
 19 20  1  0
 20 21  1  0
 21 22  1  0
 23 24  1  0
 24 25  2  0
M  CHG  1   9   1
M  END
