
     RDKit          3D

 29 31  0  0  0  0  0  0  0  0999 V2000
    1.6080   -1.2490   -0.9260 C   0  0  0  0  0  0  0  0  0  0  0  0
    2.1010    0.0400   -0.3040 C   0  0  2  0  0  0  0  0  0  0  0  0
    1.7690    0.0240    1.1490 C   0  0  0  0  0  0  0  0  0  0  0  0
    1.4570    1.1320   -1.0060 N   0  0  0  0  0  0  0  0  0  0  0  0
    0.0570    1.2940   -1.0540 C   0  0  0  0  0  0  0  0  0  0  0  0
   -0.7930    0.4470   -0.4490 N   0  0  0  0  0  0  0  0  0  0  0  0
   -2.1270    0.5950   -0.4900 C   0  0  0  0  0  0  0  0  0  0  0  0
   -3.0180   -0.3570    0.1860 C   0  0  0  0  0  0  0  0  0  0  0  0
   -2.6400   -1.4660    0.9120 C   0  0  0  0  0  0  0  0  0  0  0  0
   -3.7480   -2.0810    1.3730 N   0  0  0  0  0  0  0  0  0  0  0  0
   -4.8560   -1.4150    0.9750 C   0  0  0  0  0  0  0  0  0  0  0  0
   -6.1810   -1.6250    1.1740 N   0  0  0  0  0  0  0  0  0  0  0  0
   -7.1200   -0.8070    0.6670 C   0  0  0  0  0  0  0  0  0  0  0  0
   -6.6870    0.2720   -0.0740 C   0  0  0  0  0  0  0  0  0  0  0  0
   -7.8970    1.3490   -0.7420 Cl  0  0  0  0  0  0  0  0  0  0  0  0
   -5.3450    0.5140   -0.2940 C   0  0  0  0  0  0  0  0  0  0  0  0
   -4.3940   -0.3430    0.2370 C   0  0  0  0  0  0  0  0  0  0  0  0
   -2.6470    1.6350   -1.1630 N   0  0  0  0  0  0  0  0  0  0  0  0
   -1.8810    2.5370   -1.8010 C   0  0  0  0  0  0  0  0  0  0  0  0
   -0.5050    2.3500   -1.7360 C   0  0  0  0  0  0  0  0  0  0  0  0
    0.2900    3.2310   -2.3600 F   0  0  0  0  0  0  0  0  0  0  0  0
    3.5870    0.1300   -0.4370 C   0  0  0  0  0  0  0  0  0  0  0  0
    4.0890    1.0750   -1.0950 O   0  0  0  0  0  0  0  0  0  0  0  0
    4.4580   -0.8120    0.1520 N   0  0  0  0  0  0  0  0  0  0  0  0
    5.8800   -0.8140    0.0870 C   0  0  0  0  0  0  0  0  0  0  0  0
    6.5750    0.3710    0.6640 C   0  0  1  0  0  0  0  0  0  0  0  0
    7.9530    0.1540    0.4960 F   0  0  0  0  0  0  0  0  0  0  0  0
    6.3290    1.5590    0.0090 F   0  0  0  0  0  0  0  0  0  0  0  0
    6.3820    0.4920    2.0220 F   0  0  0  0  0  0  0  0  0  0  0  0
  2  1  1  6
  2  3  1  0
  2  4  1  0
  2 22  1  0
  4  5  1  0
  5  6  2  0
  5 20  1  0
  6  7  1  0
  7  8  1  0
  7 18  2  0
  8  9  2  0
  8 17  1  0
  9 10  1  0
 10 11  1  0
 11 12  2  0
 11 17  1  0
 12 13  1  0
 13 14  2  0
 14 15  1  0
 14 16  1  0
 16 17  2  0
 18 19  1  0
 19 20  2  0
 20 21  1  0
 22 23  2  0
 22 24  1  0
 24 25  1  0
 25 26  1  0
 26 27  1  1
 26 28  1  0
 26 29  1  0
M  END
