
     RDKit          3D

 31 32  0  0  0  0  0  0  0  0999 V2000
    7.5010   -1.4070    0.6330 C   0  0  0  0  0  0  0  0  0  0  0  0
    7.2890   -0.1050    0.5320 C   0  0  0  0  0  0  0  0  0  0  0  0
    7.4960    0.7050   -0.6770 C   0  0  0  0  0  0  0  0  0  0  0  0
    6.3020    1.4750   -1.1390 C   0  0  0  0  0  0  0  0  0  0  0  0
    5.1110    0.7510   -1.5200 C   0  0  0  0  0  0  0  0  0  0  0  0
    3.9420    0.8810   -0.8280 C   0  0  0  0  0  0  0  0  0  0  0  0
    3.7730    1.7120    0.3080 C   0  0  0  0  0  0  0  0  0  0  0  0
    2.8890    2.0590    1.1380 C   0  0  0  0  0  0  0  0  0  0  0  0
    1.4970    1.7990    1.4110 C   0  0  0  0  0  0  0  0  0  0  0  0
    0.9110    2.4220    2.4660 C   0  0  0  0  0  0  0  0  0  0  0  0
   -0.4580    2.2530    2.8470 C   0  0  0  0  0  0  0  0  0  0  0  0
   -1.3240    1.4510    2.1990 C   0  0  0  0  0  0  0  0  0  0  0  0
   -2.7120    1.3770    2.7100 C   0  0  0  0  0  0  0  0  0  0  0  0
   -3.0550    0.0220    3.2540 C   0  0  0  0  0  0  0  0  0  0  0  0
   -0.8470    0.7300    1.0530 C   0  0  0  0  0  0  0  0  0  0  0  0
   -1.5550    0.0110    0.2360 C   0  0  0  0  0  0  0  0  0  0  0  0
   -2.7930   -0.4950   -0.1390 C   0  0  0  0  0  0  0  0  0  0  0  0
   -2.6630   -1.2270   -1.3100 O   0  0  0  0  0  0  0  0  0  0  0  0
   -4.1930   -0.5740    0.2150 C   0  0  2  0  0  0  0  0  0  0  0  0
   -4.4510   -1.8630    0.9630 C   0  0  0  0  0  0  0  0  0  0  0  0
   -4.8150   -2.8310   -0.1530 C   0  0  1  0  0  0  0  0  0  0  0  0
   -5.8180   -3.8660    0.3040 C   0  0  0  0  0  0  0  0  0  0  0  0
   -5.4220   -1.9220   -1.1490 C   0  0  0  0  0  0  0  0  0  0  0  0
   -5.1000   -0.6860   -0.9700 C   0  0  0  0  0  0  0  0  0  0  0  0
   -5.4970    0.5100   -1.7430 C   0  0  0  0  0  0  0  0  0  0  0  0
   -5.0740    1.7210   -1.4250 C   0  0  0  0  0  0  0  0  0  0  0  0
   -6.4010    0.3880   -2.9230 C   0  0  0  0  0  0  0  0  0  0  0  0
    0.6040    0.9350    0.6850 C   0  0  0  0  0  0  0  0  0  0  0  0
    1.0420    0.3120   -0.3090 O   0  0  0  0  0  0  0  0  0  0  0  0
    5.0220   -0.1240   -2.7300 C   0  0  0  0  0  0  0  0  0  0  0  0
    5.9050   -1.3320   -2.7030 C   0  0  0  0  0  0  0  0  0  0  0  0
  1  2  2  0
  2  3  1  0
  3  4  1  0
  4  5  1  0
  5  6  2  3
  5 30  1  0
  6  7  1  0
  7  8  2  3
  8  9  1  0
  9 10  2  0
  9 28  1  0
 10 11  1  0
 11 12  2  0
 12 13  1  0
 12 15  1  0
 13 14  1  0
 15 16  2  3
 15 28  1  0
 16 17  1  0
 17 18  2  0
 19 17  1  6
 19 20  1  0
 19 24  1  0
 20 21  1  0
 21 22  1  1
 21 23  1  0
 23 24  2  0
 24 25  1  0
 25 26  2  0
 25 27  1  0
 28 29  2  0
 30 31  1  0
M  END
