
     RDKit          3D

 31 34  0  0  0  0  0  0  0  0999 V2000
   -7.2890    3.5440   -0.9260 N   0  0  0  0  0  0  0  0  0  0  0  0
   -6.3080    2.6000   -0.4100 C   0  0  0  0  0  0  0  0  0  0  0  0
   -6.1330    1.5240   -1.4420 C   0  0  0  0  0  0  0  0  0  0  0  0
   -5.1490    0.4710   -1.0540 C   0  0  0  0  0  0  0  0  0  0  0  0
   -3.7830    1.0570   -0.8230 C   0  0  0  0  0  0  0  0  0  0  0  0
   -2.8370    0.0140   -0.4470 N   0  0  0  0  0  0  0  0  0  0  0  0
   -1.4820    0.2890   -0.1710 C   0  0  0  0  0  0  0  0  0  0  0  0
   -1.2030    1.5510   -0.2940 O   0  0  0  0  0  0  0  0  0  0  0  0
   -0.4420   -0.6340    0.2090 C   0  0  0  0  0  0  0  0  0  0  0  0
   -0.5060   -1.9370    0.3840 C   0  0  0  0  0  0  0  0  0  0  0  0
   -1.6440   -2.8560    0.2510 C   0  0  0  0  0  0  0  0  0  0  0  0
   -1.1530   -4.1880    0.6370 C   0  0  0  0  0  0  0  0  0  0  0  0
   -1.8670   -5.4110    0.7130 C   0  0  0  0  0  0  0  0  0  0  0  0
   -1.1490   -6.5110    1.0860 C   0  0  0  0  0  0  0  0  0  0  0  0
    0.1910   -6.5030    1.3850 C   0  0  0  0  0  0  0  0  0  0  0  0
    0.8470   -5.2930    1.2990 C   0  0  0  0  0  0  0  0  0  0  0  0
    0.1610   -4.1370    0.9230 C   0  0  0  0  0  0  0  0  0  0  0  0
    0.6570   -2.7480    0.7870 C   0  0  0  0  0  0  0  0  0  0  0  0
    1.8430   -2.4280    0.9920 N   0  0  0  0  0  0  0  0  0  0  0  0
    2.5930   -1.2680    0.9510 C   0  0  0  0  0  0  0  0  0  0  0  0
    2.7810   -0.4530    2.0760 C   0  0  0  0  0  0  0  0  0  0  0  0
    3.5330    0.6850    2.0390 C   0  0  0  0  0  0  0  0  0  0  0  0
    4.1550    1.1080    0.8960 C   0  0  0  0  0  0  0  0  0  0  0  0
    4.9370    2.1480    0.5500 N   0  0  0  0  0  0  0  0  0  0  0  0
    5.2760    2.0620   -0.7460 C   0  0  0  0  0  0  0  0  0  0  0  0
    6.0230    2.9080   -1.3920 N   0  0  0  0  0  0  0  0  0  0  0  0
    6.5940    4.0790   -0.7620 C   0  0  0  0  0  0  0  0  0  0  0  0
    7.9020    4.3420   -1.3290 N   0  0  0  0  0  0  0  0  0  0  0  0
    4.6960    0.9500   -1.2210 N   0  0  0  0  0  0  0  0  0  0  0  0
    3.9920    0.3310   -0.2300 C   0  0  0  0  0  0  0  0  0  0  0  0
    3.2380   -0.8160   -0.2070 C   0  0  0  0  0  0  0  0  0  0  0  0
  1  2  1  0
  2  3  1  0
  3  4  1  0
  4  5  1  0
  5  6  1  0
  6  7  1  0
  7  8  2  0
  7  9  1  0
  9 10  2  3
 10 11  1  0
 10 18  1  0
 11 12  1  0
 12 13  2  0
 12 17  1  0
 13 14  1  0
 14 15  2  0
 15 16  1  0
 16 17  2  0
 17 18  1  0
 18 19  2  3
 19 20  1  0
 20 21  2  0
 20 31  1  0
 21 22  1  0
 22 23  2  0
 23 24  1  0
 23 30  1  0
 24 25  1  0
 25 26  2  3
 25 29  1  0
 26 27  1  0
 27 28  1  0
 29 30  1  0
 30 31  2  0
M  CHG  2   1   1  28   1
M  END
