
     RDKit          3D

 31 32  0  0  0  0  0  0  0  0999 V2000
   -4.5070    3.6250   -1.5590 C   0  0  0  0  0  0  0  0  0  0  0  0
   -3.9460    3.9090   -0.4110 C   0  0  0  0  0  0  0  0  0  0  0  0
   -3.3070    2.7900    0.3420 C   0  0  0  0  0  0  0  0  0  0  0  0
   -2.7930    3.1500    1.4830 C   0  0  0  0  0  0  0  0  0  0  0  0
   -3.2660    1.4570   -0.2680 C   0  0  0  0  0  0  0  0  0  0  0  0
   -2.5480    0.3530    0.3730 C   0  0  1  0  0  0  0  0  0  0  0  0
   -1.1250    0.4140    0.7320 C   0  0  0  0  0  0  0  0  0  0  0  0
   -0.0980    0.7000   -0.3120 C   0  0  1  0  0  0  0  0  0  0  0  0
   -0.1660    2.0160   -0.9760 C   0  0  0  0  0  0  0  0  0  0  0  0
    1.2820    0.5130    0.2720 C   0  0  0  0  0  0  0  0  0  0  0  0
    1.4120   -0.1100    1.3580 O   0  0  0  0  0  0  0  0  0  0  0  0
    2.3930    1.0060   -0.3550 O   0  0  0  0  0  0  0  0  0  0  0  0
    3.6850    0.8690    0.1150 C   0  0  0  0  0  0  0  0  0  0  0  0
    4.1560    1.6320    1.1730 C   0  0  0  0  0  0  0  0  0  0  0  0
    5.4480    1.4380    1.5780 C   0  0  0  0  0  0  0  0  0  0  0  0
    6.2870    0.5130    0.9690 C   0  0  0  0  0  0  0  0  0  0  0  0
    5.8290   -0.2560   -0.0890 C   0  0  0  0  0  0  0  0  0  0  0  0
    6.6120   -1.1880   -0.7420 C   0  0  0  0  0  0  0  0  0  0  0  0
    8.0110   -1.3800   -0.2870 C   0  0  0  0  0  0  0  0  0  0  0  0
    6.0750   -1.9010   -1.7840 C   0  0  0  0  0  0  0  0  0  0  0  0
    4.7790   -1.7450   -2.2330 C   0  0  0  0  0  0  0  0  0  0  0  0
    4.2530   -2.5360   -3.3750 C   0  0  0  0  0  0  0  0  0  0  0  0
    4.0150   -0.8020   -1.5600 C   0  0  0  0  0  0  0  0  0  0  0  0
    4.5140   -0.0580   -0.5010 C   0  0  0  0  0  0  0  0  0  0  0  0
   -3.3660   -0.5550    1.2690 C   0  0  1  0  0  0  0  0  0  0  0  0
   -4.0890    0.1230    2.3800 C   0  0  0  0  0  0  0  0  0  0  0  0
   -4.1370   -1.5930    0.6310 C   0  0  0  0  0  0  0  0  0  0  0  0
   -4.5500   -2.7320    1.4840 C   0  0  0  0  0  0  0  0  0  0  0  0
   -4.2370   -2.8400    2.7470 C   0  0  0  0  0  0  0  0  0  0  0  0
   -4.4910   -1.6100   -0.6180 C   0  0  0  0  0  0  0  0  0  0  0  0
   -5.3000   -2.7660   -1.1370 C   0  0  0  0  0  0  0  0  0  0  0  0
  1  2  2  0
  2  3  1  0
  3  4  2  0
  3  5  1  0
  6  5  1  1
  6  7  1  0
  6 25  1  0
  7  8  1  0
  8  9  1  1
  8 10  1  0
 10 11  2  0
 10 12  1  0
 12 13  1  0
 13 14  2  0
 13 24  1  0
 14 15  1  0
 15 16  2  0
 16 17  1  0
 17 18  2  0
 17 24  1  0
 18 19  1  0
 18 20  1  0
 20 21  2  0
 21 22  1  0
 21 23  1  0
 23 24  2  0
 25 26  1  6
 25 27  1  0
 27 28  1  0
 27 30  2  3
 28 29  2  0
 30 31  1  0
M  END
