
     RDKit          3D

 19 21  0  0  0  0  0  0  0  0999 V2000
    6.3350    0.7940   -0.7810 O   0  0  0  0  0  0  0  0  0  0  0  0
    5.7690    0.9020    0.5020 C   0  0  0  0  0  0  0  0  0  0  0  0
    4.3330    0.4480    0.4660 C   0  0  0  0  0  0  0  0  0  0  0  0
    3.2270    1.2320    0.2180 C   0  0  0  0  0  0  0  0  0  0  0  0
    2.1280    0.4270    0.2790 C   0  0  0  0  0  0  0  0  0  0  0  0
    0.7640    0.7020    0.1070 C   0  0  0  0  0  0  0  0  0  0  0  0
   -0.1480   -0.3200    0.2260 C   0  0  0  0  0  0  0  0  0  0  0  0
   -1.4840   -0.0390    0.0560 O   0  0  0  0  0  0  0  0  0  0  0  0
   -2.5280   -0.9640    0.1450 C   0  0  0  0  0  0  0  0  0  0  0  0
   -3.8090   -0.2040   -0.1140 C   0  0  0  0  0  0  0  0  0  0  0  0
   -4.6680   -0.4270   -1.0740 C   0  0  0  0  0  0  0  0  0  0  0  0
   -5.7700    0.5520   -0.9460 C   0  0  0  0  0  0  0  0  0  0  0  0
   -5.4210    1.3740    0.2300 C   0  0  0  0  0  0  0  0  0  0  0  0
   -4.2780    0.9030    0.6830 C   0  0  0  0  0  0  0  0  0  0  0  0
   -3.6110    1.3980    1.7740 F   0  0  0  0  0  0  0  0  0  0  0  0
    0.3300   -1.5880    0.5140 C   0  0  0  0  0  0  0  0  0  0  0  0
    1.6480   -1.8770    0.6840 C   0  0  0  0  0  0  0  0  0  0  0  0
    2.5770   -0.8420    0.5640 C   0  0  0  0  0  0  0  0  0  0  0  0
    3.8890   -0.7980    0.6690 N   0  0  0  0  0  0  0  0  0  0  0  0
  1  2  1  0
  2  3  1  0
  3  4  2  0
  3 19  1  0
  4  5  1  0
  5  6  2  0
  5 18  1  0
  6  7  1  0
  7  8  1  0
  7 16  2  0
  8  9  1  0
  9 10  1  0
 10 11  2  0
 10 14  1  0
 11 12  1  0
 12 13  1  0
 13 14  2  0
 14 15  1  0
 16 17  1  0
 17 18  2  0
 18 19  1  0
M  END
