
     RDKit          3D

 19 21  0  0  0  0  0  0  0  0999 V2000
    1.7590    2.7340   -0.0200 O   0  0  0  0  0  0  0  0  0  0  0  0
    1.1280    1.6370   -0.0820 C   0  0  0  0  0  0  0  0  0  0  0  0
   -0.2260    1.6490   -0.0220 N   0  0  0  0  0  0  0  0  0  0  0  0
   -0.9200    0.5000   -0.0840 C   0  0  0  0  0  0  0  0  0  0  0  0
   -2.3850    0.4780   -0.0230 C   0  0  0  0  0  0  0  0  0  0  0  0
   -3.0640    1.6820    0.1030 C   0  0  0  0  0  0  0  0  0  0  0  0
   -4.4530    1.6630    0.1620 C   0  0  0  0  0  0  0  0  0  0  0  0
   -5.1560    0.4960    0.0980 C   0  0  0  0  0  0  0  0  0  0  0  0
   -6.5120    0.4900    0.1560 F   0  0  0  0  0  0  0  0  0  0  0  0
   -4.5140   -0.6920   -0.0250 C   0  0  0  0  0  0  0  0  0  0  0  0
   -3.1180   -0.6840   -0.0850 C   0  0  0  0  0  0  0  0  0  0  0  0
   -0.2640   -0.7280   -0.2120 C   0  0  0  0  0  0  0  0  0  0  0  0
    1.1180   -0.7670   -0.2750 C   0  0  0  0  0  0  0  0  0  0  0  0
    1.7900    0.4330   -0.2070 C   0  0  0  0  0  0  0  0  0  0  0  0
    3.2810    0.3650   -0.2770 C   0  0  1  0  0  0  0  0  0  0  0  0
    3.8750    1.5800   -0.0720 O   0  0  0  0  0  0  0  0  0  0  0  0
    3.7290   -0.6740    0.7230 C   0  0  0  0  0  0  0  0  0  0  0  0
    2.9960   -1.9640    0.6430 C   0  0  0  0  0  0  0  0  0  0  0  0
    1.9100   -2.0160   -0.4090 C   0  0  0  0  0  0  0  0  0  0  0  0
  1  2  2  0
  2  3  1  0
  2 14  1  0
  3  4  1  0
  4  5  1  0
  4 12  2  0
  5  6  2  0
  5 11  1  0
  6  7  1  0
  7  8  2  0
  8  9  1  0
  8 10  1  0
 10 11  2  0
 12 13  1  0
 13 14  2  0
 13 19  1  0
 14 15  1  0
 15 16  1  1
 15 17  1  0
 17 18  1  0
 18 19  1  0
M  END
