
     RDKit          3D

 19 21  0  0  0  0  0  0  0  0999 V2000
    3.8520   -2.5190    0.8460 O   0  0  0  0  0  0  0  0  0  0  0  0
    3.6790   -1.1800    0.5300 C   0  0  0  0  0  0  0  0  0  0  0  0
    4.7820   -0.3690    0.6400 C   0  0  0  0  0  0  0  0  0  0  0  0
    4.7270    0.9760    0.3530 C   0  0  0  0  0  0  0  0  0  0  0  0
    3.5310    1.5120   -0.0560 C   0  0  0  0  0  0  0  0  0  0  0  0
    3.4010    2.8270   -0.3560 F   0  0  0  0  0  0  0  0  0  0  0  0
    2.3940    0.7030   -0.1750 C   0  0  0  0  0  0  0  0  0  0  0  0
    2.4860   -0.6280    0.1200 C   0  0  0  0  0  0  0  0  0  0  0  0
    1.3770   -1.4770   -0.0270 N   0  0  0  0  0  0  0  0  0  0  0  0
    0.0770   -0.9740   -0.2240 C   0  0  0  0  0  0  0  0  0  0  0  0
   -0.7610   -1.6060   -1.1520 C   0  0  0  0  0  0  0  0  0  0  0  0
   -2.0510   -1.2080   -1.3740 C   0  0  0  0  0  0  0  0  0  0  0  0
   -2.5570   -0.1550   -0.6720 C   0  0  0  0  0  0  0  0  0  0  0  0
   -1.7470    0.4850    0.2510 C   0  0  0  0  0  0  0  0  0  0  0  0
   -0.4460    0.0810    0.4730 C   0  0  0  0  0  0  0  0  0  0  0  0
   -2.3690    1.6250    0.9770 C   0  0  0  0  0  0  0  0  0  0  0  0
   -3.6050    1.2520    1.4130 O   0  0  0  0  0  0  0  0  0  0  0  0
   -4.4890    0.8250    0.4830 C   0  0  0  0  0  0  0  0  0  0  0  0
   -3.9330    0.3750   -0.8180 C   0  0  0  0  0  0  0  0  0  0  0  0
  1  2  1  0
  2  3  2  0
  2  8  1  0
  3  4  1  0
  4  5  2  0
  5  6  1  0
  5  7  1  0
  7  8  2  0
  8  9  1  0
  9 10  1  0
 10 11  2  0
 10 15  1  0
 11 12  1  0
 12 13  2  0
 13 14  1  0
 13 19  1  0
 14 15  2  0
 14 16  1  0
 16 17  1  0
 17 18  1  0
 18 19  1  0
M  END
