
     RDKit          3D

 19 20  0  0  0  0  0  0  0  0999 V2000
   -3.8210    2.3040   -0.1650 C   0  0  0  0  0  0  0  0  0  0  0  0
   -2.7410    1.2930   -0.1250 C   0  0  0  0  0  0  0  0  0  0  0  0
   -3.0350   -0.0220   -0.2280 C   0  0  0  0  0  0  0  0  0  0  0  0
   -2.1000   -1.0770   -0.2040 C   0  0  0  0  0  0  0  0  0  0  0  0
   -2.4300   -2.4790   -0.3320 C   0  0  0  0  0  0  0  0  0  0  0  0
   -0.8000   -0.6400   -0.0580 C   0  0  0  0  0  0  0  0  0  0  0  0
   -0.4640    0.7230    0.0510 C   0  0  0  0  0  0  0  0  0  0  0  0
   -1.4470    1.6830    0.0160 C   0  0  0  0  0  0  0  0  0  0  0  0
    0.7650    1.4310    0.1870 N   0  0  0  0  0  0  0  0  0  0  0  0
    2.1430    1.0670   -0.0750 C   0  0  0  0  0  0  0  0  0  0  0  0
    2.8800    2.0950   -0.4290 C   0  0  0  0  0  0  0  0  0  0  0  0
    2.3340    3.3340   -0.5140 F   0  0  0  0  0  0  0  0  0  0  0  0
    2.8750   -0.1760   -0.0290 C   0  0  0  0  0  0  0  0  0  0  0  0
    4.0860   -0.0750    0.4280 C   0  0  0  0  0  0  0  0  0  0  0  0
    4.9130   -1.1910    0.5280 O   0  0  0  0  0  0  0  0  0  0  0  0
    2.5310   -1.5560   -0.3760 C   0  0  0  0  0  0  0  0  0  0  0  0
    1.3550   -2.2060   -0.3680 C   0  0  0  0  0  0  0  0  0  0  0  0
   -0.0180   -1.8620   -0.0340 C   0  0  0  0  0  0  0  0  0  0  0  0
   -0.6680   -2.8320    0.3630 O   0  0  0  0  0  0  0  0  0  0  0  0
  1  2  1  0
  2  3  2  0
  2  8  1  0
  3  4  1  0
  4  5  1  0
  4  6  2  0
  6  7  1  0
  6 18  1  0
  7  8  2  0
  7  9  1  0
  9 10  1  0
 10 11  2  3
 10 13  1  0
 11 12  1  0
 13 14  2  3
 13 16  1  0
 14 15  1  0
 16 17  2  0
 17 18  1  0
 18 19  2  0
M  END
