
     RDKit          3D

 10 10  0  0  0  0  0  0  0  0999 V2000
   -1.7290   -1.4740   -0.2020 C   0  0  0  0  0  0  0  0  0  0  0  0
   -0.3560   -0.9010   -0.1150 C   0  0  0  0  0  0  0  0  0  0  0  0
    1.0830   -1.8030   -0.2200 S   0  0  0  0  0  0  0  0  0  0  0  0
    2.4810   -0.8490   -0.0840 C   0  0  0  0  0  0  0  0  0  0  0  0
    3.6690   -1.2750   -0.1290 O   0  0  0  0  0  0  0  0  0  0  0  0
    2.2740    0.4680    0.0860 N   0  0  0  0  0  0  0  0  0  0  0  0
    1.0680    1.0500    0.1510 C   0  0  0  0  0  0  0  0  0  0  0  0
    1.0580    2.3250    0.3170 O   0  0  0  0  0  0  0  0  0  0  0  0
   -0.1450    0.4500    0.0620 C   0  0  0  0  0  0  0  0  0  0  0  0
   -1.3990    1.2790    0.1590 C   0  0  0  0  0  0  0  0  0  0  0  0
  1  2  1  0
  2  3  1  0
  2  9  2  0
  3  4  1  0
  4  5  2  0
  4  6  1  0
  6  7  1  0
  7  8  2  0
  7  9  1  0
  9 10  1  0
M  END
