
     RDKit          3D

 10 10  0  0  0  0  0  0  0  0999 V2000
   -0.7890    2.7670   -0.0590 O   0  0  0  0  0  0  0  0  0  0  0  0
   -0.4790    1.5510    0.0270 C   0  0  0  0  0  0  0  0  0  0  0  0
    0.8470    1.2030   -0.0740 C   0  0  0  0  0  0  0  0  0  0  0  0
    1.4240   -0.0650   -0.1520 C   0  0  0  0  0  0  0  0  0  0  0  0
    2.7940   -0.1650    0.0590 O   0  0  0  0  0  0  0  0  0  0  0  0
    0.7100   -1.2150   -0.4250 C   0  0  0  0  0  0  0  0  0  0  0  0
   -0.6510   -1.4440   -0.2790 C   0  0  0  0  0  0  0  0  0  0  0  0
   -1.6700   -0.5880    0.1000 C   0  0  0  0  0  0  0  0  0  0  0  0
   -3.1330   -1.2320    0.4410 S   0  0  0  0  0  0  0  0  0  0  0  0
   -1.5620    0.7490    0.2160 N   0  0  0  0  0  0  0  0  0  0  0  0
  1  2  2  0
  2  3  1  0
  2 10  1  0
  3  4  2  0
  4  5  1  0
  4  6  1  0
  6  7  2  0
  7  8  1  0
  8  9  2  0
  8 10  1  0
M  END
