
     RDKit          3D

 10 10  0  0  0  0  0  0  0  0999 V2000
    4.0240    0.1390    0.2110 O   0  0  0  0  0  0  0  0  0  0  0  0
    2.8110    0.1900   -0.4260 C   0  0  0  0  0  0  0  0  0  0  0  0
    1.6720    0.0900    0.5240 C   0  0  0  0  0  0  0  0  0  0  0  0
    0.3450    0.1500   -0.2070 C   0  0  0  0  0  0  0  0  0  0  0  0
    0.2980    0.2790   -1.5590 C   0  0  0  0  0  0  0  0  0  0  0  0
   -1.5450    0.2890   -1.8130 S   0  0  0  0  0  0  0  0  0  0  0  0
   -1.8700    0.1100    0.0280 C   0  0  0  0  0  0  0  0  0  0  0  0
   -3.2790    0.0530    0.5130 C   0  0  0  0  0  0  0  0  0  0  0  0
   -3.7350    1.3190    0.8570 O   0  0  0  0  0  0  0  0  0  0  0  0
   -0.8040    0.0810    0.4230 N   0  0  0  0  0  0  0  0  0  0  0  0
  1  2  1  0
  2  3  1  0
  3  4  1  0
  4  5  2  0
  4 10  1  0
  5  6  1  0
  6  7  1  0
  7  8  1  0
  7 10  2  0
  8  9  1  0
M  END
