
     RDKit          3D

 11 11  0  0  0  0  0  0  0  0999 V2000
   -2.5150    2.2960   -0.1150 O   0  0  0  0  0  0  0  0  0  0  0  0
   -3.0670    1.2330    0.2130 C   0  0  0  0  0  0  0  0  0  0  0  0
   -2.3190    0.0510    0.3080 N   0  0  0  0  0  0  0  0  0  0  0  0
   -0.9330   -0.1110    0.0700 C   0  0  0  0  0  0  0  0  0  0  0  0
   -0.4120   -1.4070    0.1610 C   0  0  0  0  0  0  0  0  0  0  0  0
    0.9150   -1.7040   -0.0430 C   0  0  0  0  0  0  0  0  0  0  0  0
    1.8000   -0.6850   -0.3560 C   0  0  0  0  0  0  0  0  0  0  0  0
    3.1410   -0.8940   -0.5760 O   0  0  0  0  0  0  0  0  0  0  0  0
    1.3040    0.5970   -0.4500 C   0  0  0  0  0  0  0  0  0  0  0  0
    2.4220    1.9310   -0.8520 S   0  0  0  0  0  0  0  0  0  0  0  0
   -0.0560    0.8830   -0.2380 C   0  0  0  0  0  0  0  0  0  0  0  0
  1  2  2  0
  2  3  1  0
  3  4  1  0
  4  5  2  0
  4 11  1  0
  5  6  1  0
  6  7  2  0
  7  8  1  0
  7  9  1  0
  9 10  1  0
  9 11  2  0
M  END
