
     RDKit          3D

  6  5  0  0  0  0  0  0  0  0999 V2000
    1.4850    0.6250   -0.1520 N   0  0  0  0  0  0  0  0  0  0  0  0
    0.5520    0.2140    0.8000 N   0  0  0  0  0  0  0  0  0  0  0  0
   -1.0550    0.2130    0.1730 S   0  0  2  0  0  0  0  0  0  0  0  0
   -1.2520    1.3330   -0.8090 O   0  0  0  0  0  0  0  0  0  0  0  0
   -1.9760    0.4720    1.3380 O   0  0  0  0  0  0  0  0  0  0  0  0
   -1.4830   -1.2300   -0.5120 O   0  0  0  0  0  0  0  0  0  0  0  0
  1  2  1  0
  2  3  1  0
  3  4  2  0
  3  5  2  0
  3  6  1  6
M  END
