
     RDKit          3D

 11 11  0  0  0  0  0  0  0  0999 V2000
   -3.8260   -0.1270    0.7050 C   0  0  0  0  0  0  0  0  0  0  0  0
   -2.5150    0.2090    0.0580 C   0  0  0  0  0  0  0  0  0  0  0  0
   -2.2440    1.3750   -0.6550 C   0  0  0  0  0  0  0  0  0  0  0  0
   -0.9320    1.2550   -1.0610 C   0  0  0  0  0  0  0  0  0  0  0  0
   -0.4610    0.0420   -0.5900 C   0  0  0  0  0  0  0  0  0  0  0  0
    0.9090   -0.5390   -0.7740 C   0  0  0  0  0  0  0  0  0  0  0  0
    1.9600   -0.0040    0.5990 S   0  0  0  0  0  0  0  0  0  0  0  0
    3.5940   -0.6940    0.3850 C   0  0  0  0  0  0  0  0  0  0  0  0
    4.6370   -0.4420    1.3160 N   0  0  0  0  0  0  0  0  0  0  0  0
    3.8660   -1.4260   -0.6020 O   0  0  0  0  0  0  0  0  0  0  0  0
   -1.4390   -0.5170    0.0560 O   0  0  0  0  0  0  0  0  0  0  0  0
  1  2  1  0
  2  3  2  0
  2 11  1  0
  3  4  1  0
  4  5  2  0
  5  6  1  0
  5 11  1  0
  6  7  1  0
  7  8  1  0
  8  9  1  0
  8 10  2  0
M  END
