
     RDKit          3D

 11 10  0  0  0  0  0  0  0  0999 V2000
   -1.8360   -1.6820    0.2190 C   0  0  0  0  0  0  0  0  0  0  0  0
   -1.4350   -0.2650   -0.1050 C   0  0  1  0  0  0  0  0  0  0  0  0
   -2.2230    0.2090   -1.3120 C   0  0  0  0  0  0  0  0  0  0  0  0
   -1.7920    0.6790    1.0500 C   0  0  0  0  0  0  0  0  0  0  0  0
    0.0300   -0.2330   -0.3610 C   0  0  0  0  0  0  0  0  0  0  0  0
    0.6820   -1.2540   -0.2870 O   0  0  0  0  0  0  0  0  0  0  0  0
    0.7450    1.0200   -0.7100 C   0  0  0  0  0  0  0  0  0  0  0  0
    2.4870    0.6730   -0.9450 S   0  0  0  0  0  0  0  0  0  0  0  0
    3.2820    0.1670    0.5600 C   0  0  0  0  0  0  0  0  0  0  0  0
    4.6590   -0.1500    0.5700 N   0  0  0  0  0  0  0  0  0  0  0  0
    2.6270    0.0920    1.6090 O   0  0  0  0  0  0  0  0  0  0  0  0
  2  1  1  1
  2  3  1  0
  2  4  1  0
  2  5  1  0
  5  6  2  0
  5  7  1  0
  7  8  1  0
  8  9  1  0
  9 10  1  0
  9 11  2  0
M  END
