
     RDKit          3D

 11 11  0  0  0  0  0  0  0  0999 V2000
   -2.4740   -1.0440   -1.0330 C   0  0  0  0  0  0  0  0  0  0  0  0
   -1.7830   -0.1050   -0.1300 C   0  0  0  0  0  0  0  0  0  0  0  0
   -2.3560    0.9740    0.4230 N   0  0  0  0  0  0  0  0  0  0  0  0
   -1.4250    1.6000    1.1820 C   0  0  0  0  0  0  0  0  0  0  0  0
   -0.2370    0.8730    1.0880 C   0  0  0  0  0  0  0  0  0  0  0  0
   -0.4790   -0.1880    0.2640 C   0  0  0  0  0  0  0  0  0  0  0  0
    0.6640   -1.4560   -0.2020 S   0  0  0  0  0  0  0  0  0  0  0  0
    2.2890   -1.2190    0.5010 C   0  0  0  0  0  0  0  0  0  0  0  0
    3.0520   -0.1190   -0.1380 C   0  0  0  0  0  0  0  0  0  0  0  0
    3.9560   -0.3700   -1.0160 O   0  0  0  0  0  0  0  0  0  0  0  0
    2.8860    1.2360    0.1180 O   0  0  0  0  0  0  0  0  0  0  0  0
  1  2  1  0
  2  3  1  0
  2  6  2  0
  3  4  1  0
  4  5  2  0
  5  6  1  0
  6  7  1  0
  7  8  1  0
  8  9  1  0
  9 10  2  0
  9 11  1  0
M  END
