
     RDKit          3D

 11 11  0  0  0  0  0  0  0  0999 V2000
    3.0880    0.1620   -0.5610 C   0  0  0  0  0  0  0  0  0  0  0  0
    1.8010    0.7330   -0.2920 O   0  0  0  0  0  0  0  0  0  0  0  0
    0.7040   -0.1010   -0.1350 C   0  0  0  0  0  0  0  0  0  0  0  0
    0.8290   -1.4780   -0.2330 C   0  0  0  0  0  0  0  0  0  0  0  0
   -0.2750   -2.2290   -0.0700 N   0  0  0  0  0  0  0  0  0  0  0  0
   -1.4790   -1.6810    0.1820 C   0  0  0  0  0  0  0  0  0  0  0  0
   -2.7540   -2.6850    0.3630 S   0  0  0  0  0  0  0  0  0  0  0  0
   -1.6410   -0.3180    0.2870 C   0  0  0  0  0  0  0  0  0  0  0  0
   -0.5190    0.4720    0.1220 C   0  0  0  0  0  0  0  0  0  0  0  0
   -0.5880    1.8540    0.2100 O   0  0  0  0  0  0  0  0  0  0  0  0
   -1.8400    2.4540    0.4740 C   0  0  0  0  0  0  0  0  0  0  0  0
  1  2  1  0
  2  3  1  0
  3  4  2  0
  3  9  1  0
  4  5  1  0
  5  6  1  0
  6  7  2  0
  6  8  1  0
  8  9  2  0
  9 10  1  0
 10 11  1  0
M  END
