
     RDKit          3D

 13 13  0  0  0  0  0  0  0  0999 V2000
   -2.5400   -1.6010    0.7170 C   0  0  0  0  0  0  0  0  0  0  0  0
   -2.6340   -0.1940    1.2680 C   0  0  0  0  0  0  0  0  0  0  0  0
   -1.8510    0.6440    0.5020 O   0  0  0  0  0  0  0  0  0  0  0  0
   -0.5190    0.6430    0.2520 C   0  0  0  0  0  0  0  0  0  0  0  0
    0.2740   -0.3240    0.8240 C   0  0  0  0  0  0  0  0  0  0  0  0
    1.6520   -0.3980    0.6200 C   0  0  0  0  0  0  0  0  0  0  0  0
    2.4100   -1.4030    1.2270 O   0  0  0  0  0  0  0  0  0  0  0  0
    2.6430   -2.9110    0.3920 S   0  0  0  0  0  0  0  0  0  0  0  0
    2.2140    0.5570   -0.1980 C   0  0  0  0  0  0  0  0  0  0  0  0
    3.6020    0.5290   -0.4380 O   0  0  0  0  0  0  0  0  0  0  0  0
    1.4290    1.5310   -0.7780 C   0  0  0  0  0  0  0  0  0  0  0  0
    0.0660    1.5980   -0.5720 C   0  0  0  0  0  0  0  0  0  0  0  0
   -0.7270    2.6030   -1.1720 N   0  0  0  0  0  0  0  0  0  0  0  0
  1  2  1  0
  2  3  1  0
  3  4  1  0
  4  5  2  0
  4 12  1  0
  5  6  1  0
  6  7  1  0
  6  9  2  0
  7  8  1  0
  9 10  1  0
  9 11  1  0
 11 12  2  0
 12 13  1  0
M  END
