
     RDKit          3D

 13 13  0  0  0  0  0  0  0  0999 V2000
   -4.6670    1.0220   -0.2620 C   0  0  0  0  0  0  0  0  0  0  0  0
   -3.2960    0.4890   -0.1200 C   0  0  0  0  0  0  0  0  0  0  0  0
   -2.7660   -0.7570   -0.1230 C   0  0  0  0  0  0  0  0  0  0  0  0
   -1.4390   -0.9160    0.0350 C   0  0  0  0  0  0  0  0  0  0  0  0
   -0.8310   -2.2110    0.0390 O   0  0  0  0  0  0  0  0  0  0  0  0
   -0.6720    0.1690    0.1910 C   0  0  0  0  0  0  0  0  0  0  0  0
    0.7580    0.3950    0.3840 C   0  0  0  0  0  0  0  0  0  0  0  0
    1.1530    1.5790    0.4990 O   0  0  0  0  0  0  0  0  0  0  0  0
    1.7300   -0.6250    0.4490 N   0  0  0  0  0  0  0  0  0  0  0  0
    3.1420   -0.4670    0.6280 C   0  0  0  0  0  0  0  0  0  0  0  0
    3.8730    0.2810   -0.4230 C   0  0  0  0  0  0  0  0  0  0  0  0
    3.4410    1.5630   -0.5810 O   0  0  0  0  0  0  0  0  0  0  0  0
   -1.8530    1.5510    0.1200 S   0  0  0  0  0  0  0  0  0  0  0  0
  1  2  1  0
  2  3  2  0
  2 13  1  0
  3  4  1  0
  4  5  1  0
  4  6  2  0
  6  7  1  0
  6 13  1  0
  7  8  2  0
  7  9  1  0
  9 10  1  0
 10 11  1  0
 11 12  1  0
M  END
