
     RDKit          3D

 13 13  0  0  0  0  0  0  0  0999 V2000
    2.0550    1.1850    0.6640 O   0  0  0  0  0  0  0  0  0  0  0  0
    2.0920    0.0080    0.2590 C   0  0  0  0  0  0  0  0  0  0  0  0
    3.4210   -0.6720    0.2190 C   0  0  0  0  0  0  0  0  0  0  0  0
    4.4480    0.1430    0.6560 O   0  0  0  0  0  0  0  0  0  0  0  0
    0.9680   -0.7310   -0.1650 N   0  0  0  0  0  0  0  0  0  0  0  0
   -0.3280   -0.2370   -0.1850 C   0  0  0  0  0  0  0  0  0  0  0  0
   -0.7290    1.0140    0.1920 C   0  0  0  0  0  0  0  0  0  0  0  0
   -2.0570    1.4490    0.1470 C   0  0  0  0  0  0  0  0  0  0  0  0
   -2.4310    3.1240    0.6760 S   0  0  0  0  0  0  0  0  0  0  0  0
   -3.0400    0.5960   -0.2960 C   0  0  0  0  0  0  0  0  0  0  0  0
   -2.6700   -0.6830   -0.6880 C   0  0  0  0  0  0  0  0  0  0  0  0
   -1.3550   -1.0770   -0.6300 C   0  0  0  0  0  0  0  0  0  0  0  0
   -1.0410   -2.3620   -1.0320 O   0  0  0  0  0  0  0  0  0  0  0  0
  1  2  2  0
  2  3  1  0
  2  5  1  0
  3  4  1  0
  5  6  1  0
  6  7  2  0
  6 12  1  0
  7  8  1  0
  8  9  1  0
  8 10  2  0
 10 11  1  0
 11 12  2  0
 12 13  1  0
M  END
