
     RDKit          3D

 13 13  0  0  0  0  0  0  0  0999 V2000
   -1.5670    0.6070   -1.4820 N   0  0  0  0  0  0  0  0  0  0  0  0
   -2.4880   -0.1600   -0.7260 C   0  0  0  0  0  0  0  0  0  0  0  0
   -3.6840    0.2280   -0.7030 O   0  0  0  0  0  0  0  0  0  0  0  0
   -2.1260   -1.3630    0.0180 C   0  0  0  0  0  0  0  0  0  0  0  0
   -0.7470   -1.5750   -0.0710 O   0  0  0  0  0  0  0  0  0  0  0  0
    0.2280   -0.7430    0.3950 C   0  0  0  0  0  0  0  0  0  0  0  0
   -0.0910    0.4290    1.0470 C   0  0  0  0  0  0  0  0  0  0  0  0
    0.8900    1.2770    1.5190 C   0  0  0  0  0  0  0  0  0  0  0  0
    0.4640    2.7860    2.3590 S   0  0  0  0  0  0  0  0  0  0  0  0
    2.2000    0.9170    1.3180 C   0  0  0  0  0  0  0  0  0  0  0  0
    2.5220   -0.2550    0.6660 C   0  0  0  0  0  0  0  0  0  0  0  0
    1.5600   -1.1100    0.1900 C   0  0  0  0  0  0  0  0  0  0  0  0
    1.8290   -2.2820   -0.4620 O   0  0  0  0  0  0  0  0  0  0  0  0
  1  2  1  0
  2  3  2  0
  2  4  1  0
  4  5  1  0
  5  6  1  0
  6  7  2  0
  6 12  1  0
  7  8  1  0
  8  9  1  0
  8 10  2  0
 10 11  1  0
 11 12  2  0
 12 13  1  0
M  END
