
     RDKit          3D

 13 13  0  0  0  0  0  0  0  0999 V2000
   -4.5690   -0.0840    0.4510 N   0  0  0  0  0  0  0  0  0  0  0  0
   -3.2100    0.2480    0.2040 C   0  0  0  0  0  0  0  0  0  0  0  0
   -2.7670    0.1180   -0.9650 O   0  0  0  0  0  0  0  0  0  0  0  0
   -2.4090    0.7250    1.3500 C   0  0  0  0  0  0  0  0  0  0  0  0
   -1.1080    0.9890    0.8990 O   0  0  0  0  0  0  0  0  0  0  0  0
   -0.3450   -0.0120    0.3480 C   0  0  0  0  0  0  0  0  0  0  0  0
   -0.8230   -1.1610    0.2550 O   0  0  0  0  0  0  0  0  0  0  0  0
    1.0030    0.2820   -0.1150 C   0  0  0  0  0  0  0  0  0  0  0  0
    1.8500   -0.5780   -0.6640 C   0  0  0  0  0  0  0  0  0  0  0  0
    1.4230   -2.3180   -0.9230 S   0  0  0  0  0  0  0  0  0  0  0  0
    3.0880    0.1080   -0.9900 C   0  0  0  0  0  0  0  0  0  0  0  0
    3.1150    1.3090   -0.1000 C   0  0  0  0  0  0  0  0  0  0  0  0
    1.6310    1.6510   -0.0230 C   0  0  0  0  0  0  0  0  0  0  0  0
  1  2  1  0
  2  3  2  0
  2  4  1  0
  4  5  1  0
  5  6  1  0
  6  7  2  0
  6  8  1  0
  8  9  2  0
  8 13  1  0
  9 10  1  0
  9 11  1  0
 11 12  1  0
 12 13  1  0
M  END
