
     RDKit          3D

 20 20  0  0  0  0  0  0  0  0999 V2000
    4.7940    0.7120    0.5120 O   0  0  0  0  0  0  0  0  0  0  0  0
    4.6060   -0.5040    0.2920 C   0  0  0  0  0  0  0  0  0  0  0  0
    3.4620   -0.9390   -0.4120 N   0  0  0  0  0  0  0  0  0  0  0  0
    2.4180   -0.0990   -0.9320 C   0  0  0  0  0  0  0  0  0  0  0  0
    1.6770    0.6700    0.0990 C   0  0  1  0  0  0  0  0  0  0  0  0
    2.4190    1.5390    0.8460 O   0  0  0  0  0  0  0  0  0  0  0  0
    0.6020    1.4870   -0.6180 C   0  0  0  0  0  0  0  0  0  0  0  0
   -0.3680    0.6000   -1.3590 C   0  0  0  0  0  0  0  0  0  0  0  0
   -0.9460   -0.4920   -0.5250 C   0  0  2  0  0  0  0  0  0  0  0  0
   -1.5400   -1.4320   -1.3800 O   0  0  0  0  0  0  0  0  0  0  0  0
   -2.0590    0.0320    0.3650 C   0  0  0  0  0  0  0  0  0  0  0  0
   -3.0000    0.6030   -0.4780 O   0  0  0  0  0  0  0  0  0  0  0  0
   -4.0840    1.1380    0.1670 C   0  0  0  0  0  0  0  0  0  0  0  0
   -4.8360    0.1150    0.9620 C   0  0  0  0  0  0  0  0  0  0  0  0
   -5.9290    0.7130    1.5950 O   0  0  0  0  0  0  0  0  0  0  0  0
    0.0570   -1.2230    0.3190 C   0  0  2  0  0  0  0  0  0  0  0  0
   -0.6500   -1.9550    1.2720 O   0  0  0  0  0  0  0  0  0  0  0  0
    0.9360   -0.2470    1.0590 C   0  0  0  0  0  0  0  0  0  0  0  0
    5.5610   -1.4290    0.7610 O   0  0  0  0  0  0  0  0  0  0  0  0
    6.6340   -0.9470    1.4280 O   0  0  0  0  0  0  0  0  0  0  0  0
  1  2  2  0
  2  3  1  0
  2 19  1  0
  3  4  1  0
  4  5  1  0
  5  6  1  1
  5  7  1  0
  5 18  1  0
  7  8  1  0
  8  9  1  0
  9 10  1  6
  9 11  1  0
  9 16  1  0
 11 12  1  0
 12 13  1  0
 13 14  1  0
 14 15  1  0
 16 17  1  1
 16 18  1  0
 19 20  1  0
M  END
