
     RDKit          3D

 20 20  0  0  0  0  0  0  0  0999 V2000
    1.3610    3.8950    0.4250 C   0  0  0  0  0  0  0  0  0  0  0  0
    1.1580    2.5810   -0.0550 O   0  0  0  0  0  0  0  0  0  0  0  0
    0.3330    1.7090    0.6270 C   0  0  0  0  0  0  0  0  0  0  0  0
   -0.1970    2.1660    1.6690 O   0  0  0  0  0  0  0  0  0  0  0  0
    0.0370    0.3390    0.2470 C   0  0  2  0  0  0  0  0  0  0  0  0
    1.1720   -0.5650    0.1190 C   0  0  0  0  0  0  0  0  0  0  0  0
    1.2040   -1.6100    0.8140 O   0  0  0  0  0  0  0  0  0  0  0  0
    2.2790   -0.3640   -0.7500 N   0  0  0  0  0  0  0  0  0  0  0  0
    3.3640   -1.2930   -0.8280 C   0  0  0  0  0  0  0  0  0  0  0  0
    4.1040   -1.5070    0.4520 C   0  0  0  0  0  0  0  0  0  0  0  0
    5.1250   -2.4430    0.1790 O   0  0  0  0  0  0  0  0  0  0  0  0
   -0.7020    0.4170   -1.1040 C   0  0  0  0  0  0  0  0  0  0  0  0
   -2.1430    0.8300   -0.8850 C   0  0  0  0  0  0  0  0  0  0  0  0
   -2.8630   -0.0950    0.0460 C   0  0  1  0  0  0  0  0  0  0  0  0
   -3.4780    0.5640    1.1070 O   0  0  0  0  0  0  0  0  0  0  0  0
   -3.8830   -0.9210   -0.7160 C   0  0  0  0  0  0  0  0  0  0  0  0
   -4.4830   -1.8730    0.0710 O   0  0  0  0  0  0  0  0  0  0  0  0
   -1.8000   -1.0120    0.6640 C   0  0  2  0  0  0  0  0  0  0  0  0
   -2.3530   -1.7630    1.7050 O   0  0  0  0  0  0  0  0  0  0  0  0
   -0.8310   -0.2010    1.1910 O   0  0  0  0  0  0  0  0  0  0  0  0
  1  2  1  0
  2  3  1  0
  3  4  2  0
  5  3  1  1
  5  6  1  0
  5 12  1  0
  5 20  1  0
  6  7  2  0
  6  8  1  0
  8  9  1  0
  9 10  1  0
 10 11  1  0
 12 13  1  0
 13 14  1  0
 14 15  1  1
 14 16  1  0
 14 18  1  0
 16 17  1  0
 18 19  1  1
 18 20  1  0
M  END
