
     RDKit          3D

 23 24  0  0  0  0  0  0  0  0999 V2000
    7.8530   -0.4800    0.5390 C   0  0  0  0  0  0  0  0  0  0  0  0
    6.6230   -0.9280    0.7000 C   0  0  0  0  0  0  0  0  0  0  0  0
    5.8730   -1.5150   -0.4260 C   0  0  0  0  0  0  0  0  0  0  0  0
    4.6830   -0.8350   -0.7280 O   0  0  0  0  0  0  0  0  0  0  0  0
    3.6730   -0.7060    0.2090 C   0  0  0  0  0  0  0  0  0  0  0  0
    3.8520   -1.2170    1.3430 O   0  0  0  0  0  0  0  0  0  0  0  0
    2.4230   -0.0000   -0.0840 C   0  0  0  0  0  0  0  0  0  0  0  0
    1.3580    0.1870    0.7700 C   0  0  0  0  0  0  0  0  0  0  0  0
    0.3650    0.9000    0.1300 C   0  0  0  0  0  0  0  0  0  0  0  0
   -0.9260    1.3060    0.6870 C   0  0  0  0  0  0  0  0  0  0  0  0
   -1.1960    0.9910    1.8720 O   0  0  0  0  0  0  0  0  0  0  0  0
   -1.8570    2.0170   -0.0250 O   0  0  0  0  0  0  0  0  0  0  0  0
   -3.1020    2.4320    0.4480 C   0  0  0  0  0  0  0  0  0  0  0  0
   -3.9800    1.2750    0.8770 C   0  0  0  0  0  0  0  0  0  0  0  0
   -4.1750    0.4380   -0.2600 O   0  0  0  0  0  0  0  0  0  0  0  0
   -4.9930   -0.7070   -0.0010 C   0  0  0  0  0  0  0  0  0  0  0  0
   -6.2130   -0.6020    0.3650 C   0  0  0  0  0  0  0  0  0  0  0  0
   -6.9930   -1.8280    0.6140 C   0  0  0  0  0  0  0  0  0  0  0  0
   -5.6500   -3.0420    0.7880 S   0  0  0  0  0  0  0  0  0  0  0  0
   -4.4180   -2.0580   -0.1590 C   0  0  0  0  0  0  0  0  0  0  0  0
    0.8560    1.1270   -1.0990 N   0  0  0  0  0  0  0  0  0  0  0  0
    2.0780    0.6080   -1.2680 C   0  0  0  0  0  0  0  0  0  0  0  0
    2.9300    0.6690   -2.5140 C   0  0  0  0  0  0  0  0  0  0  0  0
  1  2  2  0
  2  3  1  0
  3  4  1  0
  4  5  1  0
  5  6  2  0
  5  7  1  0
  7  8  1  0
  7 22  2  0
  8  9  2  0
  9 10  1  0
  9 21  1  0
 10 11  2  0
 10 12  1  0
 12 13  1  0
 13 14  1  0
 14 15  1  0
 15 16  1  0
 16 17  2  0
 16 20  1  0
 17 18  1  0
 18 19  1  0
 19 20  1  0
 21 22  1  0
 22 23  1  0
M  END
