
     RDKit          3D

 20 20  0  0  0  0  0  0  0  0999 V2000
    2.5460    1.5150    0.1780 O   0  0  0  0  0  0  0  0  0  0  0  0
    2.4720    0.3840   -0.3720 C   0  0  0  0  0  0  0  0  0  0  0  0
    1.2050   -0.1820   -0.6780 N   0  0  0  0  0  0  0  0  0  0  0  0
    0.0220    0.5750   -0.3430 C   0  0  0  0  0  0  0  0  0  0  0  0
   -1.2350   -0.1770   -0.7390 C   0  0  1  0  0  0  0  0  0  0  0  0
   -1.1640   -0.3740   -2.1300 O   0  0  0  0  0  0  0  0  0  0  0  0
   -1.2300   -1.4890   -0.0410 C   0  0  0  0  0  0  0  0  0  0  0  0
   -2.5460   -2.1460    0.1100 C   0  0  1  0  0  0  0  0  0  0  0  0
   -2.4390   -3.0800    1.1680 O   0  0  0  0  0  0  0  0  0  0  0  0
   -3.6690   -1.2220    0.4670 C   0  0  0  0  0  0  0  0  0  0  0  0
   -3.7270   -0.0370   -0.4700 C   0  0  0  0  0  0  0  0  0  0  0  0
   -2.4060    0.6970   -0.4340 C   0  0  2  0  0  0  0  0  0  0  0  0
   -2.4720    1.6590   -1.4710 O   0  0  0  0  0  0  0  0  0  0  0  0
   -2.2440    1.4630    0.8310 C   0  0  0  0  0  0  0  0  0  0  0  0
   -2.1550    0.8620    1.9450 O   0  0  0  0  0  0  0  0  0  0  0  0
   -2.1810    2.8500    0.8760 O   0  0  0  0  0  0  0  0  0  0  0  0
    3.6560   -0.2730   -0.6590 O   0  0  0  0  0  0  0  0  0  0  0  0
    4.9310    0.2500   -0.3710 C   0  0  0  0  0  0  0  0  0  0  0  0
    5.1330    0.4990    1.1070 C   0  0  0  0  0  0  0  0  0  0  0  0
    6.4170    1.0130    1.2970 O   0  0  0  0  0  0  0  0  0  0  0  0
  1  2  2  0
  2  3  1  0
  2 17  1  0
  3  4  1  0
  4  5  1  0
  5  6  1  6
  5  7  1  0
  5 12  1  0
  7  8  1  0
  8  9  1  1
  8 10  1  0
 10 11  1  0
 11 12  1  0
 12 13  1  6
 12 14  1  0
 14 15  2  0
 14 16  1  0
 17 18  1  0
 18 19  1  0
 19 20  1  0
M  END
