
     RDKit          3D

 19 19  0  0  0  0  0  0  0  0999 V2000
    4.9070   -1.0290    0.3870 N   0  0  0  0  0  0  0  0  0  0  0  0
    4.0680   -0.4720    1.4100 C   0  0  0  0  0  0  0  0  0  0  0  0
    2.8940    0.3210    0.9080 C   0  0  2  0  0  0  0  0  0  0  0  0
    2.1900    0.8190    2.0300 O   0  0  0  0  0  0  0  0  0  0  0  0
    1.9690   -0.5690    0.1480 C   0  0  2  0  0  0  0  0  0  0  0  0
    1.5170   -1.6670    0.8700 O   0  0  0  0  0  0  0  0  0  0  0  0
    2.5780   -1.0380   -1.1430 C   0  0  0  0  0  0  0  0  0  0  0  0
    3.0710    0.0580   -1.8750 O   0  0  0  0  0  0  0  0  0  0  0  0
    0.7130    0.2370   -0.2980 C   0  0  0  0  0  0  0  0  0  0  0  0
    0.0080    0.6460    0.7960 O   0  0  0  0  0  0  0  0  0  0  0  0
   -1.1200    1.3970    0.5750 C   0  0  0  0  0  0  0  0  0  0  0  0
   -2.1770    0.7370   -0.2310 C   0  0  2  0  0  0  0  0  0  0  0  0
   -1.8250    0.3770   -1.5140 O   0  0  0  0  0  0  0  0  0  0  0  0
   -3.4220    1.6250   -0.3740 C   0  0  0  0  0  0  0  0  0  0  0  0
   -4.4830    0.7360   -0.9930 C   0  0  0  0  0  0  0  0  0  0  0  0
   -3.9290   -0.4000   -1.5820 O   0  0  0  0  0  0  0  0  0  0  0  0
   -3.4510   -1.3030   -0.6340 C   0  0  0  0  0  0  0  0  0  0  0  0
   -2.7020   -0.5400    0.4400 C   0  0  1  0  0  0  0  0  0  0  0  0
   -1.6660   -1.2860    0.9810 O   0  0  0  0  0  0  0  0  0  0  0  0
  1  2  1  0
  2  3  1  0
  3  4  1  1
  3  5  1  0
  5  6  1  1
  5  7  1  0
  5  9  1  0
  7  8  1  0
  9 10  1  0
 10 11  1  0
 11 12  1  0
 12 13  1  6
 12 14  1  0
 12 18  1  0
 14 15  1  0
 15 16  1  0
 16 17  1  0
 17 18  1  0
 18 19  1  6
M  END
