
     RDKit          3D

 27 30  0  0  0  0  0  0  0  0999 V2000
    8.0230   -1.0900    0.1170 C   0  0  0  0  0  0  0  0  0  0  0  0
    6.6590   -0.4680    0.0880 C   0  0  0  0  0  0  0  0  0  0  0  0
    5.5730   -1.3070   -0.0580 C   0  0  0  0  0  0  0  0  0  0  0  0
    4.2840   -0.7920   -0.0920 C   0  0  0  0  0  0  0  0  0  0  0  0
    3.0590   -1.3380   -0.2190 N   0  0  0  0  0  0  0  0  0  0  0  0
    2.1310   -0.3660   -0.1880 C   0  0  0  0  0  0  0  0  0  0  0  0
    0.6440   -0.5660   -0.3000 C   0  0  0  0  0  0  0  0  0  0  0  0
   -0.0260    0.7840   -0.2180 C   0  0  0  0  0  0  0  0  0  0  0  0
   -1.4660    0.6990   -0.3190 N   0  0  0  0  0  0  0  0  0  0  0  0
   -2.2670   -0.0220    0.6020 C   0  0  0  0  0  0  0  0  0  0  0  0
   -1.6100   -0.5970    1.5430 O   0  0  0  0  0  0  0  0  0  0  0  0
   -3.7110   -0.1380    0.5420 C   0  0  0  0  0  0  0  0  0  0  0  0
   -4.4020    0.4770   -0.4630 C   0  0  0  0  0  0  0  0  0  0  0  0
   -5.7630    0.3600   -0.5080 C   0  0  0  0  0  0  0  0  0  0  0  0
   -6.4740   -0.3590    0.4250 C   0  0  0  0  0  0  0  0  0  0  0  0
   -7.8940   -0.4720    0.3630 N   0  0  0  0  0  0  0  0  0  0  0  0
   -8.5760   -1.0430   -0.6410 C   0  0  0  0  0  0  0  0  0  0  0  0
   -9.9050   -0.9680   -0.3600 N   0  0  0  0  0  0  0  0  0  0  0  0
  -10.0210   -0.3480    0.8230 N   0  0  0  0  0  0  0  0  0  0  0  0
   -8.7860   -0.0430    1.2690 C   0  0  0  0  0  0  0  0  0  0  0  0
   -5.7690   -0.9830    1.4450 C   0  0  0  0  0  0  0  0  0  0  0  0
   -4.3960   -0.8610    1.4840 C   0  0  0  0  0  0  0  0  0  0  0  0
    2.7960    0.7830   -0.0410 N   0  0  0  0  0  0  0  0  0  0  0  0
    4.1240    0.5730    0.0240 C   0  0  0  0  0  0  0  0  0  0  0  0
    5.2300    1.4010    0.1700 C   0  0  0  0  0  0  0  0  0  0  0  0
    6.5190    0.8990    0.2050 C   0  0  0  0  0  0  0  0  0  0  0  0
    7.7040    1.8000    0.3620 C   0  0  0  0  0  0  0  0  0  0  0  0
  1  2  1  0
  2  3  2  0
  2 26  1  0
  3  4  1  0
  4  5  1  0
  4 24  2  0
  5  6  2  0
  6  7  1  0
  6 23  1  0
  7  8  1  0
  8  9  1  0
  9 10  1  0
 10 11  2  0
 10 12  1  0
 12 13  2  0
 12 22  1  0
 13 14  1  0
 14 15  2  0
 15 16  1  0
 15 21  1  0
 16 17  1  0
 16 20  1  0
 17 18  2  0
 18 19  1  0
 19 20  2  0
 21 22  2  0
 23 24  1  0
 24 25  1  0
 25 26  2  0
 26 27  1  0
M  END
