
     RDKit          3D

 27 30  0  0  0  0  0  0  0  0999 V2000
   -3.3180   -3.3310   -1.6490 C   0  0  0  0  0  0  0  0  0  0  0  0
   -2.3740   -2.4250   -1.4810 C   0  0  0  0  0  0  0  0  0  0  0  0
   -1.9610   -2.0370   -0.0940 C   0  0  0  0  0  0  0  0  0  0  0  0
   -2.1850   -0.6130    0.1240 N   0  0  0  0  0  0  0  0  0  0  0  0
   -1.3070    0.3790   -0.1150 C   0  0  0  0  0  0  0  0  0  0  0  0
   -0.1250    0.1530   -0.5820 N   0  0  0  0  0  0  0  0  0  0  0  0
    0.8160    1.1880   -0.8410 C   0  0  0  0  0  0  0  0  0  0  0  0
    0.5700    2.3900   -1.3750 N   0  0  0  0  0  0  0  0  0  0  0  0
    1.7090    3.0950   -1.4640 C   0  0  0  0  0  0  0  0  0  0  0  0
    1.9620    4.4530   -1.9750 C   0  0  0  0  0  0  0  0  0  0  0  0
    1.8560    5.4350   -1.0100 O   0  0  0  0  0  0  0  0  0  0  0  0
    2.6460    2.2750   -0.9650 N   0  0  0  0  0  0  0  0  0  0  0  0
    2.1280    1.1200   -0.5840 N   0  0  0  0  0  0  0  0  0  0  0  0
    2.8470    0.0110   -0.0050 C   0  0  0  0  0  0  0  0  0  0  0  0
    2.4350   -0.6440    1.1290 C   0  0  0  0  0  0  0  0  0  0  0  0
    3.1960   -1.7120    1.6210 C   0  0  0  0  0  0  0  0  0  0  0  0
    4.3390   -2.1200    1.0030 C   0  0  0  0  0  0  0  0  0  0  0  0
    5.1820   -3.2460    1.4850 C   0  0  0  0  0  0  0  0  0  0  0  0
    4.7570   -1.4660   -0.1340 C   0  0  0  0  0  0  0  0  0  0  0  0
    4.0000   -0.4060   -0.6220 C   0  0  0  0  0  0  0  0  0  0  0  0
   -1.9190    1.5100    0.2220 N   0  0  0  0  0  0  0  0  0  0  0  0
   -3.1680    1.2670    0.6710 C   0  0  0  0  0  0  0  0  0  0  0  0
   -4.2170    2.0310    1.1390 C   0  0  0  0  0  0  0  0  0  0  0  0
   -5.4120    1.4560    1.5360 C   0  0  0  0  0  0  0  0  0  0  0  0
   -5.5780    0.0870    1.4700 C   0  0  0  0  0  0  0  0  0  0  0  0
   -4.5340   -0.6760    1.0050 C   0  0  0  0  0  0  0  0  0  0  0  0
   -3.3270   -0.0980    0.6030 C   0  0  0  0  0  0  0  0  0  0  0  0
  1  2  2  0
  2  3  1  0
  3  4  1  0
  4  5  1  0
  4 27  1  0
  5  6  2  3
  5 21  1  0
  6  7  1  0
  7  8  2  0
  7 13  1  0
  8  9  1  0
  9 10  1  0
  9 12  2  0
 10 11  1  0
 12 13  1  0
 13 14  1  0
 14 15  2  0
 14 20  1  0
 15 16  1  0
 16 17  2  0
 17 18  1  0
 17 19  1  0
 19 20  2  0
 21 22  1  0
 22 23  2  0
 22 27  1  0
 23 24  1  0
 24 25  2  0
 25 26  1  0
 26 27  2  0
M  END
