
     RDKit          3D

 27 30  0  0  0  0  0  0  0  0999 V2000
   -4.0660   -3.9810   -0.1780 C   0  0  0  0  0  0  0  0  0  0  0  0
   -4.0620   -2.6570   -0.1840 C   0  0  0  0  0  0  0  0  0  0  0  0
   -5.0950   -1.7830   -0.7220 C   0  0  0  0  0  0  0  0  0  0  0  0
   -4.6910   -0.5460   -0.5190 C   0  0  0  0  0  0  0  0  0  0  0  0
   -3.4180   -0.4820    0.1390 C   0  0  0  0  0  0  0  0  0  0  0  0
   -2.6040    0.5430    0.5560 C   0  0  0  0  0  0  0  0  0  0  0  0
   -3.0330    1.8800    0.3280 N   0  0  0  0  0  0  0  0  0  0  0  0
   -3.4140    2.4070   -0.8730 C   0  0  0  0  0  0  0  0  0  0  0  0
   -3.7640    3.7350   -0.6960 C   0  0  0  0  0  0  0  0  0  0  0  0
   -3.5780    3.9820    0.6490 C   0  0  0  0  0  0  0  0  0  0  0  0
   -3.1490    2.8580    1.1950 N   0  0  0  0  0  0  0  0  0  0  0  0
   -1.4180    0.2070    1.1710 C   0  0  0  0  0  0  0  0  0  0  0  0
   -1.0290   -1.1030    1.3780 C   0  0  0  0  0  0  0  0  0  0  0  0
    0.2750   -1.3890    2.0560 C   0  0  0  0  0  0  0  0  0  0  0  0
    1.2500   -1.7430    1.0610 N   0  0  0  0  0  0  0  0  0  0  0  0
    1.8520   -0.7410    0.2530 C   0  0  0  0  0  0  0  0  0  0  0  0
    1.5900    0.4710    0.3410 O   0  0  0  0  0  0  0  0  0  0  0  0
    2.7960   -1.1590   -0.6980 N   0  0  0  0  0  0  0  0  0  0  0  0
    3.4580   -0.2010   -1.5580 C   0  0  0  0  0  0  0  0  0  0  0  0
    4.4870    0.4860   -0.7370 C   0  0  0  0  0  0  0  0  0  0  0  0
    5.6440   -0.1740   -0.4230 C   0  0  0  0  0  0  0  0  0  0  0  0
    6.6060    0.4430    0.3340 C   0  0  0  0  0  0  0  0  0  0  0  0
    6.3840    1.7430    0.7730 C   0  0  0  0  0  0  0  0  0  0  0  0
    5.2320    2.3610    0.4440 N   0  0  0  0  0  0  0  0  0  0  0  0
    4.2660    1.7760   -0.3010 C   0  0  0  0  0  0  0  0  0  0  0  0
   -1.8370   -2.0870    0.9650 N   0  0  0  0  0  0  0  0  0  0  0  0
   -3.0130   -1.8020    0.3550 C   0  0  0  0  0  0  0  0  0  0  0  0
  1  2  2  0
  2  3  1  0
  2 27  1  0
  3  4  2  0
  4  5  1  0
  5  6  2  0
  5 27  1  0
  6  7  1  0
  6 12  1  0
  7  8  1  0
  7 11  1  0
  8  9  2  0
  9 10  1  0
 10 11  2  0
 12 13  2  0
 13 14  1  0
 13 26  1  0
 14 15  1  0
 15 16  1  0
 16 17  2  0
 16 18  1  0
 18 19  1  0
 19 20  1  0
 20 21  2  0
 20 25  1  0
 21 22  1  0
 22 23  2  0
 23 24  1  0
 24 25  2  0
 26 27  2  0
M  END
