
     RDKit          3D

 27 30  0  0  0  0  0  0  0  0999 V2000
   -2.4890   -4.1710    0.7270 C   0  0  0  0  0  0  0  0  0  0  0  0
   -2.8050   -2.7890    0.7720 O   0  0  0  0  0  0  0  0  0  0  0  0
   -2.0070   -1.9090    0.0250 C   0  0  0  0  0  0  0  0  0  0  0  0
   -0.9550   -2.3620   -0.7270 C   0  0  0  0  0  0  0  0  0  0  0  0
   -0.1580   -1.5190   -1.4680 C   0  0  0  0  0  0  0  0  0  0  0  0
    0.9270   -2.0060   -2.2470 N   0  0  0  0  0  0  0  0  0  0  0  0
    1.7870   -1.1230   -2.9980 C   0  0  0  0  0  0  0  0  0  0  0  0
    2.4650   -0.2010   -2.0260 C   0  0  0  0  0  0  0  0  0  0  0  0
    2.8560    1.0480   -2.3630 N   0  0  0  0  0  0  0  0  0  0  0  0
    3.4650    1.8670   -1.4840 C   0  0  0  0  0  0  0  0  0  0  0  0
    3.6770    1.3670   -0.2070 C   0  0  0  0  0  0  0  0  0  0  0  0
    3.2840    0.1130    0.1230 C   0  0  0  0  0  0  0  0  0  0  0  0
    2.6690   -0.6890   -0.7910 N   0  0  0  0  0  0  0  0  0  0  0  0
    3.5220   -0.4220    1.4810 C   0  0  0  0  0  0  0  0  0  0  0  0
    4.6760    0.1960    2.1610 C   0  0  0  0  0  0  0  0  0  0  0  0
    5.0370    1.4160    1.8310 C   0  0  0  0  0  0  0  0  0  0  0  0
    4.3410    2.2280    0.7960 C   0  0  0  0  0  0  0  0  0  0  0  0
   -0.4850   -0.1840   -1.4080 C   0  0  0  0  0  0  0  0  0  0  0  0
   -1.5580    0.3010   -0.6450 C   0  0  0  0  0  0  0  0  0  0  0  0
   -2.3430   -0.5440    0.0880 C   0  0  0  0  0  0  0  0  0  0  0  0
   -3.4480   -0.1860    0.8890 N   0  0  0  0  0  0  0  0  0  0  0  0
   -3.9060    1.1430    1.0330 C   0  0  0  0  0  0  0  0  0  0  0  0
   -5.0190    1.3660    1.8560 C   0  0  0  0  0  0  0  0  0  0  0  0
   -5.4820    2.6420    2.0110 C   0  0  0  0  0  0  0  0  0  0  0  0
   -4.8940    3.7220    1.3850 C   0  0  0  0  0  0  0  0  0  0  0  0
   -3.8280    3.4170    0.6120 N   0  0  0  0  0  0  0  0  0  0  0  0
   -3.3760    2.2070    0.4550 N   0  0  0  0  0  0  0  0  0  0  0  0
  1  2  1  0
  2  3  1  0
  3  4  2  0
  3 20  1  0
  4  5  1  0
  5  6  1  0
  5 18  2  0
  6  7  1  0
  7  8  1  0
  8  9  2  0
  8 13  1  0
  9 10  1  0
 10 11  2  0
 11 12  1  0
 11 17  1  0
 12 13  2  0
 12 14  1  0
 14 15  1  0
 15 16  2  0
 16 17  1  0
 18 19  1  0
 19 20  2  0
 20 21  1  0
 21 22  1  0
 22 23  2  0
 22 27  1  0
 23 24  1  0
 24 25  2  0
 25 26  1  0
 26 27  2  0
M  END
