
     RDKit          3D

 23 26  0  0  0  0  0  0  0  0999 V2000
   -4.1110   -2.4410   -1.5610 N   0  0  0  0  0  0  0  0  0  0  0  0
   -3.8700   -1.2250   -0.8860 C   0  0  0  0  0  0  0  0  0  0  0  0
   -2.6260   -0.6940   -0.7620 N   0  0  0  0  0  0  0  0  0  0  0  0
   -2.4380    0.4740   -0.1060 C   0  0  0  0  0  0  0  0  0  0  0  0
   -3.5050    1.1560    0.4540 C   0  0  0  0  0  0  0  0  0  0  0  0
   -2.9990    2.2550    1.0210 N   0  0  0  0  0  0  0  0  0  0  0  0
   -1.6870    2.2640    0.8290 C   0  0  0  0  0  0  0  0  0  0  0  0
   -1.3200    1.1740    0.1350 N   0  0  0  0  0  0  0  0  0  0  0  0
    0.0120    0.8610   -0.2500 C   0  0  2  0  0  0  0  0  0  0  0  0
    0.2130   -0.5330   -0.4060 O   0  0  0  0  0  0  0  0  0  0  0  0
    1.6140   -0.5530   -0.3300 C   0  0  2  0  0  0  0  0  0  0  0  0
    2.2220   -1.8970   -0.2510 C   0  0  0  0  0  0  0  0  0  0  0  0
    3.3980   -1.8080    0.4720 O   0  0  0  0  0  0  0  0  0  0  0  0
    4.2160   -0.5160    0.5820 P   0  0  0  0  0  0  0  0  0  0  0  0
    5.0630    0.7680    0.5320 O   0  0  0  0  0  0  0  0  0  0  0  0
    4.2250   -0.5000   -1.0990 O   0  0  0  0  0  0  0  0  0  0  0  0
    3.0420    0.2100    1.4210 O   0  0  0  0  0  0  0  0  0  0  0  0
    1.7540    0.0420    1.0830 C   0  0  1  0  0  0  0  0  0  0  0  0
    0.9470    1.2790    0.8970 C   0  0  1  0  0  0  0  0  0  0  0  0
    1.7020    2.3730    0.5080 O   0  0  0  0  0  0  0  0  0  0  0  0
   -4.7550    0.6080    0.3220 C   0  0  0  0  0  0  0  0  0  0  0  0
   -5.7220    1.2340    0.8340 O   0  0  0  0  0  0  0  0  0  0  0  0
   -4.8960   -0.5450   -0.3330 N   0  0  0  0  0  0  0  0  0  0  0  0
  1  2  1  0
  2  3  2  0
  2 23  1  0
  3  4  1  0
  4  5  2  0
  4  8  1  0
  5  6  1  0
  5 21  1  0
  6  7  2  0
  7  8  1  0
  9  8  1  1
  9 10  1  0
  9 19  1  0
 10 11  1  0
 11 12  1  1
 11 18  1  0
 12 13  1  0
 13 14  1  0
 14 15  1  0
 14 16  1  0
 14 17  1  0
 18 17  1  6
 18 19  1  0
 19 20  1  6
 21 22  2  0
 21 23  1  0
M  END
