
     RDKit          3D

 15 15  0  0  0  0  0  0  0  0999 V2000
   -4.1970    0.3460   -2.0580 O   0  0  0  0  0  0  0  0  0  0  0  0
   -4.5850    0.9140   -0.9210 O   0  0  0  0  0  0  0  0  0  0  0  0
   -4.3040    0.0990    0.1240 C   0  0  0  0  0  0  0  0  0  0  0  0
   -2.8030    0.1020    0.4390 C   0  0  2  0  0  0  0  0  0  0  0  0
   -2.3800    1.1730    1.1160 O   0  0  0  0  0  0  0  0  0  0  0  0
   -1.1170    1.5500    0.7010 C   0  0  0  0  0  0  0  0  0  0  0  0
   -0.8640    0.6360   -0.4720 C   0  0  1  0  0  0  0  0  0  0  0  0
   -0.1150   -0.6060   -0.1030 C   0  0  0  0  0  0  0  0  0  0  0  0
    1.0270   -0.8300   -0.8490 O   0  0  0  0  0  0  0  0  0  0  0  0
    2.1420   -0.4130   -0.1380 C   0  0  0  0  0  0  0  0  0  0  0  0
    3.4280   -0.7790   -0.8440 C   0  0  0  0  0  0  0  0  0  0  0  0
    4.8570   -0.4390    0.2950 P   0  0  0  0  0  0  0  0  0  0  0  0
    4.7330    1.0890    1.0750 O   0  0  0  0  0  0  0  0  0  0  0  0
    4.9610   -1.6800    1.5130 O   0  0  0  0  0  0  0  0  0  0  0  0
   -2.1740    0.2980   -0.8820 O   0  0  0  0  0  0  0  0  0  0  0  0
  1  2  1  0
  2  3  1  0
  4  3  1  6
  4  5  1  0
  4 15  1  0
  5  6  1  0
  6  7  1  0
  7  8  1  1
  7 15  1  0
  8  9  1  0
  9 10  1  0
 10 11  1  0
 11 12  1  0
 12 13  1  0
 12 14  1  0
M  END
