
     RDKit          3D

 15 14  0  0  0  0  0  0  0  0999 V2000
   -4.0790    1.4170    0.1750 C   0  0  0  0  0  0  0  0  0  0  0  0
   -3.0010    0.3600    0.2680 C   0  0  0  0  0  0  0  0  0  0  0  0
   -2.4350    0.0970   -0.9770 O   0  0  0  0  0  0  0  0  0  0  0  0
   -1.2210   -1.1200   -0.7460 P   0  0  0  0  0  0  0  0  0  0  0  0
   -1.8070   -2.3840    0.2990 O   0  0  0  0  0  0  0  0  0  0  0  0
   -1.4890   -3.7070    0.0220 C   0  0  0  0  0  0  0  0  0  0  0  0
   -0.7780   -3.9580   -0.9910 O   0  0  0  0  0  0  0  0  0  0  0  0
    0.3250   -0.3240   -0.0330 C   0  0  1  0  0  0  0  0  0  0  0  0
    0.6940   -0.9600    1.1390 O   0  0  0  0  0  0  0  0  0  0  0  0
    1.3650   -0.3780   -1.1000 C   0  0  0  0  0  0  0  0  0  0  0  0
    2.5830    0.2050   -0.7720 O   0  0  0  0  0  0  0  0  0  0  0  0
    2.7710    1.5310   -0.4250 C   0  0  0  0  0  0  0  0  0  0  0  0
    1.7430    2.2570   -0.4080 O   0  0  0  0  0  0  0  0  0  0  0  0
    4.1240    2.0830   -0.0840 C   0  0  0  0  0  0  0  0  0  0  0  0
    5.0680    1.0910   -0.1770 O   0  0  0  0  0  0  0  0  0  0  0  0
  1  2  1  0
  2  3  1  0
  3  4  1  0
  4  5  1  0
  4  8  1  0
  5  6  1  0
  6  7  2  0
  8  9  1  1
  8 10  1  0
 10 11  1  0
 11 12  1  0
 12 13  2  0
 12 14  1  0
 14 15  1  0
M  END
