
     RDKit          3D

 15 14  0  0  0  0  0  0  0  0999 V2000
    4.0850    1.3020   -1.0900 C   0  0  0  0  0  0  0  0  0  0  0  0
    3.1190    0.1400   -0.9000 C   0  0  0  0  0  0  0  0  0  0  0  0
    2.6740    0.1960    0.4280 O   0  0  0  0  0  0  0  0  0  0  0  0
    1.5650   -1.0640    0.8020 P   0  0  0  0  0  0  0  0  0  0  0  0
    1.0420   -1.9480   -0.5740 O   0  0  0  0  0  0  0  0  0  0  0  0
    0.1870   -0.5040    1.8580 C   0  0  0  0  0  0  0  0  0  0  0  0
    0.2500   -0.6830    3.0510 O   0  0  0  0  0  0  0  0  0  0  0  0
   -0.9860    0.1620    1.2320 C   0  0  1  0  0  0  0  0  0  0  0  0
   -0.7910    0.2340   -0.1390 O   0  0  0  0  0  0  0  0  0  0  0  0
   -2.2640   -0.4340    1.6470 C   0  0  0  0  0  0  0  0  0  0  0  0
   -2.3880   -0.6180    2.8690 O   0  0  0  0  0  0  0  0  0  0  0  0
   -3.3920   -0.8350    0.8170 C   0  0  0  0  0  0  0  0  0  0  0  0
   -3.3480   -0.4860   -0.5280 O   0  0  0  0  0  0  0  0  0  0  0  0
   -3.3610    0.8450   -0.9220 C   0  0  0  0  0  0  0  0  0  0  0  0
   -3.4230    1.7060   -0.0110 O   0  0  0  0  0  0  0  0  0  0  0  0
  1  2  1  0
  2  3  1  0
  3  4  1  0
  4  5  1  0
  4  6  1  0
  6  7  2  0
  6  8  1  0
  8  9  1  6
  8 10  1  0
 10 11  2  0
 10 12  1  0
 12 13  1  0
 13 14  1  0
 14 15  2  0
M  END
