
     RDKit          3D

 14 13  0  0  0  0  0  0  0  0999 V2000
    3.8000    1.8110    0.0690 C   0  0  0  0  0  0  0  0  0  0  0  0
    2.7420    1.2840    0.8000 O   0  0  0  0  0  0  0  0  0  0  0  0
    2.6200   -0.4210    0.6840 P   0  0  0  0  0  0  0  0  0  0  0  0
    3.8720   -1.1200   -0.2930 O   0  0  0  0  0  0  0  0  0  0  0  0
    1.0000   -1.0120    0.0610 C   0  0  0  0  0  0  0  0  0  0  0  0
   -0.0830   -0.3230    0.5780 O   0  0  0  0  0  0  0  0  0  0  0  0
   -1.2420   -0.8640    0.0310 C   0  0  2  0  0  0  0  0  0  0  0  0
   -2.0320    0.1480   -0.7620 C   0  0  0  0  0  0  0  0  0  0  0  0
   -2.4040    1.2080    0.0670 O   0  0  0  0  0  0  0  0  0  0  0  0
   -3.1340    2.3040   -0.3360 C   0  0  0  0  0  0  0  0  0  0  0  0
   -3.4910    2.3460   -1.5510 O   0  0  0  0  0  0  0  0  0  0  0  0
   -2.0790   -1.4620    1.1060 C   0  0  0  0  0  0  0  0  0  0  0  0
   -1.6870   -1.4180    2.2800 O   0  0  0  0  0  0  0  0  0  0  0  0
   -3.2930   -2.0730    0.8500 O   0  0  0  0  0  0  0  0  0  0  0  0
  1  2  1  0
  2  3  1  0
  3  4  1  0
  3  5  1  0
  5  6  1  0
  6  7  1  0
  7  8  1  1
  7 12  1  0
  8  9  1  0
  9 10  1  0
 10 11  2  0
 12 13  2  0
 12 14  1  0
M  END
