
     RDKit          3D

 29 32  0  0  0  0  0  0  0  0999 V2000
   -1.6990   -5.5930   -0.1250 C   0  0  0  0  0  0  0  0  0  0  0  0
   -1.6200   -4.1090    0.2330 C   0  0  0  0  0  0  0  0  0  0  0  0
   -2.9130   -3.5160    0.2960 N   0  0  0  0  0  0  0  0  0  0  0  0
   -3.1290   -2.2970    0.3010 C   0  0  0  0  0  0  0  0  0  0  0  0
   -4.8900   -1.6570    0.3870 S   0  0  0  0  0  0  0  0  0  0  0  0
   -4.4120    0.0480    0.3540 C   0  0  0  0  0  0  0  0  0  0  0  0
   -5.1460    1.2150    0.3860 C   0  0  0  0  0  0  0  0  0  0  0  0
   -4.5030    2.4280    0.3470 C   0  0  0  0  0  0  0  0  0  0  0  0
   -5.1680    3.6210    0.3750 C   0  0  0  0  0  0  0  0  0  0  0  0
   -4.4400    4.8170    0.3330 C   0  0  0  0  0  0  0  0  0  0  0  0
   -3.0700    4.7910    0.2630 C   0  0  0  0  0  0  0  0  0  0  0  0
   -2.4050    3.6010    0.2360 C   0  0  0  0  0  0  0  0  0  0  0  0
   -3.1340    2.3920    0.2780 C   0  0  0  0  0  0  0  0  0  0  0  0
   -2.4540    1.2570    0.2490 N   0  0  0  0  0  0  0  0  0  0  0  0
   -3.0380   -0.0030    0.2850 C   0  0  0  0  0  0  0  0  0  0  0  0
   -2.4420   -1.1780    0.2610 N   0  0  0  0  0  0  0  0  0  0  0  0
   -0.9690   -1.2710    0.1860 C   0  0  0  0  0  0  0  0  0  0  0  0
   -0.1930   -1.0450   -0.8830 N   0  0  0  0  0  0  0  0  0  0  0  0
    1.0820   -1.2300   -0.5520 N   0  0  0  0  0  0  0  0  0  0  0  0
    1.0850   -1.5740    0.7380 C   0  0  0  0  0  0  0  0  0  0  0  0
    2.2790   -1.8810    1.5500 C   0  0  0  0  0  0  0  0  0  0  0  0
    3.5100   -1.7300    0.6920 C   0  0  0  0  0  0  0  0  0  0  0  0
    3.5680   -0.3240    0.2160 C   0  0  0  0  0  0  0  0  0  0  0  0
    2.7380    0.5650    0.5040 O   0  0  0  0  0  0  0  0  0  0  0  0
    4.6190    0.0910   -0.6260 O   0  0  0  0  0  0  0  0  0  0  0  0
    4.7030    1.4140   -1.0940 C   0  0  2  0  0  0  0  0  0  0  0  0
    4.8090    1.5300   -2.5790 C   0  0  0  0  0  0  0  0  0  0  0  0
    5.9830    2.0020   -0.4860 C   0  0  0  0  0  0  0  0  0  0  0  0
   -0.1650   -1.5900    1.1530 O   0  0  0  0  0  0  0  0  0  0  0  0
  1  2  1  0
  2  3  1  0
  3  4  2  3
  4  5  1  0
  4 16  1  0
  5  6  1  0
  6  7  2  0
  6 15  1  0
  7  8  1  0
  8  9  2  0
  8 13  1  0
  9 10  1  0
 10 11  2  0
 11 12  1  0
 12 13  2  0
 13 14  1  0
 14 15  2  0
 15 16  1  0
 16 17  1  0
 17 18  2  0
 17 29  1  0
 18 19  1  0
 19 20  2  0
 20 21  1  0
 20 29  1  0
 21 22  1  0
 22 23  1  0
 23 24  2  0
 23 25  1  0
 25 26  1  0
 26 27  1  6
 26 28  1  0
M  END
