
     RDKit          3D

 30 33  0  0  0  0  0  0  0  0999 V2000
    5.6400   -1.5600   -2.9440 C   0  0  0  0  0  0  0  0  0  0  0  0
    4.9060   -0.5020   -2.5120 C   0  0  0  0  0  0  0  0  0  0  0  0
    4.6280   -0.4290   -1.0880 C   0  0  0  0  0  0  0  0  0  0  0  0
    3.3860   -0.7390   -0.4880 C   0  0  0  0  0  0  0  0  0  0  0  0
    3.2410   -0.7120    0.8330 C   0  0  0  0  0  0  0  0  0  0  0  0
    1.9960   -1.1470    1.5950 C   0  0  0  0  0  0  0  0  0  0  0  0
    1.0480   -0.2530    1.5940 O   0  0  0  0  0  0  0  0  0  0  0  0
    0.0280    0.4460    1.2580 C   0  0  0  0  0  0  0  0  0  0  0  0
   -0.2940    1.5980    1.9810 C   0  0  0  0  0  0  0  0  0  0  0  0
   -1.3960    2.3940    1.7040 C   0  0  0  0  0  0  0  0  0  0  0  0
   -2.2140    2.0300    0.6550 C   0  0  0  0  0  0  0  0  0  0  0  0
   -1.9310    0.8880   -0.0810 C   0  0  0  0  0  0  0  0  0  0  0  0
   -0.8470    0.1180    0.1980 C   0  0  0  0  0  0  0  0  0  0  0  0
   -2.9850    0.3670   -1.0510 C   0  0  1  0  0  0  0  0  0  0  0  0
   -3.8140   -0.5570   -0.2410 N   0  0  0  0  0  0  0  0  0  0  0  0
   -3.9340   -0.4650    1.1780 C   0  0  0  0  0  0  0  0  0  0  0  0
   -5.3920   -0.4890    1.6240 C   0  0  0  0  0  0  0  0  0  0  0  0
   -6.0810   -1.6390    0.9980 C   0  0  0  0  0  0  0  0  0  0  0  0
   -7.0150   -2.2420    1.6000 O   0  0  0  0  0  0  0  0  0  0  0  0
   -5.7070   -2.0930   -0.2860 N   0  0  0  0  0  0  0  0  0  0  0  0
   -4.5600   -1.5660   -0.9450 C   0  0  0  0  0  0  0  0  0  0  0  0
   -4.1550   -2.1000   -2.4120 S   0  0  0  0  0  0  0  0  0  0  0  0
   -3.8790    1.4250   -1.5670 C   0  0  0  0  0  0  0  0  0  0  0  0
   -3.6430    2.8320   -1.1220 C   0  0  0  0  0  0  0  0  0  0  0  0
   -3.3360    2.7610    0.2820 O   0  0  0  0  0  0  0  0  0  0  0  0
    4.3080   -0.3750    1.7010 C   0  0  0  0  0  0  0  0  0  0  0  0
    4.1240   -0.3530    3.0730 O   0  0  0  0  0  0  0  0  0  0  0  0
    5.5120   -0.0680    1.1430 C   0  0  0  0  0  0  0  0  0  0  0  0
    5.6670   -0.0920   -0.2480 C   0  0  0  0  0  0  0  0  0  0  0  0
    7.0220    0.3220   -0.7730 C   0  0  0  0  0  0  0  0  0  0  0  0
  1  2  2  0
  2  3  1  0
  3  4  2  0
  3 29  1  0
  4  5  1  0
  5  6  1  0
  5 26  2  0
  6  7  1  0
  7  8  1  0
  8  9  2  0
  8 13  1  0
  9 10  1  0
 10 11  2  0
 11 12  1  0
 11 25  1  0
 12 13  2  0
 12 14  1  0
 14 15  1  1
 14 23  1  0
 15 16  1  0
 15 21  1  0
 16 17  1  0
 17 18  1  0
 18 19  2  0
 18 20  1  0
 20 21  1  0
 21 22  2  0
 23 24  1  0
 24 25  1  0
 26 27  1  0
 26 28  1  0
 28 29  2  0
 29 30  1  0
M  END
