
     RDKit          3D

 30 33  0  0  0  0  0  0  0  0999 V2000
    6.2290    2.1220    1.7430 C   0  0  0  0  0  0  0  0  0  0  0  0
    6.8250    0.9410    1.7500 C   0  0  0  0  0  0  0  0  0  0  0  0
    8.2390    0.8250    2.2010 C   0  0  0  0  0  0  0  0  0  0  0  0
    8.2170   -0.9000    2.7980 S   0  0  0  0  0  0  0  0  0  0  0  0
    6.8040   -1.3870    1.7980 C   0  0  0  0  0  0  0  0  0  0  0  0
    6.2250   -0.2930    1.3520 C   0  0  0  0  0  0  0  0  0  0  0  0
    5.0130   -0.3730    0.4800 C   0  0  1  0  0  0  0  0  0  0  0  0
    5.2930    0.2090   -0.7810 O   0  0  0  0  0  0  0  0  0  0  0  0
    4.6170   -1.7870    0.2120 C   0  0  0  0  0  0  0  0  0  0  0  0
    3.4530   -1.9010   -0.6370 N   0  0  0  0  0  0  0  0  0  0  0  0
    2.1900   -1.3770   -0.3260 C   0  0  0  0  0  0  0  0  0  0  0  0
    2.0980   -0.7670    0.7860 O   0  0  0  0  0  0  0  0  0  0  0  0
    0.9890   -1.4560   -1.1310 C   0  0  0  0  0  0  0  0  0  0  0  0
    1.0480   -2.0720   -2.3580 C   0  0  0  0  0  0  0  0  0  0  0  0
   -0.0680   -2.1800   -3.1760 C   0  0  0  0  0  0  0  0  0  0  0  0
   -1.2810   -1.6350   -2.7130 C   0  0  0  0  0  0  0  0  0  0  0  0
   -1.3770   -1.0180   -1.5050 C   0  0  0  0  0  0  0  0  0  0  0  0
   -2.5590   -0.4500   -1.0170 N   0  0  0  0  0  0  0  0  0  0  0  0
   -3.7650   -0.2120   -1.6990 C   0  0  0  0  0  0  0  0  0  0  0  0
   -3.8610   -0.5200   -2.9020 O   0  0  0  0  0  0  0  0  0  0  0  0
   -4.9320    0.4040   -1.0100 C   0  0  0  0  0  0  0  0  0  0  0  0
   -6.0350    0.6010   -1.7070 C   0  0  0  0  0  0  0  0  0  0  0  0
   -7.2790    1.2000   -1.1710 C   0  0  0  0  0  0  0  0  0  0  0  0
   -7.1320    1.5610    0.2790 C   0  0  0  0  0  0  0  0  0  0  0  0
   -8.0210    2.1060    1.0750 C   0  0  0  0  0  0  0  0  0  0  0  0
   -7.3950    2.2610    2.4050 C   0  0  0  0  0  0  0  0  0  0  0  0
   -6.0460    1.7270    2.2290 C   0  0  0  0  0  0  0  0  0  0  0  0
   -5.8990    1.3140    0.9690 C   0  0  0  0  0  0  0  0  0  0  0  0
   -4.8120    0.7410    0.3230 O   0  0  0  0  0  0  0  0  0  0  0  0
   -0.2140   -0.9470   -0.7350 C   0  0  0  0  0  0  0  0  0  0  0  0
  1  2  2  0
  2  3  1  0
  2  6  1  0
  3  4  1  0
  4  5  1  0
  5  6  2  0
  6  7  1  0
  7  8  1  6
  7  9  1  0
  9 10  1  0
 10 11  1  0
 11 12  2  0
 11 13  1  0
 13 14  2  0
 13 30  1  0
 14 15  1  0
 15 16  2  0
 16 17  1  0
 17 18  1  0
 17 30  2  0
 18 19  1  0
 19 20  2  0
 19 21  1  0
 21 22  2  0
 21 29  1  0
 22 23  1  0
 23 24  1  0
 24 25  2  0
 24 28  1  0
 25 26  1  0
 26 27  1  0
 27 28  2  0
 28 29  1  0
M  END
