
     RDKit          3D

 29 32  0  0  0  0  0  0  0  0999 V2000
   -6.9190    0.7990   -0.0720 C   0  0  0  0  0  0  0  0  0  0  0  0
   -5.4730    0.9680   -0.5140 C   0  0  0  0  0  0  0  0  0  0  0  0
   -4.9140   -0.2990   -0.8970 N   0  0  0  0  0  0  0  0  0  0  0  0
   -5.0030   -0.7560   -2.1710 C   0  0  0  0  0  0  0  0  0  0  0  0
   -4.4110   -1.9570   -2.2730 N   0  0  0  0  0  0  0  0  0  0  0  0
   -3.9530   -2.2500   -1.0710 N   0  0  0  0  0  0  0  0  0  0  0  0
   -4.2550   -1.2430   -0.2210 C   0  0  0  0  0  0  0  0  0  0  0  0
   -3.9440   -1.1400    1.2370 C   0  0  2  0  0  0  0  0  0  0  0  0
   -5.1730   -1.3520    2.0930 C   0  0  0  0  0  0  0  0  0  0  0  0
   -3.0990    0.3890    1.6270 S   0  0  0  0  0  0  0  0  0  0  0  0
   -1.4670    0.4800    0.9430 C   0  0  0  0  0  0  0  0  0  0  0  0
   -0.9630   -0.5780    0.2210 C   0  0  0  0  0  0  0  0  0  0  0  0
    0.3130   -0.4370   -0.2850 C   0  0  0  0  0  0  0  0  0  0  0  0
    1.0410    0.7150   -0.0710 C   0  0  0  0  0  0  0  0  0  0  0  0
    2.3240    1.1540   -0.4390 C   0  0  0  0  0  0  0  0  0  0  0  0
    3.1480    0.3530   -1.1860 O   0  0  0  0  0  0  0  0  0  0  0  0
    3.9990   -0.6180   -0.8030 C   0  0  0  0  0  0  0  0  0  0  0  0
    3.5530   -1.9040   -0.8120 N   0  0  0  0  0  0  0  0  0  0  0  0
    4.3360   -2.9340   -0.4460 C   0  0  0  0  0  0  0  0  0  0  0  0
    5.6360   -2.7400   -0.0410 C   0  0  0  0  0  0  0  0  0  0  0  0
    6.1230   -1.4560   -0.0200 C   0  0  0  0  0  0  0  0  0  0  0  0
    5.2880   -0.4000   -0.4060 C   0  0  0  0  0  0  0  0  0  0  0  0
    5.8160    0.8700   -0.3700 O   0  0  0  0  0  0  0  0  0  0  0  0
    7.1410    1.1260    0.0350 C   0  0  0  0  0  0  0  0  0  0  0  0
    2.4880    2.4160    0.0790 C   0  0  0  0  0  0  0  0  0  0  0  0
    3.7260    3.2510   -0.0860 C   0  0  0  0  0  0  0  0  0  0  0  0
    1.3970    2.7200    0.7120 O   0  0  0  0  0  0  0  0  0  0  0  0
    0.5080    1.7530    0.6560 C   0  0  0  0  0  0  0  0  0  0  0  0
   -0.7400    1.6000    1.1440 N   0  0  0  0  0  0  0  0  0  0  0  0
  1  2  1  0
  2  3  1  0
  3  4  1  0
  3  7  1  0
  4  5  2  0
  5  6  1  0
  6  7  2  0
  7  8  1  0
  8  9  1  1
  8 10  1  0
 10 11  1  0
 11 12  2  0
 11 29  1  0
 12 13  1  0
 13 14  2  0
 14 15  1  0
 14 28  1  0
 15 16  1  0
 15 25  2  0
 16 17  1  0
 17 18  2  0
 17 22  1  0
 18 19  1  0
 19 20  2  0
 20 21  1  0
 21 22  2  0
 22 23  1  0
 23 24  1  0
 25 26  1  0
 25 27  1  0
 27 28  1  0
 28 29  2  0
M  END
