
     RDKit          3D

 21 23  0  0  0  0  0  0  0  0999 V2000
    0.9260    1.3910    0.9110 C   0  0  0  0  0  0  0  0  0  0  0  0
    0.5080    0.3050   -0.0750 C   0  0  0  0  0  0  0  0  0  0  0  0
    1.4720   -0.2830   -0.8330 C   0  0  0  0  0  0  0  0  0  0  0  0
    2.9310   -0.1610   -0.9400 C   0  0  0  0  0  0  0  0  0  0  0  0
    3.5610   -0.8760   -1.7910 O   0  0  0  0  0  0  0  0  0  0  0  0
    3.7120    0.6670   -0.1940 O   0  0  0  0  0  0  0  0  0  0  0  0
    5.1030    0.7910   -0.2850 C   0  0  0  0  0  0  0  0  0  0  0  0
    5.7730   -0.4800   -0.0050 C   0  0  0  0  0  0  0  0  0  0  0  0
    7.1800   -0.6330   -0.0300 N   0  0  0  0  0  0  0  0  0  0  0  0
    5.0790   -1.4910    0.2730 O   0  0  0  0  0  0  0  0  0  0  0  0
    0.5560   -1.4940   -1.8980 S   0  0  0  0  0  0  0  0  0  0  0  0
   -1.0160   -1.0620   -1.1890 C   0  0  0  0  0  0  0  0  0  0  0  0
   -2.2180   -1.5920   -1.5120 N   0  0  0  0  0  0  0  0  0  0  0  0
   -3.3150   -1.1790   -0.8990 C   0  0  0  0  0  0  0  0  0  0  0  0
   -3.1810   -0.2100    0.0590 C   0  0  0  0  0  0  0  0  0  0  0  0
   -1.9330    0.3480    0.4020 C   0  0  0  0  0  0  0  0  0  0  0  0
   -1.9240    1.3650    1.4520 C   0  0  0  0  0  0  0  0  0  0  0  0
   -0.7720   -0.1010   -0.2620 C   0  0  0  0  0  0  0  0  0  0  0  0
   -4.5430    0.0730    0.5770 C   0  0  0  0  0  0  0  0  0  0  0  0
   -5.3930   -1.0880    0.1980 C   0  0  0  0  0  0  0  0  0  0  0  0
   -4.7140   -1.6010   -1.0760 C   0  0  0  0  0  0  0  0  0  0  0  0
  1  2  1  0
  2  3  2  0
  2 18  1  0
  3  4  1  0
  3 11  1  0
  4  5  2  0
  4  6  1  0
  6  7  1  0
  7  8  1  0
  8  9  1  0
  8 10  2  0
 11 12  1  0
 12 13  2  0
 12 18  1  0
 13 14  1  0
 14 15  2  0
 14 21  1  0
 15 16  1  0
 15 19  1  0
 16 17  1  0
 16 18  2  0
 19 20  1  0
 20 21  1  0
M  END
