
     RDKit          3D

 22 24  0  0  0  0  0  0  0  0999 V2000
   -2.8950    2.8960    0.6910 C   0  0  0  0  0  0  0  0  0  0  0  0
   -3.4280    1.5440    0.3030 C   0  0  0  0  0  0  0  0  0  0  0  0
   -4.6110    1.2640   -0.2660 N   0  0  0  0  0  0  0  0  0  0  0  0
   -4.7470   -0.0780   -0.4720 C   0  0  0  0  0  0  0  0  0  0  0  0
   -5.7260   -0.8330   -1.0000 N   0  0  0  0  0  0  0  0  0  0  0  0
   -5.6550   -2.1640   -1.1110 C   0  0  0  0  0  0  0  0  0  0  0  0
   -4.5200   -2.8040   -0.6620 C   0  0  0  0  0  0  0  0  0  0  0  0
   -3.4930   -2.0510   -0.1130 C   0  0  0  0  0  0  0  0  0  0  0  0
   -3.5970   -0.6800   -0.0130 C   0  0  0  0  0  0  0  0  0  0  0  0
   -2.7950    0.3320    0.4620 C   0  0  0  0  0  0  0  0  0  0  0  0
   -1.4610    0.1810    1.0540 C   0  0  0  0  0  0  0  0  0  0  0  0
   -1.3450    0.0100    2.2950 O   0  0  0  0  0  0  0  0  0  0  0  0
   -0.2320    0.2230    0.2300 C   0  0  0  0  0  0  0  0  0  0  0  0
    0.8840    0.0500    1.0750 O   0  0  0  0  0  0  0  0  0  0  0  0
    2.1610    0.0520    0.5300 C   0  0  0  0  0  0  0  0  0  0  0  0
    2.2650    0.2110   -0.7160 O   0  0  0  0  0  0  0  0  0  0  0  0
    3.3250   -0.1150    1.3120 N   0  0  0  0  0  0  0  0  0  0  0  0
    4.6060   -0.1050    0.7070 C   0  0  0  0  0  0  0  0  0  0  0  0
    5.5210   -1.0780    0.7080 C   0  0  0  0  0  0  0  0  0  0  0  0
    6.7210   -0.6770   -0.0320 C   0  0  0  0  0  0  0  0  0  0  0  0
    6.4060    0.6940   -0.4920 C   0  0  0  0  0  0  0  0  0  0  0  0
    5.2030    0.9820   -0.0550 C   0  0  0  0  0  0  0  0  0  0  0  0
  1  2  1  0
  2  3  1  0
  2 10  2  0
  3  4  1  0
  4  5  2  0
  4  9  1  0
  5  6  1  0
  6  7  2  0
  7  8  1  0
  8  9  2  0
  9 10  1  0
 10 11  1  0
 11 12  2  0
 11 13  1  0
 13 14  1  0
 14 15  1  0
 15 16  2  0
 15 17  1  0
 17 18  1  0
 18 19  2  0
 18 22  1  0
 19 20  1  0
 20 21  1  0
 21 22  2  0
M  END
