
     RDKit          3D

 22 24  0  0  0  0  0  0  0  0999 V2000
    7.1510    1.0220   -0.8790 C   0  0  0  0  0  0  0  0  0  0  0  0
    7.1030   -0.3460   -1.0280 O   0  0  0  0  0  0  0  0  0  0  0  0
    6.2650   -0.9410   -0.1260 C   0  0  0  0  0  0  0  0  0  0  0  0
    4.8440   -0.4630   -0.3150 C   0  0  0  0  0  0  0  0  0  0  0  0
    3.9650   -1.1160    0.6610 N   0  0  0  0  0  0  0  0  0  0  0  0
    2.5660   -0.8490    0.6060 C   0  0  0  0  0  0  0  0  0  0  0  0
    1.8130   -0.6540   -0.3710 N   0  0  0  0  0  0  0  0  0  0  0  0
    0.4630   -0.4040   -0.2010 C   0  0  0  0  0  0  0  0  0  0  0  0
   -0.3060   -0.2120   -1.2180 O   0  0  0  0  0  0  0  0  0  0  0  0
    0.0100   -0.3810    1.1510 C   0  0  0  0  0  0  0  0  0  0  0  0
   -1.1400   -0.1250    1.6730 C   0  0  0  0  0  0  0  0  0  0  0  0
   -2.3320    0.2340    0.9190 C   0  0  0  0  0  0  0  0  0  0  0  0
   -2.3890    1.2360   -0.0170 C   0  0  0  0  0  0  0  0  0  0  0  0
   -3.5120    1.5420   -0.7360 C   0  0  0  0  0  0  0  0  0  0  0  0
   -4.6920    0.8110   -0.5280 C   0  0  0  0  0  0  0  0  0  0  0  0
   -4.6880   -0.1880    0.3880 C   0  0  0  0  0  0  0  0  0  0  0  0
   -3.5260   -0.4720    1.1010 C   0  0  0  0  0  0  0  0  0  0  0  0
   -5.8840   -0.9940    0.6710 C   0  0  0  0  0  0  0  0  0  0  0  0
   -6.9670   -0.7030   -0.0070 C   0  0  0  0  0  0  0  0  0  0  0  0
   -6.9680    0.3100   -0.9330 O   0  0  0  0  0  0  0  0  0  0  0  0
   -5.9100    1.1330   -1.3020 C   0  0  0  0  0  0  0  0  0  0  0  0
    1.5040   -0.7810    2.0670 S   0  0  0  0  0  0  0  0  0  0  0  0
  1  2  1  0
  2  3  1  0
  3  4  1  0
  4  5  1  0
  5  6  1  0
  6  7  2  0
  6 22  1  0
  7  8  1  0
  8  9  2  0
  8 10  1  0
 10 11  2  3
 10 22  1  0
 11 12  1  0
 12 13  2  0
 12 17  1  0
 13 14  1  0
 14 15  2  0
 15 16  1  0
 15 21  1  0
 16 17  2  0
 16 18  1  0
 18 19  2  0
 19 20  1  0
 20 21  1  0
M  END
