
     RDKit          3D

 22 24  0  0  0  0  0  0  0  0999 V2000
    6.9100   -0.0330   -1.2130 C   0  0  0  0  0  0  0  0  0  0  0  0
    5.8070   -0.2470   -0.2890 C   0  0  0  0  0  0  0  0  0  0  0  0
    4.4450   -0.1370   -0.3650 C   0  0  0  0  0  0  0  0  0  0  0  0
    3.6500   -0.4100    0.6760 C   0  0  0  0  0  0  0  0  0  0  0  0
    2.1530   -0.3000    0.6240 C   0  0  0  0  0  0  0  0  0  0  0  0
    1.5110   -0.5790    1.6540 O   0  0  0  0  0  0  0  0  0  0  0  0
    1.4520    0.1210   -0.5870 C   0  0  0  0  0  0  0  0  0  0  0  0
    0.0360    0.1450   -0.3760 N   0  0  0  0  0  0  0  0  0  0  0  0
   -0.6840   -0.9610   -0.6260 C   0  0  0  0  0  0  0  0  0  0  0  0
   -0.0800   -1.9790   -1.0390 O   0  0  0  0  0  0  0  0  0  0  0  0
   -2.0450   -0.9170   -0.4170 C   0  0  0  0  0  0  0  0  0  0  0  0
   -2.6940    0.2080    0.0360 C   0  0  0  0  0  0  0  0  0  0  0  0
   -4.1480    0.2110    0.2460 C   0  0  0  0  0  0  0  0  0  0  0  0
   -4.8670    1.2330    0.6760 C   0  0  0  0  0  0  0  0  0  0  0  0
   -6.2760    0.7780    0.7330 C   0  0  0  0  0  0  0  0  0  0  0  0
   -6.2470   -0.6240    0.2810 C   0  0  0  0  0  0  0  0  0  0  0  0
   -5.0050   -0.9400    0.0010 C   0  0  0  0  0  0  0  0  0  0  0  0
   -1.9260    1.2860    0.2700 N   0  0  0  0  0  0  0  0  0  0  0  0
   -0.5870    1.2710    0.0730 C   0  0  0  0  0  0  0  0  0  0  0  0
    0.0490    2.3070    0.3130 O   0  0  0  0  0  0  0  0  0  0  0  0
    4.2520   -0.8210    1.8740 C   0  0  0  0  0  0  0  0  0  0  0  0
    6.0450   -0.8070    1.4650 S   0  0  0  0  0  0  0  0  0  0  0  0
  1  2  1  0
  2  3  2  0
  2 22  1  0
  3  4  1  0
  4  5  1  0
  4 21  2  0
  5  6  2  0
  5  7  1  0
  7  8  1  0
  8  9  1  0
  8 19  1  0
  9 10  2  0
  9 11  1  0
 11 12  2  0
 12 13  1  0
 12 18  1  0
 13 14  2  0
 13 17  1  0
 14 15  1  0
 15 16  1  0
 16 17  2  0
 18 19  1  0
 19 20  2  0
 21 22  1  0
M  END
