
     RDKit          3D

 22 22  0  0  0  0  0  0  0  0999 V2000
   -6.0750    1.1140    1.4080 C   0  0  0  0  0  0  0  0  0  0  0  0
   -5.2930    0.3650    0.3080 C   0  0  2  0  0  0  0  0  0  0  0  0
   -5.8990   -1.0470    0.3580 C   0  0  0  0  0  0  0  0  0  0  0  0
   -5.3630   -1.9000   -0.5570 O   0  0  0  0  0  0  0  0  0  0  0  0
   -3.8630    0.3200    0.7070 C   0  0  0  0  0  0  0  0  0  0  0  0
   -2.9020   -0.3090   -0.2290 C   0  0  1  0  0  0  0  0  0  0  0  0
   -2.8580    0.3040   -1.5320 N   0  0  0  0  0  0  0  0  0  0  0  0
   -1.5360   -0.1960    0.4560 C   0  0  0  0  0  0  0  0  0  0  0  0
   -0.4250   -0.7360   -0.4080 C   0  0  0  0  0  0  0  0  0  0  0  0
    0.8380   -0.5710    0.3150 C   0  0  0  0  0  0  0  0  0  0  0  0
    1.1760   -0.3540    1.3990 O   0  0  0  0  0  0  0  0  0  0  0  0
    2.1590   -0.7410   -0.8240 N   0  0  0  0  0  0  0  0  0  0  0  0
    3.2090   -0.4670    0.0820 C   0  0  0  0  0  0  0  0  0  0  0  0
    3.3120   -0.5100    1.2410 O   0  0  0  0  0  0  0  0  0  0  0  0
    4.3970   -0.0260   -0.7070 N   0  0  0  0  0  0  0  0  0  0  0  0
    5.6210    0.2740   -0.2150 C   0  0  0  0  0  0  0  0  0  0  0  0
    6.1120   -0.1420    0.9920 C   0  0  0  0  0  0  0  0  0  0  0  0
    7.4240    0.1720    1.3650 C   0  0  0  0  0  0  0  0  0  0  0  0
    8.2290    0.9040    0.5200 C   0  0  0  0  0  0  0  0  0  0  0  0
    7.7330    1.3100   -0.6690 N   0  0  0  0  0  0  0  0  0  0  0  0
    6.4880    1.0200   -1.0400 C   0  0  0  0  0  0  0  0  0  0  0  0
    6.0700    1.4220   -2.1520 O   0  0  0  0  0  0  0  0  0  0  0  0
  2  1  1  1
  2  3  1  0
  2  5  1  0
  3  4  1  0
  5  6  1  0
  6  7  1  6
  6  8  1  0
  8  9  1  0
  9 10  1  0
 10 11  2  0
 10 12  1  0
 12 13  1  0
 13 14  2  0
 13 15  1  0
 15 16  1  0
 16 17  2  0
 16 21  1  0
 17 18  1  0
 18 19  2  0
 19 20  1  0
 20 21  1  0
 21 22  2  0
M  CHG  1   7   1
M  END
