
     RDKit          3D

 24 26  0  0  0  0  0  0  0  0999 V2000
   -2.6590    4.0060   -1.3920 C   0  0  0  0  0  0  0  0  0  0  0  0
   -3.1840    2.8340   -0.6290 C   0  0  0  0  0  0  0  0  0  0  0  0
   -2.3010    1.7350   -0.6380 O   0  0  0  0  0  0  0  0  0  0  0  0
   -2.6170    0.5550    0.0240 C   0  0  0  0  0  0  0  0  0  0  0  0
   -3.8400    0.4890    0.6960 C   0  0  0  0  0  0  0  0  0  0  0  0
   -4.2070   -0.6560    1.3710 C   0  0  0  0  0  0  0  0  0  0  0  0
   -5.4950   -0.7900    2.1070 C   0  0  0  0  0  0  0  0  0  0  0  0
   -3.3610   -1.7490    1.3840 C   0  0  0  0  0  0  0  0  0  0  0  0
   -3.7690   -2.9960    2.1140 C   0  0  0  0  0  0  0  0  0  0  0  0
   -2.1730   -1.6490    0.7150 C   0  0  0  0  0  0  0  0  0  0  0  0
   -1.7560   -0.5230    0.0220 C   0  0  0  0  0  0  0  0  0  0  0  0
   -0.4800   -0.4690   -0.6750 C   0  0  0  0  0  0  0  0  0  0  0  0
   -0.2030    0.1880   -1.7800 N   0  0  0  0  0  0  0  0  0  0  0  0
    1.1840   -0.0270   -2.1390 C   0  0  0  0  0  0  0  0  0  0  0  0
    2.1330   -0.0520   -3.0430 C   0  0  0  0  0  0  0  0  0  0  0  0
    3.4360   -0.4340   -2.4460 C   0  0  0  0  0  0  0  0  0  0  0  0
    2.9740   -1.1030   -1.2010 N   0  0  0  0  0  0  0  0  0  0  0  0
    4.0260   -1.1930   -0.2410 C   0  0  0  0  0  0  0  0  0  0  0  0
    4.4730    0.1110    0.3520 C   0  0  0  0  0  0  0  0  0  0  0  0
    5.6060   -0.2030    1.3240 C   0  0  0  0  0  0  0  0  0  0  0  0
    6.0630    1.0600    1.9350 C   0  0  0  0  0  0  0  0  0  0  0  0
    5.2740    1.8290    2.4730 O   0  0  0  0  0  0  0  0  0  0  0  0
    1.8240   -0.3660   -0.8250 C   0  0  2  0  0  0  0  0  0  0  0  0
    0.7300   -1.1250   -0.2440 N   0  0  0  0  0  0  0  0  0  0  0  0
  1  2  1  0
  2  3  1  0
  3  4  1  0
  4  5  2  0
  4 11  1  0
  5  6  1  0
  6  7  1  0
  6  8  2  0
  8  9  1  0
  8 10  1  0
 10 11  2  0
 11 12  1  0
 12 13  2  0
 12 24  1  0
 13 14  1  0
 14 15  2  0
 14 23  1  0
 15 16  1  0
 16 17  1  0
 17 18  1  0
 17 23  1  0
 18 19  1  0
 19 20  1  0
 20 21  1  0
 21 22  2  0
 23 24  1  1
M  END
