
     RDKit          3D

 24 26  0  0  0  0  0  0  0  0999 V2000
   -4.9050   -1.9730    1.8930 C   0  0  0  0  0  0  0  0  0  0  0  0
   -3.9290   -1.0160    2.1840 O   0  0  0  0  0  0  0  0  0  0  0  0
   -3.0940   -0.4480    1.2320 C   0  0  0  0  0  0  0  0  0  0  0  0
   -2.1550    0.4950    1.6240 C   0  0  0  0  0  0  0  0  0  0  0  0
   -1.3030    1.0880    0.7190 C   0  0  0  0  0  0  0  0  0  0  0  0
   -1.3970    0.7190   -0.6370 C   0  0  0  0  0  0  0  0  0  0  0  0
   -2.3300   -0.2230   -1.0520 C   0  0  0  0  0  0  0  0  0  0  0  0
   -3.1390   -0.7690   -0.1110 C   0  0  0  0  0  0  0  0  0  0  0  0
   -2.3830   -0.5570   -2.4880 C   0  0  0  0  0  0  0  0  0  0  0  0
   -1.6350    0.3320   -3.3950 C   0  0  0  0  0  0  0  0  0  0  0  0
   -1.1690    1.6460   -2.8720 C   0  0  0  0  0  0  0  0  0  0  0  0
   -0.5440    1.3490   -1.5660 N   0  0  0  0  0  0  0  0  0  0  0  0
    0.7910    1.6120   -1.2900 C   0  0  0  0  0  0  0  0  0  0  0  0
    1.3020    2.5390   -2.0600 O   0  0  0  0  0  0  0  0  0  0  0  0
    1.7030    1.0740   -0.3450 C   0  0  0  0  0  0  0  0  0  0  0  0
    2.9350    1.6840   -0.0560 C   0  0  0  0  0  0  0  0  0  0  0  0
    3.8470    1.1290    0.8080 C   0  0  0  0  0  0  0  0  0  0  0  0
    3.5910   -0.0570    1.4330 C   0  0  0  0  0  0  0  0  0  0  0  0
    4.7980   -0.7130    2.5280 S   0  0  1  0  0  0  0  0  0  0  0  0
    5.9090   -1.7380    1.6970 N   0  0  0  0  0  0  0  0  0  0  0  0
    5.4960    0.4180    3.1900 O   0  0  0  0  0  0  0  0  0  0  0  0
    4.1480   -1.5430    3.6120 O   0  0  0  0  0  0  0  0  0  0  0  0
    2.4050   -0.6890    1.1830 C   0  0  0  0  0  0  0  0  0  0  0  0
    1.4850   -0.1100    0.2970 C   0  0  0  0  0  0  0  0  0  0  0  0
  1  2  1  0
  2  3  1  0
  3  4  2  0
  3  8  1  0
  4  5  1  0
  5  6  2  0
  6  7  1  0
  6 12  1  0
  7  8  2  0
  7  9  1  0
  9 10  1  0
 10 11  1  0
 11 12  1  0
 12 13  1  0
 13 14  2  0
 13 15  1  0
 15 16  2  0
 15 24  1  0
 16 17  1  0
 17 18  2  0
 18 19  1  0
 18 23  1  0
 19 20  1  6
 19 21  2  0
 19 22  2  0
 23 24  2  0
M  END
