
     RDKit          3D

 22 22  0  0  0  0  0  0  0  0999 V2000
   -4.3830   -1.2620    1.3640 C   0  0  0  0  0  0  0  0  0  0  0  0
   -4.5890   -0.8580   -0.0670 C   0  0  0  0  0  0  0  0  0  0  0  0
   -3.4880    0.0640   -0.5220 C   0  0  1  0  0  0  0  0  0  0  0  0
   -3.7770    0.3800   -1.8750 O   0  0  0  0  0  0  0  0  0  0  0  0
   -3.4280    1.3450    0.2860 C   0  0  0  0  0  0  0  0  0  0  0  0
   -4.7230    1.9840    0.1820 N   0  0  0  0  0  0  0  0  0  0  0  0
   -2.2200   -0.6920   -0.5080 C   0  0  0  0  0  0  0  0  0  0  0  0
   -1.6860   -1.1060    0.5570 O   0  0  0  0  0  0  0  0  0  0  0  0
   -1.5720   -0.9680   -1.7520 N   0  0  0  0  0  0  0  0  0  0  0  0
   -0.3340   -1.6980   -1.8180 C   0  0  0  0  0  0  0  0  0  0  0  0
    0.6940   -0.9050   -1.0310 C   0  0  0  0  0  0  0  0  0  0  0  0
    0.3450    0.1610   -0.5010 O   0  0  0  0  0  0  0  0  0  0  0  0
    2.0090   -1.3850   -0.9180 N   0  0  0  0  0  0  0  0  0  0  0  0
    3.0250   -0.7110   -0.2110 C   0  0  0  0  0  0  0  0  0  0  0  0
    4.2310   -1.4060    0.0080 C   0  0  0  0  0  0  0  0  0  0  0  0
    5.3000   -0.8780    0.6630 C   0  0  0  0  0  0  0  0  0  0  0  0
    5.2500    0.4330    1.1690 C   0  0  0  0  0  0  0  0  0  0  0  0
    6.3570    0.9500    1.8550 N   0  0  0  0  0  0  0  0  0  0  0  0
    6.5640    2.3120    2.1430 C   0  0  0  0  0  0  0  0  0  0  0  0
    5.7820    3.2070    1.8120 O   0  0  0  0  0  0  0  0  0  0  0  0
    4.0880    1.1290    0.9680 C   0  0  0  0  0  0  0  0  0  0  0  0
    2.9980    0.5510    0.2850 C   0  0  0  0  0  0  0  0  0  0  0  0
  1  2  1  0
  2  3  1  0
  3  4  1  6
  3  5  1  0
  3  7  1  0
  5  6  1  0
  7  8  2  0
  7  9  1  0
  9 10  1  0
 10 11  1  0
 11 12  2  0
 11 13  1  0
 13 14  1  0
 14 15  2  0
 14 22  1  0
 15 16  1  0
 16 17  2  0
 17 18  1  0
 17 21  1  0
 18 19  1  0
 19 20  2  0
 21 22  2  0
M  CHG  1   6   1
M  END
