
     RDKit          3D

 15 15  0  0  0  0  0  0  0  0999 V2000
   -2.2300   -0.7570   -2.8560 C   0  0  0  0  0  0  0  0  0  0  0  0
   -1.5520   -0.7760   -1.7310 C   0  0  0  0  0  0  0  0  0  0  0  0
   -0.0990   -0.7040   -1.7690 C   0  0  0  0  0  0  0  0  0  0  0  0
    0.5130   -0.2560   -0.4000 C   0  0  1  0  0  0  0  0  0  0  0  0
    1.8030    0.3460   -0.7800 C   0  0  0  0  0  0  0  0  0  0  0  0
    2.7430    0.8810    0.1890 C   0  0  0  0  0  0  0  0  0  0  0  0
    3.2600   -0.0530    1.2380 C   0  0  0  0  0  0  0  0  0  0  0  0
    3.9970   -1.2370    0.6440 C   0  0  0  0  0  0  0  0  0  0  0  0
   -0.5040    0.5740    0.1660 N   0  0  2  0  0  0  0  0  0  0  0  0
   -0.1610    1.4110    1.2660 C   0  0  0  0  0  0  0  0  0  0  0  0
   -0.1200    2.8900    0.8550 C   0  0  0  0  0  0  0  0  0  0  0  0
   -1.5110   -0.3800    0.7200 C   0  0  0  0  0  0  0  0  0  0  0  0
   -2.2710   -0.8680   -0.4710 C   0  0  0  0  0  0  0  0  0  0  0  0
   -3.4950   -1.3440   -0.3660 C   0  0  0  0  0  0  0  0  0  0  0  0
   -4.1050   -1.3750    1.0030 C   0  0  0  0  0  0  0  0  0  0  0  0
  1  2  2  0
  2  3  1  0
  2 13  1  0
  3  4  1  0
  4  5  1  6
  4  9  1  0
  5  6  1  0
  6  7  1  0
  7  8  1  0
  9 10  1  1
  9 12  1  0
 10 11  1  0
 12 13  1  0
 13 14  2  3
 14 15  1  0
M  CHG  1   9   1
M  END
