
     RDKit          3D

 22 24  0  0  0  0  0  0  0  0999 V2000
    6.4520    1.1840   -0.2890 N   0  0  0  0  0  0  0  0  0  0  0  0
    5.6810   -0.2330   -0.9170 S   0  0  1  0  0  0  0  0  0  0  0  0
    5.6500   -0.2510   -2.4050 O   0  0  0  0  0  0  0  0  0  0  0  0
    6.3980   -1.4410   -0.3490 O   0  0  0  0  0  0  0  0  0  0  0  0
    4.0520   -0.2670   -0.2450 C   0  0  0  0  0  0  0  0  0  0  0  0
    3.7800   -0.8970    0.9390 C   0  0  0  0  0  0  0  0  0  0  0  0
    2.5550   -0.9540    1.4990 C   0  0  0  0  0  0  0  0  0  0  0  0
    1.4590   -0.3430    0.8630 C   0  0  0  0  0  0  0  0  0  0  0  0
    0.1310   -0.4720    1.4600 C   0  0  0  0  0  0  0  0  0  0  0  0
    0.0900   -1.4000    2.3740 O   0  0  0  0  0  0  0  0  0  0  0  0
   -1.0430    0.2070    1.2200 N   0  0  0  0  0  0  0  0  0  0  0  0
   -1.2610    1.3150    0.3430 C   0  0  0  0  0  0  0  0  0  0  0  0
   -1.9640    0.7450   -0.8780 C   0  0  0  0  0  0  0  0  0  0  0  0
   -3.2630    0.2230   -0.3950 C   0  0  0  0  0  0  0  0  0  0  0  0
   -4.3120    0.2430   -1.2940 C   0  0  0  0  0  0  0  0  0  0  0  0
   -5.5550   -0.2240   -0.9260 C   0  0  0  0  0  0  0  0  0  0  0  0
   -5.7020   -0.7030    0.3570 C   0  0  0  0  0  0  0  0  0  0  0  0
   -4.6550   -0.7200    1.2490 C   0  0  0  0  0  0  0  0  0  0  0  0
   -3.3890   -0.2470    0.8810 C   0  0  0  0  0  0  0  0  0  0  0  0
   -2.2760   -0.2890    1.8940 C   0  0  0  0  0  0  0  0  0  0  0  0
    1.7200    0.2900   -0.3250 C   0  0  0  0  0  0  0  0  0  0  0  0
    2.9950    0.3290   -0.8730 C   0  0  0  0  0  0  0  0  0  0  0  0
  2  1  1  6
  2  3  2  0
  2  4  2  0
  2  5  1  0
  5  6  2  0
  5 22  1  0
  6  7  1  0
  7  8  2  0
  8  9  1  0
  8 21  1  0
  9 10  2  0
  9 11  1  0
 11 12  1  0
 11 20  1  0
 12 13  1  0
 13 14  1  0
 14 15  2  0
 14 19  1  0
 15 16  1  0
 16 17  2  0
 17 18  1  0
 18 19  2  0
 19 20  1  0
 21 22  2  0
M  END
