
     RDKit          3D

 22 25  0  0  0  0  0  0  0  0999 V2000
   -5.8760    1.3670   -0.4860 O   0  0  0  0  0  0  0  0  0  0  0  0
   -4.7280    0.9560   -0.2130 C   0  0  0  0  0  0  0  0  0  0  0  0
   -3.9250    1.6840    0.8260 C   0  0  0  0  0  0  0  0  0  0  0  0
   -2.9320    0.7230    1.3990 C   0  0  0  0  0  0  0  0  0  0  0  0
   -1.7070    0.5920    0.6330 N   0  0  0  0  0  0  0  0  0  0  0  0
   -0.7640   -0.0940    1.4590 C   0  0  0  0  0  0  0  0  0  0  0  0
    0.6100   -0.1670    0.9070 C   0  0  0  0  0  0  0  0  0  0  0  0
    1.0170    0.4210   -0.2620 C   0  0  0  0  0  0  0  0  0  0  0  0
    2.3290    0.3570   -0.7490 C   0  0  0  0  0  0  0  0  0  0  0  0
    2.9150    0.8310   -1.8100 O   0  0  0  0  0  0  0  0  0  0  0  0
    4.2170    0.4860   -1.8210 C   0  0  0  0  0  0  0  0  0  0  0  0
    5.2900    0.7170   -2.6940 C   0  0  0  0  0  0  0  0  0  0  0  0
    6.6400   -0.0840   -1.9610 S   0  0  0  0  0  0  0  0  0  0  0  0
    5.7390   -0.7050   -0.5110 C   0  0  0  0  0  0  0  0  0  0  0  0
    4.4690   -0.2260   -0.7410 C   0  0  0  0  0  0  0  0  0  0  0  0
    3.2520   -0.3360   -0.0040 C   0  0  0  0  0  0  0  0  0  0  0  0
    2.8860   -0.9370    1.1700 C   0  0  0  0  0  0  0  0  0  0  0  0
    1.5900   -0.8620    1.6310 C   0  0  0  0  0  0  0  0  0  0  0  0
    1.1990   -1.4650    2.8200 O   0  0  0  0  0  0  0  0  0  0  0  0
   -1.8950   -0.1690   -0.5780 C   0  0  0  0  0  0  0  0  0  0  0  0
   -3.1480   -1.0130   -0.6030 C   0  0  0  0  0  0  0  0  0  0  0  0
   -4.2950   -0.1980   -0.9420 N   0  0  0  0  0  0  0  0  0  0  0  0
  1  2  2  0
  2  3  1  0
  2 22  1  0
  3  4  1  0
  4  5  1  0
  5  6  1  0
  5 20  1  0
  6  7  1  0
  7  8  2  0
  7 18  1  0
  8  9  1  0
  9 10  1  0
  9 16  2  0
 10 11  1  0
 11 12  2  0
 11 15  1  0
 12 13  1  0
 13 14  1  0
 14 15  2  0
 15 16  1  0
 16 17  1  0
 17 18  2  0
 18 19  1  0
 20 21  1  0
 21 22  1  0
M  END
