
     RDKit          3D

 22 24  0  0  0  0  0  0  0  0999 V2000
   -1.2950   -2.4410   -2.4200 O   0  0  0  0  0  0  0  0  0  0  0  0
   -2.0000   -1.5480   -1.9090 C   0  0  0  0  0  0  0  0  0  0  0  0
   -3.3640   -1.5970   -2.0460 C   0  0  0  0  0  0  0  0  0  0  0  0
   -4.1170   -2.7820   -2.8560 S   0  0  0  0  0  0  0  0  0  0  0  0
   -4.1320   -0.6340   -1.4950 N   0  0  0  0  0  0  0  0  0  0  0  0
   -3.5690    0.3550   -0.8250 C   0  0  0  0  0  0  0  0  0  0  0  0
   -4.3520    1.3280   -0.2670 C   0  0  0  0  0  0  0  0  0  0  0  0
   -3.8260    2.3970    0.4540 C   0  0  0  0  0  0  0  0  0  0  0  0
   -2.4670    2.4580    0.5980 C   0  0  0  0  0  0  0  0  0  0  0  0
   -1.6260    1.4840    0.0430 C   0  0  0  0  0  0  0  0  0  0  0  0
   -2.1800    0.4430   -0.6610 C   0  0  0  0  0  0  0  0  0  0  0  0
   -1.4460   -0.5110   -1.2090 N   0  0  0  0  0  0  0  0  0  0  0  0
   -0.0210   -0.5230   -1.1080 C   0  0  0  0  0  0  0  0  0  0  0  0
    0.3160   -1.3000    0.1510 C   0  0  0  0  0  0  0  0  0  0  0  0
    1.6380   -1.4210    0.3500 O   0  0  0  0  0  0  0  0  0  0  0  0
    2.6900   -0.6280    0.5860 C   0  0  0  0  0  0  0  0  0  0  0  0
    2.6670    0.7440    0.7310 C   0  0  0  0  0  0  0  0  0  0  0  0
    3.8130    1.4830    0.9710 C   0  0  0  0  0  0  0  0  0  0  0  0
    5.0390    0.8890    1.0770 C   0  0  0  0  0  0  0  0  0  0  0  0
    5.0710   -0.4810    0.9340 C   0  0  0  0  0  0  0  0  0  0  0  0
    3.9560   -1.2240    0.6980 C   0  0  0  0  0  0  0  0  0  0  0  0
    3.9870   -2.6110    0.5530 O   0  0  0  0  0  0  0  0  0  0  0  0
  1  2  2  0
  2  3  1  0
  2 12  1  0
  3  4  2  0
  3  5  1  0
  5  6  1  0
  6  7  2  0
  6 11  1  0
  7  8  1  0
  8  9  2  0
  9 10  1  0
 10 11  2  0
 11 12  1  0
 12 13  1  0
 13 14  1  0
 14 15  1  0
 15 16  1  0
 16 17  2  0
 16 21  1  0
 17 18  1  0
 18 19  2  0
 19 20  1  0
 20 21  2  0
 21 22  1  0
M  END
