
     RDKit          3D

 22 24  0  0  0  0  0  0  0  0999 V2000
    6.4550    0.8440   -1.2360 C   0  0  0  0  0  0  0  0  0  0  0  0
    5.2460    0.3790   -0.5130 C   0  0  0  0  0  0  0  0  0  0  0  0
    4.7660   -0.8850   -0.7480 C   0  0  0  0  0  0  0  0  0  0  0  0
    3.6380   -1.2920   -0.0610 C   0  0  0  0  0  0  0  0  0  0  0  0
    2.9920   -0.4770    0.8400 C   0  0  0  0  0  0  0  0  0  0  0  0
    1.7940   -0.8640    1.5920 C   0  0  0  0  0  0  0  0  0  0  0  0
    0.5340   -0.5250    0.8710 C   0  0  0  0  0  0  0  0  0  0  0  0
    0.5880    0.0200   -0.2300 O   0  0  0  0  0  0  0  0  0  0  0  0
   -0.7060   -0.8350    1.4640 N   0  0  0  0  0  0  0  0  0  0  0  0
   -1.9880   -0.5820    0.9180 C   0  0  0  0  0  0  0  0  0  0  0  0
   -3.0820   -1.0030    1.6860 C   0  0  0  0  0  0  0  0  0  0  0  0
   -4.3830   -0.8220    1.2820 C   0  0  0  0  0  0  0  0  0  0  0  0
   -4.6210   -0.2070    0.0860 C   0  0  0  0  0  0  0  0  0  0  0  0
   -3.6040    0.2300   -0.7150 C   0  0  0  0  0  0  0  0  0  0  0  0
   -2.2830    0.0200   -0.2550 C   0  0  0  0  0  0  0  0  0  0  0  0
   -4.0040    0.8390   -1.9220 N   0  0  0  0  0  0  0  0  0  0  0  0
   -5.3160    1.4460   -1.8610 C   0  0  0  0  0  0  0  0  0  0  0  0
   -6.1060    0.2280   -0.7820 S   0  0  1  0  0  0  0  0  0  0  0  0
   -6.6380   -0.9150   -1.5590 O   0  0  0  0  0  0  0  0  0  0  0  0
   -7.0900    0.8760    0.1160 O   0  0  0  0  0  0  0  0  0  0  0  0
    3.5070    0.7870    1.0470 C   0  0  0  0  0  0  0  0  0  0  0  0
    4.6370    1.2360    0.3790 C   0  0  0  0  0  0  0  0  0  0  0  0
  1  2  1  0
  2  3  2  0
  2 22  1  0
  3  4  1  0
  4  5  2  0
  5  6  1  0
  5 21  1  0
  6  7  1  0
  7  8  2  0
  7  9  1  0
  9 10  1  0
 10 11  2  0
 10 15  1  0
 11 12  1  0
 12 13  2  0
 13 14  1  0
 13 18  1  0
 14 15  2  0
 14 16  1  0
 16 17  1  0
 18 17  1  6
 18 19  2  0
 18 20  2  0
 21 22  2  0
M  END
