
     RDKit          3D

 19 20  0  0  0  0  0  0  0  0999 V2000
    3.9840    1.1990   -0.3210 C   0  0  0  0  0  0  0  0  0  0  0  0
    2.9790    0.2600   -0.9040 C   0  0  0  0  0  0  0  0  0  0  0  0
    1.9510   -0.2180    0.0890 C   0  0  2  0  0  0  0  0  0  0  0  0
    2.6640   -0.9480    1.2240 C   0  0  0  0  0  0  0  0  0  0  0  0
    1.0930   -1.2380   -0.6220 C   0  0  0  0  0  0  0  0  0  0  0  0
   -0.2670   -1.2570   -0.1470 N   0  0  0  0  0  0  0  0  0  0  0  0
   -0.8930    0.0240   -0.3840 C   0  0  1  0  0  0  0  0  0  0  0  0
   -2.3000    0.0190   -0.1230 N   0  0  0  0  0  0  0  0  0  0  0  0
   -3.1550    0.1020   -1.1570 C   0  0  0  0  0  0  0  0  0  0  0  0
   -2.7350    0.1850   -2.3600 O   0  0  0  0  0  0  0  0  0  0  0  0
   -4.4760    0.1020   -0.9750 N   0  0  0  0  0  0  0  0  0  0  0  0
   -4.9790    0.0170    0.2660 C   0  0  0  0  0  0  0  0  0  0  0  0
   -6.2360    0.0140    0.4760 O   0  0  0  0  0  0  0  0  0  0  0  0
   -4.1360   -0.0670    1.3090 N   0  0  0  0  0  0  0  0  0  0  0  0
   -2.8040   -0.0670    1.1390 C   0  0  0  0  0  0  0  0  0  0  0  0
   -1.7520   -0.1670    2.3700 S   0  0  0  0  0  0  0  0  0  0  0  0
   -0.1730    1.0290    0.4130 C   0  0  0  0  0  0  0  0  0  0  0  0
   -0.7770    2.0230    0.8420 O   0  0  0  0  0  0  0  0  0  0  0  0
    1.1930    0.8420    0.6750 N   0  0  0  0  0  0  0  0  0  0  0  0
  1  2  1  0
  2  3  1  0
  3  4  1  1
  3  5  1  0
  3 19  1  0
  5  6  1  0
  6  7  1  0
  7  8  1  1
  7 17  1  0
  8  9  1  0
  8 15  1  0
  9 10  2  0
  9 11  1  0
 11 12  1  0
 12 13  2  0
 12 14  1  0
 14 15  1  0
 15 16  2  0
 17 18  2  0
 17 19  1  0
M  END
