
     RDKit          3D

 24 26  0  0  0  0  0  0  0  0999 V2000
    6.9460    0.0470   -0.4690 N   0  0  0  0  0  0  0  0  0  0  0  0
    5.9320    1.4440   -0.3920 S   0  0  2  0  0  0  0  0  0  0  0  0
    5.8730    2.1350   -1.7440 O   0  0  0  0  0  0  0  0  0  0  0  0
    6.4760    2.4420    0.5740 O   0  0  0  0  0  0  0  0  0  0  0  0
    4.3300    0.9110    0.0410 C   0  0  0  0  0  0  0  0  0  0  0  0
    3.9290    0.8180    1.3610 C   0  0  0  0  0  0  0  0  0  0  0  0
    2.6850    0.4060    1.7350 C   0  0  0  0  0  0  0  0  0  0  0  0
    1.7250    0.0430    0.7520 C   0  0  0  0  0  0  0  0  0  0  0  0
    0.4200   -0.3660    1.1690 C   0  0  0  0  0  0  0  0  0  0  0  0
    0.2170   -0.2630    2.4660 O   0  0  0  0  0  0  0  0  0  0  0  0
   -0.6400   -0.8430    0.4370 N   0  0  0  0  0  0  0  0  0  0  0  0
   -0.6590   -1.0650   -0.9700 C   0  0  0  0  0  0  0  0  0  0  0  0
   -1.9820   -1.7410   -1.4050 C   0  0  0  0  0  0  0  0  0  0  0  0
   -3.0780   -0.8890   -0.9240 C   0  0  0  0  0  0  0  0  0  0  0  0
   -4.0870   -0.4050   -1.6950 C   0  0  0  0  0  0  0  0  0  0  0  0
   -5.0670    0.3870   -1.1060 C   0  0  0  0  0  0  0  0  0  0  0  0
   -6.1110    0.8990   -1.8580 O   0  0  0  0  0  0  0  0  0  0  0  0
   -5.0450    0.6980    0.2410 C   0  0  0  0  0  0  0  0  0  0  0  0
   -6.0340    1.4880    0.7970 O   0  0  0  0  0  0  0  0  0  0  0  0
   -4.0100    0.2010    1.0290 C   0  0  0  0  0  0  0  0  0  0  0  0
   -3.0450   -0.5810    0.4430 C   0  0  0  0  0  0  0  0  0  0  0  0
   -1.8980   -1.1490    1.2060 C   0  0  0  0  0  0  0  0  0  0  0  0
    2.1570    0.1480   -0.5390 C   0  0  0  0  0  0  0  0  0  0  0  0
    3.4270    0.5690   -0.9300 C   0  0  0  0  0  0  0  0  0  0  0  0
  2  1  1  6
  2  3  2  0
  2  4  2  0
  2  5  1  0
  5  6  2  0
  5 24  1  0
  6  7  1  0
  7  8  2  0
  8  9  1  0
  8 23  1  0
  9 10  2  0
  9 11  1  0
 11 12  1  0
 11 22  1  0
 12 13  1  0
 13 14  1  0
 14 15  2  0
 14 21  1  0
 15 16  1  0
 16 17  1  0
 16 18  2  0
 18 19  1  0
 18 20  1  0
 20 21  2  0
 21 22  1  0
 23 24  2  0
M  END
