
     RDKit          3D

 19 20  0  0  0  0  0  0  0  0999 V2000
   -3.5450    1.9190    1.1360 N   0  0  0  0  0  0  0  0  0  0  0  0
   -4.1950    0.7400    0.6010 C   0  0  0  0  0  0  0  0  0  0  0  0
   -3.1620   -0.1080   -0.0050 C   0  0  0  0  0  0  0  0  0  0  0  0
   -3.1970   -0.4280   -1.2930 C   0  0  0  0  0  0  0  0  0  0  0  0
   -2.1630   -1.2600   -1.8450 N   0  0  0  0  0  0  0  0  0  0  0  0
   -0.7780   -1.0540   -1.4020 C   0  0  0  0  0  0  0  0  0  0  0  0
   -0.7310   -0.4680   -0.0230 C   0  0  2  0  0  0  0  0  0  0  0  0
    0.6460   -1.1710    0.8870 S   0  0  0  0  0  0  0  0  0  0  0  0
    2.1930   -0.6440    0.1700 C   0  0  0  0  0  0  0  0  0  0  0  0
    2.1410    0.1800   -0.8950 N   0  0  0  0  0  0  0  0  0  0  0  0
    3.1150    1.0240   -1.3420 C   0  0  0  0  0  0  0  0  0  0  0  0
    2.8540    1.6100   -2.4020 O   0  0  0  0  0  0  0  0  0  0  0  0
    4.3390    1.2790   -0.7320 C   0  0  0  0  0  0  0  0  0  0  0  0
    4.9550    2.2870   -1.1850 O   0  0  0  0  0  0  0  0  0  0  0  0
    4.9350    0.6020    0.2570 N   0  0  0  0  0  0  0  0  0  0  0  0
    4.5230   -0.5440    0.8250 C   0  0  0  0  0  0  0  0  0  0  0  0
    5.3480   -1.2000    1.5090 O   0  0  0  0  0  0  0  0  0  0  0  0
    3.2920   -1.1160    0.7600 N   0  0  0  0  0  0  0  0  0  0  0  0
   -2.0010   -0.6740    0.7600 C   0  0  0  0  0  0  0  0  0  0  0  0
  1  2  1  0
  2  3  1  0
  3  4  2  0
  3 19  1  0
  4  5  1  0
  5  6  1  0
  6  7  1  0
  7  8  1  1
  7 19  1  0
  8  9  1  0
  9 10  2  0
  9 18  1  0
 10 11  1  0
 11 12  2  0
 11 13  1  0
 13 14  2  0
 13 15  1  0
 15 16  1  0
 16 17  2  0
 16 18  1  0
M  END
