
     RDKit          3D

 19 20  0  0  0  0  0  0  0  0999 V2000
    2.5400    4.0140   -0.8360 C   0  0  0  0  0  0  0  0  0  0  0  0
    1.7030    2.8760   -0.6250 O   0  0  0  0  0  0  0  0  0  0  0  0
    2.2050    1.7540    0.0130 C   0  0  0  0  0  0  0  0  0  0  0  0
    3.3940    1.7770    0.3890 O   0  0  0  0  0  0  0  0  0  0  0  0
    1.3490    0.5910    0.2280 C   0  0  0  0  0  0  0  0  0  0  0  0
    1.8220   -0.4810    0.8360 C   0  0  0  0  0  0  0  0  0  0  0  0
    3.2510   -0.5240    1.3170 C   0  0  0  0  0  0  0  0  0  0  0  0
    0.9630   -1.5970    1.0300 N   0  0  0  0  0  0  0  0  0  0  0  0
   -0.4130   -1.6650    0.6130 C   0  0  2  0  0  0  0  0  0  0  0  0
   -0.6890   -2.8040   -0.1400 O   0  0  0  0  0  0  0  0  0  0  0  0
   -1.5060   -3.6660    0.4460 N   0  0  0  0  0  0  0  0  0  0  0  0
   -0.8840   -0.4320   -0.0620 C   0  0  0  0  0  0  0  0  0  0  0  0
   -2.2670   -0.3570   -0.5420 C   0  0  0  0  0  0  0  0  0  0  0  0
   -3.1540   -1.3520   -0.4080 N   0  0  0  0  0  0  0  0  0  0  0  0
   -4.3090   -1.0230   -0.9210 N   0  0  0  0  0  0  0  0  0  0  0  0
   -4.1540    0.2300   -1.4020 C   0  0  0  0  0  0  0  0  0  0  0  0
   -5.3070    1.0870   -2.1390 S   0  0  0  0  0  0  0  0  0  0  0  0
   -2.8940    0.6400   -1.1680 N   0  0  0  0  0  0  0  0  0  0  0  0
   -0.0380    0.5680   -0.2110 C   0  0  0  0  0  0  0  0  0  0  0  0
  1  2  1  0
  2  3  1  0
  3  4  2  0
  3  5  1  0
  5  6  2  0
  5 19  1  0
  6  7  1  0
  6  8  1  0
  8  9  1  0
  9 10  1  6
  9 12  1  0
 10 11  1  0
 12 13  1  0
 12 19  2  0
 13 14  2  0
 13 18  1  0
 14 15  1  0
 15 16  1  0
 16 17  2  0
 16 18  1  0
M  END
