
     RDKit          3D

 19 21  0  0  0  0  0  0  0  0999 V2000
   -2.7650   -1.6300   -2.2910 O   0  0  0  0  0  0  0  0  0  0  0  0
   -2.7950   -0.9210   -1.2350 C   0  0  0  0  0  0  0  0  0  0  0  0
   -4.0850   -0.6200   -0.6900 N   0  0  0  0  0  0  0  0  0  0  0  0
   -4.3540   -0.2060    0.6750 C   0  0  0  0  0  0  0  0  0  0  0  0
   -3.6590    1.1060    0.9870 C   0  0  0  0  0  0  0  0  0  0  0  0
   -2.2320    0.8880    1.2420 N   0  0  0  0  0  0  0  0  0  0  0  0
   -1.2460    0.3050    0.3990 C   0  0  0  0  0  0  0  0  0  0  0  0
    0.0120    0.5730    0.7200 N   0  0  0  0  0  0  0  0  0  0  0  0
    1.0750    0.0950    0.0170 C   0  0  0  0  0  0  0  0  0  0  0  0
    2.4490    0.4220    0.4160 C   0  0  1  0  0  0  0  0  0  0  0  0
    3.0490   -0.7090    1.2180 C   0  0  0  0  0  0  0  0  0  0  0  0
    4.4980   -1.4260    0.4200 S   0  0  0  0  0  0  0  0  0  0  0  0
    5.3550   -0.1930   -0.3650 O   0  0  0  0  0  0  0  0  0  0  0  0
    4.6170    1.0120   -0.4210 C   0  0  0  0  0  0  0  0  0  0  0  0
    3.2420    0.7900   -0.7160 N   0  0  0  0  0  0  0  0  0  0  0  0
    0.7870   -0.6790   -1.0400 N   0  0  0  0  0  0  0  0  0  0  0  0
   -0.4610   -0.9910   -1.4210 C   0  0  0  0  0  0  0  0  0  0  0  0
   -0.6620   -1.7150   -2.4130 O   0  0  0  0  0  0  0  0  0  0  0  0
   -1.5000   -0.4950   -0.6960 C   0  0  0  0  0  0  0  0  0  0  0  0
  1  2  2  0
  2  3  1  0
  2 19  1  0
  3  4  1  0
  4  5  1  0
  5  6  1  0
  6  7  1  0
  7  8  1  0
  7 19  2  0
  8  9  2  0
 10  9  1  6
  9 16  1  0
 10 11  1  0
 10 15  1  0
 11 12  1  0
 12 13  1  0
 13 14  1  0
 14 15  1  0
 16 17  1  0
 17 18  2  0
 17 19  1  0
M  END
