
     RDKit          3D

 36 38  0  0  0  0  0  0  0  0999 V2000
   10.3510   -0.9970   -0.2850 C   0  0  0  0  0  0  0  0  0  0  0  0
    9.0520   -0.8870   -0.4450 C   0  0  0  0  0  0  0  0  0  0  0  0
    8.4160   -2.0540   -0.8900 C   0  0  0  0  0  0  0  0  0  0  0  0
    7.0570   -2.1150   -0.9260 C   0  0  0  0  0  0  0  0  0  0  0  0
    6.3570   -1.0080   -0.5150 C   0  0  0  0  0  0  0  0  0  0  0  0
    4.9410   -1.1110   -0.5760 N   0  0  0  0  0  0  0  0  0  0  0  0
    3.9960   -0.2780    0.0410 C   0  0  0  0  0  0  0  0  0  0  0  0
    4.3370    0.6780    0.7450 O   0  0  0  0  0  0  0  0  0  0  0  0
    2.5470   -0.5480   -0.1510 C   0  0  0  0  0  0  0  0  0  0  0  0
    2.1730   -1.5100   -0.8590 O   0  0  0  0  0  0  0  0  0  0  0  0
    1.5700    0.2690    0.4550 N   0  0  0  0  0  0  0  0  0  0  0  0
    0.1700    0.1270    0.3560 C   0  0  0  0  0  0  0  0  0  0  0  0
   -0.5170   -0.8200   -0.3370 C   0  0  0  0  0  0  0  0  0  0  0  0
   -1.9170   -0.8970   -0.3880 C   0  0  0  0  0  0  0  0  0  0  0  0
   -2.4740   -1.9600   -1.1480 N   0  0  0  0  0  0  0  0  0  0  0  0
   -3.8520   -1.9860   -1.4930 C   0  0  0  0  0  0  0  0  0  0  0  0
   -4.6170   -3.2090   -1.3500 N   0  0  0  0  0  0  0  0  0  0  0  0
   -4.3990   -0.9190   -1.9400 N   0  0  0  0  0  0  0  0  0  0  0  0
   -5.7960   -0.8400   -2.3190 C   0  0  0  0  0  0  0  0  0  0  0  0
   -6.5260   -0.1270   -1.2320 C   0  0  0  0  0  0  0  0  0  0  0  0
   -7.1080   -0.7770   -0.1660 C   0  0  0  0  0  0  0  0  0  0  0  0
   -7.7860   -0.1090    0.8440 C   0  0  0  0  0  0  0  0  0  0  0  0
   -7.8960    1.2650    0.8000 C   0  0  0  0  0  0  0  0  0  0  0  0
   -8.6040    2.0520    1.8390 C   0  0  0  0  0  0  0  0  0  0  0  0
   -9.1550    1.2250    2.8660 N   0  0  0  0  0  0  0  0  0  0  0  0
   -7.3170    1.9120   -0.2600 C   0  0  0  0  0  0  0  0  0  0  0  0
   -6.6430    1.2520   -1.2640 C   0  0  0  0  0  0  0  0  0  0  0  0
   -2.6550    0.0150    0.2860 C   0  0  0  0  0  0  0  0  0  0  0  0
   -1.9980    1.0050    1.0110 C   0  0  0  0  0  0  0  0  0  0  0  0
   -0.6210    1.0490    1.0380 C   0  0  0  0  0  0  0  0  0  0  0  0
    0.0090    2.0550    1.7750 O   0  0  0  0  0  0  0  0  0  0  0  0
    6.9700    0.1280   -0.0860 C   0  0  0  0  0  0  0  0  0  0  0  0
    8.4100    0.2360   -0.0380 C   0  0  0  0  0  0  0  0  0  0  0  0
    8.8890    1.4250    0.1370 C   0  0  0  0  0  0  0  0  0  0  0  0
   10.0330    2.1820    0.0410 C   0  0  0  0  0  0  0  0  0  0  0  0
   11.2160    2.1250   -0.3340 N   0  0  0  0  0  0  0  0  0  0  0  0
  1  2  2  0
  2  3  1  0
  2 33  1  0
  3  4  2  0
  4  5  1  0
  5  6  1  0
  5 32  2  0
  6  7  1  0
  7  8  2  0
  7  9  1  0
  9 10  2  0
  9 11  1  0
 11 12  1  0
 12 13  2  0
 12 30  1  0
 13 14  1  0
 14 15  1  0
 14 28  2  0
 15 16  1  0
 16 17  1  0
 16 18  2  3
 18 19  1  0
 19 20  1  0
 20 21  2  0
 20 27  1  0
 21 22  1  0
 22 23  2  0
 23 24  1  0
 23 26  1  0
 24 25  1  0
 26 27  2  0
 28 29  1  0
 29 30  2  0
 30 31  1  0
 32 33  1  0
 33 34  2  3
 34 35  1  0
 35 36  2  0
M  CHG  3  18   1  25   1  36   1
M  END
