
     RDKit          3D

 18 19  0  0  0  0  0  0  0  0999 V2000
    0.9640   -1.4940   -3.8520 N   0  0  0  0  0  0  0  0  0  0  0  0
    0.0800   -1.2410   -3.4320 C   0  0  0  0  0  0  0  0  0  0  0  0
   -1.2880   -0.8590   -2.8100 C   0  0  0  0  0  0  0  0  0  0  0  0
   -1.3240    0.6060   -2.5710 C   0  0  0  0  0  0  0  0  0  0  0  0
   -0.3190    1.1580   -1.6100 C   0  0  1  0  0  0  0  0  0  0  0  0
   -0.5070    2.6530   -1.4990 C   0  0  0  0  0  0  0  0  0  0  0  0
   -0.6200    3.2030   -0.1260 C   0  0  0  0  0  0  0  0  0  0  0  0
   -1.3700    2.3950    0.8850 C   0  0  0  0  0  0  0  0  0  0  0  0
   -1.7910    1.0580    0.2850 C   0  0  0  0  0  0  0  0  0  0  0  0
   -0.5690    0.5430   -0.2860 N   0  0  0  0  0  0  0  0  0  0  0  0
    0.3520   -0.3390    0.2440 C   0  0  0  0  0  0  0  0  0  0  0  0
    1.3530   -0.6260   -0.5650 O   0  0  0  0  0  0  0  0  0  0  0  0
    0.4940   -1.0370    1.5030 C   0  0  1  0  0  0  0  0  0  0  0  0
   -0.6130   -0.9420    2.3770 N   0  0  0  0  0  0  0  0  0  0  0  0
    0.7250   -2.5240    1.2110 C   0  0  0  0  0  0  0  0  0  0  0  0
    2.1770   -2.6660    0.8660 C   0  0  0  0  0  0  0  0  0  0  0  0
    2.8720   -1.4270    1.4030 C   0  0  0  0  0  0  0  0  0  0  0  0
    1.8100   -0.7010    2.2030 C   0  0  0  0  0  0  0  0  0  0  0  0
  1  2  3  0
  2  3  1  0
  3  4  1  0
  5  4  1  6
  5  6  1  0
  5 10  1  0
  6  7  1  0
  7  8  1  0
  8  9  1  0
  9 10  1  0
 10 11  1  0
 11 12  2  0
 11 13  1  0
 13 14  1  1
 13 15  1  0
 13 18  1  0
 15 16  1  0
 16 17  1  0
 17 18  1  0
M  CHG  1  14   1
M  END
