
     RDKit          3D

 18 19  0  0  0  0  0  0  0  0999 V2000
   -4.0330   -1.0700   -1.3930 C   0  0  0  0  0  0  0  0  0  0  0  0
   -3.7750   -0.0870   -0.2500 C   0  0  1  0  0  0  0  0  0  0  0  0
   -5.1670    0.3890    0.1900 C   0  0  0  0  0  0  0  0  0  0  0  0
   -3.1760   -0.8190    0.8960 C   0  0  0  0  0  0  0  0  0  0  0  0
   -1.6880   -0.8410    0.9260 C   0  0  0  0  0  0  0  0  0  0  0  0
   -1.0640    0.4880    0.6080 C   0  0  1  0  0  0  0  0  0  0  0  0
    0.3710    0.3890    0.7170 N   0  0  0  0  0  0  0  0  0  0  0  0
    1.1000   -0.5140   -0.1180 C   0  0  0  0  0  0  0  0  0  0  0  0
    2.5600   -0.4970    0.1200 C   0  0  0  0  0  0  0  0  0  0  0  0
    3.2160    0.2280    0.9740 C   0  0  0  0  0  0  0  0  0  0  0  0
    4.6750    0.2250    1.1880 C   0  0  0  0  0  0  0  0  0  0  0  0
    5.4790   -0.6130    0.2680 C   0  0  0  0  0  0  0  0  0  0  0  0
    5.3450   -0.1630   -1.0810 N   0  0  0  0  0  0  0  0  0  0  0  0
    2.4620    1.1350    1.8060 N   0  0  0  0  0  0  0  0  0  0  0  0
    1.0560    1.2010    1.6650 C   0  0  0  0  0  0  0  0  0  0  0  0
    0.4390    2.0130    2.4180 O   0  0  0  0  0  0  0  0  0  0  0  0
   -1.5210    0.8900   -0.7750 C   0  0  0  0  0  0  0  0  0  0  0  0
   -3.0170    1.1140   -0.7010 C   0  0  0  0  0  0  0  0  0  0  0  0
  2  1  1  6
  2  3  1  0
  2  4  1  0
  2 18  1  0
  4  5  1  0
  5  6  1  0
  6  7  1  6
  6 17  1  0
  7  8  1  0
  7 15  1  0
  8  9  1  0
  9 10  2  0
 10 11  1  0
 10 14  1  0
 11 12  1  0
 12 13  1  0
 14 15  1  0
 15 16  2  0
 17 18  1  0
M  CHG  1  13   1
M  END
