
     RDKit          3D

 18 20  0  0  0  0  0  0  0  0999 V2000
   -2.1320   -1.3020   -2.2110 N   0  0  0  0  0  0  0  0  0  0  0  0
   -2.0510   -0.0550   -1.5040 C   0  0  0  0  0  0  0  0  0  0  0  0
   -1.5920   -0.2400   -0.0560 C   0  0  2  0  0  0  0  0  0  0  0  0
   -2.6290   -1.0780    0.6870 C   0  0  0  0  0  0  0  0  0  0  0  0
   -3.9860   -0.5380    0.3690 C   0  0  0  0  0  0  0  0  0  0  0  0
   -4.0440    0.9030    0.7340 C   0  0  0  0  0  0  0  0  0  0  0  0
   -2.7660    1.5720    1.0370 C   0  0  0  0  0  0  0  0  0  0  0  0
   -1.5720    1.0340    0.5170 N   0  0  0  0  0  0  0  0  0  0  0  0
   -0.4700    1.3970    1.3390 C   0  0  0  0  0  0  0  0  0  0  0  0
    0.7970    1.1230    0.5560 C   0  0  0  0  0  0  0  0  0  0  0  0
    0.8960   -0.3730    0.4480 C   0  0  2  0  0  0  0  0  0  0  0  0
    2.0510   -0.6700   -0.3970 N   0  0  0  0  0  0  0  0  0  0  0  0
    3.2430   -0.0630    0.1310 C   0  0  1  0  0  0  0  0  0  0  0  0
    4.4030   -1.0220   -0.1040 C   0  0  0  0  0  0  0  0  0  0  0  0
    5.5500   -0.0450   -0.1320 C   0  0  0  0  0  0  0  0  0  0  0  0
    5.0850    1.1530   -0.6290 O   0  0  0  0  0  0  0  0  0  0  0  0
    3.7090    1.1140   -0.6830 C   0  0  0  0  0  0  0  0  0  0  0  0
   -0.3370   -1.0320   -0.0800 C   0  0  0  0  0  0  0  0  0  0  0  0
  1  2  1  0
  3  2  1  6
  3  4  1  0
  3  8  1  0
  3 18  1  0
  4  5  1  0
  5  6  1  0
  6  7  1  0
  7  8  1  0
  8  9  1  0
  9 10  1  0
 10 11  1  0
 11 12  1  6
 11 18  1  0
 13 12  1  6
 13 14  1  0
 13 17  1  0
 14 15  1  0
 15 16  1  0
 16 17  1  0
M  CHG  1   1   1
M  END
