
     RDKit          3D

 18 19  0  0  0  0  0  0  0  0999 V2000
    3.7190    0.9330    1.5870 C   0  0  0  0  0  0  0  0  0  0  0  0
    3.1120    1.5110    0.3120 C   0  0  0  0  0  0  0  0  0  0  0  0
    2.8570    0.3740   -0.5890 C   0  0  0  0  0  0  0  0  0  0  0  0
    3.5570    0.0130   -1.6530 O   0  0  0  0  0  0  0  0  0  0  0  0
    3.0230   -1.0440   -2.1930 N   0  0  0  0  0  0  0  0  0  0  0  0
    1.9260   -1.4070   -1.4670 C   0  0  0  0  0  0  0  0  0  0  0  0
    1.0230   -2.5560   -1.7330 C   0  0  0  0  0  0  0  0  0  0  0  0
    1.7930   -0.5120   -0.4250 C   0  0  0  0  0  0  0  0  0  0  0  0
    0.7850   -0.5150    0.5750 N   0  0  0  0  0  0  0  0  0  0  0  0
   -0.4490    0.1740    0.4270 C   0  0  0  0  0  0  0  0  0  0  0  0
   -0.5920    1.0560   -0.5360 C   0  0  0  0  0  0  0  0  0  0  0  0
   -1.8230    1.7700   -0.7150 C   0  0  0  0  0  0  0  0  0  0  0  0
   -2.0280    2.7850   -1.8020 C   0  0  0  0  0  0  0  0  0  0  0  0
   -2.8250    1.5370    0.1000 C   0  0  0  0  0  0  0  0  0  0  0  0
   -2.8130    0.5870    1.2140 C   0  0  0  0  0  0  0  0  0  0  0  0
   -1.5410   -0.1240    1.3630 C   0  0  1  0  0  0  0  0  0  0  0  0
   -1.6950   -1.6350    1.4590 C   0  0  0  0  0  0  0  0  0  0  0  0
   -2.0030   -2.2600    0.2140 N   0  0  0  0  0  0  0  0  0  0  0  0
  1  2  1  0
  2  3  1  0
  3  4  1  0
  3  8  2  0
  4  5  1  0
  5  6  2  0
  6  7  1  0
  6  8  1  0
  8  9  1  0
  9 10  1  0
 10 11  2  0
 10 16  1  0
 11 12  1  0
 12 13  1  0
 12 14  2  0
 14 15  1  0
 15 16  1  0
 16 17  1  6
 17 18  1  0
M  CHG  1  18   1
M  END
