
     RDKit          3D

 12 12  0  0  0  0  0  0  0  0999 V2000
    3.0710   -0.7660   -0.5720 C   0  0  0  0  0  0  0  0  0  0  0  0
    2.0760    0.1690   -0.8590 O   0  0  0  0  0  0  0  0  0  0  0  0
    1.5670    0.6920    0.3170 C   0  0  1  0  0  0  0  0  0  0  0  0
    1.7760    2.0680    0.3450 O   0  0  0  0  0  0  0  0  0  0  0  0
    0.0930    0.4250    0.4650 C   0  0  2  0  0  0  0  0  0  0  0  0
   -0.2390   -1.0290    0.5420 C   0  0  0  0  0  0  0  0  0  0  0  0
   -1.5540   -1.1600    1.0020 O   0  0  0  0  0  0  0  0  0  0  0  0
   -2.3750   -0.5820    0.0390 C   0  0  2  0  0  0  0  0  0  0  0  0
   -2.2040   -1.2710   -1.1780 O   0  0  0  0  0  0  0  0  0  0  0  0
   -2.0010    0.8790   -0.1580 C   0  0  2  0  0  0  0  0  0  0  0  0
   -2.8640    1.4740   -1.0450 O   0  0  0  0  0  0  0  0  0  0  0  0
   -0.6550    0.9800   -0.5730 O   0  0  0  0  0  0  0  0  0  0  0  0
  1  2  1  0
  2  3  1  0
  3  4  1  6
  3  5  1  0
  5  6  1  6
  5 12  1  0
  6  7  1  0
  7  8  1  0
  8  9  1  6
  8 10  1  0
 10 11  1  6
 10 12  1  0
M  END
