
     RDKit          3D

 12 12  0  0  0  0  0  0  0  0999 V2000
    0.0180    1.2050    1.9520 C   0  0  0  0  0  0  0  0  0  0  0  0
   -0.4200    0.0810    1.3030 O   0  0  0  0  0  0  0  0  0  0  0  0
   -0.4340    0.1260   -0.0570 C   0  0  2  0  0  0  0  0  0  0  0  0
    0.8760    0.2740   -0.7450 C   0  0  1  0  0  0  0  0  0  0  0  0
    1.5880    1.4070   -0.4520 O   0  0  0  0  0  0  0  0  0  0  0  0
    1.7720   -0.9260   -0.5220 C   0  0  0  0  0  0  0  0  0  0  0  0
    2.9030   -0.8760   -1.3360 O   0  0  0  0  0  0  0  0  0  0  0  0
   -1.2960    1.1890   -0.4200 O   0  0  0  0  0  0  0  0  0  0  0  0
   -2.5300    0.6270   -0.0870 C   0  0  0  0  0  0  0  0  0  0  0  0
   -2.5290   -0.5980   -0.7280 O   0  0  0  0  0  0  0  0  0  0  0  0
   -1.1880   -1.0260   -0.6870 C   0  0  2  0  0  0  0  0  0  0  0  0
   -1.0520   -2.2040   -0.0040 O   0  0  0  0  0  0  0  0  0  0  0  0
  1  2  1  0
  3  2  1  1
  3  4  1  0
  3  8  1  0
  3 11  1  0
  4  5  1  1
  4  6  1  0
  6  7  1  0
  8  9  1  0
  9 10  1  0
 10 11  1  0
 11 12  1  1
M  END
