
     RDKit          3D

 13 13  0  0  0  0  0  0  0  0999 V2000
    2.3450   -0.4530    1.3860 C   0  0  0  0  0  0  0  0  0  0  0  0
    2.1080   -0.9930    0.1150 O   0  0  0  0  0  0  0  0  0  0  0  0
    1.7700   -0.0240   -0.8130 C   0  0  0  0  0  0  0  0  0  0  0  0
    0.5070    0.7080   -0.4890 C   0  0  1  0  0  0  0  0  0  0  0  0
    0.3770    1.6810   -1.5360 O   0  0  0  0  0  0  0  0  0  0  0  0
   -0.7320   -0.1150   -0.6330 C   0  0  2  0  0  0  0  0  0  0  0  0
   -0.7290   -0.6950   -1.8980 O   0  0  0  0  0  0  0  0  0  0  0  0
   -1.8020    0.8200   -0.6270 O   0  0  0  0  0  0  0  0  0  0  0  0
   -2.0290    0.9580    0.7250 C   0  0  1  0  0  0  0  0  0  0  0  0
   -3.1880    1.7050    0.9290 O   0  0  0  0  0  0  0  0  0  0  0  0
   -2.1200   -0.3190    1.2130 O   0  0  0  0  0  0  0  0  0  0  0  0
   -1.1140   -0.9980    0.4820 C   0  0  1  0  0  0  0  0  0  0  0  0
   -1.8110   -2.1090   -0.0660 O   0  0  0  0  0  0  0  0  0  0  0  0
  1  2  1  0
  2  3  1  0
  3  4  1  0
  4  5  1  6
  4  6  1  0
  6  7  1  6
  6  8  1  0
  6 12  1  0
  8  9  1  0
  9 10  1  6
  9 11  1  0
 11 12  1  0
 12 13  1  6
M  END
