
     RDKit          3D

 13 13  0  0  0  0  0  0  0  0999 V2000
    2.9540   -0.1340    0.1440 O   0  0  0  0  0  0  0  0  0  0  0  0
    1.9300   -0.8540    0.0440 C   0  0  0  0  0  0  0  0  0  0  0  0
    1.9860   -2.1190    0.5830 O   0  0  0  0  0  0  0  0  0  0  0  0
    0.6750   -0.3910   -0.6300 C   0  0  1  0  0  0  0  0  0  0  0  0
   -0.2310   -1.3970   -0.5700 O   0  0  0  0  0  0  0  0  0  0  0  0
   -1.4720   -1.1490   -0.0870 C   0  0  1  0  0  0  0  0  0  0  0  0
   -1.8620   -2.2730    0.6800 O   0  0  0  0  0  0  0  0  0  0  0  0
   -1.5710    0.0380    0.8210 C   0  0  2  0  0  0  0  0  0  0  0  0
   -2.8390    0.2280    1.2890 O   0  0  0  0  0  0  0  0  0  0  0  0
   -1.0860    1.1270    0.0760 O   0  0  0  0  0  0  0  0  0  0  0  0
    0.2980    0.9060    0.0110 C   0  0  2  0  0  0  0  0  0  0  0  0
    1.0050    2.0430   -0.6810 C   0  0  0  0  0  0  0  0  0  0  0  0
    0.5860    2.2450   -1.9740 O   0  0  0  0  0  0  0  0  0  0  0  0
  1  2  2  0
  2  3  1  0
  4  2  1  1
  4  5  1  0
  4 11  1  0
  5  6  1  0
  6  7  1  1
  6  8  1  0
  8  9  1  6
  8 10  1  0
 10 11  1  0
 11 12  1  6
 12 13  1  0
M  END
