
     RDKit          3D

 12 12  0  0  0  0  0  0  0  0999 V2000
    3.6100    1.0110    0.7580 O   0  0  0  0  0  0  0  0  0  0  0  0
    2.9120   -0.1910    0.7790 C   0  0  0  0  0  0  0  0  0  0  0  0
    1.6600   -0.0540   -0.0860 C   0  0  1  0  0  0  0  0  0  0  0  0
    2.0920    0.2560   -1.4010 O   0  0  0  0  0  0  0  0  0  0  0  0
    1.0260   -1.2670   -0.0410 O   0  0  0  0  0  0  0  0  0  0  0  0
   -0.2870   -1.2260    0.3450 C   0  0  0  0  0  0  0  0  0  0  0  0
   -1.1220   -0.5060   -0.6320 C   0  0  2  0  0  0  0  0  0  0  0  0
   -0.8270    0.8150   -0.8870 O   0  0  0  0  0  0  0  0  0  0  0  0
   -1.9220    1.1630   -1.6900 C   0  0  0  0  0  0  0  0  0  0  0  0
   -3.0240    0.6460   -1.0350 O   0  0  0  0  0  0  0  0  0  0  0  0
   -2.5790   -0.3810   -0.2090 C   0  0  2  0  0  0  0  0  0  0  0  0
   -2.7050   -0.0800    1.1420 O   0  0  0  0  0  0  0  0  0  0  0  0
  1  2  1  0
  2  3  1  0
  3  4  1  6
  3  5  1  0
  5  6  1  0
  7  6  1  1
  7  8  1  0
  7 11  1  0
  8  9  1  0
  9 10  1  0
 10 11  1  0
 11 12  1  1
M  END
