
     RDKit          3D

 39 42  0  0  0  0  0  0  0  0999 V2000
   -8.5710   -3.5940    1.3850 C   0  0  0  0  0  0  0  0  0  0  0  0
   -7.6730   -2.4060    1.5130 C   0  0  1  0  0  0  0  0  0  0  0  0
   -6.2500   -2.8500    1.2480 C   0  0  0  0  0  0  0  0  0  0  0  0
   -5.4180   -1.6490    1.1360 N   0  0  0  0  0  0  0  0  0  0  0  0
   -4.1160   -1.7470    0.6220 C   0  0  0  0  0  0  0  0  0  0  0  0
   -3.7160   -2.8950    0.2430 O   0  0  0  0  0  0  0  0  0  0  0  0
   -3.2370   -0.6600    0.5030 N   0  0  0  0  0  0  0  0  0  0  0  0
   -1.8880   -0.8680   -0.0530 C   0  0  2  0  0  0  0  0  0  0  0  0
   -0.8890   -0.9880    1.0730 C   0  0  0  0  0  0  0  0  0  0  0  0
    0.4970   -0.7500    0.4710 C   0  0  0  0  0  0  0  0  0  0  0  0
    1.4260   -1.6400    0.6030 C   0  0  0  0  0  0  0  0  0  0  0  0
    2.7680   -1.8470    0.2340 C   0  0  0  0  0  0  0  0  0  0  0  0
    3.2110   -3.0280    0.7820 O   0  0  0  0  0  0  0  0  0  0  0  0
    3.7330   -1.2060   -0.5080 N   0  0  0  0  0  0  0  0  0  0  0  0
    3.6890   -0.0540   -1.3070 C   0  0  0  0  0  0  0  0  0  0  0  0
    4.5130    1.0100   -0.5700 C   0  0  0  0  0  0  0  0  0  0  0  0
    5.2190    0.4650    0.4830 O   0  0  0  0  0  0  0  0  0  0  0  0
    5.9140   -0.6830    0.2350 C   0  0  1  0  0  0  0  0  0  0  0  0
    7.1980   -0.4740   -0.5340 C   0  0  0  0  0  0  0  0  0  0  0  0
    8.1740    0.4100    0.1710 C   0  0  0  0  0  0  0  0  0  0  0  0
    7.6950    1.7390    0.4390 N   0  0  0  0  0  0  0  0  0  0  0  0
    6.3130   -1.2440    1.5680 C   0  0  0  0  0  0  0  0  0  0  0  0
    5.9830   -0.6170    2.7800 N   0  0  0  0  0  0  0  0  0  0  0  0
    6.9700   -2.3220    1.5860 O   0  0  0  0  0  0  0  0  0  0  0  0
    5.1190   -1.7870   -0.4440 C   0  0  0  0  0  0  0  0  0  0  0  0
    0.5920    0.5500   -0.1610 C   0  0  0  0  0  0  0  0  0  0  0  0
   -0.4060    0.9960   -0.8910 C   0  0  0  0  0  0  0  0  0  0  0  0
   -0.3360    2.3040   -1.5410 C   0  0  0  0  0  0  0  0  0  0  0  0
    0.7420    3.1530   -1.3760 C   0  0  0  0  0  0  0  0  0  0  0  0
    0.7800    4.3750   -2.0110 C   0  0  0  0  0  0  0  0  0  0  0  0
   -0.2340    4.8000   -2.8240 C   0  0  0  0  0  0  0  0  0  0  0  0
   -0.1830    6.0520   -3.4680 O   0  0  0  0  0  0  0  0  0  0  0  0
   -1.3090    3.9720   -3.0000 C   0  0  0  0  0  0  0  0  0  0  0  0
   -1.3510    2.7420   -2.3620 C   0  0  0  0  0  0  0  0  0  0  0  0
   -1.6280    0.1920   -1.0480 C   0  0  0  0  0  0  0  0  0  0  0  0
   -6.0340   -0.4250    1.5760 C   0  0  0  0  0  0  0  0  0  0  0  0
   -7.3910   -0.2160    0.9080 C   0  0  1  0  0  0  0  0  0  0  0  0
   -7.1580    0.6440   -0.3130 C   0  0  0  0  0  0  0  0  0  0  0  0
   -8.0000   -1.4230    0.5660 O   0  0  0  0  0  0  0  0  0  0  0  0
  2  1  1  6
  2  3  1  0
  2 39  1  0
  3  4  1  0
  4  5  1  0
  4 36  1  0
  5  6  2  0
  5  7  1  0
  8  7  1  1
  8  9  1  0
  8 35  1  0
  9 10  1  0
 10 11  2  3
 10 26  1  0
 11 12  1  0
 12 13  2  0
 12 14  1  0
 14 15  1  0
 14 25  1  0
 15 16  1  0
 16 17  1  0
 17 18  1  0
 18 19  1  6
 18 22  1  0
 18 25  1  0
 19 20  1  0
 20 21  1  0
 22 23  1  0
 22 24  2  0
 26 27  2  0
 27 28  1  0
 27 35  1  0
 28 29  2  0
 28 34  1  0
 29 30  1  0
 30 31  2  0
 31 32  1  0
 31 33  1  0
 33 34  2  0
 36 37  1  0
 37 38  1  6
 37 39  1  0
M  CHG  1  21   1
M  END
