
     RDKit          3D

 38 40  0  0  0  0  0  0  0  0999 V2000
   -4.4400   -3.0510    0.6830 C   0  0  0  0  0  0  0  0  0  0  0  0
   -4.1260   -1.6260    0.2750 C   0  0  0  0  0  0  0  0  0  0  0  0
   -4.7240   -0.5980    0.8370 C   0  0  0  0  0  0  0  0  0  0  0  0
   -4.5710    0.8270    0.5930 C   0  0  0  0  0  0  0  0  0  0  0  0
   -5.6700    1.5050    0.2760 C   0  0  0  0  0  0  0  0  0  0  0  0
   -7.0060    0.9730    0.1410 C   0  0  0  0  0  0  0  0  0  0  0  0
   -7.1870   -0.4770    0.3400 N   0  0  0  0  0  0  0  0  0  0  0  0
   -8.0740    1.6380   -0.1590 C   0  0  0  0  0  0  0  0  0  0  0  0
   -8.4020    3.0010   -0.4580 C   0  0  0  0  0  0  0  0  0  0  0  0
   -7.4120    4.0190   -0.4710 N   0  0  0  0  0  0  0  0  0  0  0  0
   -3.3750    1.4860    0.6760 O   0  0  0  0  0  0  0  0  0  0  0  0
   -2.1650    1.5880    0.0690 C   0  0  0  0  0  0  0  0  0  0  0  0
   -0.9600    1.0400    0.8050 C   0  0  0  0  0  0  0  0  0  0  0  0
    0.0510    0.4220   -0.1890 C   0  0  0  0  0  0  0  0  0  0  0  0
    0.6580   -0.8230    0.3180 C   0  0  2  0  0  0  0  0  0  0  0  0
    0.5080   -0.7520    1.8530 C   0  0  0  0  0  0  0  0  0  0  0  0
    2.1140   -0.8160    0.0250 N   0  0  0  0  0  0  0  0  0  0  0  0
    2.8200   -1.7630   -0.8050 C   0  0  0  0  0  0  0  0  0  0  0  0
    4.1680   -1.8900   -0.1310 C   0  0  2  0  0  0  0  0  0  0  0  0
    4.0470   -2.9610    0.9580 C   0  0  0  0  0  0  0  0  0  0  0  0
    5.2420   -3.1420    1.6290 O   0  0  0  0  0  0  0  0  0  0  0  0
    4.4100   -0.5250    0.4540 C   0  0  1  0  0  0  0  0  0  0  0  0
    5.3910    0.2300   -0.2850 N   0  0  0  0  0  0  0  0  0  0  0  0
    6.5960    0.7110    0.2560 C   0  0  0  0  0  0  0  0  0  0  0  0
    6.8380    0.4700    1.4670 O   0  0  0  0  0  0  0  0  0  0  0  0
    7.6010    1.4860   -0.5080 C   0  0  2  0  0  0  0  0  0  0  0  0
    8.7890    1.8560    0.3550 C   0  0  0  0  0  0  0  0  0  0  0  0
    9.2080    3.1600   -0.2430 C   0  0  0  0  0  0  0  0  0  0  0  0
    8.1680    3.6990   -0.9450 O   0  0  0  0  0  0  0  0  0  0  0  0
    7.1150    2.8220   -0.9610 C   0  0  0  0  0  0  0  0  0  0  0  0
    3.0740    0.1090    0.4850 C   0  0  0  0  0  0  0  0  0  0  0  0
    2.8850    1.2910    0.8700 O   0  0  0  0  0  0  0  0  0  0  0  0
    0.1310   -2.1200   -0.1130 C   0  0  0  0  0  0  0  0  0  0  0  0
    0.0890   -2.9600    0.8830 O   0  0  0  0  0  0  0  0  0  0  0  0
   -0.3150   -2.6280   -1.3160 N   0  0  0  0  0  0  0  0  0  0  0  0
   -1.4000   -2.2940   -2.1840 C   0  0  0  0  0  0  0  0  0  0  0  0
   -2.7890   -2.6400   -1.6070 C   0  0  0  0  0  0  0  0  0  0  0  0
   -3.1190   -1.4360   -0.7530 C   0  0  0  0  0  0  0  0  0  0  0  0
  1  2  1  0
  2  3  2  0
  2 38  1  0
  3  4  1  0
  4  5  2  3
  4 11  1  0
  5  6  1  0
  6  7  1  0
  6  8  2  3
  8  9  1  0
  9 10  1  0
 11 12  1  0
 12 13  1  0
 13 14  1  0
 14 15  1  0
 15 16  1  1
 15 17  1  0
 15 33  1  0
 17 18  1  0
 17 31  1  0
 18 19  1  0
 19 20  1  1
 19 22  1  0
 20 21  1  0
 22 23  1  6
 22 31  1  0
 23 24  1  0
 24 25  2  0
 26 24  1  1
 26 27  1  0
 26 30  1  0
 27 28  1  0
 28 29  1  0
 29 30  1  0
 31 32  2  0
 33 34  2  0
 33 35  1  0
 35 36  1  0
 36 37  1  0
 37 38  1  0
M  CHG  1  10   1
M  END
