
     RDKit          3D

 39 42  0  0  0  0  0  0  0  0999 V2000
   -6.0180    4.0430   -2.5180 C   0  0  0  0  0  0  0  0  0  0  0  0
   -5.4380    2.8460   -1.7920 C   0  0  0  0  0  0  0  0  0  0  0  0
   -4.4180    2.2760   -2.4130 C   0  0  0  0  0  0  0  0  0  0  0  0
   -3.6630    1.0590   -1.8920 C   0  0  0  0  0  0  0  0  0  0  0  0
   -4.5810    0.2830   -1.0740 N   0  0  0  0  0  0  0  0  0  0  0  0
   -4.1150   -0.4230    0.0620 C   0  0  0  0  0  0  0  0  0  0  0  0
   -4.9410   -1.0440    0.7910 O   0  0  0  0  0  0  0  0  0  0  0  0
   -2.7550   -0.4690    0.4260 N   0  0  0  0  0  0  0  0  0  0  0  0
   -2.1910   -1.1440    1.5530 C   0  0  0  0  0  0  0  0  0  0  0  0
   -2.8860   -1.6500    2.6120 C   0  0  0  0  0  0  0  0  0  0  0  0
   -2.2640   -2.3130    3.6630 C   0  0  0  0  0  0  0  0  0  0  0  0
   -0.8780   -2.4930    3.6830 C   0  0  0  0  0  0  0  0  0  0  0  0
   -0.1670   -1.9930    2.6360 C   0  0  0  0  0  0  0  0  0  0  0  0
   -0.8050   -1.3260    1.5790 C   0  0  0  0  0  0  0  0  0  0  0  0
    1.2690   -2.2670    2.8780 C   0  0  1  0  0  0  0  0  0  0  0  0
    1.8780   -3.0570    1.7310 C   0  0  0  0  0  0  0  0  0  0  0  0
    2.0470   -1.0350    3.1960 C   0  0  0  0  0  0  0  0  0  0  0  0
    2.0960    0.0540    2.2030 C   0  0  0  0  0  0  0  0  0  0  0  0
    2.7040   -0.2830    0.8930 C   0  0  0  0  0  0  0  0  0  0  0  0
    2.1320   -0.0900   -0.2200 O   0  0  0  0  0  0  0  0  0  0  0  0
    3.9690   -0.8440    0.8140 O   0  0  0  0  0  0  0  0  0  0  0  0
    4.5860   -1.1780   -0.3990 C   0  0  0  0  0  0  0  0  0  0  0  0
    4.8150   -0.0410   -1.3370 C   0  0  2  0  0  0  0  0  0  0  0  0
    5.4640   -0.6020   -2.5170 N   0  0  0  0  0  0  0  0  0  0  0  0
    5.5970    0.3950   -3.5350 C   0  0  0  0  0  0  0  0  0  0  0  0
    6.3840    1.5950   -3.0570 C   0  0  0  0  0  0  0  0  0  0  0  0
    5.8050    2.1500   -1.7770 C   0  0  2  0  0  0  0  0  0  0  0  0
    6.6430    3.1710   -1.3310 O   0  0  0  0  0  0  0  0  0  0  0  0
    5.6210    1.0770   -0.7260 C   0  0  2  0  0  0  0  0  0  0  0  0
    6.9730    0.6020   -0.2380 C   0  0  0  0  0  0  0  0  0  0  0  0
    1.2860   -3.0760    4.1230 C   0  0  0  0  0  0  0  0  0  0  0  0
    2.3210   -3.6060    4.6560 O   0  0  0  0  0  0  0  0  0  0  0  0
   -0.0270   -3.1550    4.6060 N   0  0  0  0  0  0  0  0  0  0  0  0
   -5.9920    0.2030   -1.3700 C   0  0  1  0  0  0  0  0  0  0  0  0
   -6.5910   -1.1310   -1.2850 C   0  0  0  0  0  0  0  0  0  0  0  0
   -8.0330   -1.1690   -1.3520 N   0  0  0  0  0  0  0  0  0  0  0  0
   -6.0000   -2.2190   -1.1640 O   0  0  0  0  0  0  0  0  0  0  0  0
   -6.7830    1.1670   -0.4960 C   0  0  0  0  0  0  0  0  0  0  0  0
   -6.1260    2.5370   -0.5020 C   0  0  0  0  0  0  0  0  0  0  0  0
  1  2  1  0
  2  3  2  0
  2 39  1  0
  3  4  1  0
  4  5  1  0
  5  6  1  0
  5 34  1  0
  6  7  2  0
  6  8  1  0
  8  9  1  0
  9 10  2  0
  9 14  1  0
 10 11  1  0
 11 12  2  0
 12 13  1  0
 12 33  1  0
 13 14  2  0
 13 15  1  0
 15 16  1  6
 15 17  1  0
 15 31  1  0
 17 18  1  0
 18 19  1  0
 19 20  2  0
 19 21  1  0
 21 22  1  0
 23 22  1  1
 23 24  1  0
 23 29  1  0
 24 25  1  0
 25 26  1  0
 26 27  1  0
 27 28  1  1
 27 29  1  0
 29 30  1  6
 31 32  2  0
 31 33  1  0
 34 35  1  1
 34 38  1  0
 35 36  1  0
 35 37  2  0
 38 39  1  0
M  CHG  1  24   1
M  END
