
     RDKit          3D

 34 37  0  0  0  0  0  0  0  0999 V2000
   -1.5960   -4.5530   -2.4580 C   0  0  0  0  0  0  0  0  0  0  0  0
   -1.3670   -3.5820   -1.3160 C   0  0  0  0  0  0  0  0  0  0  0  0
   -0.6770   -2.3300   -1.7800 C   0  0  0  0  0  0  0  0  0  0  0  0
   -0.4460   -1.3770   -0.7260 N   0  0  0  0  0  0  0  0  0  0  0  0
   -1.6010   -0.6050   -0.4080 C   0  0  0  0  0  0  0  0  0  0  0  0
   -2.7110   -0.6950   -1.1100 C   0  0  0  0  0  0  0  0  0  0  0  0
   -3.8920    0.0610   -0.8140 C   0  0  0  0  0  0  0  0  0  0  0  0
   -4.4700    0.8200   -1.8380 C   0  0  0  0  0  0  0  0  0  0  0  0
   -5.6300    1.5450   -1.6630 C   0  0  0  0  0  0  0  0  0  0  0  0
   -6.2460    1.5240   -0.4340 C   0  0  0  0  0  0  0  0  0  0  0  0
   -5.7190    0.7920    0.6100 C   0  0  0  0  0  0  0  0  0  0  0  0
   -4.5650    0.0860    0.3880 C   0  0  0  0  0  0  0  0  0  0  0  0
   -6.5680    0.9760    1.7060 O   0  0  0  0  0  0  0  0  0  0  0  0
   -7.3760    2.1200    1.4210 C   0  0  1  0  0  0  0  0  0  0  0  0
   -6.6670    3.3230    1.9540 C   0  0  0  0  0  0  0  0  0  0  0  0
   -7.3890    2.1430    0.0080 O   0  0  0  0  0  0  0  0  0  0  0  0
   -1.5620    0.3490    0.6760 C   0  0  0  0  0  0  0  0  0  0  0  0
   -0.5060    0.5120    1.4350 C   0  0  0  0  0  0  0  0  0  0  0  0
   -0.5210    1.5200    2.5580 C   0  0  0  0  0  0  0  0  0  0  0  0
    0.6460   -0.1910    1.2720 O   0  0  0  0  0  0  0  0  0  0  0  0
    1.8250    0.4740    0.9490 C   0  0  0  0  0  0  0  0  0  0  0  0
    1.9150    1.8340    0.7670 C   0  0  0  0  0  0  0  0  0  0  0  0
    3.1360    2.4380    0.4440 C   0  0  0  0  0  0  0  0  0  0  0  0
    4.2270    1.6070    0.3210 C   0  0  0  0  0  0  0  0  0  0  0  0
    5.5180    1.8710    0.0240 N   0  0  0  0  0  0  0  0  0  0  0  0
    6.2390    0.7320    0.0140 C   0  0  0  0  0  0  0  0  0  0  0  0
    7.6950    0.5850   -0.2660 C   0  0  0  0  0  0  0  0  0  0  0  0
    8.4600    0.3620    0.9700 C   0  0  0  0  0  0  0  0  0  0  0  0
    7.8910    0.3170    2.0360 O   0  0  0  0  0  0  0  0  0  0  0  0
    5.4150   -0.3320    0.3110 C   0  0  0  0  0  0  0  0  0  0  0  0
    5.7540   -1.6750    0.4030 O   0  0  0  0  0  0  0  0  0  0  0  0
    5.6560   -2.4500   -0.7980 C   0  0  0  0  0  0  0  0  0  0  0  0
    4.1530    0.2420    0.5000 C   0  0  0  0  0  0  0  0  0  0  0  0
    2.9580   -0.3280    0.8140 C   0  0  0  0  0  0  0  0  0  0  0  0
  1  2  1  0
  2  3  1  0
  3  4  1  0
  4  5  1  0
  5  6  2  3
  5 17  1  0
  6  7  1  0
  7  8  2  0
  7 12  1  0
  8  9  1  0
  9 10  2  0
 10 11  1  0
 10 16  1  0
 11 12  2  0
 11 13  1  0
 13 14  1  0
 14 15  1  1
 14 16  1  0
 17 18  2  3
 18 19  1  0
 18 20  1  0
 20 21  1  0
 21 22  2  0
 21 34  1  0
 22 23  1  0
 23 24  2  0
 24 25  1  0
 24 33  1  0
 25 26  1  0
 26 27  1  0
 26 30  2  0
 27 28  1  0
 28 29  2  0
 30 31  1  0
 30 33  1  0
 31 32  1  0
 33 34  2  0
M  CHG  1   4   1
M  END
