
     RDKit          3D

 34 37  0  0  0  0  0  0  0  0999 V2000
   -9.1690    2.0860    1.2390 C   0  0  0  0  0  0  0  0  0  0  0  0
   -8.2170    1.7420    0.4150 C   0  0  0  0  0  0  0  0  0  0  0  0
   -7.1080    0.8900    0.8920 C   0  0  0  0  0  0  0  0  0  0  0  0
   -6.1310    0.5220    0.0810 C   0  0  0  0  0  0  0  0  0  0  0  0
   -5.0020   -0.2610    0.2980 C   0  0  0  0  0  0  0  0  0  0  0  0
   -4.6240   -0.9230    1.5660 C   0  0  0  0  0  0  0  0  0  0  0  0
   -4.3370   -0.3070   -0.8990 C   0  0  0  0  0  0  0  0  0  0  0  0
   -3.0450   -1.0090   -1.2470 C   0  0  1  0  0  0  0  0  0  0  0  0
   -3.0220   -1.0860   -2.7790 C   0  0  0  0  0  0  0  0  0  0  0  0
   -1.9680   -0.1610   -0.7950 N   0  0  0  0  0  0  0  0  0  0  0  0
   -1.2950   -0.5370    0.3860 C   0  0  0  0  0  0  0  0  0  0  0  0
   -0.5700   -1.8640    0.3420 C   0  0  2  0  0  0  0  0  0  0  0  0
    0.1070   -2.2140    1.6290 C   0  0  0  0  0  0  0  0  0  0  0  0
    0.2680   -1.9340   -0.8940 C   0  0  0  0  0  0  0  0  0  0  0  0
    1.2170   -0.9740   -1.1000 O   0  0  0  0  0  0  0  0  0  0  0  0
    2.3300   -0.7120   -0.3840 C   0  0  0  0  0  0  0  0  0  0  0  0
    2.6630   -1.3600    0.6190 O   0  0  0  0  0  0  0  0  0  0  0  0
    3.2070    0.4140   -0.8160 C   0  0  0  0  0  0  0  0  0  0  0  0
    4.3940    0.5820    0.0360 C   0  0  0  0  0  0  0  0  0  0  0  0
    5.3620   -0.5560    0.1020 C   0  0  0  0  0  0  0  0  0  0  0  0
    6.4820   -0.1860    0.9900 N   0  0  0  0  0  0  0  0  0  0  0  0
    6.5980   -0.3810    2.3180 C   0  0  0  0  0  0  0  0  0  0  0  0
    5.7510   -0.9280    3.0580 O   0  0  0  0  0  0  0  0  0  0  0  0
    7.7550    0.0980    2.7370 O   0  0  0  0  0  0  0  0  0  0  0  0
    8.4330    0.6170    1.7160 C   0  0  0  0  0  0  0  0  0  0  0  0
    9.6630    1.2290    1.6120 C   0  0  0  0  0  0  0  0  0  0  0  0
   10.1170    1.6820    0.3670 C   0  0  0  0  0  0  0  0  0  0  0  0
    9.3240    1.5100   -0.7440 C   0  0  0  0  0  0  0  0  0  0  0  0
    8.0990    0.8930   -0.6030 C   0  0  0  0  0  0  0  0  0  0  0  0
    7.6170    0.4290    0.6230 C   0  0  0  0  0  0  0  0  0  0  0  0
   -5.0350    0.4020   -1.7490 O   0  0  0  0  0  0  0  0  0  0  0  0
   -6.1110    0.9220   -1.2310 C   0  0  0  0  0  0  0  0  0  0  0  0
   -7.0580    1.6890   -1.7570 C   0  0  0  0  0  0  0  0  0  0  0  0
   -8.2140    2.1830   -0.9900 C   0  0  0  0  0  0  0  0  0  0  0  0
  1  2  2  0
  2  3  1  0
  2 34  1  0
  3  4  2  0
  4  5  1  0
  4 32  1  0
  5  6  1  0
  5  7  2  0
  7  8  1  0
  7 31  1  0
  8  9  1  6
  8 10  1  0
 10 11  1  0
 11 12  1  0
 12 13  1  1
 12 14  1  0
 14 15  1  0
 15 16  1  0
 16 17  2  0
 16 18  1  0
 18 19  1  0
 19 20  1  0
 20 21  1  0
 21 22  1  0
 21 30  1  0
 22 23  2  0
 22 24  1  0
 24 25  1  0
 25 26  2  0
 25 30  1  0
 26 27  1  0
 27 28  2  0
 28 29  1  0
 29 30  2  0
 31 32  1  0
 32 33  2  0
 33 34  1  0
M  CHG  1  10   1
M  END
