
     RDKit          3D

 34 37  0  0  0  0  0  0  0  0999 V2000
   -4.0210    4.1100    3.3180 C   0  0  0  0  0  0  0  0  0  0  0  0
   -3.6620    3.2080    2.3100 O   0  0  0  0  0  0  0  0  0  0  0  0
   -2.5600    3.4940    1.5140 C   0  0  0  0  0  0  0  0  0  0  0  0
   -1.8120    4.6380    1.6880 C   0  0  0  0  0  0  0  0  0  0  0  0
   -0.7160    4.9320    0.9040 C   0  0  0  0  0  0  0  0  0  0  0  0
   -0.3450    4.0720   -0.0840 C   0  0  0  0  0  0  0  0  0  0  0  0
   -1.0380    2.9270   -0.3100 C   0  0  0  0  0  0  0  0  0  0  0  0
   -0.7700    1.8970   -1.3370 C   0  0  1  0  0  0  0  0  0  0  0  0
    0.6130    1.8550   -1.9150 C   0  0  0  0  0  0  0  0  0  0  0  0
    1.6050    1.0920   -1.3150 N   0  0  0  0  0  0  0  0  0  0  0  0
    2.1380    1.1380   -0.0280 C   0  0  0  0  0  0  0  0  0  0  0  0
    1.7050    1.9700    0.7800 O   0  0  0  0  0  0  0  0  0  0  0  0
    3.2140    0.2080    0.4000 C   0  0  0  0  0  0  0  0  0  0  0  0
    3.4110   -0.0820    1.7350 C   0  0  0  0  0  0  0  0  0  0  0  0
    4.4080   -0.9420    2.1440 C   0  0  0  0  0  0  0  0  0  0  0  0
    5.2460   -1.5440    1.2330 C   0  0  0  0  0  0  0  0  0  0  0  0
    5.0640   -1.2650   -0.0980 C   0  0  0  0  0  0  0  0  0  0  0  0
    4.0480   -0.3890   -0.5150 C   0  0  0  0  0  0  0  0  0  0  0  0
    6.0900   -2.0230   -0.8550 C   0  0  0  0  0  0  0  0  0  0  0  0
    6.5480   -3.0510    0.1490 C   0  0  0  0  0  0  0  0  0  0  0  0
    6.3200   -2.4610    1.4440 N   0  0  0  0  0  0  0  0  0  0  0  0
   -1.3720    0.7610   -1.1260 O   0  0  0  0  0  0  0  0  0  0  0  0
   -1.9980   -0.3390   -0.9630 C   0  0  0  0  0  0  0  0  0  0  0  0
   -1.5870   -1.2220    0.0570 C   0  0  0  0  0  0  0  0  0  0  0  0
   -2.2040   -2.4220    0.2990 C   0  0  0  0  0  0  0  0  0  0  0  0
   -3.2720   -2.8140   -0.4650 C   0  0  0  0  0  0  0  0  0  0  0  0
   -3.9300   -4.0270   -0.2520 O   0  0  0  0  0  0  0  0  0  0  0  0
   -3.4590   -4.8770    0.8030 C   0  0  0  0  0  0  0  0  0  0  0  0
   -3.7120   -1.9780   -1.4800 C   0  0  0  0  0  0  0  0  0  0  0  0
   -4.8860   -2.4290   -2.3080 C   0  0  0  0  0  0  0  0  0  0  0  0
   -3.0980   -0.7790   -1.7240 C   0  0  0  0  0  0  0  0  0  0  0  0
   -3.5950    0.0570   -2.8020 C   0  0  0  0  0  0  0  0  0  0  0  0
   -4.5680   -0.2790   -3.5100 O   0  0  0  0  0  0  0  0  0  0  0  0
   -2.1460    2.6540    0.5020 C   0  0  0  0  0  0  0  0  0  0  0  0
  1  2  1  0
  2  3  1  0
  3  4  2  0
  3 34  1  0
  4  5  1  0
  5  6  2  0
  6  7  1  0
  7  8  1  0
  7 34  2  0
  8  9  1  1
  8 22  1  0
  9 10  1  0
 10 11  1  0
 11 12  2  0
 11 13  1  0
 13 14  2  0
 13 18  1  0
 14 15  1  0
 15 16  2  0
 16 17  1  0
 16 21  1  0
 17 18  2  0
 17 19  1  0
 19 20  1  0
 20 21  1  0
 22 23  1  0
 23 24  2  0
 23 31  1  0
 24 25  1  0
 25 26  2  0
 26 27  1  0
 26 29  1  0
 27 28  1  0
 29 30  1  0
 29 31  2  0
 31 32  1  0
 32 33  2  0
M  CHG  1  21   1
M  END
