
     RDKit          3D

 34 37  0  0  0  0  0  0  0  0999 V2000
    7.6010   -2.9500   -1.5220 C   0  0  0  0  0  0  0  0  0  0  0  0
    7.2010   -1.7220   -1.7700 C   0  0  0  0  0  0  0  0  0  0  0  0
    7.0980   -0.7660   -0.6370 C   0  0  0  0  0  0  0  0  0  0  0  0
    6.7000    0.4320   -0.9390 C   0  0  0  0  0  0  0  0  0  0  0  0
    6.5630    1.4490    0.0920 C   0  0  0  0  0  0  0  0  0  0  0  0
    6.1050    2.8120   -0.2530 C   0  0  0  0  0  0  0  0  0  0  0  0
    4.8140    2.7750   -0.8650 N   0  0  0  0  0  0  0  0  0  0  0  0
    3.6600    2.4020   -0.1350 C   0  0  0  0  0  0  0  0  0  0  0  0
    2.4880    2.0820   -0.8260 C   0  0  0  0  0  0  0  0  0  0  0  0
    1.3390    1.7340   -0.1540 C   0  0  0  0  0  0  0  0  0  0  0  0
    1.3340    1.6960    1.2240 C   0  0  0  0  0  0  0  0  0  0  0  0
    0.2580    1.3590    2.0100 O   0  0  0  0  0  0  0  0  0  0  0  0
   -1.0020    0.9570    1.5680 C   0  0  0  0  0  0  0  0  0  0  0  0
   -1.0250   -0.3670    0.8450 C   0  0  0  0  0  0  0  0  0  0  0  0
   -2.1450   -0.8480    0.3770 O   0  0  0  0  0  0  0  0  0  0  0  0
   -2.9580   -0.4540   -0.5860 C   0  0  2  0  0  0  0  0  0  0  0  0
   -4.1430   -1.4320   -0.5500 C   0  0  0  0  0  0  0  0  0  0  0  0
   -4.8580   -1.4600    0.7480 C   0  0  1  0  0  0  0  0  0  0  0  0
   -5.4750   -0.2000    1.2310 C   0  0  0  0  0  0  0  0  0  0  0  0
   -6.6140   -0.6300    1.9760 O   0  0  0  0  0  0  0  0  0  0  0  0
   -7.0490   -1.6810    1.1920 C   0  0  2  0  0  0  0  0  0  0  0  0
   -8.0730   -1.1400    0.2240 C   0  0  0  0  0  0  0  0  0  0  0  0
   -7.7960   -2.6350    2.1270 C   0  0  0  0  0  0  0  0  0  0  0  0
   -5.9890   -2.2970    0.5920 O   0  0  0  0  0  0  0  0  0  0  0  0
   -2.3410   -0.7680   -1.9990 C   0  0  0  0  0  0  0  0  0  0  0  0
   -3.3790   -0.5750   -3.0360 C   0  0  0  0  0  0  0  0  0  0  0  0
   -4.3630    0.3230   -2.8180 O   0  0  0  0  0  0  0  0  0  0  0  0
   -4.2080    1.2950   -1.8960 C   0  0  0  0  0  0  0  0  0  0  0  0
   -3.3270    0.9720   -0.7050 C   0  0  0  0  0  0  0  0  0  0  0  0
    2.5060    2.0160    1.9220 C   0  0  0  0  0  0  0  0  0  0  0  0
    3.6400    2.3610    1.2400 C   0  0  0  0  0  0  0  0  0  0  0  0
    6.8620    1.0830    1.3090 C   0  0  0  0  0  0  0  0  0  0  0  0
    7.3160   -0.2560    1.7040 C   0  0  0  0  0  0  0  0  0  0  0  0
    7.4180   -1.1900    0.6620 N   0  0  0  0  0  0  0  0  0  0  0  0
  1  2  2  0
  2  3  1  0
  3  4  2  0
  3 34  1  0
  4  5  1  0
  5  6  1  0
  5 32  2  0
  6  7  1  0
  7  8  1  0
  8  9  2  0
  8 31  1  0
  9 10  1  0
 10 11  2  0
 11 12  1  0
 11 30  1  0
 12 13  1  0
 13 14  1  0
 14 15  1  0
 15 16  1  0
 16 17  1  1
 16 25  1  0
 16 29  1  0
 18 17  1  6
 18 19  1  0
 18 24  1  0
 19 20  1  0
 20 21  1  0
 21 22  1  6
 21 23  1  0
 21 24  1  0
 25 26  1  0
 26 27  1  0
 27 28  1  0
 28 29  1  0
 30 31  2  0
 32 33  1  0
 33 34  1  0
M  CHG  1  34   1
M  END
