
     RDKit          3D

 34 38  0  0  0  0  0  0  0  0999 V2000
    7.6750    0.2250   -0.3600 C   0  0  0  0  0  0  0  0  0  0  0  0
    6.2540   -0.1830   -0.0530 C   0  0  1  0  0  0  0  0  0  0  0  0
    5.7920   -1.1280   -0.9500 O   0  0  0  0  0  0  0  0  0  0  0  0
    4.3780   -1.3660   -0.7960 C   0  0  2  0  0  0  0  0  0  0  0  0
    3.6200   -0.4900   -1.7290 C   0  0  0  0  0  0  0  0  0  0  0  0
    4.3040    0.2650   -2.4420 O   0  0  0  0  0  0  0  0  0  0  0  0
    2.2270   -0.4880   -1.8240 N   0  0  0  0  0  0  0  0  0  0  0  0
    1.4390    0.2950   -2.6760 C   0  0  0  0  0  0  0  0  0  0  0  0
    1.9950    0.9800   -3.7290 C   0  0  0  0  0  0  0  0  0  0  0  0
    1.1500    1.6950   -4.6000 C   0  0  0  0  0  0  0  0  0  0  0  0
   -0.1970    1.7220   -4.4230 C   0  0  0  0  0  0  0  0  0  0  0  0
   -0.7570    1.0210   -3.3460 C   0  0  0  0  0  0  0  0  0  0  0  0
    0.0380    0.3150   -2.4770 C   0  0  0  0  0  0  0  0  0  0  0  0
   -0.4440   -0.3460   -1.3440 N   0  0  0  0  0  0  0  0  0  0  0  0
   -1.8380   -0.6250   -1.0900 C   0  0  0  0  0  0  0  0  0  0  0  0
   -2.7030   -0.2820   -1.9070 O   0  0  0  0  0  0  0  0  0  0  0  0
   -2.2570   -1.3170    0.1300 C   0  0  0  0  0  0  0  0  0  0  0  0
   -1.2890   -1.6820    0.9100 O   0  0  0  0  0  0  0  0  0  0  0  0
   -3.5550   -1.6190    0.5270 N   0  0  0  0  0  0  0  0  0  0  0  0
   -4.7140   -1.1930   -0.2250 C   0  0  0  0  0  0  0  0  0  0  0  0
   -5.3390    0.0790    0.1550 C   0  0  1  0  0  0  0  0  0  0  0  0
   -5.8620    0.1310    1.5890 C   0  0  0  0  0  0  0  0  0  0  0  0
   -6.1350    1.6050    1.8370 C   0  0  0  0  0  0  0  0  0  0  0  0
   -5.2940    2.3800    0.8460 C   0  0  0  0  0  0  0  0  0  0  0  0
   -4.5940    1.3490   -0.0360 C   0  0  0  0  0  0  0  0  0  0  0  0
   -3.7550   -2.4120    1.7460 C   0  0  2  0  0  0  0  0  0  0  0  0
   -2.9560   -2.0410    2.9950 C   0  0  0  0  0  0  0  0  0  0  0  0
   -2.7800   -3.3310    2.3090 C   0  0  0  0  0  0  0  0  0  0  0  0
    4.1690   -1.1260    0.5830 C   0  0  0  0  0  0  0  0  0  0  0  0
    5.1240   -1.6950    1.3640 N   0  0  0  0  0  0  0  0  0  0  0  0
    6.0910   -0.5200    1.4180 C   0  0  2  0  0  0  0  0  0  0  0  0
    5.3430    0.5210    2.1710 C   0  0  0  0  0  0  0  0  0  0  0  0
    3.8960    0.2470    2.5010 C   0  0  0  0  0  0  0  0  0  0  0  0
    3.2890   -0.4760    1.3490 O   0  0  0  0  0  0  0  0  0  0  0  0
  2  1  1  6
  2  3  1  0
  2 31  1  0
  3  4  1  0
  4  5  1  6
  4 29  1  0
  5  6  2  0
  5  7  1  0
  7  8  1  0
  8  9  2  0
  8 13  1  0
  9 10  1  0
 10 11  2  0
 11 12  1  0
 12 13  2  0
 13 14  1  0
 14 15  1  0
 15 16  2  0
 15 17  1  0
 17 18  2  0
 17 19  1  0
 19 20  1  0
 26 19  1  6
 21 20  1  1
 21 22  1  0
 21 25  1  0
 22 23  1  0
 23 24  1  0
 24 25  1  0
 26 27  1  0
 26 28  1  0
 27 28  1  0
 29 30  2  0
 29 34  1  0
 30 31  1  0
 31 32  1  1
 32 33  1  0
 33 34  1  0
M  END
