
     RDKit          3D

 29 32  0  0  0  0  0  0  0  0999 V2000
   -5.8670    2.2030   -0.2480 C   0  0  0  0  0  0  0  0  0  0  0  0
   -4.9600    1.7320    0.7780 N   0  0  0  0  0  0  0  0  0  0  0  0
   -5.0240    0.3050    0.9600 C   0  0  1  0  0  0  0  0  0  0  0  0
   -3.7160   -0.1350    1.6050 C   0  0  0  0  0  0  0  0  0  0  0  0
   -2.5700    0.1920    0.7800 N   0  0  0  0  0  0  0  0  0  0  0  0
   -2.4030   -0.3100   -0.5270 C   0  0  0  0  0  0  0  0  0  0  0  0
   -3.2600   -1.0660   -1.0160 O   0  0  0  0  0  0  0  0  0  0  0  0
   -1.2120    0.0670   -1.3030 C   0  0  0  0  0  0  0  0  0  0  0  0
   -1.2860   -0.6050   -2.6550 C   0  0  0  0  0  0  0  0  0  0  0  0
   -0.0870   -0.2620   -3.5140 C   0  0  0  0  0  0  0  0  0  0  0  0
    1.1820   -0.6950   -2.8690 C   0  0  0  0  0  0  0  0  0  0  0  0
    1.7270   -1.8990   -3.0600 N   0  0  0  0  0  0  0  0  0  0  0  0
    2.8480   -1.9030   -2.3170 N   0  0  0  0  0  0  0  0  0  0  0  0
    2.9820   -0.7440   -1.6940 C   0  0  0  0  0  0  0  0  0  0  0  0
    4.0630   -0.3660   -0.8010 C   0  0  0  0  0  0  0  0  0  0  0  0
    5.0640   -1.1780   -0.5090 C   0  0  0  0  0  0  0  0  0  0  0  0
    6.1440   -0.8100    0.3790 C   0  0  0  0  0  0  0  0  0  0  0  0
    7.1470   -1.6360    0.6670 C   0  0  0  0  0  0  0  0  0  0  0  0
    8.1900   -1.2070    1.5570 C   0  0  0  0  0  0  0  0  0  0  0  0
    8.1940   -0.0130    2.1090 C   0  0  0  0  0  0  0  0  0  0  0  0
    7.1670    1.0120    1.8970 C   0  0  0  0  0  0  0  0  0  0  0  0
    6.1230    0.5210    0.9770 C   0  0  0  0  0  0  0  0  0  0  0  0
    5.1260    1.3140    0.6790 N   0  0  0  0  0  0  0  0  0  0  0  0
    4.0990    0.9250   -0.1840 N   0  0  0  0  0  0  0  0  0  0  0  0
    3.0210    1.8580   -0.4720 C   0  0  0  0  0  0  0  0  0  0  0  0
    1.9410    0.0270   -2.0320 N   0  0  0  0  0  0  0  0  0  0  0  0
   -6.1260   -0.0730    1.9270 C   0  0  2  0  0  0  0  0  0  0  0  0
   -6.2310   -1.5720    2.1500 C   0  0  0  0  0  0  0  0  0  0  0  0
   -7.3060   -0.8390    1.4780 C   0  0  0  0  0  0  0  0  0  0  0  0
  1  2  1  0
  2  3  1  0
  3  4  1  1
  3 27  1  0
  4  5  1  0
  5  6  1  0
  6  7  2  0
  6  8  1  0
  8  9  1  0
  9 10  1  0
 10 11  1  0
 11 12  2  0
 11 26  1  0
 12 13  1  0
 13 14  1  0
 14 15  1  0
 14 26  2  0
 15 16  2  0
 15 24  1  0
 16 17  1  0
 17 18  2  0
 17 22  1  0
 18 19  1  0
 19 20  2  0
 20 21  1  0
 21 22  1  0
 22 23  2  0
 23 24  1  0
 24 25  1  0
 27 28  1  1
 27 29  1  0
 28 29  1  0
M  CHG  1   2   1
M  END
