
     RDKit          3D

 29 32  0  0  0  0  0  0  0  0999 V2000
   -3.1640    3.0890    2.6520 C   0  0  0  0  0  0  0  0  0  0  0  0
   -3.9900    1.9070    2.2300 C   0  0  0  0  0  0  0  0  0  0  0  0
   -3.3240    1.2590    1.0840 N   0  0  0  0  0  0  0  0  0  0  0  0
   -3.8990    0.1090    0.4950 C   0  0  0  0  0  0  0  0  0  0  0  0
   -5.1240   -0.3300    0.9060 N   0  0  0  0  0  0  0  0  0  0  0  0
   -5.4250   -1.3700    0.1290 C   0  0  0  0  0  0  0  0  0  0  0  0
   -6.5510   -2.1700    0.1300 C   0  0  0  0  0  0  0  0  0  0  0  0
   -6.6220   -3.1940   -0.7880 C   0  0  0  0  0  0  0  0  0  0  0  0
   -5.6040   -3.4210   -1.6830 C   0  0  0  0  0  0  0  0  0  0  0  0
   -4.4840   -2.5850   -1.6460 C   0  0  0  0  0  0  0  0  0  0  0  0
   -4.3960   -1.5600   -0.7400 C   0  0  0  0  0  0  0  0  0  0  0  0
   -3.4130   -0.6080   -0.4980 N   0  0  0  0  0  0  0  0  0  0  0  0
   -2.2180   -0.7030   -1.1740 N   0  0  0  0  0  0  0  0  0  0  0  0
   -0.9290   -0.2440   -0.8370 C   0  0  0  0  0  0  0  0  0  0  0  0
   -0.7310    0.3320    0.2360 O   0  0  0  0  0  0  0  0  0  0  0  0
    0.2340   -0.4240   -1.7350 C   0  0  2  0  0  0  0  0  0  0  0  0
    0.4600   -1.8040   -2.2330 C   0  0  0  0  0  0  0  0  0  0  0  0
    1.7530   -1.5980   -3.0330 C   0  0  0  0  0  0  0  0  0  0  0  0
    2.4260   -0.4720   -2.2810 C   0  0  0  0  0  0  0  0  0  0  0  0
    1.4960   -0.0430   -1.2320 N   0  0  0  0  0  0  0  0  0  0  0  0
    1.9280   -0.6280   -0.0070 C   0  0  0  0  0  0  0  0  0  0  0  0
    3.3200   -0.1380    0.2870 C   0  0  0  0  0  0  0  0  0  0  0  0
    4.4750   -0.8030    0.1840 N   0  0  0  0  0  0  0  0  0  0  0  0
    5.5090   -0.0220    0.5380 C   0  0  0  0  0  0  0  0  0  0  0  0
    6.9600   -0.3450    0.5740 C   0  0  0  0  0  0  0  0  0  0  0  0
    4.9750    1.1950    0.8820 C   0  0  0  0  0  0  0  0  0  0  0  0
    5.7510    2.3730    1.3400 C   0  0  0  0  0  0  0  0  0  0  0  0
    4.8010    3.5300    1.6240 C   0  0  0  0  0  0  0  0  0  0  0  0
    3.6460    1.0990    0.7210 N   0  0  0  0  0  0  0  0  0  0  0  0
  1  2  1  0
  2  3  1  0
  3  4  1  0
  4  5  2  0
  4 12  1  0
  5  6  1  0
  6  7  2  0
  6 11  1  0
  7  8  1  0
  8  9  2  0
  9 10  1  0
 10 11  2  0
 11 12  1  0
 12 13  1  0
 13 14  1  0
 14 15  2  0
 16 14  1  1
 16 17  1  0
 16 20  1  0
 17 18  1  0
 18 19  1  0
 19 20  1  0
 20 21  1  0
 21 22  1  0
 22 23  2  0
 22 29  1  0
 23 24  1  0
 24 25  1  0
 24 26  2  0
 26 27  1  0
 26 29  1  0
 27 28  1  0
M  CHG  1   5   1
M  END
