
     RDKit          3D

 29 31  0  0  0  0  0  0  0  0999 V2000
    0.0740   -2.7010    1.1030 C   0  0  0  0  0  0  0  0  0  0  0  0
    0.1800   -1.4550    0.4050 O   0  0  0  0  0  0  0  0  0  0  0  0
   -0.9100   -0.7150    0.0240 C   0  0  0  0  0  0  0  0  0  0  0  0
   -2.0480   -1.1440    0.2980 O   0  0  0  0  0  0  0  0  0  0  0  0
   -0.7830    0.5640   -0.6940 C   0  0  0  0  0  0  0  0  0  0  0  0
   -1.8290    1.2210   -1.0290 N   0  0  0  0  0  0  0  0  0  0  0  0
   -3.1120    0.7080   -0.7040 C   0  0  0  0  0  0  0  0  0  0  0  0
   -3.8050   -0.1310   -1.5650 C   0  0  0  0  0  0  0  0  0  0  0  0
   -5.0520   -0.6100   -1.2180 C   0  0  0  0  0  0  0  0  0  0  0  0
   -5.6660   -0.2890   -0.0290 C   0  0  0  0  0  0  0  0  0  0  0  0
   -4.9900    0.5440    0.8370 C   0  0  0  0  0  0  0  0  0  0  0  0
   -3.7370    1.0230    0.4850 C   0  0  0  0  0  0  0  0  0  0  0  0
   -5.8170    0.7060    1.9440 O   0  0  0  0  0  0  0  0  0  0  0  0
   -7.1500    0.3550    1.6200 C   0  0  0  0  0  0  0  0  0  0  0  0
   -6.9260   -0.6350    0.5730 N   0  0  0  0  0  0  0  0  0  0  0  0
    0.5370    1.0970   -1.0310 C   0  0  0  0  0  0  0  0  0  0  0  0
    0.6300    2.3850   -1.7530 C   0  0  0  0  0  0  0  0  0  0  0  0
    1.5690    0.4280   -0.6890 N   0  0  0  0  0  0  0  0  0  0  0  0
    3.1780    0.9360   -1.0210 S   0  0  1  0  0  0  0  0  0  0  0  0
    3.4730    0.5820   -2.4590 O   0  0  0  0  0  0  0  0  0  0  0  0
    3.3520    2.4100   -0.7750 O   0  0  0  0  0  0  0  0  0  0  0  0
    4.3010    0.0640   -0.0210 C   0  0  0  0  0  0  0  0  0  0  0  0
    3.8920   -0.8910    0.8920 C   0  0  0  0  0  0  0  0  0  0  0  0
    4.8230   -1.5530    1.6590 C   0  0  0  0  0  0  0  0  0  0  0  0
    6.1620   -1.2460    1.4990 C   0  0  0  0  0  0  0  0  0  0  0  0
    7.0540   -1.9150    2.2690 F   0  0  0  0  0  0  0  0  0  0  0  0
    6.5570   -0.3050    0.5980 C   0  0  0  0  0  0  0  0  0  0  0  0
    5.6560    0.3620   -0.1710 C   0  0  0  0  0  0  0  0  0  0  0  0
    6.0710    1.3470   -1.1140 N   0  0  0  0  0  0  0  0  0  0  0  0
  1  2  1  0
  2  3  1  0
  3  4  2  0
  3  5  1  0
  5  6  2  3
  5 16  1  0
  6  7  1  0
  7  8  2  0
  7 12  1  0
  8  9  1  0
  9 10  2  0
 10 11  1  0
 10 15  1  0
 11 12  2  0
 11 13  1  0
 13 14  1  0
 14 15  1  0
 16 17  1  0
 16 18  2  3
 19 18  1  1
 19 20  2  0
 19 21  2  0
 19 22  1  0
 22 23  2  0
 22 28  1  0
 23 24  1  0
 24 25  2  0
 25 26  1  0
 25 27  1  0
 27 28  2  0
 28 29  1  0
M  END
