
     RDKit          3D

 24 26  0  0  0  0  0  0  0  0999 V2000
   -3.6770   -3.0730   -1.4630 C   0  0  0  0  0  0  0  0  0  0  0  0
   -3.6940   -2.3670   -0.1000 C   0  0  0  0  0  0  0  0  0  0  0  0
   -2.6030   -1.3270   -0.0820 C   0  0  0  0  0  0  0  0  0  0  0  0
   -2.8640   -0.0580    0.0340 C   0  0  0  0  0  0  0  0  0  0  0  0
   -4.2530    0.4720    0.1560 C   0  0  0  0  0  0  0  0  0  0  0  0
   -5.3490   -0.1380    0.1630 O   0  0  0  0  0  0  0  0  0  0  0  0
   -4.0680    1.8700    0.2670 N   0  0  0  0  0  0  0  0  0  0  0  0
   -2.7050    2.2120    0.2220 C   0  0  0  0  0  0  0  0  0  0  0  0
   -2.2790    3.6230    0.3200 C   0  0  0  0  0  0  0  0  0  0  0  0
   -2.7660    4.1840    1.6680 C   0  0  0  0  0  0  0  0  0  0  0  0
   -1.9560    1.0820    0.0820 C   0  0  0  0  0  0  0  0  0  0  0  0
   -0.5700    1.2100    0.0200 N   0  0  0  0  0  0  0  0  0  0  0  0
    0.4670    0.2800   -0.1180 C   0  0  0  0  0  0  0  0  0  0  0  0
    0.2250   -0.8990   -0.2110 O   0  0  0  0  0  0  0  0  0  0  0  0
    1.8530    0.6800   -0.1530 N   0  0  0  0  0  0  0  0  0  0  0  0
    2.9360   -0.2090   -0.2940 C   0  0  0  0  0  0  0  0  0  0  0  0
    2.8950   -1.5040   -0.7140 C   0  0  0  0  0  0  0  0  0  0  0  0
    4.0550   -2.2900   -0.7770 C   0  0  0  0  0  0  0  0  0  0  0  0
    5.2790   -1.7730   -0.4130 C   0  0  0  0  0  0  0  0  0  0  0  0
    6.5320   -2.2760   -0.3670 N   0  0  0  0  0  0  0  0  0  0  0  0
    7.3660   -1.3250    0.0730 C   0  0  0  0  0  0  0  0  0  0  0  0
    6.6380   -0.2320    0.3010 N   0  0  0  0  0  0  0  0  0  0  0  0
    5.3380   -0.4680    0.0130 C   0  0  0  0  0  0  0  0  0  0  0  0
    4.1980    0.2920    0.0700 C   0  0  0  0  0  0  0  0  0  0  0  0
  1  2  1  0
  2  3  1  0
  3  4  2  3
  4  5  1  0
  4 11  1  0
  5  6  2  0
  5  7  1  0
  7  8  1  0
  8  9  1  0
  8 11  2  0
  9 10  1  0
 11 12  1  0
 12 13  1  0
 13 14  2  0
 13 15  1  0
 15 16  1  0
 16 17  2  0
 16 24  1  0
 17 18  1  0
 18 19  2  0
 19 20  1  0
 19 23  1  0
 20 21  1  0
 21 22  2  0
 22 23  1  0
 23 24  2  0
M  END
