
     RDKit          3D

 19 20  0  0  0  0  0  0  0  0999 V2000
    2.6800    2.1300    0.0100 C   0  0  0  0  0  0  0  0  0  0  0  0
    2.8100    0.8340    0.0090 C   0  0  0  0  0  0  0  0  0  0  0  0
    1.8160   -0.1930   -0.2090 C   0  0  0  0  0  0  0  0  0  0  0  0
    2.1770   -1.4860   -0.0960 C   0  0  0  0  0  0  0  0  0  0  0  0
    3.4970   -2.0130    0.2360 C   0  0  0  0  0  0  0  0  0  0  0  0
    3.4390   -2.9850    1.7380 Cl  0  0  0  0  0  0  0  0  0  0  0  0
    0.3990    0.0400   -0.4740 C   0  0  0  0  0  0  0  0  0  0  0  0
   -0.0620    0.9770   -1.3480 C   0  0  0  0  0  0  0  0  0  0  0  0
    0.8370    1.6870   -2.1940 N   0  0  0  0  0  0  0  0  0  0  0  0
   -1.3650    1.2340   -1.4330 O   0  0  0  0  0  0  0  0  0  0  0  0
   -2.2500    0.6100   -0.7000 C   0  0  0  0  0  0  0  0  0  0  0  0
   -3.6080    0.8780   -0.7890 C   0  0  0  0  0  0  0  0  0  0  0  0
   -4.5540    0.2300   -0.0240 C   0  0  0  0  0  0  0  0  0  0  0  0
   -4.1640   -0.7340    0.8800 C   0  0  0  0  0  0  0  0  0  0  0  0
   -5.3060   -1.5980    1.8840 Cl  0  0  0  0  0  0  0  0  0  0  0  0
   -2.8170   -1.0070    0.9760 C   0  0  0  0  0  0  0  0  0  0  0  0
   -1.8530   -0.3510    0.2000 C   0  0  0  0  0  0  0  0  0  0  0  0
   -0.5160   -0.6520    0.3280 C   0  0  0  0  0  0  0  0  0  0  0  0
   -0.1460   -1.5210    1.1460 O   0  0  0  0  0  0  0  0  0  0  0  0
  1  2  2  0
  2  3  1  0
  3  4  2  3
  3  7  1  0
  4  5  1  0
  5  6  1  0
  7  8  2  0
  7 18  1  0
  8  9  1  0
  8 10  1  0
 10 11  1  0
 11 12  2  0
 11 17  1  0
 12 13  1  0
 13 14  2  0
 14 15  1  0
 14 16  1  0
 16 17  2  0
 17 18  1  0
 18 19  2  0
M  END
