
     RDKit          3D

 24 26  0  0  0  0  0  0  0  0999 V2000
   -2.8680    3.6630    1.1810 C   0  0  0  0  0  0  0  0  0  0  0  0
   -2.6170    2.4410    0.4080 N   0  0  0  0  0  0  0  0  0  0  0  0
   -1.3690    1.7710    0.4800 C   0  0  0  0  0  0  0  0  0  0  0  0
   -0.5440    2.3720    1.2810 O   0  0  0  0  0  0  0  0  0  0  0  0
   -0.9780    0.5870   -0.2040 C   0  0  0  0  0  0  0  0  0  0  0  0
   -1.6630   -0.3190   -0.9260 C   0  0  0  0  0  0  0  0  0  0  0  0
   -3.0920   -0.4360   -1.1870 C   0  0  0  0  0  0  0  0  0  0  0  0
   -3.9200   -1.0530   -0.1080 C   0  0  2  0  0  0  0  0  0  0  0  0
   -5.3660   -1.0460   -0.6340 C   0  0  0  0  0  0  0  0  0  0  0  0
   -3.9200   -0.3820    1.2170 C   0  0  0  0  0  0  0  0  0  0  0  0
   -0.7730   -1.2480   -1.4140 N   0  0  0  0  0  0  0  0  0  0  0  0
    0.4640   -0.9550   -1.0190 C   0  0  0  0  0  0  0  0  0  0  0  0
    1.6940   -1.5510   -1.2270 C   0  0  0  0  0  0  0  0  0  0  0  0
    1.7210   -2.5820   -1.9210 O   0  0  0  0  0  0  0  0  0  0  0  0
    2.8540   -1.0340   -0.6940 C   0  0  0  0  0  0  0  0  0  0  0  0
    4.1710   -1.6760   -0.9240 C   0  0  0  0  0  0  0  0  0  0  0  0
    5.2430   -0.9420   -0.2060 C   0  0  0  0  0  0  0  0  0  0  0  0
    5.9280    0.0800   -0.7300 N   0  0  0  0  0  0  0  0  0  0  0  0
    6.8230    0.5290    0.1590 C   0  0  0  0  0  0  0  0  0  0  0  0
    6.6930   -0.2400    1.2800 C   0  0  0  0  0  0  0  0  0  0  0  0
    5.7210   -1.1310    1.0320 N   0  0  0  0  0  0  0  0  0  0  0  0
    2.7200    0.1100    0.0600 C   0  0  0  0  0  0  0  0  0  0  0  0
    1.5140    0.6890    0.2610 N   0  0  0  0  0  0  0  0  0  0  0  0
    0.3760    0.1890   -0.2580 C   0  0  0  0  0  0  0  0  0  0  0  0
  1  2  1  0
  2  3  1  0
  3  4  2  0
  3  5  1  0
  5  6  2  0
  5 24  1  0
  6  7  1  0
  6 11  1  0
  7  8  1  0
  8  9  1  6
  8 10  1  0
 11 12  1  0
 12 13  1  0
 12 24  2  0
 13 14  2  0
 13 15  1  0
 15 16  1  0
 15 22  2  0
 16 17  1  0
 17 18  2  0
 17 21  1  0
 18 19  1  0
 19 20  2  0
 20 21  1  0
 22 23  1  0
 23 24  1  0
M  END
