
     RDKit          3D

 30 30  0  0  0  0  0  0  0  0999 V2000
   -3.4730   -1.7710   -1.2680 C   0  0  0  0  0  0  0  0  0  0  0  0
   -2.8740   -1.7960    0.0240 N   0  0  0  0  0  0  0  0  0  0  0  0
   -3.1080   -2.8490    0.9370 C   0  0  0  0  0  0  0  0  0  0  0  0
   -4.2650   -3.3970    0.9440 O   0  0  0  0  0  0  0  0  0  0  0  0
   -2.1280   -3.3910    1.9050 C   0  0  0  0  0  0  0  0  0  0  0  0
   -0.8730   -2.5510    1.8250 C   0  0  1  0  0  0  0  0  0  0  0  0
   -0.2060   -2.9380    0.6440 O   0  0  0  0  0  0  0  0  0  0  0  0
   -1.3080   -1.1360    1.7160 C   0  0  0  0  0  0  0  0  0  0  0  0
   -1.0970   -0.4100    2.6620 O   0  0  0  0  0  0  0  0  0  0  0  0
   -1.9670   -0.6970    0.4730 C   0  0  2  0  0  0  0  0  0  0  0  0
   -2.8800    0.4690    0.7410 C   0  0  0  0  0  0  0  0  0  0  0  0
   -4.1190    0.4200    0.4030 O   0  0  0  0  0  0  0  0  0  0  0  0
   -2.4580    1.6570    1.3630 N   0  0  0  0  0  0  0  0  0  0  0  0
   -3.4060    2.7700    1.5960 C   0  0  0  0  0  0  0  0  0  0  0  0
   -3.9550    3.2320    0.2780 C   0  0  0  0  0  0  0  0  0  0  0  0
   -3.6200    2.7110   -0.8170 O   0  0  0  0  0  0  0  0  0  0  0  0
   -4.8700    4.2720    0.2300 O   0  0  0  0  0  0  0  0  0  0  0  0
   -0.9850   -0.4400   -0.5790 C   0  0  0  0  0  0  0  0  0  0  0  0
   -1.2670   -0.8220   -1.7660 O   0  0  0  0  0  0  0  0  0  0  0  0
    0.2800    0.2070   -0.3900 C   0  0  0  0  0  0  0  0  0  0  0  0
    0.6990    0.5890    0.7240 O   0  0  0  0  0  0  0  0  0  0  0  0
    1.2210    0.4820   -1.5390 C   0  0  0  0  0  0  0  0  0  0  0  0
    2.4520    1.1490   -1.1250 C   0  0  0  0  0  0  0  0  0  0  0  0
    3.6200    0.5690   -1.3400 C   0  0  0  0  0  0  0  0  0  0  0  0
    3.6980   -0.6830   -1.9630 O   0  0  0  0  0  0  0  0  0  0  0  0
    3.6610   -1.8270   -1.2570 O   0  0  0  0  0  0  0  0  0  0  0  0
    4.9130    1.1910   -0.9450 C   0  0  2  0  0  0  0  0  0  0  0  0
    5.7550    1.3830   -2.1760 C   0  0  0  0  0  0  0  0  0  0  0  0
    5.5360    0.2840    0.0060 N   0  0  0  0  0  0  0  0  0  0  0  0
    4.6730    2.4380   -0.3580 O   0  0  0  0  0  0  0  0  0  0  0  0
  1  2  1  0
  2  3  1  0
  2 10  1  0
  3  4  2  0
  3  5  1  0
  5  6  1  0
  6  7  1  6
  6  8  1  0
  8  9  2  0
  8 10  1  0
 10 11  1  1
 10 18  1  0
 11 12  2  0
 11 13  1  0
 13 14  1  0
 14 15  1  0
 15 16  2  0
 15 17  1  0
 18 19  2  0
 18 20  1  0
 20 21  2  0
 20 22  1  0
 22 23  1  0
 23 24  2  3
 24 25  1  0
 24 27  1  0
 25 26  1  0
 27 28  1  6
 27 29  1  0
 27 30  1  0
M  END
