
     RDKit          3D

 31 33  0  0  0  0  0  0  0  0999 V2000
   -4.1300    3.8920   -0.5120 C   0  0  0  0  0  0  0  0  0  0  0  0
   -3.8370    3.0250   -1.5490 O   0  0  0  0  0  0  0  0  0  0  0  0
   -2.5940    2.4300   -1.4450 C   0  0  0  0  0  0  0  0  0  0  0  0
   -2.4500    1.6000   -0.1580 C   0  0  0  0  0  0  0  0  0  0  0  0
   -1.1140    1.0430   -0.1910 N   0  0  0  0  0  0  0  0  0  0  0  0
   -0.2130    2.1800   -0.0460 C   0  0  2  0  0  0  0  0  0  0  0  0
    0.5660    2.2210   -1.2560 N   0  0  0  0  0  0  0  0  0  0  0  0
    1.2280    1.1010   -1.2330 C   0  0  0  0  0  0  0  0  0  0  0  0
    1.3980    0.7820    0.2010 C   0  0  2  0  0  0  0  0  0  0  0  0
    2.8390    0.6880    0.5390 C   0  0  1  0  0  0  0  0  0  0  0  0
    3.0790    0.5030    1.8950 O   0  0  0  0  0  0  0  0  0  0  0  0
    3.5600   -0.3060   -0.3200 C   0  0  0  0  0  0  0  0  0  0  0  0
    4.9970   -0.1330   -0.0550 N   0  0  0  0  0  0  0  0  0  0  0  0
    5.6470   -1.0260   -0.8340 O   0  0  0  0  0  0  0  0  0  0  0  0
    6.8820   -0.5800   -1.0070 O   0  0  0  0  0  0  0  0  0  0  0  0
    7.3190   -0.0410    0.2150 C   0  0  0  0  0  0  0  0  0  0  0  0
    0.5790   -0.4140    0.6380 C   0  0  0  0  0  0  0  0  0  0  0  0
   -0.8590    0.0320    0.7850 C   0  0  1  0  0  0  0  0  0  0  0  0
   -1.1700    0.4650    2.0660 O   0  0  0  0  0  0  0  0  0  0  0  0
   -2.4860    0.2390    2.0780 O   0  0  0  0  0  0  0  0  0  0  0  0
   -2.7990   -0.9500    1.3800 C   0  0  0  0  0  0  0  0  0  0  0  0
   -4.0160   -1.7040    1.6470 C   0  0  0  0  0  0  0  0  0  0  0  0
   -4.8260   -1.2580    2.5490 O   0  0  0  0  0  0  0  0  0  0  0  0
   -4.4330   -2.8590    1.0520 O   0  0  0  0  0  0  0  0  0  0  0  0
   -1.8030   -1.1220    0.5520 C   0  0  0  0  0  0  0  0  0  0  0  0
   -1.6050   -2.2100   -0.4140 C   0  0  0  0  0  0  0  0  0  0  0  0
   -2.5910   -3.1780   -0.4590 O   0  0  0  0  0  0  0  0  0  0  0  0
   -2.6030   -4.2790   -1.2770 C   0  0  0  0  0  0  0  0  0  0  0  0
   -1.6410   -4.4580   -2.0770 O   0  0  0  0  0  0  0  0  0  0  0  0
   -3.6220   -5.2160   -1.2770 O   0  0  0  0  0  0  0  0  0  0  0  0
    0.8130    1.8790    0.8800 O   0  0  0  0  0  0  0  0  0  0  0  0
  1  2  1  0
  2  3  1  0
  3  4  1  0
  4  5  1  0
  6  5  1  6
  5 18  1  0
  6  7  1  0
  6 31  1  0
  7  8  2  0
  8  9  1  0
  9 10  1  0
  9 17  1  6
  9 31  1  0
 10 11  1  1
 10 12  1  0
 12 13  1  0
 13 14  1  0
 14 15  1  0
 15 16  1  0
 18 17  1  1
 18 19  1  0
 18 25  1  0
 19 20  1  0
 20 21  1  0
 21 22  1  0
 21 25  2  0
 22 23  2  0
 22 24  1  0
 25 26  1  0
 26 27  1  0
 27 28  1  0
 28 29  2  0
 28 30  1  0
M  END
