
     RDKit          3D

 31 32  0  0  0  0  0  0  0  0999 V2000
    7.3750   -0.9140    0.3140 C   0  0  0  0  0  0  0  0  0  0  0  0
    6.5090    0.2680    0.0760 N   0  0  2  0  0  0  0  0  0  0  0  0
    6.1570    0.2100   -1.3240 C   0  0  0  0  0  0  0  0  0  0  0  0
    7.2570    1.4410    0.4110 C   0  0  0  0  0  0  0  0  0  0  0  0
    5.4410    0.1440    0.9750 C   0  0  0  0  0  0  0  0  0  0  0  0
    4.3550    1.2040    0.9790 C   0  0  0  0  0  0  0  0  0  0  0  0
    3.8280    1.3050   -0.2970 O   0  0  0  0  0  0  0  0  0  0  0  0
    2.3970    0.6340   -0.5880 P   0  0  0  0  0  0  0  0  0  0  0  0
    2.0980    0.3220    0.8730 O   0  0  0  0  0  0  0  0  0  0  0  0
    2.4720   -0.9950   -1.0490 O   0  0  0  0  0  0  0  0  0  0  0  0
    0.9150    1.3400   -0.7590 O   0  0  0  0  0  0  0  0  0  0  0  0
   -0.2510    0.2940   -0.1910 P   0  0  0  0  0  0  0  0  0  0  0  0
   -0.3220   -0.3910   -1.5150 O   0  0  0  0  0  0  0  0  0  0  0  0
    0.2310   -1.1010    0.6530 O   0  0  0  0  0  0  0  0  0  0  0  0
   -1.7870    0.6470    0.0090 O   0  0  0  0  0  0  0  0  0  0  0  0
   -2.6660   -0.1410   -0.7600 C   0  0  0  0  0  0  0  0  0  0  0  0
   -3.2560   -1.1750    0.1510 C   0  0  1  0  0  0  0  0  0  0  0  0
   -3.9060   -0.8250    1.2550 O   0  0  0  0  0  0  0  0  0  0  0  0
   -5.2690   -1.1200    1.0850 C   0  0  1  0  0  0  0  0  0  0  0  0
   -5.7870    0.0710    0.4580 N   0  0  0  0  0  0  0  0  0  0  0  0
   -5.3830    1.2400    1.0560 C   0  0  0  0  0  0  0  0  0  0  0  0
   -5.7170    2.4670    0.5460 C   0  0  0  0  0  0  0  0  0  0  0  0
   -6.4780    2.4580   -0.6030 C   0  0  0  0  0  0  0  0  0  0  0  0
   -6.8310    3.5790   -1.1000 N   0  0  0  0  0  0  0  0  0  0  0  0
   -6.8590    1.3210   -1.1770 N   0  0  0  0  0  0  0  0  0  0  0  0
   -6.5060    0.1190   -0.6320 C   0  0  0  0  0  0  0  0  0  0  0  0
   -6.8620   -0.9640   -1.1800 O   0  0  0  0  0  0  0  0  0  0  0  0
   -5.1970   -2.3680    0.3280 C   0  0  2  0  0  0  0  0  0  0  0  0
   -4.6180   -3.3250    1.2170 O   0  0  0  0  0  0  0  0  0  0  0  0
   -4.1040   -2.1070   -0.6820 C   0  0  2  0  0  0  0  0  0  0  0  0
   -3.4050   -3.3030   -1.0010 O   0  0  0  0  0  0  0  0  0  0  0  0
  2  1  1  1
  2  3  1  0
  2  4  1  0
  2  5  1  0
  5  6  1  0
  6  7  1  0
  7  8  1  0
  8  9  1  0
  8 10  1  0
  8 11  1  0
 11 12  1  0
 12 13  1  0
 12 14  1  0
 12 15  1  0
 15 16  1  0
 17 16  1  6
 17 18  1  0
 17 30  1  0
 18 19  1  0
 19 20  1  6
 19 28  1  0
 20 21  1  0
 20 26  1  0
 21 22  2  0
 22 23  1  0
 23 24  2  0
 23 25  1  0
 25 26  1  0
 26 27  2  0
 28 29  1  1
 28 30  1  0
 30 31  1  1
M  CHG  1   2   1
M  END
