
     RDKit          3D

 31 31  0  0  0  0  0  0  0  0999 V2000
   -1.3150   -1.2980   -4.0180 C   0  0  0  0  0  0  0  0  0  0  0  0
   -1.2880   -0.6600   -2.7630 O   0  0  0  0  0  0  0  0  0  0  0  0
   -0.1440   -0.3050   -2.1290 C   0  0  0  0  0  0  0  0  0  0  0  0
    0.9170   -0.6130   -2.7990 O   0  0  0  0  0  0  0  0  0  0  0  0
    0.0410    0.3560   -0.8370 C   0  0  0  0  0  0  0  0  0  0  0  0
   -0.9640    0.6530   -0.0930 C   0  0  0  0  0  0  0  0  0  0  0  0
   -0.5990    1.3640    1.2330 C   0  0  0  0  0  0  0  0  0  0  0  0
   -2.4110    0.4740   -0.2790 C   0  0  1  0  0  0  0  0  0  0  0  0
   -3.0310    1.7840    0.1050 N   0  0  0  0  0  0  0  0  0  0  0  0
   -2.8960    0.2260   -1.5150 O   0  0  0  0  0  0  0  0  0  0  0  0
   -3.0090   -0.4490    0.7750 C   0  0  1  0  0  0  0  0  0  0  0  0
   -4.5040   -0.5150    0.4740 C   0  0  0  0  0  0  0  0  0  0  0  0
   -2.5440   -1.8810    0.6500 C   0  0  2  0  0  0  0  0  0  0  0  0
   -2.8940   -2.4200   -0.5940 O   0  0  0  0  0  0  0  0  0  0  0  0
   -3.3690   -2.5860    1.5750 O   0  0  0  0  0  0  0  0  0  0  0  0
   -1.2620   -2.1230    1.0300 O   0  0  0  0  0  0  0  0  0  0  0  0
    1.4090    0.4080   -0.4190 N   0  0  0  0  0  0  0  0  0  0  0  0
    1.9210   -0.0290    0.8160 C   0  0  0  0  0  0  0  0  0  0  0  0
    1.3130   -0.5690    1.8040 N   0  0  0  0  0  0  0  0  0  0  0  0
    2.0160   -0.9370    2.9700 C   0  0  0  0  0  0  0  0  0  0  0  0
    2.6530   -2.1120    3.0800 C   0  0  0  0  0  0  0  0  0  0  0  0
    3.3100   -2.3670    4.2740 O   0  0  0  0  0  0  0  0  0  0  0  0
    2.7560   -1.8580    5.4100 O   0  0  0  0  0  0  0  0  0  0  0  0
    2.6580   -0.4730    5.2930 C   0  0  0  0  0  0  0  0  0  0  0  0
    2.0710   -0.0750    4.0690 O   0  0  0  0  0  0  0  0  0  0  0  0
    2.3770    0.8270   -1.3800 C   0  0  0  0  0  0  0  0  0  0  0  0
    3.5990    0.7740   -1.0130 O   0  0  0  0  0  0  0  0  0  0  0  0
    2.1530    1.2910   -2.6470 O   0  0  0  0  0  0  0  0  0  0  0  0
    3.2210    1.6780   -3.4560 C   0  0  0  0  0  0  0  0  0  0  0  0
    4.0340    2.8250   -2.9330 C   0  0  0  0  0  0  0  0  0  0  0  0
    3.2460    3.9730   -2.7820 O   0  0  0  0  0  0  0  0  0  0  0  0
  1  2  1  0
  2  3  1  0
  3  4  2  0
  3  5  1  0
  5  6  2  3
  5 17  1  0
  6  7  1  0
  6  8  1  0
  8  9  1  1
  8 10  1  0
  8 11  1  0
 11 12  1  6
 11 13  1  0
 13 14  1  6
 13 15  1  0
 13 16  1  0
 17 18  1  0
 17 26  1  0
 18 19  2  3
 19 20  1  0
 20 21  2  0
 20 25  1  0
 21 22  1  0
 22 23  1  0
 23 24  1  0
 24 25  1  0
 26 27  2  0
 26 28  1  0
 28 29  1  0
 29 30  1  0
 30 31  1  0
M  END
