
     RDKit          3D

 26 28  0  0  0  0  0  0  0  0999 V2000
   -7.8890   -0.7430   -0.6060 O   0  0  0  0  0  0  0  0  0  0  0  0
   -6.8130   -0.6750   -1.2260 C   0  0  0  0  0  0  0  0  0  0  0  0
   -6.8190   -1.0270   -2.5880 O   0  0  0  0  0  0  0  0  0  0  0  0
   -5.5930   -0.2750   -0.6790 N   0  0  0  0  0  0  0  0  0  0  0  0
   -5.4190    0.1090    0.6680 C   0  0  0  0  0  0  0  0  0  0  0  0
   -6.4160    0.1380    1.5990 C   0  0  0  0  0  0  0  0  0  0  0  0
   -6.2020    0.5220    2.9090 C   0  0  0  0  0  0  0  0  0  0  0  0
   -4.9450    0.8850    3.2870 C   0  0  0  0  0  0  0  0  0  0  0  0
   -3.9110    0.8590    2.3370 C   0  0  0  0  0  0  0  0  0  0  0  0
   -4.0990    0.4850    1.0400 C   0  0  0  0  0  0  0  0  0  0  0  0
   -3.1630    0.4410    0.1010 O   0  0  0  0  0  0  0  0  0  0  0  0
   -1.7890    0.7600    0.2100 C   0  0  0  0  0  0  0  0  0  0  0  0
   -0.8360    0.6990   -0.8100 C   0  0  0  0  0  0  0  0  0  0  0  0
    0.3980    1.0370   -0.5180 C   0  0  0  0  0  0  0  0  0  0  0  0
    0.7420    1.4400    0.7620 C   0  0  0  0  0  0  0  0  0  0  0  0
    1.8990    1.8380    1.3430 O   0  0  0  0  0  0  0  0  0  0  0  0
    3.1300    1.8890    0.7270 C   0  0  0  0  0  0  0  0  0  0  0  0
    3.6750    0.5630    0.2900 C   0  0  0  0  0  0  0  0  0  0  0  0
    4.9560    0.7460   -0.3370 O   0  0  0  0  0  0  0  0  0  0  0  0
    5.6080   -0.3840   -0.8040 C   0  0  0  0  0  0  0  0  0  0  0  0
    6.8340   -0.2550   -1.4100 C   0  0  0  0  0  0  0  0  0  0  0  0
    7.5230   -1.3570   -1.8920 C   0  0  0  0  0  0  0  0  0  0  0  0
    6.9690   -2.6110   -1.7640 C   0  0  0  0  0  0  0  0  0  0  0  0
    5.7320   -2.7680   -1.1560 C   0  0  0  0  0  0  0  0  0  0  0  0
    5.0660   -1.6430   -0.6820 C   0  0  0  0  0  0  0  0  0  0  0  0
   -0.8190    1.3230    1.5900 S   0  0  0  0  0  0  0  0  0  0  0  0
  1  2  2  0
  2  3  1  0
  2  4  1  0
  4  5  1  0
  5  6  2  0
  5 10  1  0
  6  7  1  0
  7  8  2  0
  8  9  1  0
  9 10  2  0
 10 11  1  0
 11 12  1  0
 12 13  2  0
 12 26  1  0
 13 14  1  0
 14 15  2  0
 15 16  1  0
 15 26  1  0
 16 17  1  0
 17 18  1  0
 18 19  1  0
 19 20  1  0
 20 21  2  0
 20 25  1  0
 21 22  1  0
 22 23  2  0
 23 24  1  0
 24 25  2  0
M  END
