
     RDKit          3D

 26 27  0  0  0  0  0  0  0  0999 V2000
    9.0400    1.0310   -0.0310 C   0  0  0  0  0  0  0  0  0  0  0  0
    7.7030    1.0210   -0.3600 C   0  0  0  0  0  0  0  0  0  0  0  0
    6.8300    0.2810    0.4720 C   0  0  0  0  0  0  0  0  0  0  0  0
    5.5530    0.0860    0.4820 C   0  0  0  0  0  0  0  0  0  0  0  0
    5.0020   -0.8020    1.5620 C   0  0  0  0  0  0  0  0  0  0  0  0
    3.7050   -1.0080    1.6510 C   0  0  0  0  0  0  0  0  0  0  0  0
    2.7400   -0.4140    0.7420 C   0  0  0  0  0  0  0  0  0  0  0  0
    1.3920   -0.6860    0.9090 O   0  0  0  0  0  0  0  0  0  0  0  0
    0.6710   -1.5490    0.0970 C   0  0  0  0  0  0  0  0  0  0  0  0
   -0.6080   -1.6620    0.2720 C   0  0  0  0  0  0  0  0  0  0  0  0
   -1.3180   -0.9090    1.2990 C   0  0  0  0  0  0  0  0  0  0  0  0
   -2.8010   -1.1790    1.2650 C   0  0  0  0  0  0  0  0  0  0  0  0
   -3.4310   -0.8410   -0.0600 C   0  0  2  0  0  0  0  0  0  0  0  0
   -4.9280   -0.6410    0.0910 C   0  0  0  0  0  0  0  0  0  0  0  0
   -5.4530   -0.3090   -1.2970 C   0  0  0  0  0  0  0  0  0  0  0  0
   -6.8290   -0.0930   -1.3410 O   0  0  0  0  0  0  0  0  0  0  0  0
   -7.4540    0.9070   -0.6190 C   0  0  0  0  0  0  0  0  0  0  0  0
   -6.8160    1.6780    0.1180 O   0  0  0  0  0  0  0  0  0  0  0  0
   -8.8420    1.1020   -0.6820 O   0  0  0  0  0  0  0  0  0  0  0  0
   -9.4450    2.1370    0.0720 C   0  0  0  0  0  0  0  0  0  0  0  0
   -3.0800   -1.8110   -1.1530 C   0  0  0  0  0  0  0  0  0  0  0  0
   -1.5570   -2.7500   -0.7430 S   0  0  0  0  0  0  0  0  0  0  0  0
    3.1570    0.3670   -0.2170 C   0  0  0  0  0  0  0  0  0  0  0  0
    4.5790    0.6310   -0.3620 N   0  0  0  0  0  0  0  0  0  0  0  0
    7.3380    1.7730   -1.5680 C   0  0  0  0  0  0  0  0  0  0  0  0
    6.7680    0.9140   -2.5200 O   0  0  0  0  0  0  0  0  0  0  0  0
  1  2  2  0
  2  3  1  0
  2 25  1  0
  3  4  2  3
  4  5  1  0
  4 24  1  0
  5  6  2  0
  6  7  1  0
  7  8  1  0
  7 23  2  0
  8  9  1  0
  9 10  2  3
 10 11  1  0
 10 22  1  0
 11 12  1  0
 12 13  1  0
 13 14  1  1
 13 21  1  0
 14 15  1  0
 15 16  1  0
 16 17  1  0
 17 18  2  0
 17 19  1  0
 19 20  1  0
 21 22  1  0
 23 24  1  0
 25 26  1  0
M  END
