
     RDKit          3D

 12 12  0  0  0  0  0  0  0  0999 V2000
   -0.8140    1.2940   -2.0030 O   0  0  0  0  0  0  0  0  0  0  0  0
   -0.7420    0.4460   -1.0580 C   0  0  0  0  0  0  0  0  0  0  0  0
    0.4430   -0.3320   -0.6890 C   0  0  1  0  0  0  0  0  0  0  0  0
    1.9650    0.6480   -0.7530 P   0  0  2  0  0  0  0  0  0  0  0  0
    2.5750    0.6320   -2.1400 O   0  0  0  0  0  0  0  0  0  0  0  0
    3.0440    0.0270    0.3840 O   0  0  0  0  0  0  0  0  0  0  0  0
    1.5710    2.2280   -0.2900 O   0  0  0  0  0  0  0  0  0  0  0  0
    0.1800   -0.7410    0.7280 C   0  0  0  0  0  0  0  0  0  0  0  0
   -1.1950   -0.2620    1.0790 C   0  0  2  0  0  0  0  0  0  0  0  0
   -1.9160   -1.2920    1.6770 O   0  0  0  0  0  0  0  0  0  0  0  0
   -1.8040    0.0960   -0.1810 N   0  0  0  0  0  0  0  0  0  0  0  0
   -3.1360    0.1000   -0.4810 O   0  0  0  0  0  0  0  0  0  0  0  0
  1  2  2  0
  2  3  1  0
  2 11  1  0
  3  4  1  0
  3  8  1  1
  4  5  2  0
  4  6  1  1
  4  7  1  0
  8  9  1  0
  9 10  1  6
  9 11  1  0
 11 12  1  0
M  END
