
     RDKit          3D

 25 27  0  0  0  0  0  0  0  0999 V2000
   -5.6060   -0.3300   -0.6720 C   0  0  0  0  0  0  0  0  0  0  0  0
   -4.5760    0.7480   -0.9370 C   0  0  1  0  0  0  0  0  0  0  0  0
   -4.7360    1.7430   -0.0070 O   0  0  0  0  0  0  0  0  0  0  0  0
   -4.2000    1.3490    1.1850 C   0  0  0  0  0  0  0  0  0  0  0  0
   -3.3630    0.1070    0.9320 C   0  0  0  0  0  0  0  0  0  0  0  0
   -3.2140    0.1870   -0.5850 C   0  0  2  0  0  0  0  0  0  0  0  0
   -2.1840    1.1900   -0.8330 N   0  0  0  0  0  0  0  0  0  0  0  0
   -0.8130    0.9400   -0.5930 C   0  0  0  0  0  0  0  0  0  0  0  0
    0.0830    1.9070   -0.8430 N   0  0  0  0  0  0  0  0  0  0  0  0
    1.3740    1.7680   -0.6520 N   0  0  0  0  0  0  0  0  0  0  0  0
    1.8080    0.5950   -0.1850 C   0  0  0  0  0  0  0  0  0  0  0  0
    0.9100   -0.4480    0.0940 C   0  0  0  0  0  0  0  0  0  0  0  0
   -0.3840   -0.2570   -0.1160 N   0  0  0  0  0  0  0  0  0  0  0  0
    1.2560   -1.7230    0.6410 N   0  0  0  0  0  0  0  0  0  0  0  0
    0.3750   -2.7790    0.2120 C   0  0  0  0  0  0  0  0  0  0  0  0
    2.3030   -2.1100    1.5410 C   0  0  0  0  0  0  0  0  0  0  0  0
    3.6910   -1.7740    1.1290 C   0  0  0  0  0  0  0  0  0  0  0  0
    3.9600   -0.3200    0.9250 C   0  0  0  0  0  0  0  0  0  0  0  0
    4.9200    0.2280    1.6470 C   0  0  0  0  0  0  0  0  0  0  0  0
    5.2650    1.5130    1.5710 F   0  0  0  0  0  0  0  0  0  0  0  0
    5.5910   -0.5650    2.5090 F   0  0  0  0  0  0  0  0  0  0  0  0
    3.2580    0.5880   -0.0300 C   0  0  0  0  0  0  0  0  0  0  0  0
    4.0310    1.3490   -0.7400 C   0  0  0  0  0  0  0  0  0  0  0  0
    3.6320    2.3010   -1.7780 C   0  0  0  0  0  0  0  0  0  0  0  0
    3.9550    3.6240   -1.4540 F   0  0  0  0  0  0  0  0  0  0  0  0
  2  1  1  1
  2  3  1  0
  2  6  1  0
  3  4  1  0
  4  5  1  0
  5  6  1  0
  6  7  1  1
  7  8  1  0
  8  9  2  0
  8 13  1  0
  9 10  1  0
 10 11  2  0
 11 12  1  0
 11 22  1  0
 12 13  2  0
 12 14  1  0
 14 15  1  0
 14 16  1  0
 16 17  1  0
 17 18  1  0
 18 19  2  3
 18 22  1  0
 19 20  1  0
 19 21  1  0
 22 23  2  3
 23 24  1  0
 24 25  1  0
M  END
