
     RDKit          3D

 24 26  0  0  0  0  0  0  0  0999 V2000
    2.3350   -2.1040   -2.6680 C   0  0  0  0  0  0  0  0  0  0  0  0
    2.3750   -0.8270   -1.8580 C   0  0  1  0  0  0  0  0  0  0  0  0
    0.9820   -0.2360   -1.7730 C   0  0  0  0  0  0  0  0  0  0  0  0
    0.5150   -0.7400   -0.4440 C   0  0  2  0  0  0  0  0  0  0  0  0
   -0.7110   -0.0530    0.0870 C   0  0  1  0  0  0  0  0  0  0  0  0
   -1.9260   -0.3520   -0.7320 C   0  0  0  0  0  0  0  0  0  0  0  0
   -3.1890   -0.1360    0.0220 C   0  0  0  0  0  0  0  0  0  0  0  0
   -4.3260   -0.1140   -0.6230 C   0  0  0  0  0  0  0  0  0  0  0  0
   -5.5680    0.0950    0.0840 C   0  0  0  0  0  0  0  0  0  0  0  0
   -6.7240    0.1200   -0.5530 C   0  0  0  0  0  0  0  0  0  0  0  0
   -6.7950   -0.0490   -1.8920 F   0  0  0  0  0  0  0  0  0  0  0  0
   -7.8850    0.3150    0.1060 F   0  0  0  0  0  0  0  0  0  0  0  0
   -3.2100    0.0600    1.4950 C   0  0  0  0  0  0  0  0  0  0  0  0
   -1.8440    0.1730    2.0810 C   0  0  0  0  0  0  0  0  0  0  0  0
   -0.9470   -0.5880    1.3680 O   0  0  0  0  0  0  0  0  0  0  0  0
    1.6830   -0.5320    0.3850 N   0  0  0  0  0  0  0  0  0  0  0  0
    2.0230    0.8140    0.4890 N   0  0  0  0  0  0  0  0  0  0  0  0
    3.1910    1.2730    1.1490 C   0  0  0  0  0  0  0  0  0  0  0  0
    3.4360    2.5910    1.1980 N   0  0  0  0  0  0  0  0  0  0  0  0
    4.5120    3.1260    1.7980 C   0  0  0  0  0  0  0  0  0  0  0  0
    5.3600    2.2530    2.3660 N   0  0  0  0  0  0  0  0  0  0  0  0
    5.1600    0.9250    2.3450 C   0  0  0  0  0  0  0  0  0  0  0  0
    4.0700    0.4460    1.7330 N   0  0  0  0  0  0  0  0  0  0  0  0
    2.6950   -1.2360   -0.4210 C   0  0  0  0  0  0  0  0  0  0  0  0
  2  1  1  6
  2  3  1  0
  2 24  1  0
  4  3  1  6
  4  5  1  0
  4 16  1  0
  5  6  1  6
  5 15  1  0
  6  7  1  0
  7  8  2  3
  7 13  1  0
  8  9  1  0
  9 10  2  3
 10 11  1  0
 10 12  1  0
 13 14  1  0
 14 15  1  0
 16 17  1  0
 16 24  1  0
 17 18  1  0
 18 19  2  0
 18 23  1  0
 19 20  1  0
 20 21  2  0
 21 22  1  0
 22 23  2  0
M  END
