
     RDKit          3D

 25 27  0  0  0  0  0  0  0  0999 V2000
   -2.0680   -4.6830   -0.4380 C   0  0  0  0  0  0  0  0  0  0  0  0
   -1.0640   -3.8810   -0.6050 N   0  0  0  0  0  0  0  0  0  0  0  0
   -1.0330   -2.7310    0.1880 N   0  0  0  0  0  0  0  0  0  0  0  0
   -0.9410   -2.9610    1.6170 C   0  0  0  0  0  0  0  0  0  0  0  0
   -2.1630   -2.5590    2.3690 C   0  0  0  0  0  0  0  0  0  0  0  0
   -3.1960   -1.9180    1.5340 C   0  0  0  0  0  0  0  0  0  0  0  0
   -3.1320   -0.9990    0.5670 C   0  0  0  0  0  0  0  0  0  0  0  0
   -4.3640   -0.5860   -0.0550 C   0  0  0  0  0  0  0  0  0  0  0  0
   -5.4950   -1.2400    0.4730 F   0  0  0  0  0  0  0  0  0  0  0  0
   -4.5860    0.2670   -0.9940 C   0  0  0  0  0  0  0  0  0  0  0  0
   -3.6580    0.9820   -1.6180 F   0  0  0  0  0  0  0  0  0  0  0  0
   -5.8820    0.4760   -1.4090 F   0  0  0  0  0  0  0  0  0  0  0  0
   -1.8430   -0.4150    0.1390 C   0  0  1  0  0  0  0  0  0  0  0  0
   -1.1570    0.0750    1.2970 N   0  0  0  0  0  0  0  0  0  0  0  0
    0.2020    0.3960    1.1300 C   0  0  0  0  0  0  0  0  0  0  0  0
    0.4320    1.5920    0.2380 C   0  0  0  0  0  0  0  0  0  0  0  0
    1.8800    1.8900    0.0950 C   0  0  0  0  0  0  0  0  0  0  0  0
    2.9320    1.2690    0.6370 N   0  0  0  0  0  0  0  0  0  0  0  0
    4.0320    1.8900    0.2240 N   0  0  0  0  0  0  0  0  0  0  0  0
    3.6510    2.8960   -0.5750 C   0  0  0  0  0  0  0  0  0  0  0  0
    4.5020    3.8800   -1.2840 C   0  0  1  0  0  0  0  0  0  0  0  0
    5.8310    4.2560   -0.7460 C   0  0  0  0  0  0  0  0  0  0  0  0
    5.7880    3.2380   -1.8290 C   0  0  0  0  0  0  0  0  0  0  0  0
    2.3510    2.8650   -0.6280 O   0  0  0  0  0  0  0  0  0  0  0  0
   -1.0970   -1.5140   -0.5760 C   0  0  0  0  0  0  0  0  0  0  0  0
  1  2  2  0
  2  3  1  0
  3  4  1  0
  3 25  1  0
  4  5  1  0
  5  6  1  0
  6  7  2  0
  7  8  1  0
  7 13  1  0
  8  9  1  0
  8 10  2  3
 10 11  1  0
 10 12  1  0
 13 14  1  1
 13 25  1  0
 14 15  1  0
 15 16  1  0
 16 17  1  0
 17 18  2  0
 17 24  1  0
 18 19  1  0
 19 20  2  0
 21 20  1  1
 20 24  1  0
 21 22  1  0
 21 23  1  0
 22 23  1  0
M  END
