
     RDKit          3D

 25 27  0  0  0  0  0  0  0  0999 V2000
    1.7300    1.4930   -1.7590 C   0  0  0  0  0  0  0  0  0  0  0  0
    1.1400    0.2870   -0.8820 C   0  0  1  0  0  0  0  0  0  0  0  0
    2.2710   -0.3470   -0.2380 C   0  0  0  0  0  0  0  0  0  0  0  0
    3.1490   -1.1000   -1.0380 N   0  0  0  0  0  0  0  0  0  0  0  0
    4.1470   -1.7900   -0.4920 C   0  0  0  0  0  0  0  0  0  0  0  0
    4.4210   -1.8400    0.7930 N   0  0  0  0  0  0  0  0  0  0  0  0
    3.6250   -1.1460    1.6400 C   0  0  0  0  0  0  0  0  0  0  0  0
    2.5770   -0.4290    1.1020 C   0  0  0  0  0  0  0  0  0  0  0  0
    1.8400    0.2870    1.9830 F   0  0  0  0  0  0  0  0  0  0  0  0
   -0.1810    0.6190   -0.4790 C   0  0  2  0  0  0  0  0  0  0  0  0
   -1.0310    0.9370   -1.5710 O   0  0  0  0  0  0  0  0  0  0  0  0
   -0.4120    1.7880    0.4520 C   0  0  0  0  0  0  0  0  0  0  0  0
   -1.8510    2.1480    0.4800 N   0  0  0  0  0  0  0  0  0  0  0  0
   -2.9100    1.8420    1.1410 C   0  0  0  0  0  0  0  0  0  0  0  0
   -3.9730    2.5380    0.6110 N   0  0  0  0  0  0  0  0  0  0  0  0
   -3.5040    3.2880   -0.3970 C   0  0  0  0  0  0  0  0  0  0  0  0
   -2.2140    3.0710   -0.4990 N   0  0  0  0  0  0  0  0  0  0  0  0
   -0.8870   -0.6370    0.0340 C   0  0  0  0  0  0  0  0  0  0  0  0
   -1.2110   -0.8180    1.3160 C   0  0  0  0  0  0  0  0  0  0  0  0
   -1.7300   -2.0700    1.7130 C   0  0  0  0  0  0  0  0  0  0  0  0
   -1.8990   -3.0850    0.7970 C   0  0  0  0  0  0  0  0  0  0  0  0
   -2.3940   -4.3020    1.2060 F   0  0  0  0  0  0  0  0  0  0  0  0
   -1.5640   -2.9170   -0.5250 C   0  0  0  0  0  0  0  0  0  0  0  0
   -1.0500   -1.6600   -0.9050 C   0  0  0  0  0  0  0  0  0  0  0  0
   -0.7530   -1.4750   -2.1960 F   0  0  0  0  0  0  0  0  0  0  0  0
  2  1  1  1
  2  3  1  0
  2 10  1  0
  3  4  2  0
  3  8  1  0
  4  5  1  0
  5  6  2  0
  6  7  1  0
  7  8  2  0
  8  9  1  0
 10 11  1  6
 10 12  1  0
 10 18  1  0
 12 13  1  0
 13 14  1  0
 13 17  1  0
 14 15  2  0
 15 16  1  0
 16 17  2  0
 18 19  2  0
 18 24  1  0
 19 20  1  0
 20 21  2  0
 21 22  1  0
 21 23  1  0
 23 24  2  0
 24 25  1  0
M  END
