
     RDKit          3D

 15 14  0  0  0  0  0  0  0  0999 V2000
   -1.5120    0.6690   -0.8710 N   0  0  0  0  0  0  0  0  0  0  0  0
   -1.8940   -0.2360    0.1530 C   0  0  2  0  0  0  0  0  0  0  0  0
   -3.3870   -0.3210    0.2200 C   0  0  0  0  0  0  0  0  0  0  0  0
   -3.8520   -1.1890    1.1990 O   0  0  0  0  0  0  0  0  0  0  0  0
   -5.1720   -1.1610    1.1430 O   0  0  0  0  0  0  0  0  0  0  0  0
   -1.2480    0.1760    1.4380 C   0  0  0  0  0  0  0  0  0  0  0  0
    0.6030    0.1260    1.1610 P   0  0  0  0  0  0  0  0  0  0  0  0
    1.2970    1.6860    1.1580 O   0  0  0  0  0  0  0  0  0  0  0  0
    1.1540   -1.1120   -0.5220 P   0  0  0  0  0  0  0  0  0  0  0  0
    1.2430   -0.2860   -2.0180 O   0  0  0  0  0  0  0  0  0  0  0  0
    2.7360   -2.0050   -0.2380 C   0  0  0  0  0  0  0  0  0  0  0  0
    3.7660   -1.1750    0.2330 O   0  0  0  0  0  0  0  0  0  0  0  0
    4.2550   -0.0880   -0.4410 C   0  0  0  0  0  0  0  0  0  0  0  0
    3.7850    0.2220   -1.5470 O   0  0  0  0  0  0  0  0  0  0  0  0
    5.2770    0.6810    0.0980 O   0  0  0  0  0  0  0  0  0  0  0  0
  2  1  1  6
  2  3  1  0
  2  6  1  0
  3  4  1  0
  4  5  1  0
  6  7  1  0
  7  8  1  0
  7  9  1  0
  9 10  1  0
  9 11  1  0
 11 12  1  0
 12 13  1  0
 13 14  2  0
 13 15  1  0
M  END
