
     RDKit          3D

 14 14  0  0  0  0  0  0  0  0999 V2000
   -1.5390    1.9450    0.6590 O   0  0  0  0  0  0  0  0  0  0  0  0
   -2.0360    0.6660    0.4770 C   0  0  1  0  0  0  0  0  0  0  0  0
   -2.4860    0.3990   -0.9120 C   0  0  0  0  0  0  0  0  0  0  0  0
   -1.4830    0.0330   -1.7900 O   0  0  0  0  0  0  0  0  0  0  0  0
   -0.6810   -0.9880   -1.2900 C   0  0  1  0  0  0  0  0  0  0  0  0
    0.1230   -1.5340   -2.2400 O   0  0  0  0  0  0  0  0  0  0  0  0
    0.0470   -0.4140   -0.1010 C   0  0  2  0  0  0  0  0  0  0  0  0
    1.1850   -1.0540    0.2400 O   0  0  0  0  0  0  0  0  0  0  0  0
    2.5880   -0.1960    0.1200 P   0  0  0  0  0  0  0  0  0  0  0  0
    1.9950    1.0300    0.8080 O   0  0  0  0  0  0  0  0  0  0  0  0
    3.0400    0.5010   -1.2570 O   0  0  0  0  0  0  0  0  0  0  0  0
    3.7000   -0.3130    1.4080 O   0  0  0  0  0  0  0  0  0  0  0  0
   -1.0000   -0.3090    0.9840 C   0  0  1  0  0  0  0  0  0  0  0  0
   -0.4800    0.1330    2.1850 O   0  0  0  0  0  0  0  0  0  0  0  0
  2  1  1  6
  2  3  1  0
  2 13  1  0
  3  4  1  0
  4  5  1  0
  5  6  1  6
  5  7  1  0
  7  8  1  1
  7 13  1  0
  8  9  1  0
  9 10  1  0
  9 11  1  0
  9 12  1  0
 13 14  1  1
M  END
