
     RDKit          3D

 14 13  0  0  0  0  0  0  0  0999 V2000
   -2.0910   -0.9540   -1.6180 C   0  0  0  0  0  0  0  0  0  0  0  0
   -1.1080    0.4830   -1.0050 P   0  0  0  0  0  0  0  0  0  0  0  0
   -2.2190    1.8750   -0.5040 C   0  0  0  0  0  0  0  0  0  0  0  0
   -3.5710    1.4590   -0.2520 N   0  0  0  0  0  0  0  0  0  0  0  0
    0.3640   -0.0150    0.4660 P   0  0  0  0  0  0  0  0  0  0  0  0
    1.9500    0.4710    0.1910 O   0  0  0  0  0  0  0  0  0  0  0  0
    2.7900   -0.4580   -0.3860 C   0  0  0  0  0  0  0  0  0  0  0  0
    3.8950    0.3090   -1.0380 C   0  0  0  0  0  0  0  0  0  0  0  0
    4.5820   -0.2310   -1.9530 O   0  0  0  0  0  0  0  0  0  0  0  0
    4.1800    1.6240   -0.7220 O   0  0  0  0  0  0  0  0  0  0  0  0
    0.1320   -1.4870    1.3350 O   0  0  0  0  0  0  0  0  0  0  0  0
   -0.0270   -1.3690    2.7200 C   0  0  0  0  0  0  0  0  0  0  0  0
    0.1350   -0.2570    3.3040 O   0  0  0  0  0  0  0  0  0  0  0  0
   -0.3870   -2.4480    3.5010 O   0  0  0  0  0  0  0  0  0  0  0  0
  1  2  1  0
  2  3  1  0
  2  5  1  0
  3  4  1  0
  5  6  1  0
  5 11  1  0
  6  7  1  0
  7  8  1  0
  8  9  2  0
  8 10  1  0
 11 12  1  0
 12 13  2  0
 12 14  1  0
M  END
