
     RDKit          3D

 15 14  0  0  0  0  0  0  0  0999 V2000
   -1.3130   -2.5620   -2.0940 C   0  0  0  0  0  0  0  0  0  0  0  0
   -1.0940   -1.2670   -1.6630 O   0  0  0  0  0  0  0  0  0  0  0  0
   -1.3810   -1.1360   -0.3250 C   0  0  0  0  0  0  0  0  0  0  0  0
   -1.1370    0.2910    0.1430 C   0  0  1  0  0  0  0  0  0  0  0  0
   -1.5400    0.4860    1.4440 O   0  0  0  0  0  0  0  0  0  0  0  0
   -2.7920    1.6780    1.5500 P   0  0  0  0  0  0  0  0  0  0  0  0
   -3.8690    1.2540    2.8630 O   0  0  0  0  0  0  0  0  0  0  0  0
   -2.0640    3.2060    1.9950 O   0  0  0  0  0  0  0  0  0  0  0  0
    0.2350    0.6010   -0.0830 N   0  0  0  0  0  0  0  0  0  0  0  0
    0.6550    0.5790   -1.4400 C   0  0  0  0  0  0  0  0  0  0  0  0
    1.1690    0.0590    0.8480 C   0  0  0  0  0  0  0  0  0  0  0  0
    2.8710    0.6080    0.3310 P   0  0  0  0  0  0  0  0  0  0  0  0
    3.7420    1.3370    1.6150 O   0  0  0  0  0  0  0  0  0  0  0  0
    3.7290   -0.6700   -0.4460 O   0  0  0  0  0  0  0  0  0  0  0  0
    5.0270   -0.5100   -0.4070 O   0  0  0  0  0  0  0  0  0  0  0  0
  1  2  1  0
  2  3  1  0
  4  3  1  1
  4  5  1  0
  4  9  1  0
  5  6  1  0
  6  7  1  0
  6  8  1  0
  9 10  1  0
  9 11  1  0
 11 12  1  0
 12 13  1  0
 12 14  1  0
 14 15  1  0
M  END
