
     RDKit          3D

 16 16  0  0  0  0  0  0  0  0999 V2000
   -3.5100    2.3590   -0.9980 C   0  0  0  0  0  0  0  0  0  0  0  0
   -2.4390    1.9640   -0.1900 O   0  0  0  0  0  0  0  0  0  0  0  0
   -2.5570    0.5920    0.1360 C   0  0  2  0  0  0  0  0  0  0  0  0
   -3.7730    0.4810    0.8150 O   0  0  0  0  0  0  0  0  0  0  0  0
   -1.4500    0.1930    1.0430 C   0  0  0  0  0  0  0  0  0  0  0  0
   -0.5560   -0.8840    0.5030 C   0  0  2  0  0  0  0  0  0  0  0  0
    0.4820   -0.3570   -0.2650 O   0  0  0  0  0  0  0  0  0  0  0  0
    1.7350   -0.6150    0.2910 C   0  0  0  0  0  0  0  0  0  0  0  0
    2.7640    0.0030   -0.6290 C   0  0  0  0  0  0  0  0  0  0  0  0
    4.0350   -0.2340   -0.1050 O   0  0  0  0  0  0  0  0  0  0  0  0
    5.1980    0.4740   -1.1600 P   0  0  0  0  0  0  0  0  0  0  0  0
    5.6230    2.0690   -0.6200 O   0  0  0  0  0  0  0  0  0  0  0  0
    6.6300   -0.5300   -1.1530 O   0  0  0  0  0  0  0  0  0  0  0  0
   -1.2750   -1.9460   -0.2720 C   0  0  0  0  0  0  0  0  0  0  0  0
   -2.5350   -1.4630   -0.9360 C   0  0  0  0  0  0  0  0  0  0  0  0
   -2.5750   -0.0810   -1.0760 O   0  0  0  0  0  0  0  0  0  0  0  0
  1  2  1  0
  2  3  1  0
  3  4  1  1
  3  5  1  0
  3 16  1  0
  5  6  1  0
  6  7  1  6
  6 14  1  0
  7  8  1  0
  8  9  1  0
  9 10  1  0
 10 11  1  0
 11 12  1  0
 11 13  1  0
 14 15  1  0
 15 16  1  0
M  END
