
     RDKit          3D

 14 13  0  0  0  0  0  0  0  0999 V2000
    3.2520   -0.0180    1.2280 O   0  0  0  0  0  0  0  0  0  0  0  0
    3.3290    0.8970    0.3870 C   0  0  0  0  0  0  0  0  0  0  0  0
    4.4170    1.7650    0.5180 O   0  0  0  0  0  0  0  0  0  0  0  0
    2.3880    1.0150   -0.5910 O   0  0  0  0  0  0  0  0  0  0  0  0
    1.2830    0.1610   -0.7440 C   0  0  0  0  0  0  0  0  0  0  0  0
    0.4140    0.2340    0.4580 C   0  0  0  0  0  0  0  0  0  0  0  0
   -0.7490   -0.6120    0.3890 N   0  0  0  0  0  0  0  0  0  0  0  0
   -1.7050   -0.2040   -0.5900 C   0  0  0  0  0  0  0  0  0  0  0  0
   -2.3880    1.4830   -0.3280 P   0  0  0  0  0  0  0  0  0  0  0  0
   -1.2690    2.7510   -0.6040 O   0  0  0  0  0  0  0  0  0  0  0  0
   -3.2420    1.6440    1.1630 O   0  0  0  0  0  0  0  0  0  0  0  0
   -0.3650   -2.3330    0.4010 P   0  0  0  0  0  0  0  0  0  0  0  0
   -0.7420   -3.1550   -1.0550 O   0  0  0  0  0  0  0  0  0  0  0  0
   -0.9000   -3.1500    1.8180 O   0  0  0  0  0  0  0  0  0  0  0  0
  1  2  2  0
  2  3  1  0
  2  4  1  0
  4  5  1  0
  5  6  1  0
  6  7  1  0
  7  8  1  0
  7 12  1  0
  8  9  1  0
  9 10  1  0
  9 11  1  0
 12 13  1  0
 12 14  1  0
M  END
