
     RDKit          3D

 22 23  0  0  0  0  0  0  0  0999 V2000
   -4.3470    1.4900    1.0630 C   0  0  0  0  0  0  0  0  0  0  0  0
   -4.1030    0.1420    0.8470 O   0  0  0  0  0  0  0  0  0  0  0  0
   -3.0210   -0.0850    0.0170 C   0  0  2  0  0  0  0  0  0  0  0  0
   -1.9030    0.4840    0.6280 O   0  0  0  0  0  0  0  0  0  0  0  0
   -3.1680    0.5830   -1.2150 O   0  0  0  0  0  0  0  0  0  0  0  0
   -4.2470    0.1590   -1.8170 O   0  0  0  0  0  0  0  0  0  0  0  0
   -2.8920   -1.4550   -0.1510 O   0  0  0  0  0  0  0  0  0  0  0  0
   -1.8120   -1.7730   -0.9840 C   0  0  0  0  0  0  0  0  0  0  0  0
   -0.5220   -1.2790   -0.4400 C   0  0  0  0  0  0  0  0  0  0  0  0
   -0.1350   -1.7590    0.8120 O   0  0  0  0  0  0  0  0  0  0  0  0
    0.2050   -0.4540   -1.0780 N   0  0  0  0  0  0  0  0  0  0  0  0
    1.4230    0.0640   -0.6520 N   0  0  0  0  0  0  0  0  0  0  0  0
    1.5680    1.4800   -0.5080 C   0  0  0  0  0  0  0  0  0  0  0  0
    1.8640    1.7730    0.9430 C   0  0  0  0  0  0  0  0  0  0  0  0
    2.6400    0.6830    1.5800 C   0  0  0  0  0  0  0  0  0  0  0  0
    2.9070    0.7990    2.8020 O   0  0  0  0  0  0  0  0  0  0  0  0
    3.0910   -0.4630    0.9010 N   0  0  0  0  0  0  0  0  0  0  0  0
    4.0700   -1.2870    1.3640 O   0  0  0  0  0  0  0  0  0  0  0  0
    4.7010   -1.7520    0.3140 O   0  0  0  0  0  0  0  0  0  0  0  0
    4.8140   -0.8990   -0.6590 O   0  0  0  0  0  0  0  0  0  0  0  0
    3.6130   -0.7660   -1.3910 C   0  0  0  0  0  0  0  0  0  0  0  0
    2.5000   -0.8180   -0.3710 C   0  0  2  0  0  0  0  0  0  0  0  0
  1  2  1  0
  2  3  1  0
  3  4  1  1
  3  5  1  0
  3  7  1  0
  5  6  1  0
  7  8  1  0
  8  9  1  0
  9 10  1  0
  9 11  2  3
 11 12  1  0
 12 13  1  0
 12 22  1  0
 13 14  1  0
 14 15  1  0
 15 16  2  0
 15 17  1  0
 17 18  1  0
 17 22  1  0
 18 19  1  0
 19 20  1  0
 20 21  1  0
 22 21  1  6
M  END
