
     RDKit          3D

 22 23  0  0  0  0  0  0  0  0999 V2000
    1.7540   -2.9560   -1.1320 C   0  0  0  0  0  0  0  0  0  0  0  0
    1.7070   -2.0730   -0.0330 N   0  0  0  0  0  0  0  0  0  0  0  0
    0.4910   -1.8980    0.6320 C   0  0  0  0  0  0  0  0  0  0  0  0
   -0.6860   -1.9790   -0.2170 N   0  0  0  0  0  0  0  0  0  0  0  0
   -1.8810   -1.2680   -0.1390 C   0  0  0  0  0  0  0  0  0  0  0  0
   -2.6540   -0.7590    0.7900 C   0  0  0  0  0  0  0  0  0  0  0  0
   -3.2570   -1.3590    1.9290 O   0  0  0  0  0  0  0  0  0  0  0  0
   -2.8190    0.6360    0.4400 N   0  0  0  0  0  0  0  0  0  0  0  0
   -3.4440    0.9490   -0.8670 C   0  0  0  0  0  0  0  0  0  0  0  0
   -3.3010   -0.1100   -1.7580 O   0  0  0  0  0  0  0  0  0  0  0  0
   -2.4200   -1.0160   -1.4570 O   0  0  0  0  0  0  0  0  0  0  0  0
   -2.4250    1.6610    1.1790 O   0  0  0  0  0  0  0  0  0  0  0  0
   -2.0040    2.7150    0.5160 O   0  0  0  0  0  0  0  0  0  0  0  0
   -0.8160    2.8010   -0.1950 C   0  0  0  0  0  0  0  0  0  0  0  0
   -0.7270    3.3790   -1.3180 O   0  0  0  0  0  0  0  0  0  0  0  0
    0.4550    2.2080    0.3260 C   0  0  2  0  0  0  0  0  0  0  0  0
    1.2140    3.2060    0.9710 O   0  0  0  0  0  0  0  0  0  0  0  0
    1.2100    1.7010   -0.7290 O   0  0  0  0  0  0  0  0  0  0  0  0
    2.4140    1.2280   -0.2360 C   0  0  1  0  0  0  0  0  0  0  0  0
    3.0920    2.2550    0.4390 O   0  0  0  0  0  0  0  0  0  0  0  0
    2.1300    0.1590    0.6030 O   0  0  0  0  0  0  0  0  0  0  0  0
    2.6350   -1.0070   -0.0170 C   0  0  0  0  0  0  0  0  0  0  0  0
  1  2  1  0
  2  3  1  0
  2 22  1  0
  3  4  1  0
  4  5  1  0
  5  6  2  0
  5 11  1  0
  6  7  1  0
  6  8  1  0
  8  9  1  0
  8 12  1  0
  9 10  1  0
 10 11  1  0
 12 13  1  0
 13 14  1  0
 14 15  2  0
 14 16  1  0
 16 17  1  6
 16 18  1  0
 18 19  1  0
 19 20  1  1
 19 21  1  0
 21 22  1  0
M  END
