
     RDKit          3D

 23 24  0  0  0  0  0  0  0  0999 V2000
    3.7040   -0.3580    0.4790 C   0  0  0  0  0  0  0  0  0  0  0  0
    2.4360    0.0210    0.7680 O   0  0  0  0  0  0  0  0  0  0  0  0
    1.5060    0.0090   -0.2430 C   0  0  2  0  0  0  0  0  0  0  0  0
    1.8510    0.8450   -1.2790 O   0  0  0  0  0  0  0  0  0  0  0  0
    2.9530    0.5900   -1.8940 O   0  0  0  0  0  0  0  0  0  0  0  0
    0.2230    0.3580    0.2550 O   0  0  0  0  0  0  0  0  0  0  0  0
   -0.0330    1.6360    0.0660 N   0  0  0  0  0  0  0  0  0  0  0  0
    0.0820    2.4810    1.2040 C   0  0  0  0  0  0  0  0  0  0  0  0
   -1.1780    1.9770   -0.6900 C   0  0  0  0  0  0  0  0  0  0  0  0
   -2.2510    0.8670   -0.7030 C   0  0  2  0  0  0  0  0  0  0  0  0
   -2.7780    0.7190    0.6300 C   0  0  0  0  0  0  0  0  0  0  0  0
   -3.1530   -0.5100    1.1560 O   0  0  0  0  0  0  0  0  0  0  0  0
   -2.5730   -1.7970    1.0320 C   0  0  0  0  0  0  0  0  0  0  0  0
   -2.8650   -2.6840    1.8410 O   0  0  0  0  0  0  0  0  0  0  0  0
   -1.6210   -2.1670   -0.0180 N   0  0  0  0  0  0  0  0  0  0  0  0
   -0.8370   -3.1360    0.5140 O   0  0  0  0  0  0  0  0  0  0  0  0
    0.3000   -2.6540    1.0350 N   0  0  0  0  0  0  0  0  0  0  0  0
    1.2810   -2.3990    0.1550 O   0  0  0  0  0  0  0  0  0  0  0  0
    1.4510   -1.3920   -0.7430 C   0  0  0  0  0  0  0  0  0  0  0  0
    1.5680   -1.5340   -1.9830 O   0  0  0  0  0  0  0  0  0  0  0  0
   -1.5990   -1.5640   -1.2830 C   0  0  0  0  0  0  0  0  0  0  0  0
   -1.4990   -2.1190   -2.4040 O   0  0  0  0  0  0  0  0  0  0  0  0
   -1.6960   -0.1560   -1.4430 O   0  0  0  0  0  0  0  0  0  0  0  0
  1  2  1  0
  3  2  1  1
  3  4  1  0
  3  6  1  0
  3 19  1  0
  4  5  1  0
  6  7  1  0
  7  8  1  0
  7  9  1  0
 10  9  1  1
 10 11  1  0
 10 23  1  0
 11 12  1  0
 12 13  1  0
 13 14  2  0
 13 15  1  0
 15 16  1  0
 15 21  1  0
 16 17  1  0
 17 18  1  0
 18 19  1  0
 19 20  2  0
 21 22  2  0
 21 23  1  0
M  END
