
     RDKit          3D

 22 24  0  0  0  0  0  0  0  0999 V2000
   -3.2970    3.4530   -0.2860 C   0  0  0  0  0  0  0  0  0  0  0  0
   -2.7620    2.3060    0.1210 C   0  0  0  0  0  0  0  0  0  0  0  0
   -3.0960    1.7680    1.3530 O   0  0  0  0  0  0  0  0  0  0  0  0
   -2.3590    0.7920    1.9400 O   0  0  0  0  0  0  0  0  0  0  0  0
   -1.9720   -0.0560    0.9760 N   0  0  0  0  0  0  0  0  0  0  0  0
   -3.1060   -0.4140    0.2950 O   0  0  0  0  0  0  0  0  0  0  0  0
   -2.7230   -1.3620   -0.5590 O   0  0  0  0  0  0  0  0  0  0  0  0
   -1.6680   -2.0610    0.0390 C   0  0  1  0  0  0  0  0  0  0  0  0
   -1.8400   -3.5400   -0.3030 C   0  0  0  0  0  0  0  0  0  0  0  0
   -0.4290   -1.5920   -0.3490 O   0  0  0  0  0  0  0  0  0  0  0  0
   -0.4730   -0.3360   -0.8600 N   0  0  0  0  0  0  0  0  0  0  0  0
    0.9060    0.1540   -0.8950 C   0  0  2  0  0  0  0  0  0  0  0  0
    1.7630   -0.5180    0.1530 C   0  0  0  0  0  0  0  0  0  0  0  0
    3.0070    0.2220    0.2210 N   0  0  0  0  0  0  0  0  0  0  0  0
    3.1210    1.3310    1.1360 C   0  0  0  0  0  0  0  0  0  0  0  0
    4.1170   -0.1450   -0.6170 C   0  0  0  0  0  0  0  0  0  0  0  0
    5.2020    0.4630   -0.5900 O   0  0  0  0  0  0  0  0  0  0  0  0
    3.9790   -1.2150   -1.4880 O   0  0  0  0  0  0  0  0  0  0  0  0
    0.7230    1.4650   -0.4470 O   0  0  0  0  0  0  0  0  0  0  0  0
   -0.0250    1.2340    0.6170 O   0  0  0  0  0  0  0  0  0  0  0  0
   -1.1090    0.5890    0.0210 C   0  0  2  0  0  0  0  0  0  0  0  0
   -1.8530    1.5930   -0.6500 O   0  0  0  0  0  0  0  0  0  0  0  0
  1  2  2  0
  2  3  1  0
  2 22  1  0
  3  4  1  0
  4  5  1  0
  5  6  1  0
  5 21  1  0
  6  7  1  0
  7  8  1  0
  8  9  1  6
  8 10  1  0
 10 11  1  0
 11 12  1  0
 11 21  1  0
 12 13  1  1
 12 19  1  0
 13 14  1  0
 14 15  1  0
 14 16  1  0
 16 17  2  0
 16 18  1  0
 19 20  1  0
 21 20  1  1
 21 22  1  0
M  END
