
     RDKit          3D

 23 25  0  0  0  0  0  0  0  0999 V2000
   -4.6920    1.5580   -0.4450 C   0  0  0  0  0  0  0  0  0  0  0  0
   -3.6270    2.2030   -0.8480 C   0  0  0  0  0  0  0  0  0  0  0  0
   -2.3300    1.5550   -0.7770 C   0  0  0  0  0  0  0  0  0  0  0  0
   -1.2810    2.2590   -1.2000 C   0  0  0  0  0  0  0  0  0  0  0  0
    0.0330    1.6520   -1.1470 C   0  0  0  0  0  0  0  0  0  0  0  0
    0.2100    0.4170   -0.6860 C   0  0  0  0  0  0  0  0  0  0  0  0
    1.5460   -0.0560   -0.6910 N   0  0  0  0  0  0  0  0  0  0  0  0
    2.0740   -0.9480   -1.5270 O   0  0  0  0  0  0  0  0  0  0  0  0
    3.3590   -0.9580   -1.3620 O   0  0  0  0  0  0  0  0  0  0  0  0
    3.5500   -0.7550   -0.0170 N   0  0  0  0  0  0  0  0  0  0  0  0
    4.9100   -0.3240    0.2440 C   0  0  0  0  0  0  0  0  0  0  0  0
    2.6060    0.3400    0.2010 C   0  0  1  0  0  0  0  0  0  0  0  0
    2.9990    1.6380    0.3230 N   0  0  0  0  0  0  0  0  0  0  0  0
    2.4120    0.8850    1.4190 O   0  0  0  0  0  0  0  0  0  0  0  0
   -0.9210   -0.4050   -0.1960 C   0  0  1  0  0  0  0  0  0  0  0  0
   -1.0740   -1.5820   -0.9320 O   0  0  0  0  0  0  0  0  0  0  0  0
   -0.0120   -2.3260   -0.8560 O   0  0  0  0  0  0  0  0  0  0  0  0
   -0.6280   -0.7120    1.2030 N   0  0  0  0  0  0  0  0  0  0  0  0
   -0.5660    0.3820    1.9580 O   0  0  0  0  0  0  0  0  0  0  0  0
   -1.6790   -1.9840    1.8540 P   0  0  0  0  0  0  0  0  0  0  0  0
   -0.8790   -3.4880    2.0860 O   0  0  0  0  0  0  0  0  0  0  0  0
   -3.1710   -2.1280    1.0130 O   0  0  0  0  0  0  0  0  0  0  0  0
   -2.1330    0.2900   -0.3110 O   0  0  0  0  0  0  0  0  0  0  0  0
  1  2  2  0
  2  3  1  0
  3  4  2  0
  3 23  1  0
  4  5  1  0
  5  6  2  0
  6  7  1  0
  6 15  1  0
  7  8  1  0
  7 12  1  0
  8  9  1  0
  9 10  1  0
 10 11  1  0
 10 12  1  0
 12 13  1  6
 12 14  1  0
 13 14  1  0
 15 16  1  6
 15 18  1  0
 15 23  1  0
 16 17  1  0
 18 19  1  0
 18 20  1  0
 20 21  1  0
 20 22  1  0
M  END
