
     RDKit          3D

 23 24  0  0  0  0  0  0  0  0999 V2000
    5.7490    0.3950    0.8990 C   0  0  0  0  0  0  0  0  0  0  0  0
    5.1150    0.5120   -0.3990 N   0  0  0  0  0  0  0  0  0  0  0  0
    4.1860   -0.5220   -0.5290 N   0  0  0  0  0  0  0  0  0  0  0  0
    2.8980   -0.0250   -0.1330 C   0  0  0  0  0  0  0  0  0  0  0  0
    1.8770   -1.0810   -0.2520 C   0  0  0  0  0  0  0  0  0  0  0  0
    2.2150   -2.2160   -0.6560 O   0  0  0  0  0  0  0  0  0  0  0  0
    0.5400   -0.8150    0.0840 N   0  0  0  0  0  0  0  0  0  0  0  0
   -0.4730   -1.8760   -0.0380 C   0  0  0  0  0  0  0  0  0  0  0  0
   -1.4980   -1.5480    0.8090 O   0  0  0  0  0  0  0  0  0  0  0  0
   -2.5080   -2.3490    0.8060 O   0  0  0  0  0  0  0  0  0  0  0  0
   -3.0430   -2.6370   -0.4190 C   0  0  0  0  0  0  0  0  0  0  0  0
   -3.4350   -1.5650   -1.1670 O   0  0  0  0  0  0  0  0  0  0  0  0
   -3.7720   -0.4380   -0.4430 C   0  0  0  0  0  0  0  0  0  0  0  0
   -2.8630    0.5590   -0.7670 O   0  0  0  0  0  0  0  0  0  0  0  0
   -2.7670    1.5500    0.1890 C   0  0  2  0  0  0  0  0  0  0  0  0
   -3.1810    1.1720    1.4430 O   0  0  0  0  0  0  0  0  0  0  0  0
   -3.5120    2.7100   -0.1770 O   0  0  0  0  0  0  0  0  0  0  0  0
   -2.7010    3.4590   -1.0100 C   0  0  0  0  0  0  0  0  0  0  0  0
   -3.1140    4.3040   -1.8290 O   0  0  0  0  0  0  0  0  0  0  0  0
   -1.4010    3.1010   -0.7680 O   0  0  0  0  0  0  0  0  0  0  0  0
   -1.3310    2.0450    0.1710 C   0  0  2  0  0  0  0  0  0  0  0  0
   -0.4990    1.0620   -0.3890 O   0  0  0  0  0  0  0  0  0  0  0  0
    0.1730    0.4170    0.5220 O   0  0  0  0  0  0  0  0  0  0  0  0
  1  2  1  0
  2  3  1  0
  3  4  1  0
  4  5  1  0
  5  6  2  0
  5  7  1  0
  7  8  1  0
  7 23  1  0
  8  9  1  0
  9 10  1  0
 10 11  1  0
 11 12  1  0
 12 13  1  0
 13 14  1  0
 14 15  1  0
 15 16  1  1
 15 17  1  0
 15 21  1  0
 17 18  1  0
 18 19  2  0
 18 20  1  0
 21 20  1  6
 21 22  1  0
 22 23  1  0
M  END
