
     RDKit          3D

 47 51  0  0  0  0  0  0  0  0999 V2000
   -4.3810    3.1640    2.8230 C   0  0  0  0  0  0  0  0  0  0  0  0
   -3.1710    3.5320    2.0130 C   0  0  2  0  0  0  0  0  0  0  0  0
   -3.3410    4.8440    1.2770 C   0  0  0  0  0  0  0  0  0  0  0  0
   -2.8830    2.4640    0.9580 C   0  0  0  0  0  0  0  0  0  0  0  0
   -2.6460    1.1930    1.6840 C   0  0  0  0  0  0  0  0  0  0  0  0
   -2.3500    0.0480    0.7710 N   0  0  0  0  0  0  0  0  0  0  0  0
   -3.5050   -0.6200    0.3320 C   0  0  0  0  0  0  0  0  0  0  0  0
   -4.6330   -0.0500    0.7250 O   0  0  0  0  0  0  0  0  0  0  0  0
   -3.7300   -1.8080   -0.4550 C   0  0  2  0  0  0  0  0  0  0  0  0
   -3.3210   -1.8750   -1.8780 C   0  0  0  0  0  0  0  0  0  0  0  0
   -4.4390   -1.2150   -2.6380 C   0  0  0  0  0  0  0  0  0  0  0  0
   -4.3360   -0.6470   -3.6750 O   0  0  0  0  0  0  0  0  0  0  0  0
   -5.6770   -1.4190   -1.8300 C   0  0  0  0  0  0  0  0  0  0  0  0
   -5.2640   -2.1040   -0.5460 C   0  0  1  0  0  0  0  0  0  0  0  0
   -5.5410   -3.4940   -0.5110 N   0  0  0  0  0  0  0  0  0  0  0  0
   -0.9890   -0.1400    0.4560 C   0  0  1  0  0  0  0  0  0  0  0  0
   -0.7190    0.3460   -0.9460 C   0  0  0  0  0  0  0  0  0  0  0  0
   -1.6550    0.8750   -1.5900 O   0  0  0  0  0  0  0  0  0  0  0  0
    0.5330    0.2390   -1.5730 N   0  0  0  0  0  0  0  0  0  0  0  0
    0.9000    0.6500   -2.8660 C   0  0  0  0  0  0  0  0  0  0  0  0
    0.0850    1.2410   -3.7950 C   0  0  0  0  0  0  0  0  0  0  0  0
    0.5760    1.6030   -5.0560 C   0  0  0  0  0  0  0  0  0  0  0  0
    1.8840    1.3860   -5.4220 C   0  0  0  0  0  0  0  0  0  0  0  0
    2.7050    0.7970   -4.5010 C   0  0  0  0  0  0  0  0  0  0  0  0
    2.2170    0.4460   -3.2690 C   0  0  0  0  0  0  0  0  0  0  0  0
    3.1710   -0.1730   -2.3590 N   0  0  0  0  0  0  0  0  0  0  0  0
    3.2030   -1.5970   -2.3390 C   0  0  0  0  0  0  0  0  0  0  0  0
    3.9220    0.6920   -1.5810 C   0  0  0  0  0  0  0  0  0  0  0  0
    3.5890    1.9590   -1.6830 O   0  0  0  0  0  0  0  0  0  0  0  0
    5.0080    0.4110   -0.6790 C   0  0  0  0  0  0  0  0  0  0  0  0
    5.6430   -0.7780   -0.4840 C   0  0  0  0  0  0  0  0  0  0  0  0
    6.6470   -0.9200    0.4430 C   0  0  0  0  0  0  0  0  0  0  0  0
    7.0890    0.1070    1.2370 C   0  0  0  0  0  0  0  0  0  0  0  0
    6.4530    1.3170    1.0480 C   0  0  0  0  0  0  0  0  0  0  0  0
    5.4560    1.4690    0.1320 C   0  0  0  0  0  0  0  0  0  0  0  0
    7.0880    2.2700    2.0040 C   0  0  0  0  0  0  0  0  0  0  0  0
    8.4670    1.6200    2.1740 C   0  0  0  0  0  0  0  0  0  0  0  0
    8.0590    0.2460    2.2280 O   0  0  0  0  0  0  0  0  0  0  0  0
   -0.0600    0.6260    1.3530 C   0  0  0  0  0  0  0  0  0  0  0  0
    0.2020   -0.0340    2.6680 C   0  0  0  0  0  0  0  0  0  0  0  0
   -0.6470   -1.1220    2.8890 O   0  0  0  0  0  0  0  0  0  0  0  0
   -0.4280   -2.1130    1.9260 C   0  0  1  0  0  0  0  0  0  0  0  0
    0.9640   -2.7130    2.1900 C   0  0  0  0  0  0  0  0  0  0  0  0
   -1.4300   -3.1770    2.1440 C   0  0  0  0  0  0  0  0  0  0  0  0
   -1.4270   -4.3130    1.3000 N   0  0  0  0  0  0  0  0  0  0  0  0
   -2.3030   -3.1180    3.0650 O   0  0  0  0  0  0  0  0  0  0  0  0
   -0.5500   -1.5980    0.5160 C   0  0  0  0  0  0  0  0  0  0  0  0
  2  1  1  6
  2  3  1  0
  2  4  1  0
  4  5  1  0
  5  6  1  0
  6  7  1  0
 16  6  1  1
  7  8  2  0
  9  7  1  6
  9 10  1  0
  9 14  1  0
 10 11  1  0
 11 12  2  0
 11 13  1  0
 13 14  1  0
 14 15  1  6
 16 17  1  0
 16 39  1  0
 16 47  1  0
 17 18  2  0
 17 19  1  0
 19 20  1  0
 20 21  2  0
 20 25  1  0
 21 22  1  0
 22 23  2  0
 23 24  1  0
 24 25  2  0
 25 26  1  0
 26 27  1  0
 26 28  1  0
 28 29  2  0
 28 30  1  0
 30 31  2  0
 30 35  1  0
 31 32  1  0
 32 33  2  0
 33 34  1  0
 33 38  1  0
 34 35  2  0
 34 36  1  0
 36 37  1  0
 37 38  1  0
 39 40  1  0
 40 41  1  0
 41 42  1  0
 42 43  1  6
 42 44  1  0
 42 47  1  0
 44 45  1  0
 44 46  2  0
M  CHG  1  15   1
M  END
