
     RDKit          3D

 47 51  0  0  0  0  0  0  0  0999 V2000
    3.0950   -3.7110    1.8390 C   0  0  0  0  0  0  0  0  0  0  0  0
    2.3740   -2.5200    1.5250 N   0  0  0  0  0  0  0  0  0  0  0  0
    2.6130   -1.8270    0.3220 C   0  0  0  0  0  0  0  0  0  0  0  0
    3.5080   -2.3550   -0.4350 O   0  0  0  0  0  0  0  0  0  0  0  0
    1.9530   -0.6000   -0.1250 C   0  0  1  0  0  0  0  0  0  0  0  0
    2.7120   -0.0040   -1.2990 C   0  0  0  0  0  0  0  0  0  0  0  0
    4.1300    0.3810   -0.9880 C   0  0  0  0  0  0  0  0  0  0  0  0
    4.3290    1.4070    0.0260 C   0  0  0  0  0  0  0  0  0  0  0  0
    3.3890    2.0080    0.5450 O   0  0  0  0  0  0  0  0  0  0  0  0
    5.6830    1.7070    0.4130 N   0  0  0  0  0  0  0  0  0  0  0  0
    5.8560    2.7190    1.4300 C   0  0  0  0  0  0  0  0  0  0  0  0
    7.0460    3.5700    1.0300 C   0  0  0  0  0  0  0  0  0  0  0  0
    8.2230    2.6730    1.0820 C   0  0  0  0  0  0  0  0  0  0  0  0
    9.3650    3.1070    1.7090 C   0  0  0  0  0  0  0  0  0  0  0  0
   10.4720    2.2600    1.7560 C   0  0  0  0  0  0  0  0  0  0  0  0
   10.3490    1.0240    1.1630 C   0  0  0  0  0  0  0  0  0  0  0  0
    9.1890    0.6000    0.5340 C   0  0  0  0  0  0  0  0  0  0  0  0
    8.0780    1.4400    0.4820 C   0  0  0  0  0  0  0  0  0  0  0  0
    6.8110    1.0440   -0.1850 C   0  0  0  0  0  0  0  0  0  0  0  0
    0.5000   -0.5270   -0.2240 C   0  0  0  0  0  0  0  0  0  0  0  0
   -0.2470   -1.3890   -1.0800 N   0  0  2  0  0  0  0  0  0  0  0  0
   -0.3980   -0.8910   -2.3800 C   0  0  0  0  0  0  0  0  0  0  0  0
   -1.2400    0.2700   -2.6710 C   0  0  0  0  0  0  0  0  0  0  0  0
   -1.2800    0.6590   -3.9070 O   0  0  0  0  0  0  0  0  0  0  0  0
   -2.0260    1.0360   -1.7890 N   0  0  0  0  0  0  0  0  0  0  0  0
   -2.8230    2.1650   -2.0640 C   0  0  0  0  0  0  0  0  0  0  0  0
   -2.8140    2.8130   -3.2480 C   0  0  0  0  0  0  0  0  0  0  0  0
   -3.6070    3.9550   -3.4880 C   0  0  0  0  0  0  0  0  0  0  0  0
   -4.4140    4.4310   -2.4980 C   0  0  0  0  0  0  0  0  0  0  0  0
   -4.4400    3.7930   -1.2870 C   0  0  0  0  0  0  0  0  0  0  0  0
   -3.6720    2.6700   -1.0300 C   0  0  0  0  0  0  0  0  0  0  0  0
   -3.6440    2.0000    0.1170 O   0  0  0  0  0  0  0  0  0  0  0  0
   -4.1840    1.9740    1.3420 C   0  0  0  0  0  0  0  0  0  0  0  0
   -5.6350    1.6960    1.5310 C   0  0  1  0  0  0  0  0  0  0  0  0
   -6.4460    2.6040    0.9020 O   0  0  0  0  0  0  0  0  0  0  0  0
   -6.0400    0.2820    1.1590 C   0  0  1  0  0  0  0  0  0  0  0  0
   -5.3340   -0.7610    1.9810 C   0  0  0  0  0  0  0  0  0  0  0  0
   -6.3720   -1.8760    2.1530 C   0  0  0  0  0  0  0  0  0  0  0  0
   -7.6700   -1.1380    2.2800 C   0  0  0  0  0  0  0  0  0  0  0  0
   -7.4980    0.0680    1.4100 C   0  0  2  0  0  0  0  0  0  0  0  0
   -8.2230   -0.0700    0.2170 O   0  0  0  0  0  0  0  0  0  0  0  0
   -1.4010   -1.9710   -0.4670 C   0  0  2  0  0  0  0  0  0  0  0  0
   -1.0910   -3.2750    0.2940 C   0  0  0  0  0  0  0  0  0  0  0  0
   -0.8990   -4.4450   -0.6010 C   0  0  0  0  0  0  0  0  0  0  0  0
   -2.3030   -4.7560   -1.1510 C   0  0  0  0  0  0  0  0  0  0  0  0
   -2.6220   -3.5730   -2.0160 C   0  0  0  0  0  0  0  0  0  0  0  0
   -2.5920   -2.2510   -1.2860 C   0  0  0  0  0  0  0  0  0  0  0  0
  1  2  1  0
  2  3  1  0
  3  4  2  0
  3  5  1  0
  5  6  1  6
  5 20  1  0
  6  7  1  0
  7  8  1  0
  8  9  2  0
  8 10  1  0
 10 11  1  0
 10 19  1  0
 11 12  1  0
 12 13  1  0
 13 14  2  0
 13 18  1  0
 14 15  1  0
 15 16  2  0
 16 17  1  0
 17 18  2  0
 18 19  1  0
 21 20  1  1
 21 22  1  0
 21 42  1  0
 22 23  1  0
 23 24  2  0
 23 25  1  0
 25 26  1  0
 26 27  2  0
 26 31  1  0
 27 28  1  0
 28 29  2  0
 29 30  1  0
 30 31  2  0
 31 32  1  0
 32 33  1  0
 33 34  1  0
 34 35  1  6
 34 36  1  0
 36 37  1  1
 36 40  1  0
 37 38  1  0
 38 39  1  0
 39 40  1  0
 40 41  1  6
 42 43  1  6
 42 47  1  0
 43 44  1  0
 44 45  1  0
 45 46  1  0
 46 47  1  0
M  CHG  1  21   1
M  END
