
     RDKit          3D

 47 49  0  0  0  0  0  0  0  0999 V2000
   -1.1690    6.9440   -1.5980 C   0  0  0  0  0  0  0  0  0  0  0  0
   -0.8880    6.4160   -0.2070 C   0  0  0  0  0  0  0  0  0  0  0  0
   -0.4480    4.9720   -0.2830 N   0  0  0  0  0  0  0  0  0  0  0  0
   -1.6310    4.1320   -0.2080 C   0  0  0  0  0  0  0  0  0  0  0  0
   -2.7540    4.6620   -0.6270 O   0  0  0  0  0  0  0  0  0  0  0  0
   -1.8250    2.7540    0.2580 C   0  0  2  0  0  0  0  0  0  0  0  0
   -0.9670    2.4410    1.4100 C   0  0  0  0  0  0  0  0  0  0  0  0
   -1.8680    1.8970   -0.8060 O   0  0  0  0  0  0  0  0  0  0  0  0
   -1.8100    0.4860   -0.9550 C   0  0  0  0  0  0  0  0  0  0  0  0
   -0.6660    0.0960   -1.6480 C   0  0  0  0  0  0  0  0  0  0  0  0
   -0.3380   -1.2250   -1.9460 C   0  0  0  0  0  0  0  0  0  0  0  0
   -1.1550   -2.2940   -1.5600 C   0  0  0  0  0  0  0  0  0  0  0  0
   -2.2840   -1.8620   -0.8680 C   0  0  0  0  0  0  0  0  0  0  0  0
   -2.6640   -0.5200   -0.5430 C   0  0  0  0  0  0  0  0  0  0  0  0
   -3.9720   -0.4740    0.1800 C   0  0  0  0  0  0  0  0  0  0  0  0
   -4.7160   -1.6480    0.4600 N   0  0  2  0  0  0  0  0  0  0  0  0
   -6.1410   -1.4530    0.0180 C   0  0  0  0  0  0  0  0  0  0  0  0
   -6.7760   -2.7360   -0.3120 C   0  0  0  0  0  0  0  0  0  0  0  0
   -6.0970   -3.9680   -0.2040 N   0  0  0  0  0  0  0  0  0  0  0  0
   -7.9690   -2.7440   -0.7050 O   0  0  0  0  0  0  0  0  0  0  0  0
   -4.7760   -1.9320    1.9010 C   0  0  2  0  0  0  0  0  0  0  0  0
   -5.3150   -0.7910    2.7030 C   0  0  0  0  0  0  0  0  0  0  0  0
   -3.4200   -2.3410    2.4210 C   0  0  0  0  0  0  0  0  0  0  0  0
   -0.8240   -3.7230   -1.8750 C   0  0  0  0  0  0  0  0  0  0  0  0
   -1.1990   -4.5010   -2.8610 O   0  0  0  0  0  0  0  0  0  0  0  0
    0.0630   -4.4810   -1.0000 N   0  0  0  0  0  0  0  0  0  0  0  0
    1.0700   -5.3560   -1.6260 C   0  0  0  0  0  0  0  0  0  0  0  0
    0.0100   -4.4180    0.4350 C   0  0  0  0  0  0  0  0  0  0  0  0
    0.2090   -3.0570    0.9910 C   0  0  0  0  0  0  0  0  0  0  0  0
    1.2970   -2.3600    1.0740 C   0  0  0  0  0  0  0  0  0  0  0  0
    2.6730   -2.7250    0.6350 C   0  0  0  0  0  0  0  0  0  0  0  0
    3.1640   -1.6880   -0.3530 C   0  0  0  0  0  0  0  0  0  0  0  0
    4.2190   -0.7790    0.2710 C   0  0  1  0  0  0  0  0  0  0  0  0
    3.6070   -0.1060    1.4570 C   0  0  0  0  0  0  0  0  0  0  0  0
    5.2880   -1.7490    0.8030 C   0  0  0  0  0  0  0  0  0  0  0  0
    4.7750    0.1540   -0.7500 C   0  0  1  0  0  0  0  0  0  0  0  0
    3.8320    0.3160   -1.9380 C   0  0  0  0  0  0  0  0  0  0  0  0
    5.2700    1.4080   -0.2820 N   0  0  0  0  0  0  0  0  0  0  0  0
    6.1430    1.4910    0.8220 C   0  0  0  0  0  0  0  0  0  0  0  0
    6.5610    2.6060    1.3090 O   0  0  0  0  0  0  0  0  0  0  0  0
    4.9570    2.6890   -0.9250 C   0  0  0  0  0  0  0  0  0  0  0  0
    3.5810    3.2150   -0.7850 C   0  0  0  0  0  0  0  0  0  0  0  0
    3.0360    3.5060    0.4470 C   0  0  0  0  0  0  0  0  0  0  0  0
    1.7350    4.0650    0.5980 C   0  0  0  0  0  0  0  0  0  0  0  0
    0.8720    4.3850   -0.4370 C   0  0  0  0  0  0  0  0  0  0  0  0
    1.4570    4.0710   -1.6640 C   0  0  0  0  0  0  0  0  0  0  0  0
    2.7480    3.5140   -1.8400 C   0  0  0  0  0  0  0  0  0  0  0  0
  1  2  1  0
  2  3  1  0
  3  4  1  0
  3 45  1  0
  4  5  2  0
  4  6  1  0
  6  7  1  1
  6  8  1  0
  8  9  1  0
  9 10  2  0
  9 14  1  0
 10 11  1  0
 11 12  2  0
 12 13  1  0
 12 24  1  0
 13 14  2  0
 14 15  1  0
 16 15  1  1
 16 17  1  0
 16 21  1  0
 17 18  1  0
 18 19  1  0
 18 20  2  0
 21 22  1  1
 21 23  1  0
 24 25  2  0
 24 26  1  0
 26 27  1  0
 26 28  1  0
 28 29  1  0
 29 30  2  0
 30 31  1  0
 31 32  1  0
 32 33  1  0
 33 34  1  1
 33 35  1  0
 33 36  1  0
 36 37  1  6
 36 38  1  0
 38 39  1  0
 38 41  1  0
 39 40  2  0
 41 42  1  0
 42 43  2  0
 42 47  1  0
 43 44  1  0
 44 45  2  0
 45 46  1  0
 46 47  2  0
M  CHG  1  16   1
M  END
