
     RDKit          3D

 47 51  0  0  0  0  0  0  0  0999 V2000
    0.5130    8.3620   -3.8390 C   0  0  0  0  0  0  0  0  0  0  0  0
    1.2810    7.6890   -2.7860 N   0  0  0  0  0  0  0  0  0  0  0  0
    0.8650    6.4500   -2.2780 C   0  0  0  0  0  0  0  0  0  0  0  0
   -0.2000    5.9360   -2.7620 O   0  0  0  0  0  0  0  0  0  0  0  0
    1.5630    5.6900   -1.2230 C   0  0  1  0  0  0  0  0  0  0  0  0
    1.6760    6.4830    0.0480 C   0  0  0  0  0  0  0  0  0  0  0  0
    1.7930    5.4730    1.1310 C   0  0  0  0  0  0  0  0  0  0  0  0
    1.1690    4.2540    0.5840 N   0  0  0  0  0  0  0  0  0  0  0  0
    1.1780    3.0570    1.3400 C   0  0  0  0  0  0  0  0  0  0  0  0
    0.4850    1.9540    1.1290 C   0  0  0  0  0  0  0  0  0  0  0  0
    0.7230    0.8490    2.1150 C   0  0  0  0  0  0  0  0  0  0  0  0
    0.9200    1.3100    3.3440 O   0  0  0  0  0  0  0  0  0  0  0  0
    0.7390   -0.4690    1.8090 O   0  0  0  0  0  0  0  0  0  0  0  0
    1.4310   -1.6230    1.9690 C   0  0  1  0  0  0  0  0  0  0  0  0
    0.8940   -2.4070    3.1840 C   0  0  0  0  0  0  0  0  0  0  0  0
    1.6290   -3.6770    3.3780 C   0  0  0  0  0  0  0  0  0  0  0  0
    1.1680   -4.8380    2.8060 C   0  0  0  0  0  0  0  0  0  0  0  0
    1.8490   -6.0470    2.9580 C   0  0  0  0  0  0  0  0  0  0  0  0
    3.0050   -6.1080    3.6860 C   0  0  0  0  0  0  0  0  0  0  0  0
    3.6740   -7.3400    3.8230 O   0  0  0  0  0  0  0  0  0  0  0  0
    3.4890   -4.9630    4.2680 C   0  0  0  0  0  0  0  0  0  0  0  0
    2.7900   -3.7600    4.1040 C   0  0  0  0  0  0  0  0  0  0  0  0
    1.2330   -2.6110    0.8120 C   0  0  0  0  0  0  0  0  0  0  0  0
    1.3740   -1.6250   -0.4030 C   0  0  0  0  0  0  0  0  0  0  0  0
    1.3620   -2.3340   -1.6700 C   0  0  0  0  0  0  0  0  0  0  0  0
    0.7360   -1.6200   -2.8290 C   0  0  0  0  0  0  0  0  0  0  0  0
    0.4680   -2.4610   -3.9200 C   0  0  0  0  0  0  0  0  0  0  0  0
   -0.0790   -2.0630   -5.1190 C   0  0  0  0  0  0  0  0  0  0  0  0
   -0.3220   -2.8850   -6.1360 O   0  0  0  0  0  0  0  0  0  0  0  0
   -0.3780   -0.6940   -5.2110 C   0  0  0  0  0  0  0  0  0  0  0  0
   -0.1210    0.1220   -4.1570 C   0  0  0  0  0  0  0  0  0  0  0  0
    0.4400   -0.3090   -2.9370 C   0  0  0  0  0  0  0  0  0  0  0  0
    0.6570    0.7460   -1.9230 C   0  0  0  0  0  0  0  0  0  0  0  0
   -0.4900    1.0950   -1.1340 N   0  0  0  0  0  0  0  0  0  0  0  0
   -1.7920    0.6060   -1.5170 C   0  0  0  0  0  0  0  0  0  0  0  0
   -2.2990   -0.5300   -0.7170 C   0  0  0  0  0  0  0  0  0  0  0  0
   -2.3300   -1.8000   -1.2200 C   0  0  0  0  0  0  0  0  0  0  0  0
   -2.8020   -2.9070   -0.5010 C   0  0  0  0  0  0  0  0  0  0  0  0
   -3.2600   -2.7010    0.7780 C   0  0  0  0  0  0  0  0  0  0  0  0
   -3.7680   -3.8170    1.5920 C   0  0  0  0  0  0  0  0  0  0  0  0
   -3.2330   -1.4290    1.2910 C   0  0  0  0  0  0  0  0  0  0  0  0
   -3.7100   -1.1850    2.6280 N   0  0  0  0  0  0  0  0  0  0  0  0
   -5.0740   -0.7120    2.5470 C   0  0  0  0  0  0  0  0  0  0  0  0
   -2.7670   -0.3520    0.5770 C   0  0  0  0  0  0  0  0  0  0  0  0
   -0.4470    1.9490    0.0250 C   0  0  0  0  0  0  0  0  0  0  0  0
   -1.4280    2.8110   -0.0070 O   0  0  0  0  0  0  0  0  0  0  0  0
    0.6570    4.5430   -0.7150 C   0  0  0  0  0  0  0  0  0  0  0  0
  1  2  1  0
  2  3  1  0
  3  4  2  0
  5  3  1  6
  5  6  1  0
  5 47  1  0
  6  7  1  0
  7  8  1  0
  8  9  1  0
  8 47  1  0
  9 10  2  3
 10 11  1  0
 10 45  1  0
 11 12  2  0
 11 13  1  0
 13 14  1  0
 14 15  1  1
 14 23  1  0
 15 16  1  0
 16 17  2  0
 16 22  1  0
 17 18  1  0
 18 19  2  0
 19 20  1  0
 19 21  1  0
 21 22  2  0
 23 24  1  0
 24 25  1  0
 25 26  1  0
 26 27  2  0
 26 32  1  0
 27 28  1  0
 28 29  1  0
 28 30  2  0
 30 31  1  0
 31 32  2  0
 32 33  1  0
 33 34  1  0
 34 35  1  0
 34 45  1  0
 35 36  1  0
 36 37  2  0
 36 44  1  0
 37 38  1  0
 38 39  2  0
 39 40  1  0
 39 41  1  0
 41 42  1  0
 41 44  2  0
 42 43  1  0
 45 46  2  0
M  CHG  1  42   1
M  END
