
     RDKit          3D

 46 49  0  0  0  0  0  0  0  0999 V2000
   -5.0940    6.1660   -2.4620 C   0  0  0  0  0  0  0  0  0  0  0  0
   -5.0390    5.1480   -1.3540 C   0  0  0  0  0  0  0  0  0  0  0  0
   -4.2390    4.0590   -1.6860 O   0  0  0  0  0  0  0  0  0  0  0  0
   -4.2060    3.1340   -0.6430 C   0  0  2  0  0  0  0  0  0  0  0  0
   -2.8150    2.6780   -0.2690 C   0  0  0  0  0  0  0  0  0  0  0  0
   -3.3000    1.2490   -0.4140 C   0  0  1  0  0  0  0  0  0  0  0  0
   -3.2430    0.6270    0.8800 N   0  0  0  0  0  0  0  0  0  0  0  0
   -4.0040    1.0910    2.0120 C   0  0  0  0  0  0  0  0  0  0  0  0
   -2.3580   -0.4630    0.9950 C   0  0  0  0  0  0  0  0  0  0  0  0
   -1.6580   -0.8650    0.0110 O   0  0  0  0  0  0  0  0  0  0  0  0
   -2.2020   -1.1930    2.2880 C   0  0  2  0  0  0  0  0  0  0  0  0
   -1.0690   -2.1240    2.1520 N   0  0  0  0  0  0  0  0  0  0  0  0
    0.2560   -1.6950    2.3960 C   0  0  0  0  0  0  0  0  0  0  0  0
    0.3960   -0.4650    2.7200 O   0  0  0  0  0  0  0  0  0  0  0  0
    1.4320   -2.5230    2.2990 C   0  0  0  0  0  0  0  0  0  0  0  0
    2.5740   -2.0230    1.6450 C   0  0  0  0  0  0  0  0  0  0  0  0
    3.7150   -2.7510    1.4330 C   0  0  0  0  0  0  0  0  0  0  0  0
    4.8570   -2.2970    0.7740 N   0  0  0  0  0  0  0  0  0  0  0  0
    5.0640   -1.0340    0.1500 C   0  0  0  0  0  0  0  0  0  0  0  0
    4.1460   -0.2230    0.1830 O   0  0  0  0  0  0  0  0  0  0  0  0
    6.2660   -0.6940   -0.4930 N   0  0  0  0  0  0  0  0  0  0  0  0
    6.5980    0.5070   -1.1510 C   0  0  0  0  0  0  0  0  0  0  0  0
    5.7540    1.5830   -1.2400 C   0  0  0  0  0  0  0  0  0  0  0  0
    6.0880    2.7740   -1.9030 C   0  0  0  0  0  0  0  0  0  0  0  0
    5.0950    3.8850   -1.9460 C   0  0  0  0  0  0  0  0  0  0  0  0
    7.3070    2.9000   -2.4990 C   0  0  0  0  0  0  0  0  0  0  0  0
    7.6890    4.1430   -3.2110 C   0  0  0  0  0  0  0  0  0  0  0  0
    8.1600    1.8130   -2.4090 C   0  0  0  0  0  0  0  0  0  0  0  0
    7.8390    0.6620   -1.7690 C   0  0  0  0  0  0  0  0  0  0  0  0
    8.6990   -0.4320   -1.6800 O   0  0  0  0  0  0  0  0  0  0  0  0
    9.9700   -0.3810   -2.2720 C   0  0  0  0  0  0  0  0  0  0  0  0
    3.7130   -4.0720    1.9100 C   0  0  0  0  0  0  0  0  0  0  0  0
    4.9230   -4.8850    1.7000 C   0  0  0  0  0  0  0  0  0  0  0  0
    2.6230   -4.6060    2.5560 C   0  0  0  0  0  0  0  0  0  0  0  0
    1.4780   -3.8080    2.7440 C   0  0  0  0  0  0  0  0  0  0  0  0
    0.3330   -4.3910    3.4880 C   0  0  0  0  0  0  0  0  0  0  0  0
   -3.4020   -1.9710    2.7010 C   0  0  2  0  0  0  0  0  0  0  0  0
   -3.0680   -2.6640    4.0270 C   0  0  0  0  0  0  0  0  0  0  0  0
   -3.7950   -3.0720    1.7250 C   0  0  0  0  0  0  0  0  0  0  0  0
   -5.0440   -3.7380    2.3270 C   0  0  0  0  0  0  0  0  0  0  0  0
   -4.4910    1.7140   -1.0640 C   0  0  1  0  0  0  0  0  0  0  0  0
   -5.8540    1.2010   -0.7560 C   0  0  0  0  0  0  0  0  0  0  0  0
   -5.8640   -0.2870   -1.0130 C   0  0  0  0  0  0  0  0  0  0  0  0
   -5.6430   -0.4890   -2.4920 C   0  0  0  0  0  0  0  0  0  0  0  0
   -5.3610    0.7660   -3.2440 C   0  0  0  0  0  0  0  0  0  0  0  0
   -4.3570    1.6430   -2.5960 C   0  0  0  0  0  0  0  0  0  0  0  0
  1  2  1  0
  2  3  1  0
  4  3  1  6
  4  5  1  0
  4 41  1  0
  5  6  1  0
  6  7  1  1
  6 41  1  0
  7  8  1  0
  7  9  1  0
  9 10  2  0
  9 11  1  0
 11 12  1  6
 11 37  1  0
 12 13  1  0
 13 14  2  0
 13 15  1  0
 15 16  2  0
 15 35  1  0
 16 17  1  0
 17 18  1  0
 17 32  2  0
 18 19  1  0
 19 20  2  0
 19 21  1  0
 21 22  1  0
 22 23  2  0
 22 29  1  0
 23 24  1  0
 24 25  1  0
 24 26  2  0
 26 27  1  0
 26 28  1  0
 28 29  2  0
 29 30  1  0
 30 31  1  0
 32 33  1  0
 32 34  1  0
 34 35  2  0
 35 36  1  0
 37 38  1  1
 37 39  1  0
 39 40  1  0
 41 42  1  1
 41 46  1  0
 42 43  1  0
 43 44  1  0
 44 45  1  0
 45 46  1  0
M  END
