
     RDKit          3D

 46 50  0  0  0  0  0  0  0  0999 V2000
   -1.0330   -4.0680    2.6040 C   0  0  0  0  0  0  0  0  0  0  0  0
   -0.8370   -2.7700    3.3320 C   0  0  0  0  0  0  0  0  0  0  0  0
    0.3660   -2.0760    2.8080 C   0  0  0  0  0  0  0  0  0  0  0  0
    1.5600   -2.1810    3.3930 O   0  0  0  0  0  0  0  0  0  0  0  0
    2.4720   -1.5110    2.7920 C   0  0  0  0  0  0  0  0  0  0  0  0
    3.9060   -1.3850    3.1640 C   0  0  0  0  0  0  0  0  0  0  0  0
    1.8370   -0.8880    1.6790 C   0  0  0  0  0  0  0  0  0  0  0  0
    2.5430   -0.0430    0.7420 C   0  0  2  0  0  0  0  0  0  0  0  0
    1.9780    0.3840   -0.5650 C   0  0  0  0  0  0  0  0  0  0  0  0
    1.6520   -0.5980   -1.5720 C   0  0  0  0  0  0  0  0  0  0  0  0
    2.6580   -1.2190   -2.1120 O   0  0  0  0  0  0  0  0  0  0  0  0
    0.4370   -0.9930   -2.0670 O   0  0  0  0  0  0  0  0  0  0  0  0
    0.3260   -1.9940   -3.0780 C   0  0  0  0  0  0  0  0  0  0  0  0
    3.9630   -0.4960    0.5080 C   0  0  0  0  0  0  0  0  0  0  0  0
    4.9740    0.3300    0.6690 C   0  0  0  0  0  0  0  0  0  0  0  0
    4.7540    1.6620    1.0700 N   0  0  0  0  0  0  0  0  0  0  0  0
    4.9640    2.7850    0.2390 C   0  0  0  0  0  0  0  0  0  0  0  0
    4.6640    4.0710    0.6750 C   0  0  0  0  0  0  0  0  0  0  0  0
    4.8460    5.2050   -0.0740 C   0  0  0  0  0  0  0  0  0  0  0  0
    5.3650    5.0680   -1.3590 C   0  0  0  0  0  0  0  0  0  0  0  0
    5.6790    3.8170   -1.8410 C   0  0  0  0  0  0  0  0  0  0  0  0
    6.2350    3.7230   -3.2150 C   0  0  0  0  0  0  0  0  0  0  0  0
    5.4760    2.7130   -1.0450 C   0  0  0  0  0  0  0  0  0  0  0  0
    6.2870   -0.1350    0.4200 N   0  0  0  0  0  0  0  0  0  0  0  0
    6.5280   -1.0780   -0.6440 C   0  0  0  0  0  0  0  0  0  0  0  0
    5.5280   -2.1760   -0.6310 C   0  0  0  0  0  0  0  0  0  0  0  0
    4.2550   -1.8500    0.0740 C   0  0  0  0  0  0  0  0  0  0  0  0
    3.4540   -2.7990    0.2750 O   0  0  0  0  0  0  0  0  0  0  0  0
    0.4970   -1.2580    1.7130 C   0  0  0  0  0  0  0  0  0  0  0  0
   -0.6070   -0.8330    0.8370 C   0  0  0  0  0  0  0  0  0  0  0  0
   -0.7300    0.4260    0.6580 O   0  0  0  0  0  0  0  0  0  0  0  0
   -1.5270   -1.6360    0.1830 N   0  0  0  0  0  0  0  0  0  0  0  0
   -2.6270   -1.2820   -0.6600 C   0  0  0  0  0  0  0  0  0  0  0  0
   -3.7590   -0.4890   -0.0900 C   0  0  2  0  0  0  0  0  0  0  0  0
   -4.2710   -1.3260    1.1100 C   0  0  0  0  0  0  0  0  0  0  0  0
   -4.6840   -2.6150    0.4110 C   0  0  0  0  0  0  0  0  0  0  0  0
   -5.2300   -2.1800   -0.9250 C   0  0  0  0  0  0  0  0  0  0  0  0
   -4.9730   -0.7360   -0.9790 C   0  0  0  0  0  0  0  0  0  0  0  0
   -5.6000    0.2160   -1.6130 C   0  0  0  0  0  0  0  0  0  0  0  0
   -6.7380   -0.0310   -2.4440 N   0  0  0  0  0  0  0  0  0  0  0  0
   -8.0480    0.1650   -1.8870 C   0  0  0  0  0  0  0  0  0  0  0  0
   -5.1740    1.6440   -1.5040 C   0  0  0  0  0  0  0  0  0  0  0  0
   -4.7010    1.8800   -0.1130 C   0  0  1  0  0  0  0  0  0  0  0  0
   -4.1950    3.3140   -0.0160 C   0  0  0  0  0  0  0  0  0  0  0  0
   -5.8100    1.6590    0.8710 C   0  0  0  0  0  0  0  0  0  0  0  0
   -3.5580    0.9290    0.1860 C   0  0  0  0  0  0  0  0  0  0  0  0
  1  2  1  0
  2  3  1  0
  3  4  1  0
  3 29  2  0
  4  5  1  0
  5  6  1  0
  5  7  2  0
  7  8  1  0
  7 29  1  0
  8  9  1  6
  8 14  1  0
  9 10  1  0
 10 11  2  0
 10 12  1  0
 12 13  1  0
 14 15  2  0
 14 27  1  0
 15 16  1  0
 15 24  1  0
 16 17  1  0
 17 18  2  0
 17 23  1  0
 18 19  1  0
 19 20  2  0
 20 21  1  0
 21 22  1  0
 21 23  2  0
 24 25  1  0
 25 26  1  0
 26 27  1  0
 27 28  2  0
 29 30  1  0
 30 31  2  0
 30 32  1  0
 32 33  1  0
 34 33  1  6
 34 35  1  0
 34 38  1  0
 34 46  1  0
 35 36  1  0
 36 37  1  0
 37 38  1  0
 38 39  2  0
 39 40  1  0
 39 42  1  0
 40 41  1  0
 42 43  1  0
 43 44  1  6
 43 45  1  0
 43 46  1  0
M  END
