
     RDKit          3D

 47 51  0  0  0  0  0  0  0  0999 V2000
   -1.8550   -4.4420    3.4040 C   0  0  0  0  0  0  0  0  0  0  0  0
   -2.4840   -3.5210    2.3560 C   0  0  0  0  0  0  0  0  0  0  0  0
   -1.5570   -2.3460    2.2060 C   0  0  0  0  0  0  0  0  0  0  0  0
   -2.0200   -1.3370    1.1800 C   0  0  2  0  0  0  0  0  0  0  0  0
   -2.1370   -1.7730   -0.2090 C   0  0  0  0  0  0  0  0  0  0  0  0
   -1.0360   -2.2390   -1.0270 C   0  0  0  0  0  0  0  0  0  0  0  0
   -0.2190   -3.3810   -0.7400 C   0  0  0  0  0  0  0  0  0  0  0  0
    1.0240   -3.5650   -1.4750 N   0  0  0  0  0  0  0  0  0  0  0  0
   -0.4310   -4.2800    0.0830 O   0  0  0  0  0  0  0  0  0  0  0  0
   -1.3040   -0.0640    1.4730 C   0  0  0  0  0  0  0  0  0  0  0  0
   -1.5940    1.0880    0.6030 C   0  0  0  0  0  0  0  0  0  0  0  0
   -0.5660    1.4970   -0.1750 C   0  0  0  0  0  0  0  0  0  0  0  0
    0.7610    0.9610   -0.2640 C   0  0  0  0  0  0  0  0  0  0  0  0
    1.2170   -0.0090    0.3700 O   0  0  0  0  0  0  0  0  0  0  0  0
    1.6600    1.6210   -1.1900 N   0  0  0  0  0  0  0  0  0  0  0  0
    2.9980    1.2670   -1.4280 C   0  0  0  0  0  0  0  0  0  0  0  0
    3.7120    0.3020   -0.8130 C   0  0  0  0  0  0  0  0  0  0  0  0
    5.0620    0.0320   -1.1200 C   0  0  0  0  0  0  0  0  0  0  0  0
    5.6710   -1.0960   -0.4440 C   0  0  0  0  0  0  0  0  0  0  0  0
    4.8270   -1.9750    0.0370 O   0  0  0  0  0  0  0  0  0  0  0  0
    7.0560   -1.3690   -0.2360 C   0  0  0  0  0  0  0  0  0  0  0  0
    8.0150   -0.5450   -0.5480 C   0  0  0  0  0  0  0  0  0  0  0  0
    9.4400   -0.9030   -0.3090 C   0  0  0  0  0  0  0  0  0  0  0  0
    9.6500   -2.1340    0.2860 O   0  0  0  0  0  0  0  0  0  0  0  0
    8.6520   -3.0050    0.6160 C   0  0  0  0  0  0  0  0  0  0  0  0
    8.9410   -4.2490    1.2020 O   0  0  0  0  0  0  0  0  0  0  0  0
    7.4080   -2.6710    0.3810 C   0  0  0  0  0  0  0  0  0  0  0  0
    5.6370    0.8050   -2.0950 C   0  0  0  0  0  0  0  0  0  0  0  0
    4.9500    1.8110   -2.7570 C   0  0  0  0  0  0  0  0  0  0  0  0
    3.6450    2.0330   -2.4230 C   0  0  0  0  0  0  0  0  0  0  0  0
    2.9540    3.0400   -3.0860 O   0  0  0  0  0  0  0  0  0  0  0  0
    3.6140    3.7920   -4.0710 C   0  0  0  0  0  0  0  0  0  0  0  0
   -2.8050    1.8050    0.5320 N   0  0  0  0  0  0  0  0  0  0  0  0
   -2.6950    3.2190    0.0570 C   0  0  0  0  0  0  0  0  0  0  0  0
   -3.2050    3.2190   -1.3610 C   0  0  0  0  0  0  0  0  0  0  0  0
   -4.6820    2.8470   -1.3300 C   0  0  1  0  0  0  0  0  0  0  0  0
   -5.0540    1.9580   -2.4410 C   0  0  0  0  0  0  0  0  0  0  0  0
   -4.3660    0.6440   -2.5520 C   0  0  0  0  0  0  0  0  0  0  0  0
   -5.0250    2.4180    0.0430 C   0  0  0  0  0  0  0  0  0  0  0  0
   -5.9850    2.7010    0.7830 N   0  0  0  0  0  0  0  0  0  0  0  0
   -5.9140    2.0750    2.0460 C   0  0  0  0  0  0  0  0  0  0  0  0
   -6.7420    2.1400    3.1560 C   0  0  0  0  0  0  0  0  0  0  0  0
   -6.4360    1.4570    4.3120 C   0  0  0  0  0  0  0  0  0  0  0  0
   -5.2950    0.6920    4.3880 C   0  0  0  0  0  0  0  0  0  0  0  0
   -4.4690    0.6280    3.2760 C   0  0  0  0  0  0  0  0  0  0  0  0
   -4.7500    1.3120    2.0790 C   0  0  0  0  0  0  0  0  0  0  0  0
   -4.1300    1.4100    0.7670 C   0  0  2  0  0  0  0  0  0  0  0  0
  1  2  1  0
  2  3  1  0
  4  3  1  1
  4  5  1  0
  4 10  1  0
  5  6  1  0
  6  7  1  0
  7  8  1  0
  7  9  2  0
 10 11  1  0
 11 12  2  3
 11 33  1  0
 12 13  1  0
 13 14  2  0
 13 15  1  0
 15 16  1  0
 16 17  2  0
 16 30  1  0
 17 18  1  0
 18 19  1  0
 18 28  2  0
 19 20  2  0
 19 21  1  0
 21 22  2  0
 21 27  1  0
 22 23  1  0
 23 24  1  0
 24 25  1  0
 25 26  1  0
 25 27  2  0
 28 29  1  0
 29 30  2  0
 30 31  1  0
 31 32  1  0
 33 34  1  0
 47 33  1  1
 34 35  1  0
 35 36  1  0
 36 37  1  6
 36 39  1  0
 37 38  1  0
 39 40  2  0
 39 47  1  0
 40 41  1  0
 41 42  2  0
 41 46  1  0
 42 43  1  0
 43 44  2  0
 44 45  1  0
 45 46  2  0
 46 47  1  0
M  END
