
     RDKit          3D

 46 50  0  0  0  0  0  0  0  0999 V2000
    8.0850    2.4380   -0.1800 C   0  0  0  0  0  0  0  0  0  0  0  0
    6.6590    2.1220   -0.4560 C   0  0  0  0  0  0  0  0  0  0  0  0
    5.7270    3.1140   -0.7100 C   0  0  0  0  0  0  0  0  0  0  0  0
    4.4080    2.8090   -0.9670 C   0  0  0  0  0  0  0  0  0  0  0  0
    4.0510    1.4890   -0.9650 C   0  0  0  0  0  0  0  0  0  0  0  0
    4.9530    0.4690   -0.7160 C   0  0  0  0  0  0  0  0  0  0  0  0
    4.5450   -0.9230   -0.7540 C   0  0  0  0  0  0  0  0  0  0  0  0
    5.3360   -1.8780   -0.5770 O   0  0  0  0  0  0  0  0  0  0  0  0
    3.2280   -1.2070   -0.9980 O   0  0  0  0  0  0  0  0  0  0  0  0
    2.6380   -2.4610   -1.0920 C   0  0  2  0  0  0  0  0  0  0  0  0
    2.1360   -2.6750   -2.5070 C   0  0  0  0  0  0  0  0  0  0  0  0
    1.5840   -2.6980   -0.0720 C   0  0  0  0  0  0  0  0  0  0  0  0
    0.9290   -3.7630   -0.2010 O   0  0  0  0  0  0  0  0  0  0  0  0
    1.3070   -1.8210    0.9790 N   0  0  0  0  0  0  0  0  0  0  0  0
    0.2900   -1.9680    1.9900 C   0  0  0  0  0  0  0  0  0  0  0  0
   -1.0760   -1.8560    1.3540 C   0  0  2  0  0  0  0  0  0  0  0  0
   -1.2550   -2.7920    0.4020 O   0  0  0  0  0  0  0  0  0  0  0  0
   -1.3860   -0.4300    0.9810 C   0  0  0  0  0  0  0  0  0  0  0  0
   -2.7300   -0.2230    0.5760 N   0  0  0  0  0  0  0  0  0  0  0  0
   -3.7640    0.0960    1.5300 C   0  0  0  0  0  0  0  0  0  0  0  0
   -3.4190    0.0110    2.7240 O   0  0  0  0  0  0  0  0  0  0  0  0
   -5.0420    0.4680    1.1530 N   0  0  0  0  0  0  0  0  0  0  0  0
   -6.1210    0.7760    2.1090 C   0  0  0  0  0  0  0  0  0  0  0  0
   -5.9960    0.4380    3.4660 C   0  0  0  0  0  0  0  0  0  0  0  0
   -7.5600    0.9310    4.1530 S   0  0  0  0  0  0  0  0  0  0  0  0
   -8.2530    1.5250    2.6770 C   0  0  0  0  0  0  0  0  0  0  0  0
   -7.3040    1.3360    1.7450 C   0  0  0  0  0  0  0  0  0  0  0  0
   -7.7090    1.7810    0.4480 O   0  0  0  0  0  0  0  0  0  0  0  0
   -8.3920    3.0390    0.4270 C   0  0  0  0  0  0  0  0  0  0  0  0
   -9.5900    3.0980    1.3050 C   0  0  0  0  0  0  0  0  0  0  0  0
   -9.5930    2.1140    2.4160 C   0  0  0  0  0  0  0  0  0  0  0  0
   -3.1380   -0.2680   -0.7840 C   0  0  0  0  0  0  0  0  0  0  0  0
   -4.0970   -1.1550   -1.2120 C   0  0  0  0  0  0  0  0  0  0  0  0
   -4.4470   -1.1800   -2.5640 C   0  0  0  0  0  0  0  0  0  0  0  0
   -3.8180   -0.3140   -3.4170 C   0  0  0  0  0  0  0  0  0  0  0  0
   -4.1370   -0.3320   -4.8680 C   0  0  0  0  0  0  0  0  0  0  0  0
   -4.3560   -0.3570   -5.9350 N   0  0  0  0  0  0  0  0  0  0  0  0
   -2.8750    0.5630   -3.0020 C   0  0  0  0  0  0  0  0  0  0  0  0
   -2.5090    0.6060   -1.6620 C   0  0  0  0  0  0  0  0  0  0  0  0
    6.2680    0.7760   -0.4580 C   0  0  0  0  0  0  0  0  0  0  0  0
    7.2810   -0.2230   -0.1780 C   0  0  0  0  0  0  0  0  0  0  0  0
    8.0810   -0.8130   -1.1170 C   0  0  0  0  0  0  0  0  0  0  0  0
    9.0480   -1.7540   -0.7960 C   0  0  0  0  0  0  0  0  0  0  0  0
    9.2080   -2.1070    0.5340 C   0  0  0  0  0  0  0  0  0  0  0  0
    8.4180   -1.5320    1.5030 C   0  0  0  0  0  0  0  0  0  0  0  0
    7.4750   -0.6090    1.1520 C   0  0  0  0  0  0  0  0  0  0  0  0
  1  2  1  0
  2  3  2  0
  2 40  1  0
  3  4  1  0
  4  5  2  0
  5  6  1  0
  6  7  1  0
  6 40  2  0
  7  8  2  0
  7  9  1  0
  9 10  1  0
 10 11  1  6
 10 12  1  0
 12 13  2  0
 12 14  1  0
 14 15  1  0
 15 16  1  0
 16 17  1  6
 16 18  1  0
 18 19  1  0
 19 20  1  0
 19 32  1  0
 20 21  2  0
 20 22  1  0
 22 23  1  0
 23 24  2  0
 23 27  1  0
 24 25  1  0
 25 26  1  0
 26 27  2  0
 26 31  1  0
 27 28  1  0
 28 29  1  0
 29 30  1  0
 30 31  1  0
 32 33  2  0
 32 39  1  0
 33 34  1  0
 34 35  2  0
 35 36  1  0
 35 38  1  0
 36 37  3  0
 38 39  2  0
 40 41  1  0
 41 42  2  0
 41 46  1  0
 42 43  1  0
 43 44  2  0
 44 45  1  0
 45 46  2  0
M  END
