
     RDKit          3D

 15 16  0  0  0  0  0  0  0  0999 V2000
    3.2140   -2.5100   -0.0820 C   0  0  0  0  0  0  0  0  0  0  0  0
    2.3600   -1.3190   -0.0160 N   0  0  0  0  0  0  0  0  0  0  0  0
    1.0570   -1.2240    0.0480 N   0  0  0  0  0  0  0  0  0  0  0  0
    0.6630    0.0840    0.0780 C   0  0  0  0  0  0  0  0  0  0  0  0
   -0.7140    0.6280    0.1860 C   0  0  1  0  0  0  0  0  0  0  0  0
   -0.8110    1.6910    1.2680 C   0  0  0  0  0  0  0  0  0  0  0  0
   -1.0290    1.2150   -1.1830 C   0  0  0  0  0  0  0  0  0  0  0  0
   -1.6900   -0.3940    0.5040 N   0  0  0  0  0  0  0  0  0  0  0  0
   -1.6600   -1.5870   -0.2770 C   0  0  0  0  0  0  0  0  0  0  0  0
   -3.1660   -1.6220   -0.1990 C   0  0  0  0  0  0  0  0  0  0  0  0
   -3.0370   -0.1430    0.0940 C   0  0  0  0  0  0  0  0  0  0  0  0
    1.7790    0.8010    0.0310 N   0  0  0  0  0  0  0  0  0  0  0  0
    1.9640    2.2560    0.0710 C   0  0  0  0  0  0  0  0  0  0  0  0
    2.8210   -0.0510   -0.0290 C   0  0  0  0  0  0  0  0  0  0  0  0
    4.0520    0.2490   -0.0840 O   0  0  0  0  0  0  0  0  0  0  0  0
  1  2  1  0
  2  3  1  0
  2 14  1  0
  3  4  2  0
  4  5  1  0
  4 12  1  0
  5  6  1  1
  5  7  1  0
  5  8  1  0
  8  9  1  0
  8 11  1  0
  9 10  1  0
 10 11  1  0
 12 13  1  0
 12 14  1  0
 14 15  2  0
M  END
