
     RDKit          3D

 11 11  0  0  0  0  0  0  0  0999 V2000
    3.1080   -0.2410    0.3170 O   0  0  0  0  0  0  0  0  0  0  0  0
    1.9210    0.4060    0.0310 C   0  0  0  0  0  0  0  0  0  0  0  0
    0.7310   -0.3570    0.5640 C   0  0  2  0  0  0  0  0  0  0  0  0
    0.6270   -1.7330   -0.0180 C   0  0  0  0  0  0  0  0  0  0  0  0
   -0.5920   -1.8130   -0.6770 O   0  0  0  0  0  0  0  0  0  0  0  0
   -1.4510   -0.9690    0.0520 C   0  0  2  0  0  0  0  0  0  0  0  0
   -2.6260   -0.7280   -0.6030 O   0  0  0  0  0  0  0  0  0  0  0  0
   -0.5640    0.2790    0.1250 C   0  0  2  0  0  0  0  0  0  0  0  0
   -0.3870    0.8470   -1.1050 O   0  0  0  0  0  0  0  0  0  0  0  0
   -1.1440    1.1970    1.1610 C   0  0  0  0  0  0  0  0  0  0  0  0
   -0.3690    2.3030    1.3980 O   0  0  0  0  0  0  0  0  0  0  0  0
  1  2  1  0
  3  2  1  6
  3  4  1  0
  3  8  1  0
  4  5  1  0
  5  6  1  0
  6  7  1  6
  6  8  1  0
  8  9  1  6
  8 10  1  0
 10 11  1  0
M  END
