
     RDKit          3D

 11 11  0  0  0  0  0  0  0  0999 V2000
    3.1560   -0.7520    0.1310 O   0  0  0  0  0  0  0  0  0  0  0  0
    1.7800   -0.7530    0.3980 C   0  0  0  0  0  0  0  0  0  0  0  0
    1.1500    0.2970   -0.4420 C   0  0  1  0  0  0  0  0  0  0  0  0
    1.4030   -0.0190   -1.7860 O   0  0  0  0  0  0  0  0  0  0  0  0
   -0.3280    0.4190   -0.2890 C   0  0  2  0  0  0  0  0  0  0  0  0
   -0.8850    1.4000   -1.0870 O   0  0  0  0  0  0  0  0  0  0  0  0
   -0.7580    0.7080    1.1380 C   0  0  0  0  0  0  0  0  0  0  0  0
   -2.2240    0.3500    1.0020 C   0  0  0  0  0  0  0  0  0  0  0  0
   -2.3540   -0.5270   -0.0350 O   0  0  0  0  0  0  0  0  0  0  0  0
   -1.0840   -0.8520   -0.5040 C   0  0  1  0  0  0  0  0  0  0  0  0
   -1.0990   -1.2700   -1.8220 O   0  0  0  0  0  0  0  0  0  0  0  0
  1  2  1  0
  2  3  1  0
  3  4  1  6
  3  5  1  0
  5  6  1  6
  5  7  1  0
  5 10  1  0
  7  8  1  0
  8  9  1  0
  9 10  1  0
 10 11  1  6
M  END
