
     RDKit          3D

 11 11  0  0  0  0  0  0  0  0999 V2000
   -2.7920   -0.4860    0.2620 O   0  0  0  0  0  0  0  0  0  0  0  0
   -1.5760   -0.5100    0.9560 C   0  0  0  0  0  0  0  0  0  0  0  0
   -0.4570   -0.5450   -0.0690 C   0  0  2  0  0  0  0  0  0  0  0  0
   -0.5930   -1.6900   -0.8530 O   0  0  0  0  0  0  0  0  0  0  0  0
    0.8840   -0.6670    0.6420 C   0  0  0  0  0  0  0  0  0  0  0  0
    1.9300   -0.1300   -0.3080 C   0  0  2  0  0  0  0  0  0  0  0  0
    3.1630   -0.5890    0.1150 O   0  0  0  0  0  0  0  0  0  0  0  0
    1.8550    1.2590   -0.2890 O   0  0  0  0  0  0  0  0  0  0  0  0
    0.5620    1.7170   -0.3100 C   0  0  0  0  0  0  0  0  0  0  0  0
   -0.4200    0.7080   -0.8850 C   0  0  2  0  0  0  0  0  0  0  0  0
   -1.6760    1.3190   -0.8620 O   0  0  0  0  0  0  0  0  0  0  0  0
  1  2  1  0
  2  3  1  0
  3  4  1  6
  3  5  1  0
  3 10  1  0
  5  6  1  0
  6  7  1  1
  6  8  1  0
  8  9  1  0
  9 10  1  0
 10 11  1  1
M  END
