
     RDKit          3D

 15 16  0  0  0  0  0  0  0  0999 V2000
   -3.4070    0.5180    0.6300 C   0  0  0  0  0  0  0  0  0  0  0  0
   -1.9390    0.6600    0.3680 C   0  0  0  0  0  0  0  0  0  0  0  0
   -1.1250   -0.3820    0.4170 C   0  0  0  0  0  0  0  0  0  0  0  0
   -1.6460   -1.6950    0.7300 C   0  0  0  0  0  0  0  0  0  0  0  0
    0.2500   -0.1810    0.1600 N   0  0  0  0  0  0  0  0  0  0  0  0
    1.1400   -1.2820    0.1960 C   0  0  0  0  0  0  0  0  0  0  0  0
    2.5330   -0.8300    0.5580 C   0  0  0  0  0  0  0  0  0  0  0  0
    2.8930    0.3060   -0.3260 C   0  0  0  0  0  0  0  0  0  0  0  0
    3.9720    0.2970   -0.9990 O   0  0  0  0  0  0  0  0  0  0  0  0
    1.9610    1.4220   -0.3830 C   0  0  0  0  0  0  0  0  0  0  0  0
    2.4670    2.7220   -0.7010 C   0  0  0  0  0  0  0  0  0  0  0  0
    2.8620    3.7890   -0.9600 N   0  0  0  0  0  0  0  0  0  0  0  0
    0.6870    1.1560   -0.1430 C   0  0  0  0  0  0  0  0  0  0  0  0
   -0.2500    2.2240   -0.1770 N   0  0  0  0  0  0  0  0  0  0  0  0
   -1.4720    1.9790    0.0630 N   0  0  0  0  0  0  0  0  0  0  0  0
  1  2  1  0
  2  3  2  0
  2 15  1  0
  3  4  1  0
  3  5  1  0
  5  6  1  0
  5 13  1  0
  6  7  1  0
  7  8  1  0
  8  9  2  0
  8 10  1  0
 10 11  1  0
 10 13  2  0
 11 12  3  0
 13 14  1  0
 14 15  2  0
M  END
