
     RDKit          3D

 11 11  0  0  0  0  0  0  0  0999 V2000
   -2.4910    0.8980   -0.7200 O   0  0  0  0  0  0  0  0  0  0  0  0
   -1.4840   -0.0380   -0.8420 C   0  0  0  0  0  0  0  0  0  0  0  0
   -0.6000   -0.0760    0.4110 C   0  0  1  0  0  0  0  0  0  0  0  0
   -1.4870   -0.4180    1.4620 O   0  0  0  0  0  0  0  0  0  0  0  0
    0.4050   -1.1550    0.3240 C   0  0  1  0  0  0  0  0  0  0  0  0
    0.0010   -2.0520   -0.6940 O   0  0  0  0  0  0  0  0  0  0  0  0
    1.8010   -0.7490    0.0280 C   0  0  0  0  0  0  0  0  0  0  0  0
    2.0020    0.7280   -0.1200 C   0  0  0  0  0  0  0  0  0  0  0  0
    1.2820    1.3740    0.8470 O   0  0  0  0  0  0  0  0  0  0  0  0
   -0.0900    1.2870    0.6900 C   0  0  1  0  0  0  0  0  0  0  0  0
   -0.4790    2.2150   -0.3050 O   0  0  0  0  0  0  0  0  0  0  0  0
  1  2  1  0
  2  3  1  0
  3  4  1  1
  3  5  1  0
  3 10  1  0
  5  6  1  6
  5  7  1  0
  7  8  1  0
  8  9  1  0
  9 10  1  0
 10 11  1  6
M  END
