
     RDKit          3D

 11 11  0  0  0  0  0  0  0  0999 V2000
    2.8200   -0.8970    0.1520 O   0  0  0  0  0  0  0  0  0  0  0  0
    2.0120    0.1100    0.6620 C   0  0  0  0  0  0  0  0  0  0  0  0
    0.7050    0.1210   -0.0950 C   0  0  1  0  0  0  0  0  0  0  0  0
    0.8730    0.3500   -1.4510 O   0  0  0  0  0  0  0  0  0  0  0  0
   -0.0410   -1.1880    0.0460 C   0  0  0  0  0  0  0  0  0  0  0  0
   -1.3630   -0.9760   -0.7060 C   0  0  1  0  0  0  0  0  0  0  0  0
   -2.0740   -2.1630   -0.7310 O   0  0  0  0  0  0  0  0  0  0  0  0
   -2.1030    0.1560   -0.0700 C   0  0  0  0  0  0  0  0  0  0  0  0
   -1.3630    0.6840    1.0120 O   0  0  0  0  0  0  0  0  0  0  0  0
   -0.2010    1.2200    0.4350 C   0  0  1  0  0  0  0  0  0  0  0  0
    0.4620    1.9370    1.4530 O   0  0  0  0  0  0  0  0  0  0  0  0
  1  2  1  0
  2  3  1  0
  3  4  1  6
  3  5  1  0
  3 10  1  0
  5  6  1  0
  6  7  1  1
  6  8  1  0
  8  9  1  0
  9 10  1  0
 10 11  1  1
M  END
