
     RDKit          3D

 22 22  0  0  0  0  0  0  0  0999 V2000
   -3.5110    1.9480    1.6820 C   0  0  0  0  0  0  0  0  0  0  0  0
   -2.4360    1.3470    0.8240 C   0  0  0  0  0  0  0  0  0  0  0  0
   -2.7350    0.5470   -0.2110 C   0  0  0  0  0  0  0  0  0  0  0  0
   -4.1670    0.3800   -0.3390 N   0  0  0  0  0  0  0  0  0  0  0  0
   -1.7660   -0.0630   -1.0880 C   0  0  0  0  0  0  0  0  0  0  0  0
   -0.3450    0.1990   -0.9130 C   0  0  0  0  0  0  0  0  0  0  0  0
    0.5470   -0.3100   -1.6760 O   0  0  0  0  0  0  0  0  0  0  0  0
    0.2080    1.0070    0.0690 O   0  0  0  0  0  0  0  0  0  0  0  0
    1.6010    1.2080    0.1680 C   0  0  2  0  0  0  0  0  0  0  0  0
    2.0830    0.7740    1.5620 C   0  0  0  0  0  0  0  0  0  0  0  0
    3.4490    1.0060    1.5630 O   0  0  0  0  0  0  0  0  0  0  0  0
    4.0950    0.7000    2.7320 C   0  0  0  0  0  0  0  0  0  0  0  0
    3.9120   -0.7670    3.0330 C   0  0  0  0  0  0  0  0  0  0  0  0
    4.4980   -1.5490    1.8680 C   0  0  0  0  0  0  0  0  0  0  0  0
    1.8680    2.6560    0.0570 C   0  0  0  0  0  0  0  0  0  0  0  0
    3.1950    3.1660    0.1210 N   0  0  0  0  0  0  0  0  0  0  0  0
    0.9470    3.4910   -0.0970 O   0  0  0  0  0  0  0  0  0  0  0  0
   -2.1740   -0.8470   -2.0850 C   0  0  0  0  0  0  0  0  0  0  0  0
   -3.5120   -1.2690   -2.5390 C   0  0  0  0  0  0  0  0  0  0  0  0
   -3.3030   -2.8050   -2.5480 C   0  0  0  0  0  0  0  0  0  0  0  0
   -1.9230   -2.9590   -3.1060 C   0  0  0  0  0  0  0  0  0  0  0  0
   -1.2740   -1.5610   -3.0670 C   0  0  0  0  0  0  0  0  0  0  0  0
  1  2  1  0
  2  3  2  3
  3  4  1  0
  3  5  1  0
  5  6  1  0
  5 18  2  3
  6  7  2  0
  6  8  1  0
  8  9  1  0
  9 10  1  1
  9 15  1  0
 10 11  1  0
 11 12  1  0
 12 13  1  0
 13 14  1  0
 15 16  1  0
 15 17  2  0
 18 19  1  0
 18 22  1  0
 19 20  1  0
 20 21  1  0
 21 22  1  0
M  END
