
     RDKit          3D

 11 11  0  0  0  0  0  0  0  0999 V2000
    2.1750   -1.8290   -0.4840 O   0  0  0  0  0  0  0  0  0  0  0  0
    2.2150   -0.5820   -0.2100 C   0  0  0  0  0  0  0  0  0  0  0  0
    3.5140    0.1300   -0.1320 C   0  0  0  0  0  0  0  0  0  0  0  0
    4.5360   -0.7680   -0.3930 O   0  0  0  0  0  0  0  0  0  0  0  0
    0.9960    0.0290   -0.0010 O   0  0  0  0  0  0  0  0  0  0  0  0
   -0.2490   -0.6430   -0.0740 C   0  0  1  0  0  0  0  0  0  0  0  0
   -0.8430   -0.6570    1.2970 C   0  0  0  0  0  0  0  0  0  0  0  0
   -1.5690    0.5810    1.6790 C   0  0  0  0  0  0  0  0  0  0  0  0
   -1.9140    1.4740    0.5080 C   0  0  0  0  0  0  0  0  0  0  0  0
   -2.3840    0.5400   -0.6070 C   0  0  0  0  0  0  0  0  0  0  0  0
   -1.1430   -0.1380   -1.1430 C   0  0  0  0  0  0  0  0  0  0  0  0
  1  2  2  0
  2  3  1  0
  2  5  1  0
  3  4  1  0
  6  5  1  1
  6  7  1  0
  6 11  1  0
  7  8  1  0
  8  9  1  0
  9 10  1  0
 10 11  1  0
M  END
