
     RDKit          3D

 22 22  0  0  0  0  0  0  0  0999 V2000
   -5.4240   -0.2130   -1.1550 C   0  0  0  0  0  0  0  0  0  0  0  0
   -3.9790   -0.5920   -0.8970 C   0  0  0  0  0  0  0  0  0  0  0  0
   -3.6580   -0.5740    0.5590 C   0  0  2  0  0  0  0  0  0  0  0  0
   -4.6010   -1.5960    1.2160 C   0  0  0  0  0  0  0  0  0  0  0  0
   -4.0180    0.7820    1.1220 C   0  0  0  0  0  0  0  0  0  0  0  0
   -2.2770   -1.0010    0.9060 C   0  0  0  0  0  0  0  0  0  0  0  0
   -1.2270   -0.1510    0.3050 C   0  0  0  0  0  0  0  0  0  0  0  0
   -1.5580    0.8450   -0.3770 O   0  0  0  0  0  0  0  0  0  0  0  0
    0.1650   -0.4240    0.4750 N   0  0  0  0  0  0  0  0  0  0  0  0
    1.1260    0.4460   -0.1390 C   0  0  1  0  0  0  0  0  0  0  0  0
    2.2310    0.9430    0.7600 C   0  0  2  0  0  0  0  0  0  0  0  0
    1.9970    2.2860    1.3810 C   0  0  0  0  0  0  0  0  0  0  0  0
    1.8170    3.3980    0.4150 C   0  0  0  0  0  0  0  0  0  0  0  0
    1.5990    4.6200    1.2080 N   0  0  0  0  0  0  0  0  0  0  0  0
    3.0960    0.9300   -0.4780 C   0  0  1  0  0  0  0  0  0  0  0  0
    4.4260    0.6400   -0.2640 O   0  0  0  0  0  0  0  0  0  0  0  0
    2.2180   -0.2180   -0.9400 C   0  0  1  0  0  0  0  0  0  0  0  0
    2.7540   -1.5180   -0.4160 C   0  0  0  0  0  0  0  0  0  0  0  0
    3.8290   -2.0240   -1.3720 C   0  0  0  0  0  0  0  0  0  0  0  0
    4.3860   -3.3200   -0.8820 C   0  0  0  0  0  0  0  0  0  0  0  0
    3.9440   -3.8020    0.1680 O   0  0  0  0  0  0  0  0  0  0  0  0
    5.3760   -3.9210   -1.6330 O   0  0  0  0  0  0  0  0  0  0  0  0
  1  2  1  0
  2  3  1  0
  3  4  1  1
  3  5  1  0
  3  6  1  0
  6  7  1  0
  7  8  2  0
  7  9  1  0
 10  9  1  1
 10 11  1  0
 10 17  1  0
 11 12  1  6
 11 15  1  0
 12 13  1  0
 13 14  1  0
 15 16  1  1
 15 17  1  0
 17 18  1  1
 18 19  1  0
 19 20  1  0
 20 21  2  0
 20 22  1  0
M  END
