
     RDKit          3D

 22 22  0  0  0  0  0  0  0  0999 V2000
   -1.4080   -3.2010   -2.3160 C   0  0  0  0  0  0  0  0  0  0  0  0
   -0.7230   -1.9230   -2.6660 C   0  0  0  0  0  0  0  0  0  0  0  0
   -0.8110   -0.8390   -1.6950 C   0  0  0  0  0  0  0  0  0  0  0  0
   -0.2590   -0.8440   -0.3590 C   0  0  2  0  0  0  0  0  0  0  0  0
   -0.4480    0.4000    0.4250 C   0  0  0  0  0  0  0  0  0  0  0  0
   -1.7060    0.9750    0.8390 C   0  0  0  0  0  0  0  0  0  0  0  0
   -2.7530    1.4080   -0.1220 C   0  0  0  0  0  0  0  0  0  0  0  0
   -3.9340    2.0700    0.6750 C   0  0  0  0  0  0  0  0  0  0  0  0
   -4.8520    2.4370   -0.3080 O   0  0  0  0  0  0  0  0  0  0  0  0
    1.2860   -0.9230   -0.5850 C   0  0  0  0  0  0  0  0  0  0  0  0
    1.8740   -0.5410    0.6670 N   0  0  0  0  0  0  0  0  0  0  0  0
    2.6030    0.6460    0.9200 C   0  0  0  0  0  0  0  0  0  0  0  0
    3.0690    0.8650    2.0720 O   0  0  0  0  0  0  0  0  0  0  0  0
    2.8680    1.6510   -0.0450 N   0  0  0  0  0  0  0  0  0  0  0  0
    3.6380    2.8570    0.3120 C   0  0  0  0  0  0  0  0  0  0  0  0
    3.7550    3.7350   -0.9130 C   0  0  0  0  0  0  0  0  0  0  0  0
    4.4080    3.0540   -1.9380 O   0  0  0  0  0  0  0  0  0  0  0  0
    1.6890   -1.4970    1.7580 C   0  0  0  0  0  0  0  0  0  0  0  0
    0.2480   -1.7780    1.9210 C   0  0  0  0  0  0  0  0  0  0  0  0
   -0.5080   -1.9840    0.5890 C   0  0  1  0  0  0  0  0  0  0  0  0
   -1.9640   -2.1010    1.0210 C   0  0  0  0  0  0  0  0  0  0  0  0
   -0.0950   -3.2200    0.1880 O   0  0  0  0  0  0  0  0  0  0  0  0
  1  2  1  0
  2  3  1  0
  4  3  1  6
  4  5  1  0
  4 10  1  0
  4 20  1  0
  5  6  1  0
  6  7  1  0
  7  8  1  0
  8  9  1  0
 10 11  1  0
 11 12  1  0
 11 18  1  0
 12 13  2  0
 12 14  1  0
 14 15  1  0
 15 16  1  0
 16 17  1  0
 18 19  1  0
 19 20  1  0
 20 21  1  1
 20 22  1  0
M  END
