
     RDKit          3D

 19 21  0  0  0  0  0  0  0  0999 V2000
    5.3240    0.4550   -0.7330 N   0  0  0  0  0  0  0  0  0  0  0  0
    4.1320    0.0290   -0.0910 C   0  0  0  0  0  0  0  0  0  0  0  0
    4.1020   -0.6200    1.0850 N   0  0  0  0  0  0  0  0  0  0  0  0
    2.9400   -1.0120    1.6690 C   0  0  0  0  0  0  0  0  0  0  0  0
    1.7720   -0.7480    1.0600 N   0  0  0  0  0  0  0  0  0  0  0  0
    1.7520   -0.1080   -0.1080 C   0  0  0  0  0  0  0  0  0  0  0  0
    2.9330    0.2970   -0.7120 C   0  0  0  0  0  0  0  0  0  0  0  0
    2.6070    0.9060   -1.8560 N   0  0  0  0  0  0  0  0  0  0  0  0
    1.2630    0.9020   -1.9990 C   0  0  0  0  0  0  0  0  0  0  0  0
    0.7530    0.2670   -0.9010 N   0  0  0  0  0  0  0  0  0  0  0  0
   -0.6610    0.0860   -0.7300 C   0  0  2  0  0  0  0  0  0  0  0  0
   -1.2870    1.1800   -0.1210 O   0  0  0  0  0  0  0  0  0  0  0  0
   -2.5990    0.7210   -0.0360 C   0  0  2  0  0  0  0  0  0  0  0  0
   -3.4200    1.5470    0.9300 C   0  0  0  0  0  0  0  0  0  0  0  0
   -4.7250    1.0800    1.0050 O   0  0  0  0  0  0  0  0  0  0  0  0
   -2.5430   -0.7280    0.3860 C   0  0  1  0  0  0  0  0  0  0  0  0
   -3.2210   -1.5250   -0.5420 O   0  0  0  0  0  0  0  0  0  0  0  0
   -1.0520   -1.0340    0.1760 C   0  0  1  0  0  0  0  0  0  0  0  0
   -0.8880   -2.2940   -0.3850 O   0  0  0  0  0  0  0  0  0  0  0  0
  1  2  1  0
  2  3  2  0
  2  7  1  0
  3  4  1  0
  4  5  2  0
  5  6  1  0
  6  7  2  0
  6 10  1  0
  7  8  1  0
  8  9  2  0
  9 10  1  0
 11 10  1  1
 11 12  1  0
 11 18  1  0
 12 13  1  0
 13 14  1  1
 13 16  1  0
 14 15  1  0
 16 17  1  6
 16 18  1  0
 18 19  1  6
M  END
