
     RDKit          3D

 19 20  0  0  0  0  0  0  0  0999 V2000
    4.1590    0.4670   -1.7150 N   0  0  0  0  0  0  0  0  0  0  0  0
    4.1600    0.3980   -0.2610 C   0  0  1  0  0  0  0  0  0  0  0  0
    2.8480    0.8650    0.2440 C   0  0  0  0  0  0  0  0  0  0  0  0
    2.0700    0.2350    1.0910 C   0  0  0  0  0  0  0  0  0  0  0  0
    0.8030    0.8120    1.5050 C   0  0  0  0  0  0  0  0  0  0  0  0
   -0.3620    0.0610    1.2490 N   0  0  0  0  0  0  0  0  0  0  0  0
   -0.8440   -0.3830   -0.0050 C   0  0  0  0  0  0  0  0  0  0  0  0
   -0.1490   -0.0600   -1.0040 O   0  0  0  0  0  0  0  0  0  0  0  0
   -2.0880   -1.1760   -0.0850 C   0  0  0  0  0  0  0  0  0  0  0  0
   -3.2600   -0.4310   -0.4280 N   0  0  0  0  0  0  0  0  0  0  0  0
   -3.7030   -0.2630   -1.6620 N   0  0  0  0  0  0  0  0  0  0  0  0
   -4.8240    0.4600   -1.6680 C   0  0  0  0  0  0  0  0  0  0  0  0
   -5.4820    0.7850   -2.7110 O   0  0  0  0  0  0  0  0  0  0  0  0
   -5.1180    0.7710   -0.3900 N   0  0  0  0  0  0  0  0  0  0  0  0
   -4.1520    0.2210    0.3640 C   0  0  0  0  0  0  0  0  0  0  0  0
   -4.0890    0.3010    1.6230 O   0  0  0  0  0  0  0  0  0  0  0  0
    2.5210   -1.0600    1.5810 C   0  0  0  0  0  0  0  0  0  0  0  0
    3.6860   -1.5140    1.1390 C   0  0  0  0  0  0  0  0  0  0  0  0
    4.4860   -0.8360    0.2500 O   0  0  0  0  0  0  0  0  0  0  0  0
  2  1  1  6
  2  3  1  0
  2 19  1  0
  3  4  2  0
  4  5  1  0
  4 17  1  0
  5  6  1  0
  6  7  1  0
  7  8  2  0
  7  9  1  0
  9 10  1  0
 10 11  1  0
 10 15  1  0
 11 12  1  0
 12 13  2  0
 12 14  1  0
 14 15  1  0
 15 16  2  0
 17 18  2  0
 18 19  1  0
M  END
