
     RDKit          3D

 11 11  0  0  0  0  0  0  0  0999 V2000
   -2.1380    1.2840    0.1490 C   0  0  0  0  0  0  0  0  0  0  0  0
   -2.1070    0.0680   -0.3530 C   0  0  0  0  0  0  0  0  0  0  0  0
   -3.2250   -0.4630   -1.2190 C   0  0  0  0  0  0  0  0  0  0  0  0
   -0.9940   -0.8570   -0.0910 C   0  0  0  0  0  0  0  0  0  0  0  0
    0.0330   -0.3520    0.7780 N   0  0  0  0  0  0  0  0  0  0  0  0
   -0.2580   -0.1590    2.1830 C   0  0  0  0  0  0  0  0  0  0  0  0
    1.3300   -0.0360    0.2770 C   0  0  0  0  0  0  0  0  0  0  0  0
    2.4830   -0.4010    0.7480 N   0  0  0  0  0  0  0  0  0  0  0  0
    3.5640    0.1300   -0.0480 C   0  0  0  0  0  0  0  0  0  0  0  0
    2.8660    0.4560   -1.3340 C   0  0  0  0  0  0  0  0  0  0  0  0
    1.5490    0.7640   -0.8650 O   0  0  0  0  0  0  0  0  0  0  0  0
  1  2  2  0
  2  3  1  0
  2  4  1  0
  4  5  1  0
  5  6  1  0
  5  7  1  0
  7  8  2  0
  7 11  1  0
  8  9  1  0
  9 10  1  0
 10 11  1  0
M  END
