
     RDKit          3D

 37 41  0  0  0  0  0  0  0  0999 V2000
   -1.6590    2.9070   -2.2420 C   0  0  0  0  0  0  0  0  0  0  0  0
   -1.9480    1.5440   -1.7900 N   0  0  0  0  0  0  0  0  0  0  0  0
   -1.4560    1.2630   -0.4690 C   0  0  1  0  0  0  0  0  0  0  0  0
   -2.5080    1.0820    0.5260 C   0  0  0  0  0  0  0  0  0  0  0  0
   -2.4620    1.2700    1.8470 N   0  0  0  0  0  0  0  0  0  0  0  0
   -3.6550    0.9950    2.4000 N   0  0  0  0  0  0  0  0  0  0  0  0
   -4.4460    0.6310    1.3930 C   0  0  0  0  0  0  0  0  0  0  0  0
   -5.8890    0.2220    1.4780 C   0  0  2  0  0  0  0  0  0  0  0  0
   -6.0480   -1.1760    0.8890 C   0  0  0  0  0  0  0  0  0  0  0  0
   -5.9040   -0.9510   -0.6030 C   0  0  0  0  0  0  0  0  0  0  0  0
   -6.3040    0.4780   -0.8340 C   0  0  0  0  0  0  0  0  0  0  0  0
   -6.7060    1.0410    0.5070 C   0  0  0  0  0  0  0  0  0  0  0  0
   -3.7620    0.6870    0.3020 O   0  0  0  0  0  0  0  0  0  0  0  0
   -0.3730    0.2670   -0.4650 C   0  0  0  0  0  0  0  0  0  0  0  0
    0.9610    0.5080   -0.8240 C   0  0  0  0  0  0  0  0  0  0  0  0
    1.4640    1.7970   -1.2960 C   0  0  0  0  0  0  0  0  0  0  0  0
    1.7010   -0.5880   -0.6860 N   0  0  0  0  0  0  0  0  0  0  0  0
    3.1310   -0.7510   -0.9610 C   0  0  0  0  0  0  0  0  0  0  0  0
    3.9710   -0.4720    0.2160 C   0  0  0  0  0  0  0  0  0  0  0  0
    3.6440   -1.0570    1.2790 O   0  0  0  0  0  0  0  0  0  0  0  0
    5.0550    0.4150    0.0490 N   0  0  0  0  0  0  0  0  0  0  0  0
    5.4800    1.2020   -1.0890 C   0  0  0  0  0  0  0  0  0  0  0  0
    5.5870    2.5700   -0.3910 C   0  0  0  0  0  0  0  0  0  0  0  0
    6.2480    2.1990    0.9010 C   0  0  1  0  0  0  0  0  0  0  0  0
    7.6280    2.3890    0.6860 F   0  0  0  0  0  0  0  0  0  0  0  0
    5.7970    2.8540    2.0010 F   0  0  0  0  0  0  0  0  0  0  0  0
    6.0360    0.7060    1.0660 C   0  0  0  0  0  0  0  0  0  0  0  0
    6.6570   -0.0560    1.9000 C   0  0  0  0  0  0  0  0  0  0  0  0
    6.6090   -1.4920    2.1290 C   0  0  0  0  0  0  0  0  0  0  0  0
    7.9140   -2.0300    1.9490 F   0  0  0  0  0  0  0  0  0  0  0  0
    0.8840   -1.5510   -0.2430 C   0  0  0  0  0  0  0  0  0  0  0  0
    1.0800   -2.8950    0.0910 C   0  0  0  0  0  0  0  0  0  0  0  0
    0.0660   -3.7010    0.5440 C   0  0  0  0  0  0  0  0  0  0  0  0
   -1.2060   -3.2020    0.6860 C   0  0  0  0  0  0  0  0  0  0  0  0
   -2.3180   -4.0850    1.1800 C   0  0  0  0  0  0  0  0  0  0  0  0
   -1.4260   -1.8840    0.3630 C   0  0  0  0  0  0  0  0  0  0  0  0
   -0.4090   -1.0690   -0.0920 C   0  0  0  0  0  0  0  0  0  0  0  0
  1  2  1  0
  3  2  1  6
  3  4  1  0
  3 14  1  0
  4  5  2  0
  4 13  1  0
  5  6  1  0
  6  7  2  0
  8  7  1  6
  7 13  1  0
  8  9  1  0
  8 12  1  0
  9 10  1  0
 10 11  1  0
 11 12  1  0
 14 15  2  0
 14 37  1  0
 15 16  1  0
 15 17  1  0
 17 18  1  0
 17 31  1  0
 18 19  1  0
 19 20  2  0
 19 21  1  0
 21 22  1  0
 21 27  1  0
 22 23  1  0
 23 24  1  0
 24 25  1  6
 24 26  1  0
 24 27  1  0
 27 28  2  3
 28 29  1  0
 29 30  1  0
 31 32  2  0
 31 37  1  0
 32 33  1  0
 33 34  2  0
 34 35  1  0
 34 36  1  0
 36 37  2  0
M  CHG  1   2   1
M  END
