
     RDKit          3D

 37 41  0  0  0  0  0  0  0  0999 V2000
    8.3440   -0.7520    1.2520 C   0  0  0  0  0  0  0  0  0  0  0  0
    7.1720    0.0490    0.7990 C   0  0  0  0  0  0  0  0  0  0  0  0
    7.3650    1.3910    0.6280 C   0  0  0  0  0  0  0  0  0  0  0  0
    6.2950    2.1390    0.2160 C   0  0  0  0  0  0  0  0  0  0  0  0
    5.0380    1.5380   -0.0220 C   0  0  0  0  0  0  0  0  0  0  0  0
    4.1180    2.4100   -0.4510 F   0  0  0  0  0  0  0  0  0  0  0  0
    4.8270    0.2170    0.1420 C   0  0  0  0  0  0  0  0  0  0  0  0
    3.5860   -0.5110    0.0060 C   0  0  0  0  0  0  0  0  0  0  0  0
    3.5380   -1.8570   -0.0420 O   0  0  0  0  0  0  0  0  0  0  0  0
    2.3450   -2.2980   -0.1550 C   0  0  0  0  0  0  0  0  0  0  0  0
    1.9330   -3.7470   -0.2370 C   0  0  2  0  0  0  0  0  0  0  0  0
    1.1460   -3.9810   -1.3230 F   0  0  0  0  0  0  0  0  0  0  0  0
    1.2210   -3.9970    0.9400 F   0  0  0  0  0  0  0  0  0  0  0  0
    1.5410   -1.2350   -0.1880 N   0  0  0  0  0  0  0  0  0  0  0  0
    2.2990   -0.0930   -0.0880 C   0  0  0  0  0  0  0  0  0  0  0  0
    1.7130    1.2590   -0.1060 C   0  0  0  0  0  0  0  0  0  0  0  0
    0.2260    1.1100   -0.1480 N   0  0  0  0  0  0  0  0  0  0  0  0
   -0.5330    2.2840   -0.1620 C   0  0  0  0  0  0  0  0  0  0  0  0
    0.0800    3.3940   -0.1360 O   0  0  0  0  0  0  0  0  0  0  0  0
   -1.9880    2.3740   -0.2040 C   0  0  0  0  0  0  0  0  0  0  0  0
   -2.7720    1.2070   -0.2150 N   0  0  0  0  0  0  0  0  0  0  0  0
   -3.0950    0.5820    1.0270 C   0  0  0  0  0  0  0  0  0  0  0  0
   -2.2700    0.9710    2.0370 C   0  0  0  0  0  0  0  0  0  0  0  0
   -2.4170    0.4680    3.3120 C   0  0  0  0  0  0  0  0  0  0  0  0
   -3.4050   -0.4440    3.6100 C   0  0  0  0  0  0  0  0  0  0  0  0
   -4.2510   -0.8460    2.5950 C   0  0  0  0  0  0  0  0  0  0  0  0
   -4.1070   -0.3470    1.3200 C   0  0  0  0  0  0  0  0  0  0  0  0
   -5.0760   -0.8320    0.4070 N   0  0  0  0  0  0  0  0  0  0  0  0
   -6.2720   -1.4100    1.0580 C   0  0  0  0  0  0  0  0  0  0  0  0
   -5.1750   -0.8860   -1.0060 C   0  0  0  0  0  0  0  0  0  0  0  0
   -4.1970   -0.2030   -1.8110 C   0  0  0  0  0  0  0  0  0  0  0  0
   -4.3790   -0.5630   -3.1500 C   0  0  0  0  0  0  0  0  0  0  0  0
   -3.5740   -0.0650   -4.1500 C   0  0  0  0  0  0  0  0  0  0  0  0
   -2.5840    0.8050   -3.7530 C   0  0  0  0  0  0  0  0  0  0  0  0
   -2.3960    1.1610   -2.4730 N   0  0  0  0  0  0  0  0  0  0  0  0
   -3.1910    0.6710   -1.4810 C   0  0  0  0  0  0  0  0  0  0  0  0
    5.9500   -0.5220    0.5660 C   0  0  0  0  0  0  0  0  0  0  0  0
  1  2  1  0
  2  3  2  0
  2 37  1  0
  3  4  1  0
  4  5  2  0
  5  6  1  0
  5  7  1  0
  7  8  1  0
  7 37  2  0
  8  9  1  0
  8 15  2  0
  9 10  1  0
 10 11  1  0
 10 14  2  0
 11 12  1  6
 11 13  1  0
 14 15  1  0
 15 16  1  0
 16 17  1  0
 17 18  1  0
 18 19  2  0
 18 20  1  0
 20 21  1  0
 21 22  1  0
 21 36  1  0
 22 23  2  0
 22 27  1  0
 23 24  1  0
 24 25  2  0
 25 26  1  0
 26 27  2  0
 27 28  1  0
 28 29  1  0
 28 30  1  0
 30 31  1  0
 31 32  2  0
 31 36  1  0
 32 33  1  0
 33 34  2  0
 34 35  1  0
 35 36  2  0
M  CHG  1  35   1
M  END
