
     RDKit          3D

 37 41  0  0  0  0  0  0  0  0999 V2000
   -2.6570    3.7710    3.4610 C   0  0  0  0  0  0  0  0  0  0  0  0
   -1.4050    3.2900    2.8280 C   0  0  0  0  0  0  0  0  0  0  0  0
   -0.2470    3.8950    3.1790 F   0  0  0  0  0  0  0  0  0  0  0  0
   -1.4420    2.3020    1.9530 C   0  0  0  0  0  0  0  0  0  0  0  0
   -2.7070    1.6720    1.5970 C   0  0  0  0  0  0  0  0  0  0  0  0
   -3.8930    1.9540    2.0420 N   0  0  0  0  0  0  0  0  0  0  0  0
   -4.8710    1.1330    1.4700 C   0  0  0  0  0  0  0  0  0  0  0  0
   -6.2330    1.0760    1.6370 F   0  0  0  0  0  0  0  0  0  0  0  0
   -4.2770    0.3070    0.6380 C   0  0  0  0  0  0  0  0  0  0  0  0
   -4.5650   -0.7900   -0.2930 C   0  0  0  0  0  0  0  0  0  0  0  0
   -5.5160   -1.5650   -0.8530 N   0  0  1  0  0  0  0  0  0  0  0  0
   -5.0640   -2.2260   -2.1730 C   0  0  0  0  0  0  0  0  0  0  0  0
   -6.3350   -2.9360   -2.4960 C   0  0  0  0  0  0  0  0  0  0  0  0
   -6.5590   -3.6770   -1.1690 C   0  0  0  0  0  0  0  0  0  0  0  0
   -5.6190   -2.8520   -0.2880 C   0  0  0  0  0  0  0  0  0  0  0  0
   -3.4480   -1.1050   -0.7570 N   0  0  0  0  0  0  0  0  0  0  0  0
   -2.3630   -0.2990   -0.2160 C   0  0  0  0  0  0  0  0  0  0  0  0
   -0.9800   -0.3640   -0.5100 N   0  0  0  0  0  0  0  0  0  0  0  0
   -0.4070   -0.1510   -1.7980 C   0  0  0  0  0  0  0  0  0  0  0  0
    1.0840   -0.2960   -1.7420 C   0  0  2  0  0  0  0  0  0  0  0  0
    1.5720   -1.6320   -1.2900 C   0  0  0  0  0  0  0  0  0  0  0  0
    2.3700   -1.6220   -0.0210 C   0  0  0  0  0  0  0  0  0  0  0  0
    3.6010   -0.6940   -0.1230 C   0  0  0  0  0  0  0  0  0  0  0  0
    3.1970    0.3970   -0.9390 N   0  0  0  0  0  0  0  0  0  0  0  0
    4.0460    1.1170   -1.7730 C   0  0  0  0  0  0  0  0  0  0  0  0
    3.5110    2.0570   -2.5000 O   0  0  0  0  0  0  0  0  0  0  0  0
    5.4860    0.9620   -1.9580 C   0  0  0  0  0  0  0  0  0  0  0  0
    6.2070    0.2320   -1.0310 O   0  0  0  0  0  0  0  0  0  0  0  0
    6.3000    0.6820    0.2990 C   0  0  0  0  0  0  0  0  0  0  0  0
    5.6870    1.8370    0.6810 C   0  0  0  0  0  0  0  0  0  0  0  0
    5.7980    2.2590    2.0110 C   0  0  0  0  0  0  0  0  0  0  0  0
    6.5110    1.5210    2.9070 C   0  0  0  0  0  0  0  0  0  0  0  0
    7.1150    0.3590    2.4800 C   0  0  0  0  0  0  0  0  0  0  0  0
    7.0210   -0.0760    1.1810 C   0  0  0  0  0  0  0  0  0  0  0  0
    7.6300   -1.2310    0.7930 F   0  0  0  0  0  0  0  0  0  0  0  0
    1.7610    0.7470   -0.8640 C   0  0  0  0  0  0  0  0  0  0  0  0
   -2.8430    0.5730    0.6400 C   0  0  0  0  0  0  0  0  0  0  0  0
  1  2  1  0
  2  3  1  0
  2  4  2  3
  4  5  1  0
  5  6  2  0
  5 37  1  0
  6  7  1  0
  7  8  1  0
  7  9  2  0
  9 10  1  0
  9 37  1  0
 11 10  1  1
 10 16  2  0
 11 12  1  0
 11 15  1  0
 12 13  1  0
 13 14  1  0
 14 15  1  0
 16 17  1  0
 17 18  1  0
 17 37  2  0
 18 19  1  0
 20 19  1  1
 20 21  1  0
 20 36  1  0
 21 22  1  0
 22 23  1  0
 23 24  1  0
 24 25  1  0
 24 36  1  0
 25 26  2  0
 25 27  1  0
 27 28  1  0
 28 29  1  0
 29 30  2  0
 29 34  1  0
 30 31  1  0
 31 32  2  0
 32 33  1  0
 33 34  2  0
 34 35  1  0
M  CHG  1  11   1
M  END
