
     RDKit          3D

 23 26  0  0  0  0  0  0  0  0999 V2000
   -7.2300    1.0050    0.5940 C   0  0  0  0  0  0  0  0  0  0  0  0
   -6.0270    0.3530    0.1250 N   0  0  0  0  0  0  0  0  0  0  0  0
   -4.6700    0.7830    0.1470 C   0  0  0  0  0  0  0  0  0  0  0  0
   -3.8520   -0.2280    0.0040 C   0  0  0  0  0  0  0  0  0  0  0  0
   -2.3700   -0.1730   -0.0230 C   0  0  0  0  0  0  0  0  0  0  0  0
   -1.5310   -1.2090   -0.1700 N   0  0  0  0  0  0  0  0  0  0  0  0
   -0.2330   -0.7780   -0.1470 C   0  0  0  0  0  0  0  0  0  0  0  0
    0.9750   -1.4080   -0.2520 C   0  0  0  0  0  0  0  0  0  0  0  0
    2.1790   -0.6920   -0.1910 C   0  0  0  0  0  0  0  0  0  0  0  0
    3.3950   -1.3770   -0.3040 N   0  0  0  0  0  0  0  0  0  0  0  0
    4.6680   -0.7870   -0.2600 C   0  0  0  0  0  0  0  0  0  0  0  0
    5.0620    0.4880   -0.1120 N   0  0  0  0  0  0  0  0  0  0  0  0
    6.3770    0.5860   -0.1300 N   0  0  0  0  0  0  0  0  0  0  0  0
    7.0740    1.8560    0.0100 C   0  0  0  0  0  0  0  0  0  0  0  0
    6.8860   -0.6460   -0.2940 C   0  0  0  0  0  0  0  0  0  0  0  0
    8.1190   -0.9320   -0.3570 O   0  0  0  0  0  0  0  0  0  0  0  0
    5.8510   -1.4740   -0.3720 N   0  0  0  0  0  0  0  0  0  0  0  0
    2.1310    0.6700   -0.0230 C   0  0  0  0  0  0  0  0  0  0  0  0
    0.8940    1.2730    0.0800 C   0  0  0  0  0  0  0  0  0  0  0  0
   -0.2960    0.5820    0.0220 C   0  0  0  0  0  0  0  0  0  0  0  0
   -1.6000    0.9200    0.0940 N   0  0  0  0  0  0  0  0  0  0  0  0
   -4.6620   -1.4580   -0.1230 C   0  0  0  0  0  0  0  0  0  0  0  0
   -6.0180   -0.9570   -0.4960 C   0  0  0  0  0  0  0  0  0  0  0  0
  1  2  1  0
  2  3  1  0
  2 23  1  0
  3  4  2  0
  4  5  1  0
  4 22  1  0
  5  6  2  0
  5 21  1  0
  6  7  1  0
  7  8  2  0
  7 20  1  0
  8  9  1  0
  9 10  1  0
  9 18  2  0
 10 11  1  0
 11 12  2  0
 11 17  1  0
 12 13  1  0
 13 14  1  0
 13 15  1  0
 15 16  2  0
 15 17  1  0
 18 19  1  0
 19 20  2  0
 20 21  1  0
 22 23  1  0
M  END
