
     RDKit          3D

 23 26  0  0  0  0  0  0  0  0999 V2000
    4.3820    2.7210    1.1820 C   0  0  0  0  0  0  0  0  0  0  0  0
    3.0310    2.1070    0.8910 C   0  0  0  0  0  0  0  0  0  0  0  0
    3.1590    0.6650    0.4750 C   0  0  0  0  0  0  0  0  0  0  0  0
    1.8500    0.0680    0.1930 N   0  0  0  0  0  0  0  0  0  0  0  0
    1.7940   -1.2930   -0.2150 C   0  0  0  0  0  0  0  0  0  0  0  0
    2.9930   -1.9620   -0.3160 N   0  0  0  0  0  0  0  0  0  0  0  0
    3.0900   -3.2420   -0.6870 C   0  0  0  0  0  0  0  0  0  0  0  0
    4.3410   -3.8870   -0.7770 O   0  0  0  0  0  0  0  0  0  0  0  0
    1.9220   -3.9120   -0.9790 C   0  0  0  0  0  0  0  0  0  0  0  0
    0.7110   -3.2560   -0.8820 C   0  0  0  0  0  0  0  0  0  0  0  0
    0.6190   -1.9330   -0.4980 C   0  0  0  0  0  0  0  0  0  0  0  0
   -0.6700   -1.2560   -0.4020 C   0  0  0  0  0  0  0  0  0  0  0  0
   -1.8490   -1.8920   -0.6850 N   0  0  0  0  0  0  0  0  0  0  0  0
   -2.8560   -1.0470   -0.5160 C   0  0  0  0  0  0  0  0  0  0  0  0
   -4.2150   -0.8630   -0.5710 N   0  0  0  0  0  0  0  0  0  0  0  0
   -4.4730    0.3990   -0.2190 C   0  0  0  0  0  0  0  0  0  0  0  0
   -5.6540    1.1000   -0.1070 C   0  0  0  0  0  0  0  0  0  0  0  0
   -5.6270    2.4320    0.2890 C   0  0  0  0  0  0  0  0  0  0  0  0
   -4.4270    3.0480    0.5690 C   0  0  0  0  0  0  0  0  0  0  0  0
   -3.2750    2.3450    0.4530 N   0  0  0  0  0  0  0  0  0  0  0  0
   -3.3030    1.0540    0.0690 C   0  0  0  0  0  0  0  0  0  0  0  0
   -2.3250    0.1230   -0.1270 N   0  0  0  0  0  0  0  0  0  0  0  0
   -1.0160   -0.0250   -0.0660 N   0  0  0  0  0  0  0  0  0  0  0  0
  1  2  1  0
  2  3  1  0
  3  4  1  0
  4  5  1  0
  5  6  2  0
  5 11  1  0
  6  7  1  0
  7  8  1  0
  7  9  2  0
  9 10  1  0
 10 11  2  0
 11 12  1  0
 12 13  1  0
 12 23  2  0
 13 14  2  0
 14 15  1  0
 14 22  1  0
 15 16  1  0
 16 17  2  0
 16 21  1  0
 17 18  1  0
 18 19  2  0
 19 20  1  0
 20 21  2  0
 21 22  1  0
 22 23  1  0
M  END
