
     RDKit          3D

 23 26  0  0  0  0  0  0  0  0999 V2000
    3.9580   -1.2890    1.3350 O   0  0  0  0  0  0  0  0  0  0  0  0
    3.5050   -0.3510    0.6280 C   0  0  0  0  0  0  0  0  0  0  0  0
    2.1380   -0.3910    0.2520 N   0  0  0  0  0  0  0  0  0  0  0  0
    1.2330   -1.4620    0.6420 C   0  0  1  0  0  0  0  0  0  0  0  0
    0.1250   -0.8480    1.4660 C   0  0  0  0  0  0  0  0  0  0  0  0
   -0.8360   -0.1500    0.5580 C   0  0  0  0  0  0  0  0  0  0  0  0
   -1.5700   -1.1080   -0.3380 C   0  0  2  0  0  0  0  0  0  0  0  0
   -2.9370   -1.2690    0.0810 N   0  0  0  0  0  0  0  0  0  0  0  0
   -3.8020   -0.1440    0.1200 C   0  0  0  0  0  0  0  0  0  0  0  0
   -3.5310    1.1360   -0.1930 N   0  0  0  0  0  0  0  0  0  0  0  0
   -4.6130    1.8710   -0.0210 N   0  0  0  0  0  0  0  0  0  0  0  0
   -5.5760    1.0750    0.4000 N   0  0  0  0  0  0  0  0  0  0  0  0
   -6.8770    1.0910    0.7670 C   0  0  0  0  0  0  0  0  0  0  0  0
   -7.2120   -0.1550    1.0920 N   0  0  0  0  0  0  0  0  0  0  0  0
   -6.1610   -0.9220    0.9340 N   0  0  0  0  0  0  0  0  0  0  0  0
   -5.1260   -0.1740    0.5020 C   0  0  0  0  0  0  0  0  0  0  0  0
   -0.8490   -2.4250   -0.3220 C   0  0  0  0  0  0  0  0  0  0  0  0
    0.6270   -2.1290   -0.5610 C   0  0  0  0  0  0  0  0  0  0  0  0
    4.3790    0.7420    0.2140 C   0  0  0  0  0  0  0  0  0  0  0  0
    5.6490    0.8730    0.5070 C   0  0  0  0  0  0  0  0  0  0  0  0
    6.1630    2.1140   -0.1030 C   0  0  0  0  0  0  0  0  0  0  0  0
    4.9960    2.6840   -0.7940 C   0  0  0  0  0  0  0  0  0  0  0  0
    3.9780    1.8830   -0.6020 C   0  0  0  0  0  0  0  0  0  0  0  0
  1  2  2  0
  2  3  1  0
  2 19  1  0
  4  3  1  6
  4  5  1  0
  4 18  1  0
  5  6  1  0
  6  7  1  0
  7  8  1  1
  7 17  1  0
  8  9  1  0
  9 10  2  0
  9 16  1  0
 10 11  1  0
 11 12  1  0
 12 13  1  0
 12 16  1  0
 13 14  2  0
 14 15  1  0
 15 16  2  0
 17 18  1  0
 19 20  2  0
 19 23  1  0
 20 21  1  0
 21 22  1  0
 22 23  2  0
M  END
