
     RDKit          3D

 16 16  0  0  0  0  0  0  0  0999 V2000
    0.2680    0.7830   -2.0220 C   0  0  0  0  0  0  0  0  0  0  0  0
    0.5170    0.0170   -0.7310 C   0  0  1  0  0  0  0  0  0  0  0  0
   -0.7940   -0.2060   -0.1020 C   0  0  0  0  0  0  0  0  0  0  0  0
   -1.7110    0.7830    0.3870 C   0  0  0  0  0  0  0  0  0  0  0  0
   -1.6320    2.0810    0.4120 C   0  0  0  0  0  0  0  0  0  0  0  0
   -0.5730    2.8010   -0.0650 O   0  0  0  0  0  0  0  0  0  0  0  0
   -2.7150    2.8080    0.9700 O   0  0  0  0  0  0  0  0  0  0  0  0
   -1.1860   -1.4920    0.0030 C   0  0  0  0  0  0  0  0  0  0  0  0
   -2.4120   -2.0200    0.5740 C   0  0  0  0  0  0  0  0  0  0  0  0
   -2.0940   -2.8870    1.6560 O   0  0  0  0  0  0  0  0  0  0  0  0
    1.0590   -1.2590   -1.0400 O   0  0  0  0  0  0  0  0  0  0  0  0
    1.7030   -1.7210    0.1020 C   0  0  0  0  0  0  0  0  0  0  0  0
    2.9790   -1.2050    0.1930 O   0  0  0  0  0  0  0  0  0  0  0  0
    2.9670    0.1280   -0.1190 C   0  0  0  0  0  0  0  0  0  0  0  0
    1.5570    0.7110    0.0620 C   0  0  2  0  0  0  0  0  0  0  0  0
    1.3080    0.8740    1.3980 O   0  0  0  0  0  0  0  0  0  0  0  0
  2  1  1  6
  2  3  1  0
  2 11  1  0
  2 15  1  0
  3  4  1  0
  3  8  2  3
  4  5  2  3
  5  6  1  0
  5  7  1  0
  8  9  1  0
  9 10  1  0
 11 12  1  0
 12 13  1  0
 13 14  1  0
 14 15  1  0
 15 16  1  1
M  END
