
     RDKit          3D

 16 16  0  0  0  0  0  0  0  0999 V2000
   -3.3520   -3.2540   -0.4410 O   0  0  0  0  0  0  0  0  0  0  0  0
   -2.4640   -2.2320   -0.7000 C   0  0  0  0  0  0  0  0  0  0  0  0
   -2.6520   -1.0360   -0.1150 C   0  0  0  0  0  0  0  0  0  0  0  0
   -1.7320    0.0650   -0.3670 C   0  0  0  0  0  0  0  0  0  0  0  0
   -1.8820    1.2220    0.1720 C   0  0  0  0  0  0  0  0  0  0  0  0
   -2.8740    1.7590    1.0880 C   0  0  0  0  0  0  0  0  0  0  0  0
   -3.8780    0.9520    1.5110 O   0  0  0  0  0  0  0  0  0  0  0  0
   -0.6680   -0.2000   -1.2320 O   0  0  0  0  0  0  0  0  0  0  0  0
    0.5690   -0.7270   -0.8720 C   0  0  0  0  0  0  0  0  0  0  0  0
    1.2730    0.1430    0.0900 C   0  0  2  0  0  0  0  0  0  0  0  0
    1.5530    1.4330   -0.3960 O   0  0  0  0  0  0  0  0  0  0  0  0
    2.3230    1.9260    0.6570 C   0  0  0  0  0  0  0  0  0  0  0  0
    3.0560    0.8920    1.1810 O   0  0  0  0  0  0  0  0  0  0  0  0
    2.6590   -0.2830    0.4910 C   0  0  2  0  0  0  0  0  0  0  0  0
    3.6090   -0.3770   -0.6820 C   0  0  0  0  0  0  0  0  0  0  0  0
    3.3330   -1.5070   -1.4470 O   0  0  0  0  0  0  0  0  0  0  0  0
  1  2  1  0
  2  3  2  3
  3  4  1  0
  4  5  2  3
  4  8  1  0
  5  6  1  0
  6  7  1  0
  8  9  1  0
 10  9  1  6
 10 11  1  0
 10 14  1  0
 11 12  1  0
 12 13  1  0
 13 14  1  0
 14 15  1  6
 15 16  1  0
M  END
