
     RDKit          3D

 16 16  0  0  0  0  0  0  0  0999 V2000
    4.0150    1.3780    0.2810 C   0  0  0  0  0  0  0  0  0  0  0  0
    3.0120    0.2990    0.5370 C   0  0  0  0  0  0  0  0  0  0  0  0
    1.9130    0.3820   -0.3150 O   0  0  0  0  0  0  0  0  0  0  0  0
    1.0340   -0.6550   -0.0080 C   0  0  0  0  0  0  0  0  0  0  0  0
   -0.1790   -0.5900   -0.9250 C   0  0  2  0  0  0  0  0  0  0  0  0
   -0.8790    0.6260   -0.7950 O   0  0  0  0  0  0  0  0  0  0  0  0
   -1.8950    1.0450    0.0360 C   0  0  0  0  0  0  0  0  0  0  0  0
   -2.3590    2.4200   -0.1540 C   0  0  0  0  0  0  0  0  0  0  0  0
   -3.2820    2.8940    0.5560 O   0  0  0  0  0  0  0  0  0  0  0  0
   -1.8110    3.2600   -1.1120 O   0  0  0  0  0  0  0  0  0  0  0  0
   -2.4960    0.3580    0.9750 C   0  0  0  0  0  0  0  0  0  0  0  0
   -2.2210   -1.0410    1.3670 C   0  0  0  0  0  0  0  0  0  0  0  0
   -1.6010   -1.9370    0.6140 C   0  0  0  0  0  0  0  0  0  0  0  0
   -1.0480   -1.7950   -0.7430 C   0  0  1  0  0  0  0  0  0  0  0  0
   -2.0770   -1.7070   -1.7010 O   0  0  0  0  0  0  0  0  0  0  0  0
   -0.2720   -2.9250   -1.0050 O   0  0  0  0  0  0  0  0  0  0  0  0
  1  2  1  0
  2  3  1  0
  3  4  1  0
  5  4  1  1
  5  6  1  0
  5 14  1  0
  6  7  1  0
  7  8  1  0
  7 11  2  0
  8  9  2  0
  8 10  1  0
 11 12  1  0
 12 13  2  0
 13 14  1  0
 14 15  1  6
 14 16  1  0
M  END
