
     RDKit          3D

 15 15  0  0  0  0  0  0  0  0999 V2000
    4.5800   -0.0420   -0.4940 C   0  0  0  0  0  0  0  0  0  0  0  0
    3.3090    0.4270   -0.7770 O   0  0  0  0  0  0  0  0  0  0  0  0
    2.5180    0.3150    0.3610 C   0  0  0  0  0  0  0  0  0  0  0  0
    1.1460    0.8220    0.0490 C   0  0  0  0  0  0  0  0  0  0  0  0
    0.0900    0.0270    0.1640 C   0  0  0  0  0  0  0  0  0  0  0  0
   -1.2180    0.5620   -0.1490 C   0  0  0  0  0  0  0  0  0  0  0  0
   -1.5090    1.8430    0.0030 C   0  0  0  0  0  0  0  0  0  0  0  0
   -2.8550    2.3510   -0.3270 C   0  0  0  0  0  0  0  0  0  0  0  0
   -3.4860    2.9270    0.7760 O   0  0  0  0  0  0  0  0  0  0  0  0
   -2.2010   -0.3240   -0.6300 O   0  0  0  0  0  0  0  0  0  0  0  0
   -1.8650   -1.7000   -0.6240 C   0  0  0  0  0  0  0  0  0  0  0  0
   -1.1800   -1.9550    0.7250 C   0  0  2  0  0  0  0  0  0  0  0  0
   -1.9070   -1.2260    1.6670 O   0  0  0  0  0  0  0  0  0  0  0  0
    0.2220   -1.3890    0.6030 C   0  0  1  0  0  0  0  0  0  0  0  0
    0.9060   -2.1650   -0.3170 O   0  0  0  0  0  0  0  0  0  0  0  0
  1  2  1  0
  2  3  1  0
  3  4  1  0
  4  5  2  3
  5  6  1  0
  5 14  1  0
  6  7  2  3
  6 10  1  0
  7  8  1  0
  8  9  1  0
 10 11  1  0
 11 12  1  0
 12 13  1  1
 12 14  1  0
 14 15  1  6
M  END
