
     RDKit          3D

 16 16  0  0  0  0  0  0  0  0999 V2000
    3.3190    1.7840   -0.0000 C   0  0  0  0  0  0  0  0  0  0  0  0
    2.5250    0.7350    0.4640 O   0  0  0  0  0  0  0  0  0  0  0  0
    2.2740   -0.1360   -0.5870 C   0  0  0  0  0  0  0  0  0  0  0  0
    1.4260   -1.2860   -0.1570 C   0  0  1  0  0  0  0  0  0  0  0  0
    1.2130   -2.1230   -1.2610 O   0  0  0  0  0  0  0  0  0  0  0  0
    2.0140   -2.0890    0.9540 C   0  0  0  0  0  0  0  0  0  0  0  0
    2.2700   -1.3780    2.0960 O   0  0  0  0  0  0  0  0  0  0  0  0
    0.0730   -0.7660    0.2580 C   0  0  0  0  0  0  0  0  0  0  0  0
   -0.5510   -0.0340   -0.7930 O   0  0  0  0  0  0  0  0  0  0  0  0
   -1.8110    0.4890   -0.5030 C   0  0  0  0  0  0  0  0  0  0  0  0
   -2.0040    1.7750   -0.3530 C   0  0  0  0  0  0  0  0  0  0  0  0
   -3.3330    2.3800   -0.0430 C   0  0  0  0  0  0  0  0  0  0  0  0
   -4.3460    1.4210    0.0700 O   0  0  0  0  0  0  0  0  0  0  0  0
   -4.1750    0.0650   -0.0810 C   0  0  0  0  0  0  0  0  0  0  0  0
   -2.9600   -0.4000   -0.3570 C   0  0  0  0  0  0  0  0  0  0  0  0
   -2.7550   -1.7680   -0.5160 O   0  0  0  0  0  0  0  0  0  0  0  0
  1  2  1  0
  2  3  1  0
  3  4  1  0
  4  5  1  6
  4  6  1  0
  4  8  1  0
  6  7  1  0
  8  9  1  0
  9 10  1  0
 10 11  2  0
 10 15  1  0
 11 12  1  0
 12 13  1  0
 13 14  1  0
 14 15  2  0
 15 16  1  0
M  END
