
     RDKit          3D

 16 16  0  0  0  0  0  0  0  0999 V2000
   -1.6480    2.0450    0.4600 C   0  0  0  0  0  0  0  0  0  0  0  0
   -1.8920    0.5610    0.3000 C   0  0  1  0  0  0  0  0  0  0  0  0
   -1.6410   -0.0730    1.6480 C   0  0  0  0  0  0  0  0  0  0  0  0
   -3.2310    0.4050   -0.0060 O   0  0  0  0  0  0  0  0  0  0  0  0
   -3.6000   -0.8530   -0.3920 C   0  0  0  0  0  0  0  0  0  0  0  0
   -2.5880   -1.6870   -1.0520 C   0  0  0  0  0  0  0  0  0  0  0  0
   -1.2730   -1.4350   -0.7100 O   0  0  0  0  0  0  0  0  0  0  0  0
   -1.1030   -0.0560   -0.7980 C   0  0  1  0  0  0  0  0  0  0  0  0
   -1.7140    0.3240   -2.0160 O   0  0  0  0  0  0  0  0  0  0  0  0
    0.3240    0.2950   -0.8840 C   0  0  2  0  0  0  0  0  0  0  0  0
    0.8350   -0.3310   -2.0480 O   0  0  0  0  0  0  0  0  0  0  0  0
    1.1620   -0.2580    0.2560 C   0  0  0  0  0  0  0  0  0  0  0  0
    2.4990    0.1050   -0.0330 O   0  0  0  0  0  0  0  0  0  0  0  0
    3.3560   -0.3600    0.9610 C   0  0  0  0  0  0  0  0  0  0  0  0
    4.7520    0.0610    0.5900 C   0  0  0  0  0  0  0  0  0  0  0  0
    4.8790    1.4440    0.4900 O   0  0  0  0  0  0  0  0  0  0  0  0
  2  1  1  1
  2  3  1  0
  2  4  1  0
  2  8  1  0
  4  5  1  0
  5  6  1  0
  6  7  1  0
  7  8  1  0
  8  9  1  6
  8 10  1  0
 10 11  1  6
 10 12  1  0
 12 13  1  0
 13 14  1  0
 14 15  1  0
 15 16  1  0
M  END
