
     RDKit          3D

 30 32  0  0  0  0  0  0  0  0999 V2000
    7.4780    1.0860   -0.5880 C   0  0  0  0  0  0  0  0  0  0  0  0
    6.8540    0.0500   -1.4440 C   0  0  0  0  0  0  0  0  0  0  0  0
    5.5650   -0.1910   -1.4190 C   0  0  0  0  0  0  0  0  0  0  0  0
    4.9680   -1.2320   -2.2840 C   0  0  0  0  0  0  0  0  0  0  0  0
    3.5190   -1.3270   -2.0980 C   0  0  0  0  0  0  0  0  0  0  0  0
    2.8040   -0.5760   -1.2530 C   0  0  0  0  0  0  0  0  0  0  0  0
    3.4680    0.4190   -0.4400 C   0  0  0  0  0  0  0  0  0  0  0  0
    2.7750    1.2890    0.5350 C   0  0  2  0  0  0  0  0  0  0  0  0
    3.2620    2.7170    0.1510 C   0  0  0  0  0  0  0  0  0  0  0  0
    3.2980    1.1520    1.9430 C   0  0  0  0  0  0  0  0  0  0  0  0
    3.2240   -0.1590    2.5940 C   0  0  0  0  0  0  0  0  0  0  0  0
    3.9580   -1.2970    1.9740 C   0  0  0  0  0  0  0  0  0  0  0  0
    1.3050    1.3340    0.4420 C   0  0  0  0  0  0  0  0  0  0  0  0
    0.5720    0.1420    0.6540 N   0  0  0  0  0  0  0  0  0  0  0  0
   -0.8630    0.2490    0.4900 C   0  0  0  0  0  0  0  0  0  0  0  0
   -1.4150    1.3370    0.1750 O   0  0  0  0  0  0  0  0  0  0  0  0
   -1.6970   -0.9290    0.6930 C   0  0  0  0  0  0  0  0  0  0  0  0
   -1.2860   -2.1540    1.0870 N   0  0  0  0  0  0  0  0  0  0  0  0
   -2.3140   -2.9810    1.1670 N   0  0  0  0  0  0  0  0  0  0  0  0
   -3.4600   -2.3300    0.8240 C   0  0  0  0  0  0  0  0  0  0  0  0
   -4.7790   -2.7200    0.7390 C   0  0  0  0  0  0  0  0  0  0  0  0
   -5.7260   -1.7940    0.3460 C   0  0  0  0  0  0  0  0  0  0  0  0
   -5.3570   -0.4880    0.0400 C   0  0  0  0  0  0  0  0  0  0  0  0
   -6.4120    0.4430   -0.3740 C   0  0  2  0  0  0  0  0  0  0  0  0
   -7.1410   -0.2080   -1.5550 C   0  0  0  0  0  0  0  0  0  0  0  0
   -5.9610    1.8250   -0.7140 C   0  0  0  0  0  0  0  0  0  0  0  0
   -7.4790    0.6000    0.7130 C   0  0  0  0  0  0  0  0  0  0  0  0
   -4.0580   -0.1420    0.1340 C   0  0  0  0  0  0  0  0  0  0  0  0
   -3.0540   -1.0370    0.5280 C   0  0  0  0  0  0  0  0  0  0  0  0
    4.7440    0.5520   -0.5570 N   0  0  0  0  0  0  0  0  0  0  0  0
  1  2  1  0
  2  3  2  3
  3  4  1  0
  3 30  1  0
  4  5  1  0
  5  6  2  0
  6  7  1  0
  7  8  1  0
  7 30  2  0
  8  9  1  6
  8 10  1  0
  8 13  1  0
 10 11  1  0
 11 12  1  0
 13 14  1  0
 14 15  1  0
 15 16  2  0
 15 17  1  0
 17 18  2  0
 17 29  1  0
 18 19  1  0
 19 20  1  0
 20 21  2  0
 20 29  1  0
 21 22  1  0
 22 23  2  0
 23 24  1  0
 23 28  1  0
 24 25  1  6
 24 26  1  0
 24 27  1  0
 28 29  2  0
M  END
