
     RDKit          3D

 29 33  0  0  0  0  0  0  0  0999 V2000
    2.3860   -1.2880   -1.7560 C   0  0  0  0  0  0  0  0  0  0  0  0
    3.3980   -0.9640   -0.7270 C   0  0  0  0  0  0  0  0  0  0  0  0
    3.1500   -0.6420    0.5290 C   0  0  0  0  0  0  0  0  0  0  0  0
    4.3920   -0.3960    1.2250 C   0  0  0  0  0  0  0  0  0  0  0  0
    5.4120   -0.5650    0.4030 C   0  0  0  0  0  0  0  0  0  0  0  0
    4.8500   -0.9420   -0.9110 C   0  0  0  0  0  0  0  0  0  0  0  0
    4.0530   -0.0320    2.6520 C   0  0  0  0  0  0  0  0  0  0  0  0
    2.6500    0.5170    2.4920 C   0  0  0  0  0  0  0  0  0  0  0  0
    2.0560   -0.4380    1.5200 C   0  0  1  0  0  0  0  0  0  0  0  0
    0.8010   -0.0320    0.9190 C   0  0  0  0  0  0  0  0  0  0  0  0
    0.5610    1.2530    0.5040 C   0  0  0  0  0  0  0  0  0  0  0  0
   -0.6480    1.6260   -0.0840 C   0  0  0  0  0  0  0  0  0  0  0  0
   -0.8490    2.9670   -0.4930 N   0  0  0  0  0  0  0  0  0  0  0  0
    0.0630    3.6610   -1.3860 C   0  0  0  0  0  0  0  0  0  0  0  0
   -0.7070    4.8740   -1.8410 C   0  0  0  0  0  0  0  0  0  0  0  0
   -1.5030    5.2190   -0.5810 C   0  0  0  0  0  0  0  0  0  0  0  0
   -1.9050    3.8600   -0.1410 C   0  0  0  0  0  0  0  0  0  0  0  0
   -2.9620    3.5150    0.4330 O   0  0  0  0  0  0  0  0  0  0  0  0
   -1.6050    0.6230   -0.2310 C   0  0  0  0  0  0  0  0  0  0  0  0
   -2.6850    0.9920   -0.7660 O   0  0  0  0  0  0  0  0  0  0  0  0
   -1.3800   -0.6290    0.1700 N   0  0  0  0  0  0  0  0  0  0  0  0
   -2.3720   -1.6090   -0.0070 C   0  0  0  0  0  0  0  0  0  0  0  0
   -2.9940   -2.0890    1.1270 C   0  0  0  0  0  0  0  0  0  0  0  0
   -3.9780   -3.0530    1.0950 C   0  0  0  0  0  0  0  0  0  0  0  0
   -4.3530   -3.5560   -0.1230 C   0  0  0  0  0  0  0  0  0  0  0  0
   -5.4160   -4.6060   -0.1720 C   0  0  0  0  0  0  0  0  0  0  0  0
   -3.7400   -3.0870   -1.2690 C   0  0  0  0  0  0  0  0  0  0  0  0
   -2.7600   -2.1230   -1.2070 C   0  0  0  0  0  0  0  0  0  0  0  0
   -0.2070   -0.9530    0.7320 C   0  0  0  0  0  0  0  0  0  0  0  0
  1  2  1  0
  2  3  2  0
  2  6  1  0
  3  4  1  0
  3  9  1  0
  4  5  2  0
  4  7  1  0
  5  6  1  0
  7  8  1  0
  8  9  1  0
  9 10  1  6
 10 11  1  0
 10 29  2  0
 11 12  2  0
 12 13  1  0
 12 19  1  0
 13 14  1  0
 13 17  1  0
 14 15  1  0
 15 16  1  0
 16 17  1  0
 17 18  2  0
 19 20  2  0
 19 21  1  0
 21 22  1  0
 21 29  1  0
 22 23  2  0
 22 28  1  0
 23 24  1  0
 24 25  2  0
 25 26  1  0
 25 27  1  0
 27 28  2  0
M  END
