
     RDKit          3D

 29 33  0  0  0  0  0  0  0  0999 V2000
   -2.3220    5.5410    0.3020 C   0  0  0  0  0  0  0  0  0  0  0  0
   -1.8210    4.1920   -0.0550 C   0  0  0  0  0  0  0  0  0  0  0  0
   -0.8220    3.9950   -0.9790 C   0  0  0  0  0  0  0  0  0  0  0  0
   -0.3960    2.7040   -1.2710 C   0  0  0  0  0  0  0  0  0  0  0  0
   -0.9470    1.6070   -0.6600 C   0  0  0  0  0  0  0  0  0  0  0  0
   -0.5130    0.1840   -0.9510 C   0  0  2  0  0  0  0  0  0  0  0  0
   -1.6440   -0.6010   -1.5020 C   0  0  0  0  0  0  0  0  0  0  0  0
   -2.0480   -1.7870   -0.7540 C   0  0  0  0  0  0  0  0  0  0  0  0
   -1.3910   -2.2590    0.3380 C   0  0  0  0  0  0  0  0  0  0  0  0
   -1.9870   -3.3630    0.7790 N   0  0  0  0  0  0  0  0  0  0  0  0
   -3.0530   -3.6320   -0.0240 C   0  0  0  0  0  0  0  0  0  0  0  0
   -3.1040   -2.6550   -0.9870 C   0  0  0  0  0  0  0  0  0  0  0  0
   -4.1700   -2.7090   -1.9830 C   0  0  0  0  0  0  0  0  0  0  0  0
   -4.2220   -1.8280   -2.8590 O   0  0  0  0  0  0  0  0  0  0  0  0
   -5.0880   -3.7510   -1.9080 O   0  0  0  0  0  0  0  0  0  0  0  0
   -5.3620   -4.2510   -0.5860 C   0  0  0  0  0  0  0  0  0  0  0  0
   -4.0590   -4.7160   -0.0120 C   0  0  0  0  0  0  0  0  0  0  0  0
   -0.2420   -1.4780    0.7960 C   0  0  0  0  0  0  0  0  0  0  0  0
    0.1710   -0.3760    0.2270 C   0  0  0  0  0  0  0  0  0  0  0  0
    1.3350    0.3150    0.7790 C   0  0  0  0  0  0  0  0  0  0  0  0
    2.4470    0.4690   -0.0950 N   0  0  0  0  0  0  0  0  0  0  0  0
    3.0770   -0.7750   -0.3910 C   0  0  0  0  0  0  0  0  0  0  0  0
    4.3820   -0.6490   -1.1190 C   0  0  0  0  0  0  0  0  0  0  0  0
    5.1910    0.5470   -0.7720 C   0  0  0  0  0  0  0  0  0  0  0  0
    4.7410    1.1050    0.5420 C   0  0  2  0  0  0  0  0  0  0  0  0
    5.0170    0.1870    1.6960 C   0  0  0  0  0  0  0  0  0  0  0  0
    3.3000    1.4970    0.4180 C   0  0  0  0  0  0  0  0  0  0  0  0
   -1.9480    1.8170    0.2640 C   0  0  0  0  0  0  0  0  0  0  0  0
   -2.3830    3.1010    0.5650 C   0  0  0  0  0  0  0  0  0  0  0  0
  1  2  1  0
  2  3  2  0
  2 29  1  0
  3  4  1  0
  4  5  2  0
  6  5  1  1
  5 28  1  0
  6  7  1  0
  6 19  1  0
  7  8  1  0
  8  9  2  0
  8 12  1  0
  9 10  1  0
  9 18  1  0
 10 11  1  0
 11 12  2  0
 11 17  1  0
 12 13  1  0
 13 14  2  0
 13 15  1  0
 15 16  1  0
 16 17  1  0
 18 19  2  0
 19 20  1  0
 20 21  1  0
 21 22  1  0
 21 27  1  0
 22 23  1  0
 23 24  1  0
 24 25  1  0
 25 26  1  1
 25 27  1  0
 28 29  2  0
M  END
