
     RDKit          3D

 29 33  0  0  0  0  0  0  0  0999 V2000
    3.7230    1.8290   -0.5630 O   0  0  0  0  0  0  0  0  0  0  0  0
    2.9540    1.1810    0.1650 C   0  0  0  0  0  0  0  0  0  0  0  0
    3.2930    0.9180    1.4750 O   0  0  0  0  0  0  0  0  0  0  0  0
    4.4950    1.3530    2.0470 C   0  0  0  0  0  0  0  0  0  0  0  0
    5.6570    0.7730    1.2930 C   0  0  0  0  0  0  0  0  0  0  0  0
    5.9980   -0.5510    1.4100 C   0  0  0  0  0  0  0  0  0  0  0  0
    7.0680   -1.0680    0.7180 C   0  0  0  0  0  0  0  0  0  0  0  0
    7.8370   -0.2790   -0.1170 C   0  0  0  0  0  0  0  0  0  0  0  0
    7.4630    1.0430   -0.2080 C   0  0  0  0  0  0  0  0  0  0  0  0
    6.3980    1.5910    0.4720 C   0  0  0  0  0  0  0  0  0  0  0  0
    1.6680    0.6850   -0.3580 C   0  0  0  0  0  0  0  0  0  0  0  0
    1.3190    0.9380   -1.6520 C   0  0  0  0  0  0  0  0  0  0  0  0
    0.0990    0.4630   -2.1350 C   0  0  0  0  0  0  0  0  0  0  0  0
   -0.7640   -0.2560   -1.3340 C   0  0  0  0  0  0  0  0  0  0  0  0
   -2.0650   -0.7440   -1.9030 C   0  0  1  0  0  0  0  0  0  0  0  0
   -2.2680   -2.1200   -1.5050 N   0  0  0  0  0  0  0  0  0  0  0  0
   -3.0370   -2.4830   -0.3630 C   0  0  0  0  0  0  0  0  0  0  0  0
   -3.2030   -3.5680    0.3660 C   0  0  0  0  0  0  0  0  0  0  0  0
   -4.1550   -3.3430    1.4570 C   0  0  0  0  0  0  0  0  0  0  0  0
   -4.5710   -2.0990    1.3850 C   0  0  0  0  0  0  0  0  0  0  0  0
   -3.9140   -1.4690    0.2570 C   0  0  0  0  0  0  0  0  0  0  0  0
   -3.9200   -0.2720   -0.3080 C   0  0  0  0  0  0  0  0  0  0  0  0
   -4.7970    0.7800    0.2930 C   0  0  0  0  0  0  0  0  0  0  0  0
   -5.5720    1.5420   -0.7310 C   0  0  0  0  0  0  0  0  0  0  0  0
   -5.0020    1.4950   -2.1080 C   0  0  0  0  0  0  0  0  0  0  0  0
   -3.5010    1.3270   -2.1390 C   0  0  0  0  0  0  0  0  0  0  0  0
   -3.1600    0.0830   -1.4340 N   0  0  0  0  0  0  0  0  0  0  0  0
   -0.4030   -0.5070   -0.0280 C   0  0  0  0  0  0  0  0  0  0  0  0
    0.8170   -0.0320    0.4560 C   0  0  0  0  0  0  0  0  0  0  0  0
  1  2  2  0
  2  3  1  0
  2 11  1  0
  3  4  1  0
  4  5  1  0
  5  6  2  0
  5 10  1  0
  6  7  1  0
  7  8  2  0
  8  9  1  0
  9 10  2  0
 11 12  2  0
 11 29  1  0
 12 13  1  0
 13 14  2  0
 15 14  1  1
 14 28  1  0
 15 16  1  0
 15 27  1  0
 16 17  1  0
 17 18  2  0
 17 21  1  0
 18 19  1  0
 19 20  2  0
 20 21  1  0
 21 22  2  0
 22 23  1  0
 22 27  1  0
 23 24  1  0
 24 25  1  0
 25 26  1  0
 26 27  1  0
 28 29  2  0
M  END
