
     RDKit          3D

 29 33  0  0  0  0  0  0  0  0999 V2000
   -2.0010   -0.7420   -1.9100 C   0  0  0  0  0  0  0  0  0  0  0  0
   -2.1360   -1.1980   -0.5130 C   0  0  0  0  0  0  0  0  0  0  0  0
   -1.4480   -0.6890    0.5010 C   0  0  0  0  0  0  0  0  0  0  0  0
   -0.5340    0.3590    0.1940 N   0  0  0  0  0  0  0  0  0  0  0  0
   -1.1110    1.6540    0.0730 C   0  0  0  0  0  0  0  0  0  0  0  0
   -2.4500    1.6620    0.3390 C   0  0  0  0  0  0  0  0  0  0  0  0
   -3.1490    2.8550    0.2490 C   0  0  0  0  0  0  0  0  0  0  0  0
   -4.5940    2.8450    0.5400 C   0  0  0  0  0  0  0  0  0  0  0  0
   -2.5280    4.0300   -0.0990 C   0  0  0  0  0  0  0  0  0  0  0  0
   -1.1670    4.0480   -0.3740 C   0  0  0  0  0  0  0  0  0  0  0  0
   -0.4760    2.8600   -0.2840 C   0  0  0  0  0  0  0  0  0  0  0  0
    0.8660    2.9520   -0.5680 O   0  0  0  0  0  0  0  0  0  0  0  0
    1.9940    2.3460    0.0270 C   0  0  2  0  0  0  0  0  0  0  0  0
    3.1730    2.9660   -0.6310 C   0  0  0  0  0  0  0  0  0  0  0  0
    3.0890    4.1790   -0.9420 O   0  0  0  0  0  0  0  0  0  0  0  0
    4.3590    2.2580   -0.9140 N   0  0  0  0  0  0  0  0  0  0  0  0
    4.5160    0.9520   -0.3090 C   0  0  0  0  0  0  0  0  0  0  0  0
    3.2240    0.2340   -0.2160 C   0  0  0  0  0  0  0  0  0  0  0  0
    3.3380   -1.1600   -0.2950 C   0  0  0  0  0  0  0  0  0  0  0  0
    4.6650   -1.8280   -0.4690 C   0  0  0  0  0  0  0  0  0  0  0  0
    2.1950   -1.9180   -0.2100 C   0  0  0  0  0  0  0  0  0  0  0  0
    2.2780   -3.4110   -0.2910 C   0  0  0  0  0  0  0  0  0  0  0  0
    0.9730   -1.3020   -0.0500 C   0  0  0  0  0  0  0  0  0  0  0  0
    0.8490    0.0660    0.0290 C   0  0  0  0  0  0  0  0  0  0  0  0
    1.9890    0.8580   -0.0550 C   0  0  0  0  0  0  0  0  0  0  0  0
   -1.6420   -1.2070    1.8760 C   0  0  0  0  0  0  0  0  0  0  0  0
   -1.8980   -2.6720    1.9390 C   0  0  0  0  0  0  0  0  0  0  0  0
   -2.3760   -3.2850    0.6580 C   0  0  0  0  0  0  0  0  0  0  0  0
   -3.0990   -2.2790   -0.2050 C   0  0  0  0  0  0  0  0  0  0  0  0
  1  2  1  0
  2  3  2  0
  2 29  1  0
  3  4  1  0
  3 26  1  0
  4  5  1  0
  4 24  1  0
  5  6  2  0
  5 11  1  0
  6  7  1  0
  7  8  1  0
  7  9  2  0
  9 10  1  0
 10 11  2  0
 11 12  1  0
 13 12  1  6
 13 14  1  0
 13 25  1  0
 14 15  2  0
 14 16  1  0
 16 17  1  0
 17 18  1  0
 18 19  1  0
 18 25  2  0
 19 20  1  0
 19 21  2  0
 21 22  1  0
 21 23  1  0
 23 24  2  0
 24 25  1  0
 26 27  1  0
 27 28  1  0
 28 29  1  0
M  END
