
     RDKit          3D

 31 33  0  0  0  0  0  0  0  0999 V2000
    2.5840    1.1930    1.3320 O   0  0  0  0  0  0  0  0  0  0  0  0
    1.4650    0.8190    0.7740 C   0  0  0  0  0  0  0  0  0  0  0  0
    0.2960    1.5610    1.1690 C   0  0  0  0  0  0  0  0  0  0  0  0
   -0.9670    1.3500    0.5720 N   0  0  0  0  0  0  0  0  0  0  0  0
   -2.1400    1.8340    1.3550 C   0  0  0  0  0  0  0  0  0  0  0  0
   -3.4010    1.6090    0.5480 C   0  0  1  0  0  0  0  0  0  0  0  0
   -3.6380    2.9240   -0.7290 P   0  0  0  0  0  0  0  0  0  0  0  0
   -5.1200    3.7690   -0.4280 O   0  0  0  0  0  0  0  0  0  0  0  0
   -2.2800    3.9930   -0.8270 O   0  0  0  0  0  0  0  0  0  0  0  0
   -3.5120    0.2950   -0.0320 N   0  0  0  0  0  0  0  0  0  0  0  0
   -2.4270   -0.0580   -0.9030 C   0  0  1  0  0  0  0  0  0  0  0  0
   -2.0550   -1.8590   -0.6800 P   0  0  0  0  0  0  0  0  0  0  0  0
   -1.5150   -2.2340    0.9070 O   0  0  0  0  0  0  0  0  0  0  0  0
   -3.8900   -3.0010   -1.0760 P   0  0  0  0  0  0  0  0  0  0  0  0
   -4.4350   -3.7990    0.3620 O   0  0  0  0  0  0  0  0  0  0  0  0
   -5.1390   -1.9330   -1.6240 O   0  0  0  0  0  0  0  0  0  0  0  0
   -2.6840    0.1410   -2.2580 O   0  0  0  0  0  0  0  0  0  0  0  0
   -1.4370    0.1650   -2.7660 O   0  0  0  0  0  0  0  0  0  0  0  0
   -0.7170    0.9420   -1.8530 N   0  0  0  0  0  0  0  0  0  0  0  0
   -1.2510    0.8170   -0.7040 C   0  0  0  0  0  0  0  0  0  0  0  0
    1.6270   -0.2540   -0.1100 N   0  0  0  0  0  0  0  0  0  0  0  0
    2.9130   -0.8500   -0.3740 C   0  0  0  0  0  0  0  0  0  0  0  0
    4.0760   -0.4570    0.1660 N   0  0  0  0  0  0  0  0  0  0  0  0
    5.0480   -1.2520   -0.3210 C   0  0  0  0  0  0  0  0  0  0  0  0
    6.4610   -1.1810   -0.0100 C   0  0  0  0  0  0  0  0  0  0  0  0
    6.8800   -0.2970    0.7980 O   0  0  0  0  0  0  0  0  0  0  0  0
    7.4030   -2.0340   -0.5510 O   0  0  0  0  0  0  0  0  0  0  0  0
    8.6810   -1.9420   -0.2480 O   0  0  0  0  0  0  0  0  0  0  0  0
    8.8220   -1.0410    0.7040 O   0  0  0  0  0  0  0  0  0  0  0  0
    4.4430   -2.1480   -1.1790 C   0  0  0  0  0  0  0  0  0  0  0  0
    3.1610   -1.8570   -1.1690 O   0  0  0  0  0  0  0  0  0  0  0  0
  1  2  2  0
  2  3  1  0
  2 21  1  0
  3  4  1  0
  4  5  1  0
  4 20  1  0
  5  6  1  0
  6  7  1  6
  6 10  1  0
  7  8  1  0
  7  9  1  0
 10 11  1  0
 11 12  1  6
 11 17  1  0
 11 20  1  0
 12 13  1  0
 12 14  1  0
 14 15  1  0
 14 16  1  0
 17 18  1  0
 18 19  1  0
 19 20  2  0
 21 22  1  0
 22 23  2  0
 22 31  1  0
 23 24  1  0
 24 25  1  0
 24 30  2  0
 25 26  2  0
 25 27  1  0
 27 28  1  0
 28 29  1  0
 30 31  1  0
M  END
