
     RDKit          3D

 31 33  0  0  0  0  0  0  0  0999 V2000
   -6.9840    1.0460    2.6630 N   0  0  0  0  0  0  0  0  0  0  0  0
   -6.2000    0.1720    1.8740 C   0  0  0  0  0  0  0  0  0  0  0  0
   -6.5640   -1.1280    1.7320 N   0  0  0  0  0  0  0  0  0  0  0  0
   -5.8390   -1.9780    0.9910 C   0  0  0  0  0  0  0  0  0  0  0  0
   -4.7270   -1.5670    0.3650 N   0  0  0  0  0  0  0  0  0  0  0  0
   -4.2940   -0.2890    0.4540 C   0  0  0  0  0  0  0  0  0  0  0  0
   -5.0560    0.5730    1.2240 C   0  0  0  0  0  0  0  0  0  0  0  0
   -4.4470    1.7830    1.1750 N   0  0  0  0  0  0  0  0  0  0  0  0
   -3.3500    1.6470    0.3950 C   0  0  0  0  0  0  0  0  0  0  0  0
   -3.2470    0.3900   -0.0490 N   0  0  0  0  0  0  0  0  0  0  0  0
   -2.2380   -0.1680   -0.8940 C   0  0  2  0  0  0  0  0  0  0  0  0
   -1.1430   -0.6420   -0.2130 O   0  0  0  0  0  0  0  0  0  0  0  0
   -0.1850   -0.8710   -1.1780 C   0  0  2  0  0  0  0  0  0  0  0  0
    1.2250   -0.8180   -0.6030 C   0  0  0  0  0  0  0  0  0  0  0  0
    1.3880   -1.7830    0.3880 O   0  0  0  0  0  0  0  0  0  0  0  0
    2.9620   -1.6880    0.9960 P   0  0  1  0  0  0  0  0  0  0  0  0
    2.9240   -2.2330    2.4100 O   0  0  0  0  0  0  0  0  0  0  0  0
    3.9780   -2.5580   -0.0080 O   0  0  0  0  0  0  0  0  0  0  0  0
    3.3740   -0.0540    1.0900 O   0  0  0  0  0  0  0  0  0  0  0  0
    4.9680    0.1930    1.5290 P   0  0  2  0  0  0  0  0  0  0  0  0
    5.8780   -0.9120    1.0620 O   0  0  0  0  0  0  0  0  0  0  0  0
    5.1440    0.3440    3.2070 O   0  0  0  0  0  0  0  0  0  0  0  0
    5.4530    1.6870    0.8590 O   0  0  0  0  0  0  0  0  0  0  0  0
    6.6570    1.3760   -0.2820 P   0  0  1  0  0  0  0  0  0  0  0  0
    7.7900    0.6730    0.4640 O   0  0  0  0  0  0  0  0  0  0  0  0
    6.1090    0.3300   -1.4850 O   0  0  0  0  0  0  0  0  0  0  0  0
    7.2710    2.8010   -0.9200 O   0  0  0  0  0  0  0  0  0  0  0  0
   -0.3660    0.1270   -2.2740 C   0  0  1  0  0  0  0  0  0  0  0  0
   -0.7390   -0.5760   -3.4410 O   0  0  0  0  0  0  0  0  0  0  0  0
   -1.5980    0.9000   -1.7910 C   0  0  1  0  0  0  0  0  0  0  0  0
   -2.4160    1.2560   -2.8370 O   0  0  0  0  0  0  0  0  0  0  0  0
  1  2  1  0
  2  3  2  0
  2  7  1  0
  3  4  1  0
  4  5  2  0
  5  6  1  0
  6  7  2  0
  6 10  1  0
  7  8  1  0
  8  9  2  0
  9 10  1  0
 11 10  1  1
 11 12  1  0
 11 30  1  0
 12 13  1  0
 13 14  1  1
 13 28  1  0
 14 15  1  0
 15 16  1  0
 16 17  2  0
 16 18  1  6
 16 19  1  0
 19 20  1  0
 20 21  2  0
 20 22  1  1
 20 23  1  0
 23 24  1  0
 24 25  2  0
 24 26  1  6
 24 27  1  0
 28 29  1  6
 28 30  1  0
 30 31  1  6
M  END
