
     RDKit          3D

 30 31  0  0  0  0  0  0  0  0999 V2000
    7.2450    3.6990   -0.2480 O   0  0  0  0  0  0  0  0  0  0  0  0
    6.1140    3.6020   -0.7650 C   0  0  0  0  0  0  0  0  0  0  0  0
    5.6450    4.5830   -1.6350 O   0  0  0  0  0  0  0  0  0  0  0  0
    5.2660    2.4820   -0.4800 N   0  0  0  0  0  0  0  0  0  0  0  0
    5.7130    1.4760    0.3960 C   0  0  0  0  0  0  0  0  0  0  0  0
    6.8740    1.5860    0.9190 O   0  0  0  0  0  0  0  0  0  0  0  0
    4.9410    0.2770    0.7700 C   0  0  0  0  0  0  0  0  0  0  0  0
    3.6760    0.3180    0.0960 O   0  0  0  0  0  0  0  0  0  0  0  0
    2.7530   -0.7040    0.2800 C   0  0  0  0  0  0  0  0  0  0  0  0
    3.0770   -1.6560    1.0570 O   0  0  0  0  0  0  0  0  0  0  0  0
    1.4960   -0.7060   -0.3630 N   0  0  0  0  0  0  0  0  0  0  0  0
    0.5860   -1.7980   -0.1280 C   0  0  2  0  0  0  0  0  0  0  0  0
    1.4610   -3.3370   -0.7760 P   0  0  0  0  0  0  0  0  0  0  0  0
    0.8390   -4.6990    0.1140 O   0  0  0  0  0  0  0  0  0  0  0  0
    1.1900   -3.5190   -2.4730 O   0  0  0  0  0  0  0  0  0  0  0  0
   -0.6570   -1.5960   -0.8950 C   0  0  0  0  0  0  0  0  0  0  0  0
   -1.8250   -1.2620   -0.1310 N   0  0  0  0  0  0  0  0  0  0  0  0
   -2.9900   -0.7940   -0.8970 C   0  0  0  0  0  0  0  0  0  0  0  0
   -4.1060   -0.4840    0.0760 C   0  0  1  0  0  0  0  0  0  0  0  0
   -5.3420   -0.4170   -0.5550 O   0  0  0  0  0  0  0  0  0  0  0  0
   -6.0510    1.1100   -0.2150 P   0  0  0  0  0  0  0  0  0  0  0  0
   -6.0560    1.5010    1.4640 O   0  0  0  0  0  0  0  0  0  0  0  0
   -5.2010    2.7310   -1.3980 P   0  0  0  0  0  0  0  0  0  0  0  0
   -4.0030    3.6220   -0.5100 O   0  0  0  0  0  0  0  0  0  0  0  0
   -6.4220    3.8580   -1.9310 O   0  0  0  0  0  0  0  0  0  0  0  0
   -4.0930   -1.5260    1.0620 O   0  0  0  0  0  0  0  0  0  0  0  0
   -2.9670   -1.5140    1.8860 N   0  0  0  0  0  0  0  0  0  0  0  0
   -1.8420   -1.3810    1.2650 C   0  0  0  0  0  0  0  0  0  0  0  0
   -0.5360   -1.3460    1.9750 C   0  0  0  0  0  0  0  0  0  0  0  0
    0.4610   -1.9920    1.2640 N   0  0  0  0  0  0  0  0  0  0  0  0
  1  2  2  0
  2  3  1  0
  2  4  1  0
  4  5  1  0
  5  6  2  0
  5  7  1  0
  7  8  1  0
  8  9  1  0
  9 10  2  0
  9 11  1  0
 12 11  1  1
 12 13  1  0
 12 16  1  0
 12 30  1  0
 13 14  1  0
 13 15  1  0
 16 17  1  0
 17 18  1  0
 17 28  1  0
 18 19  1  0
 19 20  1  6
 19 26  1  0
 20 21  1  0
 21 22  1  0
 21 23  1  0
 23 24  1  0
 23 25  1  0
 26 27  1  0
 27 28  2  0
 28 29  1  0
 29 30  1  0
M  END
