
     RDKit          3D

  8  8  0  0  0  0  0  0  0  0999 V2000
    2.1630    0.2220    0.1320 C   0  0  0  0  0  0  0  0  0  0  0  0
    0.8440    0.2680   -0.5160 N   0  0  0  0  0  0  0  0  0  0  0  0
   -0.1570   -0.3460    0.2930 C   0  0  2  0  0  0  0  0  0  0  0  0
   -0.5820   -1.7160   -0.2490 C   0  0  0  0  0  0  0  0  0  0  0  0
   -1.8820   -1.7940    0.3600 O   0  0  0  0  0  0  0  0  0  0  0  0
   -2.3910   -0.5080    0.2940 N   0  0  0  0  0  0  0  0  0  0  0  0
   -1.4620    0.3590    0.2530 C   0  0  0  0  0  0  0  0  0  0  0  0
   -1.6730    1.7740    0.1820 N   0  0  0  0  0  0  0  0  0  0  0  0
  1  2  1  0
  3  2  1  6
  3  4  1  0
  3  7  1  0
  4  5  1  0
  5  6  1  0
  6  7  2  0
  7  8  1  0
M  CHG  1   2   1
M  END
