
     RDKit          3D

  8  8  0  0  0  0  0  0  0  0999 V2000
   -2.6660   -0.1410   -0.1670 C   0  0  0  0  0  0  0  0  0  0  0  0
   -1.3230   -0.4620    0.2830 N   0  0  0  0  0  0  0  0  0  0  0  0
   -0.4690    0.6430   -0.0940 C   0  0  0  0  0  0  0  0  0  0  0  0
    0.9440    0.2750    0.1250 C   0  0  0  0  0  0  0  0  0  0  0  0
    1.9140    0.2260   -0.7990 C   0  0  0  0  0  0  0  0  0  0  0  0
    3.1180   -0.1740   -0.1600 N   0  0  0  0  0  0  0  0  0  0  0  0
    2.9040    0.0020    1.1610 O   0  0  0  0  0  0  0  0  0  0  0  0
    1.5790   -0.1040    1.3400 N   0  0  0  0  0  0  0  0  0  0  0  0
  1  2  1  0
  2  3  1  0
  3  4  1  0
  4  5  2  0
  4  8  1  0
  5  6  1  0
  6  7  1  0
  7  8  1  0
M  CHG  1   2   1
M  END
