
     RDKit          3D

  8  8  0  0  0  0  0  0  0  0999 V2000
    2.3030    0.8670   -0.5040 O   0  0  0  0  0  0  0  0  0  0  0  0
    2.1420   -0.1660    0.3960 C   0  0  0  0  0  0  0  0  0  0  0  0
    1.0200   -0.9690    0.0210 N   0  0  0  0  0  0  0  0  0  0  0  0
   -0.3030   -0.4050   -0.0670 C   0  0  0  0  0  0  0  0  0  0  0  0
   -1.4500   -1.0780   -0.4150 C   0  0  0  0  0  0  0  0  0  0  0  0
   -2.4800   -0.2220   -0.3870 N   0  0  0  0  0  0  0  0  0  0  0  0
   -1.9680    0.9630   -0.0240 C   0  0  0  0  0  0  0  0  0  0  0  0
   -0.6450    0.8680    0.1740 N   0  0  0  0  0  0  0  0  0  0  0  0
  1  2  1  0
  2  3  1  0
  3  4  1  0
  4  5  2  0
  4  8  1  0
  5  6  1  0
  6  7  1  0
  7  8  2  0
M  CHG  1   8   1
M  END
