
     RDKit          3D

 15 16  0  0  0  0  0  0  0  0999 V2000
   -3.8300    1.4080   -0.0750 C   0  0  0  0  0  0  0  0  0  0  0  0
   -2.5640    0.5990   -0.0580 C   0  0  0  0  0  0  0  0  0  0  0  0
   -1.3790    1.2800   -0.0600 C   0  0  0  0  0  0  0  0  0  0  0  0
   -0.1840    0.5960   -0.0450 C   0  0  0  0  0  0  0  0  0  0  0  0
   -0.2020   -0.7770   -0.0290 C   0  0  0  0  0  0  0  0  0  0  0  0
   -1.3900   -1.4750   -0.0270 C   0  0  0  0  0  0  0  0  0  0  0  0
   -2.5790   -0.7700   -0.0420 C   0  0  0  0  0  0  0  0  0  0  0  0
   -3.7900   -1.4520   -0.0400 O   0  0  0  0  0  0  0  0  0  0  0  0
    1.1950   -1.2650   -0.0150 C   0  0  2  0  0  0  0  0  0  0  0  0
    1.3880   -2.0240   -1.1630 O   0  0  0  0  0  0  0  0  0  0  0  0
    1.4570   -2.0570    1.1060 O   0  0  0  0  0  0  0  0  0  0  0  0
    2.0180   -0.0260   -0.0250 C   0  0  0  0  0  0  0  0  0  0  0  0
    3.5060    0.0810   -0.0190 C   0  0  0  0  0  0  0  0  0  0  0  0
    3.8640    1.4830   -0.0330 N   0  0  0  0  0  0  0  0  0  0  0  0
    1.1910    1.0060   -0.0420 C   0  0  0  0  0  0  0  0  0  0  0  0
  1  2  1  0
  2  3  2  0
  2  7  1  0
  3  4  1  0
  4  5  2  0
  4 15  1  0
  5  6  1  0
  5  9  1  0
  6  7  2  0
  7  8  1  0
  9 10  1  6
  9 11  1  0
  9 12  1  0
 12 13  1  0
 12 15  2  0
 13 14  1  0
M  END
