
     RDKit          3D

 15 16  0  0  0  0  0  0  0  0999 V2000
    3.5990    0.9540   -0.4690 C   0  0  0  0  0  0  0  0  0  0  0  0
    3.7530   -0.5370   -0.2570 C   0  0  0  0  0  0  0  0  0  0  0  0
    2.7310   -1.0900    1.1600 S   0  0  0  0  0  0  0  0  0  0  0  0
    1.0240   -0.8640    0.6900 C   0  0  0  0  0  0  0  0  0  0  0  0
    0.4020   -1.9280    0.0630 C   0  0  0  0  0  0  0  0  0  0  0  0
   -0.9160   -1.8490   -0.3380 C   0  0  0  0  0  0  0  0  0  0  0  0
   -1.6330   -0.6800   -0.1090 C   0  0  0  0  0  0  0  0  0  0  0  0
   -2.9540   -0.5900   -0.5070 C   0  0  0  0  0  0  0  0  0  0  0  0
   -3.5190   -1.5590   -1.0770 O   0  0  0  0  0  0  0  0  0  0  0  0
   -3.6000    0.5640   -0.2610 N   0  0  0  0  0  0  0  0  0  0  0  0
   -2.9310    1.5610    0.3550 C   0  0  0  0  0  0  0  0  0  0  0  0
   -3.5980    2.6640    0.5730 N   0  0  0  0  0  0  0  0  0  0  0  0
   -1.6810    1.4760    0.7320 O   0  0  0  0  0  0  0  0  0  0  0  0
   -0.9830    0.3820    0.5270 C   0  0  0  0  0  0  0  0  0  0  0  0
    0.3350    0.3030    0.9280 C   0  0  0  0  0  0  0  0  0  0  0  0
  1  2  1  0
  2  3  1  0
  3  4  1  0
  4  5  2  0
  4 15  1  0
  5  6  1  0
  6  7  2  0
  7  8  1  0
  7 14  1  0
  8  9  2  0
  8 10  1  0
 10 11  1  0
 11 12  2  0
 11 13  1  0
 13 14  1  0
 14 15  2  0
M  END
