
     RDKit          3D

 23 24  0  0  0  0  0  0  0  0999 V2000
    5.4380    0.2930    1.4320 O   0  0  0  0  0  0  0  0  0  0  0  0
    6.1990    0.2860    0.4280 C   0  0  0  0  0  0  0  0  0  0  0  0
    7.5470    0.6640    0.5910 O   0  0  0  0  0  0  0  0  0  0  0  0
    5.7390   -0.1030   -0.9100 C   0  0  0  0  0  0  0  0  0  0  0  0
    4.3260   -0.4540   -0.8750 N   0  0  0  0  0  0  0  0  0  0  0  0
    3.3750    0.5100   -0.4630 C   0  0  0  0  0  0  0  0  0  0  0  0
    3.8310    1.6550   -0.1410 O   0  0  0  0  0  0  0  0  0  0  0  0
    1.9470    0.2580   -0.3930 C   0  0  0  0  0  0  0  0  0  0  0  0
    1.1250    1.2750    0.0240 C   0  0  0  0  0  0  0  0  0  0  0  0
   -0.2380    1.0610    0.0990 C   0  0  0  0  0  0  0  0  0  0  0  0
   -0.8070   -0.1350   -0.2280 C   0  0  0  0  0  0  0  0  0  0  0  0
   -2.1950   -0.4030   -0.1570 N   0  0  0  0  0  0  0  0  0  0  0  0
   -3.2200    0.4080    0.3540 C   0  0  0  0  0  0  0  0  0  0  0  0
   -2.9230    1.5250    0.8240 O   0  0  0  0  0  0  0  0  0  0  0  0
   -4.6200    0.0160    0.3660 C   0  0  0  0  0  0  0  0  0  0  0  0
   -5.6460    0.7780    0.8540 C   0  0  0  0  0  0  0  0  0  0  0  0
   -6.8500    0.1100    0.7130 C   0  0  0  0  0  0  0  0  0  0  0  0
   -8.5910    0.6970    1.2190 Br  0  0  0  0  0  0  0  0  0  0  0  0
   -6.5020   -1.1030    0.1110 C   0  0  0  0  0  0  0  0  0  0  0  0
   -7.7200   -2.4670   -0.3460 Br  0  0  0  0  0  0  0  0  0  0  0  0
   -5.1580   -1.1250   -0.0820 N   0  0  0  0  0  0  0  0  0  0  0  0
    0.0610   -1.1500   -0.6490 C   0  0  0  0  0  0  0  0  0  0  0  0
    1.4140   -0.9570   -0.7300 C   0  0  0  0  0  0  0  0  0  0  0  0
  1  2  2  0
  2  3  1  0
  2  4  1  0
  4  5  1  0
  5  6  1  0
  6  7  2  0
  6  8  1  0
  8  9  2  0
  8 23  1  0
  9 10  1  0
 10 11  2  0
 11 12  1  0
 11 22  1  0
 12 13  1  0
 13 14  2  0
 13 15  1  0
 15 16  2  0
 15 21  1  0
 16 17  1  0
 17 18  1  0
 17 19  2  0
 19 20  1  0
 19 21  1  0
 22 23  2  0
M  END
