
     RDKit          3D

 22 22  0  0  0  0  0  0  0  0999 V2000
   -7.4130    0.8870   -0.6980 C   0  0  0  0  0  0  0  0  0  0  0  0
   -6.1020    0.6630   -0.7910 C   0  0  0  0  0  0  0  0  0  0  0  0
   -5.2880    1.7870   -0.8210 O   0  0  0  0  0  0  0  0  0  0  0  0
   -5.6160   -0.6970   -0.8540 C   0  0  0  0  0  0  0  0  0  0  0  0
   -4.3790   -1.0960   -0.9460 C   0  0  0  0  0  0  0  0  0  0  0  0
   -3.2180   -0.2700   -1.0050 C   0  0  0  0  0  0  0  0  0  0  0  0
   -1.9960   -0.7540   -1.0980 C   0  0  0  0  0  0  0  0  0  0  0  0
   -1.8490   -2.1550   -1.1390 N   0  0  0  0  0  0  0  0  0  0  0  0
   -0.8100    0.0940   -1.1620 C   0  0  0  0  0  0  0  0  0  0  0  0
    0.1450   -0.1240   -0.0620 N   0  0  1  0  0  0  0  0  0  0  0  0
    0.9470   -1.2340   -0.4360 C   0  0  0  0  0  0  0  0  0  0  0  0
    2.2200   -1.4320    0.3420 C   0  0  0  0  0  0  0  0  0  0  0  0
    2.4650   -0.2390    1.2150 C   0  0  1  0  0  0  0  0  0  0  0  0
    3.5710   -0.3000    2.0890 N   0  0  0  0  0  0  0  0  0  0  0  0
    3.4120   -0.1620    3.5270 C   0  0  0  0  0  0  0  0  0  0  0  0
    2.2610    0.0130    3.9730 O   0  0  0  0  0  0  0  0  0  0  0  0
    4.4900   -0.2200    4.3910 O   0  0  0  0  0  0  0  0  0  0  0  0
    2.3020    0.9910    0.4230 C   0  0  1  0  0  0  0  0  0  0  0  0
    2.9980    1.2190   -0.8380 C   0  0  0  0  0  0  0  0  0  0  0  0
    4.4650    1.2600   -0.9360 C   0  0  0  0  0  0  0  0  0  0  0  0
    5.1200    0.0950   -0.6080 O   0  0  0  0  0  0  0  0  0  0  0  0
    0.7930    1.1240    0.1590 C   0  0  0  0  0  0  0  0  0  0  0  0
  1  2  2  0
  2  3  1  0
  2  4  1  0
  4  5  2  3
  5  6  1  0
  6  7  2  3
  7  8  1  0
  7  9  1  0
 10  9  1  6
 10 11  1  0
 10 22  1  0
 11 12  1  0
 12 13  1  0
 13 14  1  6
 13 18  1  0
 14 15  1  0
 15 16  2  0
 15 17  1  0
 18 19  1  6
 18 22  1  0
 19 20  1  0
 20 21  1  0
M  CHG  1  10   1
M  END
