
     RDKit          3D

 23 25  0  0  0  0  0  0  0  0999 V2000
   -2.7230   -0.8840    1.7300 N   0  0  0  0  0  0  0  0  0  0  0  0
   -3.6670   -0.5550    0.7270 C   0  0  0  0  0  0  0  0  0  0  0  0
   -4.9880   -1.0070    0.8350 C   0  0  0  0  0  0  0  0  0  0  0  0
   -5.9140   -0.6910   -0.1360 C   0  0  0  0  0  0  0  0  0  0  0  0
   -5.4910    0.0730   -1.1970 C   0  0  0  0  0  0  0  0  0  0  0  0
   -4.1730    0.5320   -1.3190 C   0  0  0  0  0  0  0  0  0  0  0  0
   -3.2620    0.2090   -0.3420 C   0  0  0  0  0  0  0  0  0  0  0  0
   -1.8600    0.6650   -0.4210 C   0  0  0  0  0  0  0  0  0  0  0  0
   -1.2910    1.4300   -1.4100 C   0  0  0  0  0  0  0  0  0  0  0  0
    0.0330    1.6010   -1.0560 C   0  0  0  0  0  0  0  0  0  0  0  0
    0.2370    0.9380    0.1330 C   0  0  0  0  0  0  0  0  0  0  0  0
    1.4660    0.8030    0.9370 C   0  0  0  0  0  0  0  0  0  0  0  0
    2.6060    0.3270    0.5060 C   0  0  0  0  0  0  0  0  0  0  0  0
    3.7340    0.2720    1.4390 C   0  0  0  0  0  0  0  0  0  0  0  0
    4.8920   -0.2340    1.0520 C   0  0  0  0  0  0  0  0  0  0  0  0
    5.9420   -0.2700    1.9660 O   0  0  0  0  0  0  0  0  0  0  0  0
    5.1210   -0.7570   -0.2940 C   0  0  0  0  0  0  0  0  0  0  0  0
    6.3880   -1.2700   -0.5970 O   0  0  0  0  0  0  0  0  0  0  0  0
    4.1770   -0.7570   -1.2100 C   0  0  0  0  0  0  0  0  0  0  0  0
    4.3460   -1.2290   -2.4600 F   0  0  0  0  0  0  0  0  0  0  0  0
    2.8670   -0.2040   -0.8290 C   0  0  0  0  0  0  0  0  0  0  0  0
    1.9270   -0.1860   -1.6720 O   0  0  0  0  0  0  0  0  0  0  0  0
   -0.9260    0.4080    0.4500 O   0  0  0  0  0  0  0  0  0  0  0  0
  1  2  1  0
  2  3  2  0
  2  7  1  0
  3  4  1  0
  4  5  2  0
  5  6  1  0
  6  7  2  0
  7  8  1  0
  8  9  2  0
  8 23  1  0
  9 10  1  0
 10 11  2  0
 11 12  1  0
 11 23  1  0
 12 13  2  3
 13 14  1  0
 13 21  1  0
 14 15  2  0
 15 16  1  0
 15 17  1  0
 17 18  1  0
 17 19  2  0
 19 20  1  0
 19 21  1  0
 21 22  2  0
M  END
