
     RDKit          3D

 22 23  0  0  0  0  0  0  0  0999 V2000
    2.5530   -2.0420   -0.4290 C   0  0  0  0  0  0  0  0  0  0  0  0
    1.8260   -1.5660    0.7490 N   0  0  1  0  0  0  0  0  0  0  0  0
    2.6970   -1.1300    1.7880 C   0  0  0  0  0  0  0  0  0  0  0  0
    4.1400   -1.5150    1.6130 C   0  0  0  0  0  0  0  0  0  0  0  0
    4.7420   -1.0450    0.4920 O   0  0  0  0  0  0  0  0  0  0  0  0
    0.7960   -0.6170    0.3950 C   0  0  2  0  0  0  0  0  0  0  0  0
    0.1710   -0.9800   -0.9370 C   0  0  0  0  0  0  0  0  0  0  0  0
   -1.1250   -0.2130   -1.1190 C   0  0  1  0  0  0  0  0  0  0  0  0
   -2.1730   -0.7130   -0.2340 N   0  0  0  0  0  0  0  0  0  0  0  0
   -3.3560   -1.2850   -0.7700 C   0  0  0  0  0  0  0  0  0  0  0  0
   -3.4380   -1.3310   -2.0320 O   0  0  0  0  0  0  0  0  0  0  0  0
   -4.4590   -1.8120    0.1070 C   0  0  2  0  0  0  0  0  0  0  0  0
   -5.4560   -2.2970   -0.7250 O   0  0  0  0  0  0  0  0  0  0  0  0
   -4.9700   -0.6800    0.8860 C   0  0  0  0  0  0  0  0  0  0  0  0
   -4.1230    0.0020    1.8280 N   0  0  0  0  0  0  0  0  0  0  0  0
   -6.1370   -0.2890    0.7500 O   0  0  0  0  0  0  0  0  0  0  0  0
   -0.9280    1.2520   -0.7980 C   0  0  0  0  0  0  0  0  0  0  0  0
    0.5360    1.6170   -0.7210 C   0  0  1  0  0  0  0  0  0  0  0  0
    0.6850    3.0740   -0.4650 C   0  0  2  0  0  0  0  0  0  0  0  0
    0.1710    4.1120   -1.3560 C   0  0  0  0  0  0  0  0  0  0  0  0
    1.6370    3.8290   -1.4180 C   0  0  0  0  0  0  0  0  0  0  0  0
    1.2630    0.8020    0.3350 C   0  0  0  0  0  0  0  0  0  0  0  0
  2  1  1  6
  2  3  1  0
  2  6  1  0
  3  4  1  0
  4  5  1  0
  6  7  1  6
  6 22  1  0
  7  8  1  0
  8  9  1  1
  8 17  1  0
  9 10  1  0
 10 11  2  0
 10 12  1  0
 12 13  1  6
 12 14  1  0
 14 15  1  0
 14 16  2  0
 18 17  1  1
 18 19  1  0
 18 22  1  0
 19 20  1  6
 19 21  1  0
 20 21  1  0
M  CHG  1   2   1
M  END
