
     RDKit          3D

 24 26  0  0  0  0  0  0  0  0999 V2000
    5.6690    1.3850   -2.6530 O   0  0  0  0  0  0  0  0  0  0  0  0
    5.9860    0.8650   -1.5540 C   0  0  0  0  0  0  0  0  0  0  0  0
    4.9490    0.4150   -0.6030 C   0  0  0  0  0  0  0  0  0  0  0  0
    5.3080   -0.1590    0.6080 C   0  0  0  0  0  0  0  0  0  0  0  0
    4.3310   -0.5730    1.4850 C   0  0  0  0  0  0  0  0  0  0  0  0
    4.7410   -1.1340    2.6690 O   0  0  0  0  0  0  0  0  0  0  0  0
    2.9890   -0.4030    1.1280 C   0  0  0  0  0  0  0  0  0  0  0  0
    2.0400   -0.8300    2.0310 O   0  0  0  0  0  0  0  0  0  0  0  0
    2.5830    0.1590   -0.0580 C   0  0  0  0  0  0  0  0  0  0  0  0
    1.2130    0.3640   -0.4880 C   0  0  0  0  0  0  0  0  0  0  0  0
    1.0580    0.9050   -1.6300 O   0  0  0  0  0  0  0  0  0  0  0  0
    0.0790    0.0290    0.2220 N   0  0  0  0  0  0  0  0  0  0  0  0
   -1.2810    0.2070   -0.1370 C   0  0  0  0  0  0  0  0  0  0  0  0
   -1.6340    1.0430   -1.1510 C   0  0  0  0  0  0  0  0  0  0  0  0
   -2.9990    1.1500   -1.4610 C   0  0  0  0  0  0  0  0  0  0  0  0
   -3.9360    0.4330   -0.7610 C   0  0  0  0  0  0  0  0  0  0  0  0
   -5.2820    0.5430   -1.0730 C   0  0  0  0  0  0  0  0  0  0  0  0
   -6.2420   -0.1660   -0.3850 C   0  0  0  0  0  0  0  0  0  0  0  0
   -5.8920   -1.0120    0.6400 C   0  0  0  0  0  0  0  0  0  0  0  0
   -6.8500   -1.7110    1.3170 F   0  0  0  0  0  0  0  0  0  0  0  0
   -4.5530   -1.1260    0.9550 C   0  0  0  0  0  0  0  0  0  0  0  0
   -3.5960   -0.4180    0.2680 C   0  0  0  0  0  0  0  0  0  0  0  0
   -2.2420   -0.5060    0.5550 C   0  0  0  0  0  0  0  0  0  0  0  0
    3.6310    0.5610   -0.9090 C   0  0  0  0  0  0  0  0  0  0  0  0
  1  2  2  0
  2  3  1  0
  3  4  2  0
  3 24  1  0
  4  5  1  0
  5  6  1  0
  5  7  2  0
  7  8  1  0
  7  9  1  0
  9 10  1  0
  9 24  2  0
 10 11  2  0
 10 12  1  0
 12 13  1  0
 13 14  2  0
 13 23  1  0
 14 15  1  0
 15 16  2  0
 16 17  1  0
 16 22  1  0
 17 18  2  0
 18 19  1  0
 19 20  1  0
 19 21  2  0
 21 22  1  0
 22 23  2  0
M  END
