
     RDKit          3D

 24 26  0  0  0  0  0  0  0  0999 V2000
   -5.7940    0.1140    0.2710 C   0  0  0  0  0  0  0  0  0  0  0  0
   -4.3780   -0.3640    0.3150 C   0  0  0  0  0  0  0  0  0  0  0  0
   -4.0600   -1.6620    0.6510 C   0  0  0  0  0  0  0  0  0  0  0  0
   -5.0610   -2.5190    0.9480 F   0  0  0  0  0  0  0  0  0  0  0  0
   -2.7570   -2.0960    0.6900 C   0  0  0  0  0  0  0  0  0  0  0  0
   -1.7070   -1.2210    0.3860 C   0  0  0  0  0  0  0  0  0  0  0  0
   -0.3540   -1.7010    0.4340 C   0  0  0  0  0  0  0  0  0  0  0  0
    0.6640   -0.9140    0.1560 C   0  0  0  0  0  0  0  0  0  0  0  0
    2.0120   -1.4630    0.2230 C   0  0  0  0  0  0  0  0  0  0  0  0
    2.1210   -2.6660    0.5460 O   0  0  0  0  0  0  0  0  0  0  0  0
    3.1950   -0.6850   -0.0620 C   0  0  0  0  0  0  0  0  0  0  0  0
    3.1030    0.6550   -0.4240 C   0  0  0  0  0  0  0  0  0  0  0  0
    4.2220    1.4210   -0.7020 C   0  0  0  0  0  0  0  0  0  0  0  0
    4.4200    2.7310   -1.0730 C   0  0  0  0  0  0  0  0  0  0  0  0
    5.7060    2.9100   -1.2010 O   0  0  0  0  0  0  0  0  0  0  0  0
    6.3540    1.8220   -0.9430 N   0  0  0  0  0  0  0  0  0  0  0  0
    5.4640    0.8380   -0.6190 C   0  0  0  0  0  0  0  0  0  0  0  0
    5.6010   -0.4800   -0.2670 C   0  0  0  0  0  0  0  0  0  0  0  0
    4.4510   -1.2450    0.0140 C   0  0  0  0  0  0  0  0  0  0  0  0
    4.7170   -2.5440    0.3530 O   0  0  0  0  0  0  0  0  0  0  0  0
   -2.0300    0.0640    0.0540 C   0  0  0  0  0  0  0  0  0  0  0  0
   -3.3630    0.5020    0.0160 C   0  0  0  0  0  0  0  0  0  0  0  0
   -3.6400    1.9250   -0.3570 C   0  0  0  0  0  0  0  0  0  0  0  0
   -2.4510    2.5900   -0.6120 O   0  0  0  0  0  0  0  0  0  0  0  0
  1  2  1  0
  2  3  2  0
  2 22  1  0
  3  4  1  0
  3  5  1  0
  5  6  2  0
  6  7  1  0
  6 21  1  0
  7  8  2  3
  8  9  1  0
  9 10  2  0
  9 11  1  0
 11 12  2  0
 11 19  1  0
 12 13  1  0
 13 14  2  0
 13 17  1  0
 14 15  1  0
 15 16  1  0
 16 17  2  0
 17 18  1  0
 18 19  2  0
 19 20  1  0
 21 22  2  0
 22 23  1  0
 23 24  1  0
M  END
