
     RDKit          3D

 26 28  0  0  0  0  0  0  0  0999 V2000
   -0.8130    2.7550    0.6270 C   0  0  0  0  0  0  0  0  0  0  0  0
   -2.0800    2.6210    0.9000 C   0  0  0  0  0  0  0  0  0  0  0  0
   -2.7990    1.3890    0.6140 C   0  0  0  0  0  0  0  0  0  0  0  0
   -4.0770    1.3770    0.9550 C   0  0  0  0  0  0  0  0  0  0  0  0
   -4.6420    2.6050    1.5950 C   0  0  0  0  0  0  0  0  0  0  0  0
   -2.0790    0.2520    0.0770 C   0  0  0  0  0  0  0  0  0  0  0  0
   -1.1650    0.4260   -0.9160 N   0  0  0  0  0  0  0  0  0  0  0  0
   -0.4500   -0.5180   -1.4810 C   0  0  0  0  0  0  0  0  0  0  0  0
    0.5010   -0.2250   -2.5650 C   0  0  0  0  0  0  0  0  0  0  0  0
    1.8700   -0.4980   -2.2820 N   0  0  0  0  0  0  0  0  0  0  0  0
    2.6310    0.4120   -1.4970 C   0  0  0  0  0  0  0  0  0  0  0  0
    2.1310    1.4660   -1.0400 O   0  0  0  0  0  0  0  0  0  0  0  0
    4.0480    0.1360   -1.1940 C   0  0  0  0  0  0  0  0  0  0  0  0
    4.8250    0.9490   -0.4680 N   0  0  0  0  0  0  0  0  0  0  0  0
    6.0320    0.3750   -0.4090 C   0  0  0  0  0  0  0  0  0  0  0  0
    7.2090    0.9290    0.2980 C   0  0  0  0  0  0  0  0  0  0  0  0
    5.9720   -0.7640   -1.0910 N   0  0  0  0  0  0  0  0  0  0  0  0
    4.7660   -0.8820   -1.5530 O   0  0  0  0  0  0  0  0  0  0  0  0
   -0.6160   -1.7710   -1.0590 N   0  0  0  0  0  0  0  0  0  0  0  0
   -1.5190   -2.0350   -0.0540 C   0  0  0  0  0  0  0  0  0  0  0  0
   -2.2650   -1.0370    0.5380 C   0  0  0  0  0  0  0  0  0  0  0  0
   -3.1160   -1.3290    1.6680 C   0  0  0  0  0  0  0  0  0  0  0  0
   -3.3100   -2.4920    2.2620 C   0  0  0  0  0  0  0  0  0  0  0  0
   -2.4770   -3.9550    1.6970 S   0  0  0  0  0  0  0  0  0  0  0  0
   -1.5770   -3.4620    0.2540 C   0  0  0  0  0  0  0  0  0  0  0  0
   -1.0080   -4.3750   -0.4760 C   0  0  0  0  0  0  0  0  0  0  0  0
  1  2  2  0
  2  3  1  0
  3  4  2  3
  3  6  1  0
  4  5  1  0
  6  7  2  0
  6 21  1  0
  7  8  1  0
  8  9  1  0
  8 19  2  0
  9 10  1  0
 10 11  1  0
 11 12  2  0
 11 13  1  0
 13 14  2  0
 13 18  1  0
 14 15  1  0
 15 16  1  0
 15 17  2  0
 17 18  1  0
 19 20  1  0
 20 21  2  0
 20 25  1  0
 21 22  1  0
 22 23  2  0
 23 24  1  0
 24 25  1  0
 25 26  2  0
M  END
