
     RDKit          3D

 25 27  0  0  0  0  0  0  0  0999 V2000
    7.0930    1.5550    0.0750 C   0  0  0  0  0  0  0  0  0  0  0  0
    5.8870    1.9020   -0.6810 C   0  0  0  0  0  0  0  0  0  0  0  0
    4.7020    1.3470   -0.2840 C   0  0  0  0  0  0  0  0  0  0  0  0
    4.7090    0.4730    0.8290 C   0  0  0  0  0  0  0  0  0  0  0  0
    3.8120   -0.1880    1.4370 C   0  0  0  0  0  0  0  0  0  0  0  0
    2.4200   -0.4430    1.3990 C   0  0  0  0  0  0  0  0  0  0  0  0
    1.9530   -1.2620    2.3200 O   0  0  0  0  0  0  0  0  0  0  0  0
    1.3960    0.0110    0.5560 N   0  0  0  0  0  0  0  0  0  0  0  0
    0.0360   -0.4130    0.7410 C   0  0  0  0  0  0  0  0  0  0  0  0
   -0.4760   -1.2530    1.6760 N   0  0  0  0  0  0  0  0  0  0  0  0
   -1.7180   -1.5150    1.6870 C   0  0  0  0  0  0  0  0  0  0  0  0
   -2.3620   -2.4460    2.7030 C   0  0  0  0  0  0  0  0  0  0  0  0
   -2.5440   -0.9360    0.7350 C   0  0  0  0  0  0  0  0  0  0  0  0
   -3.9570   -1.0700    0.5370 C   0  0  0  0  0  0  0  0  0  0  0  0
   -4.7970   -1.8180    1.2700 N   0  0  0  0  0  0  0  0  0  0  0  0
   -6.0250   -1.7010    0.8020 N   0  0  0  0  0  0  0  0  0  0  0  0
   -5.9900   -0.8630   -0.2550 C   0  0  0  0  0  0  0  0  0  0  0  0
   -7.0150   -0.4350   -1.0660 C   0  0  0  0  0  0  0  0  0  0  0  0
   -6.7400    0.4330   -2.0970 C   0  0  0  0  0  0  0  0  0  0  0  0
   -5.4290    0.8260   -2.2570 C   0  0  0  0  0  0  0  0  0  0  0  0
   -4.4170    0.3760   -1.4210 C   0  0  0  0  0  0  0  0  0  0  0  0
   -4.7000   -0.4780   -0.4090 N   0  0  0  0  0  0  0  0  0  0  0  0
   -1.3750    0.0090   -0.1630 S   0  0  0  0  0  0  0  0  0  0  0  0
    3.6100    1.7340   -1.0600 O   0  0  0  0  0  0  0  0  0  0  0  0
    3.4500    1.2570   -2.3950 C   0  0  0  0  0  0  0  0  0  0  0  0
  1  2  1  0
  2  3  2  3
  3  4  1  0
  3 24  1  0
  4  5  2  3
  5  6  1  0
  6  7  2  0
  6  8  1  0
  8  9  1  0
  9 10  2  0
  9 23  1  0
 10 11  1  0
 11 12  1  0
 11 13  2  0
 13 14  1  0
 13 23  1  0
 14 15  2  0
 14 22  1  0
 15 16  1  0
 16 17  2  0
 17 18  1  0
 17 22  1  0
 18 19  2  0
 19 20  1  0
 20 21  2  0
 21 22  1  0
 24 25  1  0
M  END
