
     RDKit          3D

 12 13  0  0  0  0  0  0  0  0999 V2000
    3.4170   -0.6090   -0.2070 C   0  0  0  0  0  0  0  0  0  0  0  0
    2.0220   -1.6020    0.1970 S   0  0  0  0  0  0  0  0  0  0  0  0
    0.4360   -0.8610    0.1360 C   0  0  0  0  0  0  0  0  0  0  0  0
   -0.6210   -1.6810    0.0370 C   0  0  0  0  0  0  0  0  0  0  0  0
   -2.0570   -1.5980   -0.0470 C   0  0  0  0  0  0  0  0  0  0  0  0
   -2.7430   -0.2990   -0.0660 C   0  0  0  0  0  0  0  0  0  0  0  0
   -2.0390    0.8210   -0.6320 N   0  0  0  0  0  0  0  0  0  0  0  0
   -0.7790    1.3440   -0.2230 C   0  0  0  0  0  0  0  0  0  0  0  0
   -0.4770    2.6460   -0.0870 N   0  0  0  0  0  0  0  0  0  0  0  0
    0.7880    2.6830    0.3600 C   0  0  0  0  0  0  0  0  0  0  0  0
    1.2810    1.4320    0.5040 N   0  0  0  0  0  0  0  0  0  0  0  0
    0.3380    0.5800    0.1500 C   0  0  0  0  0  0  0  0  0  0  0  0
  1  2  1  0
  2  3  1  0
  3  4  2  0
  3 12  1  0
  4  5  1  0
  5  6  1  0
  6  7  1  0
  7  8  1  0
  8  9  1  0
  8 12  2  0
  9 10  2  0
 10 11  1  0
 11 12  1  0
M  END
