
     RDKit          3D

 12 13  0  0  0  0  0  0  0  0999 V2000
    4.2510    0.3860   -0.2130 C   0  0  0  0  0  0  0  0  0  0  0  0
    2.9420   -0.4020   -0.0950 C   0  0  0  0  0  0  0  0  0  0  0  0
    3.0260   -1.7860    0.1200 N   0  0  0  0  0  0  0  0  0  0  0  0
    1.2560   -2.2190    0.1830 S   0  0  0  0  0  0  0  0  0  0  0  0
    0.7010   -0.5320   -0.0810 C   0  0  0  0  0  0  0  0  0  0  0  0
   -0.7580   -0.2350   -0.1310 C   0  0  0  0  0  0  0  0  0  0  0  0
   -1.0790    1.0180   -0.3260 C   0  0  0  0  0  0  0  0  0  0  0  0
   -2.4770    1.4560   -0.3980 C   0  0  0  0  0  0  0  0  0  0  0  0
   -3.4040    0.3790   -0.2340 N   0  0  0  0  0  0  0  0  0  0  0  0
   -2.9980   -0.9530   -0.0260 C   0  0  0  0  0  0  0  0  0  0  0  0
   -1.7430   -1.2970    0.0310 C   0  0  0  0  0  0  0  0  0  0  0  0
    1.7400    0.0590   -0.1690 N   0  0  0  0  0  0  0  0  0  0  0  0
  1  2  1  0
  2  3  2  0
  2 12  1  0
  3  4  1  0
  4  5  1  0
  5  6  1  0
  5 12  2  0
  6  7  2  0
  6 11  1  0
  7  8  1  0
  8  9  1  0
  9 10  1  0
 10 11  2  0
M  END
