
     RDKit          3D

 12 12  0  0  0  0  0  0  0  0999 V2000
   -3.3210    0.7550    0.0780 C   0  0  0  0  0  0  0  0  0  0  0  0
   -2.0240    0.7140   -0.0560 C   0  0  0  0  0  0  0  0  0  0  0  0
   -1.2130    1.9150   -0.0360 C   0  0  0  0  0  0  0  0  0  0  0  0
    0.0970    1.7970   -0.1780 C   0  0  0  0  0  0  0  0  0  0  0  0
    0.7930    0.5370   -0.3530 C   0  0  0  0  0  0  0  0  0  0  0  0
    2.1990    0.4280   -0.5040 N   0  0  0  0  0  0  0  0  0  0  0  0
    2.9990   -0.4410    0.2850 C   0  0  0  0  0  0  0  0  0  0  0  0
    4.3880   -0.5620    0.1500 N   0  0  0  0  0  0  0  0  0  0  0  0
    2.2190   -1.3480    1.4150 S   0  0  0  0  0  0  0  0  0  0  0  0
    0.0490   -0.5800   -0.3720 C   0  0  0  0  0  0  0  0  0  0  0  0
   -1.3660   -0.5300   -0.2260 N   0  0  0  0  0  0  0  0  0  0  0  0
   -2.1550   -1.7450   -0.2480 C   0  0  0  0  0  0  0  0  0  0  0  0
  1  2  2  0
  2  3  1  0
  2 11  1  0
  3  4  2  0
  4  5  1  0
  5  6  1  0
  5 10  2  0
  6  7  1  0
  7  8  1  0
  7  9  2  0
 10 11  1  0
 11 12  1  0
M  END
