
     RDKit          3D

 12 13  0  0  0  0  0  0  0  0999 V2000
    4.2780   -1.1870   -0.0410 S   0  0  0  0  0  0  0  0  0  0  0  0
    3.0500   -0.0970    0.0900 C   0  0  0  0  0  0  0  0  0  0  0  0
    3.3180    1.2190    0.1450 N   0  0  0  0  0  0  0  0  0  0  0  0
    2.3340    2.1410    0.2530 C   0  0  0  0  0  0  0  0  0  0  0  0
    1.0530    1.6970    0.3050 N   0  0  0  0  0  0  0  0  0  0  0  0
    0.7520    0.3930    0.2520 C   0  0  0  0  0  0  0  0  0  0  0  0
   -0.6490   -0.0750    0.3090 C   0  0  0  0  0  0  0  0  0  0  0  0
   -1.7080    0.7070    0.4140 C   0  0  0  0  0  0  0  0  0  0  0  0
   -2.9200   -0.1350    0.4400 C   0  0  0  0  0  0  0  0  0  0  0  0
   -2.3660   -1.5030    0.3330 C   0  0  0  0  0  0  0  0  0  0  0  0
   -1.0460   -1.4730    0.2570 C   0  0  0  0  0  0  0  0  0  0  0  0
    1.7650   -0.4810    0.1450 N   0  0  0  0  0  0  0  0  0  0  0  0
  1  2  2  0
  2  3  1  0
  2 12  1  0
  3  4  2  0
  4  5  1  0
  5  6  2  0
  6  7  1  0
  6 12  1  0
  7  8  2  0
  7 11  1  0
  8  9  1  0
  9 10  1  0
 10 11  2  0
M  END
