
     RDKit          3D

 12 13  0  0  0  0  0  0  0  0999 V2000
   -4.7140   -0.3040    0.5200 C   0  0  0  0  0  0  0  0  0  0  0  0
   -3.2280   -0.2430    0.3840 C   0  0  0  0  0  0  0  0  0  0  0  0
   -2.4270    0.6370   -0.2180 C   0  0  0  0  0  0  0  0  0  0  0  0
   -1.1020    0.4780   -0.2060 C   0  0  0  0  0  0  0  0  0  0  0  0
   -0.6240   -0.6630    0.4740 C   0  0  0  0  0  0  0  0  0  0  0  0
    0.7540   -1.0730    0.6360 N   0  0  0  0  0  0  0  0  0  0  0  0
    1.8200   -0.3400    0.0990 C   0  0  0  0  0  0  0  0  0  0  0  0
    1.7820    0.2810   -1.0220 N   0  0  0  0  0  0  0  0  0  0  0  0
    3.0410    0.9280   -1.2710 C   0  0  0  0  0  0  0  0  0  0  0  0
    3.9770    0.1690   -0.5100 N   0  0  0  0  0  0  0  0  0  0  0  0
    3.1950   -0.1370    0.6940 C   0  0  0  0  0  0  0  0  0  0  0  0
   -2.0530   -1.4160    1.0380 S   0  0  0  0  0  0  0  0  0  0  0  0
  1  2  1  0
  2  3  2  0
  2 12  1  0
  3  4  1  0
  4  5  2  0
  5  6  1  0
  5 12  1  0
  6  7  1  0
  7  8  2  0
  7 11  1  0
  8  9  1  0
  9 10  1  0
 10 11  1  0
M  END
