
     RDKit          3D

 30 33  0  0  0  0  0  0  0  0999 V2000
    3.8940   -3.6370    0.4580 C   0  0  0  0  0  0  0  0  0  0  0  0
    3.4840   -2.2210    0.4530 C   0  0  0  0  0  0  0  0  0  0  0  0
    2.1800   -1.9220    0.8310 C   0  0  0  0  0  0  0  0  0  0  0  0
    1.2400   -3.0070    1.2440 C   0  0  0  0  0  0  0  0  0  0  0  0
    1.8060   -0.5960    0.8230 C   0  0  0  0  0  0  0  0  0  0  0  0
    0.1780   -0.1350    1.2670 S   0  0  2  0  0  0  0  0  0  0  0  0
    0.2220    1.0230    2.2140 O   0  0  0  0  0  0  0  0  0  0  0  0
   -0.4080   -1.2830    2.0800 O   0  0  0  0  0  0  0  0  0  0  0  0
   -0.8510    0.1290   -0.0630 N   0  0  0  0  0  0  0  0  0  0  0  0
   -1.0560   -1.0190   -0.8970 C   0  0  0  0  0  0  0  0  0  0  0  0
   -1.9850   -0.6400   -2.0440 C   0  0  0  0  0  0  0  0  0  0  0  0
   -3.3080   -0.1720   -1.4880 C   0  0  0  0  0  0  0  0  0  0  0  0
   -3.9600    0.6730   -1.1140 N   0  0  0  0  0  0  0  0  0  0  0  0
   -5.1970    0.6970   -0.6590 C   0  0  0  0  0  0  0  0  0  0  0  0
   -5.8330   -0.5370   -0.6280 C   0  0  0  0  0  0  0  0  0  0  0  0
   -4.5200   -1.6180   -1.2780 S   0  0  0  0  0  0  0  0  0  0  0  0
   -7.1990   -0.7600   -0.2100 C   0  0  0  0  0  0  0  0  0  0  0  0
   -7.6580   -1.9080   -0.2180 O   0  0  0  0  0  0  0  0  0  0  0  0
   -7.9750    0.4000    0.2070 N   0  0  0  0  0  0  0  0  0  0  0  0
   -7.4880    1.6280   -0.3650 C   0  0  0  0  0  0  0  0  0  0  0  0
   -6.0330    1.8390   -0.1340 C   0  0  0  0  0  0  0  0  0  0  0  0
    2.7180    0.4030    0.4450 C   0  0  0  0  0  0  0  0  0  0  0  0
    4.0170    0.0830    0.0710 C   0  0  0  0  0  0  0  0  0  0  0  0
    4.3780   -1.2390    0.0830 C   0  0  0  0  0  0  0  0  0  0  0  0
    6.0290   -1.6360   -0.3940 Cl  0  0  0  0  0  0  0  0  0  0  0  0
    4.9120    1.2050   -0.3080 C   0  0  2  0  0  0  0  0  0  0  0  0
    5.3370    2.0300    0.8740 C   0  0  0  0  0  0  0  0  0  0  0  0
    4.1270    2.0620   -1.2670 C   0  0  0  0  0  0  0  0  0  0  0  0
    2.8950    2.5310   -0.7460 N   0  0  0  0  0  0  0  0  0  0  0  0
    2.3730    1.8380    0.4020 C   0  0  0  0  0  0  0  0  0  0  0  0
  1  2  1  0
  2  3  2  0
  2 24  1  0
  3  4  1  0
  3  5  1  0
  5  6  1  0
  5 22  2  0
  6  7  2  0
  6  8  2  0
  6  9  1  6
  9 10  1  0
 10 11  1  0
 11 12  1  0
 12 13  2  0
 12 16  1  0
 13 14  1  0
 14 15  2  0
 14 21  1  0
 15 16  1  0
 15 17  1  0
 17 18  2  0
 17 19  1  0
 19 20  1  0
 20 21  1  0
 22 23  1  0
 22 30  1  0
 23 24  2  0
 23 26  1  0
 24 25  1  0
 26 27  1  1
 26 28  1  0
 28 29  1  0
 29 30  1  0
M  CHG  1  29   1
M  END
