
     RDKit          3D

 30 33  0  0  0  0  0  0  0  0999 V2000
   -4.7110    3.2080    0.2680 C   0  0  0  0  0  0  0  0  0  0  0  0
   -4.5260    1.7340    0.1270 C   0  0  0  0  0  0  0  0  0  0  0  0
   -5.4410    0.8820    0.7380 C   0  0  0  0  0  0  0  0  0  0  0  0
   -5.3180   -0.4840    0.6220 C   0  0  0  0  0  0  0  0  0  0  0  0
   -6.2130   -1.3230    1.2020 N   0  0  0  0  0  0  0  0  0  0  0  0
   -6.1100   -2.6770    1.0840 C   0  0  0  0  0  0  0  0  0  0  0  0
   -6.9440   -3.4430    1.6230 O   0  0  0  0  0  0  0  0  0  0  0  0
   -5.0880   -3.2510    0.3670 C   0  0  0  0  0  0  0  0  0  0  0  0
   -4.9230   -4.9860    0.1870 Cl  0  0  0  0  0  0  0  0  0  0  0  0
   -4.1550   -2.4160   -0.2390 C   0  0  0  0  0  0  0  0  0  0  0  0
   -4.2910   -1.0360   -0.0980 C   0  0  0  0  0  0  0  0  0  0  0  0
   -3.3850   -0.1510   -0.7010 C   0  0  0  0  0  0  0  0  0  0  0  0
   -2.0690   -0.9110   -1.6290 S   0  0  0  0  0  0  0  0  0  0  0  0
   -0.6000   -1.2470   -0.6560 C   0  0  0  0  0  0  0  0  0  0  0  0
    0.1490    0.0010   -0.2930 C   0  0  0  0  0  0  0  0  0  0  0  0
    0.5720    0.1680    0.8860 O   0  0  0  0  0  0  0  0  0  0  0  0
    0.4140    1.0180   -1.2310 N   0  0  0  0  0  0  0  0  0  0  0  0
    1.1470    2.1910   -0.8980 C   0  0  0  0  0  0  0  0  0  0  0  0
    2.5630    2.0280   -0.4800 C   0  0  2  0  0  0  0  0  0  0  0  0
    3.5220    1.6770   -1.5970 C   0  0  0  0  0  0  0  0  0  0  0  0
    3.9600    0.2980   -1.5590 N   0  0  0  0  0  0  0  0  0  0  0  0
    4.5650   -0.0050   -0.3080 C   0  0  0  0  0  0  0  0  0  0  0  0
    5.7320   -0.7720   -0.2120 C   0  0  0  0  0  0  0  0  0  0  0  0
    6.3020   -1.0700    1.0180 C   0  0  0  0  0  0  0  0  0  0  0  0
    7.8030   -2.0590    1.1420 S   0  0  0  0  0  0  0  0  0  0  0  0
    5.6710   -0.5810    2.1350 C   0  0  0  0  0  0  0  0  0  0  0  0
    4.5170    0.1770    2.0340 C   0  0  0  0  0  0  0  0  0  0  0  0
    3.9440    0.4800    0.8220 C   0  0  0  0  0  0  0  0  0  0  0  0
    2.7900    1.2370    0.6640 O   0  0  0  0  0  0  0  0  0  0  0  0
   -3.5240    1.1860   -0.5750 N   0  0  0  0  0  0  0  0  0  0  0  0
  1  2  1  0
  2  3  2  0
  2 30  1  0
  3  4  1  0
  4  5  1  0
  4 11  2  0
  5  6  1  0
  6  7  2  0
  6  8  1  0
  8  9  1  0
  8 10  2  0
 10 11  1  0
 11 12  1  0
 12 13  1  0
 12 30  2  0
 13 14  1  0
 14 15  1  0
 15 16  2  0
 15 17  1  0
 17 18  1  0
 19 18  1  6
 19 20  1  0
 19 29  1  0
 20 21  1  0
 21 22  1  0
 22 23  2  0
 22 28  1  0
 23 24  1  0
 24 25  1  0
 24 26  2  0
 26 27  1  0
 27 28  2  0
 28 29  1  0
M  CHG  1  21   1
M  END
