
     RDKit          3D

 31 34  0  0  0  0  0  0  0  0999 V2000
   -7.2000    1.2650    0.3400 C   0  0  0  0  0  0  0  0  0  0  0  0
   -6.1900    0.6240   -0.1910 O   0  0  0  0  0  0  0  0  0  0  0  0
   -5.1460   -0.1850   -0.1200 C   0  0  0  0  0  0  0  0  0  0  0  0
   -3.8790    0.2740    0.0320 C   0  0  0  0  0  0  0  0  0  0  0  0
   -2.8010   -0.5860    0.1060 N   0  0  0  0  0  0  0  0  0  0  0  0
   -1.4310   -0.1640    0.2360 C   0  0  0  0  0  0  0  0  0  0  0  0
   -1.2140    1.0580    0.2700 O   0  0  0  0  0  0  0  0  0  0  0  0
   -0.3880   -1.1460    0.3200 N   0  0  0  0  0  0  0  0  0  0  0  0
    0.9630   -0.7880    0.4600 C   0  0  0  0  0  0  0  0  0  0  0  0
    1.9280   -1.7510    0.1500 C   0  0  0  0  0  0  0  0  0  0  0  0
    3.2640   -1.4910    0.2750 C   0  0  0  0  0  0  0  0  0  0  0  0
    3.7280   -0.2540    0.7170 C   0  0  0  0  0  0  0  0  0  0  0  0
    2.7820    0.6920    1.0210 C   0  0  0  0  0  0  0  0  0  0  0  0
    1.4090    0.4220    0.8920 C   0  0  0  0  0  0  0  0  0  0  0  0
    3.4540    1.7780    1.4170 N   0  0  0  0  0  0  0  0  0  0  0  0
    4.7540    1.5660    1.3770 N   0  0  0  0  0  0  0  0  0  0  0  0
    4.9260    0.3070    0.9430 N   0  0  0  0  0  0  0  0  0  0  0  0
    6.2120   -0.3160    0.7520 C   0  0  0  0  0  0  0  0  0  0  0  0
    6.7320   -0.0490   -0.6480 C   0  0  2  0  0  0  0  0  0  0  0  0
    8.0830   -0.7100   -0.8240 C   0  0  0  0  0  0  0  0  0  0  0  0
    6.8530    1.4530   -0.8130 C   0  0  0  0  0  0  0  0  0  0  0  0
   -3.7800    1.7170    0.1170 C   0  0  0  0  0  0  0  0  0  0  0  0
   -4.1010    2.6500   -0.4420 N   0  0  0  0  0  0  0  0  0  0  0  0
   -3.9890    3.9230   -0.1610 C   0  0  0  0  0  0  0  0  0  0  0  0
   -3.3840    4.2280    1.0050 C   0  0  0  0  0  0  0  0  0  0  0  0
   -2.9910    2.5280    1.6550 S   0  0  0  0  0  0  0  0  0  0  0  0
   -5.3540   -1.6510   -0.2130 C   0  0  0  0  0  0  0  0  0  0  0  0
   -6.3200   -2.3490    0.5080 C   0  0  0  0  0  0  0  0  0  0  0  0
   -6.1860   -3.6660    0.1340 C   0  0  0  0  0  0  0  0  0  0  0  0
   -5.1430   -3.6850   -0.7930 C   0  0  0  0  0  0  0  0  0  0  0  0
   -4.7100   -2.4850   -0.9440 O   0  0  0  0  0  0  0  0  0  0  0  0
  1  2  1  0
  2  3  1  0
  3  4  2  3
  3 27  1  0
  4  5  1  0
  4 22  1  0
  5  6  1  0
  6  7  2  0
  6  8  1  0
  8  9  1  0
  9 10  2  0
  9 14  1  0
 10 11  1  0
 11 12  2  0
 12 13  1  0
 12 17  1  0
 13 14  2  0
 13 15  1  0
 15 16  2  0
 16 17  1  0
 17 18  1  0
 18 19  1  0
 19 20  1  1
 19 21  1  0
 22 23  2  0
 22 26  1  0
 23 24  1  0
 24 25  2  0
 25 26  1  0
 27 28  2  0
 27 31  1  0
 28 29  1  0
 29 30  2  0
 30 31  1  0
M  END
