
     RDKit          3D

 37 37  0  0  0  0  0  0  0  0999 V2000
    3.1020    0.8350   -4.3820 C   0  0  0  0  0  0  0  0  0  0  0  0
    3.9740   -0.3050   -3.9190 C   0  0  0  0  0  0  0  0  0  0  0  0
    4.2760   -0.0840   -2.4430 C   0  0  0  0  0  0  0  0  0  0  0  0
    3.0030   -0.0790   -1.6130 C   0  0  0  0  0  0  0  0  0  0  0  0
    3.2310    0.1490   -0.2240 N   0  0  0  0  0  0  0  0  0  0  0  0
    2.1080    0.1870    0.6190 C   0  0  0  0  0  0  0  0  0  0  0  0
    1.3070   -1.0820    0.7860 C   0  0  2  0  0  0  0  0  0  0  0  0
    2.0520   -2.1770    1.0950 O   0  0  0  0  0  0  0  0  0  0  0  0
    0.2620   -1.3510   -0.2170 C   0  0  0  0  0  0  0  0  0  0  0  0
   -0.6030   -0.2690   -0.3980 O   0  0  0  0  0  0  0  0  0  0  0  0
   -1.4790   -0.5180   -1.4490 C   0  0  0  0  0  0  0  0  0  0  0  0
   -2.5680    0.5780   -1.5250 C   0  0  0  0  0  0  0  0  0  0  0  0
   -3.3720    0.6250   -0.3630 N   0  0  0  0  0  0  0  0  0  0  0  0
   -4.7270    0.1630   -0.4530 C   0  0  1  0  0  0  0  0  0  0  0  0
   -4.8160   -1.3260   -0.6240 C   0  0  0  0  0  0  0  0  0  0  0  0
   -6.2220   -1.8650   -0.6870 C   0  0  0  0  0  0  0  0  0  0  0  0
   -7.0020   -1.3930   -1.6980 O   0  0  0  0  0  0  0  0  0  0  0  0
   -5.4930    0.5090    0.8250 C   0  0  0  0  0  0  0  0  0  0  0  0
   -4.9780   -0.0570    2.0860 C   0  0  2  0  0  0  0  0  0  0  0  0
   -4.9020   -1.4170    2.2120 O   0  0  0  0  0  0  0  0  0  0  0  0
   -6.0240    0.3620    3.1670 C   0  0  0  0  0  0  0  0  0  0  0  0
   -6.1150    1.8590    3.2070 C   0  0  0  0  0  0  0  0  0  0  0  0
   -5.4700    0.7690   -1.6270 C   0  0  0  0  0  0  0  0  0  0  0  0
   -5.3520    0.2490   -2.9150 C   0  0  0  0  0  0  0  0  0  0  0  0
   -6.0490    0.8410   -3.9790 C   0  0  0  0  0  0  0  0  0  0  0  0
   -6.8300    1.9120   -3.7260 N   0  0  0  0  0  0  0  0  0  0  0  0
   -6.9630    2.4280   -2.5080 C   0  0  0  0  0  0  0  0  0  0  0  0
   -6.2810    1.8630   -1.4320 C   0  0  0  0  0  0  0  0  0  0  0  0
    4.4810   -0.2790    0.2800 C   0  0  0  0  0  0  0  0  0  0  0  0
    4.9060    0.0850    1.6380 C   0  0  2  0  0  0  0  0  0  0  0  0
    3.9530   -0.3910    2.5770 O   0  0  0  0  0  0  0  0  0  0  0  0
    5.1320    1.5200    1.9220 C   0  0  0  0  0  0  0  0  0  0  0  0
    6.0680    2.2180    1.1230 N   0  0  0  0  0  0  0  0  0  0  0  0
    6.1580   -0.7170    2.0240 C   0  0  1  0  0  0  0  0  0  0  0  0
    7.3180   -0.5060    1.1080 C   0  0  0  0  0  0  0  0  0  0  0  0
    6.6140   -0.2940    3.4210 C   0  0  0  0  0  0  0  0  0  0  0  0
    5.8590   -2.1940    2.0980 C   0  0  0  0  0  0  0  0  0  0  0  0
  1  2  1  0
  2  3  1  0
  3  4  1  0
  4  5  1  0
  5  6  1  0
  5 29  1  0
  6  7  1  0
  7  8  1  6
  7  9  1  0
  9 10  1  0
 10 11  1  0
 11 12  1  0
 12 13  1  0
 13 14  1  0
 14 15  1  6
 14 18  1  0
 14 23  1  0
 15 16  1  0
 16 17  1  0
 18 19  1  0
 19 20  1  6
 19 21  1  0
 21 22  1  0
 23 24  2  0
 23 28  1  0
 24 25  1  0
 25 26  2  0
 26 27  1  0
 27 28  2  0
 29 30  1  0
 30 31  1  1
 30 32  1  0
 30 34  1  0
 32 33  1  0
 34 35  1  6
 34 36  1  0
 34 37  1  0
M  CHG  2  13   1  33   1
M  END
