
     RDKit          3D

 36 40  0  0  0  0  0  0  0  0999 V2000
   -2.5030   -4.0170   -0.7600 C   0  0  0  0  0  0  0  0  0  0  0  0
   -3.3450   -3.2790    0.2690 C   0  0  0  0  0  0  0  0  0  0  0  0
   -2.9930   -1.8410    0.2180 C   0  0  0  0  0  0  0  0  0  0  0  0
   -3.8680   -0.8840   -0.0390 C   0  0  0  0  0  0  0  0  0  0  0  0
   -5.3210   -1.2020   -0.2980 C   0  0  0  0  0  0  0  0  0  0  0  0
   -6.1950    0.0120   -0.0900 C   0  0  0  0  0  0  0  0  0  0  0  0
   -5.4960    0.8290    0.9920 C   0  0  2  0  0  0  0  0  0  0  0  0
   -6.3750    1.8740    1.5290 C   0  0  0  0  0  0  0  0  0  0  0  0
   -6.5700    3.1440    1.2860 C   0  0  0  0  0  0  0  0  0  0  0  0
   -5.9090    4.0090    0.3060 C   0  0  0  0  0  0  0  0  0  0  0  0
   -4.4730    3.9030    0.4510 N   0  0  0  0  0  0  0  0  0  0  0  0
   -3.6910    2.7160    0.4550 C   0  0  0  0  0  0  0  0  0  0  0  0
   -2.4560    2.7490    0.4340 O   0  0  0  0  0  0  0  0  0  0  0  0
   -4.2090    1.3670    0.4830 C   0  0  0  0  0  0  0  0  0  0  0  0
   -3.3420    0.4970   -0.0710 C   0  0  0  0  0  0  0  0  0  0  0  0
   -1.8440    0.9730   -0.7640 S   0  0  2  0  0  0  0  0  0  0  0  0
   -1.9020    2.0990   -1.7830 O   0  0  0  0  0  0  0  0  0  0  0  0
   -1.5720   -0.1250   -1.8340 O   0  0  0  0  0  0  0  0  0  0  0  0
   -0.4250    0.8530    0.1250 N   0  0  0  0  0  0  0  0  0  0  0  0
    0.7100    0.1110   -0.2040 C   0  0  0  0  0  0  0  0  0  0  0  0
    0.7070   -1.1400   -0.7340 C   0  0  0  0  0  0  0  0  0  0  0  0
    1.8910   -1.8170   -1.0540 C   0  0  0  0  0  0  0  0  0  0  0  0
    3.0950   -1.1510   -0.8060 C   0  0  0  0  0  0  0  0  0  0  0  0
    4.3740   -1.5240   -1.0010 N   0  0  0  0  0  0  0  0  0  0  0  0
    5.1980   -0.5250   -0.6020 C   0  0  0  0  0  0  0  0  0  0  0  0
    6.6640   -0.5850   -0.6640 C   0  0  0  0  0  0  0  0  0  0  0  0
    7.2540   -1.7660   -1.0530 C   0  0  0  0  0  0  0  0  0  0  0  0
    8.6030   -1.9080   -1.1580 C   0  0  0  0  0  0  0  0  0  0  0  0
    9.3980   -0.8200   -0.8610 C   0  0  0  0  0  0  0  0  0  0  0  0
    8.8240    0.3700   -0.4700 C   0  0  0  0  0  0  0  0  0  0  0  0
    7.4530    0.4960   -0.3690 C   0  0  0  0  0  0  0  0  0  0  0  0
    4.4410    0.5150   -0.1380 C   0  0  0  0  0  0  0  0  0  0  0  0
    4.8330    1.7660    0.3860 O   0  0  0  0  0  0  0  0  0  0  0  0
    4.9730    1.7460    1.8210 C   0  0  0  0  0  0  0  0  0  0  0  0
    3.1080    0.1090   -0.2730 C   0  0  0  0  0  0  0  0  0  0  0  0
    1.9420    0.7470    0.0300 C   0  0  0  0  0  0  0  0  0  0  0  0
  1  2  1  0
  2  3  1  0
  3  4  2  3
  4  5  1  0
  4 15  1  0
  5  6  1  0
  7  6  1  6
  7  8  1  0
  7 14  1  0
  8  9  2  0
  9 10  1  0
 10 11  1  0
 11 12  1  0
 12 13  2  0
 12 14  1  0
 14 15  2  0
 15 16  1  0
 16 17  2  0
 16 18  2  0
 16 19  1  1
 19 20  1  0
 20 21  2  0
 20 36  1  0
 21 22  1  0
 22 23  2  0
 23 24  1  0
 23 35  1  0
 24 25  1  0
 25 26  1  0
 25 32  2  0
 26 27  2  0
 26 31  1  0
 27 28  1  0
 28 29  2  0
 29 30  1  0
 30 31  2  0
 32 33  1  0
 32 35  1  0
 33 34  1  0
 35 36  2  0
M  END
