
     RDKit          3D

 36 40  0  0  0  0  0  0  0  0999 V2000
   -1.4010   -2.4780    4.0840 C   0  0  0  0  0  0  0  0  0  0  0  0
   -1.8400   -2.0050    2.8060 O   0  0  0  0  0  0  0  0  0  0  0  0
   -0.8220   -1.5220    1.9680 C   0  0  0  0  0  0  0  0  0  0  0  0
    0.4960   -1.4900    2.3350 C   0  0  0  0  0  0  0  0  0  0  0  0
    1.5110   -1.0340    1.5620 C   0  0  0  0  0  0  0  0  0  0  0  0
    2.9220   -1.0510    1.9810 C   0  0  1  0  0  0  0  0  0  0  0  0
    3.1050   -2.3600    2.7790 C   0  0  0  0  0  0  0  0  0  0  0  0
    3.8630   -1.0530    0.8800 N   0  0  0  0  0  0  0  0  0  0  0  0
    5.0530   -0.2450    0.9880 C   0  0  0  0  0  0  0  0  0  0  0  0
    5.1780    0.4030    2.0850 O   0  0  0  0  0  0  0  0  0  0  0  0
    5.9580   -0.2210   -0.0690 N   0  0  0  0  0  0  0  0  0  0  0  0
    7.1940    0.5250    0.0230 C   0  0  0  0  0  0  0  0  0  0  0  0
    7.6500    0.9130    1.2860 C   0  0  0  0  0  0  0  0  0  0  0  0
    9.2440    1.6850    0.9650 S   0  0  0  0  0  0  0  0  0  0  0  0
    9.1750    1.4240   -0.8510 C   0  0  0  0  0  0  0  0  0  0  0  0
    8.0030    0.8090   -1.0210 C   0  0  0  0  0  0  0  0  0  0  0  0
    7.7390    0.5410   -2.3420 C   0  0  0  0  0  0  0  0  0  0  0  0
    8.6550    0.8790   -3.4180 C   0  0  0  0  0  0  0  0  0  0  0  0
    9.8690    1.4690   -3.1030 O   0  0  0  0  0  0  0  0  0  0  0  0
   10.0910    1.7430   -1.7480 C   0  0  0  0  0  0  0  0  0  0  0  0
    1.1990   -0.5570    0.2890 C   0  0  0  0  0  0  0  0  0  0  0  0
   -0.1140   -0.5720   -0.1180 C   0  0  0  0  0  0  0  0  0  0  0  0
   -1.1610   -1.0460    0.6870 C   0  0  0  0  0  0  0  0  0  0  0  0
   -2.3750   -1.0290    0.2200 O   0  0  0  0  0  0  0  0  0  0  0  0
   -3.5430   -0.9860   -0.3000 C   0  0  0  0  0  0  0  0  0  0  0  0
   -4.6390   -1.4310    0.7000 C   0  0  0  0  0  0  0  0  0  0  0  0
   -5.9870   -1.4170    0.0710 C   0  0  0  0  0  0  0  0  0  0  0  0
   -6.4260   -0.1110   -0.4560 C   0  0  0  0  0  0  0  0  0  0  0  0
   -7.1000    0.7800    0.3520 C   0  0  0  0  0  0  0  0  0  0  0  0
   -7.5310    2.0130   -0.1510 C   0  0  0  0  0  0  0  0  0  0  0  0
   -7.3010    2.3690   -1.4380 C   0  0  0  0  0  0  0  0  0  0  0  0
   -6.6350    1.5100   -2.2710 C   0  0  0  0  0  0  0  0  0  0  0  0
   -6.2080    0.2880   -1.7710 C   0  0  0  0  0  0  0  0  0  0  0  0
   -6.5540    2.1330   -3.6080 C   0  0  0  0  0  0  0  0  0  0  0  0
   -7.0110    3.5420   -3.4360 C   0  0  0  0  0  0  0  0  0  0  0  0
   -7.6360    3.5640   -2.1440 N   0  0  0  0  0  0  0  0  0  0  0  0
  1  2  1  0
  2  3  1  0
  3  4  2  0
  3 23  1  0
  4  5  1  0
  5  6  1  0
  5 21  2  0
  6  7  1  6
  6  8  1  0
  8  9  1  0
  9 10  2  0
  9 11  1  0
 11 12  1  0
 12 13  2  0
 12 16  1  0
 13 14  1  0
 14 15  1  0
 15 16  1  0
 15 20  2  0
 16 17  2  0
 17 18  1  0
 18 19  1  0
 19 20  1  0
 21 22  1  0
 22 23  2  0
 23 24  1  0
 24 25  1  0
 25 26  1  0
 26 27  1  0
 27 28  1  0
 28 29  2  0
 28 33  1  0
 29 30  1  0
 30 31  2  0
 31 32  1  0
 31 36  1  0
 32 33  2  0
 32 34  1  0
 34 35  1  0
 35 36  1  0
M  END
