
     RDKit          3D

 37 38  0  0  0  0  0  0  0  0999 V2000
   -7.7300    2.4720   -0.4190 C   0  0  0  0  0  0  0  0  0  0  0  0
   -7.1620    2.0130    0.9020 C   0  0  0  0  0  0  0  0  0  0  0  0
   -5.7230    1.6140    0.8040 C   0  0  0  0  0  0  0  0  0  0  0  0
   -4.9450    2.7070    0.3650 O   0  0  0  0  0  0  0  0  0  0  0  0
   -3.5600    2.6100    0.1840 C   0  0  0  0  0  0  0  0  0  0  0  0
   -2.8930    1.4690    0.4180 N   0  0  0  0  0  0  0  0  0  0  0  0
   -1.5670    1.3650    0.2470 C   0  0  0  0  0  0  0  0  0  0  0  0
   -0.8380    0.0780    0.5240 C   0  0  0  0  0  0  0  0  0  0  0  0
   -0.8920   -0.6830   -0.7900 C   0  0  2  0  0  0  0  0  0  0  0  0
   -2.3670   -0.7430   -0.8980 O   0  0  0  0  0  0  0  0  0  0  0  0
   -0.4320   -2.1100   -0.7260 C   0  0  2  0  0  0  0  0  0  0  0  0
   -0.8200   -2.6530    0.5950 C   0  0  0  0  0  0  0  0  0  0  0  0
   -0.4570   -4.0860    0.8740 C   0  0  0  0  0  0  0  0  0  0  0  0
   -0.8980   -4.5200    2.2650 C   0  0  1  0  0  0  0  0  0  0  0  0
   -2.3730   -4.4070    2.4640 C   0  0  0  0  0  0  0  0  0  0  0  0
   -0.4610   -5.9840    2.4010 C   0  0  0  0  0  0  0  0  0  0  0  0
    1.0300   -2.2700   -1.0030 C   0  0  0  0  0  0  0  0  0  0  0  0
    2.0660   -1.6710   -0.2900 N   0  0  0  0  0  0  0  0  0  0  0  0
    2.4800   -0.3140   -0.2760 C   0  0  0  0  0  0  0  0  0  0  0  0
    1.9160    0.5550   -0.9870 O   0  0  0  0  0  0  0  0  0  0  0  0
    3.6090    0.1480    0.5880 C   0  0  0  0  0  0  0  0  0  0  0  0
    3.8630    1.5940    0.3350 C   0  0  1  0  0  0  0  0  0  0  0  0
    2.7420    2.3810    0.6030 O   0  0  0  0  0  0  0  0  0  0  0  0
    4.9230    2.0950    1.3430 C   0  0  0  0  0  0  0  0  0  0  0  0
    5.4410    3.3960    0.7830 C   0  0  0  0  0  0  0  0  0  0  0  0
    6.3840    3.1100   -0.3670 C   0  0  2  0  0  0  0  0  0  0  0  0
    6.5280    4.3360   -1.2420 C   0  0  0  0  0  0  0  0  0  0  0  0
    5.8680    1.9120   -1.1150 C   0  0  2  0  0  0  0  0  0  0  0  0
    6.1780    2.0880   -2.4760 O   0  0  0  0  0  0  0  0  0  0  0  0
    4.3330    1.9100   -1.0590 C   0  0  0  0  0  0  0  0  0  0  0  0
   -1.1330   -2.7160   -1.8850 N   0  0  1  0  0  0  0  0  0  0  0  0
   -0.3360   -3.6680   -2.6260 C   0  0  0  0  0  0  0  0  0  0  0  0
   -2.3680   -3.3360   -1.5860 C   0  0  0  0  0  0  0  0  0  0  0  0
   -0.9020    2.4850   -0.1820 C   0  0  0  0  0  0  0  0  0  0  0  0
   -1.5420    3.7050   -0.4430 C   0  0  0  0  0  0  0  0  0  0  0  0
   -2.9070    3.7460   -0.2480 C   0  0  0  0  0  0  0  0  0  0  0  0
   -3.6710    4.9310   -0.4790 N   0  0  0  0  0  0  0  0  0  0  0  0
  1  2  1  0
  2  3  1  0
  3  4  1  0
  4  5  1  0
  5  6  2  0
  5 36  1  0
  6  7  1  0
  7  8  1  0
  7 34  2  0
  8  9  1  0
  9 10  1  1
  9 11  1  0
 11 12  1  1
 11 17  1  0
 11 31  1  0
 12 13  1  0
 13 14  1  0
 14 15  1  6
 14 16  1  0
 17 18  1  0
 18 19  1  0
 19 20  2  0
 19 21  1  0
 21 22  1  0
 22 23  1  1
 22 24  1  0
 22 30  1  0
 24 25  1  0
 25 26  1  0
 26 27  1  6
 26 28  1  0
 28 29  1  6
 28 30  1  0
 31 32  1  1
 31 33  1  0
 34 35  1  0
 35 36  2  0
 36 37  1  0
M  CHG  1  31   1
M  END
