
     RDKit          3D

 37 39  0  0  0  0  0  0  0  0999 V2000
   10.6160    3.2030    1.2580 C   0  0  0  0  0  0  0  0  0  0  0  0
    9.9060    2.1310    0.4480 C   0  0  1  0  0  0  0  0  0  0  0  0
   10.8720    1.0520    0.0450 C   0  0  0  0  0  0  0  0  0  0  0  0
   10.1540    0.0530   -0.7190 N   0  0  0  0  0  0  0  0  0  0  0  0
    8.7920    1.6220    1.2300 N   0  0  0  0  0  0  0  0  0  0  0  0
    7.4700    1.9770    0.8870 C   0  0  0  0  0  0  0  0  0  0  0  0
    7.2560    2.7450   -0.1100 O   0  0  0  0  0  0  0  0  0  0  0  0
    6.2840    1.5110    1.6180 C   0  0  2  0  0  0  0  0  0  0  0  0
    6.2130   -0.0000    1.5950 C   0  0  0  0  0  0  0  0  0  0  0  0
    6.0800   -0.3590    0.1090 C   0  0  0  0  0  0  0  0  0  0  0  0
    4.8260    0.2730   -0.4630 C   0  0  1  0  0  0  0  0  0  0  0  0
    3.9440   -0.7370   -0.7120 O   0  0  0  0  0  0  0  0  0  0  0  0
    3.5450   -0.9710   -1.9780 C   0  0  0  0  0  0  0  0  0  0  0  0
    2.5660   -2.1520   -1.9350 C   0  0  0  0  0  0  0  0  0  0  0  0
    1.3810   -1.8490   -1.0720 C   0  0  0  0  0  0  0  0  0  0  0  0
    0.5980   -0.6570   -1.5490 C   0  0  0  0  0  0  0  0  0  0  0  0
   -0.5780   -0.3310   -0.7030 C   0  0  0  0  0  0  0  0  0  0  0  0
   -1.6050   -1.4410   -0.6140 C   0  0  1  0  0  0  0  0  0  0  0  0
   -2.7620   -1.0460    0.2620 C   0  0  0  0  0  0  0  0  0  0  0  0
   -3.9630   -0.6850   -0.5130 N   0  0  2  0  0  0  0  0  0  0  0  0
   -4.9730   -0.1950    0.3490 C   0  0  1  0  0  0  0  0  0  0  0  0
   -6.3920   -0.4660   -0.0340 C   0  0  0  0  0  0  0  0  0  0  0  0
   -6.8160    0.0680   -1.2950 N   0  0  0  0  0  0  0  0  0  0  0  0
   -8.1160    0.7530   -1.1620 C   0  0  0  0  0  0  0  0  0  0  0  0
   -9.1190   -0.3550   -0.8620 C   0  0  0  0  0  0  0  0  0  0  0  0
  -10.5180    0.2010   -0.6900 C   0  0  0  0  0  0  0  0  0  0  0  0
  -10.5650    1.1070    0.3580 O   0  0  0  0  0  0  0  0  0  0  0  0
   -4.8120   -0.7600    1.7670 C   0  0  0  0  0  0  0  0  0  0  0  0
   -5.8480   -0.2030    2.7150 C   0  0  0  0  0  0  0  0  0  0  0  0
   -5.8920    1.2880    2.7410 C   0  0  0  0  0  0  0  0  0  0  0  0
   -4.8010    1.8310    1.8530 C   0  0  0  0  0  0  0  0  0  0  0  0
   -4.8640    1.3290    0.4520 C   0  0  0  0  0  0  0  0  0  0  0  0
   -4.3350   -1.7420   -1.4140 C   0  0  0  0  0  0  0  0  0  0  0  0
   -3.1330   -2.6690   -1.6680 C   0  0  0  0  0  0  0  0  0  0  0  0
   -2.0500   -1.8180   -1.8890 O   0  0  0  0  0  0  0  0  0  0  0  0
    4.2710    1.3510    0.4170 C   0  0  0  0  0  0  0  0  0  0  0  0
    5.1320    2.0430    1.1740 O   0  0  0  0  0  0  0  0  0  0  0  0
  2  1  1  1
  2  3  1  0
  2  5  1  0
  3  4  1  0
  5  6  1  0
  6  7  2  0
  8  6  1  6
  8  9  1  0
  8 37  1  0
  9 10  1  0
 10 11  1  0
 11 12  1  1
 11 36  1  0
 12 13  1  0
 13 14  1  0
 14 15  1  0
 15 16  1  0
 16 17  1  0
 18 17  1  6
 18 19  1  0
 18 35  1  0
 20 19  1  1
 20 21  1  0
 20 33  1  0
 21 22  1  6
 21 28  1  0
 21 32  1  0
 22 23  1  0
 23 24  1  0
 24 25  1  0
 25 26  1  0
 26 27  1  0
 28 29  1  0
 29 30  1  0
 30 31  1  0
 31 32  1  0
 33 34  1  0
 34 35  1  0
 36 37  1  0
M  CHG  3   4   1  20   1  23   1
M  END
