
     RDKit          3D

 27 27  0  0  0  0  0  0  0  0999 V2000
    5.7820    0.6410    1.9510 O   0  0  0  0  0  0  0  0  0  0  0  0
    4.7430    0.5170    1.2280 C   0  0  0  0  0  0  0  0  0  0  0  0
    3.3700    0.6100    1.7900 C   0  0  0  0  0  0  0  0  0  0  0  0
    2.4640    0.4270    0.7220 O   0  0  0  0  0  0  0  0  0  0  0  0
    1.1020    0.4460    0.8390 C   0  0  0  0  0  0  0  0  0  0  0  0
    0.5960    0.6370    1.9730 O   0  0  0  0  0  0  0  0  0  0  0  0
    0.1820    0.2500   -0.3040 C   0  0  2  0  0  0  0  0  0  0  0  0
    0.5940    1.1960   -1.3950 C   0  0  0  0  0  0  0  0  0  0  0  0
    0.3580    2.5260   -1.0470 O   0  0  0  0  0  0  0  0  0  0  0  0
   -1.1920    0.3080    0.0460 N   0  0  0  0  0  0  0  0  0  0  0  0
   -2.0840   -0.7860   -0.0950 C   0  0  0  0  0  0  0  0  0  0  0  0
   -1.5680   -1.8410   -0.5540 O   0  0  0  0  0  0  0  0  0  0  0  0
   -3.5040   -0.8100    0.2280 C   0  0  1  0  0  0  0  0  0  0  0  0
   -4.3580   -0.4040   -0.9300 C   0  0  0  0  0  0  0  0  0  0  0  0
   -4.0760    0.9750   -1.4440 C   0  0  0  0  0  0  0  0  0  0  0  0
   -2.7930    1.1240   -1.9230 O   0  0  0  0  0  0  0  0  0  0  0  0
   -3.9100   -2.2270    0.6720 C   0  0  0  0  0  0  0  0  0  0  0  0
   -4.0320   -2.2030    2.4650 S   0  0  0  0  0  0  0  0  0  0  0  0
   -2.8580   -1.4720    3.0850 O   0  0  0  0  0  0  0  0  0  0  0  0
   -5.4630   -1.3690    2.9220 O   0  0  0  0  0  0  0  0  0  0  0  0
   -5.5900   -0.1850    2.1820 C   0  0  0  0  0  0  0  0  0  0  0  0
   -3.9140    0.2970    1.6130 S   0  0  0  0  0  0  0  0  0  0  0  0
    4.9780    0.2880   -0.1230 O   0  0  0  0  0  0  0  0  0  0  0  0
    6.2860    0.1990   -0.6560 C   0  0  2  0  0  0  0  0  0  0  0  0
    6.5060    1.0940   -1.6910 O   0  0  0  0  0  0  0  0  0  0  0  0
    6.4370   -1.1780   -1.1340 N   0  0  0  0  0  0  0  0  0  0  0  0
    7.6580   -1.3830   -1.6680 O   0  0  0  0  0  0  0  0  0  0  0  0
  1  2  2  0
  2  3  1  0
  2 23  1  0
  3  4  1  0
  4  5  1  0
  5  6  2  0
  5  7  1  0
  7  8  1  6
  7 10  1  0
  8  9  1  0
 10 11  1  0
 11 12  2  0
 11 13  1  0
 13 14  1  6
 13 17  1  0
 13 22  1  0
 14 15  1  0
 15 16  1  0
 18 17  1  6
 18 19  2  0
 18 20  1  0
 20 21  1  0
 21 22  1  0
 23 24  1  0
 24 25  1  6
 24 26  1  0
 26 27  1  0
M  END
