
     RDKit          3D

 28 28  0  0  0  0  0  0  0  0999 V2000
   -4.9620    3.6240    0.0110 C   0  0  0  0  0  0  0  0  0  0  0  0
   -4.5130    2.2820    0.0110 O   0  0  0  0  0  0  0  0  0  0  0  0
   -3.8610    1.7010   -1.0660 C   0  0  0  0  0  0  0  0  0  0  0  0
   -3.6840    2.4550   -2.0760 O   0  0  0  0  0  0  0  0  0  0  0  0
   -3.4000    0.2950   -1.0450 C   0  0  0  0  0  0  0  0  0  0  0  0
   -2.7510   -0.0940   -2.2640 N   0  0  0  0  0  0  0  0  0  0  0  0
   -2.2140   -1.7030   -2.2580 S   0  0  1  0  0  0  0  0  0  0  0  0
   -3.1890   -2.5190   -1.4500 O   0  0  0  0  0  0  0  0  0  0  0  0
   -2.3690   -2.2200   -3.6860 O   0  0  0  0  0  0  0  0  0  0  0  0
   -0.6020   -1.9690   -1.8170 N   0  0  0  0  0  0  0  0  0  0  0  0
   -0.3340   -2.1450   -0.4280 C   0  0  2  0  0  0  0  0  0  0  0  0
    0.8310   -1.3540    0.0150 C   0  0  1  0  0  0  0  0  0  0  0  0
    0.8350    0.0760   -0.2630 C   0  0  0  0  0  0  0  0  0  0  0  0
   -0.0950    0.6220   -0.8750 O   0  0  0  0  0  0  0  0  0  0  0  0
    1.8950    0.8590    0.1610 O   0  0  0  0  0  0  0  0  0  0  0  0
    1.9630    2.2530   -0.0750 C   0  0  0  0  0  0  0  0  0  0  0  0
    3.2500    2.7610    0.5260 C   0  0  1  0  0  0  0  0  0  0  0  0
    4.3470    2.1090   -0.0820 O   0  0  0  0  0  0  0  0  0  0  0  0
    3.4400    4.1090    0.3800 O   0  0  0  0  0  0  0  0  0  0  0  0
    3.6800    4.9080    1.8300 S   0  0  1  0  0  0  0  0  0  0  0  0
    5.1820    5.1080    1.9700 O   0  0  0  0  0  0  0  0  0  0  0  0
    3.0620    6.2730    1.7390 O   0  0  0  0  0  0  0  0  0  0  0  0
    1.1560   -1.6020    1.4970 C   0  0  0  0  0  0  0  0  0  0  0  0
    1.7060   -2.9800    1.6120 C   0  0  0  0  0  0  0  0  0  0  0  0
    1.4080   -3.7910    0.4020 C   0  0  1  0  0  0  0  0  0  0  0  0
    1.4680   -5.1540    0.8210 O   0  0  0  0  0  0  0  0  0  0  0  0
    0.0580   -3.6280   -0.1970 C   0  0  1  0  0  0  0  0  0  0  0  0
   -0.8960   -4.2820    0.5730 O   0  0  0  0  0  0  0  0  0  0  0  0
  1  2  1  0
  2  3  1  0
  3  4  2  0
  3  5  1  0
  5  6  1  0
  7  6  1  6
  7  8  2  0
  7  9  2  0
  7 10  1  0
 11 10  1  6
 11 12  1  0
 11 27  1  0
 12 13  1  1
 12 23  1  0
 13 14  2  0
 13 15  1  0
 15 16  1  0
 16 17  1  0
 17 18  1  6
 17 19  1  0
 20 19  1  6
 20 21  2  0
 20 22  2  0
 23 24  1  0
 24 25  1  0
 25 26  1  1
 25 27  1  0
 27 28  1  1
M  END
