
     RDKit          3D

 27 27  0  0  0  0  0  0  0  0999 V2000
   -4.9700    0.1860    1.1160 C   0  0  0  0  0  0  0  0  0  0  0  0
   -4.1800   -0.1010   -0.0150 O   0  0  0  0  0  0  0  0  0  0  0  0
   -2.9310    0.4230   -0.2380 C   0  0  0  0  0  0  0  0  0  0  0  0
   -2.4580    1.2170    0.6340 O   0  0  0  0  0  0  0  0  0  0  0  0
   -2.1930    0.0590   -1.4500 C   0  0  2  0  0  0  0  0  0  0  0  0
   -0.5840    0.8790   -1.5630 S   0  0  0  0  0  0  0  0  0  0  0  0
    0.4610    0.2720   -0.2560 C   0  0  0  0  0  0  0  0  0  0  0  0
    0.0200   -0.5900    0.5420 O   0  0  0  0  0  0  0  0  0  0  0  0
    1.7640    0.7140   -0.0730 O   0  0  0  0  0  0  0  0  0  0  0  0
    2.5300    0.1790    0.9860 C   0  0  1  0  0  0  0  0  0  0  0  0
    3.8970    0.7570    1.0670 C   0  0  0  0  0  0  0  0  0  0  0  0
    4.9690    0.5600   -0.3260 S   0  0  0  0  0  0  0  0  0  0  0  0
    5.5860   -1.0760   -0.6420 C   0  0  0  0  0  0  0  0  0  0  0  0
    6.4410   -1.5410    0.3660 O   0  0  0  0  0  0  0  0  0  0  0  0
    1.8670    0.5280    2.3080 C   0  0  0  0  0  0  0  0  0  0  0  0
    1.0230    1.4400    2.3370 O   0  0  0  0  0  0  0  0  0  0  0  0
    2.2650   -0.2220    3.4220 N   0  0  0  0  0  0  0  0  0  0  0  0
    2.8080   -1.5230    3.2460 C   0  0  0  0  0  0  0  0  0  0  0  0
    3.1560   -2.1670    4.2740 O   0  0  0  0  0  0  0  0  0  0  0  0
    2.9330   -2.0340    1.9550 O   0  0  0  0  0  0  0  0  0  0  0  0
    2.5370   -1.2940    0.8540 C   0  0  0  0  0  0  0  0  0  0  0  0
    2.1950   -1.8270   -0.2090 O   0  0  0  0  0  0  0  0  0  0  0  0
   -2.9570    0.3660   -2.7200 C   0  0  2  0  0  0  0  0  0  0  0  0
   -3.2300    1.7280   -2.7900 O   0  0  0  0  0  0  0  0  0  0  0  0
   -4.1530   -0.4640   -2.8660 C   0  0  0  0  0  0  0  0  0  0  0  0
   -5.4160    0.1580   -3.0500 N   0  0  0  0  0  0  0  0  0  0  0  0
   -4.1110   -1.7160   -2.8360 O   0  0  0  0  0  0  0  0  0  0  0  0
  1  2  1  0
  2  3  1  0
  3  4  2  0
  3  5  1  0
  5  6  1  6
  5 23  1  0
  6  7  1  0
  7  8  2  0
  7  9  1  0
  9 10  1  0
 10 11  1  1
 10 15  1  0
 10 21  1  0
 11 12  1  0
 12 13  1  0
 13 14  1  0
 15 16  2  0
 15 17  1  0
 17 18  1  0
 18 19  2  0
 18 20  1  0
 20 21  1  0
 21 22  2  0
 23 24  1  1
 23 25  1  0
 25 26  1  0
 25 27  2  0
M  END
