
     RDKit          3D

 28 29  0  0  0  0  0  0  0  0999 V2000
    3.1830    3.8290    2.9750 C   0  0  0  0  0  0  0  0  0  0  0  0
    2.9440    2.4810    2.6370 O   0  0  0  0  0  0  0  0  0  0  0  0
    1.9460    2.1660    1.7280 C   0  0  0  0  0  0  0  0  0  0  0  0
    1.2750    3.0760    1.2230 O   0  0  0  0  0  0  0  0  0  0  0  0
    1.7540    0.7180    1.4220 C   0  0  2  0  0  0  0  0  0  0  0  0
    3.0160    0.2080    0.7940 C   0  0  0  0  0  0  0  0  0  0  0  0
    2.7600    0.4460   -0.6920 C   0  0  1  0  0  0  0  0  0  0  0  0
    3.4720   -0.5050   -1.3860 O   0  0  0  0  0  0  0  0  0  0  0  0
    4.5610    0.1170   -2.4720 S   0  0  2  0  0  0  0  0  0  0  0  0
    6.0180   -0.8390   -2.3490 N   0  0  0  0  0  0  0  0  0  0  0  0
    4.9560    1.5360   -2.1320 O   0  0  0  0  0  0  0  0  0  0  0  0
    4.0590    0.0830   -3.8820 O   0  0  0  0  0  0  0  0  0  0  0  0
    1.2480    0.2270   -0.8010 C   0  0  0  0  0  0  0  0  0  0  0  0
    0.7080    0.4890    0.4770 N   0  0  0  0  0  0  0  0  0  0  0  0
   -0.4900   -0.5700    1.0650 S   0  0  2  0  0  0  0  0  0  0  0  0
   -0.7930   -0.1740    2.4880 O   0  0  0  0  0  0  0  0  0  0  0  0
    0.1290   -1.9630    1.1560 O   0  0  0  0  0  0  0  0  0  0  0  0
   -1.9640   -0.6190    0.0840 C   0  0  2  0  0  0  0  0  0  0  0  0
   -2.9200   -1.2450    0.8990 O   0  0  0  0  0  0  0  0  0  0  0  0
   -4.1500   -1.3510    0.3160 C   0  0  1  0  0  0  0  0  0  0  0  0
   -4.6970   -0.0480   -0.2160 C   0  0  0  0  0  0  0  0  0  0  0  0
   -4.8450    0.9090    0.7570 O   0  0  0  0  0  0  0  0  0  0  0  0
   -4.0330   -2.3480   -0.8060 C   0  0  1  0  0  0  0  0  0  0  0  0
   -5.2660   -2.4660   -1.4240 O   0  0  0  0  0  0  0  0  0  0  0  0
   -2.9640   -2.0010   -1.7710 C   0  0  1  0  0  0  0  0  0  0  0  0
   -3.5650   -1.2410   -2.8000 O   0  0  0  0  0  0  0  0  0  0  0  0
   -1.7930   -1.2360   -1.2310 C   0  0  1  0  0  0  0  0  0  0  0  0
   -1.4260   -0.2650   -2.1800 O   0  0  0  0  0  0  0  0  0  0  0  0
  1  2  1  0
  2  3  1  0
  3  4  2  0
  5  3  1  6
  5  6  1  0
  5 14  1  0
  6  7  1  0
  7  8  1  6
  7 13  1  0
  8  9  1  0
  9 10  1  6
  9 11  2  0
  9 12  2  0
 13 14  1  0
 15 14  1  6
 15 16  2  0
 15 17  2  0
 15 18  1  0
 18 19  1  1
 18 27  1  0
 19 20  1  0
 20 21  1  6
 20 23  1  0
 21 22  1  0
 23 24  1  6
 23 25  1  0
 25 26  1  6
 25 27  1  0
 27 28  1  6
M  END
