
     RDKit          3D

 27 29  0  0  0  0  0  0  0  0999 V2000
   -6.2560   -2.3160   -1.0090 C   0  0  0  0  0  0  0  0  0  0  0  0
   -5.8100   -0.9960   -0.5240 C   0  0  0  0  0  0  0  0  0  0  0  0
   -6.6350   -0.0030   -0.1590 C   0  0  0  0  0  0  0  0  0  0  0  0
   -5.8810    1.1660    0.3130 C   0  0  0  0  0  0  0  0  0  0  0  0
   -6.2300    2.2810    0.7070 O   0  0  0  0  0  0  0  0  0  0  0  0
   -4.4630    0.7330    0.2260 C   0  0  0  0  0  0  0  0  0  0  0  0
   -3.2170    0.9520    0.5670 C   0  0  0  0  0  0  0  0  0  0  0  0
   -2.7390    2.0800    1.4030 C   0  0  0  0  0  0  0  0  0  0  0  0
   -3.7500    2.9140    1.8090 O   0  0  0  0  0  0  0  0  0  0  0  0
   -2.4200   -0.2080    0.1020 C   0  0  0  0  0  0  0  0  0  0  0  0
   -0.9790   -0.3280    0.3150 C   0  0  0  0  0  0  0  0  0  0  0  0
   -0.4230   -1.3570   -0.1260 O   0  0  0  0  0  0  0  0  0  0  0  0
   -0.2390    0.6240    0.9630 O   0  0  0  0  0  0  0  0  0  0  0  0
    1.1340    0.5370    1.1770 C   0  0  0  0  0  0  0  0  0  0  0  0
    1.8610    0.4910   -0.1320 C   0  0  1  0  0  0  0  0  0  0  0  0
    1.5550    1.6610   -0.8350 O   0  0  0  0  0  0  0  0  0  0  0  0
    3.3670    0.4870    0.0640 C   0  0  2  0  0  0  0  0  0  0  0  0
    3.7910    1.7350    0.7940 C   0  0  0  0  0  0  0  0  0  0  0  0
    4.0460    0.4490   -1.2880 C   0  0  0  0  0  0  0  0  0  0  0  0
    5.5290    0.4850   -1.1480 C   0  0  0  0  0  0  0  0  0  0  0  0
    6.0860   -0.5180   -0.1910 C   0  0  0  0  0  0  0  0  0  0  0  0
    5.2790   -0.7270    1.0370 C   0  0  0  0  0  0  0  0  0  0  0  0
    3.7910   -0.7540    0.8060 C   0  0  2  0  0  0  0  0  0  0  0  0
    3.4800   -1.8620    0.0200 O   0  0  0  0  0  0  0  0  0  0  0  0
   -3.2400   -1.0810   -0.5200 C   0  0  0  0  0  0  0  0  0  0  0  0
   -2.7640   -2.3600   -1.0840 C   0  0  0  0  0  0  0  0  0  0  0  0
   -4.4980   -0.4480   -0.6600 C   0  0  1  0  0  0  0  0  0  0  0  0
  1  2  1  0
  2  3  2  0
 27  2  1  1
  3  4  1  0
  4  5  2  0
  4  6  1  0
  6  7  2  0
  6 27  1  0
  7  8  1  0
  7 10  1  0
  8  9  1  0
 10 11  1  0
 10 25  2  0
 11 12  2  0
 11 13  1  0
 13 14  1  0
 14 15  1  0
 15 16  1  6
 15 17  1  0
 17 18  1  1
 17 19  1  0
 17 23  1  0
 19 20  1  0
 20 21  1  0
 21 22  1  0
 22 23  1  0
 23 24  1  6
 25 26  1  0
 25 27  1  0
M  END
