
     RDKit          3D

 28 28  0  0  0  0  0  0  0  0999 V2000
    3.7750    2.7630   -1.1060 N   0  0  0  0  0  0  0  0  0  0  0  0
    4.4600    2.0410    0.3190 S   0  0  1  0  0  0  0  0  0  0  0  0
    5.7470    2.8130    0.5830 O   0  0  0  0  0  0  0  0  0  0  0  0
    3.5930    2.2470    1.5030 O   0  0  0  0  0  0  0  0  0  0  0  0
    4.9160    0.3670    0.0430 C   0  0  0  0  0  0  0  0  0  0  0  0
    3.8780   -0.4750   -0.3300 O   0  0  0  0  0  0  0  0  0  0  0  0
    2.7390   -0.7740    0.3540 C   0  0  0  0  0  0  0  0  0  0  0  0
    2.6180   -0.1970    1.4920 O   0  0  0  0  0  0  0  0  0  0  0  0
    1.6470   -1.6740   -0.0680 C   0  0  2  0  0  0  0  0  0  0  0  0
    0.5680   -1.6730    0.9380 N   0  0  0  0  0  0  0  0  0  0  0  0
   -0.7500   -1.4350    0.5180 C   0  0  0  0  0  0  0  0  0  0  0  0
   -0.9750   -1.2280   -0.7200 O   0  0  0  0  0  0  0  0  0  0  0  0
   -1.8490   -1.4060    1.3470 O   0  0  0  0  0  0  0  0  0  0  0  0
   -3.1680   -1.1580    0.8570 C   0  0  0  0  0  0  0  0  0  0  0  0
   -3.2940    0.0780    0.2310 O   0  0  0  0  0  0  0  0  0  0  0  0
   -3.0460    1.2470    0.9000 C   0  0  0  0  0  0  0  0  0  0  0  0
   -2.6970    1.1920    2.1010 O   0  0  0  0  0  0  0  0  0  0  0  0
   -3.1870    2.5370    0.2170 C   0  0  2  0  0  0  0  0  0  0  0  0
   -4.1780    3.3910    0.9970 C   0  0  0  0  0  0  0  0  0  0  0  0
   -5.7790    2.5690    0.8900 S   0  0  0  0  0  0  0  0  0  0  0  0
   -5.8480    1.6010   -0.6050 C   0  0  0  0  0  0  0  0  0  0  0  0
   -4.6930    1.7280   -1.4880 C   0  0  0  0  0  0  0  0  0  0  0  0
   -4.7350    1.1770   -2.6160 O   0  0  0  0  0  0  0  0  0  0  0  0
   -3.5850    2.4240   -1.1190 O   0  0  0  0  0  0  0  0  0  0  0  0
    2.1790   -3.1100   -0.0170 C   0  0  1  0  0  0  0  0  0  0  0  0
    1.1160   -3.9950   -0.3250 O   0  0  0  0  0  0  0  0  0  0  0  0
    3.2770   -3.2840   -1.0160 C   0  0  0  0  0  0  0  0  0  0  0  0
    2.7810   -2.9700   -2.2810 O   0  0  0  0  0  0  0  0  0  0  0  0
  2  1  1  6
  2  3  2  0
  2  4  2  0
  2  5  1  0
  5  6  1  0
  6  7  1  0
  7  8  2  0
  7  9  1  0
  9 10  1  1
  9 25  1  0
 10 11  1  0
 11 12  2  0
 11 13  1  0
 13 14  1  0
 14 15  1  0
 15 16  1  0
 16 17  2  0
 18 16  1  1
 18 19  1  0
 18 24  1  0
 19 20  1  0
 20 21  1  0
 21 22  1  0
 22 23  2  0
 22 24  1  0
 25 26  1  6
 25 27  1  0
 27 28  1  0
M  END
