
     RDKit          3D

 31 34  0  0  0  0  0  0  0  0999 V2000
   -3.2350    5.3510   -1.5630 C   0  0  0  0  0  0  0  0  0  0  0  0
   -3.8160    3.6610   -1.2560 S   0  0  0  0  0  0  0  0  0  0  0  0
   -2.4620    2.6900   -0.6230 C   0  0  0  0  0  0  0  0  0  0  0  0
   -2.7530    1.2840   -0.3100 C   0  0  0  0  0  0  0  0  0  0  0  0
   -1.7760    0.4210    0.1910 C   0  0  0  0  0  0  0  0  0  0  0  0
   -0.3840    0.7860    0.4590 C   0  0  0  0  0  0  0  0  0  0  0  0
    0.0560    1.9350    0.2610 O   0  0  0  0  0  0  0  0  0  0  0  0
    0.4960   -0.2030    0.9620 N   0  0  0  0  0  0  0  0  0  0  0  0
    1.7610   -0.2370    0.7400 C   0  0  0  0  0  0  0  0  0  0  0  0
    2.5100   -1.2160    1.2610 N   0  0  0  0  0  0  0  0  0  0  0  0
    3.8110   -1.3950    1.1300 C   0  0  0  0  0  0  0  0  0  0  0  0
    4.2850   -2.4330    1.7430 O   0  0  0  0  0  0  0  0  0  0  0  0
    4.7160   -0.5990    0.4120 C   0  0  0  0  0  0  0  0  0  0  0  0
    6.1060   -1.0660    0.4850 C   0  0  1  0  0  0  0  0  0  0  0  0
    7.0810   -0.5670   -0.5090 C   0  0  0  0  0  0  0  0  0  0  0  0
    6.6540   -0.9730    1.8710 C   0  0  0  0  0  0  0  0  0  0  0  0
    7.6150   -0.2750    2.0660 O   0  0  0  0  0  0  0  0  0  0  0  0
    4.3380    0.5150   -0.2710 C   0  0  0  0  0  0  0  0  0  0  0  0
    5.2150    1.4310   -1.0250 C   0  0  0  0  0  0  0  0  0  0  0  0
    2.6420    0.8800   -0.1910 S   0  0  0  0  0  0  0  0  0  0  0  0
   -2.3460   -0.7760    0.3720 N   0  0  0  0  0  0  0  0  0  0  0  0
   -3.6410   -0.7080    0.0060 C   0  0  0  0  0  0  0  0  0  0  0  0
   -3.9370    0.5880   -0.4340 C   0  0  0  0  0  0  0  0  0  0  0  0
   -5.2020    0.9060   -0.8620 C   0  0  0  0  0  0  0  0  0  0  0  0
   -6.2060   -0.0520   -0.8640 C   0  0  0  0  0  0  0  0  0  0  0  0
   -5.9020   -1.3220   -0.4290 C   0  0  0  0  0  0  0  0  0  0  0  0
   -6.6370   -2.4590   -0.3100 N   0  0  0  0  0  0  0  0  0  0  0  0
   -5.8390   -3.4270    0.1730 C   0  0  0  0  0  0  0  0  0  0  0  0
   -4.6040   -2.9500    0.3720 N   0  0  0  0  0  0  0  0  0  0  0  0
   -3.4470   -3.6560    0.8800 C   0  0  0  0  0  0  0  0  0  0  0  0
   -4.6370   -1.6410   -0.0010 C   0  0  0  0  0  0  0  0  0  0  0  0
  1  2  1  0
  2  3  1  0
  3  4  1  0
  4  5  2  0
  4 23  1  0
  5  6  1  0
  5 21  1  0
  6  7  2  0
  6  8  1  0
  8  9  2  3
  9 10  1  0
  9 20  1  0
 10 11  1  0
 11 12  2  0
 11 13  1  0
 13 14  1  0
 13 18  2  0
 14 15  1  6
 14 16  1  0
 16 17  2  0
 18 19  1  0
 18 20  1  0
 21 22  1  0
 22 23  2  0
 22 31  1  0
 23 24  1  0
 24 25  2  0
 25 26  1  0
 26 27  1  0
 26 31  2  0
 27 28  2  0
 28 29  1  0
 29 30  1  0
 29 31  1  0
M  END
