
     RDKit          3D

 29 32  0  0  0  0  0  0  0  0999 V2000
   -3.2180   -0.4930   -4.2310 O   0  0  0  0  0  0  0  0  0  0  0  0
   -2.1810   -0.0090   -3.3330 C   0  0  1  0  0  0  0  0  0  0  0  0
   -2.2200    1.4720   -3.5670 C   0  0  0  0  0  0  0  0  0  0  0  0
   -3.8020    2.1900   -3.1650 Cl  0  0  0  0  0  0  0  0  0  0  0  0
   -2.6330   -0.4480   -2.0080 C   0  0  0  0  0  0  0  0  0  0  0  0
   -1.8560   -0.1990   -0.7840 C   0  0  1  0  0  0  0  0  0  0  0  0
   -0.5110   -0.7870   -0.8160 N   0  0  0  0  0  0  0  0  0  0  0  0
    0.4580   -0.0570   -1.5420 C   0  0  0  0  0  0  0  0  0  0  0  0
    1.7070    0.0260   -0.6830 C   0  0  0  0  0  0  0  0  0  0  0  0
    2.1340    1.1950   -0.3540 C   0  0  0  0  0  0  0  0  0  0  0  0
    3.2750    1.5930    0.4270 C   0  0  0  0  0  0  0  0  0  0  0  0
    3.4200    2.3790    1.5020 C   0  0  0  0  0  0  0  0  0  0  0  0
    4.6290    2.6410    1.9870 C   0  0  0  0  0  0  0  0  0  0  0  0
    5.7440    2.0860    1.3620 C   0  0  0  0  0  0  0  0  0  0  0  0
    4.9950    1.1350   -0.0010 S   0  0  0  0  0  0  0  0  0  0  0  0
    2.2320   -1.2370   -0.2280 C   0  0  0  0  0  0  0  0  0  0  0  0
    3.1020   -1.6120    0.7110 C   0  0  0  0  0  0  0  0  0  0  0  0
    3.4490   -2.8910    0.8900 C   0  0  0  0  0  0  0  0  0  0  0  0
    2.8560   -3.8400    0.0430 C   0  0  0  0  0  0  0  0  0  0  0  0
    1.8060   -2.8200   -0.9900 S   0  0  0  0  0  0  0  0  0  0  0  0
   -1.7620    1.1590   -0.2280 C   0  0  0  0  0  0  0  0  0  0  0  0
   -2.6190    1.4410    1.0030 C   0  0  0  0  0  0  0  0  0  0  0  0
   -2.0900    0.4930    2.0510 C   0  0  0  0  0  0  0  0  0  0  0  0
   -1.6330    0.5780    3.2660 C   0  0  0  0  0  0  0  0  0  0  0  0
   -1.5050    1.7410    4.0000 F   0  0  0  0  0  0  0  0  0  0  0  0
   -1.2760   -0.7900    3.7170 C   0  0  0  0  0  0  0  0  0  0  0  0
   -1.6090   -1.6360    2.5590 C   0  0  0  0  0  0  0  0  0  0  0  0
   -2.0720   -0.8900    1.6150 C   0  0  0  0  0  0  0  0  0  0  0  0
   -2.5620   -1.1420    0.2620 C   0  0  0  0  0  0  0  0  0  0  0  0
  2  1  1  6
  2  3  1  0
  2  5  1  0
  3  4  1  0
  6  5  1  6
  6  7  1  0
  6 21  1  0
  6 29  1  0
  7  8  1  0
  8  9  1  0
  9 10  2  3
  9 16  1  0
 10 11  1  0
 11 12  2  0
 11 15  1  0
 12 13  1  0
 13 14  2  0
 14 15  1  0
 16 17  2  0
 16 20  1  0
 17 18  1  0
 18 19  2  0
 19 20  1  0
 21 22  1  0
 22 23  1  0
 23 24  2  0
 23 28  1  0
 24 25  1  0
 24 26  1  0
 26 27  1  0
 27 28  2  0
 28 29  1  0
M  CHG  1   7   1
M  END
