
     RDKit          3D

 29 32  0  0  0  0  0  0  0  0999 V2000
    8.7670    0.7440    0.5900 C   0  0  0  0  0  0  0  0  0  0  0  0
    7.3720    0.5930    0.1090 C   0  0  0  0  0  0  0  0  0  0  0  0
    6.7010   -0.5620    0.3780 C   0  0  0  0  0  0  0  0  0  0  0  0
    5.4000   -0.7150   -0.0640 C   0  0  0  0  0  0  0  0  0  0  0  0
    4.7670   -1.8870    0.2260 O   0  0  0  0  0  0  0  0  0  0  0  0
    3.4610   -2.1740   -0.1350 C   0  0  0  0  0  0  0  0  0  0  0  0
    2.4830   -1.2230    0.5070 C   0  0  0  0  0  0  0  0  0  0  0  0
    2.8510    0.0800    1.6230 S   0  0  0  0  0  0  0  0  0  0  0  0
    1.1950    0.6260    1.8760 C   0  0  0  0  0  0  0  0  0  0  0  0
    0.4500   -0.2490    1.0670 C   0  0  0  0  0  0  0  0  0  0  0  0
    1.1440   -1.1700    0.3910 C   0  0  0  0  0  0  0  0  0  0  0  0
    0.2870   -2.0960   -0.4800 C   0  0  0  0  0  0  0  0  0  0  0  0
   -0.5590   -1.1230   -1.2800 C   0  0  0  0  0  0  0  0  0  0  0  0
   -1.4960   -0.4160   -0.4360 N   0  0  1  0  0  0  0  0  0  0  0  0
   -2.8120   -1.0800   -0.4770 C   0  0  0  0  0  0  0  0  0  0  0  0
   -3.8890   -0.0410   -0.4930 C   0  0  0  0  0  0  0  0  0  0  0  0
   -3.6540    1.7010   -0.4720 S   0  0  0  0  0  0  0  0  0  0  0  0
   -5.3800    2.1340   -0.5100 C   0  0  0  0  0  0  0  0  0  0  0  0
   -5.9560    3.5080   -0.5120 C   0  0  0  0  0  0  0  0  0  0  0  0
   -6.0020    0.9120   -0.5360 C   0  0  0  0  0  0  0  0  0  0  0  0
   -7.5200    0.8730   -0.5790 C   0  0  0  0  0  0  0  0  0  0  0  0
   -7.9560    1.1930   -1.8700 F   0  0  0  0  0  0  0  0  0  0  0  0
   -5.2380   -0.1950   -0.5270 C   0  0  0  0  0  0  0  0  0  0  0  0
   -5.8120   -1.6140   -0.5560 C   0  0  0  0  0  0  0  0  0  0  0  0
   -1.0740   -0.2450    0.9080 C   0  0  0  0  0  0  0  0  0  0  0  0
    4.7780    0.2780   -0.7690 C   0  0  0  0  0  0  0  0  0  0  0  0
    5.4690    1.4570   -1.0420 C   0  0  0  0  0  0  0  0  0  0  0  0
    6.7650    1.6280   -0.6090 C   0  0  0  0  0  0  0  0  0  0  0  0
    7.6710    3.0900   -0.9270 Cl  0  0  0  0  0  0  0  0  0  0  0  0
  1  2  1  0
  2  3  2  0
  2 28  1  0
  3  4  1  0
  4  5  1  0
  4 26  2  0
  5  6  1  0
  6  7  1  0
  7  8  1  0
  7 11  2  0
  8  9  1  0
  9 10  2  0
 10 11  1  0
 10 25  1  0
 11 12  1  0
 12 13  1  0
 13 14  1  0
 14 15  1  1
 14 25  1  0
 15 16  1  0
 16 17  1  0
 16 23  2  0
 17 18  1  0
 18 19  1  0
 18 20  2  0
 20 21  1  0
 20 23  1  0
 21 22  1  0
 23 24  1  0
 26 27  1  0
 27 28  2  0
 28 29  1  0
M  CHG  1  14   1
M  END
