
     RDKit          3D

 29 32  0  0  0  0  0  0  0  0999 V2000
   -6.7450   -2.7060    0.0910 C   0  0  0  0  0  0  0  0  0  0  0  0
   -6.5000   -1.2370   -0.0130 C   0  0  0  0  0  0  0  0  0  0  0  0
   -7.4950   -0.3730   -0.4170 C   0  0  0  0  0  0  0  0  0  0  0  0
   -7.2580    0.9910   -0.4340 C   0  0  0  0  0  0  0  0  0  0  0  0
   -8.4930    2.1050   -0.9810 Cl  0  0  0  0  0  0  0  0  0  0  0  0
   -6.0370    1.4330   -0.0460 C   0  0  0  0  0  0  0  0  0  0  0  0
   -5.7590    2.7600   -0.0640 F   0  0  0  0  0  0  0  0  0  0  0  0
   -4.9840    0.5790    0.3730 C   0  0  0  0  0  0  0  0  0  0  0  0
   -3.7560    1.2200    0.8970 C   0  0  2  0  0  0  0  0  0  0  0  0
   -2.6560    1.1440   -0.1870 C   0  0  0  0  0  0  0  0  0  0  0  0
   -1.3600    1.5690    0.4490 C   0  0  0  0  0  0  0  0  0  0  0  0
   -0.6290    0.3690    1.0170 C   0  0  2  0  0  0  0  0  0  0  0  0
    0.4400    0.0140    0.1120 N   0  0  0  0  0  0  0  0  0  0  0  0
    1.3290    1.1420   -0.0230 C   0  0  0  0  0  0  0  0  0  0  0  0
    2.7260    0.7260   -0.3880 C   0  0  0  0  0  0  0  0  0  0  0  0
    3.2100   -0.5340   -0.6410 C   0  0  0  0  0  0  0  0  0  0  0  0
    4.5640   -0.4430   -0.9860 C   0  0  0  0  0  0  0  0  0  0  0  0
    5.4260   -1.5830   -1.3300 C   0  0  0  0  0  0  0  0  0  0  0  0
    6.6580   -1.6700   -0.4460 C   0  0  0  0  0  0  0  0  0  0  0  0
    7.8820   -1.4400   -0.9090 C   0  0  0  0  0  0  0  0  0  0  0  0
    8.9720   -1.5150   -0.0860 C   0  0  0  0  0  0  0  0  0  0  0  0
    8.1980   -1.9630    1.5330 S   0  0  0  0  0  0  0  0  0  0  0  0
    6.5150   -1.9900    0.9130 C   0  0  0  0  0  0  0  0  0  0  0  0
    4.8600    0.8330   -0.9360 O   0  0  0  0  0  0  0  0  0  0  0  0
    3.8150    1.5630   -0.5860 C   0  0  0  0  0  0  0  0  0  0  0  0
    3.7680    3.0330   -0.4210 C   0  0  0  0  0  0  0  0  0  0  0  0
   -1.6030   -0.7510    1.3000 C   0  0  0  0  0  0  0  0  0  0  0  0
   -3.0450    0.0170    2.1560 S   0  0  0  0  0  0  0  0  0  0  0  0
   -5.2470   -0.7730    0.3810 C   0  0  0  0  0  0  0  0  0  0  0  0
  1  2  1  0
  2  3  2  0
  2 29  1  0
  3  4  1  0
  4  5  1  0
  4  6  2  0
  6  7  1  0
  6  8  1  0
  9  8  1  6
  8 29  2  0
  9 10  1  0
  9 28  1  0
 10 11  1  0
 11 12  1  0
 12 13  1  6
 12 27  1  0
 13 14  1  0
 14 15  1  0
 15 16  1  0
 15 25  2  0
 16 17  2  0
 17 18  1  0
 17 24  1  0
 18 19  1  0
 19 20  1  0
 19 23  2  0
 20 21  2  0
 21 22  1  0
 22 23  1  0
 24 25  1  0
 25 26  1  0
 27 28  1  0
M  CHG  1  13   1
M  END
