
     RDKit          3D

 29 32  0  0  0  0  0  0  0  0999 V2000
   -2.5560    0.3030    3.3010 C   0  0  0  0  0  0  0  0  0  0  0  0
   -2.3580    0.3790    1.8000 C   0  0  1  0  0  0  0  0  0  0  0  0
   -1.2830    1.4520    1.5790 C   0  0  0  0  0  0  0  0  0  0  0  0
   -1.7990   -0.9460    1.3600 C   0  0  0  0  0  0  0  0  0  0  0  0
   -1.5450   -0.9230   -0.1390 C   0  0  0  0  0  0  0  0  0  0  0  0
   -0.4710   -1.3770   -0.8110 C   0  0  0  0  0  0  0  0  0  0  0  0
   -0.4360   -1.2600   -2.1440 C   0  0  0  0  0  0  0  0  0  0  0  0
    0.5490   -1.6120   -3.2060 C   0  0  0  0  0  0  0  0  0  0  0  0
    1.5220   -0.1920   -3.6150 S   0  0  0  0  0  0  0  0  0  0  0  0
    2.6810    0.3080   -2.3760 C   0  0  0  0  0  0  0  0  0  0  0  0
    2.9720   -0.3740   -1.2210 C   0  0  0  0  0  0  0  0  0  0  0  0
    3.8910    0.1090   -0.2830 C   0  0  0  0  0  0  0  0  0  0  0  0
    4.5560    1.2980   -0.4690 C   0  0  0  0  0  0  0  0  0  0  0  0
    4.2710    1.9920   -1.6280 C   0  0  0  0  0  0  0  0  0  0  0  0
    3.3650    1.5150   -2.5510 C   0  0  0  0  0  0  0  0  0  0  0  0
    3.0420    2.4410   -4.0090 Cl  0  0  0  0  0  0  0  0  0  0  0  0
    5.4870    1.9100    0.3540 O   0  0  0  0  0  0  0  0  0  0  0  0
    6.4420    1.3720    1.1960 C   0  0  0  0  0  0  0  0  0  0  0  0
    6.0720    0.1450    1.9520 C   0  0  0  0  0  0  0  0  0  0  0  0
    5.5290   -0.9640    1.1240 C   0  0  0  0  0  0  0  0  0  0  0  0
    4.0250   -0.8090    0.8750 C   0  0  0  0  0  0  0  0  0  0  0  0
   -1.9710   -0.4780   -2.5320 S   0  0  0  0  0  0  0  0  0  0  0  0
   -2.5660   -0.3580   -0.8440 C   0  0  0  0  0  0  0  0  0  0  0  0
   -3.8210    0.1920   -0.2490 C   0  0  1  0  0  0  0  0  0  0  0  0
   -4.8630   -0.8240   -0.2040 N   0  0  0  0  0  0  0  0  0  0  0  0
   -5.6320   -0.8380   -1.4380 C   0  0  0  0  0  0  0  0  0  0  0  0
   -6.7650    0.1680   -1.3780 C   0  0  0  0  0  0  0  0  0  0  0  0
   -7.5860   -0.1630   -0.3270 F   0  0  0  0  0  0  0  0  0  0  0  0
   -3.5800    0.8280    1.0770 C   0  0  0  0  0  0  0  0  0  0  0  0
  2  1  1  1
  2  3  1  0
  2  4  1  0
  2 29  1  0
  4  5  1  0
  5  6  1  0
  5 23  2  0
  6  7  2  0
  7  8  1  0
  7 22  1  0
  8  9  1  0
  9 10  1  0
 10 11  2  0
 10 15  1  0
 11 12  1  0
 12 13  2  0
 12 21  1  0
 13 14  1  0
 13 17  1  0
 14 15  2  0
 15 16  1  0
 17 18  1  0
 18 19  1  0
 19 20  1  0
 20 21  1  0
 22 23  1  0
 23 24  1  0
 24 25  1  1
 24 29  1  0
 25 26  1  0
 26 27  1  0
 27 28  1  0
M  CHG  1  25   1
M  END
