
     RDKit          3D

 28 28  0  0  0  0  0  0  0  0999 V2000
   -5.8920   -0.1310   -0.9670 N   0  0  0  0  0  0  0  0  0  0  0  0
   -5.1440    0.7710   -0.1880 C   0  0  0  0  0  0  0  0  0  0  0  0
   -5.7130    1.6600    0.4620 O   0  0  0  0  0  0  0  0  0  0  0  0
   -3.6740    0.6490   -0.1490 C   0  0  1  0  0  0  0  0  0  0  0  0
   -3.1500    1.6370    0.6790 O   0  0  0  0  0  0  0  0  0  0  0  0
   -2.3740    2.7190    0.3730 C   0  0  0  0  0  0  0  0  0  0  0  0
   -2.8540    3.9030    0.5150 O   0  0  0  0  0  0  0  0  0  0  0  0
   -1.0870    2.6460   -0.0860 O   0  0  0  0  0  0  0  0  0  0  0  0
   -0.5390    1.8460   -1.0750 C   0  0  0  0  0  0  0  0  0  0  0  0
    0.9110    1.5610   -0.6880 C   0  0  0  0  0  0  0  0  0  0  0  0
    1.4020    0.2890   -1.2500 C   0  0  0  0  0  0  0  0  0  0  0  0
    1.2910    0.1590   -2.5190 O   0  0  0  0  0  0  0  0  0  0  0  0
    1.9740   -0.7860   -0.5430 N   0  0  0  0  0  0  0  0  0  0  0  0
    3.1910   -1.3780   -1.1310 C   0  0  0  0  0  0  0  0  0  0  0  0
    4.3690   -0.6390   -0.6230 C   0  0  0  0  0  0  0  0  0  0  0  0
    5.5270   -1.0660   -0.9550 O   0  0  0  0  0  0  0  0  0  0  0  0
    4.3460    0.4710    0.1770 O   0  0  0  0  0  0  0  0  0  0  0  0
    5.7740    1.2400    0.7000 S   0  0  1  0  0  0  0  0  0  0  0  0
    6.9670    0.3640    0.4940 O   0  0  0  0  0  0  0  0  0  0  0  0
    5.9470    2.5230   -0.0870 O   0  0  0  0  0  0  0  0  0  0  0  0
    1.4620   -1.3560    0.6730 C   0  0  1  0  0  0  0  0  0  0  0  0
    2.1230   -0.8420    1.9290 C   0  0  0  0  0  0  0  0  0  0  0  0
    1.5340   -1.4550    3.0640 O   0  0  0  0  0  0  0  0  0  0  0  0
   -0.0350   -1.2130    0.8460 C   0  0  0  0  0  0  0  0  0  0  0  0
   -0.9730   -2.1320   -0.3640 S   0  0  0  0  0  0  0  0  0  0  0  0
   -2.6070   -1.5020   -0.7090 C   0  0  0  0  0  0  0  0  0  0  0  0
   -3.2440   -0.7180    0.3880 C   0  0  1  0  0  0  0  0  0  0  0  0
   -2.5020   -0.6160    1.5450 O   0  0  0  0  0  0  0  0  0  0  0  0
  1  2  1  0
  2  3  2  0
  4  2  1  1
  4  5  1  0
  4 27  1  0
  5  6  1  0
  6  7  2  0
  6  8  1  0
  8  9  1  0
  9 10  1  0
 10 11  1  0
 11 12  2  0
 11 13  1  0
 13 14  1  0
 13 21  1  0
 14 15  1  0
 15 16  2  0
 15 17  1  0
 18 17  1  6
 18 19  2  0
 18 20  2  0
 21 22  1  1
 21 24  1  0
 22 23  1  0
 24 25  1  0
 25 26  1  0
 26 27  1  0
 27 28  1  1
M  END
