
     RDKit          3D

 28 29  0  0  0  0  0  0  0  0999 V2000
   -2.8000    0.8820    3.5810 C   0  0  0  0  0  0  0  0  0  0  0  0
   -2.2070    1.1050    2.2380 C   0  0  0  0  0  0  0  0  0  0  0  0
   -1.2180    1.8690    2.0510 O   0  0  0  0  0  0  0  0  0  0  0  0
   -2.7130    0.4830    1.1170 O   0  0  0  0  0  0  0  0  0  0  0  0
   -2.1960    0.6520   -0.1890 C   0  0  2  0  0  0  0  0  0  0  0  0
   -3.1920    1.2090   -1.1640 C   0  0  2  0  0  0  0  0  0  0  0  0
   -4.4020    1.3670   -0.4860 O   0  0  0  0  0  0  0  0  0  0  0  0
   -3.3330    0.3880   -2.4180 C   0  0  1  0  0  0  0  0  0  0  0  0
   -2.4090    0.8280   -3.3950 O   0  0  0  0  0  0  0  0  0  0  0  0
   -3.1810   -1.0730   -2.2330 C   0  0  1  0  0  0  0  0  0  0  0  0
   -2.5650   -1.7700   -3.4380 C   0  0  0  0  0  0  0  0  0  0  0  0
   -1.2250   -1.5450   -3.6010 O   0  0  0  0  0  0  0  0  0  0  0  0
   -2.5880   -1.4780   -1.0480 O   0  0  0  0  0  0  0  0  0  0  0  0
   -1.5680   -0.6340   -0.7270 C   0  0  2  0  0  0  0  0  0  0  0  0
   -0.4470   -1.3370    0.4300 S   0  0  2  0  0  0  0  0  0  0  0  0
    0.1730   -2.5490   -0.2040 O   0  0  0  0  0  0  0  0  0  0  0  0
   -1.1600   -1.8160    1.6720 O   0  0  0  0  0  0  0  0  0  0  0  0
    0.7890   -0.2790    0.9020 N   0  0  0  0  0  0  0  0  0  0  0  0
    1.6480    0.1640   -0.1450 C   0  0  0  0  0  0  0  0  0  0  0  0
    2.9060   -0.6910   -0.2200 C   0  0  0  0  0  0  0  0  0  0  0  0
    3.6500   -0.3670    1.0730 C   0  0  1  0  0  0  0  0  0  0  0  0
    3.6740    1.0010    1.2000 O   0  0  0  0  0  0  0  0  0  0  0  0
    5.1940    1.6450    1.3750 S   0  0  1  0  0  0  0  0  0  0  0  0
    6.3940    0.8470    0.4660 N   0  0  0  0  0  0  0  0  0  0  0  0
    5.1380    3.0820    0.9160 O   0  0  0  0  0  0  0  0  0  0  0  0
    5.6210    1.6690    2.8160 O   0  0  0  0  0  0  0  0  0  0  0  0
    2.7970   -0.9440    2.1740 C   0  0  0  0  0  0  0  0  0  0  0  0
    1.3840   -0.5210    2.1480 C   0  0  0  0  0  0  0  0  0  0  0  0
  1  2  1  0
  2  3  2  0
  2  4  1  0
  5  4  1  1
  5  6  1  0
  5 14  1  0
  6  7  1  1
  6  8  1  0
  8  9  1  6
  8 10  1  0
 10 11  1  6
 10 13  1  0
 11 12  1  0
 14 13  1  1
 14 15  1  0
 15 16  2  0
 15 17  2  0
 15 18  1  1
 18 19  1  0
 18 28  1  0
 19 20  1  0
 20 21  1  0
 21 22  1  1
 21 27  1  0
 22 23  1  0
 23 24  1  6
 23 25  2  0
 23 26  2  0
 27 28  1  0
M  END
