
     RDKit          3D

 27 27  0  0  0  0  0  0  0  0999 V2000
   -8.5980    1.5310   -1.2250 C   0  0  0  0  0  0  0  0  0  0  0  0
   -7.5120    0.6500   -1.0970 O   0  0  0  0  0  0  0  0  0  0  0  0
   -6.6370    0.6250    0.0020 C   0  0  0  0  0  0  0  0  0  0  0  0
   -6.8000    1.4110    0.9180 O   0  0  0  0  0  0  0  0  0  0  0  0
   -5.5590   -0.3660   -0.0100 C   0  0  1  0  0  0  0  0  0  0  0  0
   -5.1610   -0.7570   -1.7700 S   0  0  0  0  0  0  0  0  0  0  0  0
   -3.7760   -1.9150   -1.8620 C   0  0  0  0  0  0  0  0  0  0  0  0
   -2.7480   -1.5990   -0.7680 C   0  0  2  0  0  0  0  0  0  0  0  0
   -3.0200   -2.3470    0.3330 O   0  0  0  0  0  0  0  0  0  0  0  0
   -2.7720   -0.0840   -0.5400 C   0  0  2  0  0  0  0  0  0  0  0  0
   -1.4610    0.5080   -0.4710 C   0  0  0  0  0  0  0  0  0  0  0  0
   -1.0440    1.5250   -0.8630 O   0  0  0  0  0  0  0  0  0  0  0  0
   -0.3260   -0.5040    0.3100 N   0  0  0  0  0  0  0  0  0  0  0  0
    0.8920    0.3180   -0.0280 C   0  0  0  0  0  0  0  0  0  0  0  0
    0.9710    1.2500   -0.7160 O   0  0  0  0  0  0  0  0  0  0  0  0
    1.8510   -0.3900    0.7120 N   0  0  0  0  0  0  0  0  0  0  0  0
    3.2570    0.0400   -0.2980 C   0  0  0  0  0  0  0  0  0  0  0  0
    2.9850    0.7160   -1.1990 O   0  0  0  0  0  0  0  0  0  0  0  0
    4.3980   -0.6170    0.3100 C   0  0  0  0  0  0  0  0  0  0  0  0
    5.5190   -0.4830   -0.3270 O   0  0  0  0  0  0  0  0  0  0  0  0
    6.2770    0.4230   -0.7490 C   0  0  1  0  0  0  0  0  0  0  0  0
    5.9670    1.4810    0.6520 C   0  0  0  0  0  0  0  0  0  0  0  0
    6.8000    2.5030    0.3820 O   0  0  0  0  0  0  0  0  0  0  0  0
    7.7030   -0.2640    0.0420 C   0  0  0  0  0  0  0  0  0  0  0  0
    7.7250   -1.5080   -0.5550 O   0  0  0  0  0  0  0  0  0  0  0  0
   -4.0210    0.4100    0.6000 S   0  0  0  0  0  0  0  0  0  0  0  0
   -3.7620    0.1040    2.0410 O   0  0  0  0  0  0  0  0  0  0  0  0
  1  2  1  0
  2  3  1  0
  3  4  2  0
  5  3  1  6
  5  6  1  0
 26  5  1  6
  6  7  1  0
  7  8  1  0
  8  9  1  1
  8 10  1  0
 10 11  1  1
 10 26  1  0
 11 12  2  0
 11 13  1  0
 13 14  1  0
 14 15  2  0
 14 16  1  0
 16 17  1  0
 17 18  2  0
 17 19  1  0
 19 20  1  0
 20 21  1  0
 21 22  1  1
 21 24  1  0
 22 23  1  0
 24 25  1  0
 26 27  2  0
M  END
