
     RDKit          3D

 27 27  0  0  0  0  0  0  0  0999 V2000
    5.5930    2.3970   -0.3130 C   0  0  0  0  0  0  0  0  0  0  0  0
    4.7720    1.2100    0.0340 O   0  0  0  0  0  0  0  0  0  0  0  0
    5.2500   -0.0350   -0.3280 C   0  0  0  0  0  0  0  0  0  0  0  0
    6.3320   -0.1000   -0.9470 O   0  0  0  0  0  0  0  0  0  0  0  0
    4.4540   -1.2110    0.0120 C   0  0  1  0  0  0  0  0  0  0  0  0
    5.1210   -2.3820   -0.9180 C   0  0  0  0  0  0  0  0  0  0  0  0
    4.4240   -1.8190    1.3570 C   0  0  0  0  0  0  0  0  0  0  0  0
    5.7330   -1.8960    1.8760 O   0  0  0  0  0  0  0  0  0  0  0  0
    3.1250   -1.1820   -0.6530 N   0  0  0  0  0  0  0  0  0  0  0  0
    2.1240   -0.2450   -0.0470 C   0  0  0  0  0  0  0  0  0  0  0  0
    2.5920    0.4490    0.8350 O   0  0  0  0  0  0  0  0  0  0  0  0
    0.8490   -0.3880   -0.6510 N   0  0  0  0  0  0  0  0  0  0  0  0
   -0.0030    1.0010    0.2150 C   0  0  0  0  0  0  0  0  0  0  0  0
    0.6540    1.5510    0.8010 O   0  0  0  0  0  0  0  0  0  0  0  0
   -1.3360    0.7600   -0.2980 C   0  0  1  0  0  0  0  0  0  0  0  0
   -1.7860   -0.6830   -0.0150 C   0  0  0  0  0  0  0  0  0  0  0  0
   -2.0670   -1.0120    1.2480 O   0  0  0  0  0  0  0  0  0  0  0  0
   -2.5830    1.7310    0.6030 S   0  0  0  0  0  0  0  0  0  0  0  0
   -4.2670    1.4810    0.0420 C   0  0  1  0  0  0  0  0  0  0  0  0
   -4.4010    0.8050   -1.2930 C   0  0  0  0  0  0  0  0  0  0  0  0
   -5.4310   -0.6020   -1.2510 S   0  0  1  0  0  0  0  0  0  0  0  0
   -5.9360   -0.9180   -2.6580 O   0  0  0  0  0  0  0  0  0  0  0  0
   -4.7660   -1.8720   -0.8030 O   0  0  0  0  0  0  0  0  0  0  0  0
   -6.7310   -0.3910   -0.2500 O   0  0  0  0  0  0  0  0  0  0  0  0
   -6.5950    0.8460    0.3600 C   0  0  0  0  0  0  0  0  0  0  0  0
   -5.2470    0.9120    1.0480 C   0  0  2  0  0  0  0  0  0  0  0  0
   -5.3490    1.8260    2.1210 O   0  0  0  0  0  0  0  0  0  0  0  0
  1  2  1  0
  2  3  1  0
  3  4  2  0
  3  5  1  0
  5  6  1  6
  5  7  1  0
  5  9  1  0
  7  8  1  0
  9 10  1  0
 10 11  2  0
 10 12  1  0
 12 13  1  0
 13 14  2  0
 13 15  1  0
 15 16  1  1
 15 18  1  0
 16 17  1  0
 19 18  1  1
 19 20  1  0
 19 26  1  0
 21 20  1  6
 21 22  2  0
 21 23  2  0
 21 24  1  0
 24 25  1  0
 25 26  1  0
 26 27  1  1
M  END
