
     RDKit          3D

 21 22  0  0  0  0  0  0  0  0999 V2000
    3.7030    2.4180    0.6030 C   0  0  0  0  0  0  0  0  0  0  0  0
    4.7780    1.6080    0.0650 N   0  0  0  0  0  0  0  0  0  0  0  0
    4.5100    0.2710   -0.3250 C   0  0  0  0  0  0  0  0  0  0  0  0
    5.7400   -0.6250   -0.9320 S   0  0  0  0  0  0  0  0  0  0  0  0
    3.2000   -0.2640   -0.1860 N   0  0  0  0  0  0  0  0  0  0  0  0
    2.9880   -1.6150   -0.5950 C   0  0  0  0  0  0  0  0  0  0  0  0
    1.6300   -2.1310   -0.4370 C   0  0  0  0  0  0  0  0  0  0  0  0
    1.4170   -3.3340   -0.7970 O   0  0  0  0  0  0  0  0  0  0  0  0
    0.5170   -1.4340    0.0770 N   0  0  0  0  0  0  0  0  0  0  0  0
   -0.7870   -2.0180    0.1970 C   0  0  0  0  0  0  0  0  0  0  0  0
   -1.1200   -3.2710   -0.1560 N   0  0  0  0  0  0  0  0  0  0  0  0
   -2.3640   -3.4690    0.0810 O   0  0  0  0  0  0  0  0  0  0  0  0
   -2.8960   -2.3890    0.5860 C   0  0  0  0  0  0  0  0  0  0  0  0
   -4.3240   -2.2260    0.9940 C   0  0  0  0  0  0  0  0  0  0  0  0
   -1.9300   -1.4160    0.6860 C   0  0  0  0  0  0  0  0  0  0  0  0
   -2.0660   -0.0480    1.1960 C   0  0  0  0  0  0  0  0  0  0  0  0
   -2.0970    0.9780    0.1180 C   0  0  0  0  0  0  0  0  0  0  0  0
   -1.2320    1.9620   -0.0160 C   0  0  0  0  0  0  0  0  0  0  0  0
   -1.5830    2.7780   -1.2000 C   0  0  0  0  0  0  0  0  0  0  0  0
   -2.7800    2.0970   -1.7080 C   0  0  0  0  0  0  0  0  0  0  0  0
   -3.0690    1.0690   -0.9510 C   0  0  0  0  0  0  0  0  0  0  0  0
  1  2  1  0
  2  3  1  0
  3  4  2  0
  3  5  1  0
  5  6  1  0
  6  7  1  0
  7  8  2  0
  7  9  1  0
  9 10  1  0
 10 11  2  0
 10 15  1  0
 11 12  1  0
 12 13  1  0
 13 14  1  0
 13 15  2  0
 15 16  1  0
 16 17  1  0
 17 18  2  0
 17 21  1  0
 18 19  1  0
 19 20  1  0
 20 21  2  0
M  END
