
     RDKit          3D

 21 21  0  0  0  0  0  0  0  0999 V2000
   -4.2930    0.1660    1.6720 C   0  0  0  0  0  0  0  0  0  0  0  0
   -4.4230    1.4060    0.8300 C   0  0  0  0  0  0  0  0  0  0  0  0
   -3.7220    1.2850   -0.5100 C   0  0  0  0  0  0  0  0  0  0  0  0
   -4.2520    0.1860   -1.3190 C   0  0  0  0  0  0  0  0  0  0  0  0
   -5.6960    0.1180   -1.7250 C   0  0  0  0  0  0  0  0  0  0  0  0
   -3.4920   -0.7580   -1.7150 N   0  0  0  0  0  0  0  0  0  0  0  0
   -2.1170   -0.7610   -1.3820 C   0  0  0  0  0  0  0  0  0  0  0  0
   -1.0960    0.2330   -2.1640 S   0  0  0  0  0  0  0  0  0  0  0  0
   -1.6480   -1.6200   -0.3690 N   0  0  0  0  0  0  0  0  0  0  0  0
   -0.2490   -1.6310   -0.0290 C   0  0  0  0  0  0  0  0  0  0  0  0
    0.6460   -2.2060   -1.0770 C   0  0  0  0  0  0  0  0  0  0  0  0
    2.0240   -2.1670   -0.6260 N   0  0  0  0  0  0  0  0  0  0  0  0
    2.7110   -0.9700   -0.3060 C   0  0  0  0  0  0  0  0  0  0  0  0
    2.1350    0.1480   -0.4070 O   0  0  0  0  0  0  0  0  0  0  0  0
    4.0810   -1.0100    0.1410 N   0  0  0  0  0  0  0  0  0  0  0  0
    4.7770    0.1930    0.4660 C   0  0  0  0  0  0  0  0  0  0  0  0
    5.2790    0.4190    1.6620 C   0  0  0  0  0  0  0  0  0  0  0  0
    6.0120    1.6490    2.0580 C   0  0  0  0  0  0  0  0  0  0  0  0
    6.1000    2.5430    0.9950 O   0  0  0  0  0  0  0  0  0  0  0  0
    5.5920    2.3500   -0.2690 C   0  0  0  0  0  0  0  0  0  0  0  0
    4.9550    1.2360   -0.5480 C   0  0  0  0  0  0  0  0  0  0  0  0
  1  2  1  0
  2  3  1  0
  3  4  1  0
  4  5  1  0
  4  6  2  3
  6  7  1  0
  7  8  2  0
  7  9  1  0
  9 10  1  0
 10 11  1  0
 11 12  1  0
 12 13  1  0
 13 14  2  0
 13 15  1  0
 15 16  1  0
 16 17  2  0
 16 21  1  0
 17 18  1  0
 18 19  1  0
 19 20  1  0
 20 21  2  0
M  END
