
     RDKit          3D

 27 29  0  0  0  0  0  0  0  0999 V2000
   -4.3240    0.2550    1.2080 C   0  0  0  0  0  0  0  0  0  0  0  0
   -3.3940   -0.7450    0.6620 C   0  0  0  0  0  0  0  0  0  0  0  0
   -3.8560   -2.0100    0.4450 N   0  0  0  0  0  0  0  0  0  0  0  0
   -3.0430   -2.9230   -0.0280 C   0  0  0  0  0  0  0  0  0  0  0  0
   -3.4910   -4.0940   -0.2240 O   0  0  0  0  0  0  0  0  0  0  0  0
   -1.6980   -2.6160   -0.3140 C   0  0  0  0  0  0  0  0  0  0  0  0
   -1.1930   -1.3490   -0.0980 C   0  0  0  0  0  0  0  0  0  0  0  0
   -2.0580   -0.4010    0.3920 C   0  0  0  0  0  0  0  0  0  0  0  0
   -1.6010    0.9570    0.5600 C   0  0  0  0  0  0  0  0  0  0  0  0
   -1.9110    1.8830   -0.6260 C   0  0  0  0  0  0  0  0  0  0  0  0
   -1.3780    3.2880   -0.3250 C   0  0  2  0  0  0  0  0  0  0  0  0
   -1.6720    4.0790   -1.3970 F   0  0  0  0  0  0  0  0  0  0  0  0
   -0.0230    3.1840   -0.0750 F   0  0  0  0  0  0  0  0  0  0  0  0
   -1.9800    3.8110    0.8000 F   0  0  0  0  0  0  0  0  0  0  0  0
    0.2550   -1.2820   -0.2180 C   0  0  2  0  0  0  0  0  0  0  0  0
    1.1120   -0.1950    0.0970 C   0  0  0  0  0  0  0  0  0  0  0  0
    2.5600   -0.6350   -0.1380 C   0  0  0  0  0  0  0  0  0  0  0  0
    3.4950    0.4740    0.1870 C   0  0  0  0  0  0  0  0  0  0  0  0
    4.3110    0.9810   -0.7110 C   0  0  0  0  0  0  0  0  0  0  0  0
    5.1120    2.0570   -0.1070 C   0  0  0  0  0  0  0  0  0  0  0  0
    4.6490    2.1100    1.2790 C   0  0  0  0  0  0  0  0  0  0  0  0
    3.7130    1.1830    1.4240 C   0  0  0  0  0  0  0  0  0  0  0  0
    0.6060   -1.9020   -1.5080 C   0  0  0  0  0  0  0  0  0  0  0  0
    1.2470   -1.2810   -2.4400 O   0  0  0  0  0  0  0  0  0  0  0  0
    0.2140   -3.2620   -1.7530 N   0  0  0  0  0  0  0  0  0  0  0  0
   -1.0080   -3.6450   -1.1390 C   0  0  0  0  0  0  0  0  0  0  0  0
   -1.4700   -4.7990   -1.2920 O   0  0  0  0  0  0  0  0  0  0  0  0
  1  2  1  0
  2  3  1  0
  2  8  2  0
  3  4  1  0
  4  5  2  0
  4  6  1  0
  6  7  2  0
  6 26  1  0
  7  8  1  0
  7 15  1  0
  8  9  1  0
  9 10  1  0
 10 11  1  0
 11 12  1  6
 11 13  1  0
 11 14  1  0
 15 16  1  6
 15 23  1  0
 16 17  1  0
 17 18  1  0
 18 19  2  0
 18 22  1  0
 19 20  1  0
 20 21  1  0
 21 22  2  0
 23 24  2  0
 23 25  1  0
 25 26  1  0
 26 27  2  0
M  END
