
     RDKit          3D

 27 28  0  0  0  0  0  0  0  0999 V2000
   -5.1280   -1.9300    0.7760 C   0  0  0  0  0  0  0  0  0  0  0  0
   -4.2700   -1.2880    0.0390 C   0  0  0  0  0  0  0  0  0  0  0  0
   -4.7160   -0.9620   -1.2620 C   0  0  0  0  0  0  0  0  0  0  0  0
   -3.9470   -0.3140   -2.1550 C   0  0  0  0  0  0  0  0  0  0  0  0
   -2.6790    0.0310   -1.7580 C   0  0  0  0  0  0  0  0  0  0  0  0
   -2.1950   -0.2580   -0.5170 C   0  0  0  0  0  0  0  0  0  0  0  0
   -0.8310    0.0330   -0.1680 N   0  0  0  0  0  0  0  0  0  0  0  0
   -0.0000    0.9640   -0.8400 C   0  0  0  0  0  0  0  0  0  0  0  0
   -0.4280    1.6170   -1.8140 O   0  0  0  0  0  0  0  0  0  0  0  0
    1.3480    1.1940   -0.4420 N   0  0  0  0  0  0  0  0  0  0  0  0
    1.8840    0.5150    0.6830 C   0  0  0  0  0  0  0  0  0  0  0  0
    2.4340   -0.8220    0.2410 C   0  0  0  0  0  0  0  0  0  0  0  0
    2.4140   -1.2890   -0.9900 C   0  0  0  0  0  0  0  0  0  0  0  0
    1.8830   -0.6200   -2.0640 F   0  0  0  0  0  0  0  0  0  0  0  0
    3.0490   -2.6220   -0.9910 C   0  0  0  0  0  0  0  0  0  0  0  0
    3.4350   -2.8560    0.4030 C   0  0  0  0  0  0  0  0  0  0  0  0
    3.0750   -1.8090    1.1100 C   0  0  0  0  0  0  0  0  0  0  0  0
    3.2790   -1.6640    2.4930 O   0  0  0  0  0  0  0  0  0  0  0  0
    2.1060    2.1330   -1.2540 C   0  0  0  0  0  0  0  0  0  0  0  0
    2.0040    3.5540   -0.8720 C   0  0  2  0  0  0  0  0  0  0  0  0
    2.7940    4.3400   -1.7440 O   0  0  0  0  0  0  0  0  0  0  0  0
    2.5500    3.7890    0.5130 C   0  0  1  0  0  0  0  0  0  0  0  0
    3.8740    3.4280    0.6120 F   0  0  0  0  0  0  0  0  0  0  0  0
    2.5240    5.1610    0.7750 F   0  0  0  0  0  0  0  0  0  0  0  0
   -3.0020   -0.9410    0.4360 C   0  0  0  0  0  0  0  0  0  0  0  0
   -2.4970   -1.1400    1.6270 C   0  0  0  0  0  0  0  0  0  0  0  0
   -3.0620   -1.7440    2.8150 C   0  0  0  0  0  0  0  0  0  0  0  0
  1  2  2  0
  2  3  1  0
  2 25  1  0
  3  4  2  0
  4  5  1  0
  5  6  2  0
  6  7  1  0
  6 25  1  0
  7  8  1  0
  8  9  2  0
  8 10  1  0
 10 11  1  0
 10 19  1  0
 11 12  1  0
 12 13  2  0
 12 17  1  0
 13 14  1  0
 13 15  1  0
 15 16  1  0
 16 17  2  0
 17 18  1  0
 19 20  1  0
 20 21  1  6
 20 22  1  0
 22 23  1  6
 22 24  1  0
 25 26  2  3
 26 27  1  0
M  END
