
     RDKit          3D

 27 28  0  0  0  0  0  0  0  0999 V2000
    5.0460    0.1760   -0.4550 C   0  0  0  0  0  0  0  0  0  0  0  0
    4.0230    0.3640   -1.5510 C   0  0  1  0  0  0  0  0  0  0  0  0
    3.4930    1.7930   -1.4090 C   0  0  0  0  0  0  0  0  0  0  0  0
    4.6920    0.2590   -2.8970 C   0  0  0  0  0  0  0  0  0  0  0  0
    2.9170   -0.6140   -1.4500 C   0  0  0  0  0  0  0  0  0  0  0  0
    2.6420   -1.4430   -2.3630 O   0  0  0  0  0  0  0  0  0  0  0  0
    2.0970   -0.6600   -0.2890 N   0  0  0  0  0  0  0  0  0  0  0  0
    1.0110   -1.5740   -0.1160 C   0  0  1  0  0  0  0  0  0  0  0  0
    1.3380   -2.5150    0.9880 C   0  0  0  0  0  0  0  0  0  0  0  0
    2.4480   -2.4230    1.6120 O   0  0  0  0  0  0  0  0  0  0  0  0
    0.4700   -3.5430    1.4110 N   0  0  0  0  0  0  0  0  0  0  0  0
    0.8010   -4.3750    2.4150 O   0  0  0  0  0  0  0  0  0  0  0  0
   -0.3030   -0.9280    0.0500 C   0  0  0  0  0  0  0  0  0  0  0  0
   -0.3910    0.1550    0.9000 C   0  0  0  0  0  0  0  0  0  0  0  0
   -1.6110    0.7560    1.0540 C   0  0  0  0  0  0  0  0  0  0  0  0
   -2.7690    0.3570    0.4200 C   0  0  0  0  0  0  0  0  0  0  0  0
   -4.0410    1.0250    0.6160 C   0  0  0  0  0  0  0  0  0  0  0  0
   -4.0970    2.3750    0.8700 C   0  0  0  0  0  0  0  0  0  0  0  0
   -5.3160    3.0280    1.0600 C   0  0  0  0  0  0  0  0  0  0  0  0
   -5.3720    4.3510    1.3090 F   0  0  0  0  0  0  0  0  0  0  0  0
   -6.4920    2.3210    0.9940 C   0  0  0  0  0  0  0  0  0  0  0  0
   -7.6710    2.9580    1.1790 F   0  0  0  0  0  0  0  0  0  0  0  0
   -6.4560    0.9480    0.7370 C   0  0  0  0  0  0  0  0  0  0  0  0
   -7.6390    0.2960    0.6820 F   0  0  0  0  0  0  0  0  0  0  0  0
   -5.2220    0.3260    0.5520 C   0  0  0  0  0  0  0  0  0  0  0  0
   -2.6510   -0.7400   -0.4320 C   0  0  0  0  0  0  0  0  0  0  0  0
   -1.4250   -1.3770   -0.6150 C   0  0  0  0  0  0  0  0  0  0  0  0
  2  1  1  1
  2  3  1  0
  2  4  1  0
  2  5  1  0
  5  6  2  0
  5  7  1  0
  8  7  1  1
  8  9  1  0
  8 13  1  0
  9 10  2  0
  9 11  1  0
 11 12  1  0
 13 14  2  0
 13 27  1  0
 14 15  1  0
 15 16  2  0
 16 17  1  0
 16 26  1  0
 17 18  2  0
 17 25  1  0
 18 19  1  0
 19 20  1  0
 19 21  2  0
 21 22  1  0
 21 23  1  0
 23 24  1  0
 23 25  2  0
 26 27  2  0
M  END
