
     RDKit          3D

 10 10  0  0  0  0  0  0  0  0999 V2000
    1.0590   -1.3370    1.1750 O   0  0  0  0  0  0  0  0  0  0  0  0
    0.6340   -0.3500    0.2870 C   0  0  2  0  0  0  0  0  0  0  0  0
    1.8460    0.1520   -0.4420 C   0  0  1  0  0  0  0  0  0  0  0  0
    1.4630    1.4220   -1.6160 Cl  0  0  0  0  0  0  0  0  0  0  0  0
    3.1050    0.7370    0.6690 Cl  0  0  0  0  0  0  0  0  0  0  0  0
    2.5050   -1.2390   -1.3430 Cl  0  0  0  0  0  0  0  0  0  0  0  0
   -0.1420    0.7260    0.9890 C   0  0  0  0  0  0  0  0  0  0  0  0
   -1.5640    0.6330    0.4590 C   0  0  0  0  0  0  0  0  0  0  0  0
   -1.3670    0.1120   -0.9440 C   0  0  0  0  0  0  0  0  0  0  0  0
   -0.3020   -0.9420   -0.7370 C   0  0  0  0  0  0  0  0  0  0  0  0
  2  1  1  1
  2  3  1  0
  2  7  1  0
  2 10  1  0
  3  4  1  6
  3  5  1  0
  3  6  1  0
  7  8  1  0
  8  9  1  0
  9 10  1  0
M  END
