
     RDKit          3D

 27 28  0  0  0  0  0  0  0  0999 V2000
    7.3980    0.5310    1.9100 C   0  0  0  0  0  0  0  0  0  0  0  0
    6.0270    1.0200    1.6460 C   0  0  0  0  0  0  0  0  0  0  0  0
    5.1910    0.3880    0.8340 C   0  0  0  0  0  0  0  0  0  0  0  0
    3.8800    0.9270    0.6300 N   0  0  0  0  0  0  0  0  0  0  0  0
    2.8020    0.1280    0.1710 C   0  0  0  0  0  0  0  0  0  0  0  0
    1.4760    0.7550   -0.0160 C   0  0  0  0  0  0  0  0  0  0  0  0
    1.3100    1.9590    0.2250 O   0  0  0  0  0  0  0  0  0  0  0  0
    0.4590   -0.0460   -0.4610 O   0  0  0  0  0  0  0  0  0  0  0  0
   -0.8390    0.4790   -0.6640 C   0  0  0  0  0  0  0  0  0  0  0  0
   -1.7200   -0.6380   -1.1490 C   0  0  1  0  0  0  0  0  0  0  0  0
   -1.7500   -1.7350   -0.1020 C   0  0  0  0  0  0  0  0  0  0  0  0
   -3.1230   -0.2090   -1.3680 C   0  0  0  0  0  0  0  0  0  0  0  0
   -3.5930   -0.3220   -2.5190 O   0  0  0  0  0  0  0  0  0  0  0  0
   -3.9420    0.3120   -0.3560 N   0  0  0  0  0  0  0  0  0  0  0  0
   -5.2640    0.7520   -0.4130 C   0  0  0  0  0  0  0  0  0  0  0  0
   -5.8760    1.2610    0.7310 C   0  0  0  0  0  0  0  0  0  0  0  0
   -7.1770    1.6960    0.6930 C   0  0  0  0  0  0  0  0  0  0  0  0
   -7.9210    1.6520   -0.4510 C   0  0  0  0  0  0  0  0  0  0  0  0
   -7.3320    1.1530   -1.5850 C   0  0  0  0  0  0  0  0  0  0  0  0
   -6.0010    0.7040   -1.5600 C   0  0  0  0  0  0  0  0  0  0  0  0
    3.0190   -1.1350   -0.0710 C   0  0  0  0  0  0  0  0  0  0  0  0
    4.3320   -1.7340    0.1190 C   0  0  0  0  0  0  0  0  0  0  0  0
    4.4330   -3.0310    0.2970 C   0  0  0  0  0  0  0  0  0  0  0  0
    5.6590   -3.6070    0.4770 F   0  0  0  0  0  0  0  0  0  0  0  0
    3.3560   -3.8510    0.3120 F   0  0  0  0  0  0  0  0  0  0  0  0
    5.5300   -0.8610    0.1080 C   0  0  2  0  0  0  0  0  0  0  0  0
    6.4930   -1.5330    0.8520 F   0  0  0  0  0  0  0  0  0  0  0  0
  1  2  1  0
  2  3  2  3
  3  4  1  0
  3 26  1  0
  4  5  1  0
  5  6  1  0
  5 21  2  0
  6  7  2  0
  6  8  1  0
  8  9  1  0
  9 10  1  0
 10 11  1  1
 10 12  1  0
 12 13  2  0
 12 14  1  0
 14 15  1  0
 15 16  2  0
 15 20  1  0
 16 17  1  0
 17 18  2  0
 18 19  1  0
 19 20  2  0
 21 22  1  0
 22 23  2  3
 22 26  1  0
 23 24  1  0
 23 25  1  0
 26 27  1  1
M  END
