
     RDKit          3D

 20 21  0  0  0  0  0  0  0  0999 V2000
    5.4720   -0.0430   -0.1060 N   0  0  0  0  0  0  0  0  0  0  0  0
    4.3550    0.9040   -0.2760 C   0  0  1  0  0  0  0  0  0  0  0  0
    3.3410    0.3330   -1.1530 C   0  0  0  0  0  0  0  0  0  0  0  0
    2.0650    0.1820   -0.8530 C   0  0  0  0  0  0  0  0  0  0  0  0
    1.2710   -0.3810   -1.8290 O   0  0  0  0  0  0  0  0  0  0  0  0
    1.4960    0.5720    0.4110 C   0  0  0  0  0  0  0  0  0  0  0  0
    0.2630    0.4710    0.8080 C   0  0  0  0  0  0  0  0  0  0  0  0
   -0.8920   -0.0540    0.1200 C   0  0  0  0  0  0  0  0  0  0  0  0
   -0.9170   -0.5250   -1.0320 O   0  0  0  0  0  0  0  0  0  0  0  0
   -2.1610   -0.0500    0.7980 N   0  0  0  0  0  0  0  0  0  0  0  0
   -3.3410   -0.5430    0.2000 C   0  0  0  0  0  0  0  0  0  0  0  0
   -3.5680   -1.0680   -0.9780 C   0  0  0  0  0  0  0  0  0  0  0  0
   -4.9970   -1.4290   -1.1180 C   0  0  0  0  0  0  0  0  0  0  0  0
   -5.5650   -1.0430    0.1350 N   0  0  0  0  0  0  0  0  0  0  0  0
   -4.6660   -0.5480    0.8860 C   0  0  0  0  0  0  0  0  0  0  0  0
   -4.9080   -0.0730    2.1880 O   0  0  0  0  0  0  0  0  0  0  0  0
   -6.6900    0.1760    2.7670 Br  0  0  0  0  0  0  0  0  0  0  0  0
    2.4540    1.1530    1.3410 N   0  0  0  0  0  0  0  0  0  0  0  0
    3.8220    1.3190    1.0310 C   0  0  0  0  0  0  0  0  0  0  0  0
    4.5830    1.8390    1.9140 O   0  0  0  0  0  0  0  0  0  0  0  0
  2  1  1  1
  2  3  1  0
  2 19  1  0
  3  4  2  0
  4  5  1  0
  4  6  1  0
  6  7  2  3
  6 18  1  0
  7  8  1  0
  8  9  2  0
  8 10  1  0
 10 11  1  0
 11 12  2  0
 11 15  1  0
 12 13  1  0
 13 14  1  0
 14 15  2  0
 15 16  1  0
 16 17  1  0
 18 19  1  0
 19 20  2  0
M  END
