
     RDKit          3D

 20 21  0  0  0  0  0  0  0  0999 V2000
    5.8370   -2.0230    0.2670 O   0  0  0  0  0  0  0  0  0  0  0  0
    4.9970   -1.0780    0.1900 C   0  0  0  0  0  0  0  0  0  0  0  0
    3.6070   -1.3750    0.6220 C   0  0  0  0  0  0  0  0  0  0  0  0
    2.6010   -0.5150   -0.1260 C   0  0  1  0  0  0  0  0  0  0  0  0
    1.2970   -0.6130    0.6210 C   0  0  0  0  0  0  0  0  0  0  0  0
    0.2160    0.1790    0.0030 C   0  0  0  0  0  0  0  0  0  0  0  0
    0.4210    0.8590   -1.0560 O   0  0  0  0  0  0  0  0  0  0  0  0
   -1.0560    0.1820    0.5930 N   0  0  0  0  0  0  0  0  0  0  0  0
   -2.1520    0.9220    0.0560 C   0  0  2  0  0  0  0  0  0  0  0  0
   -2.7250    1.8650    1.0230 N   0  0  0  0  0  0  0  0  0  0  0  0
   -3.9370    2.2420    0.3070 C   0  0  0  0  0  0  0  0  0  0  0  0
   -4.4240    0.9760   -0.1110 O   0  0  0  0  0  0  0  0  0  0  0  0
   -3.3510    0.0790   -0.2220 C   0  0  0  0  0  0  0  0  0  0  0  0
   -3.4200   -1.1910   -0.5050 C   0  0  0  0  0  0  0  0  0  0  0  0
   -4.7300   -1.8240   -0.7460 C   0  0  0  0  0  0  0  0  0  0  0  0
   -4.8390   -2.5880   -2.5190 Br  0  0  0  0  0  0  0  0  0  0  0  0
    3.0170    0.8660   -0.1600 N   0  0  0  0  0  0  0  0  0  0  0  0
    4.3730    1.1890   -0.4680 C   0  0  0  0  0  0  0  0  0  0  0  0
    4.6980    2.3260   -0.8930 O   0  0  0  0  0  0  0  0  0  0  0  0
    5.3920    0.1990   -0.2920 N   0  0  0  0  0  0  0  0  0  0  0  0
  1  2  2  0
  2  3  1  0
  2 20  1  0
  3  4  1  0
  4  5  1  1
  4 17  1  0
  5  6  1  0
  6  7  2  0
  6  8  1  0
  9  8  1  1
  9 10  1  0
  9 13  1  0
 10 11  1  0
 11 12  1  0
 12 13  1  0
 13 14  2  3
 14 15  1  0
 15 16  1  0
 17 18  1  0
 18 19  2  0
 18 20  1  0
M  END
