
     RDKit          3D

 20 21  0  0  0  0  0  0  0  0999 V2000
   -3.5980    2.1340   -1.0270 C   0  0  0  0  0  0  0  0  0  0  0  0
   -2.7280    1.0080   -0.6600 N   0  0  0  0  0  0  0  0  0  0  0  0
   -2.8440   -0.2890   -1.2270 C   0  0  0  0  0  0  0  0  0  0  0  0
   -3.7770   -0.5160   -2.0750 O   0  0  0  0  0  0  0  0  0  0  0  0
   -1.9430   -1.2970   -0.8240 N   0  0  0  0  0  0  0  0  0  0  0  0
   -0.9560   -1.1830    0.2670 C   0  0  2  0  0  0  0  0  0  0  0  0
   -1.8080   -1.2690    1.5260 C   0  0  0  0  0  0  0  0  0  0  0  0
   -2.1170   -2.5240    2.0850 N   0  0  0  0  0  0  0  0  0  0  0  0
   -2.2670   -0.2210    2.0750 O   0  0  0  0  0  0  0  0  0  0  0  0
   -0.5020    0.2490    0.1450 C   0  0  2  0  0  0  0  0  0  0  0  0
    0.6650    0.7040    0.6700 O   0  0  0  0  0  0  0  0  0  0  0  0
    1.9760    0.4930    0.3430 C   0  0  0  0  0  0  0  0  0  0  0  0
    2.3290   -0.1760   -0.7660 C   0  0  0  0  0  0  0  0  0  0  0  0
    3.7110   -0.4390   -1.1940 C   0  0  0  0  0  0  0  0  0  0  0  0
    4.6670    0.0020   -0.2520 N   0  0  0  0  0  0  0  0  0  0  0  0
    4.3090    0.7490    0.8860 C   0  0  0  0  0  0  0  0  0  0  0  0
    5.7300    1.4810    1.9310 Br  0  0  0  0  0  0  0  0  0  0  0  0
    3.0380    0.9920    1.2080 C   0  0  0  0  0  0  0  0  0  0  0  0
   -1.6740    1.1500    0.3190 C   0  0  0  0  0  0  0  0  0  0  0  0
   -1.8240    1.9980    1.2270 O   0  0  0  0  0  0  0  0  0  0  0  0
  1  2  1  0
  2  3  1  0
  2 19  1  0
  3  4  2  0
  3  5  1  0
  5  6  1  0
  6  7  1  1
  6 10  1  0
  7  8  1  0
  7  9  2  0
 10 11  1  1
 10 19  1  0
 11 12  1  0
 12 13  2  0
 12 18  1  0
 13 14  1  0
 14 15  1  0
 15 16  1  0
 16 17  1  0
 16 18  2  0
 19 20  2  0
M  END
