
     RDKit          3D

 12 12  0  0  0  0  0  0  0  0999 V2000
    2.8990    1.2580   -1.1760 C   0  0  0  0  0  0  0  0  0  0  0  0
    2.0420    0.3560   -0.3420 C   0  0  1  0  0  0  0  0  0  0  0  0
    1.5890    0.9660    0.9390 C   0  0  0  0  0  0  0  0  0  0  0  0
    0.3850    0.3230    1.1930 O   0  0  0  0  0  0  0  0  0  0  0  0
    0.1160   -0.4890    0.1160 C   0  0  1  0  0  0  0  0  0  0  0  0
    0.6920   -1.8640    0.3830 C   0  0  0  0  0  0  0  0  0  0  0  0
   -1.3450   -0.6060   -0.1540 C   0  0  1  0  0  0  0  0  0  0  0  0
   -1.6660   -1.5340   -1.3020 C   0  0  0  0  0  0  0  0  0  0  0  0
   -1.9490   -1.1450    0.9790 O   0  0  0  0  0  0  0  0  0  0  0  0
   -1.9990    0.7190   -0.4570 C   0  0  0  0  0  0  0  0  0  0  0  0
   -1.8530    1.6510    0.6450 N   0  0  0  0  0  0  0  0  0  0  0  0
    0.8140    0.0660   -0.9770 O   0  0  0  0  0  0  0  0  0  0  0  0
  2  1  1  6
  2  3  1  0
  2 12  1  0
  3  4  1  0
  4  5  1  0
  5  6  1  1
  5  7  1  0
  5 12  1  0
  7  8  1  6
  7  9  1  0
  7 10  1  0
 10 11  1  0
M  CHG  1  11   1
M  END
