
     RDKit          3D

 20 21  0  0  0  0  0  0  0  0999 V2000
   -2.6680    1.1060   -1.5780 O   0  0  0  0  0  0  0  0  0  0  0  0
   -1.4900    1.2260   -1.1400 C   0  0  0  0  0  0  0  0  0  0  0  0
   -1.3930    1.5000    0.3170 C   0  0  0  0  0  0  0  0  0  0  0  0
   -2.2500    0.6040    1.1160 C   0  0  0  0  0  0  0  0  0  0  0  0
   -2.1320    0.7660    2.3660 O   0  0  0  0  0  0  0  0  0  0  0  0
   -3.1480   -0.3710    0.6390 N   0  0  0  0  0  0  0  0  0  0  0  0
   -2.8780   -1.4220   -0.2870 C   0  0  0  0  0  0  0  0  0  0  0  0
   -3.7920   -1.7320   -1.1510 O   0  0  0  0  0  0  0  0  0  0  0  0
   -1.7040   -2.1740   -0.3670 N   0  0  0  0  0  0  0  0  0  0  0  0
   -0.4280   -1.9430    0.2530 C   0  0  0  0  0  0  0  0  0  0  0  0
    0.6540   -1.5660   -0.6940 C   0  0  0  0  0  0  0  0  0  0  0  0
    1.5450   -0.5680   -0.0500 C   0  0  0  0  0  0  0  0  0  0  0  0
    2.2330   -1.0180    0.9900 C   0  0  0  0  0  0  0  0  0  0  0  0
    3.1110   -0.2210    1.7080 O   0  0  0  0  0  0  0  0  0  0  0  0
    3.3140    1.1060    1.3450 C   0  0  2  0  0  0  0  0  0  0  0  0
    3.0710    2.3170    2.8510 Br  0  0  0  0  0  0  0  0  0  0  0  0
    2.5260    1.5670    0.1790 C   0  0  0  0  0  0  0  0  0  0  0  0
    1.6820    0.8160   -0.5070 C   0  0  0  0  0  0  0  0  0  0  0  0
    0.9680    1.3570   -1.6160 N   0  0  0  0  0  0  0  0  0  0  0  0
   -0.3380    1.1100   -1.9720 N   0  0  0  0  0  0  0  0  0  0  0  0
  1  2  2  0
  2  3  1  0
  2 20  1  0
  3  4  1  0
  4  5  2  0
  4  6  1  0
  6  7  1  0
  7  8  2  0
  7  9  1  0
  9 10  1  0
 10 11  1  0
 11 12  1  0
 12 13  2  0
 12 18  1  0
 13 14  1  0
 14 15  1  0
 15 16  1  1
 15 17  1  0
 17 18  2  0
 18 19  1  0
 19 20  1  0
M  END
