
     RDKit          3D

 19 21  0  0  0  0  0  0  0  0999 V2000
    4.6650    1.5390   -1.3300 N   0  0  0  0  0  0  0  0  0  0  0  0
    4.0650    0.3920   -0.6280 C   0  0  0  0  0  0  0  0  0  0  0  0
    4.9490   -0.4010   -0.2600 O   0  0  0  0  0  0  0  0  0  0  0  0
    2.6580    0.3270   -0.4640 C   0  0  0  0  0  0  0  0  0  0  0  0
    1.8440   -0.5120    0.0840 C   0  0  0  0  0  0  0  0  0  0  0  0
    0.4390   -0.1890    0.0290 O   0  0  0  0  0  0  0  0  0  0  0  0
   -0.5300   -0.9810    0.5650 C   0  0  0  0  0  0  0  0  0  0  0  0
   -1.9430   -0.5940    0.4740 C   0  0  0  0  0  0  0  0  0  0  0  0
   -2.3860    0.5080   -0.1090 C   0  0  0  0  0  0  0  0  0  0  0  0
   -2.1500    1.7090   -0.7980 N   0  0  0  0  0  0  0  0  0  0  0  0
   -3.4230    2.3020   -1.0060 C   0  0  0  0  0  0  0  0  0  0  0  0
   -4.3790    1.5640   -0.5520 N   0  0  0  0  0  0  0  0  0  0  0  0
   -3.9130    0.4080   -0.0360 C   0  0  2  0  0  0  0  0  0  0  0  0
   -4.0270   -0.2000    1.2240 N   0  0  0  0  0  0  0  0  0  0  0  0
   -3.0610   -1.3040    0.9990 O   0  0  0  0  0  0  0  0  0  0  0  0
   -0.1540   -2.0950    1.1600 C   0  0  0  0  0  0  0  0  0  0  0  0
    1.2240   -2.5110    1.2710 C   0  0  0  0  0  0  0  0  0  0  0  0
    2.2040   -1.7330    0.7420 C   0  0  0  0  0  0  0  0  0  0  0  0
    3.9760   -2.3590    0.9360 Br  0  0  0  0  0  0  0  0  0  0  0  0
  1  2  1  0
  2  3  2  0
  2  4  1  0
  4  5  2  3
  5  6  1  0
  5 18  1  0
  6  7  1  0
  7  8  1  0
  7 16  2  0
  8  9  2  0
  8 15  1  0
  9 10  1  0
  9 13  1  0
 10 11  1  0
 11 12  2  0
 12 13  1  0
 13 14  1  1
 14 15  1  0
 16 17  1  0
 17 18  2  0
 18 19  1  0
M  END
