
     RDKit          3D

 45 49  0  0  0  0  0  0  0  0999 V2000
    8.9820   -2.2710   -0.3290 C   0  0  0  0  0  0  0  0  0  0  0  0
    7.9210   -2.3200   -1.2920 O   0  0  0  0  0  0  0  0  0  0  0  0
    6.6360   -2.5900   -0.8620 C   0  0  0  0  0  0  0  0  0  0  0  0
    6.4620   -2.7820    0.3790 O   0  0  0  0  0  0  0  0  0  0  0  0
    5.5350   -2.6640   -1.6790 O   0  0  0  0  0  0  0  0  0  0  0  0
    4.2560   -2.9450   -1.1570 C   0  0  2  0  0  0  0  0  0  0  0  0
    3.7790   -4.2240   -1.8450 C   0  0  0  0  0  0  0  0  0  0  0  0
    3.3030   -1.8090   -1.4640 C   0  0  0  0  0  0  0  0  0  0  0  0
    1.9110   -2.1040   -0.8980 C   0  0  2  0  0  0  0  0  0  0  0  0
    0.9810   -1.0060   -1.1930 C   0  0  0  0  0  0  0  0  0  0  0  0
    0.4800   -0.8080   -2.3520 O   0  0  0  0  0  0  0  0  0  0  0  0
    0.7390   -0.2280   -0.0160 N   0  0  0  0  0  0  0  0  0  0  0  0
    0.3260    1.1220   -0.0150 C   0  0  0  0  0  0  0  0  0  0  0  0
    1.2190    2.1730    0.0040 C   0  0  0  0  0  0  0  0  0  0  0  0
    0.8310    3.5120    0.0030 C   0  0  0  0  0  0  0  0  0  0  0  0
   -0.5090    3.7820   -0.0190 C   0  0  0  0  0  0  0  0  0  0  0  0
   -1.0250    5.1030   -0.0410 N   0  0  0  0  0  0  0  0  0  0  0  0
   -0.2880    6.2700   -0.3100 C   0  0  0  0  0  0  0  0  0  0  0  0
    0.9230    6.2260   -0.5640 O   0  0  0  0  0  0  0  0  0  0  0  0
   -0.9370    7.6080   -0.2990 C   0  0  0  0  0  0  0  0  0  0  0  0
   -2.2600    7.8760   -0.0450 C   0  0  0  0  0  0  0  0  0  0  0  0
   -2.4340    9.2400   -0.1370 C   0  0  0  0  0  0  0  0  0  0  0  0
   -3.6490   10.0470    0.0430 C   0  0  0  0  0  0  0  0  0  0  0  0
   -3.7240   10.3980    1.3920 F   0  0  0  0  0  0  0  0  0  0  0  0
   -1.1910    9.7510   -0.4470 C   0  0  0  0  0  0  0  0  0  0  0  0
   -0.3430    8.7490   -0.5320 O   0  0  0  0  0  0  0  0  0  0  0  0
   -1.4250    2.7040   -0.0380 C   0  0  0  0  0  0  0  0  0  0  0  0
   -1.0340    1.3930   -0.0360 C   0  0  0  0  0  0  0  0  0  0  0  0
   -1.9260    0.2970   -0.0500 N   0  0  0  0  0  0  0  0  0  0  0  0
   -3.3270    0.3420   -0.0920 C   0  0  0  0  0  0  0  0  0  0  0  0
   -3.9020    1.4540   -0.1440 O   0  0  0  0  0  0  0  0  0  0  0  0
   -4.1990   -0.8970   -0.0850 C   0  0  0  0  0  0  0  0  0  0  0  0
   -5.3680   -0.8840   -0.9170 C   0  0  0  0  0  0  0  0  0  0  0  0
   -6.0320   -2.4900   -0.7270 S   0  0  0  0  0  0  0  0  0  0  0  0
   -4.8180   -3.1060    0.3850 C   0  0  0  0  0  0  0  0  0  0  0  0
   -3.9570   -2.0250    0.5530 C   0  0  0  0  0  0  0  0  0  0  0  0
   -2.8820   -2.4110    1.5790 C   0  0  0  0  0  0  0  0  0  0  0  0
   -2.1910   -3.6050    0.9690 C   0  0  0  0  0  0  0  0  0  0  0  0
   -3.1080   -4.8130    0.9280 C   0  0  2  0  0  0  0  0  0  0  0  0
   -2.9930   -5.5750   -0.3750 C   0  0  0  0  0  0  0  0  0  0  0  0
   -4.5630   -4.4040    1.0750 C   0  0  0  0  0  0  0  0  0  0  0  0
    1.0240   -1.1300    1.0460 C   0  0  0  0  0  0  0  0  0  0  0  0
    0.5350   -1.0150    2.2090 O   0  0  0  0  0  0  0  0  0  0  0  0
    1.9530   -2.1850    0.5840 C   0  0  1  0  0  0  0  0  0  0  0  0
    1.5960   -3.5520    1.1200 C   0  0  0  0  0  0  0  0  0  0  0  0
  1  2  1  0
  2  3  1  0
  3  4  2  0
  3  5  1  0
  5  6  1  0
  6  7  1  6
  6  8  1  0
  9  8  1  1
  9 10  1  0
  9 44  1  0
 10 11  2  0
 10 12  1  0
 12 13  1  0
 12 42  1  0
 13 14  2  0
 13 28  1  0
 14 15  1  0
 15 16  2  0
 16 17  1  0
 16 27  1  0
 17 18  1  0
 18 19  2  0
 18 20  1  0
 20 21  2  0
 20 26  1  0
 21 22  1  0
 22 23  1  0
 22 25  2  0
 23 24  1  0
 25 26  1  0
 27 28  2  0
 28 29  1  0
 29 30  1  0
 30 31  2  0
 30 32  1  0
 32 33  2  0
 32 36  1  0
 33 34  1  0
 34 35  1  0
 35 36  2  0
 35 41  1  0
 36 37  1  0
 37 38  1  0
 38 39  1  0
 39 40  1  6
 39 41  1  0
 42 43  2  0
 42 44  1  0
 44 45  1  6
M  END
