
     RDKit          3D

 26 28  0  0  0  0  0  0  0  0999 V2000
   -3.3010   -1.9620    2.9790 C   0  0  0  0  0  0  0  0  0  0  0  0
   -4.3270   -1.3690    2.0660 C   0  0  0  0  0  0  0  0  0  0  0  0
   -5.6860   -1.6160    2.2590 C   0  0  0  0  0  0  0  0  0  0  0  0
   -6.4130   -0.6670    0.8970 S   0  0  0  0  0  0  0  0  0  0  0  0
   -4.7860   -0.0840    0.2760 C   0  0  0  0  0  0  0  0  0  0  0  0
   -4.8050    0.7950   -0.9150 C   0  0  0  0  0  0  0  0  0  0  0  0
   -5.9660    1.1720   -1.5470 C   0  0  0  0  0  0  0  0  0  0  0  0
   -5.9570    1.9910   -2.6500 C   0  0  0  0  0  0  0  0  0  0  0  0
   -4.7410    2.4340   -3.1180 C   0  0  0  0  0  0  0  0  0  0  0  0
   -3.6150    2.0580   -2.4920 N   0  0  0  0  0  0  0  0  0  0  0  0
   -3.6260    1.2420   -1.3920 C   0  0  0  0  0  0  0  0  0  0  0  0
   -2.3780    0.9080   -0.8140 N   0  0  0  0  0  0  0  0  0  0  0  0
   -1.1460    1.4130   -1.3570 C   0  0  0  0  0  0  0  0  0  0  0  0
   -1.2030    2.1630   -2.3640 O   0  0  0  0  0  0  0  0  0  0  0  0
    0.1200    1.1160   -0.8260 N   0  0  0  0  0  0  0  0  0  0  0  0
    1.3610    1.6260   -1.3730 C   0  0  0  0  0  0  0  0  0  0  0  0
    2.5560    1.1120   -0.5630 C   0  0  2  0  0  0  0  0  0  0  0  0
    2.4700    1.5350    0.8510 C   0  0  0  0  0  0  0  0  0  0  0  0
    3.7720    1.8000   -1.1970 C   0  0  0  0  0  0  0  0  0  0  0  0
    2.6430   -0.3730   -0.7220 C   0  0  0  0  0  0  0  0  0  0  0  0
    3.6850   -1.0070   -0.0670 N   0  0  0  0  0  0  0  0  0  0  0  0
    3.7090   -1.1610    1.3190 C   0  0  0  0  0  0  0  0  0  0  0  0
    4.6810   -2.3270    1.6070 C   0  0  0  0  0  0  0  0  0  0  0  0
    5.3770   -2.6000    0.2820 C   0  0  0  0  0  0  0  0  0  0  0  0
    4.3000   -2.1260   -0.7040 C   0  0  0  0  0  0  0  0  0  0  0  0
   -4.0500   -0.6040    1.0570 N   0  0  0  0  0  0  0  0  0  0  0  0
  1  2  1  0
  2  3  2  0
  2 26  1  0
  3  4  1  0
  4  5  1  0
  5  6  1  0
  5 26  2  0
  6  7  2  0
  6 11  1  0
  7  8  1  0
  8  9  2  0
  9 10  1  0
 10 11  2  0
 11 12  1  0
 12 13  1  0
 13 14  2  0
 13 15  1  0
 15 16  1  0
 16 17  1  0
 17 18  1  1
 17 19  1  0
 17 20  1  0
 20 21  1  0
 21 22  1  0
 21 25  1  0
 22 23  1  0
 23 24  1  0
 24 25  1  0
M  END
