
     RDKit          3D

 26 28  0  0  0  0  0  0  0  0999 V2000
    7.1810   -1.1080    0.1210 C   0  0  0  0  0  0  0  0  0  0  0  0
    7.2640    0.3530   -0.1010 C   0  0  0  0  0  0  0  0  0  0  0  0
    8.4610    0.9640   -0.3710 N   0  0  0  0  0  0  0  0  0  0  0  0
    8.2760    2.2880   -0.5060 C   0  0  0  0  0  0  0  0  0  0  0  0
    6.9500    2.5250   -0.3230 C   0  0  0  0  0  0  0  0  0  0  0  0
    6.2930    1.3060   -0.0650 C   0  0  0  0  0  0  0  0  0  0  0  0
    4.8620    1.1690    0.1510 C   0  0  0  0  0  0  0  0  0  0  0  0
    4.2060    2.2330    0.4780 O   0  0  0  0  0  0  0  0  0  0  0  0
    4.1850   -0.0460    0.0170 N   0  0  0  0  0  0  0  0  0  0  0  0
    2.8060   -0.2720    0.2180 C   0  0  0  0  0  0  0  0  0  0  0  0
    1.9410    0.6050    0.7860 C   0  0  0  0  0  0  0  0  0  0  0  0
    0.5850    0.2630    0.9150 C   0  0  0  0  0  0  0  0  0  0  0  0
    0.0760   -0.9370    0.4880 C   0  0  0  0  0  0  0  0  0  0  0  0
   -1.6610   -1.3540    0.6620 S   0  0  0  0  0  0  0  0  0  0  0  0
   -2.5180   -0.7860   -0.8570 C   0  0  0  0  0  0  0  0  0  0  0  0
   -3.9720   -1.1060   -0.7720 C   0  0  0  0  0  0  0  0  0  0  0  0
   -4.4600   -2.2910   -1.2300 C   0  0  0  0  0  0  0  0  0  0  0  0
   -5.8160   -2.5680   -1.1400 C   0  0  0  0  0  0  0  0  0  0  0  0
   -6.6210   -1.6310   -0.5890 N   0  0  0  0  0  0  0  0  0  0  0  0
   -6.1750   -0.4570   -0.1290 C   0  0  0  0  0  0  0  0  0  0  0  0
   -7.0570    0.4890    0.4390 N   0  0  0  0  0  0  0  0  0  0  0  0
   -8.4710    0.2200    0.5430 C   0  0  0  0  0  0  0  0  0  0  0  0
   -6.5470    1.7540    0.9290 C   0  0  0  0  0  0  0  0  0  0  0  0
   -4.8240   -0.1870   -0.2210 C   0  0  0  0  0  0  0  0  0  0  0  0
    0.9540   -1.7860   -0.0700 N   0  0  0  0  0  0  0  0  0  0  0  0
    2.2460   -1.4900   -0.2060 C   0  0  0  0  0  0  0  0  0  0  0  0
  1  2  1  0
  2  3  1  0
  2  6  2  0
  3  4  1  0
  4  5  2  0
  5  6  1  0
  6  7  1  0
  7  8  2  0
  7  9  1  0
  9 10  1  0
 10 11  2  0
 10 26  1  0
 11 12  1  0
 12 13  2  0
 13 14  1  0
 13 25  1  0
 14 15  1  0
 15 16  1  0
 16 17  2  0
 16 24  1  0
 17 18  1  0
 18 19  2  0
 19 20  1  0
 20 21  1  0
 20 24  2  0
 21 22  1  0
 21 23  1  0
 25 26  2  0
M  END
