
     RDKit          3D

 26 28  0  0  0  0  0  0  0  0999 V2000
   -7.7760    1.0080   -0.1940 C   0  0  0  0  0  0  0  0  0  0  0  0
   -6.4220    0.5310    0.3130 C   0  0  0  0  0  0  0  0  0  0  0  0
   -5.4170    1.6510    0.2280 C   0  0  0  0  0  0  0  0  0  0  0  0
   -4.0760    1.0640    0.5820 C   0  0  0  0  0  0  0  0  0  0  0  0
   -3.2320    0.3820    0.1680 N   0  0  0  0  0  0  0  0  0  0  0  0
   -2.1490   -0.0720    0.5340 C   0  0  0  0  0  0  0  0  0  0  0  0
   -1.3530   -1.1240   -0.2200 C   0  0  2  0  0  0  0  0  0  0  0  0
   -1.6040   -0.5680   -1.6880 C   0  0  0  0  0  0  0  0  0  0  0  0
   -2.0860   -2.4740   -0.2150 C   0  0  0  0  0  0  0  0  0  0  0  0
   -0.0740   -1.2440    0.0430 O   0  0  0  0  0  0  0  0  0  0  0  0
    1.1400   -0.7750   -0.3450 C   0  0  0  0  0  0  0  0  0  0  0  0
    1.5200   -0.0910   -1.3250 C   0  0  0  0  0  0  0  0  0  0  0  0
    2.8190    0.3350   -1.7200 C   0  0  0  0  0  0  0  0  0  0  0  0
    3.1770    1.0420   -2.8470 C   0  0  0  0  0  0  0  0  0  0  0  0
    3.4760    1.6170   -3.8030 N   0  0  0  0  0  0  0  0  0  0  0  0
    3.7560   -0.1240   -0.8060 C   0  0  0  0  0  0  0  0  0  0  0  0
    3.3830   -0.8730    0.3040 C   0  0  0  0  0  0  0  0  0  0  0  0
    2.1160   -1.2640    0.6240 N   0  0  0  0  0  0  0  0  0  0  0  0
    4.1390   -1.1770    1.5120 N   0  0  0  0  0  0  0  0  0  0  0  0
    5.1240   -0.4760    2.2880 C   0  0  0  0  0  0  0  0  0  0  0  0
    5.6960    0.7590    1.5890 C   0  0  0  0  0  0  0  0  0  0  0  0
    6.5790    0.4600    0.5110 N   0  0  0  0  0  0  0  0  0  0  0  0
    6.2530    0.3950   -0.9020 C   0  0  0  0  0  0  0  0  0  0  0  0
    5.0400    0.1520   -1.4790 C   0  0  0  0  0  0  0  0  0  0  0  0
   -1.8090    0.3370    1.8640 C   0  0  0  0  0  0  0  0  0  0  0  0
   -3.2210    1.3770    2.2720 S   0  0  0  0  0  0  0  0  0  0  0  0
  1  2  1  0
  2  3  1  0
  3  4  1  0
  4  5  2  0
  4 26  1  0
  5  6  1  0
  6  7  1  0
  6 25  2  0
  7  8  1  6
  7  9  1  0
  7 10  1  0
 10 11  1  0
 11 12  2  0
 11 18  1  0
 12 13  1  0
 13 14  1  0
 13 16  2  0
 14 15  3  0
 16 17  1  0
 16 24  1  0
 17 18  2  0
 17 19  1  0
 19 20  1  0
 20 21  1  0
 21 22  1  0
 22 23  1  0
 23 24  2  0
 25 26  1  0
M  END
