
     RDKit          3D

 18 19  0  0  0  0  0  0  0  0999 V2000
    2.1340    1.1240    1.1120 O   0  0  0  0  0  0  0  0  0  0  0  0
    1.1210    0.5460    0.6500 C   0  0  0  0  0  0  0  0  0  0  0  0
    1.3050   -0.6770    0.0220 O   0  0  0  0  0  0  0  0  0  0  0  0
    2.5860   -1.2520   -0.0960 C   0  0  0  0  0  0  0  0  0  0  0  0
    3.1620   -2.0690    0.7630 C   0  0  0  0  0  0  0  0  0  0  0  0
    4.4920   -2.4150    0.2290 C   0  0  0  0  0  0  0  0  0  0  0  0
    4.5580   -1.6920   -1.0060 N   0  0  0  0  0  0  0  0  0  0  0  0
    3.4830   -1.0200   -1.2160 C   0  0  0  0  0  0  0  0  0  0  0  0
   -0.1620    1.1280    0.7720 N   0  0  0  0  0  0  0  0  0  0  0  0
   -0.2910    2.4070    1.4410 C   0  0  0  0  0  0  0  0  0  0  0  0
   -0.1580    3.5770    0.4860 C   0  0  0  0  0  0  0  0  0  0  0  0
   -1.1130    3.5730   -0.5110 O   0  0  0  0  0  0  0  0  0  0  0  0
   -1.3350    0.4790    0.2480 C   0  0  1  0  0  0  0  0  0  0  0  0
   -1.2490    0.2660   -1.2240 C   0  0  0  0  0  0  0  0  0  0  0  0
   -1.9150   -0.9500   -1.7540 C   0  0  0  0  0  0  0  0  0  0  0  0
   -3.0440   -1.4980   -0.9570 C   0  0  0  0  0  0  0  0  0  0  0  0
   -2.9470   -1.2670    0.5260 C   0  0  0  0  0  0  0  0  0  0  0  0
   -1.4980   -0.9090    0.8650 C   0  0  0  0  0  0  0  0  0  0  0  0
  1  2  2  0
  2  3  1  0
  2  9  1  0
  3  4  1  0
  4  5  2  0
  4  8  1  0
  5  6  1  0
  6  7  1  0
  7  8  2  0
  9 10  1  0
 13  9  1  1
 10 11  1  0
 11 12  1  0
 13 14  1  0
 13 18  1  0
 14 15  1  0
 15 16  1  0
 16 17  1  0
 17 18  1  0
M  END
