
     RDKit          3D

 18 18  0  0  0  0  0  0  0  0999 V2000
   -5.2370    0.1990   -0.7010 C   0  0  0  0  0  0  0  0  0  0  0  0
   -4.1610   -0.1170    0.2760 C   0  0  0  0  0  0  0  0  0  0  0  0
   -4.4490   -0.2630    1.5590 C   0  0  0  0  0  0  0  0  0  0  0  0
   -3.4540   -0.5640    2.5200 N   0  0  0  0  0  0  0  0  0  0  0  0
   -2.0600   -0.7350    2.1900 C   0  0  0  0  0  0  0  0  0  0  0  0
   -1.2640   -0.9980    3.1080 O   0  0  0  0  0  0  0  0  0  0  0  0
   -1.6940   -0.5860    0.8000 C   0  0  0  0  0  0  0  0  0  0  0  0
   -0.4400   -0.7300    0.4010 C   0  0  0  0  0  0  0  0  0  0  0  0
    0.6380   -1.0500    1.3600 C   0  0  0  0  0  0  0  0  0  0  0  0
   -0.0970   -0.5740   -0.9840 N   0  0  0  0  0  0  0  0  0  0  0  0
    0.3930    0.6660   -1.4810 C   0  0  0  0  0  0  0  0  0  0  0  0
    1.7620    1.0730   -1.0650 C   0  0  0  0  0  0  0  0  0  0  0  0
    2.8520    0.1040   -1.5260 C   0  0  0  0  0  0  0  0  0  0  0  0
    4.2080    0.5950   -1.0870 C   0  0  0  0  0  0  0  0  0  0  0  0
    4.3820    0.7340    0.3850 C   0  0  0  0  0  0  0  0  0  0  0  0
    4.2270   -0.4370    1.0930 O   0  0  0  0  0  0  0  0  0  0  0  0
   -2.7720   -0.2740   -0.1500 C   0  0  0  0  0  0  0  0  0  0  0  0
   -2.4730   -0.1430   -1.3460 O   0  0  0  0  0  0  0  0  0  0  0  0
  1  2  1  0
  2  3  2  0
  2 17  1  0
  3  4  1  0
  4  5  1  0
  5  6  2  0
  5  7  1  0
  7  8  2  3
  7 17  1  0
  8  9  1  0
  8 10  1  0
 10 11  1  0
 11 12  1  0
 12 13  1  0
 13 14  1  0
 14 15  1  0
 15 16  1  0
 17 18  2  0
M  END
