
     RDKit          3D

 28 30  0  0  0  0  0  0  0  0999 V2000
   -1.8230    3.3100   -1.1870 C   0  0  0  0  0  0  0  0  0  0  0  0
   -2.4060    2.1400   -0.4230 C   0  0  0  0  0  0  0  0  0  0  0  0
   -1.6100    1.8140    0.7260 N   0  0  0  0  0  0  0  0  0  0  0  0
   -0.9120    0.5820    0.6870 C   0  0  2  0  0  0  0  0  0  0  0  0
   -1.6320   -0.6730    0.7760 C   0  0  0  0  0  0  0  0  0  0  0  0
   -0.8350   -1.7270    0.7560 O   0  0  0  0  0  0  0  0  0  0  0  0
   -2.9770   -1.0150    0.8780 N   0  0  0  0  0  0  0  0  0  0  0  0
   -4.1020   -0.1390    0.9310 C   0  0  0  0  0  0  0  0  0  0  0  0
   -5.2750   -0.9160    1.5680 C   0  0  0  0  0  0  0  0  0  0  0  0
   -5.7350   -1.9140    0.5380 C   0  0  0  0  0  0  0  0  0  0  0  0
   -4.5200   -2.6370    0.0280 C   0  0  0  0  0  0  0  0  0  0  0  0
   -3.3250   -2.4560    0.9280 C   0  0  0  0  0  0  0  0  0  0  0  0
    0.1340    0.6620    1.8280 C   0  0  0  0  0  0  0  0  0  0  0  0
    1.3590    0.0480    1.2120 C   0  0  0  0  0  0  0  0  0  0  0  0
    1.3750    0.7440   -0.1460 C   0  0  1  0  0  0  0  0  0  0  0  0
    2.3200    0.1230   -1.0470 N   0  0  0  0  0  0  0  0  0  0  0  0
    3.6950    0.0930   -0.6710 C   0  0  0  0  0  0  0  0  0  0  0  0
    4.2370    0.5670    0.4160 O   0  0  0  0  0  0  0  0  0  0  0  0
    5.5400    0.3740    0.4540 C   0  0  0  0  0  0  0  0  0  0  0  0
    6.3590    0.7420    1.4230 C   0  0  0  0  0  0  0  0  0  0  0  0
    7.6740    0.5070    1.3850 F   0  0  0  0  0  0  0  0  0  0  0  0
    5.8170    1.3900    2.5000 F   0  0  0  0  0  0  0  0  0  0  0  0
    5.8660   -0.2870   -0.7160 C   0  0  0  0  0  0  0  0  0  0  0  0
    7.0630   -0.6920   -1.1180 C   0  0  0  0  0  0  0  0  0  0  0  0
    7.1300   -1.3300   -2.3280 F   0  0  0  0  0  0  0  0  0  0  0  0
    4.6900   -0.4640   -1.4290 C   0  0  0  0  0  0  0  0  0  0  0  0
    4.5530   -1.1290   -2.7560 C   0  0  0  0  0  0  0  0  0  0  0  0
   -0.0540    0.5200   -0.5820 C   0  0  0  0  0  0  0  0  0  0  0  0
  1  2  1  0
  2  3  1  0
  4  3  1  6
  4  5  1  0
  4 13  1  0
  4 28  1  0
  5  6  2  0
  5  7  1  0
  7  8  1  0
  7 12  1  0
  8  9  1  0
  9 10  1  0
 10 11  1  0
 11 12  1  0
 13 14  1  0
 14 15  1  0
 15 16  1  6
 15 28  1  0
 16 17  1  0
 17 18  1  0
 17 26  2  0
 18 19  1  0
 19 20  2  3
 19 23  1  0
 20 21  1  0
 20 22  1  0
 23 24  2  3
 23 26  1  0
 24 25  1  0
 26 27  1  0
M  CHG  1   3   1
M  END
