
     RDKit          3D

 28 30  0  0  0  0  0  0  0  0999 V2000
    4.5290   -0.2130    2.9100 C   0  0  0  0  0  0  0  0  0  0  0  0
    4.3050    0.1010    1.6570 C   0  0  0  0  0  0  0  0  0  0  0  0
    3.0170   -0.1380    1.1430 C   0  0  0  0  0  0  0  0  0  0  0  0
    2.7200    0.1690   -0.1580 C   0  0  0  0  0  0  0  0  0  0  0  0
    1.3830   -0.0720   -0.7140 C   0  0  0  0  0  0  0  0  0  0  0  0
    1.1770    0.2330   -1.9210 O   0  0  0  0  0  0  0  0  0  0  0  0
    0.3330   -0.6270    0.0450 N   0  0  0  0  0  0  0  0  0  0  0  0
   -0.9440   -0.8260   -0.5870 C   0  0  2  0  0  0  0  0  0  0  0  0
   -2.0630   -0.0960    0.1580 C   0  0  1  0  0  0  0  0  0  0  0  0
   -2.0840    1.2940   -0.2040 N   0  0  0  0  0  0  0  0  0  0  0  0
   -3.1140    1.9660    0.5290 C   0  0  1  0  0  0  0  0  0  0  0  0
   -3.0420    3.4840    0.5960 C   0  0  0  0  0  0  0  0  0  0  0  0
   -4.0630    2.7830   -0.2830 C   0  0  0  0  0  0  0  0  0  0  0  0
   -3.2350   -0.8810   -0.2960 C   0  0  1  0  0  0  0  0  0  0  0  0
   -4.4390   -0.7510    0.6100 C   0  0  0  0  0  0  0  0  0  0  0  0
   -3.6920   -0.5380   -1.6950 C   0  0  0  0  0  0  0  0  0  0  0  0
   -2.8150   -2.1850   -0.2630 O   0  0  0  0  0  0  0  0  0  0  0  0
   -1.4620   -2.2430   -0.4560 C   0  0  1  0  0  0  0  0  0  0  0  0
   -1.1760   -3.0650   -1.6900 C   0  0  0  0  0  0  0  0  0  0  0  0
   -0.7330   -2.8710    0.7170 C   0  0  0  0  0  0  0  0  0  0  0  0
    3.6540    0.7040   -0.9710 N   0  0  0  0  0  0  0  0  0  0  0  0
    4.8740    0.9330   -0.4910 C   0  0  0  0  0  0  0  0  0  0  0  0
    5.8690    1.5280   -1.4140 C   0  0  2  0  0  0  0  0  0  0  0  0
    6.3160    2.7460   -0.9480 F   0  0  0  0  0  0  0  0  0  0  0  0
    5.3230    1.7020   -2.6830 F   0  0  0  0  0  0  0  0  0  0  0  0
    6.9300    0.6400   -1.5910 F   0  0  0  0  0  0  0  0  0  0  0  0
    5.2410    0.6450    0.8180 C   0  0  0  0  0  0  0  0  0  0  0  0
    6.4600    0.8910    1.2300 C   0  0  0  0  0  0  0  0  0  0  0  0
  1  2  2  0
  2  3  1  0
  2 27  1  0
  3  4  2  0
  4  5  1  0
  4 21  1  0
  5  6  2  0
  5  7  1  0
  8  7  1  1
  8  9  1  0
  8 18  1  0
  9 10  1  6
  9 14  1  0
 11 10  1  6
 11 12  1  0
 11 13  1  0
 12 13  1  0
 14 15  1  1
 14 16  1  0
 14 17  1  0
 17 18  1  0
 18 19  1  6
 18 20  1  0
 21 22  2  0
 22 23  1  0
 22 27  1  0
 23 24  1  1
 23 25  1  0
 23 26  1  0
 27 28  2  0
M  CHG  1  10   1
M  END
