
     RDKit          3D

 28 30  0  0  0  0  0  0  0  0999 V2000
    5.6730    2.2000    1.9380 C   0  0  0  0  0  0  0  0  0  0  0  0
    4.3920    2.2860    1.5480 C   0  0  0  0  0  0  0  0  0  0  0  0
    4.0580    2.3460    0.1030 C   0  0  0  0  0  0  0  0  0  0  0  0
    3.2630    1.3280   -0.3420 O   0  0  0  0  0  0  0  0  0  0  0  0
    2.0030    0.9240   -0.0570 C   0  0  0  0  0  0  0  0  0  0  0  0
    1.2250    1.6170    0.8640 C   0  0  0  0  0  0  0  0  0  0  0  0
   -0.0370    1.1860    1.1260 C   0  0  0  0  0  0  0  0  0  0  0  0
   -0.5150    0.0720    0.4700 C   0  0  0  0  0  0  0  0  0  0  0  0
    0.2470   -0.6450   -0.4620 C   0  0  0  0  0  0  0  0  0  0  0  0
    1.5130   -0.2210   -0.7300 C   0  0  0  0  0  0  0  0  0  0  0  0
    2.3610   -0.8590   -1.6570 N   0  0  0  0  0  0  0  0  0  0  0  0
    2.0620   -1.9990   -2.3880 C   0  0  0  0  0  0  0  0  0  0  0  0
    3.0300   -2.6180   -3.3620 C   0  0  0  0  0  0  0  0  0  0  0  0
    0.9640   -2.5800   -2.2760 O   0  0  0  0  0  0  0  0  0  0  0  0
   -1.8590   -0.3770    0.7790 C   0  0  0  0  0  0  0  0  0  0  0  0
   -2.7340   -0.6130   -0.1470 C   0  0  0  0  0  0  0  0  0  0  0  0
   -2.7330   -0.5110   -1.5990 C   0  0  0  0  0  0  0  0  0  0  0  0
   -1.9250    0.1270   -2.3530 N   0  0  0  0  0  0  0  0  0  0  0  0
   -3.9470   -1.1300   -2.1090 N   0  0  0  0  0  0  0  0  0  0  0  0
   -4.9320   -0.9600   -1.0220 C   0  0  2  0  0  0  0  0  0  0  0  0
   -5.9280   -1.8840   -1.1260 F   0  0  0  0  0  0  0  0  0  0  0  0
   -5.3250    0.3390   -0.9810 F   0  0  0  0  0  0  0  0  0  0  0  0
   -4.0160   -1.3130    0.1450 C   0  0  0  0  0  0  0  0  0  0  0  0
   -4.3830   -2.1190    1.0870 C   0  0  0  0  0  0  0  0  0  0  0  0
   -5.6600   -2.6370    1.1310 F   0  0  0  0  0  0  0  0  0  0  0  0
   -2.2040   -0.3960    2.2420 C   0  0  0  0  0  0  0  0  0  0  0  0
   -1.5170    0.6890    2.9750 C   0  0  0  0  0  0  0  0  0  0  0  0
   -0.9360    1.8250    2.1290 C   0  0  0  0  0  0  0  0  0  0  0  0
  1  2  2  0
  2  3  1  0
  3  4  1  0
  4  5  1  0
  5  6  2  0
  5 10  1  0
  6  7  1  0
  7  8  2  0
  7 28  1  0
  8  9  1  0
  8 15  1  0
  9 10  2  0
 10 11  1  0
 11 12  1  0
 12 13  1  0
 12 14  2  0
 15 16  2  3
 15 26  1  0
 16 17  1  0
 16 23  1  0
 17 18  2  0
 17 19  1  0
 19 20  1  0
 20 21  1  6
 20 22  1  0
 20 23  1  0
 23 24  2  3
 24 25  1  0
 26 27  1  0
 27 28  1  0
M  CHG  1  18   1
M  END
