
     RDKit          3D

 27 29  0  0  0  0  0  0  0  0999 V2000
    1.5730   -2.0230   -3.1670 O   0  0  0  0  0  0  0  0  0  0  0  0
    1.3560   -1.8240   -1.8700 C   0  0  0  0  0  0  0  0  0  0  0  0
    0.3070   -2.6400   -1.3220 C   0  0  0  0  0  0  0  0  0  0  0  0
   -0.7230   -2.5170   -0.5460 C   0  0  0  0  0  0  0  0  0  0  0  0
   -1.3720   -1.4410    0.1920 C   0  0  0  0  0  0  0  0  0  0  0  0
   -2.0060   -0.3850   -0.3040 C   0  0  0  0  0  0  0  0  0  0  0  0
   -2.1670   -0.1140   -1.6950 N   0  0  0  0  0  0  0  0  0  0  0  0
   -1.2220   -0.0430   -2.7390 C   0  0  0  0  0  0  0  0  0  0  0  0
   -0.0920    0.6410   -2.7690 C   0  0  0  0  0  0  0  0  0  0  0  0
    0.4240    1.4600   -1.7370 N   0  0  0  0  0  0  0  0  0  0  0  0
    0.9590    1.0460   -0.4840 C   0  0  0  0  0  0  0  0  0  0  0  0
    0.4330    1.5310    0.5670 O   0  0  0  0  0  0  0  0  0  0  0  0
    2.0820    0.0990   -0.3050 C   0  0  2  0  0  0  0  0  0  0  0  0
    1.9760   -0.4840    1.0710 C   0  0  0  0  0  0  0  0  0  0  0  0
    3.3920   -0.7860    1.4740 C   0  0  0  0  0  0  0  0  0  0  0  0
    4.2440    0.1970    0.7470 C   0  0  0  0  0  0  0  0  0  0  0  0
    3.3200    0.9810   -0.1470 C   0  0  0  0  0  0  0  0  0  0  0  0
    2.2100   -0.8620   -1.3480 N   0  0  0  0  0  0  0  0  0  0  0  0
   -2.6370    0.6070    0.5980 C   0  0  0  0  0  0  0  0  0  0  0  0
   -3.2270    1.7010    0.1000 C   0  0  0  0  0  0  0  0  0  0  0  0
   -3.8800    2.7490    0.8650 C   0  0  0  0  0  0  0  0  0  0  0  0
   -5.2130    2.8360    0.4880 F   0  0  0  0  0  0  0  0  0  0  0  0
   -2.6590    0.4370    2.0650 C   0  0  2  0  0  0  0  0  0  0  0  0
   -3.9610    0.4690    2.5340 F   0  0  0  0  0  0  0  0  0  0  0  0
   -1.9590    1.5300    2.6000 F   0  0  0  0  0  0  0  0  0  0  0  0
   -1.9400   -0.7560    2.5000 C   0  0  0  0  0  0  0  0  0  0  0  0
   -1.3650   -1.5970    1.6690 C   0  0  0  0  0  0  0  0  0  0  0  0
  1  2  2  0
  2  3  1  0
  2 18  1  0
  3  4  2  0
  4  5  1  0
  5  6  2  0
  5 27  1  0
  6  7  1  0
  6 19  1  0
  7  8  1  0
  8  9  2  0
  9 10  1  0
 10 11  1  0
 11 12  2  0
 11 13  1  0
 13 14  1  1
 13 17  1  0
 13 18  1  0
 14 15  1  0
 15 16  1  0
 16 17  1  0
 19 20  2  3
 19 23  1  0
 20 21  1  0
 21 22  1  0
 23 24  1  1
 23 25  1  0
 23 26  1  0
 26 27  2  0
M  END
