
     RDKit          3D

 18 19  0  0  0  0  0  0  0  0999 V2000
    2.2230    1.5340    0.0640 O   0  0  0  0  0  0  0  0  0  0  0  0
    1.3310    0.6480    0.0740 C   0  0  0  0  0  0  0  0  0  0  0  0
    1.7430   -0.6720   -0.0120 O   0  0  0  0  0  0  0  0  0  0  0  0
    3.0770   -1.0480   -0.1070 C   0  0  0  0  0  0  0  0  0  0  0  0
    3.8370   -1.2950    0.9270 C   0  0  0  0  0  0  0  0  0  0  0  0
    5.1780   -1.6600    0.4230 C   0  0  0  0  0  0  0  0  0  0  0  0
    5.0240   -1.5720   -1.0080 N   0  0  0  0  0  0  0  0  0  0  0  0
    3.8290   -1.2230   -1.3220 C   0  0  0  0  0  0  0  0  0  0  0  0
   -0.0500    0.9360    0.1670 N   0  0  0  0  0  0  0  0  0  0  0  0
   -0.4530    2.3160    0.2550 C   0  0  0  0  0  0  0  0  0  0  0  0
   -0.6990    2.9660   -1.0690 C   0  0  0  0  0  0  0  0  0  0  0  0
   -1.0790    4.2910   -0.8160 O   0  0  0  0  0  0  0  0  0  0  0  0
   -1.0170   -0.1250    0.1730 C   0  0  1  0  0  0  0  0  0  0  0  0
   -1.7670   -0.1730    1.5030 C   0  0  0  0  0  0  0  0  0  0  0  0
   -3.1290   -0.7810    1.2500 C   0  0  0  0  0  0  0  0  0  0  0  0
   -2.9220   -1.9620    0.3040 C   0  0  0  0  0  0  0  0  0  0  0  0
   -2.5950   -1.4710   -1.0970 C   0  0  0  0  0  0  0  0  0  0  0  0
   -1.9890   -0.0640   -0.9880 C   0  0  0  0  0  0  0  0  0  0  0  0
  1  2  2  0
  2  3  1  0
  2  9  1  0
  3  4  1  0
  4  5  2  0
  4  8  1  0
  5  6  1  0
  6  7  1  0
  7  8  2  0
  9 10  1  0
 13  9  1  1
 10 11  1  0
 11 12  1  0
 13 14  1  0
 13 18  1  0
 14 15  1  0
 15 16  1  0
 16 17  1  0
 17 18  1  0
M  END
