
     RDKit          3D

 18 19  0  0  0  0  0  0  0  0999 V2000
    5.7340    0.0680   -0.3380 C   0  0  0  0  0  0  0  0  0  0  0  0
    4.4080   -0.2900   -0.2830 O   0  0  0  0  0  0  0  0  0  0  0  0
    3.8430    0.2630    0.8830 C   0  0  0  0  0  0  0  0  0  0  0  0
    2.3750   -0.1840    0.8620 C   0  0  0  0  0  0  0  0  0  0  0  0
    1.7890    0.3860   -0.4150 C   0  0  0  0  0  0  0  0  0  0  0  0
    0.4040   -0.0110   -0.4760 N   0  0  0  0  0  0  0  0  0  0  0  0
   -0.1380   -1.1990   -1.0720 C   0  0  0  0  0  0  0  0  0  0  0  0
   -1.6000   -1.0810   -0.8390 C   0  0  0  0  0  0  0  0  0  0  0  0
   -2.6480   -1.9330   -1.1910 C   0  0  0  0  0  0  0  0  0  0  0  0
   -3.9600   -1.6650   -0.8910 C   0  0  0  0  0  0  0  0  0  0  0  0
   -4.2800   -0.5130   -0.2160 C   0  0  0  0  0  0  0  0  0  0  0  0
   -3.2640    0.3550    0.1480 C   0  0  0  0  0  0  0  0  0  0  0  0
   -3.6210    1.5580    0.8560 C   0  0  0  0  0  0  0  0  0  0  0  0
   -5.0190    1.7750    1.1370 N   0  0  0  0  0  0  0  0  0  0  0  0
   -2.8340    2.4450    1.2570 O   0  0  0  0  0  0  0  0  0  0  0  0
   -1.9320    0.0720   -0.1610 C   0  0  0  0  0  0  0  0  0  0  0  0
   -0.6660    0.7750    0.0820 C   0  0  0  0  0  0  0  0  0  0  0  0
   -0.5150    1.8660    0.6700 O   0  0  0  0  0  0  0  0  0  0  0  0
  1  2  1  0
  2  3  1  0
  3  4  1  0
  4  5  1  0
  5  6  1  0
  6  7  1  0
  6 17  1  0
  7  8  1  0
  8  9  2  0
  8 16  1  0
  9 10  1  0
 10 11  2  0
 11 12  1  0
 12 13  1  0
 12 16  2  0
 13 14  1  0
 13 15  2  0
 16 17  1  0
 17 18  2  0
M  END
