
     RDKit          3D

 18 19  0  0  0  0  0  0  0  0999 V2000
    0.4560   -0.5910    1.2580 C   0  0  0  0  0  0  0  0  0  0  0  0
    0.4350   -0.0970   -0.1760 C   0  0  2  0  0  0  0  0  0  0  0  0
    1.6500    0.6350   -0.3840 O   0  0  0  0  0  0  0  0  0  0  0  0
    2.8990    0.0300   -0.2320 C   0  0  0  0  0  0  0  0  0  0  0  0
    3.0570   -1.2540   -0.4830 C   0  0  0  0  0  0  0  0  0  0  0  0
    4.3690   -1.9140   -0.3290 C   0  0  0  0  0  0  0  0  0  0  0  0
    5.3840   -1.0500    0.0970 O   0  0  0  0  0  0  0  0  0  0  0  0
    5.1970    0.2970    0.3550 C   0  0  0  0  0  0  0  0  0  0  0  0
    4.0130    0.8610    0.2100 C   0  0  0  0  0  0  0  0  0  0  0  0
    3.8450    2.2580    0.4830 N   0  0  0  0  0  0  0  0  0  0  0  0
   -0.6880    0.8120   -0.4370 C   0  0  0  0  0  0  0  0  0  0  0  0
   -0.4090    2.0280   -0.7200 O   0  0  0  0  0  0  0  0  0  0  0  0
   -2.0500    0.4200   -0.3920 N   0  0  0  0  0  0  0  0  0  0  0  0
   -3.0550    1.3950   -0.6430 C   0  0  0  0  0  0  0  0  0  0  0  0
   -4.3640    1.1490    0.0320 C   0  0  0  0  0  0  0  0  0  0  0  0
   -4.6200   -0.2930    0.3780 C   0  0  0  0  0  0  0  0  0  0  0  0
   -3.3770   -0.8800    1.0470 C   0  0  0  0  0  0  0  0  0  0  0  0
   -2.3570   -0.9650   -0.1000 C   0  0  0  0  0  0  0  0  0  0  0  0
  2  1  1  1
  2  3  1  0
  2 11  1  0
  3  4  1  0
  4  5  2  0
  4  9  1  0
  5  6  1  0
  6  7  1  0
  7  8  1  0
  8  9  2  0
  9 10  1  0
 11 12  2  0
 11 13  1  0
 13 14  1  0
 13 18  1  0
 14 15  1  0
 15 16  1  0
 16 17  1  0
 17 18  1  0
M  END
