
     RDKit          3D

 19 21  0  0  0  0  0  0  0  0999 V2000
   -4.2080    0.0010    2.6030 C   0  0  0  0  0  0  0  0  0  0  0  0
   -4.3050    0.2220    1.1180 C   0  0  0  0  0  0  0  0  0  0  0  0
   -5.4220    0.5440    0.5060 C   0  0  0  0  0  0  0  0  0  0  0  0
   -5.1100    0.6710   -0.9370 C   0  0  0  0  0  0  0  0  0  0  0  0
   -3.6730    0.3760   -1.0440 C   0  0  0  0  0  0  0  0  0  0  0  0
   -3.2130    0.1150    0.1600 C   0  0  0  0  0  0  0  0  0  0  0  0
   -1.8260   -0.2340    0.5360 C   0  0  0  0  0  0  0  0  0  0  0  0
   -1.5370   -0.4590    1.7480 O   0  0  0  0  0  0  0  0  0  0  0  0
   -0.8610   -0.3050   -0.4770 N   0  0  0  0  0  0  0  0  0  0  0  0
    0.5030   -0.6340   -0.2120 C   0  0  1  0  0  0  0  0  0  0  0  0
    1.0020   -1.8030   -1.0630 C   0  0  0  0  0  0  0  0  0  0  0  0
    2.4800   -1.4730   -1.3110 C   0  0  0  0  0  0  0  0  0  0  0  0
    2.6770   -0.1900   -0.7110 N   0  0  0  0  0  0  0  0  0  0  0  0
    3.8750    0.3190   -0.1890 C   0  0  0  0  0  0  0  0  0  0  0  0
    5.0760   -0.3290   -0.1630 N   0  0  0  0  0  0  0  0  0  0  0  0
    5.9850    0.4500    0.4020 C   0  0  0  0  0  0  0  0  0  0  0  0
    5.4040    1.6290    0.7610 C   0  0  0  0  0  0  0  0  0  0  0  0
    4.1190    1.5220    0.3890 N   0  0  0  0  0  0  0  0  0  0  0  0
    1.4130    0.4820   -0.7420 C   0  0  0  0  0  0  0  0  0  0  0  0
  1  2  1  0
  2  3  2  0
  2  6  1  0
  3  4  1  0
  4  5  1  0
  5  6  2  0
  6  7  1  0
  7  8  2  0
  7  9  1  0
 10  9  1  6
 10 11  1  0
 10 19  1  0
 11 12  1  0
 12 13  1  0
 13 14  1  0
 13 19  1  0
 14 15  1  0
 14 18  2  0
 15 16  1  0
 16 17  2  0
 17 18  1  0
M  CHG  1  18   1
M  END
