
     RDKit          3D

 19 20  0  0  0  0  0  0  0  0999 V2000
    5.7530    0.7700   -1.7700 C   0  0  0  0  0  0  0  0  0  0  0  0
    4.5890    1.6200   -1.3180 C   0  0  0  0  0  0  0  0  0  0  0  0
    3.6260    0.8730   -0.4950 C   0  0  0  0  0  0  0  0  0  0  0  0
    2.3670    0.7320   -0.8530 C   0  0  0  0  0  0  0  0  0  0  0  0
    1.4040    0.0220   -0.0930 N   0  0  0  0  0  0  0  0  0  0  0  0
    0.0290   -0.0870   -0.5650 C   0  0  0  0  0  0  0  0  0  0  0  0
   -0.2610    0.4570   -1.6370 O   0  0  0  0  0  0  0  0  0  0  0  0
   -0.9200   -0.8060    0.2160 C   0  0  0  0  0  0  0  0  0  0  0  0
   -2.1720   -0.9900   -0.0780 C   0  0  0  0  0  0  0  0  0  0  0  0
   -3.0000   -1.7870    0.9020 C   0  0  0  0  0  0  0  0  0  0  0  0
   -4.2650   -1.0200    1.2390 C   0  0  0  0  0  0  0  0  0  0  0  0
   -4.0840    0.4660    1.0210 C   0  0  0  0  0  0  0  0  0  0  0  0
   -4.3780    0.9050   -0.3030 N   0  0  0  0  0  0  0  0  0  0  0  0
   -3.1850    1.0020   -1.1470 C   0  0  0  0  0  0  0  0  0  0  0  0
   -2.7050   -0.4290   -1.3110 C   0  0  0  0  0  0  0  0  0  0  0  0
    1.7710   -0.6000    1.1500 C   0  0  0  0  0  0  0  0  0  0  0  0
    3.1900   -0.3890    1.4640 C   0  0  0  0  0  0  0  0  0  0  0  0
    3.6620   -0.9780    2.7000 N   0  0  0  0  0  0  0  0  0  0  0  0
    3.9930    0.2640    0.7260 N   0  0  0  0  0  0  0  0  0  0  0  0
  1  2  1  0
  2  3  1  0
  3  4  2  0
  3 19  1  0
  4  5  1  0
  5  6  1  0
  5 16  1  0
  6  7  2  0
  6  8  1  0
  8  9  2  3
  9 10  1  0
  9 15  1  0
 10 11  1  0
 11 12  1  0
 12 13  1  0
 13 14  1  0
 14 15  1  0
 16 17  1  0
 17 18  1  0
 17 19  2  0
M  CHG  1  13   1
M  END
