
     RDKit          3D

 19 21  0  0  0  0  0  0  0  0999 V2000
    6.4100   -0.6660   -1.7100 N   0  0  0  0  0  0  0  0  0  0  0  0
    5.3350   -0.7640   -0.9630 C   0  0  0  0  0  0  0  0  0  0  0  0
    3.9810   -0.3020   -1.3200 C   0  0  0  0  0  0  0  0  0  0  0  0
    3.1340   -0.6390   -0.1600 C   0  0  0  0  0  0  0  0  0  0  0  0
    1.7550   -0.4330    0.0620 C   0  0  0  0  0  0  0  0  0  0  0  0
    1.1320   -0.8110    1.2040 C   0  0  0  0  0  0  0  0  0  0  0  0
   -0.2440   -0.6400    1.4690 N   0  0  0  0  0  0  0  0  0  0  0  0
   -1.2390   -0.2230    0.5820 C   0  0  0  0  0  0  0  0  0  0  0  0
   -0.9400    0.0430   -0.6030 O   0  0  0  0  0  0  0  0  0  0  0  0
   -2.6860   -0.0840    1.0320 C   0  0  0  0  0  0  0  0  0  0  0  0
   -3.5050    0.3600   -0.0670 N   0  0  0  0  0  0  0  0  0  0  0  0
   -4.8680    0.4580    0.4600 C   0  0  0  0  0  0  0  0  0  0  0  0
   -5.5540    1.3640   -0.5380 C   0  0  0  0  0  0  0  0  0  0  0  0
   -4.4340    2.0790   -1.2720 C   0  0  0  0  0  0  0  0  0  0  0  0
   -3.2410    1.7710   -0.3580 C   0  0  0  0  0  0  0  0  0  0  0  0
    1.9490   -1.4280    2.1700 C   0  0  0  0  0  0  0  0  0  0  0  0
    3.2880   -1.6310    1.9620 C   0  0  0  0  0  0  0  0  0  0  0  0
    3.9170   -1.2390    0.7850 C   0  0  0  0  0  0  0  0  0  0  0  0
    5.2620   -1.3320    0.3320 N   0  0  0  0  0  0  0  0  0  0  0  0
  1  2  2  0
  2  3  1  0
  2 19  1  0
  3  4  1  0
  4  5  2  0
  4 18  1  0
  5  6  1  0
  6  7  1  0
  6 16  2  0
  7  8  1  0
  8  9  2  0
  8 10  1  0
 10 11  1  0
 11 12  1  0
 11 15  1  0
 12 13  1  0
 13 14  1  0
 14 15  1  0
 16 17  1  0
 17 18  2  0
 18 19  1  0
M  CHG  1   1   1
M  END
