
     RDKit          3D

 12 13  0  0  0  0  0  0  0  0999 V2000
   -2.0060   -2.4590   -0.3990 N   0  0  0  0  0  0  0  0  0  0  0  0
   -1.1810   -1.3070   -0.0350 C   0  0  0  0  0  0  0  0  0  0  0  0
    0.0410   -1.4440   -0.1750 N   0  0  0  0  0  0  0  0  0  0  0  0
    1.1570   -0.6310    0.0430 C   0  0  0  0  0  0  0  0  0  0  0  0
    1.8290   -0.4530    1.1370 N   0  0  0  0  0  0  0  0  0  0  0  0
    2.9120    0.4640    0.9460 C   0  0  0  0  0  0  0  0  0  0  0  0
    2.8400    0.8520   -0.4650 C   0  0  0  0  0  0  0  0  0  0  0  0
    1.8140    0.2080   -0.9760 C   0  0  0  0  0  0  0  0  0  0  0  0
    1.2470    0.2910   -2.6510 Cl  0  0  0  0  0  0  0  0  0  0  0  0
   -1.8590   -0.1090    0.4600 C   0  0  1  0  0  0  0  0  0  0  0  0
   -1.2220    1.1650    0.7660 C   0  0  0  0  0  0  0  0  0  0  0  0
   -1.9750    1.0890   -0.5270 C   0  0  0  0  0  0  0  0  0  0  0  0
  1  2  1  0
  2  3  2  3
 10  2  1  6
  3  4  1  0
  4  5  2  0
  4  8  1  0
  5  6  1  0
  6  7  1  0
  7  8  2  0
  8  9  1  0
 10 11  1  0
 10 12  1  0
 11 12  1  0
M  END
