
     RDKit          3D

 11 12  0  0  0  0  0  0  0  0999 V2000
    1.4920    1.4750    0.0090 C   0  0  0  0  0  0  0  0  0  0  0  0
    0.3870    0.7660    0.1510 C   0  0  0  0  0  0  0  0  0  0  0  0
   -0.8050    1.6140    0.3820 C   0  0  0  0  0  0  0  0  0  0  0  0
   -1.9870    1.1330   -0.2690 N   0  0  0  0  0  0  0  0  0  0  0  0
   -2.3940   -0.0900    0.4070 C   0  0  0  0  0  0  0  0  0  0  0  0
   -1.8760   -1.2550   -0.4000 C   0  0  0  0  0  0  0  0  0  0  0  0
   -0.5630   -1.7370    0.1810 C   0  0  0  0  0  0  0  0  0  0  0  0
    0.4950   -0.6820    0.0630 C   0  0  0  0  0  0  0  0  0  0  0  0
    1.6370   -1.2040   -0.1440 N   0  0  0  0  0  0  0  0  0  0  0  0
    2.8960   -0.5520   -0.3140 C   0  0  0  0  0  0  0  0  0  0  0  0
    2.7520    0.8740   -0.2220 N   0  0  0  0  0  0  0  0  0  0  0  0
  1  2  2  0
  1 11  1  0
  2  3  1  0
  2  8  1  0
  3  4  1  0
  4  5  1  0
  5  6  1  0
  6  7  1  0
  7  8  1  0
  8  9  2  0
  9 10  1  0
 10 11  1  0
M  END
