
     RDKit          3D

 12 12  0  0  0  0  0  0  0  0999 V2000
   -1.4650   -2.5000    0.7090 C   0  0  0  0  0  0  0  0  0  0  0  0
   -0.5550   -1.3930    0.3350 C   0  0  0  0  0  0  0  0  0  0  0  0
   -0.9900   -0.1380    0.1910 C   0  0  0  0  0  0  0  0  0  0  0  0
   -2.4050    0.1600    0.4060 C   0  0  0  0  0  0  0  0  0  0  0  0
   -0.0920    0.9430   -0.1770 C   0  0  0  0  0  0  0  0  0  0  0  0
   -0.5490    2.1630   -0.3110 C   0  0  0  0  0  0  0  0  0  0  0  0
    0.2480    3.2740   -0.6640 N   0  0  0  0  0  0  0  0  0  0  0  0
    1.2760    0.6280   -0.3800 N   0  0  0  0  0  0  0  0  0  0  0  0
    1.6880   -0.7460   -0.2090 C   0  0  0  0  0  0  0  0  0  0  0  0
    3.1070   -1.0450   -0.4250 C   0  0  0  0  0  0  0  0  0  0  0  0
    4.1640   -0.1310    0.6930 Cl  0  0  0  0  0  0  0  0  0  0  0  0
    0.8400   -1.6490    0.1160 N   0  0  0  0  0  0  0  0  0  0  0  0
  1  2  1  0
  2  3  2  0
  2 12  1  0
  3  4  1  0
  3  5  1  0
  5  6  2  3
  5  8  1  0
  6  7  1  0
  8  9  1  0
  9 10  1  0
  9 12  2  0
 10 11  1  0
M  END
