
     RDKit          3D

 12 12  0  0  0  0  0  0  0  0999 V2000
    3.4370   -1.1630   -0.1240 C   0  0  0  0  0  0  0  0  0  0  0  0
    2.9990   -0.1200    0.8270 C   0  0  0  0  0  0  0  0  0  0  0  0
    4.2460    0.5110    1.9220 Cl  0  0  0  0  0  0  0  0  0  0  0  0
    1.7690    0.3390    0.8890 C   0  0  0  0  0  0  0  0  0  0  0  0
    0.6470   -0.0670    0.0760 C   0  0  0  0  0  0  0  0  0  0  0  0
    0.8270   -1.0630   -0.9130 N   0  0  0  0  0  0  0  0  0  0  0  0
   -0.5730    0.4750    0.2300 C   0  0  0  0  0  0  0  0  0  0  0  0
   -0.8890    1.4890    1.1910 N   0  0  0  0  0  0  0  0  0  0  0  0
   -2.3060    1.3130    1.4550 C   0  0  0  0  0  0  0  0  0  0  0  0
   -2.8240    0.9010    0.1030 C   0  0  0  0  0  0  0  0  0  0  0  0
   -1.7240    0.1470   -0.5110 N   0  0  0  0  0  0  0  0  0  0  0  0
   -1.8410   -0.7420   -1.6490 C   0  0  0  0  0  0  0  0  0  0  0  0
  1  2  1  0
  2  3  1  0
  2  4  2  3
  4  5  1  0
  5  6  1  0
  5  7  2  3
  7  8  1  0
  7 11  1  0
  8  9  1  0
  9 10  1  0
 10 11  1  0
 11 12  1  0
M  END
