
     RDKit          3D

 25 26  0  0  0  0  0  0  0  0999 V2000
   -4.3580   -0.2300    1.8150 C   0  0  0  0  0  0  0  0  0  0  0  0
   -3.2880   -0.5850    1.0320 O   0  0  0  0  0  0  0  0  0  0  0  0
   -2.9980    0.3350    0.0270 C   0  0  1  0  0  0  0  0  0  0  0  0
   -1.7960   -0.2300   -0.7240 C   0  0  0  0  0  0  0  0  0  0  0  0
   -0.6600   -0.3920    0.1590 N   0  0  0  0  0  0  0  0  0  0  0  0
    0.5910   -0.8930   -0.2510 C   0  0  0  0  0  0  0  0  0  0  0  0
    0.7680   -1.2290   -1.4370 O   0  0  0  0  0  0  0  0  0  0  0  0
    1.7100   -1.0470    0.6400 N   0  0  0  0  0  0  0  0  0  0  0  0
    2.9500   -1.5570    0.1830 C   0  0  0  0  0  0  0  0  0  0  0  0
    3.2070   -2.8640    0.4060 C   0  0  0  0  0  0  0  0  0  0  0  0
    4.4440   -3.5450   -0.0040 C   0  0  2  0  0  0  0  0  0  0  0  0
    4.8340   -4.4940    0.9340 O   0  0  0  0  0  0  0  0  0  0  0  0
    5.5670   -2.5580   -0.2370 C   0  0  0  0  0  0  0  0  0  0  0  0
    5.0950   -1.4930   -1.0190 O   0  0  0  0  0  0  0  0  0  0  0  0
    3.9060   -0.7900   -0.5450 C   0  0  0  0  0  0  0  0  0  0  0  0
    3.8980    0.4670   -0.8410 C   0  0  0  0  0  0  0  0  0  0  0  0
    2.9850    1.5090   -0.5510 C   0  0  0  0  0  0  0  0  0  0  0  0
    1.9400    1.4950    0.1200 O   0  0  0  0  0  0  0  0  0  0  0  0
    3.2380    2.8340   -1.0860 O   0  0  0  0  0  0  0  0  0  0  0  0
    2.3570    3.8440   -0.8080 N   0  0  0  0  0  0  0  0  0  0  0  0
   -4.1290    0.4080   -0.9550 C   0  0  0  0  0  0  0  0  0  0  0  0
   -5.1080    1.4880   -0.7190 C   0  0  0  0  0  0  0  0  0  0  0  0
   -4.7910    2.3500    0.3200 O   0  0  0  0  0  0  0  0  0  0  0  0
   -3.4890    2.7950    0.0970 C   0  0  0  0  0  0  0  0  0  0  0  0
   -2.5790    1.6730    0.5680 C   0  0  0  0  0  0  0  0  0  0  0  0
  1  2  1  0
  2  3  1  0
  3  4  1  6
  3 21  1  0
  3 25  1  0
  4  5  1  0
  5  6  1  0
  6  7  2  0
  6  8  1  0
  8  9  1  0
  9 10  2  0
  9 15  1  0
 10 11  1  0
 11 12  1  1
 11 13  1  0
 13 14  1  0
 14 15  1  0
 15 16  2  3
 16 17  1  0
 17 18  2  0
 17 19  1  0
 19 20  1  0
 21 22  1  0
 22 23  1  0
 23 24  1  0
 24 25  1  0
M  END
