
     RDKit          3D

 25 26  0  0  0  0  0  0  0  0999 V2000
   -5.8260    0.3170   -1.3180 C   0  0  0  0  0  0  0  0  0  0  0  0
   -5.1420   -0.6470   -0.3680 C   0  0  1  0  0  0  0  0  0  0  0  0
   -5.8300   -1.8750   -0.4470 O   0  0  0  0  0  0  0  0  0  0  0  0
   -3.7280   -0.9160   -0.7420 C   0  0  0  0  0  0  0  0  0  0  0  0
   -2.7370   -0.5850    0.3420 C   0  0  0  0  0  0  0  0  0  0  0  0
   -2.9610    0.7840    0.9060 C   0  0  2  0  0  0  0  0  0  0  0  0
   -1.9460    1.2190    1.8730 C   0  0  0  0  0  0  0  0  0  0  0  0
   -2.3560    1.6800    2.9970 O   0  0  0  0  0  0  0  0  0  0  0  0
   -0.6080    1.1810    1.7050 O   0  0  0  0  0  0  0  0  0  0  0  0
    0.4200    1.5620    2.5540 C   0  0  0  0  0  0  0  0  0  0  0  0
    1.7780    1.3580    2.1060 C   0  0  0  0  0  0  0  0  0  0  0  0
    2.8520    1.5360    2.5210 O   0  0  0  0  0  0  0  0  0  0  0  0
    1.8300    0.6530    0.5060 N   0  0  0  0  0  0  0  0  0  0  0  0
    3.2220    0.5720    0.3930 C   0  0  0  0  0  0  0  0  0  0  0  0
    4.1730    0.8240    1.0500 O   0  0  0  0  0  0  0  0  0  0  0  0
    3.5360   -0.0150   -0.9640 N   0  0  0  0  0  0  0  0  0  0  0  0
    4.8490   -0.2650   -1.3300 C   0  0  0  0  0  0  0  0  0  0  0  0
    5.2390   -1.5240   -1.6060 C   0  0  0  0  0  0  0  0  0  0  0  0
    6.5740   -1.9230   -1.9990 C   0  0  0  0  0  0  0  0  0  0  0  0
    7.4330   -0.8240   -2.0430 O   0  0  0  0  0  0  0  0  0  0  0  0
    7.0850    0.4900   -1.7690 C   0  0  0  0  0  0  0  0  0  0  0  0
    5.8660    0.7750   -1.4300 C   0  0  0  0  0  0  0  0  0  0  0  0
   -4.3050    0.8410    1.4490 N   0  0  0  0  0  0  0  0  0  0  0  0
   -5.2080   -0.1900    1.0340 C   0  0  0  0  0  0  0  0  0  0  0  0
   -6.0180   -0.6590    1.8830 O   0  0  0  0  0  0  0  0  0  0  0  0
  2  1  1  6
  2  3  1  0
  2  4  1  0
  2 24  1  0
  4  5  1  0
  5  6  1  0
  6  7  1  1
  6 23  1  0
  7  8  2  0
  7  9  1  0
  9 10  1  0
 10 11  1  0
 11 12  2  0
 11 13  1  0
 13 14  1  0
 14 15  2  0
 14 16  1  0
 16 17  1  0
 17 18  2  0
 17 22  1  0
 18 19  1  0
 19 20  1  0
 20 21  1  0
 21 22  2  0
 23 24  1  0
 24 25  2  0
M  END
