
     RDKit          3D

 25 26  0  0  0  0  0  0  0  0999 V2000
   -0.1590   -3.0090   -1.1890 C   0  0  0  0  0  0  0  0  0  0  0  0
   -1.1180   -2.1370   -0.4870 C   0  0  0  0  0  0  0  0  0  0  0  0
   -2.0060   -2.6770    0.2240 O   0  0  0  0  0  0  0  0  0  0  0  0
   -1.1060   -0.7170   -0.5600 N   0  0  0  0  0  0  0  0  0  0  0  0
   -2.0410    0.1210    0.1250 C   0  0  1  0  0  0  0  0  0  0  0  0
   -1.3920    1.0560    1.0790 C   0  0  0  0  0  0  0  0  0  0  0  0
   -0.1660    0.9400    1.4760 N   0  0  0  0  0  0  0  0  0  0  0  0
    0.6550   -0.0730    1.0430 O   0  0  0  0  0  0  0  0  0  0  0  0
    1.9730    0.2370    0.6270 C   0  0  0  0  0  0  0  0  0  0  0  0
    2.3760    1.4200    0.6560 O   0  0  0  0  0  0  0  0  0  0  0  0
    2.7810   -0.8220    0.1920 N   0  0  0  0  0  0  0  0  0  0  0  0
    4.1060   -0.6980   -0.2520 C   0  0  0  0  0  0  0  0  0  0  0  0
    4.8240    0.4460   -0.2690 C   0  0  0  0  0  0  0  0  0  0  0  0
    6.1460    0.4670   -0.7390 C   0  0  0  0  0  0  0  0  0  0  0  0
    6.7600   -0.6740   -1.2000 C   0  0  0  0  0  0  0  0  0  0  0  0
    6.0450   -1.8450   -1.1890 C   0  0  0  0  0  0  0  0  0  0  0  0
    4.7500   -1.8440   -0.7240 C   0  0  0  0  0  0  0  0  0  0  0  0
   -2.1930    2.0920    1.5360 O   0  0  0  0  0  0  0  0  0  0  0  0
   -3.5740    2.1390    1.2690 C   0  0  2  0  0  0  0  0  0  0  0  0
   -4.3790    1.4250    2.3460 C   0  0  0  0  0  0  0  0  0  0  0  0
   -4.1730    2.0090    3.5950 O   0  0  0  0  0  0  0  0  0  0  0  0
   -3.9540    1.6860   -0.0920 C   0  0  1  0  0  0  0  0  0  0  0  0
   -4.4540    2.7380   -0.8580 O   0  0  0  0  0  0  0  0  0  0  0  0
   -2.8800    0.9380   -0.8270 C   0  0  2  0  0  0  0  0  0  0  0  0
   -3.4080    0.0620   -1.7750 O   0  0  0  0  0  0  0  0  0  0  0  0
  1  2  1  0
  2  3  2  0
  2  4  1  0
  5  4  1  6
  5  6  1  0
  5 24  1  0
  6  7  2  3
  6 18  1  0
  7  8  1  0
  8  9  1  0
  9 10  2  0
  9 11  1  0
 11 12  1  0
 12 13  2  0
 12 17  1  0
 13 14  1  0
 14 15  2  0
 15 16  1  0
 16 17  2  0
 18 19  1  0
 19 20  1  1
 19 22  1  0
 20 21  1  0
 22 23  1  6
 22 24  1  0
 24 25  1  6
M  END
