
     RDKit          3D

 25 26  0  0  0  0  0  0  0  0999 V2000
   -4.8220   -1.5000   -1.2180 C   0  0  0  0  0  0  0  0  0  0  0  0
   -4.5690   -0.0460   -0.9060 C   0  0  1  0  0  0  0  0  0  0  0  0
   -3.8730    0.0080    0.3210 O   0  0  0  0  0  0  0  0  0  0  0  0
   -2.5540   -0.3530    0.1140 C   0  0  0  0  0  0  0  0  0  0  0  0
   -1.5980   -0.9250    1.1350 C   0  0  1  0  0  0  0  0  0  0  0  0
   -2.1120   -2.2220    1.6860 C   0  0  0  0  0  0  0  0  0  0  0  0
   -1.3450   -2.6500    2.7660 O   0  0  0  0  0  0  0  0  0  0  0  0
   -0.2610   -0.9550    0.6600 N   0  0  0  0  0  0  0  0  0  0  0  0
    0.7430   -0.1620    1.2660 C   0  0  0  0  0  0  0  0  0  0  0  0
    0.4060    0.5600    2.2300 O   0  0  0  0  0  0  0  0  0  0  0  0
    2.1360   -0.1970    0.7650 C   0  0  0  0  0  0  0  0  0  0  0  0
    2.3860   -0.9360   -0.1890 O   0  0  0  0  0  0  0  0  0  0  0  0
    3.1060    0.5960    1.3820 N   0  0  0  0  0  0  0  0  0  0  0  0
    4.4480    0.6460    1.0000 C   0  0  0  0  0  0  0  0  0  0  0  0
    4.9900   -0.0460    0.0040 C   0  0  0  0  0  0  0  0  0  0  0  0
    6.4360    0.1640   -0.2230 C   0  0  0  0  0  0  0  0  0  0  0  0
    7.0600   -0.6550   -0.9280 O   0  0  0  0  0  0  0  0  0  0  0  0
    7.0820    1.3330    0.3930 C   0  0  0  0  0  0  0  0  0  0  0  0
    6.1090    2.2350    0.8050 O   0  0  0  0  0  0  0  0  0  0  0  0
    5.3700    1.5740    1.7880 C   0  0  0  0  0  0  0  0  0  0  0  0
   -2.2810   -0.1030   -1.1570 C   0  0  0  0  0  0  0  0  0  0  0  0
   -3.4670    0.4440   -1.8170 C   0  0  0  0  0  0  0  0  0  0  0  0
   -3.5720    1.1620   -2.8960 C   0  0  0  0  0  0  0  0  0  0  0  0
   -4.8220    1.6090   -3.3940 N   0  0  0  0  0  0  0  0  0  0  0  0
   -5.3630    2.7810   -2.9640 O   0  0  0  0  0  0  0  0  0  0  0  0
  2  1  1  6
  2  3  1  0
  2 22  1  0
  3  4  1  0
  4  5  1  0
  4 21  2  0
  5  6  1  6
  5  8  1  0
  6  7  1  0
  8  9  1  0
  9 10  2  0
  9 11  1  0
 11 12  2  0
 11 13  1  0
 13 14  1  0
 14 15  2  0
 14 20  1  0
 15 16  1  0
 16 17  2  0
 16 18  1  0
 18 19  1  0
 19 20  1  0
 21 22  1  0
 22 23  2  3
 23 24  1  0
 24 25  1  0
M  END
