
     RDKit          3D

 25 26  0  0  0  0  0  0  0  0999 V2000
    2.1200    3.5040    1.4260 C   0  0  0  0  0  0  0  0  0  0  0  0
    1.9930    2.1810    0.8070 C   0  0  0  0  0  0  0  0  0  0  0  0
    2.6650    1.7990   -0.2700 C   0  0  0  0  0  0  0  0  0  0  0  0
    3.5820    2.7090   -0.8950 C   0  0  0  0  0  0  0  0  0  0  0  0
    4.2870    2.5080   -1.9080 N   0  0  0  0  0  0  0  0  0  0  0  0
    3.7210    4.0000   -0.3120 O   0  0  0  0  0  0  0  0  0  0  0  0
    2.4830    0.4600   -0.8280 C   0  0  0  0  0  0  0  0  0  0  0  0
    3.1270    0.1190   -1.8450 O   0  0  0  0  0  0  0  0  0  0  0  0
    1.6070   -0.5250   -0.2970 N   0  0  0  0  0  0  0  0  0  0  0  0
    1.4630   -1.8340   -0.8860 C   0  0  1  0  0  0  0  0  0  0  0  0
    1.7410   -2.9480    0.0800 C   0  0  0  0  0  0  0  0  0  0  0  0
    1.0980   -4.0620   -0.5550 O   0  0  0  0  0  0  0  0  0  0  0  0
    0.0650   -3.6040   -1.3510 C   0  0  0  0  0  0  0  0  0  0  0  0
   -0.7050   -4.3290   -2.0100 O   0  0  0  0  0  0  0  0  0  0  0  0
    0.0320   -2.1260   -1.2870 C   0  0  1  0  0  0  0  0  0  0  0  0
   -0.8870   -1.7700   -0.1840 N   0  0  0  0  0  0  0  0  0  0  0  0
   -1.9860   -0.9210   -0.3950 C   0  0  0  0  0  0  0  0  0  0  0  0
   -2.1030   -0.5020   -1.6060 O   0  0  0  0  0  0  0  0  0  0  0  0
   -2.9750   -0.4740    0.5630 C   0  0  0  0  0  0  0  0  0  0  0  0
   -3.9600    0.3510    0.1410 C   0  0  0  0  0  0  0  0  0  0  0  0
   -5.0040    0.8540    1.0410 C   0  0  0  0  0  0  0  0  0  0  0  0
   -4.9030    0.4160    2.3630 O   0  0  0  0  0  0  0  0  0  0  0  0
   -3.9180   -0.4110    2.7940 C   0  0  0  0  0  0  0  0  0  0  0  0
   -2.9790   -0.8540    1.9530 C   0  0  0  0  0  0  0  0  0  0  0  0
   -1.9790   -1.7100    2.4440 O   0  0  0  0  0  0  0  0  0  0  0  0
  1  2  1  0
  2  3  2  3
  3  4  1  0
  3  7  1  0
  4  5  2  0
  4  6  1  0
  7  8  2  0
  7  9  1  0
 10  9  1  1
 10 11  1  0
 10 15  1  0
 11 12  1  0
 12 13  1  0
 13 14  2  0
 13 15  1  0
 15 16  1  1
 16 17  1  0
 17 18  2  0
 17 19  1  0
 19 20  2  0
 19 24  1  0
 20 21  1  0
 21 22  1  0
 22 23  1  0
 23 24  2  0
 24 25  1  0
M  END
