
     RDKit          3D

 25 26  0  0  0  0  0  0  0  0999 V2000
   -4.9930   -1.4290   -1.6950 C   0  0  0  0  0  0  0  0  0  0  0  0
   -5.8920   -0.4280   -1.5170 O   0  0  0  0  0  0  0  0  0  0  0  0
   -5.8910    0.2920   -0.3800 C   0  0  0  0  0  0  0  0  0  0  0  0
   -4.6430    1.0200   -0.0150 C   0  0  2  0  0  0  0  0  0  0  0  0
   -3.6000    0.1150    0.2080 N   0  0  0  0  0  0  0  0  0  0  0  0
   -2.1670    0.3290   -0.1770 C   0  0  0  0  0  0  0  0  0  0  0  0
   -1.9400    1.3390   -0.7770 O   0  0  0  0  0  0  0  0  0  0  0  0
   -1.4480   -0.7670    0.3040 N   0  0  0  0  0  0  0  0  0  0  0  0
    0.1510   -0.1680   -0.0410 C   0  0  0  0  0  0  0  0  0  0  0  0
    0.1190    0.9660   -0.3420 O   0  0  0  0  0  0  0  0  0  0  0  0
    1.1580   -1.1720    0.1180 C   0  0  0  0  0  0  0  0  0  0  0  0
    2.5030   -0.7690    0.6540 C   0  0  1  0  0  0  0  0  0  0  0  0
    3.3330   -2.0470    0.5950 C   0  0  0  0  0  0  0  0  0  0  0  0
    4.2750   -1.7480   -0.5980 C   0  0  0  0  0  0  0  0  0  0  0  0
    4.5140   -0.3020   -0.2910 C   0  0  0  0  0  0  0  0  0  0  0  0
    5.6030    0.3970   -0.2740 C   0  0  0  0  0  0  0  0  0  0  0  0
    6.8540   -0.1720   -0.5810 O   0  0  0  0  0  0  0  0  0  0  0  0
    7.8220    0.8440   -0.4630 C   0  0  0  0  0  0  0  0  0  0  0  0
    7.2830    1.9830   -0.1130 C   0  0  0  0  0  0  0  0  0  0  0  0
    5.8420    1.7970    0.0340 C   0  0  0  0  0  0  0  0  0  0  0  0
    4.9510    2.6370    0.3550 O   0  0  0  0  0  0  0  0  0  0  0  0
    3.2180    0.1920   -0.0040 O   0  0  0  0  0  0  0  0  0  0  0  0
   -4.8920    1.8120    1.2460 C   0  0  0  0  0  0  0  0  0  0  0  0
   -5.9470    2.7250    1.4060 N   0  0  0  0  0  0  0  0  0  0  0  0
   -4.0910    1.6150    2.1910 O   0  0  0  0  0  0  0  0  0  0  0  0
  1  2  1  0
  2  3  1  0
  4  3  1  1
  4  5  1  0
  4 23  1  0
  5  6  1  0
  6  7  2  0
  6  8  1  0
  8  9  1  0
  9 10  2  0
  9 11  1  0
 12 11  1  6
 12 13  1  0
 12 22  1  0
 13 14  1  0
 14 15  1  0
 15 16  2  3
 15 22  1  0
 16 17  1  0
 16 20  1  0
 17 18  1  0
 18 19  2  0
 19 20  1  0
 20 21  2  0
 23 24  1  0
 23 25  2  0
M  END
