
     RDKit          3D

 25 26  0  0  0  0  0  0  0  0999 V2000
    3.3760    3.4530   -0.0340 C   0  0  0  0  0  0  0  0  0  0  0  0
    2.7870    2.3210    0.5440 O   0  0  0  0  0  0  0  0  0  0  0  0
    1.7750    1.6660   -0.1400 C   0  0  0  0  0  0  0  0  0  0  0  0
    1.4310    2.1230   -1.2560 O   0  0  0  0  0  0  0  0  0  0  0  0
    1.0960    0.4640    0.3960 C   0  0  1  0  0  0  0  0  0  0  0  0
    0.0980    0.0400   -0.5570 N   0  0  0  0  0  0  0  0  0  0  0  0
   -1.2710   -0.0590   -0.2080 C   0  0  0  0  0  0  0  0  0  0  0  0
   -1.5390    0.2540    1.0030 O   0  0  0  0  0  0  0  0  0  0  0  0
   -2.2410   -0.4750   -1.1480 N   0  0  0  0  0  0  0  0  0  0  0  0
   -3.6140   -0.5320   -0.7490 C   0  0  0  0  0  0  0  0  0  0  0  0
   -4.1960   -1.7100   -0.6390 C   0  0  0  0  0  0  0  0  0  0  0  0
   -5.5920   -1.9080   -0.2400 C   0  0  0  0  0  0  0  0  0  0  0  0
   -6.2260   -0.6950    0.0080 O   0  0  0  0  0  0  0  0  0  0  0  0
   -5.6500    0.5330   -0.1050 C   0  0  0  0  0  0  0  0  0  0  0  0
   -4.3720    0.6610   -0.4730 C   0  0  0  0  0  0  0  0  0  0  0  0
   -3.8060    1.9980   -0.6150 C   0  0  0  0  0  0  0  0  0  0  0  0
   -2.6350    2.1970   -0.9700 O   0  0  0  0  0  0  0  0  0  0  0  0
   -4.6150    3.1050   -0.3410 O   0  0  0  0  0  0  0  0  0  0  0  0
    2.0850   -0.6690    0.5370 C   0  0  2  0  0  0  0  0  0  0  0  0
    3.2310   -0.3510    1.4730 C   0  0  0  0  0  0  0  0  0  0  0  0
    3.9510   -1.6400    1.7740 C   0  0  0  0  0  0  0  0  0  0  0  0
    3.9060   -2.6500    0.6750 C   0  0  0  0  0  0  0  0  0  0  0  0
    3.7340   -1.9860   -0.6450 C   0  0  0  0  0  0  0  0  0  0  0  0
    4.4320   -2.2360   -1.6530 O   0  0  0  0  0  0  0  0  0  0  0  0
    2.7000   -1.0090   -0.7300 N   0  0  0  0  0  0  0  0  0  0  0  0
  1  2  1  0
  2  3  1  0
  3  4  2  0
  3  5  1  0
  5  6  1  6
  5 19  1  0
  6  7  1  0
  7  8  2  0
  7  9  1  0
  9 10  1  0
 10 11  2  0
 10 15  1  0
 11 12  1  0
 12 13  1  0
 13 14  1  0
 14 15  2  0
 15 16  1  0
 16 17  2  0
 16 18  1  0
 19 20  1  1
 19 25  1  0
 20 21  1  0
 21 22  1  0
 22 23  1  0
 23 24  2  0
 23 25  1  0
M  END
