
     RDKit          3D

 27 29  0  0  0  0  0  0  0  0999 V2000
   -5.4080   -2.7940    1.2380 C   0  0  0  0  0  0  0  0  0  0  0  0
   -5.0260   -1.3500    1.0480 C   0  0  0  0  0  0  0  0  0  0  0  0
   -3.5930   -1.1640    0.8220 C   0  0  0  0  0  0  0  0  0  0  0  0
   -2.7880   -2.1310    0.7990 O   0  0  0  0  0  0  0  0  0  0  0  0
   -2.9810    0.1340    0.6100 N   0  0  0  0  0  0  0  0  0  0  0  0
   -1.5830    0.2420    0.4070 C   0  0  0  0  0  0  0  0  0  0  0  0
   -0.8910    0.7120    1.4720 C   0  0  0  0  0  0  0  0  0  0  0  0
    0.5570    0.8730    1.4320 C   0  0  0  0  0  0  0  0  0  0  0  0
    1.1240    1.3140    2.4530 O   0  0  0  0  0  0  0  0  0  0  0  0
    1.3130    0.5350    0.2500 C   0  0  0  0  0  0  0  0  0  0  0  0
    2.7900    0.6760    0.1450 C   0  0  0  0  0  0  0  0  0  0  0  0
    3.2940    0.3330   -0.9710 O   0  0  0  0  0  0  0  0  0  0  0  0
    3.6360    1.1360    1.1340 N   0  0  0  0  0  0  0  0  0  0  0  0
    5.0390    1.2560    0.9600 C   0  0  0  0  0  0  0  0  0  0  0  0
    5.6630    1.3740   -0.2380 C   0  0  0  0  0  0  0  0  0  0  0  0
    7.0690    1.4610   -0.3310 C   0  0  0  0  0  0  0  0  0  0  0  0
    7.8040    1.4220    0.8250 C   0  0  0  0  0  0  0  0  0  0  0  0
    7.1610    1.3030    2.0340 C   0  0  0  0  0  0  0  0  0  0  0  0
    5.7970    1.2180    2.1410 C   0  0  0  0  0  0  0  0  0  0  0  0
    0.6490    0.0820   -0.7840 C   0  0  0  0  0  0  0  0  0  0  0  0
   -0.8570   -0.0940   -0.7820 C   0  0  0  0  0  0  0  0  0  0  0  0
   -1.3900   -0.3600   -1.9320 C   0  0  0  0  0  0  0  0  0  0  0  0
   -2.7610   -0.3850   -2.3770 C   0  0  0  0  0  0  0  0  0  0  0  0
   -3.1200   -0.7260   -3.6560 C   0  0  0  0  0  0  0  0  0  0  0  0
   -4.4690   -0.6740   -3.8280 O   0  0  0  0  0  0  0  0  0  0  0  0
   -5.0700   -0.4100   -2.5950 C   0  0  0  0  0  0  0  0  0  0  0  0
   -3.9660   -0.1190   -1.7960 O   0  0  0  0  0  0  0  0  0  0  0  0
  1  2  1  0
  2  3  1  0
  3  4  2  0
  3  5  1  0
  5  6  1  0
  6  7  2  0
  6 21  1  0
  7  8  1  0
  8  9  2  0
  8 10  1  0
 10 11  1  0
 10 20  2  0
 11 12  2  0
 11 13  1  0
 13 14  1  0
 14 15  2  0
 14 19  1  0
 15 16  1  0
 16 17  2  0
 17 18  1  0
 18 19  2  0
 20 21  1  0
 21 22  2  3
 22 23  1  0
 23 24  2  0
 23 27  1  0
 24 25  1  0
 25 26  1  0
 26 27  1  0
M  END
