
     RDKit          3D

 27 29  0  0  0  0  0  0  0  0999 V2000
   -0.6340   -4.1360    0.5430 C   0  0  0  0  0  0  0  0  0  0  0  0
   -0.5170   -2.7700    1.1010 C   0  0  0  0  0  0  0  0  0  0  0  0
    0.6800   -2.2480    1.2540 C   0  0  0  0  0  0  0  0  0  0  0  0
    1.9120   -2.9910    0.8810 C   0  0  0  0  0  0  0  0  0  0  0  0
    2.6500   -2.2560   -0.1390 N   0  0  0  0  0  0  0  0  0  0  0  0
    3.1440   -0.9580    0.0600 C   0  0  0  0  0  0  0  0  0  0  0  0
    2.9490   -0.3870    1.1640 O   0  0  0  0  0  0  0  0  0  0  0  0
    3.8640   -0.2330   -0.9280 N   0  0  0  0  0  0  0  0  0  0  0  0
    4.3630    1.0840   -0.7220 C   0  0  0  0  0  0  0  0  0  0  0  0
    5.6850    1.2320   -0.8330 C   0  0  0  0  0  0  0  0  0  0  0  0
    6.3340    2.5460   -0.6440 C   0  0  0  0  0  0  0  0  0  0  0  0
    5.4220    3.5660   -0.3470 O   0  0  0  0  0  0  0  0  0  0  0  0
    4.0680    3.3910   -0.2390 C   0  0  0  0  0  0  0  0  0  0  0  0
    3.5080    2.2050   -0.4120 C   0  0  0  0  0  0  0  0  0  0  0  0
   -1.7060   -2.0290    1.4700 C   0  0  0  0  0  0  0  0  0  0  0  0
   -1.5590   -0.8730    1.9400 O   0  0  0  0  0  0  0  0  0  0  0  0
   -2.9930   -2.5370    1.3280 O   0  0  0  0  0  0  0  0  0  0  0  0
   -4.1070   -1.7680    1.7030 C   0  0  0  0  0  0  0  0  0  0  0  0
   -4.1770   -0.4960    0.9190 C   0  0  0  0  0  0  0  0  0  0  0  0
   -3.3880   -0.1290   -0.1420 C   0  0  0  0  0  0  0  0  0  0  0  0
   -3.8160    1.1190   -0.5400 C   0  0  0  0  0  0  0  0  0  0  0  0
   -3.4300    2.0030   -1.5330 C   0  0  0  0  0  0  0  0  0  0  0  0
   -4.0620    3.2170   -1.6990 C   0  0  0  0  0  0  0  0  0  0  0  0
   -5.1010    3.5690   -0.8650 C   0  0  0  0  0  0  0  0  0  0  0  0
   -5.4810    2.6950    0.1140 C   0  0  0  0  0  0  0  0  0  0  0  0
   -4.8530    1.4660    0.2950 C   0  0  0  0  0  0  0  0  0  0  0  0
   -5.0160    0.4780    1.1270 O   0  0  0  0  0  0  0  0  0  0  0  0
  1  2  1  0
  2  3  2  3
  2 15  1  0
  3  4  1  0
  4  5  1  0
  5  6  1  0
  6  7  2  0
  6  8  1  0
  8  9  1  0
  9 10  2  0
  9 14  1  0
 10 11  1  0
 11 12  1  0
 12 13  1  0
 13 14  2  0
 15 16  2  0
 15 17  1  0
 17 18  1  0
 18 19  1  0
 19 20  2  0
 19 27  1  0
 20 21  1  0
 21 22  2  0
 21 26  1  0
 22 23  1  0
 23 24  2  0
 24 25  1  0
 25 26  2  0
 26 27  1  0
M  END
