
     RDKit          3D

 14 15  0  0  0  0  0  0  0  0999 V2000
    3.5310    1.3790    0.3320 C   0  0  0  0  0  0  0  0  0  0  0  0
    2.1580    0.8500    0.1130 C   0  0  1  0  0  0  0  0  0  0  0  0
    1.9830   -0.4520    0.7430 N   0  0  0  0  0  0  0  0  0  0  0  0
    0.5700   -0.7300    0.7600 C   0  0  1  0  0  0  0  0  0  0  0  0
   -0.0470    0.3260    1.6370 C   0  0  2  0  0  0  0  0  0  0  0  0
   -1.3760    0.4890    1.5190 O   0  0  0  0  0  0  0  0  0  0  0  0
   -1.9030    0.5980    0.2770 C   0  0  2  0  0  0  0  0  0  0  0  0
   -3.0750   -0.3760    0.1690 C   0  0  0  0  0  0  0  0  0  0  0  0
   -4.0620   -0.1000    1.1030 O   0  0  0  0  0  0  0  0  0  0  0  0
   -0.9610    0.3530   -0.8560 C   0  0  2  0  0  0  0  0  0  0  0  0
   -1.7490    0.0000   -1.9760 O   0  0  0  0  0  0  0  0  0  0  0  0
   -0.0230   -0.7890   -0.6140 C   0  0  2  0  0  0  0  0  0  0  0  0
   -0.7270   -1.9900   -0.8260 O   0  0  0  0  0  0  0  0  0  0  0  0
    0.9140    1.7950    1.0860 S   0  0  0  0  0  0  0  0  0  0  0  0
  2  1  1  1
  2  3  1  0
  2 14  1  0
  4  3  1  6
  4  5  1  0
  4 12  1  0
  5  6  1  6
  5 14  1  0
  6  7  1  0
  7  8  1  1
  7 10  1  0
  8  9  1  0
 10 11  1  6
 10 12  1  0
 12 13  1  1
M  CHG  1   3   1
M  END
