
     RDKit          3D

 12 12  0  0  0  0  0  0  0  0999 V2000
    3.1340   -0.5680   -0.6930 C   0  0  0  0  0  0  0  0  0  0  0  0
    1.7470   -0.3360   -0.7970 O   0  0  0  0  0  0  0  0  0  0  0  0
    1.2930    0.3730    0.2890 C   0  0  1  0  0  0  0  0  0  0  0  0
    0.8440    1.6090   -0.1600 O   0  0  0  0  0  0  0  0  0  0  0  0
   -0.3130    1.5220   -0.9030 C   0  0  0  0  0  0  0  0  0  0  0  0
   -1.4160    1.0680    0.0450 C   0  0  1  0  0  0  0  0  0  0  0  0
   -2.6620    1.1820   -0.5500 O   0  0  0  0  0  0  0  0  0  0  0  0
   -1.1150   -0.2980    0.5550 C   0  0  1  0  0  0  0  0  0  0  0  0
   -1.3990   -1.3910   -0.4490 C   0  0  0  0  0  0  0  0  0  0  0  0
   -2.7390   -1.4060   -0.8290 O   0  0  0  0  0  0  0  0  0  0  0  0
    0.2650   -0.3690    1.0990 C   0  0  2  0  0  0  0  0  0  0  0  0
    0.2750    0.1320    2.3990 O   0  0  0  0  0  0  0  0  0  0  0  0
  1  2  1  0
  3  2  1  6
  3  4  1  0
  3 11  1  0
  4  5  1  0
  5  6  1  0
  6  7  1  6
  6  8  1  0
  8  9  1  6
  8 11  1  0
  9 10  1  0
 11 12  1  1
M  END
