
     RDKit          3D

 12 12  0  0  0  0  0  0  0  0999 V2000
   -1.9360   -1.6600    0.3420 C   0  0  0  0  0  0  0  0  0  0  0  0
   -1.4630   -0.2370    0.2430 C   0  0  2  0  0  0  0  0  0  0  0  0
   -2.0410    0.4750    1.2890 O   0  0  0  0  0  0  0  0  0  0  0  0
   -1.9590    0.3360   -1.0510 C   0  0  0  0  0  0  0  0  0  0  0  0
   -1.6490    1.6720   -1.2250 O   0  0  0  0  0  0  0  0  0  0  0  0
    0.0230   -0.1660    0.4010 C   0  0  1  0  0  0  0  0  0  0  0  0
    0.7790   -0.9680   -0.6220 C   0  0  0  0  0  0  0  0  0  0  0  0
    1.7440   -0.2310   -1.2840 O   0  0  0  0  0  0  0  0  0  0  0  0
    2.5680    0.4900   -0.4430 C   0  0  2  0  0  0  0  0  0  0  0  0
    3.6770   -0.2310   -0.0230 O   0  0  0  0  0  0  0  0  0  0  0  0
    1.8420    1.1010    0.7210 C   0  0  0  0  0  0  0  0  0  0  0  0
    0.4750    1.1470    0.3660 O   0  0  0  0  0  0  0  0  0  0  0  0
  2  1  1  1
  2  3  1  0
  2  4  1  0
  2  6  1  0
  4  5  1  0
  6  7  1  6
  6 12  1  0
  7  8  1  0
  8  9  1  0
  9 10  1  1
  9 11  1  0
 11 12  1  0
M  END
