
     RDKit          3D

 12 12  0  0  0  0  0  0  0  0999 V2000
   -3.3790    0.2620   -0.1590 C   0  0  0  0  0  0  0  0  0  0  0  0
   -2.0020    0.8410   -0.4890 C   0  0  0  0  0  0  0  0  0  0  0  0
   -1.0780    0.1020    0.2070 O   0  0  0  0  0  0  0  0  0  0  0  0
    0.2290    0.4900    0.0260 C   0  0  1  0  0  0  0  0  0  0  0  0
    0.9460    0.6550    1.3570 C   0  0  1  0  0  0  0  0  0  0  0  0
    0.0530    1.0420    2.3550 O   0  0  0  0  0  0  0  0  0  0  0  0
    1.5620   -0.5290    1.6470 O   0  0  0  0  0  0  0  0  0  0  0  0
    1.0920   -1.5090    0.8070 C   0  0  0  0  0  0  0  0  0  0  0  0
    0.9780   -0.7380   -0.5140 C   0  0  1  0  0  0  0  0  0  0  0  0
    0.2530   -1.4180   -1.4550 O   0  0  0  0  0  0  0  0  0  0  0  0
    2.3550   -0.3340   -0.9660 C   0  0  0  0  0  0  0  0  0  0  0  0
    2.2410    0.4900   -2.0730 O   0  0  0  0  0  0  0  0  0  0  0  0
  1  2  1  0
  2  3  1  0
  4  3  1  1
  4  5  1  0
  4  9  1  0
  5  6  1  1
  5  7  1  0
  7  8  1  0
  8  9  1  0
  9 10  1  6
  9 11  1  0
 11 12  1  0
M  END
