
     RDKit          3D

 12 12  0  0  0  0  0  0  0  0999 V2000
   -0.6970    1.7700   -0.9240 C   0  0  0  0  0  0  0  0  0  0  0  0
   -0.1820    0.5980   -0.1120 C   0  0  1  0  0  0  0  0  0  0  0  0
   -1.2910   -0.1280    0.5860 C   0  0  1  0  0  0  0  0  0  0  0  0
   -1.9100    0.7560    1.4520 O   0  0  0  0  0  0  0  0  0  0  0  0
   -2.2760   -0.7500   -0.3740 C   0  0  0  0  0  0  0  0  0  0  0  0
   -1.5920   -1.6260   -1.2150 O   0  0  0  0  0  0  0  0  0  0  0  0
    0.6150   -0.2730   -1.0460 C   0  0  0  0  0  0  0  0  0  0  0  0
    1.8990    0.3110   -1.1390 O   0  0  0  0  0  0  0  0  0  0  0  0
    2.6280    0.0090    0.0290 C   0  0  2  0  0  0  0  0  0  0  0  0
    3.1630   -1.2710   -0.1300 O   0  0  0  0  0  0  0  0  0  0  0  0
    1.6580    0.0660    1.1740 C   0  0  0  0  0  0  0  0  0  0  0  0
    0.7070    1.0430    0.8850 O   0  0  0  0  0  0  0  0  0  0  0  0
  2  1  1  6
  2  3  1  0
  2  7  1  0
  2 12  1  0
  3  4  1  1
  3  5  1  0
  5  6  1  0
  7  8  1  0
  8  9  1  0
  9 10  1  6
  9 11  1  0
 11 12  1  0
M  END
