
     RDKit          3D

 12 12  0  0  0  0  0  0  0  0999 V2000
    1.0580    1.6690    0.8100 C   0  0  0  0  0  0  0  0  0  0  0  0
    0.7150    0.7330   -0.3090 C   0  0  2  0  0  0  0  0  0  0  0  0
   -0.5770    0.8310   -0.7570 O   0  0  0  0  0  0  0  0  0  0  0  0
   -1.3600   -0.1530   -0.1700 C   0  0  1  0  0  0  0  0  0  0  0  0
   -1.3740    0.1000    1.2150 O   0  0  0  0  0  0  0  0  0  0  0  0
   -2.8000   -0.0730   -0.6290 C   0  0  0  0  0  0  0  0  0  0  0  0
   -3.3730    1.1630   -0.3040 O   0  0  0  0  0  0  0  0  0  0  0  0
   -0.8580   -1.5450   -0.4780 C   0  0  0  0  0  0  0  0  0  0  0  0
    0.4940   -1.5720   -0.7480 O   0  0  0  0  0  0  0  0  0  0  0  0
    1.1120   -0.6640    0.1080 C   0  0  1  0  0  0  0  0  0  0  0  0
    2.6090   -0.8470    0.0840 C   0  0  0  0  0  0  0  0  0  0  0  0
    3.1200   -0.6470   -1.1990 O   0  0  0  0  0  0  0  0  0  0  0  0
  2  1  1  1
  2  3  1  0
  2 10  1  0
  3  4  1  0
  4  5  1  1
  4  6  1  0
  4  8  1  0
  6  7  1  0
  8  9  1  0
  9 10  1  0
 10 11  1  6
 11 12  1  0
M  END
