
     RDKit          3D

 12 12  0  0  0  0  0  0  0  0999 V2000
    3.4470    0.0410    0.1290 C   0  0  0  0  0  0  0  0  0  0  0  0
    2.2260    0.1360   -0.5260 O   0  0  0  0  0  0  0  0  0  0  0  0
    1.2010   -0.4960    0.1310 C   0  0  2  0  0  0  0  0  0  0  0  0
    0.7140   -1.5240   -0.6720 O   0  0  0  0  0  0  0  0  0  0  0  0
    0.1140    0.4700    0.5450 C   0  0  2  0  0  0  0  0  0  0  0  0
   -0.9920   -0.2430    1.2590 C   0  0  0  0  0  0  0  0  0  0  0  0
   -1.8730   -1.0530    0.3620 C   0  0  1  0  0  0  0  0  0  0  0  0
   -3.2110   -1.0060    0.8150 O   0  0  0  0  0  0  0  0  0  0  0  0
   -1.8760   -0.6500   -0.9520 O   0  0  0  0  0  0  0  0  0  0  0  0
   -1.8230    0.7350   -1.0110 C   0  0  0  0  0  0  0  0  0  0  0  0
   -0.4550    1.2480   -0.5920 C   0  0  2  0  0  0  0  0  0  0  0  0
    0.4070    1.3450   -1.6810 O   0  0  0  0  0  0  0  0  0  0  0  0
  1  2  1  0
  2  3  1  0
  3  4  1  6
  3  5  1  0
  5  6  1  6
  5 11  1  0
  6  7  1  0
  7  8  1  1
  7  9  1  0
  9 10  1  0
 10 11  1  0
 11 12  1  6
M  END
