
     RDKit          3D

 30 32  0  0  0  0  0  0  0  0999 V2000
    5.9850   -3.1250    0.9280 C   0  0  0  0  0  0  0  0  0  0  0  0
    5.0930   -2.7570   -0.2670 C   0  0  0  0  0  0  0  0  0  0  0  0
    4.9570   -1.2650   -0.1640 C   0  0  0  0  0  0  0  0  0  0  0  0
    5.2610   -0.3480    0.5010 N   0  0  0  0  0  0  0  0  0  0  0  0
    4.9940    0.9140    0.3310 C   0  0  0  0  0  0  0  0  0  0  0  0
    4.2630    1.2650   -0.7580 C   0  0  0  0  0  0  0  0  0  0  0  0
    3.7840    2.5380   -1.2650 C   0  0  0  0  0  0  0  0  0  0  0  0
    2.4600    2.7870   -0.7310 N   0  0  0  0  0  0  0  0  0  0  0  0
    1.3820    1.9520   -0.9880 C   0  0  0  0  0  0  0  0  0  0  0  0
    1.5000    0.9450   -1.6950 O   0  0  0  0  0  0  0  0  0  0  0  0
   -0.0480    2.2450   -0.3920 C   0  0  0  0  0  0  0  0  0  0  0  0
   -0.8110    1.2190   -1.0570 C   0  0  0  0  0  0  0  0  0  0  0  0
   -1.0640    1.1980   -2.4660 C   0  0  0  0  0  0  0  0  0  0  0  0
   -0.7300    2.3660   -3.2970 C   0  0  0  0  0  0  0  0  0  0  0  0
   -1.1140    2.0030   -4.6170 O   0  0  0  0  0  0  0  0  0  0  0  0
   -1.5900    0.0540   -2.7670 O   0  0  0  0  0  0  0  0  0  0  0  0
   -1.7270   -0.7110   -1.6950 C   0  0  0  0  0  0  0  0  0  0  0  0
   -1.2330    0.0430   -0.5850 C   0  0  0  0  0  0  0  0  0  0  0  0
   -1.4100   -0.1430    0.7220 C   0  0  0  0  0  0  0  0  0  0  0  0
   -1.1610    1.0400    1.5200 C   0  0  1  0  0  0  0  0  0  0  0  0
   -2.0480    2.1720    1.3330 N   0  0  0  0  0  0  0  0  0  0  0  0
   -1.8820    0.5490    2.8490 C   0  0  0  0  0  0  0  0  0  0  0  0
   -3.1710    0.1690    2.7470 N   0  0  0  0  0  0  0  0  0  0  0  0
   -4.3560    0.8580    2.5220 C   0  0  0  0  0  0  0  0  0  0  0  0
   -1.6370   -1.4650    1.3820 C   0  0  0  0  0  0  0  0  0  0  0  0
   -2.8980   -2.1310    0.9330 C   0  0  0  0  0  0  0  0  0  0  0  0
   -2.5340   -3.3750    0.1740 C   0  0  0  0  0  0  0  0  0  0  0  0
   -2.6410   -3.1080   -1.2540 C   0  0  0  0  0  0  0  0  0  0  0  0
   -2.2330   -1.8770   -1.8490 C   0  0  0  0  0  0  0  0  0  0  0  0
    3.9890   -0.3750   -1.5210 S   0  0  0  0  0  0  0  0  0  0  0  0
  1  2  1  0
  2  3  1  0
  3  4  2  0
  3 30  1  0
  4  5  1  0
  5  6  2  0
  6  7  1  0
  6 30  1  0
  7  8  1  0
  8  9  1  0
  9 10  2  0
  9 11  1  0
 11 12  1  0
 12 13  2  0
 12 18  1  0
 13 14  1  0
 13 16  1  0
 14 15  1  0
 16 17  1  0
 17 18  1  0
 17 29  2  0
 18 19  2  0
 19 20  1  0
 19 25  1  0
 20 21  1  6
 20 22  1  0
 22 23  1  0
 23 24  1  0
 25 26  1  0
 26 27  1  0
 27 28  1  0
 28 29  1  0
M  CHG  1  21   1
M  END
