
     RDKit          3D

 30 32  0  0  0  0  0  0  0  0999 V2000
   -6.6350   -2.9860   -1.0210 C   0  0  0  0  0  0  0  0  0  0  0  0
   -5.3980   -2.2760   -1.1450 N   0  0  0  0  0  0  0  0  0  0  0  0
   -4.7030   -2.0370    0.0910 C   0  0  0  0  0  0  0  0  0  0  0  0
   -3.8240   -0.7990    0.0240 C   0  0  0  0  0  0  0  0  0  0  0  0
   -4.3160    0.4780   -0.0740 C   0  0  0  0  0  0  0  0  0  0  0  0
   -3.4550    1.5870   -0.0180 C   0  0  0  0  0  0  0  0  0  0  0  0
   -3.9200    2.8970   -0.0580 C   0  0  0  0  0  0  0  0  0  0  0  0
   -3.0980    3.9840    0.0360 C   0  0  0  0  0  0  0  0  0  0  0  0
   -3.5690    5.3890   -0.0090 C   0  0  0  0  0  0  0  0  0  0  0  0
   -1.7440    3.7800    0.1750 C   0  0  0  0  0  0  0  0  0  0  0  0
   -1.2260    2.5190    0.2270 C   0  0  0  0  0  0  0  0  0  0  0  0
   -2.0860    1.3800    0.1340 C   0  0  0  0  0  0  0  0  0  0  0  0
   -1.5900    0.1280    0.2210 C   0  0  0  0  0  0  0  0  0  0  0  0
   -0.1970   -0.1990    0.0060 C   0  0  0  0  0  0  0  0  0  0  0  0
    0.6290    0.4400   -0.8290 C   0  0  0  0  0  0  0  0  0  0  0  0
    2.3290   -0.1170   -0.9710 S   0  0  0  0  0  0  0  0  0  0  0  0
    2.7590   -1.0950    0.5170 C   0  0  0  0  0  0  0  0  0  0  0  0
    4.2370   -1.4980    0.3190 C   0  0  1  0  0  0  0  0  0  0  0  0
    4.2850   -2.3070   -0.8510 O   0  0  0  0  0  0  0  0  0  0  0  0
    4.8670   -0.1420   -0.0620 C   0  0  0  0  0  0  0  0  0  0  0  0
    6.2840   -0.2010   -0.2650 N   0  0  0  0  0  0  0  0  0  0  0  0
    6.7960   -0.6470   -1.4020 C   0  0  0  0  0  0  0  0  0  0  0  0
    6.1070   -1.1360   -2.3520 O   0  0  0  0  0  0  0  0  0  0  0  0
    8.1260   -0.5680   -1.5200 N   0  0  0  0  0  0  0  0  0  0  0  0
    8.9500   -0.0790   -0.5950 C   0  0  0  0  0  0  0  0  0  0  0  0
    8.4180    0.3780    0.5700 N   0  0  0  0  0  0  0  0  0  0  0  0
    7.0930    0.3120    0.7170 C   0  0  0  0  0  0  0  0  0  0  0  0
    6.5320    0.7080    1.7780 O   0  0  0  0  0  0  0  0  0  0  0  0
   -2.4610   -0.9770    0.1720 C   0  0  0  0  0  0  0  0  0  0  0  0
   -1.9250   -2.3510    0.2030 C   0  0  0  0  0  0  0  0  0  0  0  0
  1  2  1  0
  2  3  1  0
  3  4  1  0
  4  5  2  0
  4 29  1  0
  5  6  1  0
  6  7  2  0
  6 12  1  0
  7  8  1  0
  8  9  1  0
  8 10  2  0
 10 11  1  0
 11 12  2  0
 12 13  1  0
 13 14  1  0
 13 29  2  0
 14 15  2  3
 15 16  1  0
 16 17  1  0
 17 18  1  0
 18 19  1  6
 18 20  1  0
 20 21  1  0
 21 22  1  0
 21 27  1  0
 22 23  2  0
 22 24  1  0
 24 25  2  0
 25 26  1  0
 26 27  1  0
 27 28  2  0
 29 30  1  0
M  CHG  1   2   1
M  END
