
     RDKit          3D

 27 29  0  0  0  0  0  0  0  0999 V2000
    1.2380   -0.6130   -1.6820 O   0  0  0  0  0  0  0  0  0  0  0  0
    0.6560   -0.7410   -0.5660 C   0  0  0  0  0  0  0  0  0  0  0  0
    1.3010   -0.2950    0.6140 N   0  0  0  0  0  0  0  0  0  0  0  0
    2.6230    0.3120    0.6020 C   0  0  0  0  0  0  0  0  0  0  0  0
    3.6720   -0.6250    0.0420 C   0  0  0  0  0  0  0  0  0  0  0  0
    4.9980    0.1090    0.0750 C   0  0  1  0  0  0  0  0  0  0  0  0
    5.3090    0.4690    1.4850 C   0  0  0  0  0  0  0  0  0  0  0  0
    6.7740    0.6480    1.7230 C   0  0  0  0  0  0  0  0  0  0  0  0
    7.3560    1.6220    0.7020 C   0  0  0  0  0  0  0  0  0  0  0  0
    8.0500    0.8660   -0.4080 C   0  0  0  0  0  0  0  0  0  0  0  0
    7.1270    0.0610   -1.2450 C   0  0  0  0  0  0  0  0  0  0  0  0
    6.1160   -0.7410   -0.4890 C   0  0  0  0  0  0  0  0  0  0  0  0
   -0.6810   -1.3460   -0.4800 C   0  0  0  0  0  0  0  0  0  0  0  0
   -1.2390   -1.4650    0.6170 O   0  0  0  0  0  0  0  0  0  0  0  0
   -1.3370   -1.7960   -1.6610 N   0  0  0  0  0  0  0  0  0  0  0  0
   -2.6300   -2.3940   -1.6810 C   0  0  0  0  0  0  0  0  0  0  0  0
   -3.6930   -1.5050   -1.1440 C   0  0  0  0  0  0  0  0  0  0  0  0
   -4.3540   -1.9560   -0.0910 C   0  0  0  0  0  0  0  0  0  0  0  0
   -5.4170   -1.3760    0.6680 N   0  0  0  0  0  0  0  0  0  0  0  0
   -6.2670   -0.3110    0.2520 C   0  0  0  0  0  0  0  0  0  0  0  0
   -6.0460    0.5350   -0.7250 C   0  0  0  0  0  0  0  0  0  0  0  0
   -4.8860    0.6030   -1.6290 C   0  0  0  0  0  0  0  0  0  0  0  0
   -3.9190   -0.2620   -1.7830 N   0  0  0  0  0  0  0  0  0  0  0  0
   -7.0500    1.5800   -1.0090 C   0  0  0  0  0  0  0  0  0  0  0  0
   -7.6960    2.1530    0.2030 C   0  0  0  0  0  0  0  0  0  0  0  0
   -7.7060    1.2530    1.3910 C   0  0  0  0  0  0  0  0  0  0  0  0
   -7.5100   -0.1980    1.0410 C   0  0  0  0  0  0  0  0  0  0  0  0
  1  2  2  0
  2  3  1  0
  2 13  1  0
  3  4  1  0
  4  5  1  0
  6  5  1  1
  6  7  1  0
  6 12  1  0
  7  8  1  0
  8  9  1  0
  9 10  1  0
 10 11  1  0
 11 12  1  0
 13 14  2  0
 13 15  1  0
 15 16  1  0
 16 17  1  0
 17 18  2  0
 17 23  1  0
 18 19  1  0
 19 20  1  0
 20 21  2  0
 20 27  1  0
 21 22  1  0
 21 24  1  0
 22 23  2  0
 24 25  1  0
 25 26  1  0
 26 27  1  0
M  CHG  1  23   1
M  END
