
     RDKit          3D

 27 30  0  0  0  0  0  0  0  0999 V2000
   -3.0570   -1.0950   -2.5800 C   0  0  0  0  0  0  0  0  0  0  0  0
   -3.9440   -0.5280   -1.5490 C   0  0  0  0  0  0  0  0  0  0  0  0
   -5.3070   -0.4060   -1.7970 C   0  0  0  0  0  0  0  0  0  0  0  0
   -6.1240    0.1230   -0.8310 C   0  0  0  0  0  0  0  0  0  0  0  0
   -5.5690    0.5060    0.3290 N   0  0  0  0  0  0  0  0  0  0  0  0
   -4.2540    0.3960    0.5870 C   0  0  0  0  0  0  0  0  0  0  0  0
   -3.3890   -0.1290   -0.3530 C   0  0  0  0  0  0  0  0  0  0  0  0
   -1.9310   -0.2400   -0.0390 C   0  0  1  0  0  0  0  0  0  0  0  0
   -1.2630    0.9970   -0.3450 N   0  0  0  0  0  0  0  0  0  0  0  0
    0.1420    0.8520   -0.6600 C   0  0  2  0  0  0  0  0  0  0  0  0
    0.5580   -0.5180   -1.0470 C   0  0  0  0  0  0  0  0  0  0  0  0
    1.0200    1.5580    0.3330 C   0  0  0  0  0  0  0  0  0  0  0  0
    2.4340    1.4470    0.0920 N   0  0  0  0  0  0  0  0  0  0  0  0
    3.2380    0.3250    0.4630 C   0  0  0  0  0  0  0  0  0  0  0  0
    2.7610   -0.7100    1.2560 C   0  0  0  0  0  0  0  0  0  0  0  0
    3.5300   -1.7760    1.6500 C   0  0  0  0  0  0  0  0  0  0  0  0
    4.8400   -1.8560    1.2590 C   0  0  0  0  0  0  0  0  0  0  0  0
    5.3540   -0.8380    0.4640 C   0  0  0  0  0  0  0  0  0  0  0  0
    4.5640    0.2250    0.0790 C   0  0  0  0  0  0  0  0  0  0  0  0
    5.4290    1.0680   -0.7270 C   0  0  0  0  0  0  0  0  0  0  0  0
    5.0860    2.1370   -1.2660 O   0  0  0  0  0  0  0  0  0  0  0  0
    6.7330    0.4950   -0.8150 N   0  0  0  0  0  0  0  0  0  0  0  0
    6.6890   -0.7010   -0.0680 C   0  0  0  0  0  0  0  0  0  0  0  0
    7.6880   -1.4620    0.0620 O   0  0  0  0  0  0  0  0  0  0  0  0
   -1.7500   -0.7250    1.3600 C   0  0  0  0  0  0  0  0  0  0  0  0
   -2.6940   -0.1800    2.3640 C   0  0  0  0  0  0  0  0  0  0  0  0
   -3.6730    0.8270    1.8720 C   0  0  0  0  0  0  0  0  0  0  0  0
  1  2  1  0
  2  3  2  0
  2  7  1  0
  3  4  1  0
  4  5  2  0
  5  6  1  0
  6  7  2  0
  6 27  1  0
  7  8  1  0
  8  9  1  1
  8 25  1  0
  9 10  1  0
 10 11  1  1
 10 12  1  0
 12 13  1  0
 13 14  1  0
 14 15  2  0
 14 19  1  0
 15 16  1  0
 16 17  2  0
 17 18  1  0
 18 19  2  0
 18 23  1  0
 19 20  1  0
 20 21  2  0
 20 22  1  0
 22 23  1  0
 23 24  2  0
 25 26  1  0
 26 27  1  0
M  CHG  1   9   1
M  END
