
     RDKit          3D

 13 13  0  0  0  0  0  0  0  0999 V2000
    4.1090   -1.5850    0.2800 C   0  0  0  0  0  0  0  0  0  0  0  0
    3.3390   -0.6850   -0.3000 C   0  0  0  0  0  0  0  0  0  0  0  0
    2.4990    0.1960    0.5070 C   0  0  0  0  0  0  0  0  0  0  0  0
    1.0800    0.0170    0.1690 N   0  0  0  0  0  0  0  0  0  0  0  0
    0.1350    0.7830    0.8460 C   0  0  0  0  0  0  0  0  0  0  0  0
    0.6140    1.6010    1.7330 O   0  0  0  0  0  0  0  0  0  0  0  0
   -1.3090    0.7940    0.6980 C   0  0  0  0  0  0  0  0  0  0  0  0
   -2.3100    1.9060    1.7230 S   0  0  0  0  0  0  0  0  0  0  0  0
   -3.8620    1.4230    1.0590 C   0  0  0  0  0  0  0  0  0  0  0  0
   -3.5500    0.4660    0.1170 C   0  0  0  0  0  0  0  0  0  0  0  0
   -4.6320   -0.1210   -0.6010 O   0  0  0  0  0  0  0  0  0  0  0  0
   -2.2350    0.1730   -0.0370 C   0  0  0  0  0  0  0  0  0  0  0  0
   -1.9010   -0.8080   -1.0010 O   0  0  0  0  0  0  0  0  0  0  0  0
  1  2  2  0
  2  3  1  0
  3  4  1  0
  4  5  1  0
  5  6  2  0
  5  7  1  0
  7  8  1  0
  7 12  2  0
  8  9  1  0
  9 10  2  0
 10 11  1  0
 10 12  1  0
 12 13  1  0
M  END
