
     RDKit          3D

 13 13  0  0  0  0  0  0  0  0999 V2000
    4.4320    0.1720   -0.7170 C   0  0  0  0  0  0  0  0  0  0  0  0
    2.9930   -0.3450   -0.6270 C   0  0  0  0  0  0  0  0  0  0  0  0
    2.2440    0.4050    0.8060 S   0  0  1  0  0  0  0  0  0  0  0  0
    3.0300   -0.0900    2.0020 O   0  0  0  0  0  0  0  0  0  0  0  0
    2.4050    1.8910    0.7750 O   0  0  0  0  0  0  0  0  0  0  0  0
    0.6290   -0.0900    1.0200 N   0  0  0  0  0  0  0  0  0  0  0  0
   -0.2430    0.2700   -0.0780 C   0  0  1  0  0  0  0  0  0  0  0  0
   -0.8310   -0.9430   -0.6760 C   0  0  0  0  0  0  0  0  0  0  0  0
   -2.2810   -0.9430   -0.9650 C   0  0  0  0  0  0  0  0  0  0  0  0
   -3.1430   -0.0890   -0.1190 C   0  0  1  0  0  0  0  0  0  0  0  0
   -4.2900   -0.7530    0.3580 O   0  0  0  0  0  0  0  0  0  0  0  0
   -2.3790    0.5550    1.0440 C   0  0  0  0  0  0  0  0  0  0  0  0
   -1.2610    1.3060    0.3410 C   0  0  0  0  0  0  0  0  0  0  0  0
  1  2  1  0
  3  2  1  6
  3  4  2  0
  3  5  2  0
  3  6  1  0
  7  6  1  1
  7  8  1  0
  7 13  1  0
  8  9  1  0
  9 10  1  0
 10 11  1  1
 10 12  1  0
 12 13  1  0
M  END
