
     RDKit          3D

 22 23  0  0  0  0  0  0  0  0999 V2000
   -4.3670   -2.0230    2.2530 C   0  0  0  0  0  0  0  0  0  0  0  0
   -3.3940   -1.2870    1.4270 C   0  0  0  0  0  0  0  0  0  0  0  0
   -2.0430   -1.3080    1.7900 C   0  0  0  0  0  0  0  0  0  0  0  0
   -1.1290   -0.6270    1.0410 C   0  0  0  0  0  0  0  0  0  0  0  0
   -1.5670    0.0920   -0.0910 C   0  0  0  0  0  0  0  0  0  0  0  0
   -0.7030    0.7480   -0.8080 O   0  0  0  0  0  0  0  0  0  0  0  0
    0.1690    1.3910   -1.5050 C   0  0  0  0  0  0  0  0  0  0  0  0
    1.2130    0.4870   -2.1770 C   0  0  1  0  0  0  0  0  0  0  0  0
    2.0450    1.3920   -2.8740 O   0  0  0  0  0  0  0  0  0  0  0  0
    2.0740   -0.1840   -1.1550 C   0  0  0  0  0  0  0  0  0  0  0  0
    2.6140    0.7540   -0.2450 N   0  0  0  0  0  0  0  0  0  0  0  0
    3.6090    0.2050    0.6530 C   0  0  1  0  0  0  0  0  0  0  0  0
    4.8150   -0.2890   -0.1440 C   0  0  0  0  0  0  0  0  0  0  0  0
    4.1150    1.3400    1.5160 C   0  0  0  0  0  0  0  0  0  0  0  0
    3.0500   -0.8360    1.5750 C   0  0  0  0  0  0  0  0  0  0  0  0
   -2.9220    0.1050   -0.4420 C   0  0  0  0  0  0  0  0  0  0  0  0
   -3.5990    0.7000   -1.4790 C   0  0  0  0  0  0  0  0  0  0  0  0
   -4.9520    0.3670   -1.3540 C   0  0  0  0  0  0  0  0  0  0  0  0
   -5.9720    0.7690   -2.2360 C   0  0  0  0  0  0  0  0  0  0  0  0
   -6.8630    1.0970   -2.9980 N   0  0  0  0  0  0  0  0  0  0  0  0
   -5.0330   -0.4100   -0.2520 N   0  0  0  0  0  0  0  0  0  0  0  0
   -3.8260   -0.5850    0.3190 C   0  0  0  0  0  0  0  0  0  0  0  0
  1  2  1  0
  2  3  2  0
  2 22  1  0
  3  4  1  0
  4  5  2  0
  5  6  1  0
  5 16  1  0
  6  7  1  0
  7  8  1  0
  8  9  1  6
  8 10  1  0
 10 11  1  0
 11 12  1  0
 12 13  1  6
 12 14  1  0
 12 15  1  0
 16 17  1  0
 16 22  2  0
 17 18  2  0
 18 19  1  0
 18 21  1  0
 19 20  3  0
 21 22  1  0
M  END
