
     RDKit          3D

 13 13  0  0  0  0  0  0  0  0999 V2000
   -4.7190    0.2970    1.2000 C   0  0  0  0  0  0  0  0  0  0  0  0
   -3.5620    1.5190    0.5830 S   0  0  0  0  0  0  0  0  0  0  0  0
   -1.9780    0.7660    0.1820 C   0  0  0  0  0  0  0  0  0  0  0  0
   -0.9330    1.5110   -0.3090 C   0  0  0  0  0  0  0  0  0  0  0  0
    0.2980    0.9170   -0.6190 C   0  0  0  0  0  0  0  0  0  0  0  0
    0.4650   -0.4310   -0.4290 C   0  0  0  0  0  0  0  0  0  0  0  0
    1.6260   -1.0720   -0.7090 O   0  0  0  0  0  0  0  0  0  0  0  0
    2.8310   -0.6390   -1.1790 C   0  0  0  0  0  0  0  0  0  0  0  0
    3.6030    0.3260   -0.3150 C   0  0  0  0  0  0  0  0  0  0  0  0
    3.8260   -0.3670    0.9000 O   0  0  0  0  0  0  0  0  0  0  0  0
   -0.6340   -1.1570    0.0770 C   0  0  0  0  0  0  0  0  0  0  0  0
   -0.4810   -2.4090    0.2540 O   0  0  0  0  0  0  0  0  0  0  0  0
   -1.7930   -0.5530    0.3600 N   0  0  0  0  0  0  0  0  0  0  0  0
  1  2  1  0
  2  3  1  0
  3  4  2  0
  3 13  1  0
  4  5  1  0
  5  6  2  0
  6  7  1  0
  6 11  1  0
  7  8  1  0
  8  9  1  0
  9 10  1  0
 11 12  2  0
 11 13  1  0
M  END
