
     RDKit          3D

 25 28  0  0  0  0  0  0  0  0999 V2000
   -4.3880   -1.8880    2.0620 C   0  0  0  0  0  0  0  0  0  0  0  0
   -3.7660   -0.6440    1.4420 C   0  0  1  0  0  0  0  0  0  0  0  0
   -2.3160   -0.6660    1.5150 N   0  0  0  0  0  0  0  0  0  0  0  0
   -1.5980    0.4620    1.0390 C   0  0  0  0  0  0  0  0  0  0  0  0
   -2.1830    1.5550    0.5360 N   0  0  0  0  0  0  0  0  0  0  0  0
   -1.4960    2.6230    0.0920 C   0  0  0  0  0  0  0  0  0  0  0  0
   -0.1530    2.6080    0.1490 N   0  0  0  0  0  0  0  0  0  0  0  0
    0.5000    1.5350    0.6460 C   0  0  0  0  0  0  0  0  0  0  0  0
    1.8760    1.5280    0.7010 C   0  0  0  0  0  0  0  0  0  0  0  0
    2.4730    2.5380    0.2800 O   0  0  0  0  0  0  0  0  0  0  0  0
    2.5700    0.4830    1.1860 N   0  0  0  0  0  0  0  0  0  0  0  0
    4.0180    0.4410    1.2550 C   0  0  0  0  0  0  0  0  0  0  0  0
    4.5380   -0.1590   -0.0050 C   0  0  1  0  0  0  0  0  0  0  0  0
    4.1650    0.6080   -1.2530 C   0  0  0  0  0  0  0  0  0  0  0  0
    5.0330   -0.1470   -2.2740 C   0  0  0  0  0  0  0  0  0  0  0  0
    6.1860   -0.5730   -1.3910 C   0  0  0  0  0  0  0  0  0  0  0  0
    5.9230   -0.1650   -0.1040 O   0  0  0  0  0  0  0  0  0  0  0  0
    1.8330   -0.5790    1.6260 C   0  0  0  0  0  0  0  0  0  0  0  0
    0.4900   -0.5880    1.5790 N   0  0  0  0  0  0  0  0  0  0  0  0
   -0.2230    0.4330    1.1030 C   0  0  0  0  0  0  0  0  0  0  0  0
   -4.2410   -0.5200    0.0220 C   0  0  0  0  0  0  0  0  0  0  0  0
   -3.5690   -0.5360   -1.1030 C   0  0  0  0  0  0  0  0  0  0  0  0
   -4.4940   -0.3780   -2.2480 C   0  0  0  0  0  0  0  0  0  0  0  0
   -5.8190   -0.2710   -1.6030 C   0  0  0  0  0  0  0  0  0  0  0  0
   -5.6420   -0.3560   -0.2980 C   0  0  0  0  0  0  0  0  0  0  0  0
  2  1  1  6
  2  3  1  0
  2 21  1  0
  3  4  1  0
  4  5  2  0
  4 20  1  0
  5  6  1  0
  6  7  2  0
  7  8  1  0
  8  9  1  0
  8 20  2  0
  9 10  2  0
  9 11  1  0
 11 12  1  0
 11 18  1  0
 13 12  1  1
 13 14  1  0
 13 17  1  0
 14 15  1  0
 15 16  1  0
 16 17  1  0
 18 19  2  0
 19 20  1  0
 21 22  2  0
 21 25  1  0
 22 23  1  0
 23 24  1  0
 24 25  2  0
M  END
