
     RDKit          3D

 31 34  0  0  0  0  0  0  0  0999 V2000
   -5.9860   -1.0230   -3.2140 C   0  0  0  0  0  0  0  0  0  0  0  0
   -4.8220   -0.2050   -2.6990 C   0  0  0  0  0  0  0  0  0  0  0  0
   -4.9230    0.0460   -1.2800 N   0  0  0  0  0  0  0  0  0  0  0  0
   -3.6750   -0.1500   -0.6060 C   0  0  0  0  0  0  0  0  0  0  0  0
   -2.7710    0.8480   -0.2180 C   0  0  0  0  0  0  0  0  0  0  0  0
   -1.7000    0.2570    0.4000 C   0  0  0  0  0  0  0  0  0  0  0  0
   -0.5530    0.8090    0.9980 N   0  0  0  0  0  0  0  0  0  0  0  0
   -0.3140    2.1500    1.2530 C   0  0  0  0  0  0  0  0  0  0  0  0
   -1.3050    3.0810    1.4520 C   0  0  0  0  0  0  0  0  0  0  0  0
   -1.0570    4.4120    1.8040 C   0  0  0  0  0  0  0  0  0  0  0  0
    0.2310    4.8250    1.9640 C   0  0  0  0  0  0  0  0  0  0  0  0
    1.2440    3.8900    1.7660 C   0  0  0  0  0  0  0  0  0  0  0  0
    1.0120    2.5840    1.4200 C   0  0  0  0  0  0  0  0  0  0  0  0
    2.0870    1.6950    1.1850 N   0  0  0  0  0  0  0  0  0  0  0  0
    3.4550    1.8800    1.4100 C   0  0  0  0  0  0  0  0  0  0  0  0
    3.8700    2.9480    1.8860 O   0  0  0  0  0  0  0  0  0  0  0  0
    4.4910    0.8520    1.1090 C   0  0  1  0  0  0  0  0  0  0  0  0
    5.2980    0.4730    2.3100 C   0  0  0  0  0  0  0  0  0  0  0  0
    6.6870   -0.5430    1.6690 S   0  0  0  0  0  0  0  0  0  0  0  0
    6.0160   -1.4740    0.2940 C   0  0  0  0  0  0  0  0  0  0  0  0
    6.7990   -2.4030   -0.3730 C   0  0  0  0  0  0  0  0  0  0  0  0
    6.3190   -3.1410   -1.4330 C   0  0  0  0  0  0  0  0  0  0  0  0
    5.0140   -2.9300   -1.8230 C   0  0  0  0  0  0  0  0  0  0  0  0
    4.3600   -3.8480   -3.1690 Cl  0  0  0  0  0  0  0  0  0  0  0  0
    4.2360   -2.0010   -1.1530 C   0  0  0  0  0  0  0  0  0  0  0  0
    4.7090   -1.2500   -0.0830 C   0  0  0  0  0  0  0  0  0  0  0  0
    3.9020   -0.3210    0.5720 O   0  0  0  0  0  0  0  0  0  0  0  0
   -1.9980   -1.0830    0.3600 N   0  0  0  0  0  0  0  0  0  0  0  0
   -3.1430   -1.3160   -0.2230 N   0  0  0  0  0  0  0  0  0  0  0  0
   -3.7750   -2.6320   -0.4400 C   0  0  0  0  0  0  0  0  0  0  0  0
   -4.6610   -2.9950    0.7330 C   0  0  0  0  0  0  0  0  0  0  0  0
  1  2  1  0
  2  3  1  0
  3  4  1  0
  4  5  2  0
  4 29  1  0
  5  6  1  0
  6  7  1  0
  6 28  2  0
  7  8  1  0
  8  9  2  0
  8 13  1  0
  9 10  1  0
 10 11  2  0
 11 12  1  0
 12 13  2  0
 13 14  1  0
 14 15  1  0
 15 16  2  0
 17 15  1  1
 17 18  1  0
 17 27  1  0
 18 19  1  0
 19 20  1  0
 20 21  2  0
 20 26  1  0
 21 22  1  0
 22 23  2  0
 23 24  1  0
 23 25  1  0
 25 26  2  0
 26 27  1  0
 28 29  1  0
 29 30  1  0
 30 31  1  0
M  CHG  1   3   1
M  END
