
     RDKit          3D

 28 30  0  0  0  0  0  0  0  0999 V2000
   -7.7250    2.0910    0.5010 C   0  0  0  0  0  0  0  0  0  0  0  0
   -7.9410    1.0000    1.3300 O   0  0  0  0  0  0  0  0  0  0  0  0
   -6.7730    0.5260    1.8720 C   0  0  0  0  0  0  0  0  0  0  0  0
   -5.7800    0.0590    0.8600 C   0  0  0  0  0  0  0  0  0  0  0  0
   -4.4540   -0.1230    1.1570 C   0  0  0  0  0  0  0  0  0  0  0  0
   -3.7960   -0.5630    0.0020 C   0  0  0  0  0  0  0  0  0  0  0  0
   -2.3860   -0.8490   -0.1210 C   0  0  0  0  0  0  0  0  0  0  0  0
   -1.7360   -0.9040    0.9920 O   0  0  0  0  0  0  0  0  0  0  0  0
   -1.6960   -1.0620   -1.3320 N   0  0  0  0  0  0  0  0  0  0  0  0
   -0.3030   -1.3300   -1.2620 N   0  0  0  0  0  0  0  0  0  0  0  0
    0.5030   -0.3100   -0.6770 C   0  0  0  0  0  0  0  0  0  0  0  0
   -0.0030    0.7580   -0.2520 O   0  0  0  0  0  0  0  0  0  0  0  0
    1.9560   -0.5430   -0.5840 C   0  0  0  0  0  0  0  0  0  0  0  0
    2.8480    0.3350   -0.0470 C   0  0  0  0  0  0  0  0  0  0  0  0
    4.1120   -0.2400   -0.1440 C   0  0  0  0  0  0  0  0  0  0  0  0
    5.3420    0.3840    0.3170 C   0  0  0  0  0  0  0  0  0  0  0  0
    5.3510    1.6250    0.9160 C   0  0  0  0  0  0  0  0  0  0  0  0
    6.5190    2.2130    1.3480 C   0  0  0  0  0  0  0  0  0  0  0  0
    7.7340    1.5780    1.1970 C   0  0  0  0  0  0  0  0  0  0  0  0
    8.9050    2.1400    1.6180 F   0  0  0  0  0  0  0  0  0  0  0  0
    7.7270    0.3360    0.5970 C   0  0  0  0  0  0  0  0  0  0  0  0
    6.5440   -0.2670    0.1560 C   0  0  0  0  0  0  0  0  0  0  0  0
    6.5390   -1.6070   -0.4910 C   0  0  0  0  0  0  0  0  0  0  0  0
    3.9170   -1.4210   -0.7280 N   0  0  0  0  0  0  0  0  0  0  0  0
    2.6390   -1.6180   -0.9970 N   0  0  0  0  0  0  0  0  0  0  0  0
   -4.7800   -0.6240   -0.9460 C   0  0  0  0  0  0  0  0  0  0  0  0
   -4.7070   -1.0220   -2.3620 C   0  0  0  0  0  0  0  0  0  0  0  0
   -5.9260   -0.2450   -0.3770 O   0  0  0  0  0  0  0  0  0  0  0  0
  1  2  1  0
  2  3  1  0
  3  4  1  0
  4  5  2  0
  4 28  1  0
  5  6  1  0
  6  7  1  0
  6 26  2  0
  7  8  2  0
  7  9  1  0
  9 10  1  0
 10 11  1  0
 11 12  2  0
 11 13  1  0
 13 14  2  0
 13 25  1  0
 14 15  1  0
 15 16  1  0
 15 24  2  0
 16 17  2  0
 16 22  1  0
 17 18  1  0
 18 19  2  0
 19 20  1  0
 19 21  1  0
 21 22  2  0
 22 23  1  0
 24 25  1  0
 26 27  1  0
 26 28  1  0
M  END
