
     RDKit          3D

 31 34  0  0  0  0  0  0  0  0999 V2000
   -7.2830   -0.2480   -1.0000 N   0  0  0  0  0  0  0  0  0  0  0  0
   -6.3680   -1.2670   -1.4540 C   0  0  0  0  0  0  0  0  0  0  0  0
   -4.9720   -0.7910   -1.5680 C   0  0  0  0  0  0  0  0  0  0  0  0
   -4.4920   -0.2780   -0.2240 N   0  0  2  0  0  0  0  0  0  0  0  0
   -4.7810    1.1000   -0.3110 C   0  0  0  0  0  0  0  0  0  0  0  0
   -4.0260    2.1310    0.4260 C   0  0  0  0  0  0  0  0  0  0  0  0
   -2.2210    1.7490    0.4960 S   0  0  0  0  0  0  0  0  0  0  0  0
   -2.2560   -0.0800    0.7620 C   0  0  2  0  0  0  0  0  0  0  0  0
   -0.9650   -0.5510    1.1750 C   0  0  0  0  0  0  0  0  0  0  0  0
   -0.7920   -1.0680    2.4590 C   0  0  0  0  0  0  0  0  0  0  0  0
    0.4510   -1.2530    3.0110 C   0  0  0  0  0  0  0  0  0  0  0  0
    1.5970   -0.9250    2.3000 C   0  0  0  0  0  0  0  0  0  0  0  0
    1.4730   -0.4240    1.0380 C   0  0  0  0  0  0  0  0  0  0  0  0
    2.5570   -0.0870    0.2190 N   0  0  0  0  0  0  0  0  0  0  0  0
    3.9030   -0.0140    0.5990 C   0  0  0  0  0  0  0  0  0  0  0  0
    4.2960   -0.2600    1.7680 O   0  0  0  0  0  0  0  0  0  0  0  0
    4.9220    0.3480   -0.3310 N   0  0  0  0  0  0  0  0  0  0  0  0
    6.3060    0.4390    0.0660 C   0  0  0  0  0  0  0  0  0  0  0  0
    6.9260   -0.4570    0.8790 C   0  0  0  0  0  0  0  0  0  0  0  0
    8.2490   -0.2650    1.2640 C   0  0  0  0  0  0  0  0  0  0  0  0
    8.9730    0.8220    0.8390 C   0  0  0  0  0  0  0  0  0  0  0  0
    8.3300    1.7250    0.0090 C   0  0  0  0  0  0  0  0  0  0  0  0
    7.0360    1.5560   -0.3750 C   0  0  0  0  0  0  0  0  0  0  0  0
    0.1960   -0.2430    0.4760 C   0  0  0  0  0  0  0  0  0  0  0  0
    0.0350   -0.0370   -0.9260 C   0  0  0  0  0  0  0  0  0  0  0  0
   -0.5220   -1.0540   -1.6900 N   0  0  0  0  0  0  0  0  0  0  0  0
   -0.5680   -0.6780   -2.9630 C   0  0  0  0  0  0  0  0  0  0  0  0
   -1.1910   -1.5880   -4.3300 Cl  0  0  0  0  0  0  0  0  0  0  0  0
   -0.0320    0.5830   -2.9760 C   0  0  0  0  0  0  0  0  0  0  0  0
    0.3050    0.9010   -1.7340 O   0  0  0  0  0  0  0  0  0  0  0  0
   -3.1010   -0.6940   -0.2280 C   0  0  0  0  0  0  0  0  0  0  0  0
  1  2  1  0
  2  3  1  0
  4  3  1  6
  4  5  1  0
  4 31  1  0
  5  6  1  0
  6  7  1  0
  7  8  1  0
  8  9  1  6
  8 31  1  0
  9 10  2  0
  9 24  1  0
 10 11  1  0
 11 12  2  0
 12 13  1  0
 13 14  1  0
 13 24  2  0
 14 15  1  0
 15 16  2  0
 15 17  1  0
 17 18  1  0
 18 19  2  0
 18 23  1  0
 19 20  1  0
 20 21  2  0
 21 22  1  0
 22 23  2  0
 24 25  1  0
 25 26  2  0
 25 30  1  0
 26 27  1  0
 27 28  1  0
 27 29  2  0
 29 30  1  0
M  CHG  1   4   1
M  END
