
     RDKit          3D

 29 31  0  0  0  0  0  0  0  0999 V2000
    7.8880    2.1080    0.2610 C   0  0  0  0  0  0  0  0  0  0  0  0
    7.5780    2.0010   -1.2220 C   0  0  0  0  0  0  0  0  0  0  0  0
    6.1990    2.1180   -1.5460 N   0  0  0  0  0  0  0  0  0  0  0  0
    5.1330    1.2890   -1.2250 C   0  0  0  0  0  0  0  0  0  0  0  0
    5.1010    0.0500   -0.8680 C   0  0  0  0  0  0  0  0  0  0  0  0
    6.1340   -0.9310   -0.6690 C   0  0  0  0  0  0  0  0  0  0  0  0
    7.3810   -0.8720   -0.7820 O   0  0  0  0  0  0  0  0  0  0  0  0
    5.4920   -2.1240   -0.2800 O   0  0  0  0  0  0  0  0  0  0  0  0
    4.1380   -1.9300   -0.2300 C   0  0  0  0  0  0  0  0  0  0  0  0
    3.1020   -2.7860    0.0940 C   0  0  0  0  0  0  0  0  0  0  0  0
    1.7610   -2.3590    0.0760 C   0  0  0  0  0  0  0  0  0  0  0  0
    1.4270   -1.0790   -0.2620 C   0  0  0  0  0  0  0  0  0  0  0  0
    0.1010   -0.5920   -0.2770 N   0  0  0  0  0  0  0  0  0  0  0  0
   -1.0360   -1.1880    0.2850 C   0  0  0  0  0  0  0  0  0  0  0  0
   -0.9610   -2.2630    0.8880 O   0  0  0  0  0  0  0  0  0  0  0  0
   -2.3690   -0.5180    0.1590 C   0  0  0  0  0  0  0  0  0  0  0  0
   -2.4510    0.5620   -0.4470 O   0  0  0  0  0  0  0  0  0  0  0  0
   -3.5100   -1.1120    0.7220 N   0  0  0  0  0  0  0  0  0  0  0  0
   -4.8070   -0.5710    0.6590 C   0  0  0  0  0  0  0  0  0  0  0  0
   -5.1980    0.5820    0.0640 C   0  0  0  0  0  0  0  0  0  0  0  0
   -6.5230    1.0100    0.0720 C   0  0  0  0  0  0  0  0  0  0  0  0
   -6.8940    2.2820   -0.5950 C   0  0  0  0  0  0  0  0  0  0  0  0
   -7.4450    0.2140    0.7140 C   0  0  0  0  0  0  0  0  0  0  0  0
   -7.0710   -0.9680    1.3290 C   0  0  0  0  0  0  0  0  0  0  0  0
   -8.0970   -1.7950    2.0080 C   0  0  0  0  0  0  0  0  0  0  0  0
   -8.1790   -1.3830    3.3200 F   0  0  0  0  0  0  0  0  0  0  0  0
   -5.7880   -1.3100    1.2790 N   0  0  0  0  0  0  0  0  0  0  0  0
    2.4890   -0.2260   -0.5880 C   0  0  0  0  0  0  0  0  0  0  0  0
    3.7990   -0.6500   -0.5690 C   0  0  0  0  0  0  0  0  0  0  0  0
  1  2  1  0
  2  3  1  0
  3  4  1  0
  4  5  2  3
  5  6  1  0
  5 29  1  0
  6  7  2  0
  6  8  1  0
  8  9  1  0
  9 10  2  0
  9 29  1  0
 10 11  1  0
 11 12  2  0
 12 13  1  0
 12 28  1  0
 13 14  1  0
 14 15  2  0
 14 16  1  0
 16 17  2  0
 16 18  1  0
 18 19  1  0
 19 20  2  0
 19 27  1  0
 20 21  1  0
 21 22  1  0
 21 23  2  0
 23 24  1  0
 24 25  1  0
 24 27  2  0
 25 26  1  0
 28 29  2  0
M  END
