
     RDKit          3D

  8  8  0  0  0  0  0  0  0  0999 V2000
   -1.9770    0.8750    0.7830 N   0  0  0  0  0  0  0  0  0  0  0  0
   -1.8730   -0.3360   -0.0070 C   0  0  0  0  0  0  0  0  0  0  0  0
   -0.7720   -0.2410   -1.0330 C   0  0  0  0  0  0  0  0  0  0  0  0
    0.5560   -0.0200   -0.4240 C   0  0  0  0  0  0  0  0  0  0  0  0
    1.4560   -0.9850   -0.0170 C   0  0  0  0  0  0  0  0  0  0  0  0
    2.5780   -0.3650    0.5000 C   0  0  0  0  0  0  0  0  0  0  0  0
    2.3420    0.9580    0.3990 N   0  0  0  0  0  0  0  0  0  0  0  0
    1.1540    1.1570   -0.1430 N   0  0  0  0  0  0  0  0  0  0  0  0
  1  2  1  0
  2  3  1  0
  3  4  1  0
  4  5  1  0
  4  8  2  0
  5  6  2  0
  6  7  1  0
  7  8  1  0
M  END
