
     RDKit          3D

  8  8  0  0  0  0  0  0  0  0999 V2000
   -1.9950    0.1280    0.1940 C   0  0  0  0  0  0  0  0  0  0  0  0
   -0.6490   -0.4660   -0.0450 C   0  0  0  0  0  0  0  0  0  0  0  0
    0.4760    0.2560    0.0210 C   0  0  0  0  0  0  0  0  0  0  0  0
    0.6060    1.6450    0.3130 N   0  0  0  0  0  0  0  0  0  0  0  0
    1.5840   -0.6490   -0.2660 C   0  0  0  0  0  0  0  0  0  0  0  0
    2.8530   -0.3360   -0.3020 N   0  0  0  0  0  0  0  0  0  0  0  0
    1.0040   -1.9260   -0.4970 N   0  0  0  0  0  0  0  0  0  0  0  0
   -0.2960   -1.8420   -0.3730 C   0  0  0  0  0  0  0  0  0  0  0  0
  1  2  1  0
  2  3  2  0
  2  8  1  0
  3  4  1  0
  3  5  1  0
  5  6  2  0
  5  7  1  0
  7  8  2  0
M  END
