
     RDKit          3D

  8  8  0  0  0  0  0  0  0  0999 V2000
    2.5090   -0.7200    0.2710 C   0  0  0  0  0  0  0  0  0  0  0  0
    1.1570   -0.0680    0.1130 C   0  0  0  0  0  0  0  0  0  0  0  0
    1.0470    1.1940    0.0700 N   0  0  0  0  0  0  0  0  0  0  0  0
   -0.1710    1.9070   -0.0760 C   0  0  0  0  0  0  0  0  0  0  0  0
   -1.3000    1.0310   -0.1720 N   0  0  0  0  0  0  0  0  0  0  0  0
   -1.1520   -0.3660   -0.1220 C   0  0  0  0  0  0  0  0  0  0  0  0
   -2.3550   -1.1530   -0.2280 N   0  0  0  0  0  0  0  0  0  0  0  0
    0.0140   -0.9770    0.0160 C   0  0  0  0  0  0  0  0  0  0  0  0
  1  2  1  0
  2  3  2  0
  2  8  1  0
  3  4  1  0
  4  5  1  0
  5  6  1  0
  6  7  1  0
  6  8  2  0
M  END
