
     RDKit          3D

  8  8  0  0  0  0  0  0  0  0999 V2000
    2.4850    0.9620   -0.1200 N   0  0  0  0  0  0  0  0  0  0  0  0
    1.2030    0.2970   -0.0390 C   0  0  0  0  0  0  0  0  0  0  0  0
    1.1890   -1.0090    0.1340 C   0  0  0  0  0  0  0  0  0  0  0  0
   -0.0470   -1.7710    0.2270 C   0  0  0  0  0  0  0  0  0  0  0  0
   -1.2010   -0.9220    0.1090 N   0  0  0  0  0  0  0  0  0  0  0  0
   -1.1670    0.4760   -0.0750 C   0  0  0  0  0  0  0  0  0  0  0  0
   -2.3820    1.1900   -0.1750 N   0  0  0  0  0  0  0  0  0  0  0  0
   -0.0180    1.0900   -0.1500 C   0  0  0  0  0  0  0  0  0  0  0  0
  1  2  1  0
  2  3  2  0
  2  8  1  0
  3  4  1  0
  4  5  1  0
  5  6  1  0
  6  7  1  0
  6  8  2  0
M  END
