
     RDKit          3D

 17 18  0  0  0  0  0  0  0  0999 V2000
   -1.4890    2.7460   -0.0590 C   0  0  0  0  0  0  0  0  0  0  0  0
   -0.7920    1.8290   -1.0110 C   0  0  0  0  0  0  0  0  0  0  0  0
   -0.0620    0.7520   -0.3830 N   0  0  0  0  0  0  0  0  0  0  0  0
    1.3000    1.0380   -0.0540 C   0  0  0  0  0  0  0  0  0  0  0  0
    1.6800    2.2230   -0.1280 O   0  0  0  0  0  0  0  0  0  0  0  0
    2.3180    0.0690    0.3700 C   0  0  0  0  0  0  0  0  0  0  0  0
    3.5010    0.3560    0.9890 C   0  0  0  0  0  0  0  0  0  0  0  0
    4.1550   -0.8040    1.2250 N   0  0  0  0  0  0  0  0  0  0  0  0
    3.3910   -1.7760    0.7600 N   0  0  0  0  0  0  0  0  0  0  0  0
    2.2470   -1.3010    0.2220 C   0  0  0  0  0  0  0  0  0  0  0  0
    1.1670   -2.0630   -0.3950 C   0  0  0  0  0  0  0  0  0  0  0  0
   -0.1700   -1.6360   -0.1680 N   0  0  0  0  0  0  0  0  0  0  0  0
   -1.0260   -2.6940    0.1110 O   0  0  0  0  0  0  0  0  0  0  0  0
   -0.7550   -0.5070   -0.1470 C   0  0  0  0  0  0  0  0  0  0  0  0
   -2.1670   -0.2950    0.1080 C   0  0  0  0  0  0  0  0  0  0  0  0
   -3.1080   -1.4360    0.0470 C   0  0  0  0  0  0  0  0  0  0  0  0
   -3.1330   -2.1990   -1.5830 Cl  0  0  0  0  0  0  0  0  0  0  0  0
  1  2  1  0
  2  3  1  0
  3  4  1  0
  3 14  1  0
  4  5  2  0
  4  6  1  0
  6  7  2  0
  6 10  1  0
  7  8  1  0
  8  9  1  0
  9 10  2  0
 10 11  1  0
 11 12  1  0
 12 13  1  0
 12 14  2  0
 14 15  1  0
 15 16  1  0
 16 17  1  0
M  CHG  2  12   1  13  -1
M  END
