
     RDKit          3D

 22 25  0  0  0  0  0  0  0  0999 V2000
    1.1090    0.7230    2.1270 O   0  0  0  0  0  0  0  0  0  0  0  0
    2.0530    0.4540    1.3410 C   0  0  0  0  0  0  0  0  0  0  0  0
    3.3120    0.6750    1.7600 N   0  0  0  0  0  0  0  0  0  0  0  0
    4.3690    0.4070    0.9680 C   0  0  0  0  0  0  0  0  0  0  0  0
    5.6600    0.6420    1.4160 C   0  0  0  0  0  0  0  0  0  0  0  0
    6.7390    0.3660    0.6020 C   0  0  0  0  0  0  0  0  0  0  0  0
    6.4730   -0.1420   -0.6510 C   0  0  0  0  0  0  0  0  0  0  0  0
    5.2100   -0.3610   -1.0640 N   0  0  0  0  0  0  0  0  0  0  0  0
    4.1410   -0.1000   -0.2880 C   0  0  0  0  0  0  0  0  0  0  0  0
    2.8430   -0.3310   -0.7260 C   0  0  0  0  0  0  0  0  0  0  0  0
    1.7710   -0.0540    0.0910 C   0  0  0  0  0  0  0  0  0  0  0  0
    0.3980   -0.2930   -0.3590 C   0  0  0  0  0  0  0  0  0  0  0  0
    0.0640   -0.7980   -1.5980 C   0  0  0  0  0  0  0  0  0  0  0  0
   -1.2940   -0.8770   -1.6450 C   0  0  0  0  0  0  0  0  0  0  0  0
   -1.7650   -0.4170   -0.4340 C   0  0  0  0  0  0  0  0  0  0  0  0
   -3.1540   -0.3090   -0.0060 C   0  0  0  0  0  0  0  0  0  0  0  0
   -3.5030    0.1470    1.1830 C   0  0  0  0  0  0  0  0  0  0  0  0
   -4.9330    0.2120    1.5060 C   0  0  0  0  0  0  0  0  0  0  0  0
   -5.8300    0.4590    0.3440 C   0  0  0  0  0  0  0  0  0  0  0  0
   -5.1880    0.4180   -0.9410 N   0  0  0  0  0  0  0  0  0  0  0  0
   -4.2540   -0.7170   -0.9160 C   0  0  0  0  0  0  0  0  0  0  0  0
   -0.7160   -0.0810    0.2990 O   0  0  0  0  0  0  0  0  0  0  0  0
  1  2  2  0
  2  3  1  0
  2 11  1  0
  3  4  1  0
  4  5  2  0
  4  9  1  0
  5  6  1  0
  6  7  2  0
  7  8  1  0
  8  9  2  0
  9 10  1  0
 10 11  2  0
 11 12  1  0
 12 13  2  0
 12 22  1  0
 13 14  1  0
 14 15  2  0
 15 16  1  0
 15 22  1  0
 16 17  2  0
 16 21  1  0
 17 18  1  0
 18 19  1  0
 19 20  1  0
 20 21  1  0
M  END
