
     RDKit          3D

 22 25  0  0  0  0  0  0  0  0999 V2000
   -3.3810    2.3900   -0.7740 C   0  0  0  0  0  0  0  0  0  0  0  0
   -2.7380    1.4010   -1.7560 C   0  0  0  0  0  0  0  0  0  0  0  0
   -2.0010    0.4230   -0.8910 C   0  0  0  0  0  0  0  0  0  0  0  0
   -0.6290    0.4920   -0.7630 C   0  0  0  0  0  0  0  0  0  0  0  0
    0.0720   -0.4070    0.0390 C   0  0  0  0  0  0  0  0  0  0  0  0
    1.5210   -0.3200    0.1640 C   0  0  0  0  0  0  0  0  0  0  0  0
    2.2650   -1.4590    0.3740 C   0  0  0  0  0  0  0  0  0  0  0  0
    3.6320   -1.4800    0.5060 C   0  0  0  0  0  0  0  0  0  0  0  0
    4.2970   -0.2610    0.4200 C   0  0  0  0  0  0  0  0  0  0  0  0
    5.6230    0.0300    0.5110 N   0  0  0  0  0  0  0  0  0  0  0  0
    5.7160    1.3690    0.3560 C   0  0  0  0  0  0  0  0  0  0  0  0
    6.8120    1.9800    0.3860 O   0  0  0  0  0  0  0  0  0  0  0  0
    4.4870    1.8850    0.1760 N   0  0  0  0  0  0  0  0  0  0  0  0
    3.5670    0.8890    0.2100 C   0  0  0  0  0  0  0  0  0  0  0  0
    2.1920    0.8770    0.0810 C   0  0  0  0  0  0  0  0  0  0  0  0
   -0.6840   -1.3600    0.6890 C   0  0  0  0  0  0  0  0  0  0  0  0
   -2.0550   -1.4310    0.5630 C   0  0  0  0  0  0  0  0  0  0  0  0
   -2.7400   -0.5390   -0.2320 C   0  0  0  0  0  0  0  0  0  0  0  0
   -4.1230   -0.7980   -0.2190 N   0  0  0  0  0  0  0  0  0  0  0  0
   -4.3700   -1.9150    0.6240 C   0  0  0  0  0  0  0  0  0  0  0  0
   -5.4920   -2.4510    0.8830 O   0  0  0  0  0  0  0  0  0  0  0  0
   -3.0590   -2.3460    1.1540 C   0  0  0  0  0  0  0  0  0  0  0  0
  1  2  1  0
  2  3  1  0
  3  4  2  0
  3 18  1  0
  4  5  1  0
  5  6  1  0
  5 16  2  0
  6  7  2  0
  6 15  1  0
  7  8  1  0
  8  9  2  0
  9 10  1  0
  9 14  1  0
 10 11  1  0
 11 12  2  0
 11 13  1  0
 13 14  1  0
 14 15  2  0
 16 17  1  0
 17 18  2  0
 17 22  1  0
 18 19  1  0
 19 20  1  0
 20 21  2  0
 20 22  1  0
M  END
