
     RDKit          3D

 17 18  0  0  0  0  0  0  0  0999 V2000
   -4.1950    2.4250    0.0160 C   0  0  0  0  0  0  0  0  0  0  0  0
   -2.7560    2.2570    0.0670 N   0  0  0  0  0  0  0  0  0  0  0  0
   -2.2190    1.0700   -0.0720 C   0  0  0  0  0  0  0  0  0  0  0  0
   -0.8300    0.9270   -0.0200 C   0  0  0  0  0  0  0  0  0  0  0  0
   -0.2990   -0.3190   -0.1680 C   0  0  0  0  0  0  0  0  0  0  0  0
    1.1250   -0.5860   -0.1320 C   0  0  0  0  0  0  0  0  0  0  0  0
    1.9970    0.5320    0.0710 N   0  0  0  0  0  0  0  0  0  0  0  0
    3.4020    0.2550    0.1060 C   0  0  0  0  0  0  0  0  0  0  0  0
    4.1260   -0.7000   -0.3520 N   0  0  0  0  0  0  0  0  0  0  0  0
    5.3200   -0.1230    0.1520 C   0  0  0  0  0  0  0  0  0  0  0  0
    4.6060    0.8780    0.6380 C   0  0  0  0  0  0  0  0  0  0  0  0
    4.9000    2.3650    1.5490 Cl  0  0  0  0  0  0  0  0  0  0  0  0
   -1.1900   -1.3610   -0.3620 C   0  0  0  0  0  0  0  0  0  0  0  0
   -0.6220   -2.7220   -0.5250 C   0  0  0  0  0  0  0  0  0  0  0  0
   -2.5180   -1.1830   -0.4060 N   0  0  0  0  0  0  0  0  0  0  0  0
   -3.3770   -2.2520   -0.6020 O   0  0  0  0  0  0  0  0  0  0  0  0
   -2.9810    0.0220   -0.2600 O   0  0  0  0  0  0  0  0  0  0  0  0
  1  2  1  0
  2  3  2  3
  3  4  1  0
  3 17  1  0
  4  5  2  0
  5  6  1  0
  5 13  1  0
  6  7  1  0
  7  8  1  0
  8  9  2  0
  8 11  1  0
  9 10  1  0
 10 11  2  0
 11 12  1  0
 13 14  1  0
 13 15  2  0
 15 16  1  0
 15 17  1  0
M  CHG  2  15   1  16  -1
M  END
