
     RDKit          3D

 20 22  0  0  0  0  0  0  0  0999 V2000
    1.3830   -0.3990   -1.8330 O   0  0  0  0  0  0  0  0  0  0  0  0
    1.5570   -0.1070   -0.6790 C   0  0  0  0  0  0  0  0  0  0  0  0
    2.6100    0.2430    0.1550 N   0  0  0  0  0  0  0  0  0  0  0  0
    3.8640    0.1620   -1.0410 C   0  0  0  0  0  0  0  0  0  0  0  0
    3.4440   -0.1060   -2.1060 O   0  0  0  0  0  0  0  0  0  0  0  0
    5.1540    0.4320   -0.5080 C   0  0  0  0  0  0  0  0  0  0  0  0
    5.6580    0.7270    0.6770 C   0  0  0  0  0  0  0  0  0  0  0  0
    7.0620    0.8980    0.6170 N   0  0  0  0  0  0  0  0  0  0  0  0
    7.4360    0.4310   -0.5840 O   0  0  0  0  0  0  0  0  0  0  0  0
    6.3340    0.4230   -1.3520 N   0  0  0  0  0  0  0  0  0  0  0  0
    0.2970   -0.1050    0.1440 N   0  0  0  0  0  0  0  0  0  0  0  0
   -0.8780   -0.3690   -0.5090 C   0  0  1  0  0  0  0  0  0  0  0  0
   -1.2680   -1.8410   -0.6190 C   0  0  0  0  0  0  0  0  0  0  0  0
   -2.8830   -1.6100   -1.4200 S   0  0  0  0  0  0  0  0  0  0  0  0
   -2.9910    0.2210   -1.2140 C   0  0  1  0  0  0  0  0  0  0  0  0
   -4.3480    0.6960   -0.8820 C   0  0  0  0  0  0  0  0  0  0  0  0
   -4.9830   -0.1640    0.1930 C   0  0  0  0  0  0  0  0  0  0  0  0
   -4.1340    0.0960    1.4350 C   0  0  0  0  0  0  0  0  0  0  0  0
   -2.7920   -0.5580    1.1150 C   0  0  0  0  0  0  0  0  0  0  0  0
   -2.0970    0.3000    0.0470 C   0  0  1  0  0  0  0  0  0  0  0  0
  1  2  2  0
  2  3  1  0
  2 11  1  0
  3  4  1  0
  4  5  2  0
  4  6  1  0
  6  7  2  0
  6 10  1  0
  7  8  1  0
  8  9  1  0
  9 10  1  0
 12 11  1  1
 12 13  1  0
 12 20  1  0
 13 14  1  0
 14 15  1  0
 15 16  1  1
 15 20  1  0
 16 17  1  0
 17 18  1  0
 18 19  1  0
 20 19  1  1
M  END
