
     RDKit          3D

 20 21  0  0  0  0  0  0  0  0999 V2000
   -0.9640   -0.4450    3.1310 C   0  0  0  0  0  0  0  0  0  0  0  0
   -1.8230   -0.3400    1.9300 C   0  0  0  0  0  0  0  0  0  0  0  0
   -1.5040   -0.8270    0.7520 C   0  0  0  0  0  0  0  0  0  0  0  0
   -2.5480   -0.5950   -0.2750 C   0  0  0  0  0  0  0  0  0  0  0  0
   -3.7920   -0.6870    0.0890 C   0  0  0  0  0  0  0  0  0  0  0  0
   -4.2430   -0.9830    1.3340 O   0  0  0  0  0  0  0  0  0  0  0  0
   -2.2390   -0.2890   -1.6210 O   0  0  0  0  0  0  0  0  0  0  0  0
   -1.3300   -1.0510   -2.4400 C   0  0  0  0  0  0  0  0  0  0  0  0
   -0.8690   -2.3130   -1.7120 C   0  0  0  0  0  0  0  0  0  0  0  0
    0.0330   -2.1390   -0.6830 N   0  0  0  0  0  0  0  0  0  0  0  0
   -0.2190   -1.4780    0.5230 C   0  0  1  0  0  0  0  0  0  0  0  0
    0.9760   -0.5320    0.7360 C   0  0  0  0  0  0  0  0  0  0  0  0
    0.9230    0.6200   -0.1300 N   0  0  0  0  0  0  0  0  0  0  0  0
    1.9950    1.5880   -0.0760 C   0  0  0  0  0  0  0  0  0  0  0  0
    2.7840    1.5080    0.8960 N   0  0  0  0  0  0  0  0  0  0  0  0
    3.9240    2.2960    1.2350 C   0  0  0  0  0  0  0  0  0  0  0  0
    4.2330    3.6070    0.0440 S   0  0  0  0  0  0  0  0  0  0  0  0
    2.9540    3.4600   -1.2080 C   0  0  0  0  0  0  0  0  0  0  0  0
    2.9800    4.3600   -2.2350 O   0  0  0  0  0  0  0  0  0  0  0  0
    2.0720    2.5510   -1.1220 N   0  0  0  0  0  0  0  0  0  0  0  0
  1  2  1  0
  2  3  2  3
  3  4  1  0
  3 11  1  0
  4  5  2  3
  4  7  1  0
  5  6  1  0
  7  8  1  0
  8  9  1  0
  9 10  1  0
 10 11  1  0
 11 12  1  6
 12 13  1  0
 13 14  1  0
 14 15  2  0
 14 20  1  0
 15 16  1  0
 16 17  1  0
 17 18  1  0
 18 19  1  0
 18 20  2  0
M  END
