
     RDKit          3D

 20 22  0  0  0  0  0  0  0  0999 V2000
   -2.4990   -2.2020   -0.3860 O   0  0  0  0  0  0  0  0  0  0  0  0
   -1.9070   -1.0420   -0.3020 C   0  0  0  0  0  0  0  0  0  0  0  0
   -2.7220    0.1430   -0.0480 C   0  0  0  0  0  0  0  0  0  0  0  0
   -4.0110    0.0630    0.1130 C   0  0  0  0  0  0  0  0  0  0  0  0
   -4.7500    1.3090    0.3670 C   0  0  0  0  0  0  0  0  0  0  0  0
   -3.6400    2.5030   -0.3840 S   0  0  0  0  0  0  0  0  0  0  0  0
   -3.8280    2.6260   -1.8620 O   0  0  0  0  0  0  0  0  0  0  0  0
   -2.1470    1.4930    0.0140 C   0  0  0  0  0  0  0  0  0  0  0  0
   -0.5250   -1.0690   -0.4680 N   0  0  0  0  0  0  0  0  0  0  0  0
    0.0860   -2.3850   -0.7490 C   0  0  0  0  0  0  0  0  0  0  0  0
    0.8520   -2.7420    0.5290 C   0  0  0  0  0  0  0  0  0  0  0  0
    1.8910   -1.6690    0.8040 C   0  0  0  0  0  0  0  0  0  0  0  0
    1.8320   -0.5700   -0.2200 C   0  0  2  0  0  0  0  0  0  0  0  0
    2.7170    0.5300    0.2920 C   0  0  0  0  0  0  0  0  0  0  0  0
    2.5790    1.2140    1.4410 N   0  0  0  0  0  0  0  0  0  0  0  0
    3.5530    2.0830    1.5120 N   0  0  0  0  0  0  0  0  0  0  0  0
    4.3400    1.9920    0.4320 C   0  0  0  0  0  0  0  0  0  0  0  0
    5.3780    2.6730    0.1540 O   0  0  0  0  0  0  0  0  0  0  0  0
    3.8070    1.0250   -0.3150 N   0  0  0  0  0  0  0  0  0  0  0  0
    0.4240    0.0030   -0.3940 C   0  0  0  0  0  0  0  0  0  0  0  0
  1  2  2  0
  2  3  1  0
  2  9  1  0
  3  4  2  0
  3  8  1  0
  4  5  1  0
  6  5  1  1
  6  7  2  0
  6  8  1  0
  9 10  1  0
  9 20  1  0
 10 11  1  0
 11 12  1  0
 12 13  1  0
 13 14  1  1
 13 20  1  0
 14 15  2  0
 14 19  1  0
 15 16  1  0
 16 17  1  0
 17 18  2  0
 17 19  1  0
M  END
