
     RDKit          3D

 20 21  0  0  0  0  0  0  0  0999 V2000
   -3.1380    2.8540    0.0090 C   0  0  0  0  0  0  0  0  0  0  0  0
   -3.2050    1.3690    0.1640 C   0  0  0  0  0  0  0  0  0  0  0  0
   -3.5970    0.8920    1.3300 C   0  0  0  0  0  0  0  0  0  0  0  0
   -3.6540   -0.5560    1.4540 C   0  0  0  0  0  0  0  0  0  0  0  0
   -3.3440   -1.3270    0.4990 N   0  0  0  0  0  0  0  0  0  0  0  0
   -2.9180   -0.8980   -0.7690 C   0  0  2  0  0  0  0  0  0  0  0  0
   -1.6320   -1.5840   -1.2150 C   0  0  2  0  0  0  0  0  0  0  0  0
   -1.9330   -3.0740   -1.2550 C   0  0  0  0  0  0  0  0  0  0  0  0
   -0.5280   -1.3070   -0.3490 N   0  0  0  0  0  0  0  0  0  0  0  0
    0.6510   -0.7140   -0.8660 C   0  0  0  0  0  0  0  0  0  0  0  0
    0.7400   -0.4250   -2.0820 O   0  0  0  0  0  0  0  0  0  0  0  0
    1.7840   -0.4180   -0.0370 N   0  0  0  0  0  0  0  0  0  0  0  0
    2.9720    0.1850   -0.5790 C   0  0  0  0  0  0  0  0  0  0  0  0
    4.0490    0.4210    0.4170 C   0  0  0  0  0  0  0  0  0  0  0  0
    3.9620    0.1230    1.6890 C   0  0  0  0  0  0  0  0  0  0  0  0
    5.5320    0.6260    2.3570 S   0  0  0  0  0  0  0  0  0  0  0  0
    5.3960    2.1190    2.7000 O   0  0  0  0  0  0  0  0  0  0  0  0
    6.3590    0.5910    0.8300 O   0  0  0  0  0  0  0  0  0  0  0  0
    5.3270    1.0450    0.0210 C   0  0  0  0  0  0  0  0  0  0  0  0
   -2.8590    0.5110   -0.9020 N   0  0  0  0  0  0  0  0  0  0  0  0
  1  2  1  0
  2  3  2  0
  2 20  1  0
  3  4  1  0
  4  5  2  0
  5  6  1  0
  6  7  1  0
  6 20  1  1
  7  8  1  1
  7  9  1  0
  9 10  1  0
 10 11  2  0
 10 12  1  0
 12 13  1  0
 13 14  1  0
 14 15  2  0
 14 19  1  0
 15 16  1  0
 16 17  2  0
 16 18  1  6
 18 19  1  0
M  END
