
     RDKit          3D

 19 19  0  0  0  0  0  0  0  0999 V2000
    4.5070    1.4460   -0.1730 C   0  0  0  0  0  0  0  0  0  0  0  0
    3.0150    1.3190    0.1220 C   0  0  0  0  0  0  0  0  0  0  0  0
    2.8410    0.2100    1.1090 C   0  0  0  0  0  0  0  0  0  0  0  0
    1.3960    0.0070    1.4930 C   0  0  0  0  0  0  0  0  0  0  0  0
    0.5800   -0.3270    0.2690 C   0  0  0  0  0  0  0  0  0  0  0  0
   -0.7880   -0.5980    0.5440 N   0  0  0  0  0  0  0  0  0  0  0  0
   -1.6560   -0.4610   -0.6050 C   0  0  1  0  0  0  0  0  0  0  0  0
   -1.6120    0.8070   -1.3350 C   0  0  0  0  0  0  0  0  0  0  0  0
   -1.9870    1.9330   -0.4500 C   0  0  0  0  0  0  0  0  0  0  0  0
   -2.2640    1.6820    0.7430 O   0  0  0  0  0  0  0  0  0  0  0  0
   -2.0540    3.2900   -0.8680 N   0  0  0  0  0  0  0  0  0  0  0  0
   -2.4260    4.3520    0.0470 C   0  0  0  0  0  0  0  0  0  0  0  0
   -1.4440   -1.7180   -1.3750 C   0  0  1  0  0  0  0  0  0  0  0  0
   -0.2060   -1.8810   -1.9380 O   0  0  0  0  0  0  0  0  0  0  0  0
   -1.5890   -2.7200   -0.2460 C   0  0  2  0  0  0  0  0  0  0  0  0
   -2.9310   -3.0720   -0.1670 O   0  0  0  0  0  0  0  0  0  0  0  0
   -1.1380   -1.9020    0.9770 C   0  0  1  0  0  0  0  0  0  0  0  0
   -0.1820   -2.7020    1.7800 C   0  0  0  0  0  0  0  0  0  0  0  0
    1.0300   -2.9880    1.1420 O   0  0  0  0  0  0  0  0  0  0  0  0
  1  2  1  0
  2  3  1  0
  3  4  1  0
  4  5  1  0
  5  6  1  0
  6  7  1  0
  6 17  1  0
  7  8  1  6
  7 13  1  0
  8  9  1  0
  9 10  2  0
  9 11  1  0
 11 12  1  0
 13 14  1  1
 13 15  1  0
 15 16  1  1
 15 17  1  0
 17 18  1  6
 18 19  1  0
M  END
