
     RDKit          3D

 23 24  0  0  0  0  0  0  0  0999 V2000
   -0.2160   -0.0190    1.1020 O   0  0  0  0  0  0  0  0  0  0  0  0
   -0.3180   -0.7500    0.1150 C   0  0  0  0  0  0  0  0  0  0  0  0
   -1.4540   -1.7150    0.0940 C   0  0  0  0  0  0  0  0  0  0  0  0
   -2.7320   -1.0760   -0.3370 C   0  0  1  0  0  0  0  0  0  0  0  0
   -3.7220   -2.0840   -0.3160 O   0  0  0  0  0  0  0  0  0  0  0  0
   -3.1410    0.0560    0.5730 C   0  0  2  0  0  0  0  0  0  0  0  0
   -3.2960   -0.3790    1.8670 O   0  0  0  0  0  0  0  0  0  0  0  0
   -4.3700    0.7120   -0.0100 C   0  0  2  0  0  0  0  0  0  0  0  0
   -4.8170    1.8860    0.8750 C   0  0  0  0  0  0  0  0  0  0  0  0
   -6.5720    1.9430    0.3100 S   0  0  0  0  0  0  0  0  0  0  0  0
   -6.5020    0.3570   -0.6280 C   0  0  0  0  0  0  0  0  0  0  0  0
   -5.3790   -0.2190    0.0120 O   0  0  0  0  0  0  0  0  0  0  0  0
    0.6090   -0.6050   -0.8530 O   0  0  0  0  0  0  0  0  0  0  0  0
    1.6960    0.1810   -1.0210 C   0  0  0  0  0  0  0  0  0  0  0  0
    2.8980    0.1010   -0.1720 C   0  0  2  0  0  0  0  0  0  0  0  0
    2.7540    0.6440    1.2140 C   0  0  0  0  0  0  0  0  0  0  0  0
    4.0270    0.8460    1.8170 O   0  0  0  0  0  0  0  0  0  0  0  0
    3.9260    1.0310   -0.8550 C   0  0  0  0  0  0  0  0  0  0  0  0
    5.2240    0.3650   -0.6040 C   0  0  1  0  0  0  0  0  0  0  0  0
    6.0860    1.0650    0.2390 O   0  0  0  0  0  0  0  0  0  0  0  0
    4.8540   -0.9890   -0.1120 C   0  0  1  0  0  0  0  0  0  0  0  0
    5.3860   -1.2970    1.1440 O   0  0  0  0  0  0  0  0  0  0  0  0
    3.5090   -1.1410   -0.2090 O   0  0  0  0  0  0  0  0  0  0  0  0
  1  2  2  0
  2  3  1  0
  2 13  1  0
  3  4  1  0
  4  5  1  1
  4  6  1  0
  6  7  1  1
  6  8  1  0
  8  9  1  1
  8 12  1  0
  9 10  1  0
 10 11  1  0
 11 12  1  0
 13 14  1  0
 15 14  1  6
 15 16  1  0
 15 18  1  0
 15 23  1  0
 16 17  1  0
 18 19  1  0
 19 20  1  1
 19 21  1  0
 21 22  1  1
 21 23  1  0
M  END
