
     RDKit          3D

 23 24  0  0  0  0  0  0  0  0999 V2000
   -4.7320   -3.8500   -1.8040 C   0  0  0  0  0  0  0  0  0  0  0  0
   -3.6020   -3.2730   -1.1770 O   0  0  0  0  0  0  0  0  0  0  0  0
   -3.1030   -2.0380   -1.5410 C   0  0  0  0  0  0  0  0  0  0  0  0
   -3.6720   -1.4030   -2.4610 O   0  0  0  0  0  0  0  0  0  0  0  0
   -1.9400   -1.4630   -0.8840 C   0  0  1  0  0  0  0  0  0  0  0  0
   -1.5980   -0.2130   -1.3960 O   0  0  0  0  0  0  0  0  0  0  0  0
   -0.7200    0.3630   -0.4910 C   0  0  2  0  0  0  0  0  0  0  0  0
   -1.1700    2.1120   -0.3430 S   0  0  0  0  0  0  0  0  0  0  0  0
   -0.0740    2.9740    0.8290 C   0  0  0  0  0  0  0  0  0  0  0  0
   -0.5610    4.4310    0.8590 C   0  0  0  0  0  0  0  0  0  0  0  0
   -1.8880    4.4600    1.2850 O   0  0  0  0  0  0  0  0  0  0  0  0
    0.6740    0.1970   -1.0550 C   0  0  1  0  0  0  0  0  0  0  0  0
    0.6660    0.8660   -2.2980 O   0  0  0  0  0  0  0  0  0  0  0  0
    1.6730    0.6450   -0.2370 O   0  0  0  0  0  0  0  0  0  0  0  0
    2.5760   -0.3680   -0.0000 C   0  0  2  0  0  0  0  0  0  0  0  0
    2.7760   -0.6830    1.4660 C   0  0  0  0  0  0  0  0  0  0  0  0
    4.0290   -1.2250    1.5690 O   0  0  0  0  0  0  0  0  0  0  0  0
    4.8220   -0.7690    0.5560 C   0  0  0  0  0  0  0  0  0  0  0  0
    4.0030    0.0560   -0.3750 C   0  0  1  0  0  0  0  0  0  0  0  0
    4.2650   -0.1430   -1.7080 O   0  0  0  0  0  0  0  0  0  0  0  0
   -0.9230   -0.2850    0.8350 C   0  0  0  0  0  0  0  0  0  0  0  0
   -2.2120   -1.0810    0.5780 C   0  0  1  0  0  0  0  0  0  0  0  0
   -3.3130   -0.2480    0.6020 O   0  0  0  0  0  0  0  0  0  0  0  0
  1  2  1  0
  2  3  1  0
  3  4  2  0
  5  3  1  6
  5  6  1  0
  5 22  1  0
  6  7  1  0
  7  8  1  1
  7 12  1  0
  7 21  1  0
  8  9  1  0
  9 10  1  0
 10 11  1  0
 12 13  1  6
 12 14  1  0
 15 14  1  1
 15 16  1  0
 15 19  1  0
 16 17  1  0
 17 18  1  0
 18 19  1  0
 19 20  1  6
 21 22  1  0
 22 23  1  6
M  END
