
     RDKit          3D

 23 23  0  0  0  0  0  0  0  0999 V2000
   -2.6400   -2.5180   -0.3960 C   0  0  0  0  0  0  0  0  0  0  0  0
   -2.4510   -1.6890    0.7140 O   0  0  0  0  0  0  0  0  0  0  0  0
   -2.8260   -0.3720    0.4510 C   0  0  1  0  0  0  0  0  0  0  0  0
   -4.0870   -0.1430    1.1130 O   0  0  0  0  0  0  0  0  0  0  0  0
   -5.0390    0.0280    0.1350 C   0  0  0  0  0  0  0  0  0  0  0  0
   -1.8580    0.6590    0.9150 C   0  0  1  0  0  0  0  0  0  0  0  0
   -1.6710    0.5530    2.3170 O   0  0  0  0  0  0  0  0  0  0  0  0
   -0.4870    0.6780    0.3210 C   0  0  2  0  0  0  0  0  0  0  0  0
   -0.5730    0.8550   -1.1650 C   0  0  0  0  0  0  0  0  0  0  0  0
   -1.2410    2.1630   -1.5810 C   0  0  1  0  0  0  0  0  0  0  0  0
   -0.5490    3.2560   -1.0770 O   0  0  0  0  0  0  0  0  0  0  0  0
   -1.0540    2.2540   -2.9950 O   0  0  0  0  0  0  0  0  0  0  0  0
   -2.5990    2.1990   -1.3940 O   0  0  0  0  0  0  0  0  0  0  0  0
    0.4630   -0.3210    0.8470 C   0  0  1  0  0  0  0  0  0  0  0  0
    0.1440   -1.6450    0.6910 O   0  0  0  0  0  0  0  0  0  0  0  0
    1.9160   -0.0670    0.7580 C   0  0  1  0  0  0  0  0  0  0  0  0
    2.5240   -0.7530    1.8670 O   0  0  0  0  0  0  0  0  0  0  0  0
    2.6390   -0.6460   -0.4270 C   0  0  0  0  0  0  0  0  0  0  0  0
    4.0370   -0.0460   -0.1870 C   0  0  2  0  0  0  0  0  0  0  0  0
    4.9610   -1.1030    0.3810 C   0  0  0  0  0  0  0  0  0  0  0  0
    5.0970   -2.1830   -0.4780 O   0  0  0  0  0  0  0  0  0  0  0  0
    3.7440    1.0580    0.7830 C   0  0  0  0  0  0  0  0  0  0  0  0
    2.3440    1.2230    0.7900 O   0  0  0  0  0  0  0  0  0  0  0  0
  1  2  1  0
  3  2  1  1
  3  4  1  0
  3  6  1  0
  4  5  1  0
  6  7  1  1
  6  8  1  0
  8  9  1  6
  8 14  1  0
  9 10  1  0
 10 11  1  1
 10 12  1  0
 10 13  1  0
 14 15  1  6
 14 16  1  0
 16 17  1  1
 16 18  1  0
 16 23  1  0
 18 19  1  0
 19 20  1  1
 19 22  1  0
 20 21  1  0
 22 23  1  0
M  END
