
     RDKit          3D

 23 24  0  0  0  0  0  0  0  0999 V2000
    3.7530   -1.7490    1.5120 O   0  0  0  0  0  0  0  0  0  0  0  0
    4.6360   -1.3870    0.4950 C   0  0  2  0  0  0  0  0  0  0  0  0
    5.9100   -1.1190    0.9900 O   0  0  0  0  0  0  0  0  0  0  0  0
    4.0510   -0.2080   -0.1910 C   0  0  0  0  0  0  0  0  0  0  0  0
    4.7290    0.9130   -0.2090 C   0  0  0  0  0  0  0  0  0  0  0  0
    4.1300    2.3990   -1.0020 S   0  0  0  0  0  0  0  0  0  0  0  0
    2.8210   -0.3510   -0.7760 O   0  0  0  0  0  0  0  0  0  0  0  0
    1.5930   -0.4030   -0.0680 C   0  0  1  0  0  0  0  0  0  0  0  0
    1.5050    0.8240    0.6270 O   0  0  0  0  0  0  0  0  0  0  0  0
    0.4980   -0.4910   -1.0770 C   0  0  2  0  0  0  0  0  0  0  0  0
    0.5620    0.6390   -1.8860 O   0  0  0  0  0  0  0  0  0  0  0  0
   -0.8750   -0.5720   -0.4990 C   0  0  2  0  0  0  0  0  0  0  0  0
   -1.2560    0.5990    0.3490 C   0  0  0  0  0  0  0  0  0  0  0  0
   -2.7710    0.5500    0.4800 C   0  0  1  0  0  0  0  0  0  0  0  0
   -3.1460    1.6340    1.2660 O   0  0  0  0  0  0  0  0  0  0  0  0
   -3.2660    2.7070    0.3640 C   0  0  0  0  0  0  0  0  0  0  0  0
   -3.8230    2.0070   -0.8510 C   0  0  0  0  0  0  0  0  0  0  0  0
   -3.3020    0.7430   -0.7720 O   0  0  0  0  0  0  0  0  0  0  0  0
   -3.2760   -0.7240    1.0460 C   0  0  1  0  0  0  0  0  0  0  0  0
   -4.6280   -0.8400    0.7210 O   0  0  0  0  0  0  0  0  0  0  0  0
   -2.5870   -1.9610    0.5980 C   0  0  0  0  0  0  0  0  0  0  0  0
   -1.1210   -1.8090    0.3210 C   0  0  2  0  0  0  0  0  0  0  0  0
   -0.4410   -1.7400    1.5350 O   0  0  0  0  0  0  0  0  0  0  0  0
  2  1  1  1
  2  3  1  0
  2  4  1  0
  4  5  2  3
  4  7  1  0
  5  6  1  0
  7  8  1  0
  8  9  1  6
  8 10  1  0
 10 11  1  6
 10 12  1  0
 12 13  1  1
 12 22  1  0
 14 13  1  6
 14 15  1  0
 14 18  1  0
 14 19  1  0
 15 16  1  0
 16 17  1  0
 17 18  1  0
 19 20  1  6
 19 21  1  0
 21 22  1  0
 22 23  1  1
M  END
