
     RDKit          3D

 23 23  0  0  0  0  0  0  0  0999 V2000
   -3.2720   -2.8950   -0.1140 C   0  0  0  0  0  0  0  0  0  0  0  0
   -2.0460   -2.6510    0.4780 O   0  0  0  0  0  0  0  0  0  0  0  0
   -1.6500   -1.3200    0.3510 C   0  0  1  0  0  0  0  0  0  0  0  0
   -1.5600   -1.0330   -1.0060 O   0  0  0  0  0  0  0  0  0  0  0  0
   -2.6240   -0.4470    1.0720 C   0  0  0  0  0  0  0  0  0  0  0  0
   -3.4720    0.3990    0.1770 C   0  0  2  0  0  0  0  0  0  0  0  0
   -3.4770   -0.0020   -1.1360 O   0  0  0  0  0  0  0  0  0  0  0  0
   -2.9930    1.8570    0.1960 C   0  0  0  0  0  0  0  0  0  0  0  0
   -1.5920    1.7880    0.1780 O   0  0  0  0  0  0  0  0  0  0  0  0
   -1.0280    2.7630    1.0060 C   0  0  2  0  0  0  0  0  0  0  0  0
   -1.8180    3.8800    1.1380 O   0  0  0  0  0  0  0  0  0  0  0  0
    0.3460    3.0670    0.4440 C   0  0  0  0  0  0  0  0  0  0  0  0
    1.4290    1.6760    0.8820 S   0  0  0  0  0  0  0  0  0  0  0  0
    3.0860    1.9880    0.2350 C   0  0  0  0  0  0  0  0  0  0  0  0
    3.7050    0.7690   -0.3840 C   0  0  2  0  0  0  0  0  0  0  0  0
    4.0710    1.0860   -1.6940 O   0  0  0  0  0  0  0  0  0  0  0  0
    2.7820   -0.4120   -0.4410 C   0  0  1  0  0  0  0  0  0  0  0  0
    3.4340   -1.4390   -1.3450 C   0  0  0  0  0  0  0  0  0  0  0  0
    4.6170   -1.9300   -0.7900 O   0  0  0  0  0  0  0  0  0  0  0  0
    2.4540   -0.9060    0.7970 O   0  0  0  0  0  0  0  0  0  0  0  0
    1.8570   -2.1390    0.7280 C   0  0  0  0  0  0  0  0  0  0  0  0
    0.4590   -2.0880    0.1500 C   0  0  0  0  0  0  0  0  0  0  0  0
   -0.3660   -1.2430    0.9220 O   0  0  0  0  0  0  0  0  0  0  0  0
  1  2  1  0
  2  3  1  0
  3  4  1  6
  3  5  1  0
  3 23  1  0
  5  6  1  0
  6  7  1  6
  6  8  1  0
  8  9  1  0
  9 10  1  0
 10 11  1  6
 10 12  1  0
 12 13  1  0
 13 14  1  0
 14 15  1  0
 15 16  1  6
 15 17  1  0
 17 18  1  6
 17 20  1  0
 18 19  1  0
 20 21  1  0
 21 22  1  0
 22 23  1  0
M  END
