
     RDKit          3D

 24 26  0  0  0  0  0  0  0  0999 V2000
    2.6460   -1.8080   -0.3160 O   0  0  0  0  0  0  0  0  0  0  0  0
    3.6010   -1.0390   -0.7080 C   0  0  0  0  0  0  0  0  0  0  0  0
    4.9540   -1.5760   -0.4450 C   0  0  0  0  0  0  0  0  0  0  0  0
    5.9490   -0.6550   -0.9180 N   0  0  0  0  0  0  0  0  0  0  0  0
    6.0900    0.4310    0.0250 C   0  0  2  0  0  0  0  0  0  0  0  0
    6.5760    1.7530   -0.5020 C   0  0  0  0  0  0  0  0  0  0  0  0
    7.4850    0.9210    0.2880 C   0  0  0  0  0  0  0  0  0  0  0  0
    3.2990    0.1890   -1.3230 N   0  0  0  0  0  0  0  0  0  0  0  0
    2.0350    0.6240   -1.5390 N   0  0  0  0  0  0  0  0  0  0  0  0
    0.9150    0.5650   -0.2750 S   0  0  2  0  0  0  0  0  0  0  0  0
    0.3470    1.9770   -0.1390 O   0  0  0  0  0  0  0  0  0  0  0  0
    1.6390    0.2320    1.0040 O   0  0  0  0  0  0  0  0  0  0  0  0
   -0.3840   -0.5980   -0.4690 C   0  0  0  0  0  0  0  0  0  0  0  0
   -1.3260   -0.6080    0.7020 C   0  0  1  0  0  0  0  0  0  0  0  0
   -2.0250    0.6820    0.9770 C   0  0  0  0  0  0  0  0  0  0  0  0
   -3.0430    0.9710   -0.1200 C   0  0  0  0  0  0  0  0  0  0  0  0
   -4.1190   -0.0350    0.0710 C   0  0  0  0  0  0  0  0  0  0  0  0
   -5.3410    0.1480   -0.4230 C   0  0  0  0  0  0  0  0  0  0  0  0
   -6.4630   -0.7730   -0.2930 C   0  0  0  0  0  0  0  0  0  0  0  0
   -7.5870   -0.1030   -0.5590 C   0  0  0  0  0  0  0  0  0  0  0  0
   -7.2890    1.2370   -0.8660 N   0  0  0  0  0  0  0  0  0  0  0  0
   -5.8650    1.2920   -1.2050 C   0  0  0  0  0  0  0  0  0  0  0  0
   -3.7610   -1.2540    0.8420 C   0  0  0  0  0  0  0  0  0  0  0  0
   -2.3500   -1.7160    0.5910 C   0  0  0  0  0  0  0  0  0  0  0  0
  1  2  2  0
  2  3  1  0
  2  8  1  0
  3  4  1  0
  5  4  1  6
  5  6  1  0
  5  7  1  0
  6  7  1  0
  8  9  1  0
  9 10  1  0
 10 11  2  0
 10 12  2  0
 10 13  1  6
 14 13  1  6
 14 15  1  0
 14 24  1  0
 15 16  1  0
 16 17  1  0
 17 18  2  3
 17 23  1  0
 18 19  1  0
 18 22  1  0
 19 20  2  0
 20 21  1  0
 21 22  1  0
 23 24  1  0
M  CHG  1   4   1
M  END
