
     RDKit          3D

 24 25  0  0  0  0  0  0  0  0999 V2000
   -3.9150   -2.7050    0.3040 C   0  0  0  0  0  0  0  0  0  0  0  0
   -2.5790   -2.7220   -0.4110 C   0  0  0  0  0  0  0  0  0  0  0  0
   -1.7410   -1.6240    0.1820 C   0  0  0  0  0  0  0  0  0  0  0  0
   -0.5920   -1.8240    0.7750 C   0  0  0  0  0  0  0  0  0  0  0  0
    0.1730   -0.7210    1.3430 C   0  0  1  0  0  0  0  0  0  0  0  0
    1.6030   -0.9820    1.5440 C   0  0  0  0  0  0  0  0  0  0  0  0
    2.2030   -0.2380    2.3830 O   0  0  0  0  0  0  0  0  0  0  0  0
    2.3900   -1.9750    0.9100 N   0  0  0  0  0  0  0  0  0  0  0  0
    2.4950   -2.2730   -0.4510 C   0  0  0  0  0  0  0  0  0  0  0  0
    2.1620   -3.4690   -0.8140 O   0  0  0  0  0  0  0  0  0  0  0  0
    2.9280   -1.4190   -1.5010 N   0  0  0  0  0  0  0  0  0  0  0  0
    4.0450   -0.5750   -1.4780 C   0  0  0  0  0  0  0  0  0  0  0  0
    4.4250   -0.0360   -2.5710 O   0  0  0  0  0  0  0  0  0  0  0  0
    4.8460   -0.2400   -0.2740 C   0  0  0  0  0  0  0  0  0  0  0  0
    4.1810    1.3570    0.3460 S   0  0  0  0  0  0  0  0  0  0  0  0
    2.4960    1.5370   -0.2770 C   0  0  0  0  0  0  0  0  0  0  0  0
    1.6720    2.2480    0.7030 C   0  0  0  0  0  0  0  0  0  0  0  0
    0.5240    1.8640    1.2320 C   0  0  0  0  0  0  0  0  0  0  0  0
   -0.2370    0.6350    1.0020 C   0  0  0  0  0  0  0  0  0  0  0  0
   -1.4280    0.8030    0.3960 C   0  0  0  0  0  0  0  0  0  0  0  0
   -1.9320    2.1820    0.0290 C   0  0  0  0  0  0  0  0  0  0  0  0
   -2.1250    2.2190   -1.4050 N   0  0  0  0  0  0  0  0  0  0  0  0
   -3.1590    3.1490   -1.7570 C   0  0  0  0  0  0  0  0  0  0  0  0
   -2.2050   -0.3050   -0.0250 N   0  0  0  0  0  0  0  0  0  0  0  0
  1  2  1  0
  2  3  1  0
  3  4  2  0
  3 24  1  0
  5  4  1  6
  5  6  1  0
  5 19  1  0
  6  7  2  0
  6  8  1  0
  8  9  1  0
  9 10  2  0
  9 11  1  0
 11 12  1  0
 12 13  2  0
 12 14  1  0
 14 15  1  0
 15 16  1  0
 16 17  1  0
 17 18  2  0
 18 19  1  0
 19 20  2  0
 20 21  1  0
 20 24  1  0
 21 22  1  0
 22 23  1  0
M  CHG  1  22   1
M  END
