
     RDKit          3D

 34 35  0  0  0  0  0  0  0  0999 V2000
    0.7040    4.5450   -1.7670 C   0  0  0  0  0  0  0  0  0  0  0  0
   -0.6580    5.1540   -1.7170 C   0  0  1  0  0  0  0  0  0  0  0  0
   -1.4110    4.9220   -2.9990 C   0  0  0  0  0  0  0  0  0  0  0  0
   -1.4520    4.7700   -0.4980 C   0  0  0  0  0  0  0  0  0  0  0  0
   -1.6350    3.2780   -0.4550 C   0  0  2  0  0  0  0  0  0  0  0  0
   -2.4180    2.8090    0.7330 C   0  0  0  0  0  0  0  0  0  0  0  0
   -2.6400    1.4870    0.6600 O   0  0  0  0  0  0  0  0  0  0  0  0
   -1.8360    0.6770   -0.1140 C   0  0  2  0  0  0  0  0  0  0  0  0
   -1.6050   -0.5650    0.6660 C   0  0  0  0  0  0  0  0  0  0  0  0
   -2.9580   -1.2470    0.9510 C   0  0  2  0  0  0  0  0  0  0  0  0
   -2.6810   -2.5050    1.7840 C   0  0  0  0  0  0  0  0  0  0  0  0
   -4.0150   -2.9850    2.3020 C   0  0  2  0  0  0  0  0  0  0  0  0
   -3.7860   -4.1280    3.0570 O   0  0  0  0  0  0  0  0  0  0  0  0
   -4.9400   -3.3590    1.1590 C   0  0  0  0  0  0  0  0  0  0  0  0
   -5.0260   -2.2980    0.1230 C   0  0  1  0  0  0  0  0  0  0  0  0
   -5.5790   -2.9350   -1.1460 C   0  0  0  0  0  0  0  0  0  0  0  0
   -5.9760   -1.1790    0.4890 C   0  0  0  0  0  0  0  0  0  0  0  0
   -3.6740   -1.6990   -0.2720 C   0  0  0  0  0  0  0  0  0  0  0  0
   -0.7420    1.2980   -0.8580 C   0  0  2  0  0  0  0  0  0  0  0  0
    0.5400    0.6340   -1.0780 C   0  0  0  0  0  0  0  0  0  0  0  0
    1.3350    0.3220    0.1380 C   0  0  0  0  0  0  0  0  0  0  0  0
    2.6580   -0.3590   -0.2130 C   0  0  0  0  0  0  0  0  0  0  0  0
    3.2870   -0.5940    0.9850 O   0  0  0  0  0  0  0  0  0  0  0  0
    4.6050   -1.2690    0.6520 C   0  0  1  0  0  0  0  0  0  0  0  0
    5.4670   -0.3760    1.2090 O   0  0  0  0  0  0  0  0  0  0  0  0
    5.9210    0.6750    0.5430 C   0  0  0  0  0  0  0  0  0  0  0  0
    6.7190    0.6860   -0.6920 C   0  0  0  0  0  0  0  0  0  0  0  0
    7.9490    0.1270   -0.7730 O   0  0  0  0  0  0  0  0  0  0  0  0
    8.3390   -1.1550   -0.7200 C   0  0  0  0  0  0  0  0  0  0  0  0
    7.4910   -2.0520   -0.5900 O   0  0  0  0  0  0  0  0  0  0  0  0
    4.4580   -2.5280    1.4130 C   0  0  2  0  0  0  0  0  0  0  0  0
    5.5900   -3.4850    1.4040 C   0  0  0  0  0  0  0  0  0  0  0  0
    3.3130   -3.1940    0.8880 O   0  0  0  0  0  0  0  0  0  0  0  0
   -0.4120    2.6060   -0.3460 O   0  0  0  0  0  0  0  0  0  0  0  0
  2  1  1  6
  2  3  1  0
  2  4  1  0
  5  4  1  1
  5  6  1  0
  5 34  1  0
  6  7  1  0
  7  8  1  0
  8  9  1  1
  8 19  1  0
 10  9  1  6
 10 11  1  0
 10 18  1  0
 11 12  1  0
 12 13  1  1
 12 14  1  0
 14 15  1  0
 15 16  1  6
 15 17  1  0
 15 18  1  0
 19 20  1  1
 19 34  1  0
 20 21  1  0
 21 22  1  0
 22 23  1  0
 24 23  1  1
 24 25  1  0
 24 31  1  0
 25 26  1  0
 26 27  1  0
 27 28  1  0
 28 29  1  0
 29 30  2  0
 31 32  1  6
 31 33  1  0
M  END
