
     RDKit          3D

 33 37  0  0  0  0  0  0  0  0999 V2000
    4.0530   -2.0690    0.0170 O   0  0  0  0  0  0  0  0  0  0  0  0
    2.9900   -1.4930    0.2930 C   0  0  0  0  0  0  0  0  0  0  0  0
    1.7360   -1.8020   -0.2800 N   0  0  0  0  0  0  0  0  0  0  0  0
    1.5360   -2.8010   -1.2340 C   0  0  0  0  0  0  0  0  0  0  0  0
    2.5220   -3.6020   -1.7320 C   0  0  0  0  0  0  0  0  0  0  0  0
    2.2320   -4.5750   -2.6830 C   0  0  0  0  0  0  0  0  0  0  0  0
    0.9590   -4.7370   -3.1270 C   0  0  0  0  0  0  0  0  0  0  0  0
   -0.0330   -3.9250   -2.6210 C   0  0  0  0  0  0  0  0  0  0  0  0
    0.2210   -2.9610   -1.6860 C   0  0  0  0  0  0  0  0  0  0  0  0
   -0.8270   -2.1650   -1.2080 O   0  0  0  0  0  0  0  0  0  0  0  0
   -1.1760   -0.9670   -1.8160 C   0  0  0  0  0  0  0  0  0  0  0  0
   -0.4980   -0.6360   -2.8210 O   0  0  0  0  0  0  0  0  0  0  0  0
   -2.2530   -0.0890   -1.3740 C   0  0  1  0  0  0  0  0  0  0  0  0
   -2.1280    0.3450    0.0690 C   0  0  0  0  0  0  0  0  0  0  0  0
   -3.0750    1.5280    0.2320 C   0  0  1  0  0  0  0  0  0  0  0  0
   -2.4210    2.7020   -0.4650 C   0  0  0  0  0  0  0  0  0  0  0  0
   -1.6960    2.1340   -1.6770 C   0  0  0  0  0  0  0  0  0  0  0  0
   -2.3450    1.0180   -2.1860 O   0  0  0  0  0  0  0  0  0  0  0  0
   -4.2300    1.2240   -0.4460 O   0  0  0  0  0  0  0  0  0  0  0  0
   -5.2920    1.6950    0.3520 C   0  0  0  0  0  0  0  0  0  0  0  0
   -4.7260    1.4600    1.7390 C   0  0  0  0  0  0  0  0  0  0  0  0
   -3.3780    1.7840    1.5450 O   0  0  0  0  0  0  0  0  0  0  0  0
    3.0900   -0.4110    1.2990 C   0  0  0  0  0  0  0  0  0  0  0  0
    2.9290   -0.7360    2.6140 C   0  0  0  0  0  0  0  0  0  0  0  0
    3.0150    0.2440    3.5800 C   0  0  0  0  0  0  0  0  0  0  0  0
    2.7960   -0.2720    5.2340 Cl  0  0  0  0  0  0  0  0  0  0  0  0
    3.2680    1.5960    3.2550 C   0  0  0  0  0  0  0  0  0  0  0  0
    3.4250    1.9100    1.9650 C   0  0  0  0  0  0  0  0  0  0  0  0
    3.3350    0.9000    0.9840 C   0  0  0  0  0  0  0  0  0  0  0  0
    3.5420    1.3150   -0.7120 Cl  0  0  0  0  0  0  0  0  0  0  0  0
    3.6910    3.3420    1.6610 C   0  0  0  0  0  0  0  0  0  0  0  0
    3.2420    4.0900    3.2560 S   0  0  0  0  0  0  0  0  0  0  0  0
    3.3650    2.6180    4.1820 O   0  0  0  0  0  0  0  0  0  0  0  0
  1  2  2  0
  2  3  1  0
  2 23  1  0
  3  4  1  0
  4  5  2  0
  4  9  1  0
  5  6  1  0
  6  7  2  0
  7  8  1  0
  8  9  2  0
  9 10  1  0
 10 11  1  0
 11 12  2  0
 13 11  1  6
 13 14  1  0
 13 18  1  0
 15 14  1  1
 15 16  1  0
 15 19  1  0
 15 22  1  0
 16 17  1  0
 17 18  1  0
 19 20  1  0
 20 21  1  0
 21 22  1  0
 23 24  2  0
 23 29  1  0
 24 25  1  0
 25 26  1  0
 25 27  2  0
 27 28  1  0
 27 33  1  0
 28 29  2  0
 28 31  1  0
 29 30  1  0
 31 32  1  0
 32 33  1  0
M  END
