
     RDKit          3D

 35 35  0  0  0  0  0  0  0  0999 V2000
    6.9020   -0.2240   -3.2480 C   0  0  0  0  0  0  0  0  0  0  0  0
    6.9110   -1.0240   -1.9800 C   0  0  1  0  0  0  0  0  0  0  0  0
    6.3210   -2.4010   -2.2650 C   0  0  0  0  0  0  0  0  0  0  0  0
    8.3780   -1.2020   -1.5960 C   0  0  0  0  0  0  0  0  0  0  0  0
    6.1700   -0.4620   -0.9690 O   0  0  0  0  0  0  0  0  0  0  0  0
    6.6050    0.7990   -0.5840 C   0  0  0  0  0  0  0  0  0  0  0  0
    5.7110    1.3180    0.5270 C   0  0  0  0  0  0  0  0  0  0  0  0
    4.3030    1.4210    0.0530 C   0  0  0  0  0  0  0  0  0  0  0  0
    3.7000    0.2690   -0.3500 O   0  0  0  0  0  0  0  0  0  0  0  0
    3.5380   -0.7200    0.5710 C   0  0  0  0  0  0  0  0  0  0  0  0
    2.6600   -0.2600    1.7760 C   0  0  0  0  0  0  0  0  0  0  0  0
    1.5250    0.0930    1.4270 O   0  0  0  0  0  0  0  0  0  0  0  0
    0.3640    0.3670    1.0390 C   0  0  2  0  0  0  0  0  0  0  0  0
    0.2560    1.5780    0.1500 C   0  0  0  0  0  0  0  0  0  0  0  0
   -0.0990    2.8530    0.7740 C   0  0  2  0  0  0  0  0  0  0  0  0
    1.1440    3.7660    0.8410 C   0  0  0  0  0  0  0  0  0  0  0  0
    0.6780    4.9500    1.4530 O   0  0  0  0  0  0  0  0  0  0  0  0
   -0.7200    2.8860    2.1130 C   0  0  0  0  0  0  0  0  0  0  0  0
   -0.5190    1.6820    2.9800 C   0  0  0  0  0  0  0  0  0  0  0  0
   -0.6590    0.4350    2.1810 C   0  0  1  0  0  0  0  0  0  0  0  0
   -1.9660    0.2780    1.7310 O   0  0  0  0  0  0  0  0  0  0  0  0
   -2.8220   -0.7630    2.0230 C   0  0  0  0  0  0  0  0  0  0  0  0
   -2.3850   -1.6430    2.7580 O   0  0  0  0  0  0  0  0  0  0  0  0
   -4.1840   -0.6950    1.4110 C   0  0  2  0  0  0  0  0  0  0  0  0
   -4.8830   -1.9710    1.7420 C   0  0  0  0  0  0  0  0  0  0  0  0
   -4.2280   -3.2080    1.2180 C   0  0  0  0  0  0  0  0  0  0  0  0
   -5.1170   -4.3840    1.6630 C   0  0  0  0  0  0  0  0  0  0  0  0
   -6.3870   -4.2190    1.1250 O   0  0  0  0  0  0  0  0  0  0  0  0
   -4.1410   -0.3290   -0.0190 C   0  0  0  0  0  0  0  0  0  0  0  0
   -5.5130   -0.2570   -0.6280 C   0  0  2  0  0  0  0  0  0  0  0  0
   -6.4240    0.7550    0.0050 C   0  0  0  0  0  0  0  0  0  0  0  0
   -6.1600   -1.5120   -0.6660 O   0  0  0  0  0  0  0  0  0  0  0  0
   -5.4000    0.1350   -2.1180 C   0  0  0  0  0  0  0  0  0  0  0  0
   -6.7760    0.1870   -2.7040 C   0  0  0  0  0  0  0  0  0  0  0  0
   -6.7150    0.5420   -4.0730 O   0  0  0  0  0  0  0  0  0  0  0  0
  2  1  1  6
  2  3  1  0
  2  4  1  0
  2  5  1  0
  5  6  1  0
  6  7  1  0
  7  8  1  0
  8  9  1  0
  9 10  1  0
 10 11  1  0
 11 12  1  0
 13 12  1  1
 13 14  1  0
 13 20  1  0
 14 15  1  0
 15 16  1  1
 15 18  1  0
 16 17  1  0
 18 19  1  0
 19 20  1  0
 20 21  1  6
 21 22  1  0
 22 23  2  0
 22 24  1  0
 24 25  1  6
 24 29  1  0
 25 26  1  0
 26 27  1  0
 27 28  1  0
 29 30  1  0
 30 31  1  1
 30 32  1  0
 30 33  1  0
 33 34  1  0
 34 35  1  0
M  END
