
     RDKit          3D

 37 41  0  0  0  0  0  0  0  0999 V2000
    5.5990    2.0150    1.2590 C   0  0  0  0  0  0  0  0  0  0  0  0
    5.2400    1.6880    0.0500 C   0  0  0  0  0  0  0  0  0  0  0  0
    6.0660    2.1910   -1.1190 C   0  0  0  0  0  0  0  0  0  0  0  0
    4.1140    0.8580   -0.2750 C   0  0  0  0  0  0  0  0  0  0  0  0
    3.0070    1.3610   -0.9120 C   0  0  0  0  0  0  0  0  0  0  0  0
    1.9720    0.5330   -1.2730 C   0  0  0  0  0  0  0  0  0  0  0  0
    1.9980   -0.8100   -1.0130 C   0  0  0  0  0  0  0  0  0  0  0  0
    0.7270   -1.5900   -1.2090 C   0  0  0  0  0  0  0  0  0  0  0  0
   -0.3670   -0.7770   -0.6080 N   0  0  0  0  0  0  0  0  0  0  0  0
   -0.0980   -0.3010    0.6730 C   0  0  0  0  0  0  0  0  0  0  0  0
   -0.4380    1.0860    1.0440 C   0  0  0  0  0  0  0  0  0  0  0  0
   -1.6080    1.7240    0.5650 N   0  0  0  0  0  0  0  0  0  0  0  0
   -2.6180    1.3450   -0.2440 C   0  0  0  0  0  0  0  0  0  0  0  0
   -3.6670    2.1100   -0.5740 N   0  0  0  0  0  0  0  0  0  0  0  0
   -3.7750    3.3550   -0.0910 C   0  0  0  0  0  0  0  0  0  0  0  0
   -2.7720    3.7830    0.7350 C   0  0  0  0  0  0  0  0  0  0  0  0
   -3.1250    5.0770    1.1090 C   0  0  0  0  0  0  0  0  0  0  0  0
   -4.2770    5.3480    0.5130 N   0  0  0  0  0  0  0  0  0  0  0  0
   -4.6750    4.3200   -0.2160 N   0  0  0  0  0  0  0  0  0  0  0  0
   -5.9050    4.2420   -1.0080 C   0  0  0  0  0  0  0  0  0  0  0  0
   -1.6870    2.9960    1.0740 C   0  0  0  0  0  0  0  0  0  0  0  0
   -0.7850    3.4180    1.8300 O   0  0  0  0  0  0  0  0  0  0  0  0
   -2.5930    0.0020   -0.9250 C   0  0  2  0  0  0  0  0  0  0  0  0
   -3.0130   -1.0430    0.0440 C   0  0  0  0  0  0  0  0  0  0  0  0
   -4.3950   -0.8610    0.4640 N   0  0  0  0  0  0  0  0  0  0  0  0
   -5.2040   -1.9570   -0.0610 C   0  0  2  0  0  0  0  0  0  0  0  0
   -6.3800   -2.2820    0.8450 C   0  0  0  0  0  0  0  0  0  0  0  0
   -6.7910   -3.6420    0.2910 C   0  0  0  0  0  0  0  0  0  0  0  0
   -5.4690   -4.3430    0.1810 C   0  0  0  0  0  0  0  0  0  0  0  0
   -4.4180   -3.2650   -0.0080 C   0  0  0  0  0  0  0  0  0  0  0  0
   -1.2000   -0.1230   -1.4950 C   0  0  0  0  0  0  0  0  0  0  0  0
    3.1070   -1.3450   -0.3760 C   0  0  0  0  0  0  0  0  0  0  0  0
    4.1470   -0.5150   -0.0120 C   0  0  0  0  0  0  0  0  0  0  0  0
    5.2590   -1.0010    0.8060 C   0  0  0  0  0  0  0  0  0  0  0  0
    6.2990   -1.7640    0.1180 N   0  0  0  0  0  0  0  0  0  0  0  0
    7.5800   -1.4730    0.8110 C   0  0  0  0  0  0  0  0  0  0  0  0
    8.6540   -1.4160   -0.2290 C   0  0  0  0  0  0  0  0  0  0  0  0
  1  2  2  0
  2  3  1  0
  2  4  1  0
  4  5  2  0
  4 33  1  0
  5  6  1  0
  6  7  2  0
  7  8  1  0
  7 32  1  0
  8  9  1  0
  9 10  1  0
  9 31  1  0
 10 11  1  0
 11 12  1  0
 12 13  1  0
 12 21  1  0
 13 14  2  0
 13 23  1  0
 14 15  1  0
 15 16  2  0
 15 19  1  0
 16 17  1  0
 16 21  1  0
 17 18  2  0
 18 19  1  0
 19 20  1  0
 21 22  2  0
 23 24  1  1
 23 31  1  0
 24 25  1  0
 26 25  1  1
 26 27  1  0
 26 30  1  0
 27 28  1  0
 28 29  1  0
 29 30  1  0
 32 33  2  0
 33 34  1  0
 34 35  1  0
 35 36  1  0
 36 37  1  0
M  CHG  2  25   1  35   1
M  END
