
     RDKit          3D

 37 41  0  0  0  0  0  0  0  0999 V2000
    8.3240   -0.6780   -1.7370 C   0  0  0  0  0  0  0  0  0  0  0  0
    6.9910   -0.1450   -1.5600 N   0  0  0  0  0  0  0  0  0  0  0  0
    5.8880   -1.0300   -1.3670 C   0  0  0  0  0  0  0  0  0  0  0  0
    6.1070   -2.2580   -1.3530 O   0  0  0  0  0  0  0  0  0  0  0  0
    4.5130   -0.4650   -1.1870 C   0  0  2  0  0  0  0  0  0  0  0  0
    4.4400    0.4820   -0.0040 C   0  0  0  0  0  0  0  0  0  0  0  0
    3.0220    1.0780   -0.0450 C   0  0  0  0  0  0  0  0  0  0  0  0
    2.1330   -0.0200    0.2580 N   0  0  0  0  0  0  0  0  0  0  0  0
    1.2520    0.0870    1.3640 C   0  0  0  0  0  0  0  0  0  0  0  0
    1.7700   -0.1010    2.6130 N   0  0  0  0  0  0  0  0  0  0  0  0
    0.9390   -0.0120    3.6430 C   0  0  0  0  0  0  0  0  0  0  0  0
   -0.3990    0.2560    3.5410 C   0  0  0  0  0  0  0  0  0  0  0  0
   -0.9530    0.4520    2.2830 C   0  0  0  0  0  0  0  0  0  0  0  0
   -0.1040    0.3630    1.1920 C   0  0  0  0  0  0  0  0  0  0  0  0
   -0.5770    0.5510   -0.2010 C   0  0  2  0  0  0  0  0  0  0  0  0
   -1.5010    1.7360   -0.2780 C   0  0  0  0  0  0  0  0  0  0  0  0
   -1.4690    2.5350   -1.3000 C   0  0  0  0  0  0  0  0  0  0  0  0
   -2.3490    3.6800   -1.3880 C   0  0  0  0  0  0  0  0  0  0  0  0
   -2.2410    4.5040   -2.5220 C   0  0  0  0  0  0  0  0  0  0  0  0
   -3.0770    5.5850   -2.5950 C   0  0  0  0  0  0  0  0  0  0  0  0
   -4.0160    5.9130   -1.6250 C   0  0  0  0  0  0  0  0  0  0  0  0
   -4.8640    7.1130   -1.8220 C   0  0  0  0  0  0  0  0  0  0  0  0
   -4.0860    5.0950   -0.5510 C   0  0  0  0  0  0  0  0  0  0  0  0
   -3.2660    3.9950   -0.4330 C   0  0  0  0  0  0  0  0  0  0  0  0
   -1.2430   -0.5970   -0.7560 N   0  0  0  0  0  0  0  0  0  0  0  0
   -1.7640   -1.5200    0.2250 C   0  0  0  0  0  0  0  0  0  0  0  0
   -2.0220   -2.8570   -0.3670 C   0  0  0  0  0  0  0  0  0  0  0  0
   -1.7800   -3.3780   -1.5520 N   0  0  0  0  0  0  0  0  0  0  0  0
   -2.1800   -4.6350   -1.6260 N   0  0  0  0  0  0  0  0  0  0  0  0
   -2.7140   -4.9380   -0.4080 C   0  0  0  0  0  0  0  0  0  0  0  0
   -2.6270   -3.8740    0.3710 N   0  0  0  0  0  0  0  0  0  0  0  0
   -3.0620   -3.8820    1.7350 C   0  0  0  0  0  0  0  0  0  0  0  0
   -3.8010   -5.0540    2.1870 C   0  0  0  0  0  0  0  0  0  0  0  0
   -3.8600   -6.2060    1.3020 C   0  0  0  0  0  0  0  0  0  0  0  0
   -3.3470   -6.1430    0.0750 C   0  0  0  0  0  0  0  0  0  0  0  0
    2.1880   -1.1800   -0.5980 C   0  0  0  0  0  0  0  0  0  0  0  0
    3.6000   -1.6370   -0.8850 C   0  0  0  0  0  0  0  0  0  0  0  0
  1  2  1  0
  2  3  1  0
  3  4  2  0
  5  3  1  1
  5  6  1  0
  5 37  1  0
  6  7  1  0
  7  8  1  0
  8  9  1  0
  8 36  1  0
  9 10  2  0
  9 14  1  0
 10 11  1  0
 11 12  2  0
 12 13  1  0
 13 14  2  0
 14 15  1  0
 15 16  1  0
 15 25  1  1
 16 17  2  3
 17 18  1  0
 18 19  2  0
 18 24  1  0
 19 20  1  0
 20 21  2  0
 21 22  1  0
 21 23  1  0
 23 24  2  0
 25 26  1  0
 26 27  1  0
 27 28  2  0
 27 31  1  0
 28 29  1  0
 29 30  2  0
 30 31  1  0
 30 35  1  0
 31 32  1  0
 32 33  1  0
 33 34  1  0
 34 35  2  0
 36 37  1  0
M  CHG  2  10   1  25   1
M  END
