
     RDKit          3D

 37 41  0  0  0  0  0  0  0  0999 V2000
    8.8350    2.4360   -0.6180 C   0  0  0  0  0  0  0  0  0  0  0  0
    7.7190    1.8370   -1.0100 C   0  0  0  0  0  0  0  0  0  0  0  0
    7.2410    0.5910   -0.3060 C   0  0  0  0  0  0  0  0  0  0  0  0
    5.9340    0.8130    0.2590 N   0  0  0  0  0  0  0  0  0  0  0  0
    4.8650    1.1480   -0.6200 C   0  0  0  0  0  0  0  0  0  0  0  0
    5.0890    1.2380   -1.8480 O   0  0  0  0  0  0  0  0  0  0  0  0
    3.5460    1.3840   -0.1500 N   0  0  0  0  0  0  0  0  0  0  0  0
    3.3320    1.2710    1.2810 C   0  0  0  0  0  0  0  0  0  0  0  0
    1.8840    1.5310    1.5630 C   0  0  0  0  0  0  0  0  0  0  0  0
    1.1120    0.7170    0.6460 N   0  0  0  0  0  0  0  0  0  0  0  0
    0.3280   -0.4170    1.0700 C   0  0  0  0  0  0  0  0  0  0  0  0
    0.9520   -1.6830    1.2340 N   0  0  0  0  0  0  0  0  0  0  0  0
    0.3870   -2.8350    0.6760 C   0  0  0  0  0  0  0  0  0  0  0  0
   -0.6610   -2.8060   -0.2000 C   0  0  0  0  0  0  0  0  0  0  0  0
   -1.2230   -3.9240   -0.7910 C   0  0  0  0  0  0  0  0  0  0  0  0
   -0.7130   -5.1620   -0.4970 C   0  0  0  0  0  0  0  0  0  0  0  0
    0.3540   -5.2500    0.3870 C   0  0  0  0  0  0  0  0  0  0  0  0
    0.8440   -6.5170    0.6640 C   0  0  0  0  0  0  0  0  0  0  0  0
    1.9000   -6.6720    1.5360 C   0  0  0  0  0  0  0  0  0  0  0  0
    2.4470   -5.5710    2.1130 C   0  0  0  0  0  0  0  0  0  0  0  0
    1.9470   -4.3030    1.8270 C   0  0  0  0  0  0  0  0  0  0  0  0
    0.8950   -4.1090    0.9630 C   0  0  0  0  0  0  0  0  0  0  0  0
   -0.9090   -0.2910    1.3060 N   0  0  0  0  0  0  0  0  0  0  0  0
   -1.6370    0.9640    1.1750 C   0  0  0  0  0  0  0  0  0  0  0  0
   -2.6330    0.8700    0.0610 C   0  0  0  0  0  0  0  0  0  0  0  0
   -3.4090    2.0680   -0.1460 N   0  0  0  0  0  0  0  0  0  0  0  0
   -4.3180    2.3550    0.9210 C   0  0  0  0  0  0  0  0  0  0  0  0
   -5.6500    1.6500    0.7530 C   0  0  0  0  0  0  0  0  0  0  0  0
   -6.2310    2.0920   -0.5390 C   0  0  0  0  0  0  0  0  0  0  0  0
   -7.5780    2.3250   -0.6880 C   0  0  0  0  0  0  0  0  0  0  0  0
   -8.0980    2.7400   -1.8930 C   0  0  0  0  0  0  0  0  0  0  0  0
   -7.2270    2.9000   -2.9000 N   0  0  0  0  0  0  0  0  0  0  0  0
   -5.9110    2.6860   -2.8070 C   0  0  0  0  0  0  0  0  0  0  0  0
   -5.3850    2.2700   -1.5980 C   0  0  0  0  0  0  0  0  0  0  0  0
   -3.9530    2.0190   -1.4540 C   0  0  0  0  0  0  0  0  0  0  0  0
    1.1790    1.1140   -0.7530 C   0  0  0  0  0  0  0  0  0  0  0  0
    2.5240    1.7090   -1.0930 C   0  0  0  0  0  0  0  0  0  0  0  0
  1  2  2  0
  2  3  1  0
  3  4  1  0
  4  5  1  0
  5  6  2  0
  5  7  1  0
  7  8  1  0
  7 37  1  0
  8  9  1  0
  9 10  1  0
 10 11  1  0
 10 36  1  0
 11 12  1  0
 11 23  2  3
 12 13  1  0
 13 14  2  0
 13 22  1  0
 14 15  1  0
 15 16  2  0
 16 17  1  0
 17 18  2  0
 17 22  1  0
 18 19  1  0
 19 20  2  0
 20 21  1  0
 21 22  2  0
 23 24  1  0
 24 25  1  0
 25 26  1  0
 26 27  1  0
 26 35  1  0
 27 28  1  0
 28 29  1  0
 29 30  2  0
 29 34  1  0
 30 31  1  0
 31 32  2  0
 32 33  1  0
 33 34  2  0
 34 35  1  0
 36 37  1  0
M  CHG  2  23   1  32   1
M  END
