
     RDKit          3D

 37 41  0  0  0  0  0  0  0  0999 V2000
    9.7620   -2.8470   -1.1540 C   0  0  0  0  0  0  0  0  0  0  0  0
    9.4990   -1.9410    0.0450 C   0  0  1  0  0  0  0  0  0  0  0  0
   10.7840   -1.6180    0.7580 C   0  0  0  0  0  0  0  0  0  0  0  0
    8.8140   -0.6950   -0.3760 C   0  0  0  0  0  0  0  0  0  0  0  0
    7.5610   -0.4150    0.1220 C   0  0  0  0  0  0  0  0  0  0  0  0
    6.8760    0.7290   -0.2380 C   0  0  0  0  0  0  0  0  0  0  0  0
    5.5330    1.0160    0.3050 C   0  0  0  0  0  0  0  0  0  0  0  0
    4.9710    2.0560   -0.0580 O   0  0  0  0  0  0  0  0  0  0  0  0
    4.9470    0.0540    1.2390 C   0  0  0  0  0  0  0  0  0  0  0  0
    3.6320    0.4730    1.6290 N   0  0  0  0  0  0  0  0  0  0  0  0
    2.7390    0.3610    0.5180 C   0  0  0  0  0  0  0  0  0  0  0  0
    1.3420    0.7760    0.8840 C   0  0  0  0  0  0  0  0  0  0  0  0
    1.0220    1.2070    2.1540 C   0  0  0  0  0  0  0  0  0  0  0  0
   -0.2480    1.5670    2.4250 N   0  0  0  0  0  0  0  0  0  0  0  0
   -1.1990    1.5200    1.5150 N   0  0  0  0  0  0  0  0  0  0  0  0
   -0.9850    1.1160    0.2560 C   0  0  0  0  0  0  0  0  0  0  0  0
   -1.9650    1.0680   -0.7000 C   0  0  0  0  0  0  0  0  0  0  0  0
   -3.2950    1.4240   -0.4140 N   0  0  0  0  0  0  0  0  0  0  0  0
   -4.2460    1.5160   -1.5100 C   0  0  0  0  0  0  0  0  0  0  0  0
   -5.2990    0.4640   -1.3040 C   0  0  0  0  0  0  0  0  0  0  0  0
   -5.8720    0.4750    0.1120 C   0  0  1  0  0  0  0  0  0  0  0  0
   -5.3450    1.6800    0.8660 C   0  0  0  0  0  0  0  0  0  0  0  0
   -3.8230    1.7030    0.9010 C   0  0  0  0  0  0  0  0  0  0  0  0
   -7.3650    0.6160   -0.0140 C   0  0  0  0  0  0  0  0  0  0  0  0
   -8.0960   -0.6530   -0.2890 C   0  0  2  0  0  0  0  0  0  0  0  0
   -7.9540   -1.1140   -1.7270 C   0  0  0  0  0  0  0  0  0  0  0  0
   -9.5880   -0.3510   -0.1120 C   0  0  0  0  0  0  0  0  0  0  0  0
   -7.7270   -1.7070    0.6910 C   0  0  0  0  0  0  0  0  0  0  0  0
   -6.5020   -1.4010    1.5030 C   0  0  0  0  0  0  0  0  0  0  0  0
   -5.4630   -0.7280    0.7580 N   0  0  0  0  0  0  0  0  0  0  0  0
   -1.6260    0.6480   -1.9320 N   0  0  0  0  0  0  0  0  0  0  0  0
   -0.3790    0.2780   -2.2590 C   0  0  0  0  0  0  0  0  0  0  0  0
    0.6420    0.3100   -1.3290 C   0  0  0  0  0  0  0  0  0  0  0  0
    0.3300    0.7360   -0.0510 C   0  0  0  0  0  0  0  0  0  0  0  0
    7.4750    1.6000   -1.1170 C   0  0  0  0  0  0  0  0  0  0  0  0
    8.7280    1.2750   -1.5860 C   0  0  0  0  0  0  0  0  0  0  0  0
    9.3930    0.1540   -1.2310 N   0  0  0  0  0  0  0  0  0  0  0  0
  2  1  1  6
  2  3  1  0
  2  4  1  0
  4  5  2  0
  4 37  1  0
  5  6  1  0
  6  7  1  0
  6 35  2  0
  7  8  2  0
  7  9  1  0
  9 10  1  0
 10 11  1  0
 11 12  1  0
 12 13  2  0
 12 34  1  0
 13 14  1  0
 14 15  2  0
 15 16  1  0
 16 17  2  0
 16 34  1  0
 17 18  1  0
 17 31  1  0
 18 19  1  0
 18 23  1  0
 19 20  1  0
 21 20  1  6
 21 22  1  0
 21 24  1  0
 21 30  1  0
 22 23  1  0
 24 25  1  0
 25 26  1  6
 25 27  1  0
 25 28  1  0
 28 29  1  0
 29 30  1  0
 31 32  2  0
 32 33  1  0
 33 34  2  0
 35 36  1  0
 36 37  2  0
M  CHG  2  30   1  37   1
M  END
