
     RDKit          3D

 37 41  0  0  0  0  0  0  0  0999 V2000
   -5.8130    3.8070    1.6470 C   0  0  0  0  0  0  0  0  0  0  0  0
   -4.6300    3.2670    2.0840 O   0  0  0  0  0  0  0  0  0  0  0  0
   -3.4890    3.8600    1.5730 C   0  0  0  0  0  0  0  0  0  0  0  0
   -3.3800    3.7940    0.0720 C   0  0  0  0  0  0  0  0  0  0  0  0
   -3.3650    2.4220   -0.3590 N   0  0  0  0  0  0  0  0  0  0  0  0
   -2.1220    1.8530   -0.4060 C   0  0  0  0  0  0  0  0  0  0  0  0
   -0.6070    2.5790   -0.0160 S   0  0  0  0  0  0  0  0  0  0  0  0
    0.4090    1.1030   -0.3750 C   0  0  0  0  0  0  0  0  0  0  0  0
    1.7740    1.1850   -0.1820 N   0  0  0  0  0  0  0  0  0  0  0  0
    2.8140    0.3580   -0.5830 C   0  0  0  0  0  0  0  0  0  0  0  0
    2.6940   -0.6620   -1.2780 O   0  0  0  0  0  0  0  0  0  0  0  0
    4.1860    0.6410   -0.1990 N   0  0  0  0  0  0  0  0  0  0  0  0
    5.2670   -0.2370   -0.6270 C   0  0  0  0  0  0  0  0  0  0  0  0
    6.5520    0.3320   -0.0650 C   0  0  2  0  0  0  0  0  0  0  0  0
    7.7470   -0.5160   -0.4570 C   0  0  0  0  0  0  0  0  0  0  0  0
    7.8160   -1.6630    0.9730 S   0  0  0  0  0  0  0  0  0  0  0  0
    6.6140   -0.7920    2.0520 C   0  0  0  0  0  0  0  0  0  0  0  0
    6.5310    0.4820    1.3470 N   0  0  0  0  0  0  0  0  0  0  0  0
    6.4280    1.8590    1.6700 C   0  0  0  0  0  0  0  0  0  0  0  0
    6.2180    2.3790    2.7980 O   0  0  0  0  0  0  0  0  0  0  0  0
    6.6020    2.6200    0.4890 N   0  0  0  0  0  0  0  0  0  0  0  0
    6.8140    1.7010   -0.5670 C   0  0  0  0  0  0  0  0  0  0  0  0
    7.1720    1.9950   -1.7610 O   0  0  0  0  0  0  0  0  0  0  0  0
   -0.5750    0.2270   -0.7520 C   0  0  0  0  0  0  0  0  0  0  0  0
   -1.8280    0.5670   -0.7800 N   0  0  0  0  0  0  0  0  0  0  0  0
   -2.8550   -0.3800   -1.2060 C   0  0  0  0  0  0  0  0  0  0  0  0
   -3.8770    0.0520   -1.7360 O   0  0  0  0  0  0  0  0  0  0  0  0
   -2.6710   -1.8510   -1.0050 C   0  0  2  0  0  0  0  0  0  0  0  0
   -3.5270   -2.5250   -1.9490 N   0  0  0  0  0  0  0  0  0  0  0  0
   -4.8810   -2.6730   -1.4990 C   0  0  0  0  0  0  0  0  0  0  0  0
   -5.0370   -4.0310   -0.8490 C   0  0  0  0  0  0  0  0  0  0  0  0
   -4.5580   -3.9590    0.5810 C   0  0  0  0  0  0  0  0  0  0  0  0
   -3.1060   -3.5870    0.5920 C   0  0  0  0  0  0  0  0  0  0  0  0
   -2.9010   -2.1840    0.3640 N   0  0  0  0  0  0  0  0  0  0  0  0
   -1.2600   -2.1470   -1.3980 C   0  0  0  0  0  0  0  0  0  0  0  0
   -0.9580   -3.2110   -1.9910 O   0  0  0  0  0  0  0  0  0  0  0  0
   -0.2850   -1.1730   -1.0690 N   0  0  0  0  0  0  0  0  0  0  0  0
  1  2  1  0
  2  3  1  0
  3  4  1  0
  4  5  1  0
  5  6  2  3
  6  7  1  0
  6 25  1  0
  7  8  1  0
  8  9  1  0
  8 24  2  0
  9 10  1  0
 10 11  2  0
 10 12  1  0
 12 13  1  0
 14 13  1  6
 14 15  1  0
 14 18  1  0
 14 22  1  0
 15 16  1  0
 16 17  1  0
 17 18  1  0
 18 19  1  0
 19 20  2  0
 19 21  1  0
 21 22  1  0
 22 23  2  0
 24 25  1  0
 24 37  1  0
 25 26  1  0
 26 27  2  0
 26 28  1  0
 28 29  1  6
 28 34  1  0
 28 35  1  0
 29 30  1  0
 30 31  1  0
 31 32  1  0
 32 33  1  0
 33 34  1  0
 35 36  2  0
 35 37  1  0
M  CHG  1  34   1
M  END
