
     RDKit          3D

 37 41  0  0  0  0  0  0  0  0999 V2000
   -7.5380   -3.3540    0.1170 C   0  0  0  0  0  0  0  0  0  0  0  0
   -7.0950   -1.9360    0.1840 C   0  0  0  0  0  0  0  0  0  0  0  0
   -5.8050   -1.6040    0.4100 N   0  0  0  0  0  0  0  0  0  0  0  0
   -5.3780   -0.3320    0.4760 C   0  0  0  0  0  0  0  0  0  0  0  0
   -3.9490   -0.0060    0.7260 C   0  0  0  0  0  0  0  0  0  0  0  0
   -3.2430    0.0880   -0.5960 C   0  0  0  0  0  0  0  0  0  0  0  0
   -1.8350    0.4060   -0.4110 N   0  0  0  0  0  0  0  0  0  0  0  0
   -0.9080   -0.5580   -0.2820 C   0  0  0  0  0  0  0  0  0  0  0  0
   -1.2850   -1.7670   -0.3250 O   0  0  0  0  0  0  0  0  0  0  0  0
    0.4560   -0.2940   -0.1010 C   0  0  0  0  0  0  0  0  0  0  0  0
    1.3490   -1.3780    0.0590 N   0  0  0  0  0  0  0  0  0  0  0  0
    2.7410   -1.2000    0.1900 C   0  0  0  0  0  0  0  0  0  0  0  0
    3.5150   -0.3720   -0.5540 C   0  0  0  0  0  0  0  0  0  0  0  0
    4.8890   -0.2240   -0.3360 C   0  0  0  0  0  0  0  0  0  0  0  0
    5.5110   -0.9220    0.6520 C   0  0  0  0  0  0  0  0  0  0  0  0
    6.8800   -0.8340    0.9630 N   0  0  0  0  0  0  0  0  0  0  0  0
    7.7160    0.1870    0.4370 C   0  0  0  0  0  0  0  0  0  0  0  0
    7.2710    1.3940    0.4570 N   0  0  0  0  0  0  0  0  0  0  0  0
    9.0760   -0.1280   -0.1110 C   0  0  1  0  0  0  0  0  0  0  0  0
    9.9590   -0.7580    0.9420 C   0  0  0  0  0  0  0  0  0  0  0  0
    9.0200   -0.9590   -1.3580 C   0  0  0  0  0  0  0  0  0  0  0  0
    4.7330   -1.7860    1.4340 C   0  0  0  0  0  0  0  0  0  0  0  0
    3.3810   -1.9200    1.2060 C   0  0  0  0  0  0  0  0  0  0  0  0
    0.7790    0.9970   -0.0650 N   0  0  0  0  0  0  0  0  0  0  0  0
   -0.1270    2.0080   -0.1920 C   0  0  0  0  0  0  0  0  0  0  0  0
    0.2930    3.3160   -0.1410 C   0  0  0  0  0  0  0  0  0  0  0  0
   -0.6070    4.3490   -0.2660 C   0  0  0  0  0  0  0  0  0  0  0  0
   -1.9630    4.0460   -0.4450 C   0  0  0  0  0  0  0  0  0  0  0  0
   -2.3750    2.7160   -0.4950 C   0  0  0  0  0  0  0  0  0  0  0  0
   -1.4640    1.6920   -0.3690 C   0  0  0  0  0  0  0  0  0  0  0  0
   -6.2970    0.6360    0.3060 N   0  0  0  0  0  0  0  0  0  0  0  0
   -7.5900    0.3840    0.0800 C   0  0  0  0  0  0  0  0  0  0  0  0
   -8.4980    1.3890   -0.0880 C   0  0  0  0  0  0  0  0  0  0  0  0
   -9.8290    1.0920   -0.3210 C   0  0  0  0  0  0  0  0  0  0  0  0
  -10.2690   -0.2310   -0.3890 C   0  0  0  0  0  0  0  0  0  0  0  0
   -9.3440   -1.2380   -0.2180 C   0  0  0  0  0  0  0  0  0  0  0  0
   -8.0140   -0.9150    0.0150 C   0  0  0  0  0  0  0  0  0  0  0  0
  1  2  1  0
  2  3  2  0
  2 37  1  0
  3  4  1  0
  4  5  1  0
  4 31  2  0
  5  6  1  0
  6  7  1  0
  7  8  1  0
  7 30  1  0
  8  9  2  0
  8 10  1  0
 10 11  1  0
 10 24  2  0
 11 12  1  0
 12 13  2  0
 12 23  1  0
 13 14  1  0
 14 15  2  0
 15 16  1  0
 15 22  1  0
 16 17  1  0
 17 18  2  0
 17 19  1  0
 19 20  1  1
 19 21  1  0
 22 23  2  0
 24 25  1  0
 25 26  2  0
 25 30  1  0
 26 27  1  0
 27 28  2  0
 28 29  1  0
 29 30  2  0
 31 32  1  0
 32 33  2  0
 32 37  1  0
 33 34  1  0
 34 35  2  0
 35 36  1  0
 36 37  2  0
M  CHG  2  18   1  24   1
M  END
