
     RDKit          3D

 37 40  0  0  0  0  0  0  0  0999 V2000
    3.5520    4.1850   -1.4590 C   0  0  0  0  0  0  0  0  0  0  0  0
    4.9870    3.7490   -1.4700 C   0  0  0  0  0  0  0  0  0  0  0  0
    5.8470    4.3300   -2.2320 N   0  0  0  0  0  0  0  0  0  0  0  0
    7.2100    3.9190   -2.2560 C   0  0  1  0  0  0  0  0  0  0  0  0
    8.1600    4.9820   -2.3620 N   0  0  0  0  0  0  0  0  0  0  0  0
    9.2830    4.2610   -1.8580 O   0  0  0  0  0  0  0  0  0  0  0  0
    8.8020    3.6120   -0.7230 N   0  0  0  0  0  0  0  0  0  0  0  0
    7.5780    3.3790   -0.8850 C   0  0  0  0  0  0  0  0  0  0  0  0
    6.5880    2.7950   -0.1520 N   0  0  0  0  0  0  0  0  0  0  0  0
    5.3850    2.8540   -0.2920 C   0  0  0  0  0  0  0  0  0  0  0  0
    4.4990    2.6140    0.7760 N   0  0  0  0  0  0  0  0  0  0  0  0
    3.6790    1.4540    0.4270 C   0  0  0  0  0  0  0  0  0  0  0  0
    4.0130    0.9250   -0.7010 O   0  0  0  0  0  0  0  0  0  0  0  0
    2.6910    1.0060    1.2490 N   0  0  0  0  0  0  0  0  0  0  0  0
    1.9280   -0.1640    0.8950 C   0  0  0  0  0  0  0  0  0  0  0  0
    1.4870   -1.0020    1.8960 C   0  0  0  0  0  0  0  0  0  0  0  0
    0.7440   -2.1120    1.5450 C   0  0  0  0  0  0  0  0  0  0  0  0
    0.4380   -2.3970    0.2270 C   0  0  0  0  0  0  0  0  0  0  0  0
   -0.5190   -3.8250   -0.0960 S   0  0  1  0  0  0  0  0  0  0  0  0
   -0.0680   -4.3680   -1.4270 O   0  0  0  0  0  0  0  0  0  0  0  0
   -0.2000   -4.8140    1.0120 O   0  0  0  0  0  0  0  0  0  0  0  0
   -2.1550   -3.3870   -0.1170 N   0  0  0  0  0  0  0  0  0  0  0  0
   -2.7030   -2.8540    1.0750 C   0  0  2  0  0  0  0  0  0  0  0  0
   -3.7380   -3.7730    1.7110 C   0  0  0  0  0  0  0  0  0  0  0  0
   -3.7790   -3.4160    3.1840 C   0  0  0  0  0  0  0  0  0  0  0  0
   -3.3900   -2.0360    3.4020 N   0  0  0  0  0  0  0  0  0  0  0  0
   -3.8700   -1.1570    2.3720 C   0  0  0  0  0  0  0  0  0  0  0  0
   -3.3090   -1.5000    0.9840 C   0  0  2  0  0  0  0  0  0  0  0  0
   -4.4080   -1.3970    0.0820 N   0  0  0  0  0  0  0  0  0  0  0  0
   -4.4940   -0.3290   -0.8390 C   0  0  0  0  0  0  0  0  0  0  0  0
   -3.6050    0.5830   -0.9030 O   0  0  0  0  0  0  0  0  0  0  0  0
   -5.6300   -0.1960   -1.7970 C   0  0  0  0  0  0  0  0  0  0  0  0
   -5.5890    1.0460   -2.6170 C   0  0  0  0  0  0  0  0  0  0  0  0
   -4.1510    1.2440   -3.6390 S   0  0  0  0  0  0  0  0  0  0  0  0
   -3.6390    2.7000   -3.6220 O   0  0  0  0  0  0  0  0  0  0  0  0
    0.8720   -1.5690   -0.7750 C   0  0  0  0  0  0  0  0  0  0  0  0
    1.6230   -0.4500   -0.4000 C   0  0  0  0  0  0  0  0  0  0  0  0
  1  2  1  0
  2  3  2  0
  2 10  1  0
  3  4  1  0
  4  5  1  1
  4  8  1  0
  5  6  1  0
  6  7  1  0
  7  8  2  0
  8  9  1  0
  9 10  2  0
 10 11  1  0
 11 12  1  0
 12 13  2  0
 12 14  1  0
 14 15  1  0
 15 16  2  0
 15 37  1  0
 16 17  1  0
 17 18  2  0
 18 19  1  0
 18 36  1  0
 19 20  2  0
 19 21  2  0
 19 22  1  6
 23 22  1  6
 23 24  1  0
 23 28  1  0
 24 25  1  0
 25 26  1  0
 26 27  1  0
 27 28  1  0
 28 29  1  6
 29 30  1  0
 30 31  2  0
 30 32  1  0
 32 33  1  0
 33 34  1  0
 34 35  2  0
 36 37  2  0
M  CHG  1  26   1
M  END
