
     RDKit          3D

 26 28  0  0  0  0  0  0  0  0999 V2000
    3.5230   -0.2190    1.4600 O   0  0  0  0  0  0  0  0  0  0  0  0
    4.0200    0.7150    0.7740 C   0  0  0  0  0  0  0  0  0  0  0  0
    3.1850    1.8360    0.5540 N   0  0  0  0  0  0  0  0  0  0  0  0
    1.8290    1.9120    1.0840 C   0  0  0  0  0  0  0  0  0  0  0  0
    0.9750    0.8190    0.5580 C   0  0  0  0  0  0  0  0  0  0  0  0
    1.3270   -0.0760   -0.4300 C   0  0  0  0  0  0  0  0  0  0  0  0
    0.2320   -0.8890   -0.5780 C   0  0  0  0  0  0  0  0  0  0  0  0
   -0.7320   -0.4740    0.3030 C   0  0  0  0  0  0  0  0  0  0  0  0
   -2.0800   -1.0470    0.5020 C   0  0  0  0  0  0  0  0  0  0  0  0
   -2.8360   -0.5380    1.3570 O   0  0  0  0  0  0  0  0  0  0  0  0
   -2.5450   -2.1120   -0.2050 O   0  0  0  0  0  0  0  0  0  0  0  0
   -3.7610   -2.7560   -0.1420 C   0  0  0  0  0  0  0  0  0  0  0  0
   -4.9890   -1.9950   -0.4450 C   0  0  0  0  0  0  0  0  0  0  0  0
   -5.2160   -0.9080    0.3840 O   0  0  0  0  0  0  0  0  0  0  0  0
   -6.3820   -0.0780    0.1950 C   0  0  0  0  0  0  0  0  0  0  0  0
   -6.6600    0.9760    0.9510 C   0  0  0  0  0  0  0  0  0  0  0  0
   -7.7890    1.7270    0.7190 C   0  0  0  0  0  0  0  0  0  0  0  0
   -8.5440    0.8800   -0.6980 S   0  0  0  0  0  0  0  0  0  0  0  0
   -7.2290   -0.4380   -0.8430 C   0  0  0  0  0  0  0  0  0  0  0  0
   -0.2320    0.5420    0.9480 O   0  0  0  0  0  0  0  0  0  0  0  0
    5.3740    0.5710    0.2780 C   0  0  0  0  0  0  0  0  0  0  0  0
    5.9930    1.4800   -0.4460 C   0  0  0  0  0  0  0  0  0  0  0  0
    7.3610    1.3720   -0.9670 C   0  0  0  0  0  0  0  0  0  0  0  0
    7.9980    0.1920   -0.6320 O   0  0  0  0  0  0  0  0  0  0  0  0
    7.3870   -0.7840    0.1230 C   0  0  0  0  0  0  0  0  0  0  0  0
    6.1510   -0.6390    0.5690 C   0  0  0  0  0  0  0  0  0  0  0  0
  1  2  2  0
  2  3  1  0
  2 21  1  0
  3  4  1  0
  4  5  1  0
  5  6  2  0
  5 20  1  0
  6  7  1  0
  7  8  2  0
  8  9  1  0
  8 20  1  0
  9 10  2  0
  9 11  1  0
 11 12  1  0
 12 13  1  0
 13 14  1  0
 14 15  1  0
 15 16  1  0
 15 19  2  0
 16 17  2  0
 17 18  1  0
 18 19  1  0
 21 22  2  0
 21 26  1  0
 22 23  1  0
 23 24  1  0
 24 25  1  0
 25 26  2  0
M  END
