
     RDKit          3D

 26 27  0  0  0  0  0  0  0  0999 V2000
    7.1060    0.5730   -1.7650 C   0  0  0  0  0  0  0  0  0  0  0  0
    6.2560    0.2300   -0.5590 C   0  0  0  0  0  0  0  0  0  0  0  0
    4.9390    0.1890   -0.9750 O   0  0  0  0  0  0  0  0  0  0  0  0
    3.8240   -0.1880    0.2620 P   0  0  0  0  0  0  0  0  0  0  0  0
    2.7880    1.2370    0.7850 C   0  0  0  0  0  0  0  0  0  0  0  0
    1.4870    1.2620    0.1780 N   0  0  0  0  0  0  0  0  0  0  0  0
    1.2570    1.9550   -1.0970 C   0  0  0  0  0  0  0  0  0  0  0  0
    0.3590    0.6250    0.7640 C   0  0  0  0  0  0  0  0  0  0  0  0
    0.5440    0.0230    1.8530 O   0  0  0  0  0  0  0  0  0  0  0  0
   -0.9950    0.6410    0.1580 C   0  0  2  0  0  0  0  0  0  0  0  0
   -1.4820    2.0450    0.0650 C   0  0  0  0  0  0  0  0  0  0  0  0
   -2.8950    2.2480    0.5510 C   0  0  0  0  0  0  0  0  0  0  0  0
   -3.7830    1.1130    0.2840 C   0  0  0  0  0  0  0  0  0  0  0  0
   -5.0780    1.2630   -0.1490 C   0  0  0  0  0  0  0  0  0  0  0  0
   -5.8920    0.1500   -0.3920 C   0  0  0  0  0  0  0  0  0  0  0  0
   -5.4050   -1.1310   -0.2000 C   0  0  0  0  0  0  0  0  0  0  0  0
   -6.4360   -2.5090   -0.5090 S   0  0  2  0  0  0  0  0  0  0  0  0
   -5.6000   -3.6720   -0.9540 O   0  0  0  0  0  0  0  0  0  0  0  0
   -7.4510   -2.1890   -1.5880 O   0  0  0  0  0  0  0  0  0  0  0  0
   -7.2950   -2.9700    0.8540 O   0  0  0  0  0  0  0  0  0  0  0  0
   -4.1010   -1.2520    0.2350 C   0  0  0  0  0  0  0  0  0  0  0  0
   -3.3040   -0.1570    0.4730 C   0  0  0  0  0  0  0  0  0  0  0  0
   -1.8990   -0.2770    0.9410 C   0  0  0  0  0  0  0  0  0  0  0  0
    2.9430   -1.6250    0.0080 O   0  0  0  0  0  0  0  0  0  0  0  0
    3.5900   -2.6590    0.7150 C   0  0  0  0  0  0  0  0  0  0  0  0
    2.8500   -3.9580    0.5240 C   0  0  0  0  0  0  0  0  0  0  0  0
  1  2  1  0
  2  3  1  0
  3  4  1  0
  4  5  1  0
  4 24  1  0
  5  6  1  0
  6  7  1  0
  6  8  1  0
  8  9  2  0
 10  8  1  1
 10 11  1  0
 10 23  1  0
 11 12  1  0
 12 13  1  0
 13 14  2  0
 13 22  1  0
 14 15  1  0
 15 16  2  0
 16 17  1  0
 16 21  1  0
 17 18  2  0
 17 19  2  0
 17 20  1  1
 21 22  2  0
 22 23  1  0
 24 25  1  0
 25 26  1  0
M  END
