
     RDKit          3D

 26 27  0  0  0  0  0  0  0  0999 V2000
   -5.5490   -3.3880    0.6910 C   0  0  0  0  0  0  0  0  0  0  0  0
   -5.1200   -1.9570    0.4580 C   0  0  0  0  0  0  0  0  0  0  0  0
   -4.8130   -1.8080   -0.8990 O   0  0  0  0  0  0  0  0  0  0  0  0
   -4.3100   -0.2160   -1.3010 P   0  0  0  0  0  0  0  0  0  0  0  0
   -5.1890    0.9200   -0.3750 O   0  0  0  0  0  0  0  0  0  0  0  0
   -4.5130    1.4080    0.7170 C   0  0  0  0  0  0  0  0  0  0  0  0
   -5.3540    2.4120    1.5000 C   0  0  0  0  0  0  0  0  0  0  0  0
   -2.5160   -0.0220   -1.0400 C   0  0  0  0  0  0  0  0  0  0  0  0
   -1.8580    1.1520   -1.3180 C   0  0  0  0  0  0  0  0  0  0  0  0
   -0.4930    1.2580   -1.1070 C   0  0  0  0  0  0  0  0  0  0  0  0
    0.2460    0.2020   -0.6160 C   0  0  0  0  0  0  0  0  0  0  0  0
    1.6820    0.3640   -0.4080 C   0  0  0  0  0  0  0  0  0  0  0  0
    2.2320    1.5730   -0.0460 C   0  0  0  0  0  0  0  0  0  0  0  0
    3.5890    1.7000    0.1410 C   0  0  0  0  0  0  0  0  0  0  0  0
    4.4830    0.6380   -0.0180 C   0  0  0  0  0  0  0  0  0  0  0  0
    5.8840    0.8900    0.2020 C   0  0  0  0  0  0  0  0  0  0  0  0
    6.2330    2.0730    0.5380 O   0  0  0  0  0  0  0  0  0  0  0  0
    6.9500   -0.0270    0.0930 N   0  0  0  0  0  0  0  0  0  0  0  0
    8.3160    0.3750    0.3520 C   0  0  0  0  0  0  0  0  0  0  0  0
    8.5830    1.5570    0.6820 O   0  0  0  0  0  0  0  0  0  0  0  0
    9.3570   -0.5280    0.2420 O   0  0  0  0  0  0  0  0  0  0  0  0
    3.9250   -0.5640   -0.3790 C   0  0  0  0  0  0  0  0  0  0  0  0
    4.7470   -1.6570   -0.5540 O   0  0  0  0  0  0  0  0  0  0  0  0
    2.5380   -0.6960   -0.5710 C   0  0  0  0  0  0  0  0  0  0  0  0
   -0.4320   -0.9670   -0.3440 C   0  0  0  0  0  0  0  0  0  0  0  0
   -1.7960   -1.0980   -0.5460 C   0  0  0  0  0  0  0  0  0  0  0  0
  1  2  1  0
  2  3  1  0
  3  4  1  0
  4  5  1  0
  4  8  1  0
  5  6  1  0
  6  7  1  0
  8  9  2  0
  8 26  1  0
  9 10  1  0
 10 11  2  0
 11 12  1  0
 11 25  1  0
 12 13  2  0
 12 24  1  0
 13 14  1  0
 14 15  2  0
 15 16  1  0
 15 22  1  0
 16 17  2  0
 16 18  1  0
 18 19  1  0
 19 20  2  0
 19 21  1  0
 22 23  1  0
 22 24  2  0
 25 26  2  0
M  END
