
     RDKit          3D

 26 27  0  0  0  0  0  0  0  0999 V2000
    7.1550    1.4580    0.3700 C   0  0  0  0  0  0  0  0  0  0  0  0
    5.7860    1.6340    0.1780 O   0  0  0  0  0  0  0  0  0  0  0  0
    5.0070    0.6100   -0.3720 C   0  0  0  0  0  0  0  0  0  0  0  0
    5.6060   -0.5740   -0.7220 C   0  0  0  0  0  0  0  0  0  0  0  0
    4.8180   -1.5670   -1.2620 C   0  0  0  0  0  0  0  0  0  0  0  0
    3.4640   -1.3860   -1.4500 C   0  0  0  0  0  0  0  0  0  0  0  0
    2.8350   -0.1920   -1.1010 C   0  0  0  0  0  0  0  0  0  0  0  0
    1.0820    0.0390   -1.3450 S   0  0  0  0  0  0  0  0  0  0  0  0
    0.2330   -0.4900    0.1120 C   0  0  0  0  0  0  0  0  0  0  0  0
    0.8630   -0.9300    1.0790 O   0  0  0  0  0  0  0  0  0  0  0  0
   -1.2310   -0.4320    0.2410 N   0  0  0  0  0  0  0  0  0  0  0  0
   -1.7310   -0.9060    1.4990 C   0  0  0  0  0  0  0  0  0  0  0  0
   -1.8260    0.1510    2.5690 C   0  0  0  0  0  0  0  0  0  0  0  0
   -2.3630   -0.4460    3.8130 C   0  0  0  0  0  0  0  0  0  0  0  0
   -2.6550   -1.6600    3.8350 O   0  0  0  0  0  0  0  0  0  0  0  0
   -2.5600    0.2860    4.9650 O   0  0  0  0  0  0  0  0  0  0  0  0
   -1.8960    0.0600   -0.8740 C   0  0  0  0  0  0  0  0  0  0  0  0
   -1.1320    0.3810   -1.8690 O   0  0  0  0  0  0  0  0  0  0  0  0
   -3.3090    0.2760   -1.1230 C   0  0  0  0  0  0  0  0  0  0  0  0
   -4.2740    0.3050   -0.1460 C   0  0  0  0  0  0  0  0  0  0  0  0
   -5.6220    0.5670   -0.4410 C   0  0  0  0  0  0  0  0  0  0  0  0
   -6.0190    0.8060   -1.7300 C   0  0  0  0  0  0  0  0  0  0  0  0
   -5.0940    0.7880   -2.7290 C   0  0  0  0  0  0  0  0  0  0  0  0
   -3.7510    0.5270   -2.4410 C   0  0  0  0  0  0  0  0  0  0  0  0
   -2.9090    0.5250   -3.4810 O   0  0  0  0  0  0  0  0  0  0  0  0
    3.6440    0.7860   -0.5630 C   0  0  0  0  0  0  0  0  0  0  0  0
  1  2  1  0
  2  3  1  0
  3  4  2  0
  3 26  1  0
  4  5  1  0
  5  6  2  0
  6  7  1  0
  7  8  1  0
  7 26  2  0
  8  9  1  0
  9 10  2  0
  9 11  1  0
 11 12  1  0
 11 17  1  0
 12 13  1  0
 13 14  1  0
 14 15  2  0
 14 16  1  0
 17 18  2  0
 17 19  1  0
 19 20  2  0
 19 24  1  0
 20 21  1  0
 21 22  2  0
 22 23  1  0
 23 24  2  0
 24 25  1  0
M  END
