
     RDKit          3D

 26 27  0  0  0  0  0  0  0  0999 V2000
   -4.7770   -1.8620   -0.7370 C   0  0  0  0  0  0  0  0  0  0  0  0
   -4.2910   -0.6220   -1.2200 N   0  0  0  0  0  0  0  0  0  0  0  0
   -4.9880    0.0140   -2.3540 C   0  0  0  0  0  0  0  0  0  0  0  0
   -6.0850    0.9270   -1.8450 C   0  0  0  0  0  0  0  0  0  0  0  0
   -5.5050    1.8990   -1.0470 O   0  0  0  0  0  0  0  0  0  0  0  0
   -3.1660    0.0550   -0.6820 C   0  0  0  0  0  0  0  0  0  0  0  0
   -2.9110    1.1580   -1.2670 O   0  0  0  0  0  0  0  0  0  0  0  0
   -2.4170   -0.4780    0.4100 C   0  0  0  0  0  0  0  0  0  0  0  0
   -1.3700    0.0850    0.9780 C   0  0  0  0  0  0  0  0  0  0  0  0
   -0.8480    1.3870    0.5070 C   0  0  0  0  0  0  0  0  0  0  0  0
    0.5500    1.1320    0.0360 C   0  0  0  0  0  0  0  0  0  0  0  0
    1.5700    1.2140    0.9400 C   0  0  0  0  0  0  0  0  0  0  0  0
    2.8970    0.9830    0.5400 C   0  0  0  0  0  0  0  0  0  0  0  0
    3.2250    0.6700   -0.7480 C   0  0  0  0  0  0  0  0  0  0  0  0
    4.4850    0.4380   -1.1700 O   0  0  0  0  0  0  0  0  0  0  0  0
    5.6940    0.4150   -0.5390 C   0  0  0  0  0  0  0  0  0  0  0  0
    5.9130   -0.6180    0.5220 C   0  0  0  0  0  0  0  0  0  0  0  0
    7.6380   -0.4100    1.2030 P   0  0  0  0  0  0  0  0  0  0  0  0
    8.7580   -1.4660    0.4110 O   0  0  0  0  0  0  0  0  0  0  0  0
    8.1590    1.2460    1.0840 O   0  0  0  0  0  0  0  0  0  0  0  0
    2.1560    0.5920   -1.6610 C   0  0  0  0  0  0  0  0  0  0  0  0
    0.8720    0.8200   -1.2560 C   0  0  0  0  0  0  0  0  0  0  0  0
   -0.7290   -0.5720    2.0610 O   0  0  0  0  0  0  0  0  0  0  0  0
   -1.4290   -1.0110    3.1860 C   0  0  0  0  0  0  0  0  0  0  0  0
   -2.6040   -1.9140    2.8980 C   0  0  0  0  0  0  0  0  0  0  0  0
   -2.8450   -2.1010    1.1130 S   0  0  0  0  0  0  0  0  0  0  0  0
  1  2  1  0
  2  3  1  0
  2  6  1  0
  3  4  1  0
  4  5  1  0
  6  7  2  0
  6  8  1  0
  8  9  2  0
  8 26  1  0
  9 10  1  0
  9 23  1  0
 10 11  1  0
 11 12  2  0
 11 22  1  0
 12 13  1  0
 13 14  2  0
 14 15  1  0
 14 21  1  0
 15 16  1  0
 16 17  1  0
 17 18  1  0
 18 19  1  0
 18 20  1  0
 21 22  2  0
 23 24  1  0
 24 25  1  0
 25 26  1  0
M  END
