
     RDKit          3D

 20 20  0  0  0  0  0  0  0  0999 V2000
    4.6340   -1.4220    1.0800 C   0  0  0  0  0  0  0  0  0  0  0  0
    3.7000   -0.9760    1.7820 C   0  0  0  0  0  0  0  0  0  0  0  0
    3.9910   -1.0320    3.2290 N   0  0  0  0  0  0  0  0  0  0  0  0
    2.3970   -0.3200    1.3920 C   0  0  0  0  0  0  0  0  0  0  0  0
    1.5810    0.0630    2.3490 C   0  0  0  0  0  0  0  0  0  0  0  0
    0.3110    0.7060    2.4110 C   0  0  0  0  0  0  0  0  0  0  0  0
   -0.8480    0.7020    2.0210 N   0  0  0  0  0  0  0  0  0  0  0  0
   -1.6960   -0.0780    1.1440 C   0  0  0  0  0  0  0  0  0  0  0  0
   -2.5040    0.9180    0.3820 C   0  0  0  0  0  0  0  0  0  0  0  0
   -3.1700    1.8460    1.1730 F   0  0  0  0  0  0  0  0  0  0  0  0
   -2.6460    1.0600   -0.8970 C   0  0  0  0  0  0  0  0  0  0  0  0
   -2.0960    0.3360   -2.0090 C   0  0  0  0  0  0  0  0  0  0  0  0
   -2.9220    0.0300   -3.0410 C   0  0  0  0  0  0  0  0  0  0  0  0
   -4.3620    0.4230   -3.0400 C   0  0  1  0  0  0  0  0  0  0  0  0
   -5.0770   -0.4990   -3.7660 F   0  0  0  0  0  0  0  0  0  0  0  0
   -4.8470    0.4170   -1.7390 F   0  0  0  0  0  0  0  0  0  0  0  0
   -0.7590   -0.0800   -2.1430 N   0  0  0  0  0  0  0  0  0  0  0  0
    0.3900    0.4570   -1.4480 C   0  0  0  0  0  0  0  0  0  0  0  0
    1.2230   -0.7110   -0.8920 C   0  0  0  0  0  0  0  0  0  0  0  0
    2.2030   -0.1740   -0.0020 N   0  0  0  0  0  0  0  0  0  0  0  0
  1  2  2  0
  2  3  1  0
  2  4  1  0
  4  5  2  0
  4 20  1  0
  5  6  1  0
  6  7  2  0
  7  8  1  0
  8  9  1  0
  9 10  1  0
  9 11  2  0
 11 12  1  0
 12 13  2  3
 12 17  1  0
 13 14  1  0
 14 15  1  6
 14 16  1  0
 17 18  1  0
 18 19  1  0
 19 20  1  0
M  CHG  1   7   1
M  END
