
     RDKit          3D

 20 20  0  0  0  0  0  0  0  0999 V2000
   -3.7330    2.9580    0.7650 C   0  0  0  0  0  0  0  0  0  0  0  0
   -2.8640    1.7750    0.7470 N   0  0  0  0  0  0  0  0  0  0  0  0
   -3.4620    0.8220   -0.1630 C   0  0  0  0  0  0  0  0  0  0  0  0
   -2.7420   -0.3920   -0.3010 N   0  0  0  0  0  0  0  0  0  0  0  0
   -2.5620   -1.1520    0.8850 C   0  0  0  0  0  0  0  0  0  0  0  0
   -1.0500   -1.3600    1.0430 C   0  0  0  0  0  0  0  0  0  0  0  0
   -0.5860   -1.2990   -0.3680 C   0  0  2  0  0  0  0  0  0  0  0  0
   -0.8520   -2.6320   -1.0090 C   0  0  0  0  0  0  0  0  0  0  0  0
   -0.4620   -2.7450   -2.3700 N   0  0  0  0  0  0  0  0  0  0  0  0
    0.7800   -0.9300   -0.5650 N   0  0  0  0  0  0  0  0  0  0  0  0
    1.1460    0.3500   -0.0500 C   0  0  0  0  0  0  0  0  0  0  0  0
    2.4310    0.3410    0.7340 C   0  0  0  0  0  0  0  0  0  0  0  0
    3.4320    1.0920    0.3150 C   0  0  0  0  0  0  0  0  0  0  0  0
    4.7620    1.2060    0.9600 C   0  0  0  0  0  0  0  0  0  0  0  0
    3.2340    1.9230   -0.9390 C   0  0  0  0  0  0  0  0  0  0  0  0
    2.6080   -0.4630    1.9410 C   0  0  2  0  0  0  0  0  0  0  0  0
    1.7030   -0.1170    2.9400 F   0  0  0  0  0  0  0  0  0  0  0  0
    3.8660   -0.3120    2.4520 F   0  0  0  0  0  0  0  0  0  0  0  0
    2.4440   -1.8180    1.7480 F   0  0  0  0  0  0  0  0  0  0  0  0
   -1.4810   -0.2700   -0.9780 C   0  0  0  0  0  0  0  0  0  0  0  0
  1  2  1  0
  2  3  1  0
  3  4  1  0
  4  5  1  0
  4 20  1  0
  5  6  1  0
  6  7  1  0
  7  8  1  6
  7 10  1  0
  7 20  1  0
  8  9  1  0
 10 11  1  0
 11 12  1  0
 12 13  2  3
 12 16  1  0
 13 14  1  0
 13 15  1  0
 16 17  1  1
 16 18  1  0
 16 19  1  0
M  CHG  2   9   1  10   1
M  END
