
     RDKit          3D

 20 20  0  0  0  0  0  0  0  0999 V2000
    2.9160    1.9560    0.7330 C   0  0  0  0  0  0  0  0  0  0  0  0
    3.7350    1.4030   -0.1380 C   0  0  0  0  0  0  0  0  0  0  0  0
    4.7230    2.1730   -0.6710 F   0  0  0  0  0  0  0  0  0  0  0  0
    3.5760    0.0110   -0.5110 C   0  0  0  0  0  0  0  0  0  0  0  0
    4.4190   -0.5070   -1.3860 C   0  0  0  0  0  0  0  0  0  0  0  0
    4.2860   -1.9370   -1.7940 C   0  0  1  0  0  0  0  0  0  0  0  0
    3.1020   -2.1040   -2.4600 F   0  0  0  0  0  0  0  0  0  0  0  0
    5.3470   -2.3010   -2.5920 F   0  0  0  0  0  0  0  0  0  0  0  0
    2.4920   -0.7930    0.0840 C   0  0  0  0  0  0  0  0  0  0  0  0
    1.1640   -0.2490   -0.2150 N   0  0  0  0  0  0  0  0  0  0  0  0
    0.1420   -0.6100    0.4650 C   0  0  0  0  0  0  0  0  0  0  0  0
    0.2530   -1.5390    1.5210 N   0  0  0  0  0  0  0  0  0  0  0  0
   -1.1330   -0.0740    0.1620 N   0  0  0  0  0  0  0  0  0  0  0  0
   -1.5610   -0.2320   -1.2200 C   0  0  0  0  0  0  0  0  0  0  0  0
   -2.6960    0.6690   -1.5700 C   0  0  0  0  0  0  0  0  0  0  0  0
   -2.5960    1.9750   -0.8160 C   0  0  0  0  0  0  0  0  0  0  0  0
   -2.6470    1.7920    0.6700 C   0  0  0  0  0  0  0  0  0  0  0  0
   -1.9440    0.5840    1.1780 C   0  0  1  0  0  0  0  0  0  0  0  0
   -2.8230   -0.3840    1.9120 C   0  0  0  0  0  0  0  0  0  0  0  0
   -3.7530   -1.0910    1.0900 N   0  0  0  0  0  0  0  0  0  0  0  0
  1  2  2  0
  2  3  1  0
  2  4  1  0
  4  5  2  3
  4  9  1  0
  5  6  1  0
  6  7  1  6
  6  8  1  0
  9 10  1  0
 10 11  2  3
 11 12  1  0
 11 13  1  0
 13 14  1  0
 13 18  1  0
 14 15  1  0
 15 16  1  0
 16 17  1  0
 17 18  1  0
 18 19  1  6
 19 20  1  0
M  CHG  2  10   1  20   1
M  END
