
     RDKit          3D

 37 41  0  0  0  0  0  0  0  0999 V2000
    0.6430    3.5560   -1.6690 O   0  0  0  0  0  0  0  0  0  0  0  0
    1.6050    2.7620   -1.3770 C   0  0  0  0  0  0  0  0  0  0  0  0
    1.4340    1.3810   -1.9550 C   0  0  0  0  0  0  0  0  0  0  0  0
    0.3290    0.7130   -1.2470 C   0  0  0  0  0  0  0  0  0  0  0  0
   -0.9240    1.3410   -1.0970 C   0  0  0  0  0  0  0  0  0  0  0  0
   -1.6340    0.5790   -0.2280 C   0  0  0  0  0  0  0  0  0  0  0  0
   -3.0110    0.8150    0.2540 C   0  0  0  0  0  0  0  0  0  0  0  0
   -3.6110    1.8020   -0.2370 O   0  0  0  0  0  0  0  0  0  0  0  0
   -3.6180    0.0260    1.1810 O   0  0  0  0  0  0  0  0  0  0  0  0
   -4.9350    0.2220    1.6590 C   0  0  0  0  0  0  0  0  0  0  0  0
   -5.9560    0.0830    0.6310 C   0  0  0  0  0  0  0  0  0  0  0  0
   -6.8430    0.9630    0.1990 C   0  0  0  0  0  0  0  0  0  0  0  0
   -7.6510    0.2990   -0.8730 C   0  0  0  0  0  0  0  0  0  0  0  0
   -7.6260   -1.0940   -0.4250 N   0  0  0  0  0  0  0  0  0  0  0  0
   -6.1880   -1.2110   -0.1270 C   0  0  0  0  0  0  0  0  0  0  0  0
   -0.9050   -0.4190    0.1210 O   0  0  0  0  0  0  0  0  0  0  0  0
    0.3000   -0.3970   -0.4690 C   0  0  0  0  0  0  0  0  0  0  0  0
    1.2730   -1.4540   -0.2170 C   0  0  0  0  0  0  0  0  0  0  0  0
    1.0790   -2.2960    0.8760 C   0  0  0  0  0  0  0  0  0  0  0  0
    1.8730   -3.3800    1.0980 C   0  0  0  0  0  0  0  0  0  0  0  0
    2.9140   -3.7120    0.2630 C   0  0  0  0  0  0  0  0  0  0  0  0
    3.7120   -4.9080    0.5120 C   0  0  0  0  0  0  0  0  0  0  0  0
    3.9520   -5.4260    1.7780 C   0  0  0  0  0  0  0  0  0  0  0  0
    4.7290   -6.5510    1.9650 C   0  0  0  0  0  0  0  0  0  0  0  0
    5.3070   -7.2160    0.9050 C   0  0  0  0  0  0  0  0  0  0  0  0
    5.0840   -6.7220   -0.3640 C   0  0  0  0  0  0  0  0  0  0  0  0
    4.2930   -5.5810   -0.5460 C   0  0  0  0  0  0  0  0  0  0  0  0
    3.1250   -2.9020   -0.8100 C   0  0  0  0  0  0  0  0  0  0  0  0
    2.3090   -1.7850   -1.0450 C   0  0  0  0  0  0  0  0  0  0  0  0
    2.6250    3.2440   -0.6140 O   0  0  0  0  0  0  0  0  0  0  0  0
    2.5830    4.5970   -0.2180 C   0  0  0  0  0  0  0  0  0  0  0  0
    1.5390    5.1020    0.4880 C   0  0  0  0  0  0  0  0  0  0  0  0
    1.5130    6.4470    0.8660 C   0  0  0  0  0  0  0  0  0  0  0  0
    2.5560    7.2780    0.5250 C   0  0  0  0  0  0  0  0  0  0  0  0
    2.5690    9.0070    0.9770 S   0  0  0  0  0  0  0  0  0  0  0  0
    3.6060    6.7640   -0.1840 C   0  0  0  0  0  0  0  0  0  0  0  0
    3.6240    5.4290   -0.5570 C   0  0  0  0  0  0  0  0  0  0  0  0
  1  2  2  0
  2  3  1  0
  2 30  1  0
  3  4  1  0
  4  5  1  0
  4 17  2  0
  5  6  2  0
  6  7  1  0
  6 16  1  0
  7  8  2  0
  7  9  1  0
  9 10  1  0
 10 11  1  0
 11 12  2  0
 11 15  1  0
 12 13  1  0
 13 14  1  0
 14 15  1  0
 16 17  1  0
 17 18  1  0
 18 19  2  0
 18 29  1  0
 19 20  1  0
 20 21  2  0
 21 22  1  0
 21 28  1  0
 22 23  2  0
 22 27  1  0
 23 24  1  0
 24 25  2  0
 25 26  1  0
 26 27  2  0
 28 29  2  0
 30 31  1  0
 31 32  2  0
 31 37  1  0
 32 33  1  0
 33 34  2  0
 34 35  1  0
 34 36  1  0
 36 37  2  0
M  CHG  1  14   1
M  END
