
     RDKit          3D

 37 41  0  0  0  0  0  0  0  0999 V2000
   -8.0650    2.5910    1.7390 C   0  0  0  0  0  0  0  0  0  0  0  0
   -6.9230    2.2000    0.8670 C   0  0  0  0  0  0  0  0  0  0  0  0
   -6.1510    3.1980    0.2890 C   0  0  0  0  0  0  0  0  0  0  0  0
   -5.0960    2.8790   -0.5160 C   0  0  0  0  0  0  0  0  0  0  0  0
   -4.8000    1.5310   -0.7530 C   0  0  0  0  0  0  0  0  0  0  0  0
   -3.7400    1.2570   -1.5630 O   0  0  0  0  0  0  0  0  0  0  0  0
   -2.5780    0.5950   -1.2520 C   0  0  0  0  0  0  0  0  0  0  0  0
   -2.2510    0.2240    0.0210 C   0  0  0  0  0  0  0  0  0  0  0  0
   -1.0640   -0.4500    0.3240 C   0  0  0  0  0  0  0  0  0  0  0  0
   -0.1800   -0.7600   -0.6760 C   0  0  0  0  0  0  0  0  0  0  0  0
    1.1130   -1.4780   -0.4080 C   0  0  0  0  0  0  0  0  0  0  0  0
    2.2030   -0.5190   -0.2230 C   0  0  0  0  0  0  0  0  0  0  0  0
    2.1530    0.2160    0.8320 O   0  0  0  0  0  0  0  0  0  0  0  0
    3.3200   -0.3130   -1.1000 C   0  0  0  0  0  0  0  0  0  0  0  0
    4.2800    0.6520   -0.7700 C   0  0  0  0  0  0  0  0  0  0  0  0
    5.3770    0.9200   -1.5520 C   0  0  0  0  0  0  0  0  0  0  0  0
    6.3450    1.9640   -1.1210 C   0  0  0  0  0  0  0  0  0  0  0  0
    7.1060    1.4260   -0.0590 O   0  0  0  0  0  0  0  0  0  0  0  0
    7.8850    0.3060   -0.1540 C   0  0  0  0  0  0  0  0  0  0  0  0
    7.9580   -0.3060   -1.2230 O   0  0  0  0  0  0  0  0  0  0  0  0
    8.6490   -0.2040    0.9870 C   0  0  0  0  0  0  0  0  0  0  0  0
    9.4880   -1.3580    1.0040 C   0  0  0  0  0  0  0  0  0  0  0  0
   10.0770   -1.6140    2.1730 C   0  0  0  0  0  0  0  0  0  0  0  0
    9.8950   -0.8460    3.2480 C   0  0  0  0  0  0  0  0  0  0  0  0
    8.7680    0.4010    2.5910 S   0  0  0  0  0  0  0  0  0  0  0  0
    5.5270    0.2010   -2.7100 C   0  0  0  0  0  0  0  0  0  0  0  0
    4.6020   -0.7540   -3.0630 C   0  0  0  0  0  0  0  0  0  0  0  0
    3.4920   -1.0170   -2.2600 C   0  0  0  0  0  0  0  0  0  0  0  0
    2.6270   -1.9900   -2.6970 O   0  0  0  0  0  0  0  0  0  0  0  0
   -0.5020   -0.3890   -1.9700 C   0  0  0  0  0  0  0  0  0  0  0  0
   -1.6710    0.2760   -2.2720 C   0  0  0  0  0  0  0  0  0  0  0  0
   -5.5790    0.5540   -0.1710 C   0  0  0  0  0  0  0  0  0  0  0  0
   -6.6530    0.8790    0.6490 C   0  0  0  0  0  0  0  0  0  0  0  0
   -7.2840   -0.3750    1.1210 C   0  0  0  0  0  0  0  0  0  0  0  0
   -6.1370   -1.2840    1.0700 N   0  0  1  0  0  0  0  0  0  0  0  0
   -6.5720   -2.6480    1.1070 C   0  0  0  0  0  0  0  0  0  0  0  0
   -5.5620   -0.9230   -0.2250 C   0  0  0  0  0  0  0  0  0  0  0  0
  1  2  1  0
  2  3  2  0
  2 33  1  0
  3  4  1  0
  4  5  2  0
  5  6  1  0
  5 32  1  0
  6  7  1  0
  7  8  2  0
  7 31  1  0
  8  9  1  0
  9 10  2  0
 10 11  1  0
 10 30  1  0
 11 12  1  0
 12 13  2  0
 12 14  1  0
 14 15  2  0
 14 28  1  0
 15 16  1  0
 16 17  1  0
 16 26  2  0
 17 18  1  0
 18 19  1  0
 19 20  2  0
 19 21  1  0
 21 22  2  0
 21 25  1  0
 22 23  1  0
 23 24  2  0
 24 25  1  0
 26 27  1  0
 27 28  2  0
 28 29  1  0
 30 31  2  0
 32 33  2  0
 32 37  1  0
 33 34  1  0
 34 35  1  0
 35 36  1  6
 35 37  1  0
M  CHG  1  35   1
M  END
