
     RDKit          3D

 36 40  0  0  0  0  0  0  0  0999 V2000
    4.8530   -2.9550   -2.1150 C   0  0  0  0  0  0  0  0  0  0  0  0
    6.3080   -2.6500   -2.1220 C   0  0  0  0  0  0  0  0  0  0  0  0
    6.8660   -1.9150   -0.6410 S   0  0  1  0  0  0  0  0  0  0  0  0
    6.7610   -2.8950    0.5310 O   0  0  0  0  0  0  0  0  0  0  0  0
    8.3760   -1.7150   -0.7940 O   0  0  0  0  0  0  0  0  0  0  0  0
    6.1560   -0.3950   -0.2260 C   0  0  0  0  0  0  0  0  0  0  0  0
    6.9260    0.7820   -0.3010 C   0  0  0  0  0  0  0  0  0  0  0  0
    6.3710    1.9980   -0.0100 C   0  0  0  0  0  0  0  0  0  0  0  0
    5.0540    2.1470    0.3670 C   0  0  0  0  0  0  0  0  0  0  0  0
    4.5020    3.5070    0.6730 C   0  0  0  0  0  0  0  0  0  0  0  0
    4.2870    1.0100    0.4460 C   0  0  0  0  0  0  0  0  0  0  0  0
    2.9480    1.0930    0.8260 C   0  0  0  0  0  0  0  0  0  0  0  0
    2.4830    2.2440    1.0870 O   0  0  0  0  0  0  0  0  0  0  0  0
    2.1850   -0.0370    0.9090 C   0  0  0  0  0  0  0  0  0  0  0  0
    0.7810   -0.0040    1.2760 C   0  0  0  0  0  0  0  0  0  0  0  0
   -0.1990    0.3470    0.2200 C   0  0  0  0  0  0  0  0  0  0  0  0
   -0.0710    1.6730   -0.4300 C   0  0  0  0  0  0  0  0  0  0  0  0
   -1.1700    1.8090   -1.4690 C   0  0  0  0  0  0  0  0  0  0  0  0
   -2.5250    1.7160   -0.9260 C   0  0  0  0  0  0  0  0  0  0  0  0
   -3.2500    2.8110   -0.4770 C   0  0  0  0  0  0  0  0  0  0  0  0
   -4.5190    2.7080    0.0270 C   0  0  0  0  0  0  0  0  0  0  0  0
   -5.2910    3.8850    0.5050 C   0  0  0  0  0  0  0  0  0  0  0  0
   -5.1370    1.4580    0.1060 C   0  0  0  0  0  0  0  0  0  0  0  0
   -6.3070    1.0670    0.5300 O   0  0  0  0  0  0  0  0  0  0  0  0
   -6.4160   -0.2270    0.3940 C   0  0  0  0  0  0  0  0  0  0  0  0
   -5.2400   -0.6950   -0.1520 C   0  0  0  0  0  0  0  0  0  0  0  0
   -4.4210    0.3840   -0.3360 C   0  0  0  0  0  0  0  0  0  0  0  0
   -3.1330    0.4800   -0.8490 C   0  0  0  0  0  0  0  0  0  0  0  0
   -5.1400   -2.1630   -0.3950 C   0  0  0  0  0  0  0  0  0  0  0  0
   -5.7500   -2.8050    0.8490 C   0  0  0  0  0  0  0  0  0  0  0  0
   -7.1300   -2.4960    0.9970 N   0  0  0  0  0  0  0  0  0  0  0  0
   -7.5240   -1.1630    0.7160 C   0  0  0  0  0  0  0  0  0  0  0  0
    2.8230   -1.2430    0.5980 C   0  0  0  0  0  0  0  0  0  0  0  0
    1.9820   -2.4710    0.6920 C   0  0  0  0  0  0  0  0  0  0  0  0
    4.0820   -1.2710    0.2460 O   0  0  0  0  0  0  0  0  0  0  0  0
    4.8630   -0.2330    0.1470 C   0  0  0  0  0  0  0  0  0  0  0  0
  1  2  1  0
  3  2  1  6
  3  4  2  0
  3  5  2  0
  3  6  1  0
  6  7  2  0
  6 36  1  0
  7  8  1  0
  8  9  2  0
  9 10  1  0
  9 11  1  0
 11 12  1  0
 11 36  2  0
 12 13  2  0
 12 14  1  0
 14 15  1  0
 14 33  2  0
 15 16  1  0
 16 17  1  0
 17 18  1  0
 18 19  1  0
 19 20  2  0
 19 28  1  0
 20 21  1  0
 21 22  1  0
 21 23  2  0
 23 24  1  0
 23 27  1  0
 24 25  1  0
 25 26  2  0
 25 32  1  0
 26 27  1  0
 26 29  1  0
 27 28  2  0
 29 30  1  0
 30 31  1  0
 31 32  1  0
 33 34  1  0
 33 35  1  0
 35 36  1  0
M  CHG  1  31   1
M  END
