
     RDKit          3D

 30 32  0  0  0  0  0  0  0  0999 V2000
   -0.0730    5.1720   -1.2510 C   0  0  0  0  0  0  0  0  0  0  0  0
   -0.6210    4.6870   -2.4220 O   0  0  0  0  0  0  0  0  0  0  0  0
   -0.3970    3.3430   -2.5420 C   0  0  0  0  0  0  0  0  0  0  0  0
   -0.9720    2.4900   -1.4660 C   0  0  0  0  0  0  0  0  0  0  0  0
   -0.6110    1.0350   -1.8010 C   0  0  0  0  0  0  0  0  0  0  0  0
   -1.1860    0.2170   -0.7270 N   0  0  0  0  0  0  0  0  0  0  0  0
   -2.4800   -0.3080   -0.8150 C   0  0  0  0  0  0  0  0  0  0  0  0
   -3.2750   -0.1300   -1.8110 O   0  0  0  0  0  0  0  0  0  0  0  0
   -2.9250   -1.1000    0.3100 C   0  0  0  0  0  0  0  0  0  0  0  0
   -3.8540   -1.9980    0.4620 C   0  0  0  0  0  0  0  0  0  0  0  0
   -4.1060   -2.6780    1.7750 C   0  0  0  0  0  0  0  0  0  0  0  0
   -5.3590   -3.4870    1.6600 C   0  0  0  0  0  0  0  0  0  0  0  0
   -6.5020   -2.8110    0.9870 C   0  0  0  0  0  0  0  0  0  0  0  0
   -6.1400   -2.0180   -0.2430 C   0  0  0  0  0  0  0  0  0  0  0  0
   -4.7280   -2.4180   -0.6470 C   0  0  0  0  0  0  0  0  0  0  0  0
   -1.7910   -0.5360    1.6280 S   0  0  0  0  0  0  0  0  0  0  0  0
   -0.4750   -0.0860    0.4410 C   0  0  0  0  0  0  0  0  0  0  0  0
    0.7510   -0.1090    0.7790 N   0  0  0  0  0  0  0  0  0  0  0  0
    1.8880    0.2030   -0.0270 C   0  0  0  0  0  0  0  0  0  0  0  0
    3.1520   -0.0680    0.7690 C   0  0  0  0  0  0  0  0  0  0  0  0
    2.9890   -0.4860    1.9100 O   0  0  0  0  0  0  0  0  0  0  0  0
    4.3700    0.1870    0.1180 N   0  0  0  0  0  0  0  0  0  0  0  0
    5.6150   -0.0330    0.7730 C   0  0  0  0  0  0  0  0  0  0  0  0
    5.7510   -0.4750    2.0020 C   0  0  0  0  0  0  0  0  0  0  0  0
    7.3320   -0.7290    2.7630 S   0  0  0  0  0  0  0  0  0  0  0  0
    8.6170   -0.2950    1.6030 C   0  0  2  0  0  0  0  0  0  0  0  0
    9.4440    0.7140    2.0880 F   0  0  0  0  0  0  0  0  0  0  0  0
    8.0410    0.1560    0.3320 C   0  0  0  0  0  0  0  0  0  0  0  0
    6.8090    0.2770   -0.0470 C   0  0  0  0  0  0  0  0  0  0  0  0
    6.5170    0.8750   -1.7130 Cl  0  0  0  0  0  0  0  0  0  0  0  0
  1  2  1  0
  2  3  1  0
  3  4  1  0
  4  5  1  0
  5  6  1  0
  6  7  1  0
  6 17  1  0
  7  8  2  0
  7  9  1  0
  9 10  2  3
  9 16  1  0
 10 11  1  0
 10 15  1  0
 11 12  1  0
 12 13  1  0
 13 14  1  0
 14 15  1  0
 16 17  1  0
 17 18  2  3
 18 19  1  0
 19 20  1  0
 20 21  2  0
 20 22  1  0
 22 23  1  0
 23 24  2  0
 23 29  1  0
 24 25  1  0
 25 26  1  0
 26 27  1  1
 26 28  1  0
 28 29  2  0
 29 30  1  0
M  CHG  1  18   1
M  END
