
     RDKit          3D

 29 31  0  0  0  0  0  0  0  0999 V2000
   -5.3220    3.0100    0.5540 C   0  0  0  0  0  0  0  0  0  0  0  0
   -4.5320    1.9920    0.3070 C   0  0  0  0  0  0  0  0  0  0  0  0
   -5.0810    0.6970   -0.0150 C   0  0  0  0  0  0  0  0  0  0  0  0
   -4.3260   -0.3380   -0.2650 C   0  0  0  0  0  0  0  0  0  0  0  0
   -2.8750   -0.3990   -0.2710 C   0  0  0  0  0  0  0  0  0  0  0  0
   -2.3800   -1.7680   -0.2670 C   0  0  0  0  0  0  0  0  0  0  0  0
   -3.2320   -2.7390   -0.4430 C   0  0  0  0  0  0  0  0  0  0  0  0
   -4.8620   -1.9710   -0.6520 S   0  0  0  0  0  0  0  0  0  0  0  0
   -2.9180   -4.1680   -0.4550 C   0  0  0  0  0  0  0  0  0  0  0  0
   -3.8770   -4.9720   -0.6410 O   0  0  0  0  0  0  0  0  0  0  0  0
   -1.5950   -4.5730   -0.2650 N   0  0  0  0  0  0  0  0  0  0  0  0
   -0.6170   -3.5890   -0.0700 C   0  0  0  0  0  0  0  0  0  0  0  0
    0.5840   -3.9770    0.1020 O   0  0  0  0  0  0  0  0  0  0  0  0
   -0.9540   -2.1510   -0.0620 C   0  0  0  0  0  0  0  0  0  0  0  0
    0.0010   -1.3810    0.0690 N   0  0  0  0  0  0  0  0  0  0  0  0
    0.2130   -0.0750    0.0880 N   0  0  0  0  0  0  0  0  0  0  0  0
    1.5400    0.4760   -0.2050 C   0  0  0  0  0  0  0  0  0  0  0  0
    2.4060    0.4790    0.7730 C   0  0  0  0  0  0  0  0  0  0  0  0
    3.7580    0.9980    0.6220 C   0  0  0  0  0  0  0  0  0  0  0  0
    4.0150    2.1310   -0.1170 C   0  0  0  0  0  0  0  0  0  0  0  0
    5.3210    2.6070   -0.2510 C   0  0  0  0  0  0  0  0  0  0  0  0
    5.5810    4.0650   -1.2110 Cl  0  0  0  0  0  0  0  0  0  0  0  0
    6.3500    1.9520    0.3490 C   0  0  0  0  0  0  0  0  0  0  0  0
    6.1040    0.8210    1.0870 C   0  0  0  0  0  0  0  0  0  0  0  0
    4.8180    0.3400    1.2270 C   0  0  0  0  0  0  0  0  0  0  0  0
    4.5100   -1.1190    2.1780 Cl  0  0  0  0  0  0  0  0  0  0  0  0
    1.7420    0.9350   -1.5210 N   0  0  0  0  0  0  0  0  0  0  0  0
    0.9190    1.7070   -2.0290 O   0  0  0  0  0  0  0  0  0  0  0  0
    2.8410    0.5170   -2.2170 O   0  0  0  0  0  0  0  0  0  0  0  0
  1  2  2  0
  2  3  1  0
  3  4  2  3
  4  5  1  0
  4  8  1  0
  5  6  1  0
  6  7  2  0
  6 14  1  0
  7  8  1  0
  7  9  1  0
  9 10  2  0
  9 11  1  0
 11 12  1  0
 12 13  2  0
 12 14  1  0
 14 15  2  3
 15 16  1  0
 16 17  1  0
 17 18  2  3
 17 27  1  0
 18 19  1  0
 19 20  2  0
 19 25  1  0
 20 21  1  0
 21 22  1  0
 21 23  2  0
 23 24  1  0
 24 25  2  0
 25 26  1  0
 27 28  2  0
 27 29  1  0
M  CHG  2  27   1  29  -1
M  END
