
     RDKit          3D

 29 31  0  0  0  0  0  0  0  0999 V2000
   -1.8890   -4.4910   -0.9320 O   0  0  0  0  0  0  0  0  0  0  0  0
   -2.9850   -4.0560   -1.4230 C   0  0  0  0  0  0  0  0  0  0  0  0
   -3.9610   -5.0680   -1.8630 C   0  0  0  0  0  0  0  0  0  0  0  0
   -5.1530   -4.4840   -2.4050 N   0  0  0  0  0  0  0  0  0  0  0  0
   -6.2420   -4.6990   -1.8580 O   0  0  0  0  0  0  0  0  0  0  0  0
   -5.1100   -3.6940   -3.5150 O   0  0  0  0  0  0  0  0  0  0  0  0
   -3.2430   -2.6900   -1.5350 N   0  0  0  0  0  0  0  0  0  0  0  0
   -2.1730   -1.8120   -1.0540 C   0  0  0  0  0  0  0  0  0  0  0  0
   -1.1200   -1.8230   -0.5820 N   0  0  0  0  0  0  0  0  0  0  0  0
   -0.3320   -0.7960   -0.2260 C   0  0  0  0  0  0  0  0  0  0  0  0
    0.9720   -1.0960    0.3810 C   0  0  0  0  0  0  0  0  0  0  0  0
    1.9130   -1.8860   -0.2910 C   0  0  0  0  0  0  0  0  0  0  0  0
    3.1010   -2.2580    0.2710 C   0  0  0  0  0  0  0  0  0  0  0  0
    3.4320   -1.8660    1.5440 C   0  0  0  0  0  0  0  0  0  0  0  0
    2.5230   -1.0880    2.2270 C   0  0  0  0  0  0  0  0  0  0  0  0
    2.9260   -0.5800    3.8500 Cl  0  0  0  0  0  0  0  0  0  0  0  0
    1.3410   -0.7250    1.6530 C   0  0  0  0  0  0  0  0  0  0  0  0
   -0.8360    0.4160   -0.4530 C   0  0  0  0  0  0  0  0  0  0  0  0
   -0.4360    1.8260   -0.2760 C   0  0  0  0  0  0  0  0  0  0  0  0
   -1.3440    2.7040   -0.5520 O   0  0  0  0  0  0  0  0  0  0  0  0
    0.8150    2.2450    0.1480 N   0  0  0  0  0  0  0  0  0  0  0  0
    1.1890    3.6030    0.3300 C   0  0  0  0  0  0  0  0  0  0  0  0
    0.4170    4.6940    0.1310 C   0  0  0  0  0  0  0  0  0  0  0  0
    0.9180    5.9800    0.3510 C   0  0  0  0  0  0  0  0  0  0  0  0
    2.1930    6.1880    0.7720 C   0  0  0  0  0  0  0  0  0  0  0  0
    2.9850    5.0880    0.9770 C   0  0  0  0  0  0  0  0  0  0  0  0
    2.5140    3.8180    0.7680 C   0  0  0  0  0  0  0  0  0  0  0  0
    3.5700    2.4360    1.0460 Cl  0  0  0  0  0  0  0  0  0  0  0  0
   -2.4940    0.0170   -1.1940 S   0  0  0  0  0  0  0  0  0  0  0  0
  1  2  2  0
  2  3  1  0
  2  7  1  0
  3  4  1  0
  4  5  2  0
  4  6  1  0
  7  8  1  0
  8  9  2  0
  8 29  1  0
  9 10  1  0
 10 11  1  0
 10 18  2  0
 11 12  2  0
 11 17  1  0
 12 13  1  0
 13 14  2  0
 14 15  1  0
 15 16  1  0
 15 17  2  0
 18 19  1  0
 18 29  1  0
 19 20  2  0
 19 21  1  0
 21 22  1  0
 22 23  2  0
 22 27  1  0
 23 24  1  0
 24 25  2  0
 25 26  1  0
 26 27  2  0
 27 28  1  0
M  CHG  2   4   1   6  -1
M  END
