
     RDKit          3D

 29 31  0  0  0  0  0  0  0  0999 V2000
    0.4280    6.0640   -1.9330 C   0  0  0  0  0  0  0  0  0  0  0  0
    0.6730    4.8440   -2.2620 N   0  0  0  0  0  0  0  0  0  0  0  0
   -0.2480    3.8220   -2.1680 N   0  0  0  0  0  0  0  0  0  0  0  0
    0.1820    2.5280   -1.7420 C   0  0  0  0  0  0  0  0  0  0  0  0
    1.4900    2.3230   -1.4340 C   0  0  0  0  0  0  0  0  0  0  0  0
    1.8690    1.0750   -1.0310 C   0  0  0  0  0  0  0  0  0  0  0  0
    3.5940    0.8780   -0.6750 Cl  0  0  0  0  0  0  0  0  0  0  0  0
    1.0160    0.0110   -0.9150 C   0  0  0  0  0  0  0  0  0  0  0  0
    1.6210   -1.5140   -0.3710 S   0  0  1  0  0  0  0  0  0  0  0  0
    1.1860   -2.6780   -1.2290 O   0  0  0  0  0  0  0  0  0  0  0  0
    3.1470   -1.4720   -0.5510 O   0  0  0  0  0  0  0  0  0  0  0  0
    1.3460   -1.8750    1.2570 N   0  0  0  0  0  0  0  0  0  0  0  0
    1.8780   -1.0770    2.2930 C   0  0  0  0  0  0  0  0  0  0  0  0
    1.0430   -0.6130    3.3240 C   0  0  0  0  0  0  0  0  0  0  0  0
    1.5120    0.1590    4.3300 C   0  0  0  0  0  0  0  0  0  0  0  0
    2.8670    0.5170    4.3610 C   0  0  0  0  0  0  0  0  0  0  0  0
    3.3800    1.5200    5.7010 Cl  0  0  0  0  0  0  0  0  0  0  0  0
    3.7220    0.0890    3.3760 C   0  0  0  0  0  0  0  0  0  0  0  0
    3.2160   -0.6950    2.3670 C   0  0  0  0  0  0  0  0  0  0  0  0
   -0.3380    0.2340   -1.2370 C   0  0  0  0  0  0  0  0  0  0  0  0
   -1.1760   -0.8780   -1.0720 N   0  0  0  0  0  0  0  0  0  0  0  0
   -2.5290   -0.9260   -1.4090 C   0  0  0  0  0  0  0  0  0  0  0  0
   -3.1080    0.0580   -1.9030 O   0  0  0  0  0  0  0  0  0  0  0  0
   -3.3360   -2.1440   -1.1960 C   0  0  0  0  0  0  0  0  0  0  0  0
   -2.8950   -3.2640   -0.6900 C   0  0  0  0  0  0  0  0  0  0  0  0
   -4.0150   -4.2640   -0.6350 C   0  0  0  0  0  0  0  0  0  0  0  0
   -5.1200   -3.5220   -1.1830 N   0  0  0  0  0  0  0  0  0  0  0  0
   -4.7270   -2.3420   -1.4920 C   0  0  0  0  0  0  0  0  0  0  0  0
   -0.7230    1.4810   -1.6410 C   0  0  0  0  0  0  0  0  0  0  0  0
  1  2  2  0
  2  3  1  0
  3  4  1  0
  4  5  2  0
  4 29  1  0
  5  6  1  0
  6  7  1  0
  6  8  2  0
  8  9  1  0
  8 20  1  0
  9 10  2  0
  9 11  2  0
  9 12  1  1
 12 13  1  0
 13 14  2  0
 13 19  1  0
 14 15  1  0
 15 16  2  0
 16 17  1  0
 16 18  1  0
 18 19  2  0
 20 21  1  0
 20 29  2  0
 21 22  1  0
 22 23  2  0
 22 24  1  0
 24 25  2  0
 24 28  1  0
 25 26  1  0
 26 27  1  0
 27 28  2  0
M  END
