
     RDKit          3D

 29 31  0  0  0  0  0  0  0  0999 V2000
   -5.8560   -0.6680   -1.4810 C   0  0  0  0  0  0  0  0  0  0  0  0
   -5.3780    0.6680   -0.9010 C   0  0  1  0  0  0  0  0  0  0  0  0
   -6.2650    1.0070    0.2580 C   0  0  0  0  0  0  0  0  0  0  0  0
   -5.7830    2.1130    1.1170 C   0  0  0  0  0  0  0  0  0  0  0  0
   -4.3760    2.5090    0.9930 C   0  0  0  0  0  0  0  0  0  0  0  0
   -3.5880    1.8920   -0.1000 C   0  0  0  0  0  0  0  0  0  0  0  0
   -3.9990    0.5760   -0.4940 N   0  0  1  0  0  0  0  0  0  0  0  0
   -3.7860   -0.3320    0.5980 C   0  0  0  0  0  0  0  0  0  0  0  0
   -2.5190   -1.0850    0.3550 C   0  0  0  0  0  0  0  0  0  0  0  0
   -1.2260   -0.8500    0.6800 C   0  0  0  0  0  0  0  0  0  0  0  0
   -0.2640   -1.7080    0.3320 C   0  0  0  0  0  0  0  0  0  0  0  0
    1.1970   -1.5720    0.6260 C   0  0  0  0  0  0  0  0  0  0  0  0
    2.0250   -2.4160    0.2350 O   0  0  0  0  0  0  0  0  0  0  0  0
    1.6980   -0.4700    1.3670 N   0  0  0  0  0  0  0  0  0  0  0  0
    3.0990   -0.2960    1.6760 C   0  0  0  0  0  0  0  0  0  0  0  0
    3.9350   -0.2000    0.4630 C   0  0  0  0  0  0  0  0  0  0  0  0
    3.4370   -0.2670   -0.6830 O   0  0  0  0  0  0  0  0  0  0  0  0
    5.3400   -0.0260    0.5250 O   0  0  0  0  0  0  0  0  0  0  0  0
    6.0870    0.0500   -0.6270 C   0  0  0  0  0  0  0  0  0  0  0  0
    5.8700    1.0200   -1.3830 N   0  0  0  0  0  0  0  0  0  0  0  0
    5.0120    2.1140   -1.3500 C   0  0  0  0  0  0  0  0  0  0  0  0
    4.6320    2.6490    0.3270 Cl  0  0  0  0  0  0  0  0  0  0  0  0
    7.1540   -0.9650   -1.0170 C   0  0  0  0  0  0  0  0  0  0  0  0
    7.4460   -1.9970   -0.2660 C   0  0  0  0  0  0  0  0  0  0  0  0
    8.4410   -2.9180   -0.6660 C   0  0  0  0  0  0  0  0  0  0  0  0
    8.9550   -2.2110   -2.2190 S   0  0  0  0  0  0  0  0  0  0  0  0
    7.8360   -0.7700   -2.2320 C   0  0  0  0  0  0  0  0  0  0  0  0
   -0.6900   -2.8530   -0.3850 C   0  0  0  0  0  0  0  0  0  0  0  0
   -2.4250   -2.6570   -0.5290 S   0  0  0  0  0  0  0  0  0  0  0  0
  2  1  1  1
  2  3  1  0
  2  7  1  0
  3  4  1  0
  4  5  1  0
  5  6  1  0
  6  7  1  0
  7  8  1  1
  8  9  1  0
  9 10  2  0
  9 29  1  0
 10 11  1  0
 11 12  1  0
 11 28  2  0
 12 13  2  0
 12 14  1  0
 14 15  1  0
 15 16  1  0
 16 17  2  0
 16 18  1  0
 18 19  1  0
 19 20  2  3
 19 23  1  0
 20 21  1  0
 21 22  1  0
 23 24  1  0
 23 27  2  0
 24 25  2  0
 25 26  1  0
 26 27  1  0
 28 29  1  0
M  CHG  1   7   1
M  END
