
     RDKit          3D

 30 32  0  0  0  0  0  0  0  0999 V2000
   -6.8010    3.1420   -0.9950 C   0  0  0  0  0  0  0  0  0  0  0  0
   -5.9200    3.5280   -0.1400 C   0  0  0  0  0  0  0  0  0  0  0  0
   -4.7390    2.9740    0.3860 C   0  0  0  0  0  0  0  0  0  0  0  0
   -4.1010    3.8790    1.2850 C   0  0  0  0  0  0  0  0  0  0  0  0
   -4.6550    5.0710    1.5140 F   0  0  0  0  0  0  0  0  0  0  0  0
   -4.0840    1.7400    0.3520 C   0  0  0  0  0  0  0  0  0  0  0  0
   -2.8580    1.7700    0.9530 O   0  0  0  0  0  0  0  0  0  0  0  0
   -4.3410    0.4700   -0.1310 N   0  0  0  0  0  0  0  0  0  0  0  0
   -5.6280    0.0700   -0.6100 C   0  0  0  0  0  0  0  0  0  0  0  0
   -5.9980   -1.3890   -0.3590 C   0  0  0  0  0  0  0  0  0  0  0  0
   -5.3360   -2.4210   -1.7110 S   0  0  0  0  0  0  0  0  0  0  0  0
   -3.7660   -1.6810   -2.2820 C   0  0  0  0  0  0  0  0  0  0  0  0
   -2.9280   -1.3310   -1.0730 C   0  0  0  0  0  0  0  0  0  0  0  0
   -1.5020   -2.3320   -0.9880 Cl  0  0  0  0  0  0  0  0  0  0  0  0
   -3.1340   -0.4310   -0.1430 C   0  0  0  0  0  0  0  0  0  0  0  0
   -2.0850   -0.1170    1.1450 S   0  0  1  0  0  0  0  0  0  0  0  0
   -0.5830   -0.9370    1.4810 C   0  0  1  0  0  0  0  0  0  0  0  0
   -0.7390   -2.3750    1.8670 C   0  0  0  0  0  0  0  0  0  0  0  0
    0.4490   -0.6290    0.4890 C   0  0  0  0  0  0  0  0  0  0  0  0
    0.1540    0.2030   -0.4430 O   0  0  0  0  0  0  0  0  0  0  0  0
    1.7430   -1.1690    0.4720 N   0  0  0  0  0  0  0  0  0  0  0  0
    2.2580   -2.0520    1.4940 C   0  0  0  0  0  0  0  0  0  0  0  0
    3.6900   -1.6680    1.8790 C   0  0  0  0  0  0  0  0  0  0  0  0
    4.0060   -0.4830    1.1760 O   0  0  0  0  0  0  0  0  0  0  0  0
    4.0350   -0.8970   -0.1700 C   0  0  2  0  0  0  0  0  0  0  0  0
    4.9700    0.0080   -0.9410 C   0  0  0  0  0  0  0  0  0  0  0  0
    6.3090   -0.0510   -0.4010 N   0  0  0  0  0  0  0  0  0  0  0  0
    7.0300    1.1530   -0.7810 C   0  0  0  0  0  0  0  0  0  0  0  0
    7.9300    1.5810    0.3550 C   0  0  0  0  0  0  0  0  0  0  0  0
    2.6280   -0.8300   -0.6730 C   0  0  0  0  0  0  0  0  0  0  0  0
  1  2  2  0
  2  3  1  0
  3  4  2  3
  3  6  1  0
  4  5  1  0
  6  7  2  0
  6  8  1  0
  8  9  1  0
  8 15  1  0
  9 10  1  0
 10 11  1  0
 11 12  1  0
 12 13  1  0
 13 14  1  0
 13 15  2  0
 15 16  1  0
 16 17  1  0
 17 18  1  6
 17 19  1  0
 19 20  2  0
 19 21  1  0
 21 22  1  0
 21 30  1  0
 22 23  1  0
 23 24  1  0
 24 25  1  0
 25 26  1  6
 25 30  1  0
 26 27  1  0
 27 28  1  0
 28 29  1  0
 16  7  1  6
M  CHG  1  27   1
M  END
