
     RDKit          3D

 30 32  0  0  0  0  0  0  0  0999 V2000
   -3.9110   -4.8490    0.7080 C   0  0  0  0  0  0  0  0  0  0  0  0
   -3.7180   -3.4340    1.2010 C   0  0  0  0  0  0  0  0  0  0  0  0
   -2.0770   -3.2110    1.9520 S   0  0  0  0  0  0  0  0  0  0  0  0
   -0.8260   -3.3920    0.6860 C   0  0  0  0  0  0  0  0  0  0  0  0
   -0.2190   -4.5300    0.3220 N   0  0  0  0  0  0  0  0  0  0  0  0
    0.6550   -4.2930   -0.6480 C   0  0  0  0  0  0  0  0  0  0  0  0
    0.6360   -2.9630   -0.9450 N   0  0  0  0  0  0  0  0  0  0  0  0
   -0.2670   -2.3850   -0.1390 C   0  0  0  0  0  0  0  0  0  0  0  0
   -0.6950   -1.0130   -0.0540 C   0  0  0  0  0  0  0  0  0  0  0  0
   -1.5560   -0.7810    0.8970 O   0  0  0  0  0  0  0  0  0  0  0  0
   -0.3560    0.1060   -0.7990 N   0  0  0  0  0  0  0  0  0  0  0  0
    0.5520    0.0300   -1.9340 C   0  0  0  0  0  0  0  0  0  0  0  0
    1.9600    0.1620   -1.6040 C   0  0  0  0  0  0  0  0  0  0  0  0
    2.8480    0.1170   -2.4840 O   0  0  0  0  0  0  0  0  0  0  0  0
    2.3500    0.3430   -0.2910 O   0  0  0  0  0  0  0  0  0  0  0  0
    3.6370    0.4810    0.1500 C   0  0  0  0  0  0  0  0  0  0  0  0
    4.3330    1.5980    0.2900 C   0  0  0  0  0  0  0  0  0  0  0  0
    3.7760    3.2280   -0.0610 Cl  0  0  0  0  0  0  0  0  0  0  0  0
    5.6990    1.3110    0.8000 C   0  0  0  0  0  0  0  0  0  0  0  0
    5.6700   -0.1700    0.9290 C   0  0  0  0  0  0  0  0  0  0  0  0
    6.6880   -0.9630    1.3630 F   0  0  0  0  0  0  0  0  0  0  0  0
    4.4880   -0.6330    0.5560 C   0  0  0  0  0  0  0  0  0  0  0  0
    4.0900   -2.0840    0.5520 C   0  0  0  0  0  0  0  0  0  0  0  0
   -0.8990    1.4260   -0.4740 C   0  0  2  0  0  0  0  0  0  0  0  0
   -0.6430    1.8260    0.9490 C   0  0  0  0  0  0  0  0  0  0  0  0
   -1.1250    3.2970    0.9620 C   0  0  0  0  0  0  0  0  0  0  0  0
   -2.7400    3.0580    0.1500 S   0  0  1  0  0  0  0  0  0  0  0  0
   -2.9190    4.3540   -1.0660 C   0  0  0  0  0  0  0  0  0  0  0  0
   -2.8730    5.7170   -0.4590 C   0  0  0  0  0  0  0  0  0  0  0  0
   -2.3840    1.4620   -0.6660 C   0  0  0  0  0  0  0  0  0  0  0  0
  1  2  1  0
  2  3  1  0
  3  4  1  0
  4  5  1  0
  4  8  2  0
  5  6  1  0
  6  7  2  0
  7  8  1  0
  8  9  1  0
  9 10  2  0
  9 11  1  0
 11 12  1  0
 24 11  1  1
 12 13  1  0
 13 14  2  0
 13 15  1  0
 15 16  1  0
 16 17  2  0
 16 22  1  0
 17 18  1  0
 17 19  1  0
 19 20  1  0
 20 21  1  0
 20 22  2  0
 22 23  1  0
 24 25  1  0
 24 30  1  0
 25 26  1  0
 26 27  1  0
 27 28  1  6
 27 30  1  0
 28 29  1  0
M  CHG  1   7   1
M  END
