
     RDKit          3D

 29 33  0  0  0  0  0  0  0  0999 V2000
    7.6120   -0.8140   -0.0710 C   0  0  0  0  0  0  0  0  0  0  0  0
    6.3040   -0.3170   -0.4060 N   0  0  1  0  0  0  0  0  0  0  0  0
    5.2950   -1.3190   -0.4470 C   0  0  0  0  0  0  0  0  0  0  0  0
    3.9370   -0.8890   -0.0300 C   0  0  0  0  0  0  0  0  0  0  0  0
    3.6960    0.5350   -0.1180 N   0  0  0  0  0  0  0  0  0  0  0  0
    2.3410    0.9600   -0.1510 C   0  0  0  0  0  0  0  0  0  0  0  0
    2.0460    2.2930   -0.3260 C   0  0  0  0  0  0  0  0  0  0  0  0
    0.7330    2.7410   -0.3590 C   0  0  0  0  0  0  0  0  0  0  0  0
   -0.3220    1.8470   -0.2150 C   0  0  0  0  0  0  0  0  0  0  0  0
   -1.6570    1.9730   -0.2050 N   0  0  0  0  0  0  0  0  0  0  0  0
   -2.2510    0.7570   -0.0270 C   0  0  0  0  0  0  0  0  0  0  0  0
   -3.6980    0.5290    0.0340 C   0  0  0  0  0  0  0  0  0  0  0  0
   -4.2530   -0.7120    0.2160 C   0  0  0  0  0  0  0  0  0  0  0  0
   -3.4670   -1.8820    0.3600 N   0  0  0  0  0  0  0  0  0  0  0  0
   -5.6420   -0.8740    0.2660 C   0  0  0  0  0  0  0  0  0  0  0  0
   -6.1690   -2.1350    0.4500 C   0  0  0  0  0  0  0  0  0  0  0  0
   -5.3480   -3.2010    0.5800 F   0  0  0  0  0  0  0  0  0  0  0  0
   -7.5510   -2.3300    0.5050 C   0  0  0  0  0  0  0  0  0  0  0  0
   -8.3660   -1.2250    0.3690 C   0  0  0  0  0  0  0  0  0  0  0  0
   -7.8390    0.0350    0.1850 C   0  0  0  0  0  0  0  0  0  0  0  0
   -6.4700    0.2050    0.1340 C   0  0  0  0  0  0  0  0  0  0  0  0
   -5.9100    1.4270   -0.0450 N   0  0  0  0  0  0  0  0  0  0  0  0
   -4.5670    1.5890   -0.0940 C   0  0  0  0  0  0  0  0  0  0  0  0
   -4.0830    2.7360   -0.2610 O   0  0  0  0  0  0  0  0  0  0  0  0
   -1.2300   -0.1070    0.0690 N   0  0  0  0  0  0  0  0  0  0  0  0
   -0.0400    0.5180   -0.0410 C   0  0  0  0  0  0  0  0  0  0  0  0
    1.2760    0.0960   -0.0110 C   0  0  0  0  0  0  0  0  0  0  0  0
    4.7740    1.4770   -0.1670 C   0  0  0  0  0  0  0  0  0  0  0  0
    5.9790    0.7780    0.4820 C   0  0  0  0  0  0  0  0  0  0  0  0
  2  1  1  1
  2  3  1  0
  2 29  1  0
  3  4  1  0
  4  5  1  0
  5  6  1  0
  5 28  1  0
  6  7  2  0
  6 27  1  0
  7  8  1  0
  8  9  2  0
  9 10  1  0
  9 26  1  0
 10 11  2  0
 11 12  1  0
 11 25  1  0
 12 13  2  0
 12 23  1  0
 13 14  1  0
 13 15  1  0
 15 16  2  0
 15 21  1  0
 16 17  1  0
 16 18  1  0
 18 19  2  0
 19 20  1  0
 20 21  2  0
 21 22  1  0
 22 23  1  0
 23 24  2  0
 25 26  1  0
 26 27  2  0
 28 29  1  0
M  CHG  1   2   1
M  END
