
     RDKit          3D

 10  9  0  0  0  0  0  0  0  0999 V2000
    2.0390   -0.1250   -1.4140 O   0  0  0  0  0  0  0  0  0  0  0  0
    1.9830    0.0010   -0.1630 C   0  0  0  0  0  0  0  0  0  0  0  0
    0.7360    0.0910    0.5190 N   0  0  0  0  0  0  0  0  0  0  0  0
   -0.5030    0.0380   -0.2270 C   0  0  1  0  0  0  0  0  0  0  0  0
   -1.2660   -1.2050    0.2500 C   0  0  0  0  0  0  0  0  0  0  0  0
   -2.4790   -1.3190   -0.4310 O   0  0  0  0  0  0  0  0  0  0  0  0
   -1.3170    1.2820    0.0240 C   0  0  0  0  0  0  0  0  0  0  0  0
   -2.5080    1.2850   -0.6620 O   0  0  0  0  0  0  0  0  0  0  0  0
    3.1590    0.0580    0.6120 O   0  0  0  0  0  0  0  0  0  0  0  0
    4.3210   -0.0320   -0.0820 O   0  0  0  0  0  0  0  0  0  0  0  0
  1  2  2  0
  2  3  1  0
  2  9  1  0
  3  4  1  0
  4  5  1  1
  4  7  1  0
  5  6  1  0
  7  8  1  0
  9 10  1  0
M  END
