
     RDKit          3D

 10  9  0  0  0  0  0  0  0  0999 V2000
    3.6700    0.6850   -0.1860 C   0  0  0  0  0  0  0  0  0  0  0  0
    2.6200   -0.2100    0.1440 O   0  0  0  0  0  0  0  0  0  0  0  0
    1.2870    0.1620    0.0200 C   0  0  0  0  0  0  0  0  0  0  0  0
    1.0560    1.3370   -0.4020 O   0  0  0  0  0  0  0  0  0  0  0  0
    0.2050   -0.6860    0.3330 N   0  0  0  0  0  0  0  0  0  0  0  0
   -1.1630   -0.2500    0.1860 C   0  0  1  0  0  0  0  0  0  0  0  0
   -1.8490   -1.0830   -0.8790 C   0  0  0  0  0  0  0  0  0  0  0  0
   -3.1590   -0.7110   -1.0630 O   0  0  0  0  0  0  0  0  0  0  0  0
   -1.8630   -0.2370    1.3840 O   0  0  0  0  0  0  0  0  0  0  0  0
   -2.2980    0.9530    1.7070 O   0  0  0  0  0  0  0  0  0  0  0  0
  1  2  1  0
  2  3  1  0
  3  4  2  0
  3  5  1  0
  5  6  1  0
  6  7  1  6
  6  9  1  0
  7  8  1  0
  9 10  1  0
M  END
