
     RDKit          3D

 15 16  0  0  0  0  0  0  0  0999 V2000
   -2.3630   -1.3000    0.5880 C   0  0  0  0  0  0  0  0  0  0  0  0
   -1.1310   -0.8030   -0.1310 C   0  0  1  0  0  0  0  0  0  0  0  0
   -1.5580   -0.4670   -1.5690 C   0  0  0  0  0  0  0  0  0  0  0  0
   -0.6460    0.4160    0.5500 C   0  0  0  0  0  0  0  0  0  0  0  0
   -1.2850    1.1210    1.4900 N   0  0  0  0  0  0  0  0  0  0  0  0
   -0.5180    2.1740    1.8540 C   0  0  0  0  0  0  0  0  0  0  0  0
   -0.8490    3.0350    2.7280 O   0  0  0  0  0  0  0  0  0  0  0  0
    0.5990    2.1030    1.1250 N   0  0  0  0  0  0  0  0  0  0  0  0
    0.5670    1.0380    0.3090 C   0  0  0  0  0  0  0  0  0  0  0  0
    1.5060    0.5440   -0.6240 N   0  0  0  0  0  0  0  0  0  0  0  0
    1.8400    0.9410   -1.8320 N   0  0  0  0  0  0  0  0  0  0  0  0
    2.7990    0.1500   -2.3460 C   0  0  0  0  0  0  0  0  0  0  0  0
    3.0620   -0.7730   -1.4060 N   0  0  0  0  0  0  0  0  0  0  0  0
    2.2760   -0.5470   -0.3380 C   0  0  0  0  0  0  0  0  0  0  0  0
    2.2490   -1.3000    0.8620 N   0  0  0  0  0  0  0  0  0  0  0  0
  2  1  1  1
  2  3  1  0
  2  4  1  0
  4  5  1  0
  4  9  2  0
  5  6  1  0
  6  7  2  0
  6  8  1  0
  8  9  1  0
  9 10  1  0
 10 11  1  0
 10 14  1  0
 11 12  2  0
 12 13  1  0
 13 14  2  0
 14 15  1  0
M  END
