
     RDKit          3D

 15 16  0  0  0  0  0  0  0  0999 V2000
   -3.9390   -1.1150    0.9180 C   0  0  0  0  0  0  0  0  0  0  0  0
   -2.8260   -0.3370    0.3600 C   0  0  0  0  0  0  0  0  0  0  0  0
   -1.5790   -0.6420    0.5830 N   0  0  0  0  0  0  0  0  0  0  0  0
   -0.5170    0.0960    0.0540 N   0  0  0  0  0  0  0  0  0  0  0  0
    0.8040    0.0750    0.5800 C   0  0  0  0  0  0  0  0  0  0  0  0
    1.0450    0.4570    1.8550 N   0  0  0  0  0  0  0  0  0  0  0  0
    2.2910    0.4400    2.3600 C   0  0  0  0  0  0  0  0  0  0  0  0
    3.2900    0.0300    1.5580 N   0  0  0  0  0  0  0  0  0  0  0  0
    3.1110   -0.3610    0.2870 C   0  0  0  0  0  0  0  0  0  0  0  0
    4.1440   -0.7900   -0.5590 N   0  0  0  0  0  0  0  0  0  0  0  0
    1.8210   -0.3420   -0.2350 C   0  0  0  0  0  0  0  0  0  0  0  0
    1.5870   -0.7480   -1.5760 N   0  0  0  0  0  0  0  0  0  0  0  0
   -0.7930    0.9270   -1.1000 C   0  0  0  0  0  0  0  0  0  0  0  0
   -2.0580    1.7200   -0.7560 C   0  0  0  0  0  0  0  0  0  0  0  0
   -3.0640    0.7630   -0.4350 O   0  0  0  0  0  0  0  0  0  0  0  0
  1  2  1  0
  2  3  2  0
  2 15  1  0
  3  4  1  0
  4  5  1  0
  4 13  1  0
  5  6  2  0
  5 11  1  0
  6  7  1  0
  7  8  2  0
  8  9  1  0
  9 10  1  0
  9 11  2  0
 11 12  1  0
 13 14  1  0
 14 15  1  0
M  END
