
     RDKit          3D

 15 16  0  0  0  0  0  0  0  0999 V2000
   -1.7510   -0.0110   -2.8050 N   0  0  0  0  0  0  0  0  0  0  0  0
   -1.1090   -0.0870   -1.5360 C   0  0  0  0  0  0  0  0  0  0  0  0
   -1.8370   -0.0880   -0.4050 N   0  0  0  0  0  0  0  0  0  0  0  0
   -1.2500   -0.1590    0.7890 C   0  0  0  0  0  0  0  0  0  0  0  0
   -2.0610   -0.1570    1.9850 C   0  0  0  0  0  0  0  0  0  0  0  0
   -3.3740   -0.0880    1.9280 C   0  0  0  0  0  0  0  0  0  0  0  0
   -4.0390   -0.0130    0.7200 O   0  0  0  0  0  0  0  0  0  0  0  0
    0.0810   -0.2290    0.8440 N   0  0  0  0  0  0  0  0  0  0  0  0
    0.8700   -0.2320   -0.2450 C   0  0  0  0  0  0  0  0  0  0  0  0
    2.2850   -0.3080   -0.1560 N   0  0  0  0  0  0  0  0  0  0  0  0
    3.0130    0.0650    0.9120 C   0  0  0  0  0  0  0  0  0  0  0  0
    4.3420   -0.1560    0.6230 C   0  0  0  0  0  0  0  0  0  0  0  0
    4.3980   -0.6670   -0.6360 N   0  0  0  0  0  0  0  0  0  0  0  0
    3.1400   -0.7530   -1.0950 C   0  0  0  0  0  0  0  0  0  0  0  0
    0.2320   -0.1590   -1.4430 N   0  0  0  0  0  0  0  0  0  0  0  0
  1  2  1  0
  2  3  2  0
  2 15  1  0
  3  4  1  0
  4  5  1  0
  4  8  2  0
  5  6  2  3
  6  7  1  0
  8  9  1  0
  9 10  1  0
  9 15  2  0
 10 11  1  0
 10 14  1  0
 11 12  2  0
 12 13  1  0
 13 14  2  0
M  END
