
     RDKit          3D

 15 16  0  0  0  0  0  0  0  0999 V2000
   -1.8600   -0.5680    1.7170 C   0  0  0  0  0  0  0  0  0  0  0  0
   -1.8450   -0.0840    0.2770 C   0  0  1  0  0  0  0  0  0  0  0  0
   -2.1610   -1.2040   -0.6800 C   0  0  0  0  0  0  0  0  0  0  0  0
   -2.7890    1.0930    0.0940 C   0  0  0  0  0  0  0  0  0  0  0  0
   -0.4740    0.3990   -0.0460 C   0  0  0  0  0  0  0  0  0  0  0  0
   -0.2210    1.6100   -0.4130 N   0  0  0  0  0  0  0  0  0  0  0  0
    1.0730    2.0300   -0.7070 N   0  0  0  0  0  0  0  0  0  0  0  0
    2.1870    1.1470   -0.6190 C   0  0  0  0  0  0  0  0  0  0  0  0
    3.4550    1.5220   -0.8970 N   0  0  0  0  0  0  0  0  0  0  0  0
    4.4710    0.6500   -0.7980 N   0  0  0  0  0  0  0  0  0  0  0  0
    4.2760   -0.5980   -0.4290 N   0  0  0  0  0  0  0  0  0  0  0  0
    3.0270   -1.0040   -0.1450 C   0  0  0  0  0  0  0  0  0  0  0  0
    2.8060   -2.1860    0.2100 O   0  0  0  0  0  0  0  0  0  0  0  0
    1.9400   -0.1510   -0.2280 C   0  0  0  0  0  0  0  0  0  0  0  0
    0.6050   -0.5290    0.0600 N   0  0  0  0  0  0  0  0  0  0  0  0
  2  1  1  1
  2  3  1  0
  2  4  1  0
  2  5  1  0
  5  6  2  0
  5 15  1  0
  6  7  1  0
  7  8  1  0
  8  9  1  0
  8 14  2  0
  9 10  2  0
 10 11  1  0
 11 12  1  0
 12 13  2  0
 12 14  1  0
 14 15  1  0
M  END
