
     RDKit          3D

 21 21  0  0  0  0  0  0  0  0999 V2000
   -3.0980   -2.4500   -2.5810 C   0  0  0  0  0  0  0  0  0  0  0  0
   -1.9150   -2.0250   -1.9320 O   0  0  0  0  0  0  0  0  0  0  0  0
   -1.8420   -0.7440   -1.3490 C   0  0  0  0  0  0  0  0  0  0  0  0
   -2.8560   -0.0600   -1.4510 O   0  0  0  0  0  0  0  0  0  0  0  0
   -0.6900   -0.2920   -0.7010 N   0  0  0  0  0  0  0  0  0  0  0  0
   -0.4860    0.9480   -0.0540 C   0  0  0  0  0  0  0  0  0  0  0  0
    0.6700    1.2910    0.5050 C   0  0  0  0  0  0  0  0  0  0  0  0
    1.8810    0.4190    0.5370 C   0  0  1  0  0  0  0  0  0  0  0  0
    2.9390    1.0590    1.2970 N   0  0  0  0  0  0  0  0  0  0  0  0
    1.4790   -1.1890    1.3460 S   0  0  0  0  0  0  0  0  0  0  0  0
    2.9490   -2.2040    1.3890 C   0  0  0  0  0  0  0  0  0  0  0  0
    3.4230   -2.6320    0.0250 C   0  0  0  0  0  0  0  0  0  0  0  0
    3.7260   -1.5330   -0.7570 O   0  0  0  0  0  0  0  0  0  0  0  0
    0.7480    2.6450    0.9870 C   0  0  0  0  0  0  0  0  0  0  0  0
    1.4600    3.2180    1.8010 O   0  0  0  0  0  0  0  0  0  0  0  0
   -0.5850    3.4950    0.0490 S   0  0  0  0  0  0  0  0  0  0  0  0
   -1.5200    1.9040    0.1590 C   0  0  0  0  0  0  0  0  0  0  0  0
   -2.7540    1.8500    0.4870 C   0  0  0  0  0  0  0  0  0  0  0  0
   -3.6000    3.0600    0.6260 C   0  0  0  0  0  0  0  0  0  0  0  0
   -3.0830    4.1650    0.4140 O   0  0  0  0  0  0  0  0  0  0  0  0
   -4.9230    2.9660    0.9810 O   0  0  0  0  0  0  0  0  0  0  0  0
  1  2  1  0
  2  3  1  0
  3  4  2  0
  3  5  1  0
  5  6  1  0
  6  7  2  0
  6 17  1  0
  7  8  1  0
  7 14  1  0
  8  9  1  1
  8 10  1  0
 10 11  1  0
 11 12  1  0
 12 13  1  0
 14 15  2  0
 14 16  1  0
 16 17  1  0
 17 18  2  3
 18 19  1  0
 19 20  2  0
 19 21  1  0
M  END
