
     RDKit          3D

 21 21  0  0  0  0  0  0  0  0999 V2000
   -1.5830    0.9190   -1.3050 O   0  0  0  0  0  0  0  0  0  0  0  0
   -0.9610    0.5450   -0.3030 C   0  0  0  0  0  0  0  0  0  0  0  0
   -1.6470    0.4530    0.8840 O   0  0  0  0  0  0  0  0  0  0  0  0
   -3.0140    0.7540    1.0510 C   0  0  0  0  0  0  0  0  0  0  0  0
   -3.8260   -0.1270    0.1760 C   0  0  0  0  0  0  0  0  0  0  0  0
   -4.5970    0.4130   -0.7390 C   0  0  0  0  0  0  0  0  0  0  0  0
   -4.6530    2.1820   -0.9100 S   0  0  0  0  0  0  0  0  0  0  0  0
   -3.7050   -1.5940    0.4040 C   0  0  0  0  0  0  0  0  0  0  0  0
   -4.7280   -2.5600   -0.7060 S   0  0  0  0  0  0  0  0  0  0  0  0
    0.4430    0.2100   -0.3570 C   0  0  0  0  0  0  0  0  0  0  0  0
    1.0610   -0.1960    0.7960 N   0  0  0  0  0  0  0  0  0  0  0  0
    2.3450   -0.5290    0.8700 C   0  0  0  0  0  0  0  0  0  0  0  0
    2.8020   -0.8880    1.9860 O   0  0  0  0  0  0  0  0  0  0  0  0
    3.0970   -0.4700   -0.2410 N   0  0  0  0  0  0  0  0  0  0  0  0
    4.4910   -0.8380   -0.1310 C   0  0  0  0  0  0  0  0  0  0  0  0
    5.2610    0.4260    0.2060 C   0  0  0  0  0  0  0  0  0  0  0  0
    4.8020    0.9670    1.4210 O   0  0  0  0  0  0  0  0  0  0  0  0
    2.5640   -0.0820   -1.4070 C   0  0  0  0  0  0  0  0  0  0  0  0
    3.2550   -0.0220   -2.4550 O   0  0  0  0  0  0  0  0  0  0  0  0
    1.2070    0.2740   -1.5010 C   0  0  0  0  0  0  0  0  0  0  0  0
    0.6790    0.6670   -2.6950 O   0  0  0  0  0  0  0  0  0  0  0  0
  1  2  2  0
  2  3  1  0
  2 10  1  0
  3  4  1  0
  4  5  1  0
  5  6  2  3
  5  8  1  0
  6  7  1  0
  8  9  1  0
 10 11  1  0
 10 20  2  0
 11 12  1  0
 12 13  2  0
 12 14  1  0
 14 15  1  0
 14 18  1  0
 15 16  1  0
 16 17  1  0
 18 19  2  0
 18 20  1  0
 20 21  1  0
M  END
