
     RDKit          3D

 20 20  0  0  0  0  0  0  0  0999 V2000
    6.2200   -1.6340   -1.0310 C   0  0  0  0  0  0  0  0  0  0  0  0
    4.9710   -0.9660   -1.0680 O   0  0  0  0  0  0  0  0  0  0  0  0
    4.3740   -0.4240    0.0590 C   0  0  0  0  0  0  0  0  0  0  0  0
    4.9800   -0.5390    1.1550 O   0  0  0  0  0  0  0  0  0  0  0  0
    3.0740    0.2600   -0.0360 C   0  0  0  0  0  0  0  0  0  0  0  0
    2.5060    0.3540   -1.1340 O   0  0  0  0  0  0  0  0  0  0  0  0
    2.4450    0.8220    1.1070 N   0  0  0  0  0  0  0  0  0  0  0  0
    1.1820    1.4970    1.0690 C   0  0  0  0  0  0  0  0  0  0  0  0
    0.0970    0.5520    0.5570 C   0  0  0  0  0  0  0  0  0  0  0  0
    0.3830   -0.5980    0.2530 O   0  0  0  0  0  0  0  0  0  0  0  0
   -1.1870    1.0890    0.4710 N   0  0  0  0  0  0  0  0  0  0  0  0
   -2.3510    0.3970    0.0180 C   0  0  0  0  0  0  0  0  0  0  0  0
   -2.2960   -0.8210   -0.4770 C   0  0  0  0  0  0  0  0  0  0  0  0
   -3.3750   -1.6310   -0.9750 C   0  0  0  0  0  0  0  0  0  0  0  0
   -3.0930   -2.9380   -1.4630 O   0  0  0  0  0  0  0  0  0  0  0  0
   -4.6450   -1.3090   -1.0400 C   0  0  0  0  0  0  0  0  0  0  0  0
   -5.1200    0.2990   -0.4650 S   0  0  0  0  0  0  0  0  0  0  0  0
   -3.6480    1.0560    0.1850 C   0  0  0  0  0  0  0  0  0  0  0  0
   -3.7700    2.1700    0.8190 C   0  0  0  0  0  0  0  0  0  0  0  0
   -5.0070    2.8200    0.9880 O   0  0  0  0  0  0  0  0  0  0  0  0
  1  2  1  0
  2  3  1  0
  3  4  2  0
  3  5  1  0
  5  6  2  0
  5  7  1  0
  7  8  1  0
  8  9  1  0
  9 10  2  0
  9 11  1  0
 11 12  1  0
 12 13  2  0
 12 18  1  0
 13 14  1  0
 14 15  1  0
 14 16  2  0
 16 17  1  0
 17 18  1  0
 18 19  2  3
 19 20  1  0
M  END
