
     RDKit          3D

 21 21  0  0  0  0  0  0  0  0999 V2000
    6.1840    0.1410   -1.1640 C   0  0  0  0  0  0  0  0  0  0  0  0
    5.9500   -0.6200   -0.0830 O   0  0  0  0  0  0  0  0  0  0  0  0
    4.9600   -0.4230    0.7850 C   0  0  0  0  0  0  0  0  0  0  0  0
    3.5500   -0.4980    0.4070 C   0  0  0  0  0  0  0  0  0  0  0  0
    2.7430   -0.4140    1.3450 O   0  0  0  0  0  0  0  0  0  0  0  0
    3.0500   -0.6600   -0.9400 C   0  0  0  0  0  0  0  0  0  0  0  0
    1.5880   -0.8620   -0.9770 N   0  0  0  0  0  0  0  0  0  0  0  0
    0.6650    0.0850   -0.5160 C   0  0  0  0  0  0  0  0  0  0  0  0
    1.2720    1.1580   -0.0650 O   0  0  0  0  0  0  0  0  0  0  0  0
   -0.7480    0.0980   -0.4510 C   0  0  0  0  0  0  0  0  0  0  0  0
   -1.5040   -0.8640   -0.8460 C   0  0  0  0  0  0  0  0  0  0  0  0
   -0.9110   -2.0260   -1.3870 N   0  0  0  0  0  0  0  0  0  0  0  0
   -3.2940   -0.9310   -0.8010 S   0  0  0  0  0  0  0  0  0  0  0  0
   -4.0390   -0.2850    0.6450 C   0  0  2  0  0  0  0  0  0  0  0  0
   -5.7490    0.1020    0.2420 S   0  0  2  0  0  0  0  0  0  0  0  0
   -6.4480    0.6400    1.4600 O   0  0  0  0  0  0  0  0  0  0  0  0
   -6.4380   -1.0910   -0.3350 O   0  0  0  0  0  0  0  0  0  0  0  0
   -5.7310    1.3420   -0.8990 O   0  0  0  0  0  0  0  0  0  0  0  0
   -3.4680    0.9060    1.2980 C   0  0  0  0  0  0  0  0  0  0  0  0
   -1.9780    0.9520    1.4250 C   0  0  0  0  0  0  0  0  0  0  0  0
   -1.2950    1.3830    0.1440 C   0  0  0  0  0  0  0  0  0  0  0  0
  1  2  1  0
  2  3  1  0
  3  4  1  0
  4  5  2  0
  4  6  1  0
  6  7  1  0
  7  8  1  0
  8  9  2  0
  8 10  1  0
 10 11  2  0
 10 21  1  0
 11 12  1  0
 11 13  1  0
 13 14  1  0
 14 15  1  0
 14 19  1  6
 15 16  2  0
 15 17  2  0
 15 18  1  6
 19 20  1  0
 20 21  1  0
M  END
