
     RDKit          3D

 21 21  0  0  0  0  0  0  0  0999 V2000
    5.6200   -0.5620    2.2240 C   0  0  0  0  0  0  0  0  0  0  0  0
    4.4960    0.0820    1.4520 C   0  0  0  0  0  0  0  0  0  0  0  0
    3.6030    0.6090    0.8450 C   0  0  0  0  0  0  0  0  0  0  0  0
    2.4120    1.3010    0.0410 C   0  0  0  0  0  0  0  0  0  0  0  0
    2.0500    0.2440   -0.8380 N   0  0  0  0  0  0  0  0  0  0  0  0
    0.7240    0.4400   -1.8150 S   0  0  1  0  0  0  0  0  0  0  0  0
    0.7450    1.9640   -2.2490 O   0  0  0  0  0  0  0  0  0  0  0  0
    0.8290   -0.3120   -3.1060 O   0  0  0  0  0  0  0  0  0  0  0  0
   -0.8360    0.2810   -1.0730 C   0  0  0  0  0  0  0  0  0  0  0  0
   -0.9320   -0.1520    0.2560 C   0  0  0  0  0  0  0  0  0  0  0  0
   -2.1600   -0.4310    0.8160 C   0  0  0  0  0  0  0  0  0  0  0  0
   -2.4480   -0.9760    2.4490 S   0  0  2  0  0  0  0  0  0  0  0  0
   -3.1670   -2.5400    2.4570 N   0  0  0  0  0  0  0  0  0  0  0  0
   -3.3370    0.0290    3.1670 O   0  0  0  0  0  0  0  0  0  0  0  0
   -1.1290   -1.0900    3.1580 O   0  0  0  0  0  0  0  0  0  0  0  0
   -3.3160   -0.2760    0.0370 C   0  0  0  0  0  0  0  0  0  0  0  0
   -3.2270    0.1420   -1.2490 C   0  0  0  0  0  0  0  0  0  0  0  0
   -1.9620    0.4290   -1.8180 C   0  0  0  0  0  0  0  0  0  0  0  0
   -2.0140    0.8700   -3.2180 C   0  0  0  0  0  0  0  0  0  0  0  0
   -3.1180    0.7900   -3.8840 O   0  0  0  0  0  0  0  0  0  0  0  0
   -0.9270    1.3760   -3.8660 O   0  0  0  0  0  0  0  0  0  0  0  0
  1  2  1  0
  2  3  3  0
  3  4  1  0
  4  5  1  0
  6  5  1  1
  6  7  2  0
  6  8  2  0
  6  9  1  0
  9 10  2  0
  9 18  1  0
 10 11  1  0
 11 12  1  0
 11 16  2  0
 12 13  1  6
 12 14  2  0
 12 15  2  0
 16 17  1  0
 17 18  2  0
 18 19  1  0
 19 20  2  0
 19 21  1  0
M  END
