
     RDKit          3D

 24 26  0  0  0  0  0  0  0  0999 V2000
    6.9650   -1.5470    0.8410 C   0  0  0  0  0  0  0  0  0  0  0  0
    6.4070   -0.1810    0.6540 C   0  0  0  0  0  0  0  0  0  0  0  0
    7.0480    1.0400    0.7610 C   0  0  0  0  0  0  0  0  0  0  0  0
    6.1570    1.9520    0.5110 O   0  0  0  0  0  0  0  0  0  0  0  0
    4.9740    1.4100    0.2460 C   0  0  0  0  0  0  0  0  0  0  0  0
    5.0870    0.0510    0.3260 C   0  0  0  0  0  0  0  0  0  0  0  0
    4.0830   -0.9290    0.1210 N   0  0  0  0  0  0  0  0  0  0  0  0
    2.7370   -0.6690   -0.2140 C   0  0  0  0  0  0  0  0  0  0  0  0
    2.3680    0.5220   -0.3490 O   0  0  0  0  0  0  0  0  0  0  0  0
    1.7420   -1.7530   -0.4120 C   0  0  0  0  0  0  0  0  0  0  0  0
    0.4460   -1.2660   -0.7440 N   0  0  0  0  0  0  0  0  0  0  0  0
   -0.3260   -0.4040    0.0790 C   0  0  0  0  0  0  0  0  0  0  0  0
    0.1720   -0.0500    1.1710 O   0  0  0  0  0  0  0  0  0  0  0  0
   -1.6730    0.0510   -0.3550 C   0  0  0  0  0  0  0  0  0  0  0  0
   -2.3090    0.9590    0.6750 C   0  0  0  0  0  0  0  0  0  0  0  0
   -3.6170    1.3400    0.1430 N   0  0  0  0  0  0  0  0  0  0  0  0
   -3.8800    2.3860   -0.6140 N   0  0  0  0  0  0  0  0  0  0  0  0
   -5.1870    2.4330   -0.9220 C   0  0  0  0  0  0  0  0  0  0  0  0
   -5.8000    1.3550   -0.3280 C   0  0  0  0  0  0  0  0  0  0  0  0
   -7.1050    0.8890   -0.2910 C   0  0  0  0  0  0  0  0  0  0  0  0
   -7.3510   -0.2600    0.4280 C   0  0  0  0  0  0  0  0  0  0  0  0
   -6.3060   -0.8910    1.0710 C   0  0  0  0  0  0  0  0  0  0  0  0
   -5.0490   -0.4440    1.0370 N   0  0  0  0  0  0  0  0  0  0  0  0
   -4.7740    0.6870    0.3370 C   0  0  0  0  0  0  0  0  0  0  0  0
  1  2  1  0
  2  3  2  0
  2  6  1  0
  3  4  1  0
  4  5  1  0
  5  6  2  0
  6  7  1  0
  7  8  1  0
  8  9  2  0
  8 10  1  0
 10 11  1  0
 11 12  1  0
 12 13  2  0
 12 14  1  0
 14 15  1  0
 15 16  1  0
 16 17  1  0
 16 24  1  0
 17 18  2  0
 18 19  1  0
 19 20  2  0
 19 24  1  0
 20 21  1  0
 21 22  2  0
 22 23  1  0
 23 24  2  0
M  END
