
     RDKit          3D

 24 26  0  0  0  0  0  0  0  0999 V2000
   -6.9520   -0.5460   -0.4530 C   0  0  0  0  0  0  0  0  0  0  0  0
   -5.9910   -1.6970   -0.2770 C   0  0  0  0  0  0  0  0  0  0  0  0
   -4.6790   -1.1790    0.3240 C   0  0  0  0  0  0  0  0  0  0  0  0
   -4.1540   -0.1540   -0.6880 C   0  0  0  0  0  0  0  0  0  0  0  0
   -2.9030    0.4270   -0.2470 N   0  0  0  0  0  0  0  0  0  0  0  0
   -2.8810    1.5380    0.5080 C   0  0  0  0  0  0  0  0  0  0  0  0
   -3.9830    2.0570    0.8190 O   0  0  0  0  0  0  0  0  0  0  0  0
   -1.7260    2.0960    0.9300 N   0  0  0  0  0  0  0  0  0  0  0  0
   -0.5270    1.5590    0.6100 C   0  0  0  0  0  0  0  0  0  0  0  0
    0.6200    2.1200    1.0340 N   0  0  0  0  0  0  0  0  0  0  0  0
    1.8020    1.5490    0.6900 C   0  0  0  0  0  0  0  0  0  0  0  0
    2.9070    2.0350    1.0610 O   0  0  0  0  0  0  0  0  0  0  0  0
    1.8600    0.4090   -0.0810 C   0  0  0  0  0  0  0  0  0  0  0  0
    3.1430   -0.2160   -0.4580 C   0  0  0  0  0  0  0  0  0  0  0  0
    3.3330   -1.2660   -1.1630 N   0  0  0  0  0  0  0  0  0  0  0  0
    4.6910   -1.5430   -1.3010 N   0  0  0  0  0  0  0  0  0  0  0  0
    5.4020   -0.6740   -0.6850 C   0  0  0  0  0  0  0  0  0  0  0  0
    6.8790   -0.5700   -0.5590 C   0  0  0  0  0  0  0  0  0  0  0  0
    7.3570   -0.6300    0.8580 C   0  0  0  0  0  0  0  0  0  0  0  0
    4.4720    0.2870   -0.0670 C   0  0  0  0  0  0  0  0  0  0  0  0
    0.7020   -0.1830   -0.5260 C   0  0  0  0  0  0  0  0  0  0  0  0
   -0.5050    0.4180   -0.1630 C   0  0  0  0  0  0  0  0  0  0  0  0
   -1.7120   -0.1140   -0.5700 C   0  0  0  0  0  0  0  0  0  0  0  0
   -1.7100   -1.1480   -1.2710 O   0  0  0  0  0  0  0  0  0  0  0  0
  1  2  1  0
  2  3  1  0
  3  4  1  0
  4  5  1  0
  5  6  1  0
  5 23  1  0
  6  7  2  0
  6  8  1  0
  8  9  1  0
  9 10  1  0
  9 22  2  0
 10 11  1  0
 11 12  2  0
 11 13  1  0
 13 14  1  0
 13 21  2  0
 14 15  2  0
 14 20  1  0
 15 16  1  0
 16 17  2  0
 17 18  1  0
 17 20  1  0
 18 19  1  0
 21 22  1  0
 22 23  1  0
 23 24  2  0
M  END
