
     RDKit          3D

 26 28  0  0  0  0  0  0  0  0999 V2000
   -2.3900   -2.1860   -0.3400 C   0  0  0  0  0  0  0  0  0  0  0  0
   -1.5570   -0.9750   -0.5920 N   0  0  0  0  0  0  0  0  0  0  0  0
   -0.6100   -1.1410   -1.5000 C   0  0  0  0  0  0  0  0  0  0  0  0
    0.7520   -1.1300   -1.5170 C   0  0  0  0  0  0  0  0  0  0  0  0
    1.6960   -1.1930   -0.5570 N   0  0  0  0  0  0  0  0  0  0  0  0
    2.6240   -2.2050   -0.4890 C   0  0  0  0  0  0  0  0  0  0  0  0
    3.4490   -2.0420    0.5820 C   0  0  0  0  0  0  0  0  0  0  0  0
    4.5700   -2.9040    1.0070 C   0  0  0  0  0  0  0  0  0  0  0  0
    5.2270   -2.5930    2.0330 O   0  0  0  0  0  0  0  0  0  0  0  0
    3.0040   -0.8940    1.1760 C   0  0  0  0  0  0  0  0  0  0  0  0
    1.9130   -0.3720    0.4590 C   0  0  0  0  0  0  0  0  0  0  0  0
    1.2560    0.8000    0.8000 C   0  0  0  0  0  0  0  0  0  0  0  0
    0.8040    0.7930    2.0210 O   0  0  0  0  0  0  0  0  0  0  0  0
    1.0030    1.9120    0.1340 N   0  0  0  0  0  0  0  0  0  0  0  0
    1.1510    2.2950   -1.0930 N   0  0  0  0  0  0  0  0  0  0  0  0
    0.5320    1.9720   -2.2390 C   0  0  0  0  0  0  0  0  0  0  0  0
    1.2610    1.8800   -3.2700 O   0  0  0  0  0  0  0  0  0  0  0  0
   -0.8120    1.7280   -2.4050 C   0  0  0  0  0  0  0  0  0  0  0  0
   -1.1340    1.2970   -3.5540 O   0  0  0  0  0  0  0  0  0  0  0  0
   -1.7930    1.8860   -1.5310 N   0  0  0  0  0  0  0  0  0  0  0  0
   -2.0060    1.4150   -0.2930 C   0  0  0  0  0  0  0  0  0  0  0  0
   -2.3930    2.3610    0.6580 C   0  0  0  0  0  0  0  0  0  0  0  0
   -2.6740    2.0700    1.9650 C   0  0  0  0  0  0  0  0  0  0  0  0
   -2.5790    0.7770    2.3920 C   0  0  0  0  0  0  0  0  0  0  0  0
   -2.1980   -0.1720    1.4620 C   0  0  0  0  0  0  0  0  0  0  0  0
   -1.9080    0.1090    0.1330 C   0  0  0  0  0  0  0  0  0  0  0  0
  1  2  1  0
  2  3  1  0
  2 26  1  0
  3  4  2  0
  4  5  1  0
  5  6  1  0
  5 11  1  0
  6  7  2  0
  7  8  1  0
  7 10  1  0
  8  9  2  0
 10 11  2  0
 11 12  1  0
 12 13  2  0
 12 14  1  0
 14 15  1  0
 15 16  1  0
 16 17  2  0
 16 18  1  0
 18 19  2  0
 18 20  1  0
 20 21  1  0
 21 22  2  0
 21 26  1  0
 22 23  1  0
 23 24  2  0
 24 25  1  0
 25 26  2  0
M  END
