
     RDKit          3D

 27 29  0  0  0  0  0  0  0  0999 V2000
   -2.1730   -3.9710    0.3430 C   0  0  0  0  0  0  0  0  0  0  0  0
   -2.8140   -2.6000    0.3460 C   0  0  0  0  0  0  0  0  0  0  0  0
   -1.8620   -1.5760    0.2330 O   0  0  0  0  0  0  0  0  0  0  0  0
   -2.2720   -0.2520    0.2190 C   0  0  0  0  0  0  0  0  0  0  0  0
   -3.6060    0.0210    0.3180 N   0  0  0  0  0  0  0  0  0  0  0  0
   -4.1450    1.2240    0.3190 C   0  0  0  0  0  0  0  0  0  0  0  0
   -5.5090    1.3930    0.4240 C   0  0  0  0  0  0  0  0  0  0  0  0
   -6.3000    0.4110    0.5230 O   0  0  0  0  0  0  0  0  0  0  0  0
   -6.0300    2.6620    0.4210 C   0  0  0  0  0  0  0  0  0  0  0  0
   -5.1540    3.7160    0.3130 C   0  0  0  0  0  0  0  0  0  0  0  0
   -3.8250    3.5310    0.2110 N   0  0  0  0  0  0  0  0  0  0  0  0
   -3.2650    2.2890    0.2100 C   0  0  0  0  0  0  0  0  0  0  0  0
   -1.9090    2.1060    0.1060 C   0  0  0  0  0  0  0  0  0  0  0  0
   -1.3930    0.7950    0.1110 C   0  0  0  0  0  0  0  0  0  0  0  0
    0.0570    0.6410   -0.0020 C   0  0  0  0  0  0  0  0  0  0  0  0
    1.0030    2.1450   -0.1310 Cl  0  0  0  0  0  0  0  0  0  0  0  0
    0.6740   -0.4710   -0.0130 C   0  0  0  0  0  0  0  0  0  0  0  0
    2.0830   -0.7720   -0.1170 C   0  0  0  0  0  0  0  0  0  0  0  0
    2.3950   -2.0510   -0.0970 O   0  0  0  0  0  0  0  0  0  0  0  0
    3.1810    0.0960   -0.2360 N   0  0  0  0  0  0  0  0  0  0  0  0
    4.5450   -0.2470   -0.3280 C   0  0  0  0  0  0  0  0  0  0  0  0
    5.4340    0.7550   -0.7430 C   0  0  0  0  0  0  0  0  0  0  0  0
    6.7890    0.5420   -0.8560 C   0  0  0  0  0  0  0  0  0  0  0  0
    7.2870   -0.7090   -0.5460 C   0  0  0  0  0  0  0  0  0  0  0  0
    6.4440   -1.7170   -0.1350 C   0  0  0  0  0  0  0  0  0  0  0  0
    6.9650   -2.9140    0.1560 F   0  0  0  0  0  0  0  0  0  0  0  0
    5.0660   -1.4720   -0.0290 C   0  0  0  0  0  0  0  0  0  0  0  0
  1  2  1  0
  2  3  1  0
  3  4  1  0
  4  5  2  0
  4 14  1  0
  5  6  1  0
  6  7  1  0
  6 12  2  0
  7  8  2  0
  7  9  1  0
  9 10  2  0
 10 11  1  0
 11 12  1  0
 12 13  1  0
 13 14  2  0
 14 15  1  0
 15 16  1  0
 15 17  2  3
 17 18  1  0
 18 19  2  0
 18 20  1  0
 20 21  1  0
 21 22  2  0
 21 27  1  0
 22 23  1  0
 23 24  2  0
 24 25  1  0
 25 26  1  0
 25 27  2  0
M  END
