
     RDKit          3D

 27 29  0  0  0  0  0  0  0  0999 V2000
   -3.5500    0.5070    3.6710 C   0  0  0  0  0  0  0  0  0  0  0  0
   -3.3820    0.5230    2.1800 C   0  0  0  0  0  0  0  0  0  0  0  0
   -4.0500    1.4740    1.4550 C   0  0  0  0  0  0  0  0  0  0  0  0
   -3.8850    1.4770    0.0870 C   0  0  0  0  0  0  0  0  0  0  0  0
   -3.0600    0.5300   -0.4970 C   0  0  0  0  0  0  0  0  0  0  0  0
   -2.4070   -0.3980    0.2000 N   0  0  0  0  0  0  0  0  0  0  0  0
   -1.5740   -1.3570   -0.3800 N   0  0  0  0  0  0  0  0  0  0  0  0
   -1.3810   -1.3800   -1.8100 C   0  0  0  0  0  0  0  0  0  0  0  0
   -2.1620   -2.0920   -2.6590 C   0  0  0  0  0  0  0  0  0  0  0  0
   -3.1850   -2.8260   -2.1180 F   0  0  0  0  0  0  0  0  0  0  0  0
   -1.9200   -2.0670   -4.0020 C   0  0  0  0  0  0  0  0  0  0  0  0
   -0.8730   -1.3130   -4.5230 C   0  0  0  0  0  0  0  0  0  0  0  0
   -0.0610   -0.5780   -3.6880 C   0  0  0  0  0  0  0  0  0  0  0  0
    1.2600    0.3740   -4.3310 Cl  0  0  0  0  0  0  0  0  0  0  0  0
   -0.3290   -0.6220   -2.3330 C   0  0  0  0  0  0  0  0  0  0  0  0
    0.5210    0.1420   -1.5020 N   0  0  0  0  0  0  0  0  0  0  0  0
    1.7030   -0.4030   -0.9510 C   0  0  0  0  0  0  0  0  0  0  0  0
    1.9690   -1.6010   -1.2340 O   0  0  0  0  0  0  0  0  0  0  0  0
    2.6000    0.3680   -0.0870 C   0  0  0  0  0  0  0  0  0  0  0  0
    3.6850   -0.2070    0.3900 C   0  0  0  0  0  0  0  0  0  0  0  0
    4.5790    0.5630    1.2530 C   0  0  0  0  0  0  0  0  0  0  0  0
    5.7640    0.1210    1.8430 C   0  0  0  0  0  0  0  0  0  0  0  0
    6.2760    1.1770    2.5690 C   0  0  0  0  0  0  0  0  0  0  0  0
    5.3930    2.2090    2.3940 C   0  0  0  0  0  0  0  0  0  0  0  0
    4.4070    1.8110    1.6130 O   0  0  0  0  0  0  0  0  0  0  0  0
   -2.5670   -0.4020    1.5340 C   0  0  0  0  0  0  0  0  0  0  0  0
   -1.9940   -1.2390    2.2880 O   0  0  0  0  0  0  0  0  0  0  0  0
  1  2  1  0
  2  3  2  0
  2 26  1  0
  3  4  1  0
  4  5  2  0
  5  6  1  0
  6  7  1  0
  6 26  1  0
  7  8  1  0
  8  9  2  0
  8 15  1  0
  9 10  1  0
  9 11  1  0
 11 12  2  0
 12 13  1  0
 13 14  1  0
 13 15  2  0
 15 16  1  0
 16 17  1  0
 17 18  2  0
 17 19  1  0
 19 20  2  3
 20 21  1  0
 21 22  2  0
 21 25  1  0
 22 23  1  0
 23 24  2  0
 24 25  1  0
 26 27  2  0
M  END
