
     RDKit          3D

 27 29  0  0  0  0  0  0  0  0999 V2000
   -1.5790    3.2930    1.7890 C   0  0  0  0  0  0  0  0  0  0  0  0
   -2.4280    2.2170    1.2150 C   0  0  0  0  0  0  0  0  0  0  0  0
   -2.1570    0.8700    1.2200 C   0  0  0  0  0  0  0  0  0  0  0  0
   -3.2130    0.2510    0.5800 C   0  0  0  0  0  0  0  0  0  0  0  0
   -3.4930   -1.1640    0.4030 C   0  0  0  0  0  0  0  0  0  0  0  0
   -4.7760   -1.6700    0.4190 C   0  0  0  0  0  0  0  0  0  0  0  0
   -6.1550   -0.6080    0.7310 Cl  0  0  0  0  0  0  0  0  0  0  0  0
   -5.0580   -3.0260    0.2300 C   0  0  0  0  0  0  0  0  0  0  0  0
   -4.0270   -3.8890    0.0220 C   0  0  0  0  0  0  0  0  0  0  0  0
   -2.7130   -3.4030   -0.0010 C   0  0  0  0  0  0  0  0  0  0  0  0
   -2.4530   -2.0430    0.1880 C   0  0  0  0  0  0  0  0  0  0  0  0
   -1.1510   -1.5380    0.0020 N   0  0  0  0  0  0  0  0  0  0  0  0
    0.0780   -2.2290    0.1100 C   0  0  0  0  0  0  0  0  0  0  0  0
    0.0170   -3.4670    0.4210 O   0  0  0  0  0  0  0  0  0  0  0  0
    1.3890   -1.6220   -0.1100 C   0  0  0  0  0  0  0  0  0  0  0  0
    1.5610   -0.3750   -0.4280 C   0  0  0  0  0  0  0  0  0  0  0  0
    2.8950    0.1800   -0.6360 C   0  0  0  0  0  0  0  0  0  0  0  0
    3.1640    1.4830   -0.9730 C   0  0  0  0  0  0  0  0  0  0  0  0
    4.5310    1.5970   -1.0740 C   0  0  0  0  0  0  0  0  0  0  0  0
    5.3240    2.8280   -1.4210 C   0  0  0  0  0  0  0  0  0  0  0  0
    5.7310    2.6650   -2.7280 F   0  0  0  0  0  0  0  0  0  0  0  0
    5.0450    0.3460   -0.7910 C   0  0  0  0  0  0  0  0  0  0  0  0
    6.4760    0.0560   -0.7960 C   0  0  0  0  0  0  0  0  0  0  0  0
    6.9150   -1.0950   -0.5340 O   0  0  0  0  0  0  0  0  0  0  0  0
    4.0470   -0.4530   -0.5410 O   0  0  0  0  0  0  0  0  0  0  0  0
   -4.0590    1.2510    0.2250 N   0  0  0  0  0  0  0  0  0  0  0  0
   -3.5940    2.4340    0.6040 N   0  0  0  0  0  0  0  0  0  0  0  0
  1  2  1  0
  2  3  1  0
  2 27  2  0
  3  4  2  0
  4  5  1  0
  4 26  1  0
  5  6  2  0
  5 11  1  0
  6  7  1  0
  6  8  1  0
  8  9  2  0
  9 10  1  0
 10 11  2  0
 11 12  1  0
 12 13  1  0
 13 14  2  0
 13 15  1  0
 15 16  2  3
 16 17  1  0
 17 18  2  0
 17 25  1  0
 18 19  1  0
 19 20  1  0
 19 22  2  0
 20 21  1  0
 22 23  1  0
 22 25  1  0
 23 24  2  0
 26 27  1  0
M  END
