
     RDKit          3D

 14 14  0  0  0  0  0  0  0  0999 V2000
   -3.3670    1.6310   -0.6970 C   0  0  0  0  0  0  0  0  0  0  0  0
   -1.9500    1.4690   -0.7140 N   0  0  0  0  0  0  0  0  0  0  0  0
   -1.3080    0.4730   -0.2590 C   0  0  0  0  0  0  0  0  0  0  0  0
    0.1680    0.4680   -0.3590 C   0  0  0  0  0  0  0  0  0  0  0  0
    0.8970   -0.5380    0.0950 C   0  0  0  0  0  0  0  0  0  0  0  0
    2.3510   -0.5090   -0.0210 C   0  0  0  0  0  0  0  0  0  0  0  0
    2.9840   -1.4960    0.4310 O   0  0  0  0  0  0  0  0  0  0  0  0
    3.0540    0.5170   -0.5860 O   0  0  0  0  0  0  0  0  0  0  0  0
    4.4740    0.5470   -0.7000 C   0  0  0  0  0  0  0  0  0  0  0  0
    0.1920   -1.6570    0.7070 C   0  0  0  0  0  0  0  0  0  0  0  0
    0.8840   -2.6080    1.1370 O   0  0  0  0  0  0  0  0  0  0  0  0
   -1.2750   -1.6650    0.8140 C   0  0  0  0  0  0  0  0  0  0  0  0
   -2.0010   -0.6530    0.3560 C   0  0  0  0  0  0  0  0  0  0  0  0
   -3.3860   -0.6920    0.4720 O   0  0  0  0  0  0  0  0  0  0  0  0
  1  2  1  0
  2  3  2  3
  3  4  1  0
  3 13  1  0
  4  5  2  0
  5  6  1  0
  5 10  1  0
  6  7  2  0
  6  8  1  0
  8  9  1  0
 10 11  2  0
 10 12  1  0
 12 13  2  0
 13 14  1  0
M  END
