
     RDKit          3D

 14 15  0  0  0  0  0  0  0  0999 V2000
    2.3340   -1.3740    0.9190 N   0  0  0  0  0  0  0  0  0  0  0  0
    1.6580   -1.2250   -0.3120 C   0  0  0  0  0  0  0  0  0  0  0  0
    1.2280   -2.2110   -0.9390 O   0  0  0  0  0  0  0  0  0  0  0  0
    1.4760    0.1710   -0.8370 C   0  0  1  0  0  0  0  0  0  0  0  0
    0.7470    0.1210   -2.1340 C   0  0  0  0  0  0  0  0  0  0  0  0
   -0.6320    0.4180   -2.0450 O   0  0  0  0  0  0  0  0  0  0  0  0
   -1.3180    0.2360   -0.8660 C   0  0  0  0  0  0  0  0  0  0  0  0
   -0.7110    0.4650    0.2870 C   0  0  0  0  0  0  0  0  0  0  0  0
   -1.4150    0.2790    1.5550 C   0  0  0  0  0  0  0  0  0  0  0  0
   -2.6740   -0.1210    1.6130 C   0  0  0  0  0  0  0  0  0  0  0  0
   -3.3280   -0.3670    0.4150 O   0  0  0  0  0  0  0  0  0  0  0  0
   -2.6760   -0.1960   -0.7930 N   0  0  0  0  0  0  0  0  0  0  0  0
    0.7100    0.9180    0.2400 C   0  0  2  0  0  0  0  0  0  0  0  0
    0.7030    2.2640   -0.1240 O   0  0  0  0  0  0  0  0  0  0  0  0
  1  2  1  0
  2  3  2  0
  4  2  1  1
  4  5  1  0
  4 13  1  0
  5  6  1  0
  6  7  1  0
  7  8  2  0
  7 12  1  0
  8  9  1  0
  8 13  1  0
  9 10  2  0
 10 11  1  0
 11 12  1  0
 13 14  1  6
M  END
