
     RDKit          3D

 14 14  0  0  0  0  0  0  0  0999 V2000
    2.9800   -1.5490    0.0110 C   0  0  0  0  0  0  0  0  0  0  0  0
    1.5370   -1.1650   -0.0920 C   0  0  0  0  0  0  0  0  0  0  0  0
    1.1210   -0.0070    0.2910 C   0  0  0  0  0  0  0  0  0  0  0  0
    2.0980    0.8910    0.8160 O   0  0  0  0  0  0  0  0  0  0  0  0
    1.8330    2.2540    0.6330 N   0  0  0  0  0  0  0  0  0  0  0  0
    1.1750    2.3880   -0.5670 N   0  0  0  0  0  0  0  0  0  0  0  0
   -0.1540    1.8230   -0.6120 C   0  0  0  0  0  0  0  0  0  0  0  0
   -0.2070    0.5520    0.2770 C   0  0  2  0  0  0  0  0  0  0  0  0
   -0.4600    1.1170    1.5610 O   0  0  0  0  0  0  0  0  0  0  0  0
   -1.3680   -0.2150   -0.1810 C   0  0  2  0  0  0  0  0  0  0  0  0
   -1.2730   -1.0260   -1.4010 C   0  0  0  0  0  0  0  0  0  0  0  0
   -2.4890    0.6780   -0.3420 O   0  0  0  0  0  0  0  0  0  0  0  0
   -1.8660   -1.1090    0.9710 C   0  0  0  0  0  0  0  0  0  0  0  0
   -0.9730   -2.0710    1.3510 O   0  0  0  0  0  0  0  0  0  0  0  0
  1  2  1  0
  2  3  2  3
  3  4  1  0
  3  8  1  0
  4  5  1  0
  5  6  1  0
  6  7  1  0
  7  8  1  0
  8  9  1  1
  8 10  1  0
 10 11  1  6
 10 12  1  0
 10 13  1  0
 13 14  1  0
M  END
