
     RDKit          3D

 18 18  0  0  0  0  0  0  0  0999 V2000
   -2.1100    3.7230   -0.2390 C   0  0  0  0  0  0  0  0  0  0  0  0
   -2.1910    2.3670    0.3860 C   0  0  0  0  0  0  0  0  0  0  0  0
   -1.4980    1.3670   -0.5090 C   0  0  0  0  0  0  0  0  0  0  0  0
   -0.9890    1.7590   -1.5630 O   0  0  0  0  0  0  0  0  0  0  0  0
   -1.4410   -0.0330   -0.1180 C   0  0  0  0  0  0  0  0  0  0  0  0
   -2.4500   -0.9070   -0.5320 C   0  0  0  0  0  0  0  0  0  0  0  0
   -3.6370   -0.5980   -1.4030 C   0  0  0  0  0  0  0  0  0  0  0  0
   -2.1540   -2.0530   -0.0070 O   0  0  0  0  0  0  0  0  0  0  0  0
   -1.0580   -2.0300    0.7080 C   0  0  0  0  0  0  0  0  0  0  0  0
   -0.4470   -3.1900    1.4440 C   0  0  0  0  0  0  0  0  0  0  0  0
   -1.3110   -4.4130    1.2080 C   0  0  0  0  0  0  0  0  0  0  0  0
   -0.5660   -0.7360    0.6590 C   0  0  0  0  0  0  0  0  0  0  0  0
    0.6470   -0.2520    1.2980 C   0  0  0  0  0  0  0  0  0  0  0  0
    1.8860   -0.1730    0.5160 C   0  0  0  0  0  0  0  0  0  0  0  0
    1.9020    0.6770   -0.7040 C   0  0  0  0  0  0  0  0  0  0  0  0
    3.3080    0.5890   -1.3090 C   0  0  0  0  0  0  0  0  0  0  0  0
    4.3750    1.0720   -0.3750 C   0  0  0  0  0  0  0  0  0  0  0  0
    4.1970    2.3990    0.0040 O   0  0  0  0  0  0  0  0  0  0  0  0
  1  2  1  0
  2  3  1  0
  3  4  2  0
  3  5  1  0
  5  6  2  0
  5 12  1  0
  6  7  1  0
  6  8  1  0
  8  9  1  0
  9 10  1  0
  9 12  2  0
 10 11  1  0
 12 13  1  0
 13 14  1  0
 14 15  1  0
 15 16  1  0
 16 17  1  0
 17 18  1  0
M  END
