
     RDKit          3D

 18 18  0  0  0  0  0  0  0  0999 V2000
   -6.8790    0.0700    0.9940 C   0  0  0  0  0  0  0  0  0  0  0  0
   -5.4750    0.3470    1.4010 C   0  0  0  0  0  0  0  0  0  0  0  0
   -4.4430   -0.1860    0.7700 C   0  0  0  0  0  0  0  0  0  0  0  0
   -4.5780   -1.1010   -0.3920 C   0  0  0  0  0  0  0  0  0  0  0  0
   -3.8680   -0.4540   -1.5630 C   0  0  0  0  0  0  0  0  0  0  0  0
   -2.3970   -0.2300   -1.2530 C   0  0  0  0  0  0  0  0  0  0  0  0
   -1.7370   -1.3970   -0.9770 O   0  0  0  0  0  0  0  0  0  0  0  0
   -0.4140   -1.1310   -0.6770 C   0  0  0  0  0  0  0  0  0  0  0  0
    0.3240   -0.4570   -1.8010 C   0  0  0  0  0  0  0  0  0  0  0  0
    1.7660   -0.2660   -1.2820 C   0  0  0  0  0  0  0  0  0  0  0  0
    1.6730    0.5250   -0.1490 O   0  0  0  0  0  0  0  0  0  0  0  0
    2.9180    0.7600    0.3620 C   0  0  2  0  0  0  0  0  0  0  0  0
    3.6530   -0.4970    0.7630 C   0  0  0  0  0  0  0  0  0  0  0  0
    4.9040   -0.1420    1.2880 O   0  0  0  0  0  0  0  0  0  0  0  0
    5.5500   -1.3290    1.6460 C   0  0  0  0  0  0  0  0  0  0  0  0
    2.9790    1.8320    1.4450 C   0  0  0  0  0  0  0  0  0  0  0  0
    4.1750    2.4090    0.7530 C   0  0  0  0  0  0  0  0  0  0  0  0
    3.7820    1.6730   -0.4880 C   0  0  0  0  0  0  0  0  0  0  0  0
  1  2  1  0
  2  3  2  3
  3  4  1  0
  4  5  1  0
  5  6  1  0
  6  7  1  0
  7  8  1  0
  8  9  1  0
  9 10  1  0
 10 11  1  0
 11 12  1  0
 12 13  1  1
 12 16  1  0
 12 18  1  0
 13 14  1  0
 14 15  1  0
 16 17  1  0
 17 18  1  0
M  END
