
     RDKit          3D

 20 21  0  0  0  0  0  0  0  0999 V2000
    4.7670    0.2690    0.9040 N   0  0  0  0  0  0  0  0  0  0  0  0
    4.0050    1.2930    0.3080 C   0  0  0  0  0  0  0  0  0  0  0  0
    4.5430    2.3620   -0.0150 O   0  0  0  0  0  0  0  0  0  0  0  0
    2.5450    1.1090    0.0580 C   0  0  0  0  0  0  0  0  0  0  0  0
    1.9670   -0.0230    0.3990 C   0  0  0  0  0  0  0  0  0  0  0  0
    0.5990   -0.3780    0.2420 C   0  0  0  0  0  0  0  0  0  0  0  0
    0.3140   -1.6230    0.6730 C   0  0  0  0  0  0  0  0  0  0  0  0
    1.3980   -2.3120    1.1830 O   0  0  0  0  0  0  0  0  0  0  0  0
   -0.9160   -2.3900    0.7020 C   0  0  0  0  0  0  0  0  0  0  0  0
   -1.0590   -3.3450    1.5020 O   0  0  0  0  0  0  0  0  0  0  0  0
   -2.0480   -2.1370   -0.1530 N   0  0  0  0  0  0  0  0  0  0  0  0
   -2.4520   -0.8460   -0.6270 C   0  0  0  0  0  0  0  0  0  0  0  0
   -3.7010   -0.8440   -1.0210 N   0  0  0  0  0  0  0  0  0  0  0  0
   -4.3490    0.2820   -1.5240 N   0  0  0  0  0  0  0  0  0  0  0  0
   -3.6480    1.4830   -1.6210 N   0  0  0  0  0  0  0  0  0  0  0  0
   -2.2710    1.5580   -1.2060 C   0  0  0  0  0  0  0  0  0  0  0  0
   -1.6570    2.6260   -1.2950 O   0  0  0  0  0  0  0  0  0  0  0  0
   -1.6350    0.3570   -0.6870 C   0  0  0  0  0  0  0  0  0  0  0  0
   -0.3600    0.5330   -0.3040 C   0  0  0  0  0  0  0  0  0  0  0  0
    0.0360    1.8290   -0.4840 O   0  0  0  0  0  0  0  0  0  0  0  0
  1  2  1  0
  2  3  2  0
  2  4  1  0
  4  5  2  3
  5  6  1  0
  6  7  2  0
  6 19  1  0
  7  8  1  0
  7  9  1  0
  9 10  2  0
  9 11  1  0
 11 12  1  0
 12 13  2  0
 12 18  1  0
 13 14  1  0
 14 15  1  0
 15 16  1  0
 16 17  2  0
 16 18  1  0
 18 19  2  0
 19 20  1  0
M  END
