
     RDKit          3D

 13 13  0  0  0  0  0  0  0  0999 V2000
   -1.6770   -1.8780    0.2090 N   0  0  0  0  0  0  0  0  0  0  0  0
   -0.8050   -0.7790    0.1000 C   0  0  0  0  0  0  0  0  0  0  0  0
    0.5680   -0.9950   -0.0320 C   0  0  0  0  0  0  0  0  0  0  0  0
    1.4450    0.0470   -0.1670 C   0  0  0  0  0  0  0  0  0  0  0  0
    2.9230   -0.1810   -0.2670 C   0  0  2  0  0  0  0  0  0  0  0  0
    3.1350   -1.5340   -0.0910 F   0  0  0  0  0  0  0  0  0  0  0  0
    3.5490    0.4560    0.8080 F   0  0  0  0  0  0  0  0  0  0  0  0
    3.4940    0.3230   -1.4120 F   0  0  0  0  0  0  0  0  0  0  0  0
    0.9300    1.3290   -0.1710 C   0  0  0  0  0  0  0  0  0  0  0  0
   -0.4390    1.5370   -0.0380 C   0  0  0  0  0  0  0  0  0  0  0  0
   -1.1600    3.3210   -0.0540 Br  0  0  0  0  0  0  0  0  0  0  0  0
   -1.3160    0.5130    0.0990 C   0  0  0  0  0  0  0  0  0  0  0  0
   -2.7000    0.7150    0.2530 N   0  0  0  0  0  0  0  0  0  0  0  0
  1  2  1  0
  2  3  2  0
  2 12  1  0
  3  4  1  0
  4  5  1  0
  4  9  2  0
  5  6  1  1
  5  7  1  0
  5  8  1  0
  9 10  1  0
 10 11  1  0
 10 12  2  0
 12 13  1  0
M  END
