
     RDKit          3D

 20 20  0  0  0  0  0  0  0  0999 V2000
   -4.4040    2.7150    0.1520 C   0  0  0  0  0  0  0  0  0  0  0  0
   -3.5990    1.9110   -0.8220 C   0  0  0  0  0  0  0  0  0  0  0  0
   -3.2150    0.5390   -0.2790 C   0  0  0  0  0  0  0  0  0  0  0  0
   -2.4030    0.6180    0.9520 C   0  0  0  0  0  0  0  0  0  0  0  0
   -2.0020   -0.6370    1.5830 C   0  0  0  0  0  0  0  0  0  0  0  0
   -1.1500   -1.6370    0.9470 C   0  0  1  0  0  0  0  0  0  0  0  0
   -1.5460   -2.3050   -0.3070 C   0  0  0  0  0  0  0  0  0  0  0  0
   -2.8700   -3.0630   -0.2050 C   0  0  0  0  0  0  0  0  0  0  0  0
   -3.2340   -3.7240   -1.4930 C   0  0  0  0  0  0  0  0  0  0  0  0
    0.2660   -1.1580    0.7590 C   0  0  0  0  0  0  0  0  0  0  0  0
    0.6080   -0.2140   -0.1770 C   0  0  0  0  0  0  0  0  0  0  0  0
    1.9380    0.1780   -0.2830 C   0  0  0  0  0  0  0  0  0  0  0  0
    2.9270   -0.3430    0.5120 C   0  0  0  0  0  0  0  0  0  0  0  0
    4.2490    0.0510    0.4000 O   0  0  0  0  0  0  0  0  0  0  0  0
    4.5860    1.0250   -0.5670 C   0  0  0  0  0  0  0  0  0  0  0  0
    6.0620    1.3310   -0.5480 C   0  0  0  0  0  0  0  0  0  0  0  0
    6.4050    2.2820   -1.4900 O   0  0  0  0  0  0  0  0  0  0  0  0
    5.7710    3.4870   -1.3200 C   0  0  0  0  0  0  0  0  0  0  0  0
    2.5760   -1.2900    1.4480 C   0  0  0  0  0  0  0  0  0  0  0  0
    1.2430   -1.6860    1.5580 C   0  0  0  0  0  0  0  0  0  0  0  0
  1  2  1  0
  2  3  1  0
  3  4  1  0
  4  5  1  0
  6  5  1  6
  6  7  1  0
  6 10  1  0
  7  8  1  0
  8  9  1  0
 10 11  2  0
 10 20  1  0
 11 12  1  0
 12 13  2  0
 13 14  1  0
 13 19  1  0
 14 15  1  0
 15 16  1  0
 16 17  1  0
 17 18  1  0
 19 20  2  0
M  END
