
     RDKit          3D

 20 20  0  0  0  0  0  0  0  0999 V2000
    6.5120   -1.3990   -1.6790 C   0  0  0  0  0  0  0  0  0  0  0  0
    6.6430    0.0400   -1.2280 C   0  0  0  0  0  0  0  0  0  0  0  0
    6.1620    0.2020    0.2000 C   0  0  0  0  0  0  0  0  0  0  0  0
    4.7280   -0.1860    0.3650 C   0  0  0  0  0  0  0  0  0  0  0  0
    3.8000    0.6460   -0.4940 C   0  0  0  0  0  0  0  0  0  0  0  0
    2.4870    0.2770   -0.3320 O   0  0  0  0  0  0  0  0  0  0  0  0
    1.6370    1.0270   -1.1090 C   0  0  0  0  0  0  0  0  0  0  0  0
    0.1940    0.6170   -0.9270 C   0  0  0  0  0  0  0  0  0  0  0  0
   -0.2290    0.7700    0.4170 O   0  0  0  0  0  0  0  0  0  0  0  0
   -1.5350    0.4320    0.7400 C   0  0  0  0  0  0  0  0  0  0  0  0
   -2.4140   -0.0440   -0.2170 C   0  0  0  0  0  0  0  0  0  0  0  0
   -3.7160   -0.3700    0.1590 C   0  0  0  0  0  0  0  0  0  0  0  0
   -4.6780   -0.8810   -0.8490 C   0  0  2  0  0  0  0  0  0  0  0  0
   -4.0220   -1.0160   -2.2140 C   0  0  0  0  0  0  0  0  0  0  0  0
   -5.8540    0.0700   -1.0390 C   0  0  0  0  0  0  0  0  0  0  0  0
   -4.1220   -0.2190    1.4660 C   0  0  0  0  0  0  0  0  0  0  0  0
   -5.5030   -0.5730    1.8320 C   0  0  0  0  0  0  0  0  0  0  0  0
   -3.2560    0.2580    2.4470 C   0  0  0  0  0  0  0  0  0  0  0  0
   -1.9720    0.5740    2.0510 C   0  0  0  0  0  0  0  0  0  0  0  0
   -0.9890    1.0910    3.0470 C   0  0  0  0  0  0  0  0  0  0  0  0
  1  2  1  0
  2  3  1  0
  3  4  1  0
  4  5  1  0
  5  6  1  0
  6  7  1  0
  7  8  1  0
  8  9  1  0
  9 10  1  0
 10 11  2  0
 10 19  1  0
 11 12  1  0
 12 13  1  0
 12 16  2  0
 13 14  1  6
 13 15  1  0
 16 17  1  0
 16 18  1  0
 18 19  2  0
 19 20  1  0
M  END
