
     RDKit          3D

 13 12  0  0  0  0  0  0  0  0999 V2000
    1.9410    0.3790    1.6170 N   0  0  0  0  0  0  0  0  0  0  0  0
    2.1130   -0.0500    0.2630 C   0  0  0  0  0  0  0  0  0  0  0  0
    0.9490   -0.7950   -0.2370 C   0  0  0  0  0  0  0  0  0  0  0  0
   -0.3910   -0.2600   -0.3280 C   0  0  0  0  0  0  0  0  0  0  0  0
   -1.3970   -1.2870   -0.7360 C   0  0  0  0  0  0  0  0  0  0  0  0
   -1.2870   -2.5170   -1.0130 C   0  0  0  0  0  0  0  0  0  0  0  0
    0.2930   -3.5550   -1.0050 Br  0  0  0  0  0  0  0  0  0  0  0  0
   -0.8950    0.9220   -0.1300 C   0  0  0  0  0  0  0  0  0  0  0  0
   -2.3580    1.0050   -0.3410 N   0  0  0  0  0  0  0  0  0  0  0  0
   -0.2920    2.1700    0.2520 C   0  0  2  0  0  0  0  0  0  0  0  0
    0.9410    2.4910   -0.2360 F   0  0  0  0  0  0  0  0  0  0  0  0
   -0.3390    2.3520    1.6480 F   0  0  0  0  0  0  0  0  0  0  0  0
   -1.0920    3.2740   -0.2150 F   0  0  0  0  0  0  0  0  0  0  0  0
  1  2  1  0
  2  3  1  0
  3  4  1  0
  4  5  1  0
  4  8  2  3
  5  6  2  3
  6  7  1  0
  8  9  1  0
  8 10  1  0
 10 11  1  6
 10 12  1  0
 10 13  1  0
M  END
