
     RDKit          3D

 35 39  0  0  0  0  0  0  0  0999 V2000
    3.1730   -2.7590    0.3780 C   0  0  0  0  0  0  0  0  0  0  0  0
    3.0300   -1.4300    1.0850 C   0  0  0  0  0  0  0  0  0  0  0  0
    2.7300   -0.3290    0.2290 N   0  0  0  0  0  0  0  0  0  0  0  0
    3.5810    0.5430   -0.4390 C   0  0  0  0  0  0  0  0  0  0  0  0
    2.9360    1.5150   -1.0520 O   0  0  0  0  0  0  0  0  0  0  0  0
    5.0080    0.5860   -0.5850 C   0  0  0  0  0  0  0  0  0  0  0  0
    5.5680    1.6760   -1.2730 C   0  0  0  0  0  0  0  0  0  0  0  0
    6.9210    1.7760   -1.4670 C   0  0  0  0  0  0  0  0  0  0  0  0
    7.7680    0.7950   -0.9830 C   0  0  0  0  0  0  0  0  0  0  0  0
    9.2240    0.9300   -1.2070 C   0  0  0  0  0  0  0  0  0  0  0  0
    9.7520    1.6940   -0.0840 N   0  0  0  0  0  0  0  0  0  0  0  0
    7.2090   -0.2620   -0.3140 C   0  0  0  0  0  0  0  0  0  0  0  0
    5.8280   -0.3850   -0.1040 C   0  0  0  0  0  0  0  0  0  0  0  0
    1.2970   -0.0660    0.0430 C   0  0  0  0  0  0  0  0  0  0  0  0
    0.5570    0.1760    1.1720 C   0  0  0  0  0  0  0  0  0  0  0  0
   -0.8180    0.4390    1.1000 C   0  0  0  0  0  0  0  0  0  0  0  0
   -1.3720    0.4400   -0.1440 C   0  0  0  0  0  0  0  0  0  0  0  0
   -2.8020    0.7160   -0.3560 N   0  0  0  0  0  0  0  0  0  0  0  0
   -3.7250    0.0410    0.2170 C   0  0  0  0  0  0  0  0  0  0  0  0
   -3.5260   -1.1160    1.1680 C   0  0  1  0  0  0  0  0  0  0  0  0
   -4.0880   -0.8190    2.5500 C   0  0  0  0  0  0  0  0  0  0  0  0
   -3.8240   -2.4860    0.6670 C   0  0  0  0  0  0  0  0  0  0  0  0
   -2.4340   -2.0340    0.9320 C   0  0  0  0  0  0  0  0  0  0  0  0
   -5.0620    0.4140   -0.0420 C   0  0  0  0  0  0  0  0  0  0  0  0
   -6.2780   -0.1860    0.4790 N   0  0  0  0  0  0  0  0  0  0  0  0
   -7.5380    0.3330    0.1000 C   0  0  0  0  0  0  0  0  0  0  0  0
   -8.4190    0.8630    0.9170 C   0  0  0  0  0  0  0  0  0  0  0  0
   -9.6190    1.2950    0.1570 C   0  0  0  0  0  0  0  0  0  0  0  0
   -9.2820    0.9250   -1.2390 C   0  0  0  0  0  0  0  0  0  0  0  0
   -8.0710    0.3680   -1.2480 C   0  0  0  0  0  0  0  0  0  0  0  0
   -4.9020    1.7590   -1.1300 S   0  0  0  0  0  0  0  0  0  0  0  0
   -3.0630    1.7530   -1.1830 C   0  0  0  0  0  0  0  0  0  0  0  0
   -2.3720    2.5490   -1.8450 O   0  0  0  0  0  0  0  0  0  0  0  0
   -0.6500    0.2010   -1.2920 C   0  0  0  0  0  0  0  0  0  0  0  0
    0.7240   -0.0590   -1.1870 C   0  0  0  0  0  0  0  0  0  0  0  0
  1  2  1  0
  2  3  1  0
  3  4  1  0
  3 14  1  0
  4  5  2  0
  4  6  1  0
  6  7  2  0
  6 13  1  0
  7  8  1  0
  8  9  2  0
  9 10  1  0
  9 12  1  0
 10 11  1  0
 12 13  2  0
 14 15  2  0
 14 35  1  0
 15 16  1  0
 16 17  2  0
 17 18  1  0
 17 34  1  0
 18 19  1  0
 18 32  1  0
 19 20  1  0
 19 24  2  0
 20 21  1  1
 20 22  1  0
 20 23  1  0
 22 23  1  0
 24 25  1  0
 24 31  1  0
 25 26  1  0
 26 27  2  0
 26 30  1  0
 27 28  1  0
 28 29  1  0
 29 30  2  0
 31 32  1  0
 32 33  2  0
 34 35  2  0
M  CHG  1  11   1
M  END
