
     RDKit          3D

 35 38  0  0  0  0  0  0  0  0999 V2000
   -5.1720   -1.0830   -0.1350 O   0  0  0  0  0  0  0  0  0  0  0  0
   -4.7160    0.0990    0.0900 C   0  0  0  0  0  0  0  0  0  0  0  0
   -3.3630    0.3130    0.3910 N   0  0  0  0  0  0  0  0  0  0  0  0
   -2.4130   -0.7350    0.4810 C   0  0  0  0  0  0  0  0  0  0  0  0
   -2.7340   -2.0430    0.7090 C   0  0  0  0  0  0  0  0  0  0  0  0
   -1.7050   -2.9840    0.7480 C   0  0  0  0  0  0  0  0  0  0  0  0
   -0.3800   -2.6680    0.5690 C   0  0  0  0  0  0  0  0  0  0  0  0
   -0.0820   -1.3580    0.3430 C   0  0  0  0  0  0  0  0  0  0  0  0
   -1.0620   -0.4030    0.2970 C   0  0  0  0  0  0  0  0  0  0  0  0
    1.2620   -0.7280    0.1150 C   0  0  0  0  0  0  0  0  0  0  0  0
    2.0550   -1.6630   -0.6170 N   0  0  0  0  0  0  0  0  0  0  0  0
    3.2560   -0.9640   -1.6200 S   0  0  1  0  0  0  0  0  0  0  0  0
    3.8750   -2.0760   -2.4240 O   0  0  0  0  0  0  0  0  0  0  0  0
    2.5650   -0.0460   -2.5910 O   0  0  0  0  0  0  0  0  0  0  0  0
    4.4410   -0.0460   -0.7670 C   0  0  0  0  0  0  0  0  0  0  0  0
    5.5810   -0.6480   -0.2600 C   0  0  0  0  0  0  0  0  0  0  0  0
    6.5340    0.0820    0.4200 C   0  0  0  0  0  0  0  0  0  0  0  0
    6.3440    1.4330    0.5960 C   0  0  0  0  0  0  0  0  0  0  0  0
    5.2280    2.0600    0.1080 C   0  0  0  0  0  0  0  0  0  0  0  0
    5.0490    3.5050    0.3100 C   0  0  2  0  0  0  0  0  0  0  0  0
    6.3180    4.0850    0.4200 F   0  0  0  0  0  0  0  0  0  0  0  0
    4.3050    3.7580    1.4530 F   0  0  0  0  0  0  0  0  0  0  0  0
    4.3820    4.0440   -0.7620 F   0  0  0  0  0  0  0  0  0  0  0  0
    4.2770    1.3180   -0.5730 C   0  0  0  0  0  0  0  0  0  0  0  0
    2.5900   -2.7140    0.2290 C   0  0  0  0  0  0  0  0  0  0  0  0
    1.7440   -3.9840    0.0930 C   0  0  0  0  0  0  0  0  0  0  0  0
    0.4620   -3.7910    0.6530 O   0  0  0  0  0  0  0  0  0  0  0  0
   -5.7000    1.1700    0.0040 C   0  0  0  0  0  0  0  0  0  0  0  0
   -5.4380    2.4770    0.3120 C   0  0  0  0  0  0  0  0  0  0  0  0
   -4.2460    2.9150    0.7540 F   0  0  0  0  0  0  0  0  0  0  0  0
   -6.4460    3.4320    0.1790 C   0  0  0  0  0  0  0  0  0  0  0  0
   -7.7140    3.1110   -0.2550 C   0  0  0  0  0  0  0  0  0  0  0  0
   -7.9930    1.7970   -0.5680 C   0  0  0  0  0  0  0  0  0  0  0  0
   -6.9990    0.8730   -0.4340 C   0  0  0  0  0  0  0  0  0  0  0  0
   -7.4330   -0.7920   -0.8560 Cl  0  0  0  0  0  0  0  0  0  0  0  0
  1  2  2  0
  2  3  1  0
  2 28  1  0
  3  4  1  0
  4  5  2  0
  4  9  1  0
  5  6  1  0
  6  7  2  0
  7  8  1  0
  7 27  1  0
  8  9  2  0
  8 10  1  0
 10 11  1  0
 12 11  1  1
 11 25  1  0
 12 13  2  0
 12 14  2  0
 12 15  1  0
 15 16  2  0
 15 24  1  0
 16 17  1  0
 17 18  2  0
 18 19  1  0
 19 20  1  0
 19 24  2  0
 20 21  1  1
 20 22  1  0
 20 23  1  0
 25 26  1  0
 26 27  1  0
 28 29  2  0
 28 34  1  0
 29 30  1  0
 29 31  1  0
 31 32  2  0
 32 33  1  0
 33 34  2  0
 34 35  1  0
M  END
