
     RDKit          3D

 35 38  0  0  0  0  0  0  0  0999 V2000
   -4.8350   -6.0080    0.3530 C   0  0  0  0  0  0  0  0  0  0  0  0
   -4.1260   -4.6970    0.2850 C   0  0  0  0  0  0  0  0  0  0  0  0
   -4.4660   -3.6700    1.1310 C   0  0  0  0  0  0  0  0  0  0  0  0
   -3.7910   -2.4380    1.0390 C   0  0  0  0  0  0  0  0  0  0  0  0
   -2.8040   -2.2980    0.1030 C   0  0  0  0  0  0  0  0  0  0  0  0
   -2.1480   -0.9470    0.0230 N   0  0  0  0  0  0  0  0  0  0  0  0
   -2.8300   -0.0820   -0.8730 C   0  0  0  0  0  0  0  0  0  0  0  0
   -3.0480    1.2980   -0.5000 C   0  0  0  0  0  0  0  0  0  0  0  0
   -2.1200    2.3180   -0.5280 C   0  0  0  0  0  0  0  0  0  0  0  0
   -2.7120    3.5220   -0.4120 N   0  0  0  0  0  0  0  0  0  0  0  0
   -4.0540    3.2900   -0.3030 C   0  0  0  0  0  0  0  0  0  0  0  0
   -4.2620    1.9680   -0.3480 C   0  0  0  0  0  0  0  0  0  0  0  0
   -5.5780    1.3460   -0.0880 C   0  0  0  0  0  0  0  0  0  0  0  0
   -6.4890    2.4020    0.5570 C   0  0  0  0  0  0  0  0  0  0  0  0
   -6.4670    3.6690   -0.2570 C   0  0  0  0  0  0  0  0  0  0  0  0
   -5.1160    4.2990   -0.1420 C   0  0  0  0  0  0  0  0  0  0  0  0
   -0.7890   -0.6910    0.9130 S   0  0  2  0  0  0  0  0  0  0  0  0
   -0.6190   -1.8690    1.9660 O   0  0  0  0  0  0  0  0  0  0  0  0
   -1.0420    0.5230    1.9130 O   0  0  0  0  0  0  0  0  0  0  0  0
    0.7960   -0.4280    0.3380 C   0  0  0  0  0  0  0  0  0  0  0  0
    1.3970    0.8310    0.3720 C   0  0  0  0  0  0  0  0  0  0  0  0
    2.6910    1.0460   -0.0230 C   0  0  0  0  0  0  0  0  0  0  0  0
    3.2470    2.3590   -0.0290 N   0  0  0  0  0  0  0  0  0  0  0  0
    3.4860   -0.0090   -0.4880 C   0  0  0  0  0  0  0  0  0  0  0  0
    4.9420    0.1460   -0.6650 C   0  0  0  0  0  0  0  0  0  0  0  0
    5.6030    0.5140    0.3890 C   0  0  0  0  0  0  0  0  0  0  0  0
    7.0110    0.7790    0.6410 C   0  0  0  0  0  0  0  0  0  0  0  0
    7.8720    0.8110   -0.5250 N   0  0  2  0  0  0  0  0  0  0  0  0
    9.1460    0.2100   -0.1830 C   0  0  0  0  0  0  0  0  0  0  0  0
    8.1740    2.2020   -0.8680 C   0  0  0  0  0  0  0  0  0  0  0  0
    2.9240   -1.2630   -0.5430 C   0  0  0  0  0  0  0  0  0  0  0  0
    1.6320   -1.4390   -0.1360 C   0  0  0  0  0  0  0  0  0  0  0  0
    1.1150   -2.8400   -0.0660 C   0  0  0  0  0  0  0  0  0  0  0  0
   -2.4910   -3.3090   -0.7150 C   0  0  0  0  0  0  0  0  0  0  0  0
   -3.1180   -4.5350   -0.6660 C   0  0  0  0  0  0  0  0  0  0  0  0
  1  2  1  0
  2  3  2  0
  2 35  1  0
  3  4  1  0
  4  5  2  0
  5  6  1  0
  5 34  1  0
  6  7  1  0
 17  6  1  6
  7  8  1  0
  8  9  2  0
  8 12  1  0
  9 10  1  0
 10 11  1  0
 11 12  2  0
 11 16  1  0
 12 13  1  0
 13 14  1  0
 14 15  1  0
 15 16  1  0
 17 18  2  0
 17 19  2  0
 17 20  1  0
 20 21  2  0
 20 32  1  0
 21 22  1  0
 22 23  1  0
 22 24  2  0
 24 25  1  0
 24 31  1  0
 25 26  2  3
 26 27  1  0
 27 28  1  0
 28 29  1  1
 28 30  1  0
 31 32  2  0
 32 33  1  0
 34 35  2  0
M  CHG  1  28   1
M  END
