
     RDKit          3D

 35 39  0  0  0  0  0  0  0  0999 V2000
    5.2220   -0.5590    3.5210 C   0  0  0  0  0  0  0  0  0  0  0  0
    5.3150   -0.2860    2.0620 C   0  0  0  0  0  0  0  0  0  0  0  0
    6.5150   -0.4280    1.4120 C   0  0  0  0  0  0  0  0  0  0  0  0
    6.6170   -0.1780    0.0620 C   0  0  0  0  0  0  0  0  0  0  0  0
    5.5020    0.2260   -0.6740 C   0  0  0  0  0  0  0  0  0  0  0  0
    5.5890    0.4840   -2.0230 C   0  0  0  0  0  0  0  0  0  0  0  0
    4.4710    0.8850   -2.7210 C   0  0  0  0  0  0  0  0  0  0  0  0
    3.2370    1.0430   -2.1090 C   0  0  0  0  0  0  0  0  0  0  0  0
    3.1500    0.7850   -0.7650 C   0  0  0  0  0  0  0  0  0  0  0  0
    4.2870    0.3760   -0.0510 C   0  0  0  0  0  0  0  0  0  0  0  0
    4.2130    0.1170    1.3120 C   0  0  0  0  0  0  0  0  0  0  0  0
    1.8920    0.9090    0.0100 C   0  0  0  0  0  0  0  0  0  0  0  0
    0.7780    1.0220   -0.9470 N   0  0  0  0  0  0  0  0  0  0  0  0
    0.3540   -0.2320   -1.4150 C   0  0  0  0  0  0  0  0  0  0  0  0
   -0.4840   -1.0200   -0.5370 C   0  0  0  0  0  0  0  0  0  0  0  0
   -0.7070   -2.2740   -0.9360 O   0  0  0  0  0  0  0  0  0  0  0  0
   -1.0970   -0.6680    0.6550 N   0  0  0  0  0  0  0  0  0  0  0  0
   -1.1670    0.6220    1.2620 C   0  0  0  0  0  0  0  0  0  0  0  0
   -2.4740    1.2720    0.8610 C   0  0  0  0  0  0  0  0  0  0  0  0
   -3.3650    1.7060    1.8260 C   0  0  0  0  0  0  0  0  0  0  0  0
   -4.5160    2.2920    1.4740 N   0  0  0  0  0  0  0  0  0  0  0  0
   -4.8470    2.4780    0.1910 C   0  0  0  0  0  0  0  0  0  0  0  0
   -3.9930    2.0630   -0.7930 C   0  0  0  0  0  0  0  0  0  0  0  0
   -4.3220    2.2610   -2.1980 C   0  0  0  0  0  0  0  0  0  0  0  0
   -5.5670    2.8990   -2.5260 N   0  0  0  0  0  0  0  0  0  0  0  0
   -3.5680    1.8990   -3.1360 O   0  0  0  0  0  0  0  0  0  0  0  0
   -2.7880    1.4510   -0.4510 C   0  0  0  0  0  0  0  0  0  0  0  0
   -1.7440   -1.8080    1.3830 C   0  0  0  0  0  0  0  0  0  0  0  0
   -3.1500   -1.9490    0.9030 C   0  0  2  0  0  0  0  0  0  0  0  0
   -3.8200   -3.0610    1.6620 C   0  0  0  0  0  0  0  0  0  0  0  0
   -4.0960   -4.1110    0.6160 C   0  0  0  0  0  0  0  0  0  0  0  0
   -4.0390   -3.3100   -0.6570 C   0  0  0  0  0  0  0  0  0  0  0  0
   -3.2780   -2.2060   -0.4460 O   0  0  0  0  0  0  0  0  0  0  0  0
    1.0250    1.9950   -1.9640 C   0  0  0  0  0  0  0  0  0  0  0  0
    2.0790    1.4940   -2.9520 C   0  0  0  0  0  0  0  0  0  0  0  0
  1  2  1  0
  2  3  2  0
  2 11  1  0
  3  4  1  0
  4  5  2  0
  5  6  1  0
  5 10  1  0
  6  7  2  0
  7  8  1  0
  8  9  2  0
  8 35  1  0
  9 10  1  0
  9 12  1  0
 10 11  2  0
 12 13  1  0
 13 14  1  0
 13 34  1  0
 14 15  1  0
 15 16  2  0
 15 17  1  0
 17 18  1  0
 17 28  1  0
 18 19  1  0
 19 20  2  0
 19 27  1  0
 20 21  1  0
 21 22  2  0
 22 23  1  0
 23 24  1  0
 23 27  2  0
 24 25  1  0
 24 26  2  0
 29 28  1  1
 29 30  1  0
 29 33  1  0
 30 31  1  0
 31 32  1  0
 32 33  1  0
 34 35  1  0
M  END
