
     RDKit          3D

 17 18  0  0  0  0  0  0  0  0999 V2000
   -2.9930    1.8390    1.5670 N   0  0  0  0  0  0  0  0  0  0  0  0
   -2.6000    0.8020    0.9290 C   0  0  0  0  0  0  0  0  0  0  0  0
   -1.1950    0.3150    0.9150 C   0  0  0  0  0  0  0  0  0  0  0  0
   -0.8820   -0.0290   -0.5190 C   0  0  1  0  0  0  0  0  0  0  0  0
    0.5420   -0.0090   -0.8930 C   0  0  0  0  0  0  0  0  0  0  0  0
    1.4760   -0.9140   -0.1920 C   0  0  1  0  0  0  0  0  0  0  0  0
    2.8210   -0.6890   -0.7680 N   0  0  0  0  0  0  0  0  0  0  0  0
    3.4430    0.5590   -0.5320 C   0  0  0  0  0  0  0  0  0  0  0  0
    4.2500    1.0090   -1.4050 O   0  0  0  0  0  0  0  0  0  0  0  0
    3.1490    1.2600    0.6600 N   0  0  0  0  0  0  0  0  0  0  0  0
    2.2370    0.6930    1.5870 N   0  0  0  0  0  0  0  0  0  0  0  0
    1.6630   -0.5670    1.2600 C   0  0  0  0  0  0  0  0  0  0  0  0
    1.3340   -1.3430    2.1800 O   0  0  0  0  0  0  0  0  0  0  0  0
   -1.6300   -1.2820   -0.9100 C   0  0  0  0  0  0  0  0  0  0  0  0
   -3.0750   -1.0440   -0.6680 C   0  0  0  0  0  0  0  0  0  0  0  0
   -3.9380   -1.7820   -1.1930 O   0  0  0  0  0  0  0  0  0  0  0  0
   -3.5300    0.0360    0.1720 N   0  0  0  0  0  0  0  0  0  0  0  0
  1  2  2  0
  2  3  1  0
  2 17  1  0
  3  4  1  0
  4  5  1  1
  4 14  1  0
  6  5  1  6
  6  7  1  0
  6 12  1  0
  7  8  1  0
  8  9  2  0
  8 10  1  0
 10 11  1  0
 11 12  1  0
 12 13  2  0
 14 15  1  0
 15 16  2  0
 15 17  1  0
M  END
