
     RDKit          3D

 17 18  0  0  0  0  0  0  0  0999 V2000
   -0.4490    1.8510   -1.1480 C   0  0  0  0  0  0  0  0  0  0  0  0
   -0.1030    0.5330   -1.4890 N   0  0  0  0  0  0  0  0  0  0  0  0
    0.0800   -0.4500   -0.4980 C   0  0  1  0  0  0  0  0  0  0  0  0
    1.2820   -0.1700    0.3440 C   0  0  0  0  0  0  0  0  0  0  0  0
    1.3070   -0.1070    1.6700 N   0  0  0  0  0  0  0  0  0  0  0  0
    2.5720    0.1730    2.1050 C   0  0  0  0  0  0  0  0  0  0  0  0
    3.3180    0.2790    1.0010 N   0  0  0  0  0  0  0  0  0  0  0  0
    2.5750    0.0780   -0.0960 C   0  0  0  0  0  0  0  0  0  0  0  0
    2.9900    0.0960   -1.5360 C   0  0  0  0  0  0  0  0  0  0  0  0
   -1.0350   -0.8700    0.3490 C   0  0  1  0  0  0  0  0  0  0  0  0
   -0.5660   -1.8880    1.2360 O   0  0  0  0  0  0  0  0  0  0  0  0
   -1.8440    0.0670    1.0800 C   0  0  0  0  0  0  0  0  0  0  0  0
   -1.6370    1.3530    1.6260 N   0  0  0  0  0  0  0  0  0  0  0  0
   -3.0280   -0.5070    1.2420 N   0  0  0  0  0  0  0  0  0  0  0  0
   -3.0390   -1.7610    0.6630 O   0  0  0  0  0  0  0  0  0  0  0  0
   -2.1290   -1.6250   -0.4480 C   0  0  1  0  0  0  0  0  0  0  0  0
   -2.6950   -0.7790   -1.3660 O   0  0  0  0  0  0  0  0  0  0  0  0
  1  2  1  0
  3  2  1  1
  3  4  1  0
  3 10  1  0
  4  5  1  0
  4  8  2  0
  5  6  1  0
  6  7  2  0
  7  8  1  0
  8  9  1  0
 10 11  1  1
 10 12  1  0
 10 16  1  0
 12 13  1  0
 12 14  2  0
 14 15  1  0
 15 16  1  0
 16 17  1  6
M  END
