
     RDKit          3D

 17 18  0  0  0  0  0  0  0  0999 V2000
    5.2940   -0.5140   -0.5500 C   0  0  0  0  0  0  0  0  0  0  0  0
    3.8330   -0.3330   -0.8140 C   0  0  0  0  0  0  0  0  0  0  0  0
    3.4110    0.1470   -1.8970 O   0  0  0  0  0  0  0  0  0  0  0  0
    2.9400   -0.7300    0.2190 N   0  0  0  0  0  0  0  0  0  0  0  0
    1.5430   -0.5860    0.0350 N   0  0  0  0  0  0  0  0  0  0  0  0
    0.8880    0.6370    0.3000 C   0  0  0  0  0  0  0  0  0  0  0  0
    1.6840    1.5640    0.7120 O   0  0  0  0  0  0  0  0  0  0  0  0
   -0.5170    0.8940    0.1480 C   0  0  0  0  0  0  0  0  0  0  0  0
   -1.4170    0.0590   -0.2530 C   0  0  0  0  0  0  0  0  0  0  0  0
   -1.3820   -1.3520   -0.6740 C   0  0  0  0  0  0  0  0  0  0  0  0
   -2.7770   -1.6870   -1.0380 N   0  0  0  0  0  0  0  0  0  0  0  0
   -3.5140   -0.8780   -0.0540 C   0  0  0  0  0  0  0  0  0  0  0  0
   -2.8530    0.4710   -0.3720 C   0  0  1  0  0  0  0  0  0  0  0  0
   -3.2550    1.4890    0.5340 N   0  0  0  0  0  0  0  0  0  0  0  0
   -2.3730    2.5690    0.3670 N   0  0  0  0  0  0  0  0  0  0  0  0
   -0.9960    2.2530    0.4890 C   0  0  0  0  0  0  0  0  0  0  0  0
   -0.1730    3.1150    0.8860 O   0  0  0  0  0  0  0  0  0  0  0  0
  1  2  1  0
  2  3  2  0
  2  4  1  0
  4  5  1  0
  5  6  1  0
  6  7  2  0
  6  8  1  0
  8  9  2  0
  8 16  1  0
  9 10  1  0
  9 13  1  0
 10 11  1  0
 11 12  1  0
 13 12  1  1
 13 14  1  0
 14 15  1  0
 15 16  1  0
 16 17  2  0
M  END
