
     RDKit          3D

 17 18  0  0  0  0  0  0  0  0999 V2000
    4.9030    0.7720    0.1600 C   0  0  0  0  0  0  0  0  0  0  0  0
    3.8540    0.3820   -0.8290 C   0  0  0  0  0  0  0  0  0  0  0  0
    2.5540    0.0340   -0.1320 C   0  0  0  0  0  0  0  0  0  0  0  0
    2.3680    0.0600    1.1490 N   0  0  0  0  0  0  0  0  0  0  0  0
    1.0450   -0.3180    1.4680 C   0  0  0  0  0  0  0  0  0  0  0  0
    0.6180   -0.6800    2.5670 O   0  0  0  0  0  0  0  0  0  0  0  0
    0.2940   -0.1910    0.2280 C   0  0  1  0  0  0  0  0  0  0  0  0
   -0.8270   -1.1720    0.0750 C   0  0  0  0  0  0  0  0  0  0  0  0
   -1.8810   -0.3840   -0.6640 C   0  0  1  0  0  0  0  0  0  0  0  0
   -3.0040   -0.1610    0.2390 N   0  0  0  0  0  0  0  0  0  0  0  0
   -4.3270   -0.5590   -0.0450 C   0  0  0  0  0  0  0  0  0  0  0  0
   -5.4120   -0.3230    0.8700 N   0  0  0  0  0  0  0  0  0  0  0  0
   -4.5370   -1.1410   -1.1480 O   0  0  0  0  0  0  0  0  0  0  0  0
   -1.2980    0.9490   -0.9390 C   0  0  0  0  0  0  0  0  0  0  0  0
   -1.6800    1.7550   -1.8330 O   0  0  0  0  0  0  0  0  0  0  0  0
   -0.2480    1.1190   -0.0050 N   0  0  0  0  0  0  0  0  0  0  0  0
    1.3500   -0.3780   -0.7460 N   0  0  0  0  0  0  0  0  0  0  0  0
  1  2  1  0
  2  3  1  0
  3  4  2  0
  3 17  1  0
  4  5  1  0
  5  6  2  0
  5  7  1  0
  7  8  1  1
  7 16  1  0
  7 17  1  0
  8  9  1  0
  9 10  1  1
  9 14  1  0
 10 11  1  0
 11 12  1  0
 11 13  2  0
 14 15  2  0
 14 16  1  0
M  END
