
     RDKit          3D

 29 32  0  0  0  0  0  0  0  0999 V2000
    7.3870    0.6520   -2.3760 C   0  0  0  0  0  0  0  0  0  0  0  0
    6.9880   -0.7070   -1.8920 C   0  0  0  0  0  0  0  0  0  0  0  0
    5.9280   -0.5870   -0.8420 C   0  0  0  0  0  0  0  0  0  0  0  0
    4.6620   -0.8730   -1.2210 C   0  0  0  0  0  0  0  0  0  0  0  0
    3.6410   -0.7640   -0.2970 C   0  0  0  0  0  0  0  0  0  0  0  0
    3.9440   -0.3670    0.9820 C   0  0  0  0  0  0  0  0  0  0  0  0
    5.2280   -0.0810    1.3680 C   0  0  0  0  0  0  0  0  0  0  0  0
    5.5350    0.3410    2.7490 C   0  0  0  0  0  0  0  0  0  0  0  0
    6.2430   -0.1950    0.4260 C   0  0  0  0  0  0  0  0  0  0  0  0
    7.5080    0.0940    0.8070 F   0  0  0  0  0  0  0  0  0  0  0  0
    2.8260   -0.1300    1.9170 C   0  0  0  0  0  0  0  0  0  0  0  0
    1.5730   -0.4460    1.2900 N   0  0  0  0  0  0  0  0  0  0  0  0
    1.3580   -0.7960   -0.0670 C   0  0  0  0  0  0  0  0  0  0  0  0
    0.1780   -1.2970   -0.7200 N   0  0  0  0  0  0  0  0  0  0  0  0
   -0.8470   -0.3700   -0.9240 C   0  0  0  0  0  0  0  0  0  0  0  0
   -0.3850    0.8220   -0.5710 O   0  0  0  0  0  0  0  0  0  0  0  0
   -2.1740   -0.5560   -1.4240 C   0  0  0  0  0  0  0  0  0  0  0  0
   -2.9060    0.6820   -1.5060 N   0  0  0  0  0  0  0  0  0  0  0  0
   -3.8140    0.9320   -0.4610 C   0  0  2  0  0  0  0  0  0  0  0  0
   -3.5030    0.2720    0.8490 C   0  0  0  0  0  0  0  0  0  0  0  0
   -4.6760   -0.5380    1.3790 C   0  0  0  0  0  0  0  0  0  0  0  0
   -5.6440    0.3330    2.1660 C   0  0  0  0  0  0  0  0  0  0  0  0
   -6.5000    1.1570    1.2250 C   0  0  0  0  0  0  0  0  0  0  0  0
   -6.3730    0.5860   -0.1300 C   0  0  0  0  0  0  0  0  0  0  0  0
   -7.3870    0.0760   -0.8410 N   0  0  0  0  0  0  0  0  0  0  0  0
   -6.8840   -0.3380   -1.9940 N   0  0  0  0  0  0  0  0  0  0  0  0
   -5.5630   -0.1040   -2.0390 C   0  0  0  0  0  0  0  0  0  0  0  0
   -5.1810    0.4910   -0.8590 C   0  0  0  0  0  0  0  0  0  0  0  0
    2.3560   -0.9610   -0.7720 N   0  0  0  0  0  0  0  0  0  0  0  0
  1  2  1  0
  2  3  1  0
  3  4  2  0
  3  9  1  0
  4  5  1  0
  5  6  2  0
  5 29  1  0
  6  7  1  0
  6 11  1  0
  7  8  1  0
  7  9  2  0
  9 10  1  0
 11 12  1  0
 12 13  1  0
 13 14  1  0
 13 29  2  0
 14 15  1  0
 15 16  2  0
 15 17  1  0
 17 18  1  0
 19 18  1  6
 19 20  1  0
 19 28  1  0
 20 21  1  0
 21 22  1  0
 22 23  1  0
 23 24  1  0
 24 25  1  0
 24 28  2  0
 25 26  1  0
 26 27  2  0
 27 28  1  0
M  CHG  1  18   1
M  END
