
     RDKit          3D

 31 35  0  0  0  0  0  0  0  0999 V2000
   -1.2810    5.7060   -0.7180 N   0  0  0  0  0  0  0  0  0  0  0  0
   -2.1300    4.5730   -0.6630 C   0  0  0  0  0  0  0  0  0  0  0  0
   -3.4550    4.6920   -0.8100 N   0  0  0  0  0  0  0  0  0  0  0  0
   -4.2560    3.5970   -0.7550 C   0  0  0  0  0  0  0  0  0  0  0  0
   -3.7660    2.3570   -0.5550 N   0  0  0  0  0  0  0  0  0  0  0  0
   -2.4450    2.1880   -0.4030 C   0  0  0  0  0  0  0  0  0  0  0  0
   -1.6210    3.3020   -0.4570 C   0  0  0  0  0  0  0  0  0  0  0  0
   -0.3810    2.8150   -0.2750 N   0  0  0  0  0  0  0  0  0  0  0  0
   -0.4310    1.4760   -0.1160 C   0  0  0  0  0  0  0  0  0  0  0  0
    0.7030    0.6100    0.1020 N   0  0  0  0  0  0  0  0  0  0  0  0
    2.0120    1.1790    0.1630 C   0  0  0  0  0  0  0  0  0  0  0  0
    2.9960    0.0900    0.4100 C   0  0  0  0  0  0  0  0  0  0  0  0
    2.7350   -0.9940    1.2200 C   0  0  0  0  0  0  0  0  0  0  0  0
    3.6640   -1.9890    1.4280 C   0  0  0  0  0  0  0  0  0  0  0  0
    4.8930   -1.9010    0.8070 C   0  0  0  0  0  0  0  0  0  0  0  0
    5.8460   -2.8280    0.9610 N   0  0  0  0  0  0  0  0  0  0  0  0
    7.0240   -2.7010    0.3390 C   0  0  0  0  0  0  0  0  0  0  0  0
    7.3050   -1.6320   -0.4710 C   0  0  0  0  0  0  0  0  0  0  0  0
    6.3530   -0.6570   -0.6560 C   0  0  0  0  0  0  0  0  0  0  0  0
    5.1390   -0.8210    0.0060 C   0  0  0  0  0  0  0  0  0  0  0  0
    4.2140    0.1830   -0.2090 C   0  0  0  0  0  0  0  0  0  0  0  0
   -1.7200    1.0890   -0.1970 N   0  0  0  0  0  0  0  0  0  0  0  0
   -2.1320   -0.2910   -0.0690 C   0  0  2  0  0  0  0  0  0  0  0  0
   -3.3120   -0.5450   -0.7850 O   0  0  0  0  0  0  0  0  0  0  0  0
   -3.6310   -1.8210   -0.3220 C   0  0  2  0  0  0  0  0  0  0  0  0
   -4.9960   -2.2630   -0.7980 C   0  0  0  0  0  0  0  0  0  0  0  0
   -5.2120   -3.5410   -0.2810 O   0  0  0  0  0  0  0  0  0  0  0  0
   -3.6220   -1.5990    1.1870 C   0  0  1  0  0  0  0  0  0  0  0  0
   -3.4890   -2.8000    1.8440 O   0  0  0  0  0  0  0  0  0  0  0  0
   -2.3790   -0.7150    1.3410 C   0  0  1  0  0  0  0  0  0  0  0  0
   -1.3630   -1.5550    1.8230 O   0  0  0  0  0  0  0  0  0  0  0  0
  1  2  1  0
  2  3  2  0
  2  7  1  0
  3  4  1  0
  4  5  2  0
  5  6  1  0
  6  7  2  0
  6 22  1  0
  7  8  1  0
  8  9  2  0
  9 10  1  0
  9 22  1  0
 10 11  1  0
 11 12  1  0
 12 13  2  0
 12 21  1  0
 13 14  1  0
 14 15  2  0
 15 16  1  0
 15 20  1  0
 16 17  2  0
 17 18  1  0
 18 19  2  0
 19 20  1  0
 20 21  2  0
 23 22  1  1
 23 24  1  0
 23 30  1  0
 24 25  1  0
 25 26  1  6
 25 28  1  0
 26 27  1  0
 28 29  1  1
 28 30  1  0
 30 31  1  6
M  END
