
     RDKit          3D

 28 33  0  0  0  0  0  0  0  0999 V2000
   -6.0500    4.8820   -1.2470 O   0  0  0  0  0  0  0  0  0  0  0  0
   -5.5630    3.7660   -0.8990 C   0  0  0  0  0  0  0  0  0  0  0  0
   -6.3030    2.6820   -0.2510 C   0  0  0  0  0  0  0  0  0  0  0  0
   -5.2580    1.6150   -0.0670 C   0  0  0  0  0  0  0  0  0  0  0  0
   -5.1190    0.3410    0.4350 C   0  0  0  0  0  0  0  0  0  0  0  0
   -3.7890    0.0010    0.2390 C   0  0  0  0  0  0  0  0  0  0  0  0
   -3.1370    1.0280   -0.3630 N   0  0  0  0  0  0  0  0  0  0  0  0
   -1.8360    1.1340   -0.7700 N   0  0  0  0  0  0  0  0  0  0  0  0
   -0.8480    0.1350   -0.7510 C   0  0  0  0  0  0  0  0  0  0  0  0
   -1.0400   -1.1430   -1.2050 C   0  0  0  0  0  0  0  0  0  0  0  0
   -0.0110   -2.0580   -1.1460 C   0  0  0  0  0  0  0  0  0  0  0  0
    1.2280   -1.7370   -0.6430 C   0  0  0  0  0  0  0  0  0  0  0  0
    2.2510   -2.6590   -0.5880 C   0  0  0  0  0  0  0  0  0  0  0  0
    3.4660   -2.2650   -0.0700 C   0  0  0  0  0  0  0  0  0  0  0  0
    3.6640   -0.9920    0.3840 C   0  0  0  0  0  0  0  0  0  0  0  0
    4.9030   -0.4510    0.9530 C   0  0  1  0  0  0  0  0  0  0  0  0
    6.1090   -1.2960    0.8640 C   0  0  0  0  0  0  0  0  0  0  0  0
    7.2060   -0.2750    0.5240 C   0  0  0  0  0  0  0  0  0  0  0  0
    6.3880    0.6580   -0.3780 C   0  0  0  0  0  0  0  0  0  0  0  0
    5.2210    0.8710    0.4360 N   0  0  0  0  0  0  0  0  0  0  0  0
    2.6230   -0.1080    0.3120 N   0  0  0  0  0  0  0  0  0  0  0  0
    1.4370   -0.4500   -0.1810 C   0  0  0  0  0  0  0  0  0  0  0  0
    0.4140    0.4690   -0.2360 C   0  0  0  0  0  0  0  0  0  0  0  0
   -4.0600    2.0270   -0.5490 C   0  0  0  0  0  0  0  0  0  0  0  0
   -4.2220    3.3530   -1.0680 N   0  0  0  0  0  0  0  0  0  0  0  0
   -3.6340   -1.2980    0.7740 N   0  0  0  0  0  0  0  0  0  0  0  0
   -4.6970   -1.5050    1.7670 C   0  0  0  0  0  0  0  0  0  0  0  0
   -5.8400   -0.7900    1.0960 C   0  0  0  0  0  0  0  0  0  0  0  0
  1  2  2  0
  2  3  1  0
  2 25  1  0
  3  4  1  0
  4  5  1  0
  4 24  2  0
  5  6  2  0
  5 28  1  0
  6  7  1  0
  6 26  1  0
  7  8  1  0
  7 24  1  0
  8  9  1  0
  9 10  2  0
  9 23  1  0
 10 11  1  0
 11 12  2  0
 12 13  1  0
 12 22  1  0
 13 14  2  0
 14 15  1  0
 16 15  1  6
 15 21  2  0
 16 17  1  0
 16 20  1  0
 17 18  1  0
 18 19  1  0
 19 20  1  0
 21 22  1  0
 22 23  2  0
 24 25  1  0
 26 27  1  0
 27 28  1  0
M  CHG  1  20   1
M  END
