
     RDKit          3D

 29 33  0  0  0  0  0  0  0  0999 V2000
   -4.7690    2.0890   -2.2070 O   0  0  0  0  0  0  0  0  0  0  0  0
   -5.5110    1.2400   -1.6630 C   0  0  0  0  0  0  0  0  0  0  0  0
   -6.8060    0.8000   -2.0230 N   0  0  0  0  0  0  0  0  0  0  0  0
   -7.2510   -0.1910   -1.0890 C   0  0  0  0  0  0  0  0  0  0  0  0
   -8.4200   -0.8820   -1.0330 N   0  0  0  0  0  0  0  0  0  0  0  0
   -8.6010   -1.7660   -0.0380 C   0  0  0  0  0  0  0  0  0  0  0  0
   -7.6490   -2.0030    0.9310 C   0  0  0  0  0  0  0  0  0  0  0  0
   -6.4690   -1.2990    0.8650 C   0  0  0  0  0  0  0  0  0  0  0  0
   -6.2530   -0.3730   -0.1570 C   0  0  0  0  0  0  0  0  0  0  0  0
   -5.1360    0.4980   -0.4650 C   0  0  0  0  0  0  0  0  0  0  0  0
   -4.0700    0.5660    0.2350 N   0  0  0  0  0  0  0  0  0  0  0  0
   -2.9780    1.3610    0.0540 N   0  0  0  0  0  0  0  0  0  0  0  0
   -1.6730    0.8650    0.3160 C   0  0  0  0  0  0  0  0  0  0  0  0
   -1.2860    0.6710    1.6490 C   0  0  0  0  0  0  0  0  0  0  0  0
   -0.0190    0.2250    1.9360 C   0  0  0  0  0  0  0  0  0  0  0  0
    0.9010   -0.0430    0.9480 C   0  0  0  0  0  0  0  0  0  0  0  0
    2.1590   -0.5150    1.3060 N   0  0  0  0  0  0  0  0  0  0  0  0
    3.3460   -0.1460    0.6340 C   0  0  0  0  0  0  0  0  0  0  0  0
    3.4650    0.9230   -0.2250 C   0  0  0  0  0  0  0  0  0  0  0  0
    4.6580    1.2540   -0.8630 C   0  0  0  0  0  0  0  0  0  0  0  0
    4.6530    2.3230   -1.6830 F   0  0  0  0  0  0  0  0  0  0  0  0
    5.7610    0.4810   -0.6250 C   0  0  0  0  0  0  0  0  0  0  0  0
    5.6900   -0.6000    0.2280 C   0  0  0  0  0  0  0  0  0  0  0  0
    4.5080   -0.9090    0.8450 C   0  0  0  0  0  0  0  0  0  0  0  0
    7.0610   -1.2310    0.2830 C   0  0  0  0  0  0  0  0  0  0  0  0
    7.8690   -0.0260    0.0550 N   0  0  0  0  0  0  0  0  0  0  0  0
    7.1570    0.5300   -1.1040 C   0  0  0  0  0  0  0  0  0  0  0  0
    0.5330    0.1410   -0.3530 C   0  0  0  0  0  0  0  0  0  0  0  0
   -0.7540    0.5960   -0.6700 C   0  0  0  0  0  0  0  0  0  0  0  0
  1  2  2  0
  2  3  1  0
  2 10  1  0
  3  4  1  0
  4  5  2  0
  4  9  1  0
  5  6  1  0
  6  7  2  0
  7  8  1  0
  8  9  2  0
  9 10  1  0
 10 11  2  3
 11 12  1  0
 12 13  1  0
 13 14  2  0
 13 29  1  0
 14 15  1  0
 15 16  2  0
 16 17  1  0
 16 28  1  0
 17 18  1  0
 18 19  2  0
 18 24  1  0
 19 20  1  0
 20 21  1  0
 20 22  2  0
 22 23  1  0
 22 27  1  0
 23 24  2  0
 23 25  1  0
 25 26  1  0
 26 27  1  0
 28 29  2  0
M  CHG  1  26   1
M  END
