
     RDKit          3D

 22 22  0  0  0  0  0  0  0  0999 V2000
   -1.6850    3.2620    0.4970 C   0  0  0  0  0  0  0  0  0  0  0  0
   -2.6700    2.6450    1.0460 C   0  0  0  0  0  0  0  0  0  0  0  0
   -3.1140    1.2890    1.0960 C   0  0  0  0  0  0  0  0  0  0  0  0
   -4.3090    1.1620    1.7790 C   0  0  0  0  0  0  0  0  0  0  0  0
   -2.7020    0.1190    0.4080 C   0  0  0  0  0  0  0  0  0  0  0  0
   -3.7880   -0.8770    0.4250 O   0  0  0  0  0  0  0  0  0  0  0  0
   -1.6300   -0.2800   -0.2160 C   0  0  0  0  0  0  0  0  0  0  0  0
   -1.6390   -1.6240   -0.8740 C   0  0  0  0  0  0  0  0  0  0  0  0
   -0.5860   -1.9930   -1.4310 O   0  0  0  0  0  0  0  0  0  0  0  0
   -2.7530   -2.5730   -0.9520 C   0  0  2  0  0  0  0  0  0  0  0  0
   -2.1380   -3.8800   -1.5770 C   0  0  0  0  0  0  0  0  0  0  0  0
   -3.7950   -2.1210   -1.9920 C   0  0  0  0  0  0  0  0  0  0  0  0
   -0.2470    0.1940    0.1070 C   0  0  0  0  0  0  0  0  0  0  0  0
    0.7680   -0.1080   -0.6580 C   0  0  0  0  0  0  0  0  0  0  0  0
    2.1360    0.4020   -0.2720 C   0  0  0  0  0  0  0  0  0  0  0  0
    3.1310   -0.3610   -0.5390 C   0  0  0  0  0  0  0  0  0  0  0  0
    4.5510   -0.2120   -0.3210 C   0  0  1  0  0  0  0  0  0  0  0  0
    5.3310   -0.3550   -1.6620 C   0  0  0  0  0  0  0  0  0  0  0  0
    5.1090    0.9910    0.3200 C   0  0  0  0  0  0  0  0  0  0  0  0
    2.0870    1.7370    0.3480 C   0  0  0  0  0  0  0  0  0  0  0  0
    1.1380    1.7050    1.5350 C   0  0  0  0  0  0  0  0  0  0  0  0
    0.0580    0.7210    1.4560 C   0  0  0  0  0  0  0  0  0  0  0  0
  1  2  2  0
  2  3  1  0
  3  4  2  0
  3  5  1  0
  5  6  1  0
  5  7  2  3
  7  8  1  0
  7 13  1  0
  8  9  2  0
  8 10  1  0
 10 11  1  6
 10 12  1  0
 13 14  2  0
 13 22  1  0
 14 15  1  0
 15 16  2  3
 15 20  1  0
 16 17  1  0
 17 18  1  6
 17 19  1  0
 20 21  1  0
 21 22  1  0
M  END
