
     RDKit          3D

 23 23  0  0  0  0  0  0  0  0999 V2000
    5.6640   -2.1000    0.0200 C   0  0  0  0  0  0  0  0  0  0  0  0
    4.3570   -1.4360    0.2320 C   0  0  0  0  0  0  0  0  0  0  0  0
    3.5970   -1.8980    1.1050 O   0  0  0  0  0  0  0  0  0  0  0  0
    4.0300   -0.3090   -0.5610 N   0  0  0  0  0  0  0  0  0  0  0  0
    2.8110    0.3390   -0.3890 N   0  0  0  0  0  0  0  0  0  0  0  0
    1.5680   -0.2090   -0.8190 C   0  0  0  0  0  0  0  0  0  0  0  0
    1.5270   -1.3190   -1.3840 O   0  0  0  0  0  0  0  0  0  0  0  0
    0.3190    0.5920   -0.5660 C   0  0  2  0  0  0  0  0  0  0  0  0
    0.3930    1.9220   -1.1600 C   0  0  0  0  0  0  0  0  0  0  0  0
   -0.4450    2.9280   -0.8970 O   0  0  0  0  0  0  0  0  0  0  0  0
   -0.4010    3.5650    0.3160 C   0  0  0  0  0  0  0  0  0  0  0  0
   -1.4470    4.6890    0.3840 C   0  0  0  0  0  0  0  0  0  0  0  0
   -1.1790    5.5980   -0.6220 O   0  0  0  0  0  0  0  0  0  0  0  0
    0.1020    0.5080    0.9400 C   0  0  0  0  0  0  0  0  0  0  0  0
    0.0240   -1.0170    0.9960 C   0  0  0  0  0  0  0  0  0  0  0  0
    0.5400   -1.7020    1.7970 O   0  0  0  0  0  0  0  0  0  0  0  0
   -0.8240   -1.3090   -0.1720 C   0  0  1  0  0  0  0  0  0  0  0  0
   -2.1890   -1.7210    0.3220 C   0  0  1  0  0  0  0  0  0  0  0  0
   -1.9760   -2.9190    1.1300 N   0  0  0  0  0  0  0  0  0  0  0  0
   -2.7040   -0.7420    1.1250 O   0  0  0  0  0  0  0  0  0  0  0  0
   -3.1260   -2.1070   -0.8010 C   0  0  0  0  0  0  0  0  0  0  0  0
   -4.3490   -2.6040   -0.2010 N   0  0  0  0  0  0  0  0  0  0  0  0
   -0.8340   -0.1560   -0.9580 O   0  0  0  0  0  0  0  0  0  0  0  0
  1  2  1  0
  2  3  2  0
  2  4  1  0
  4  5  1  0
  5  6  1  0
  6  7  2  0
  6  8  1  0
  8  9  1  6
  8 14  1  0
  8 23  1  0
  9 10  1  0
 10 11  1  0
 11 12  1  0
 12 13  1  0
 14 15  1  0
 15 16  2  0
 15 17  1  0
 17 18  1  0
 17 23  1  6
 18 19  1  1
 18 20  1  0
 18 21  1  0
 21 22  1  0
M  CHG  1  22   1
M  END
