
     RDKit          3D

 23 23  0  0  0  0  0  0  0  0999 V2000
    5.1650   -1.0410   -1.3590 C   0  0  0  0  0  0  0  0  0  0  0  0
    4.0590   -0.8400   -0.3100 C   0  0  2  0  0  0  0  0  0  0  0  0
    4.6990   -0.5750    1.0370 C   0  0  0  0  0  0  0  0  0  0  0  0
    3.2390   -2.0780   -0.3260 C   0  0  0  0  0  0  0  0  0  0  0  0
    2.1170   -2.1350    0.5460 N   0  0  0  0  0  0  0  0  0  0  0  0
    1.0000   -1.2640    0.4930 C   0  0  0  0  0  0  0  0  0  0  0  0
    0.9170   -0.3530   -0.3690 O   0  0  0  0  0  0  0  0  0  0  0  0
   -0.0850   -1.3760    1.4140 N   0  0  0  0  0  0  0  0  0  0  0  0
   -1.2330   -0.4960    1.3740 C   0  0  0  0  0  0  0  0  0  0  0  0
   -1.9860   -0.5630    0.0660 C   0  0  1  0  0  0  0  0  0  0  0  0
   -2.4440   -1.8550   -0.1460 O   0  0  0  0  0  0  0  0  0  0  0  0
   -3.1170    0.4390    0.1540 C   0  0  1  0  0  0  0  0  0  0  0  0
   -3.9280    0.0450    1.2380 O   0  0  0  0  0  0  0  0  0  0  0  0
   -2.5410    1.6640    0.4500 O   0  0  0  0  0  0  0  0  0  0  0  0
   -3.4580    2.6900    0.5410 C   0  0  0  0  0  0  0  0  0  0  0  0
   -4.0070    2.9110   -0.7400 O   0  0  0  0  0  0  0  0  0  0  0  0
   -4.7560    1.7980   -1.0460 C   0  0  0  0  0  0  0  0  0  0  0  0
   -3.9380    0.5210   -1.0880 C   0  0  2  0  0  0  0  0  0  0  0  0
   -4.8730   -0.5680   -1.2360 N   0  0  0  0  0  0  0  0  0  0  0  0
    3.3490    0.3170   -0.6650 O   0  0  0  0  0  0  0  0  0  0  0  0
    3.9720    1.5520   -0.7530 C   0  0  0  0  0  0  0  0  0  0  0  0
    3.2810    2.7380   -1.1090 N   0  0  0  0  0  0  0  0  0  0  0  0
    5.2160    1.6840   -0.5140 O   0  0  0  0  0  0  0  0  0  0  0  0
  2  1  1  6
  2  3  1  0
  2  4  1  0
  2 20  1  0
  4  5  1  0
  5  6  1  0
  6  7  2  0
  6  8  1  0
  8  9  1  0
  9 10  1  0
 10 11  1  1
 10 12  1  0
 12 13  1  1
 12 14  1  0
 12 18  1  0
 14 15  1  0
 15 16  1  0
 16 17  1  0
 17 18  1  0
 18 19  1  1
 20 21  1  0
 21 22  1  0
 21 23  2  0
M  CHG  1  19   1
M  END
