
     RDKit          3D

 29 33  0  0  0  0  0  0  0  0999 V2000
   -4.4200   -1.2240    1.9730 O   0  0  0  0  0  0  0  0  0  0  0  0
   -4.4930   -0.4050    1.0040 C   0  0  0  0  0  0  0  0  0  0  0  0
   -3.4200    0.0180    0.2500 C   0  0  0  0  0  0  0  0  0  0  0  0
   -3.9350    0.8840   -0.6740 C   0  0  0  0  0  0  0  0  0  0  0  0
   -2.8650    1.2850   -1.4010 N   0  0  0  0  0  0  0  0  0  0  0  0
   -1.7270    0.6860   -0.9410 C   0  0  0  0  0  0  0  0  0  0  0  0
   -2.0640   -0.0970    0.0780 N   0  0  0  0  0  0  0  0  0  0  0  0
   -1.4120   -0.9800    0.9930 C   0  0  0  0  0  0  0  0  0  0  0  0
   -0.4250   -1.9230    0.3950 C   0  0  0  0  0  0  0  0  0  0  0  0
    0.6130   -1.3050   -0.4750 C   0  0  0  0  0  0  0  0  0  0  0  0
    1.1730   -0.0230    0.0070 C   0  0  1  0  0  0  0  0  0  0  0  0
    2.6270    0.0550    0.2760 C   0  0  2  0  0  0  0  0  0  0  0  0
    3.4970   -0.2330   -0.8350 N   0  0  0  0  0  0  0  0  0  0  0  0
    4.7970    0.3230   -0.4900 C   0  0  0  0  0  0  0  0  0  0  0  0
    5.7190    0.3790   -1.6860 C   0  0  0  0  0  0  0  0  0  0  0  0
    7.0310    0.9700   -1.2110 C   0  0  1  0  0  0  0  0  0  0  0  0
    7.9560    1.0680   -2.2310 F   0  0  0  0  0  0  0  0  0  0  0  0
    6.8340    2.2070   -0.6210 F   0  0  0  0  0  0  0  0  0  0  0  0
    7.5570    0.1350   -0.2440 F   0  0  0  0  0  0  0  0  0  0  0  0
    3.1300   -0.5610    1.5470 C   0  0  2  0  0  0  0  0  0  0  0  0
    2.9750   -2.0000    1.8820 C   0  0  0  0  0  0  0  0  0  0  0  0
    2.2380   -0.9100    2.6780 C   0  0  0  0  0  0  0  0  0  0  0  0
    0.7230    1.1890   -0.7650 C   0  0  0  0  0  0  0  0  0  0  0  0
   -0.4520    1.0240   -1.6360 C   0  0  0  0  0  0  0  0  0  0  0  0
   -5.2600    0.9810   -0.4870 N   0  0  0  0  0  0  0  0  0  0  0  0
   -5.5800    0.2060    0.5180 N   0  0  0  0  0  0  0  0  0  0  0  0
   -7.0300    0.2680    0.7780 C   0  0  0  0  0  0  0  0  0  0  0  0
   -7.5550    0.6820   -0.5750 C   0  0  0  0  0  0  0  0  0  0  0  0
   -6.4420    1.6440   -1.0160 C   0  0  0  0  0  0  0  0  0  0  0  0
  1  2  2  0
  2  3  1  0
  2 26  1  0
  3  4  2  0
  3  7  1  0
  4  5  1  0
  4 25  1  0
  5  6  2  0
  6  7  1  0
  6 24  1  0
  7  8  1  0
  8  9  1  0
  9 10  1  0
 11 10  1  6
 11 12  1  0
 11 23  1  0
 12 13  1  6
 12 20  1  0
 13 14  1  0
 14 15  1  0
 15 16  1  0
 16 17  1  6
 16 18  1  0
 16 19  1  0
 20 21  1  6
 20 22  1  0
 21 22  1  0
 23 24  1  0
 25 26  1  0
 25 29  1  0
 26 27  1  0
 27 28  1  0
 28 29  1  0
M  CHG  1  13   1
M  END
