
     RDKit          3D

 29 32  0  0  0  0  0  0  0  0999 V2000
    2.5230   -2.0600   -1.0360 C   0  0  0  0  0  0  0  0  0  0  0  0
    2.1200   -0.8350   -0.2780 C   0  0  0  0  0  0  0  0  0  0  0  0
    1.0530   -0.0610   -0.5880 C   0  0  0  0  0  0  0  0  0  0  0  0
    0.1840   -0.3890   -1.7460 C   0  0  0  0  0  0  0  0  0  0  0  0
   -1.1680   -0.7140   -1.4550 N   0  0  0  0  0  0  0  0  0  0  0  0
   -2.1830    0.0910   -0.9020 C   0  0  0  0  0  0  0  0  0  0  0  0
   -1.9290    1.2730   -0.6150 O   0  0  0  0  0  0  0  0  0  0  0  0
   -3.4930   -0.3820   -0.6520 N   0  0  0  0  0  0  0  0  0  0  0  0
   -4.5720    0.3380   -0.1060 C   0  0  0  0  0  0  0  0  0  0  0  0
   -4.5480    1.6490    0.2900 C   0  0  0  0  0  0  0  0  0  0  0  0
   -5.6900    2.2710    0.8250 C   0  0  0  0  0  0  0  0  0  0  0  0
   -6.8800    1.6090    0.9810 C   0  0  0  0  0  0  0  0  0  0  0  0
   -6.9130    0.2800    0.5820 C   0  0  0  0  0  0  0  0  0  0  0  0
   -5.8060   -0.3180    0.0650 C   0  0  0  0  0  0  0  0  0  0  0  0
   -6.1530   -1.7270   -0.2640 C   0  0  0  0  0  0  0  0  0  0  0  0
   -7.5370   -1.8660    0.1100 N   0  0  0  0  0  0  0  0  0  0  0  0
   -8.0350   -0.6470    0.6350 C   0  0  0  0  0  0  0  0  0  0  0  0
   -9.2410   -0.4840    1.0490 N   0  0  0  0  0  0  0  0  0  0  0  0
    1.0360    1.0200    0.3710 C   0  0  0  0  0  0  0  0  0  0  0  0
    2.0090    0.9180    1.2070 N   0  0  0  0  0  0  0  0  0  0  0  0
    2.7650   -0.2330    0.8940 C   0  0  2  0  0  0  0  0  0  0  0  0
    4.2050    0.0510    0.6530 C   0  0  0  0  0  0  0  0  0  0  0  0
    4.6310    1.1010   -0.1150 C   0  0  0  0  0  0  0  0  0  0  0  0
    5.9840    1.3310   -0.3160 C   0  0  0  0  0  0  0  0  0  0  0  0
    6.9100    0.4980    0.2600 C   0  0  0  0  0  0  0  0  0  0  0  0
    8.3810    0.6670    0.1000 C   0  0  0  0  0  0  0  0  0  0  0  0
    8.6980    1.7550   -0.6920 O   0  0  0  0  0  0  0  0  0  0  0  0
    6.4670   -0.5530    1.0280 C   0  0  0  0  0  0  0  0  0  0  0  0
    5.1290   -0.7810    1.2270 C   0  0  0  0  0  0  0  0  0  0  0  0
  1  2  1  0
  2  3  2  0
  2 21  1  0
  3  4  1  0
  3 19  1  0
  4  5  1  0
  5  6  1  0
  6  7  2  0
  6  8  1  0
  8  9  1  0
  9 10  2  0
  9 14  1  0
 10 11  1  0
 11 12  2  0
 12 13  1  0
 13 14  2  0
 13 17  1  0
 14 15  1  0
 15 16  1  0
 16 17  1  0
 17 18  2  0
 19 20  2  0
 20 21  1  0
 21 22  1  6
 22 23  2  0
 22 29  1  0
 23 24  1  0
 24 25  2  0
 25 26  1  0
 25 28  1  0
 26 27  1  0
 28 29  2  0
M  CHG  1  20   1
M  END
