
     RDKit          3D

 29 32  0  0  0  0  0  0  0  0999 V2000
   -3.7950    1.2910   -0.8060 C   0  0  0  0  0  0  0  0  0  0  0  0
   -3.2670    1.0060    0.5640 C   0  0  2  0  0  0  0  0  0  0  0  0
   -2.8440    2.3450    1.1670 C   0  0  0  0  0  0  0  0  0  0  0  0
   -1.7170    2.6070    0.1880 C   0  0  0  0  0  0  0  0  0  0  0  0
   -1.4610    3.7790   -0.1670 O   0  0  0  0  0  0  0  0  0  0  0  0
   -1.1240    1.3560   -0.1640 N   0  0  0  0  0  0  0  0  0  0  0  0
    0.0100    1.1980   -1.0380 C   0  0  0  0  0  0  0  0  0  0  0  0
    1.0920    2.2490   -0.8790 C   0  0  0  0  0  0  0  0  0  0  0  0
    1.9470    1.9180    0.3270 C   0  0  0  0  0  0  0  0  0  0  0  0
    2.6580    0.7030    0.0380 N   0  0  0  0  0  0  0  0  0  0  0  0
    3.5400    0.7050   -1.1440 C   0  0  0  0  0  0  0  0  0  0  0  0
    4.9020    0.2670   -0.6120 C   0  0  0  0  0  0  0  0  0  0  0  0
    5.9700    0.9780   -0.8650 C   0  0  0  0  0  0  0  0  0  0  0  0
    5.8040    2.1250   -1.6300 F   0  0  0  0  0  0  0  0  0  0  0  0
    7.2270    0.7720   -0.4600 F   0  0  0  0  0  0  0  0  0  0  0  0
    4.8540   -0.9410    0.1690 C   0  0  0  0  0  0  0  0  0  0  0  0
    5.8730   -1.7540    0.2000 C   0  0  0  0  0  0  0  0  0  0  0  0
    7.0030   -1.5610   -0.4550 F   0  0  0  0  0  0  0  0  0  0  0  0
    3.6290   -1.2200    0.8570 N   0  0  0  0  0  0  0  0  0  0  0  0
    2.5600   -0.4990    0.8450 C   0  0  0  0  0  0  0  0  0  0  0  0
    1.4270   -0.8290    1.5520 N   0  0  0  0  0  0  0  0  0  0  0  0
    0.3780   -1.4860    1.4680 C   0  0  0  0  0  0  0  0  0  0  0  0
   -0.0600   -2.2860    0.3340 C   0  0  0  0  0  0  0  0  0  0  0  0
   -1.0690   -1.8110   -0.5240 N   0  0  0  0  0  0  0  0  0  0  0  0
   -2.0890   -0.9630   -0.0550 C   0  0  1  0  0  0  0  0  0  0  0  0
   -2.9070   -1.7920    0.9500 C   0  0  2  0  0  0  0  0  0  0  0  0
   -3.5280   -3.0590    0.5330 C   0  0  0  0  0  0  0  0  0  0  0  0
   -4.4050   -1.8700    0.7790 C   0  0  0  0  0  0  0  0  0  0  0  0
   -1.8630    0.3440    0.5060 C   0  0  2  0  0  0  0  0  0  0  0  0
  2  1  1  6
  2  3  1  0
  2 29  1  0
  3  4  1  0
  4  5  2  0
  4  6  1  0
  6  7  1  0
 29  6  1  6
  7  8  1  0
  8  9  1  0
  9 10  1  0
 10 11  1  0
 10 20  1  0
 11 12  1  0
 12 13  2  3
 12 16  1  0
 13 14  1  0
 13 15  1  0
 16 17  2  3
 16 19  1  0
 17 18  1  0
 19 20  2  0
 20 21  1  0
 21 22  2  0
 22 23  1  0
 23 24  1  0
 25 24  1  1
 25 26  1  0
 25 29  1  0
 26 27  1  6
 26 28  1  0
 27 28  1  0
M  CHG  1  24   1
M  END
