
     RDKit          3D

 29 32  0  0  0  0  0  0  0  0999 V2000
   -4.7940    1.6500    0.2630 C   0  0  0  0  0  0  0  0  0  0  0  0
   -4.3850    0.6020   -0.6760 N   0  0  2  0  0  0  0  0  0  0  0  0
   -5.2730    0.7410   -1.8630 C   0  0  0  0  0  0  0  0  0  0  0  0
   -6.5340    0.0460   -1.4230 C   0  0  0  0  0  0  0  0  0  0  0  0
   -6.0400   -1.0850   -0.6100 C   0  0  0  0  0  0  0  0  0  0  0  0
   -4.6210   -0.6610   -0.1740 C   0  0  0  0  0  0  0  0  0  0  0  0
   -3.9200   -1.4690    0.5660 C   0  0  0  0  0  0  0  0  0  0  0  0
   -2.6500   -1.4550    1.1880 C   0  0  0  0  0  0  0  0  0  0  0  0
   -2.2950   -2.5550    1.8710 C   0  0  0  0  0  0  0  0  0  0  0  0
   -3.1580   -3.7230    1.9800 C   0  0  1  0  0  0  0  0  0  0  0  0
   -2.5150   -4.7360    2.7190 F   0  0  0  0  0  0  0  0  0  0  0  0
   -4.3610   -3.5080    2.6230 F   0  0  0  0  0  0  0  0  0  0  0  0
   -3.4200   -4.3130    0.7620 F   0  0  0  0  0  0  0  0  0  0  0  0
   -1.6800   -0.3750    1.1900 C   0  0  0  0  0  0  0  0  0  0  0  0
   -0.4100   -0.4690    1.7680 C   0  0  0  0  0  0  0  0  0  0  0  0
    0.2160    0.7660    1.6040 C   0  0  0  0  0  0  0  0  0  0  0  0
    1.5920    1.0820    2.0850 C   0  0  0  0  0  0  0  0  0  0  0  0
    2.5250    0.7550    1.0280 N   0  0  0  0  0  0  0  0  0  0  0  0
    3.9290    0.9440    1.1770 C   0  0  0  0  0  0  0  0  0  0  0  0
    4.3290    1.4110    2.2730 O   0  0  0  0  0  0  0  0  0  0  0  0
    4.8110    0.6150    0.1280 N   0  0  0  0  0  0  0  0  0  0  0  0
    4.4480    0.0750   -1.1640 C   0  0  0  0  0  0  0  0  0  0  0  0
    5.7680   -0.1980   -1.8590 C   0  0  1  0  0  0  0  0  0  0  0  0
    6.3520    1.1150   -2.2580 C   0  0  0  0  0  0  0  0  0  0  0  0
    6.6020    1.7840   -0.9010 C   0  0  0  0  0  0  0  0  0  0  0  0
    6.2330    0.7520    0.1380 C   0  0  2  0  0  0  0  0  0  0  0  0
    6.6350   -0.5240   -0.6280 C   0  0  0  0  0  0  0  0  0  0  0  0
   -0.6500    1.5300    0.9640 N   0  0  0  0  0  0  0  0  0  0  0  0
   -1.7500    0.8660    0.7250 N   0  0  0  0  0  0  0  0  0  0  0  0
  2  1  1  1
  2  3  1  0
  2  6  1  0
  3  4  1  0
  4  5  1  0
  5  6  1  0
  6  7  2  3
  7  8  1  0
  8  9  2  3
  8 14  1  0
  9 10  1  0
 10 11  1  1
 10 12  1  0
 10 13  1  0
 14 15  1  0
 14 29  2  0
 15 16  2  0
 16 17  1  0
 16 28  1  0
 17 18  1  0
 18 19  1  0
 19 20  2  0
 19 21  1  0
 21 22  1  0
 21 26  1  0
 23 22  1  1
 23 24  1  0
 23 27  1  0
 24 25  1  0
 26 25  1  6
 26 27  1  0
 28 29  1  0
M  CHG  1   2   1
M  END
