
     RDKit          3D

 24 27  0  0  0  0  0  0  0  0999 V2000
   -1.8000   -1.9860    1.2010 O   0  0  0  0  0  0  0  0  0  0  0  0
   -1.6470   -0.8600    0.6520 C   0  0  0  0  0  0  0  0  0  0  0  0
   -2.9090   -0.2340    0.2070 C   0  0  0  0  0  0  0  0  0  0  0  0
   -2.9100    0.7430   -0.7680 C   0  0  0  0  0  0  0  0  0  0  0  0
   -4.1040    1.3000   -1.1410 C   0  0  0  0  0  0  0  0  0  0  0  0
   -5.2780    0.8980   -0.5610 C   0  0  0  0  0  0  0  0  0  0  0  0
   -5.3310   -0.0720    0.4150 C   0  0  0  0  0  0  0  0  0  0  0  0
   -4.0990   -0.6130    0.7660 C   0  0  0  0  0  0  0  0  0  0  0  0
   -0.3650   -0.2040    0.4580 C   0  0  0  0  0  0  0  0  0  0  0  0
   -0.3000    1.1700    0.7010 C   0  0  0  0  0  0  0  0  0  0  0  0
    0.8950    1.8170    0.5730 C   0  0  0  0  0  0  0  0  0  0  0  0
    2.0340    1.1160    0.2050 C   0  0  0  0  0  0  0  0  0  0  0  0
    1.9580   -0.2230   -0.0300 C   0  0  0  0  0  0  0  0  0  0  0  0
    3.0720   -0.9560   -0.4030 C   0  0  0  0  0  0  0  0  0  0  0  0
    3.0130   -2.3060   -0.6480 C   0  0  0  0  0  0  0  0  0  0  0  0
    1.8290   -2.9830   -0.5300 C   0  0  0  0  0  0  0  0  0  0  0  0
    0.7110   -2.2890   -0.1630 C   0  0  0  0  0  0  0  0  0  0  0  0
    0.7450   -0.9330    0.0900 C   0  0  0  0  0  0  0  0  0  0  0  0
    4.3800   -0.2870   -0.5540 C   0  0  0  0  0  0  0  0  0  0  0  0
    5.4010   -0.9710   -0.8990 O   0  0  0  0  0  0  0  0  0  0  0  0
    4.4560    1.0940   -0.3100 N   0  0  0  0  0  0  0  0  0  0  0  0
    5.6610    1.7250   -0.4460 O   0  0  0  0  0  0  0  0  0  0  0  0
    3.3020    1.8270    0.0710 C   0  0  0  0  0  0  0  0  0  0  0  0
    3.3190    3.0480    0.2970 O   0  0  0  0  0  0  0  0  0  0  0  0
  1  2  2  0
  2  3  1  0
  2  9  1  0
  3  4  2  0
  3  8  1  0
  4  5  1  0
  5  6  2  0
  6  7  1  0
  7  8  2  0
  9 10  2  0
  9 18  1  0
 10 11  1  0
 11 12  2  0
 12 13  1  0
 12 23  1  0
 13 14  2  0
 13 18  1  0
 14 15  1  0
 14 19  1  0
 15 16  2  0
 16 17  1  0
 17 18  2  0
 19 20  2  0
 19 21  1  0
 21 22  1  0
 21 23  1  0
 23 24  2  0
M  END
