
     RDKit          3D

 23 25  0  0  0  0  0  0  0  0999 V2000
    7.8610    0.7070    0.5360 C   0  0  0  0  0  0  0  0  0  0  0  0
    6.5410    0.4010   -0.0620 C   0  0  0  0  0  0  0  0  0  0  0  0
    5.3250    0.4560    0.5990 C   0  0  0  0  0  0  0  0  0  0  0  0
    4.3780    0.1030   -0.3080 C   0  0  0  0  0  0  0  0  0  0  0  0
    2.9190    0.0110   -0.0810 C   0  0  0  0  0  0  0  0  0  0  0  0
    1.9730   -0.3470   -1.0070 C   0  0  0  0  0  0  0  0  0  0  0  0
    0.7030   -0.3160   -0.4120 C   0  0  0  0  0  0  0  0  0  0  0  0
   -0.4970   -0.6360   -1.1040 N   0  0  0  0  0  0  0  0  0  0  0  0
   -1.7510   -0.5840   -0.4420 C   0  0  0  0  0  0  0  0  0  0  0  0
   -1.8840   -0.2670    0.7460 O   0  0  0  0  0  0  0  0  0  0  0  0
   -2.9460   -0.9000   -1.1200 O   0  0  0  0  0  0  0  0  0  0  0  0
   -4.1730   -0.8490   -0.4710 C   0  0  0  0  0  0  0  0  0  0  0  0
   -4.9160    0.3120   -0.4570 C   0  0  0  0  0  0  0  0  0  0  0  0
   -6.1490    0.3360    0.2030 C   0  0  0  0  0  0  0  0  0  0  0  0
   -6.9750    1.5580    0.2410 C   0  0  0  0  0  0  0  0  0  0  0  0
   -6.6120   -0.7670    0.8260 N   0  0  0  0  0  0  0  0  0  0  0  0
   -5.9100   -1.8680    0.8140 N   0  0  0  0  0  0  0  0  0  0  0  0
   -4.7070   -1.9390    0.1850 C   0  0  0  0  0  0  0  0  0  0  0  0
   -4.0750   -3.0140    0.2040 O   0  0  0  0  0  0  0  0  0  0  0  0
    0.9360    0.0690    0.8810 C   0  0  0  0  0  0  0  0  0  0  0  0
    2.2700    0.2620    1.0670 N   0  0  0  0  0  0  0  0  0  0  0  0
    5.0310   -0.1480   -1.4580 N   0  0  0  0  0  0  0  0  0  0  0  0
    6.3280    0.0270   -1.3210 N   0  0  0  0  0  0  0  0  0  0  0  0
  1  2  1  0
  2  3  1  0
  2 23  2  0
  3  4  2  0
  4  5  1  0
  4 22  1  0
  5  6  2  0
  5 21  1  0
  6  7  1  0
  7  8  1  0
  7 20  2  0
  8  9  1  0
  9 10  2  0
  9 11  1  0
 11 12  1  0
 12 13  2  0
 12 18  1  0
 13 14  1  0
 14 15  1  0
 14 16  2  0
 16 17  1  0
 17 18  1  0
 18 19  2  0
 20 21  1  0
 22 23  1  0
M  END
