
     RDKit          3D

 21 23  0  0  0  0  0  0  0  0999 V2000
   -5.0400   -0.4550    0.2600 C   0  0  0  0  0  0  0  0  0  0  0  0
   -4.3320    0.4850    1.2160 C   0  0  2  0  0  0  0  0  0  0  0  0
   -4.2070    1.8470    0.5500 C   0  0  0  0  0  0  0  0  0  0  0  0
   -3.6370    1.6590   -0.7150 O   0  0  0  0  0  0  0  0  0  0  0  0
   -2.5580    0.7900   -0.8440 C   0  0  0  0  0  0  0  0  0  0  0  0
   -1.8130    0.7610   -1.9930 C   0  0  0  0  0  0  0  0  0  0  0  0
   -0.7460   -0.1000   -2.1190 C   0  0  0  0  0  0  0  0  0  0  0  0
   -0.3920   -0.9620   -1.0890 C   0  0  0  0  0  0  0  0  0  0  0  0
    0.9650   -2.0850   -1.1970 S   0  0  0  0  0  0  0  0  0  0  0  0
    2.4320   -1.2600   -0.5950 C   0  0  0  0  0  0  0  0  0  0  0  0
    2.4080    0.0400   -0.1410 C   0  0  0  0  0  0  0  0  0  0  0  0
    3.5720    0.6160    0.3090 C   0  0  0  0  0  0  0  0  0  0  0  0
    3.5650    1.7980    0.7250 O   0  0  0  0  0  0  0  0  0  0  0  0
    4.7320   -0.0660    0.3150 N   0  0  0  0  0  0  0  0  0  0  0  0
    5.9610    0.5120    0.7800 C   0  0  0  0  0  0  0  0  0  0  0  0
    4.6920   -1.3320   -0.1400 C   0  0  0  0  0  0  0  0  0  0  0  0
    5.7810   -1.9800   -0.1380 O   0  0  0  0  0  0  0  0  0  0  0  0
    3.5930   -1.9380   -0.5880 N   0  0  0  0  0  0  0  0  0  0  0  0
   -1.1520   -0.9200    0.0620 C   0  0  0  0  0  0  0  0  0  0  0  0
   -2.2250   -0.0560    0.1920 C   0  0  0  0  0  0  0  0  0  0  0  0
   -3.0000   -0.0100    1.3610 O   0  0  0  0  0  0  0  0  0  0  0  0
  2  1  1  6
  2  3  1  0
  2 21  1  0
  3  4  1  0
  4  5  1  0
  5  6  2  0
  5 20  1  0
  6  7  1  0
  7  8  2  0
  8  9  1  0
  8 19  1  0
  9 10  1  0
 10 11  2  0
 10 18  1  0
 11 12  1  0
 12 13  2  0
 12 14  1  0
 14 15  1  0
 14 16  1  0
 16 17  2  0
 16 18  1  0
 19 20  2  0
 20 21  1  0
M  END
