
     RDKit          3D

 21 23  0  0  0  0  0  0  0  0999 V2000
   -4.9070    0.7480   -0.8410 C   0  0  0  0  0  0  0  0  0  0  0  0
   -4.3660    1.2230    0.4280 N   0  0  0  0  0  0  0  0  0  0  0  0
   -3.6810   -0.1680    1.2150 S   0  0  2  0  0  0  0  0  0  0  0  0
   -4.7220   -1.2060    1.4750 O   0  0  0  0  0  0  0  0  0  0  0  0
   -3.0820    0.3070    2.5060 O   0  0  0  0  0  0  0  0  0  0  0  0
   -2.3910   -0.8240    0.2350 C   0  0  0  0  0  0  0  0  0  0  0  0
   -2.5820   -1.7860   -0.7190 C   0  0  0  0  0  0  0  0  0  0  0  0
   -1.5010   -2.2430   -1.4440 C   0  0  0  0  0  0  0  0  0  0  0  0
   -0.2260   -1.7510   -1.2290 C   0  0  0  0  0  0  0  0  0  0  0  0
   -0.0200   -0.7800   -0.2680 C   0  0  0  0  0  0  0  0  0  0  0  0
    1.3330   -0.2490   -0.0300 C   0  0  0  0  0  0  0  0  0  0  0  0
    1.6230    0.7190    0.9080 C   0  0  0  0  0  0  0  0  0  0  0  0
    2.9740    0.9450    0.8290 C   0  0  0  0  0  0  0  0  0  0  0  0
    3.4560    0.1200   -0.1390 C   0  0  0  0  0  0  0  0  0  0  0  0
    2.4460   -0.5550   -0.6060 O   0  0  0  0  0  0  0  0  0  0  0  0
    4.8910    0.0690   -0.5240 C   0  0  0  0  0  0  0  0  0  0  0  0
    5.6860    1.0090    0.2670 C   0  0  0  0  0  0  0  0  0  0  0  0
    5.2640    1.7910    1.1770 N   0  0  0  0  0  0  0  0  0  0  0  0
    3.8680    1.8270    1.5380 C   0  0  0  0  0  0  0  0  0  0  0  0
    3.4150    2.5750    2.4190 O   0  0  0  0  0  0  0  0  0  0  0  0
   -1.1090   -0.3450    0.4360 C   0  0  0  0  0  0  0  0  0  0  0  0
  1  2  1  0
  3  2  1  6
  3  4  2  0
  3  5  2  0
  3  6  1  0
  6  7  2  0
  6 21  1  0
  7  8  1  0
  8  9  2  0
  9 10  1  0
 10 11  1  0
 10 21  2  0
 11 12  2  0
 11 15  1  0
 12 13  1  0
 13 14  2  0
 13 19  1  0
 14 15  1  0
 14 16  1  0
 16 17  1  0
 17 18  2  0
 18 19  1  0
 19 20  2  0
M  END
