
     RDKit          3D

 21 22  0  0  0  0  0  0  0  0999 V2000
   -3.5990   -3.1890   -0.1840 C   0  0  0  0  0  0  0  0  0  0  0  0
   -2.7790   -2.3470    0.7350 C   0  0  0  0  0  0  0  0  0  0  0  0
   -2.4730   -1.0250    0.0840 C   0  0  0  0  0  0  0  0  0  0  0  0
   -1.6710   -0.1840    0.9670 N   0  0  0  0  0  0  0  0  0  0  0  0
   -1.2960    1.1120    0.4880 C   0  0  0  0  0  0  0  0  0  0  0  0
   -0.0700    1.2840    0.0890 C   0  0  0  0  0  0  0  0  0  0  0  0
    0.8690    0.1390    0.1490 C   0  0  0  0  0  0  0  0  0  0  0  0
    0.4830   -0.9830    0.5820 O   0  0  0  0  0  0  0  0  0  0  0  0
    2.1900    0.2300   -0.2560 O   0  0  0  0  0  0  0  0  0  0  0  0
    3.0110   -0.9050   -0.1650 C   0  0  0  0  0  0  0  0  0  0  0  0
    3.1950   -1.8260   -1.0900 C   0  0  0  0  0  0  0  0  0  0  0  0
    4.1270   -2.8510   -0.6140 C   0  0  0  0  0  0  0  0  0  0  0  0
    4.4690   -2.3940    0.7410 C   0  0  0  0  0  0  0  0  0  0  0  0
    3.8250   -1.2730    0.9980 C   0  0  0  0  0  0  0  0  0  0  0  0
    0.4560    2.5060   -0.4110 N   0  0  0  0  0  0  0  0  0  0  0  0
    1.4960    2.5730   -1.4030 C   0  0  0  0  0  0  0  0  0  0  0  0
   -0.0830    3.7500    0.1020 C   0  0  0  0  0  0  0  0  0  0  0  0
   -1.8280    3.7550    0.1960 S   0  0  1  0  0  0  0  0  0  0  0  0
   -2.3310    4.6630    1.2750 O   0  0  0  0  0  0  0  0  0  0  0  0
   -2.3710    4.2930   -1.1090 O   0  0  0  0  0  0  0  0  0  0  0  0
   -2.3640    2.1230    0.5000 C   0  0  0  0  0  0  0  0  0  0  0  0
  1  2  1  0
  2  3  1  0
  3  4  1  0
  4  5  1  0
  5  6  2  0
  5 21  1  0
  6  7  1  0
  6 15  1  0
  7  8  2  0
  7  9  1  0
  9 10  1  0
 10 11  2  0
 10 14  1  0
 11 12  1  0
 12 13  1  0
 13 14  2  0
 15 16  1  0
 15 17  1  0
 18 17  1  6
 18 19  2  0
 18 20  2  0
 18 21  1  0
M  END
