
     RDKit          3D

 21 23  0  0  0  0  0  0  0  0999 V2000
    1.2460   -0.1890   -1.1490 O   0  0  0  0  0  0  0  0  0  0  0  0
    1.0670   -0.1900    0.1010 C   0  0  0  0  0  0  0  0  0  0  0  0
    2.1470    0.1280    1.0450 C   0  0  0  0  0  0  0  0  0  0  0  0
    3.3180    0.4270    0.5290 C   0  0  0  0  0  0  0  0  0  0  0  0
    3.5240    0.4340   -0.8190 O   0  0  0  0  0  0  0  0  0  0  0  0
    4.7810    0.4680   -1.4140 C   0  0  0  0  0  0  0  0  0  0  0  0
    5.8870    0.3260   -0.4120 C   0  0  0  0  0  0  0  0  0  0  0  0
    5.6180    1.0700    0.7540 O   0  0  0  0  0  0  0  0  0  0  0  0
    4.4390    0.7690    1.4280 C   0  0  0  0  0  0  0  0  0  0  0  0
    4.2690    0.7680    2.6530 O   0  0  0  0  0  0  0  0  0  0  0  0
   -0.2650   -0.5070    0.6790 C   0  0  0  0  0  0  0  0  0  0  0  0
   -1.2720   -0.2750   -0.3200 N   0  0  0  0  0  0  0  0  0  0  0  0
   -2.6250   -0.4440    0.0170 C   0  0  0  0  0  0  0  0  0  0  0  0
   -3.0470   -0.9630    1.2090 C   0  0  0  0  0  0  0  0  0  0  0  0
   -4.4360   -1.0420    1.3530 C   0  0  0  0  0  0  0  0  0  0  0  0
   -5.2940   -0.6560    0.4330 N   0  0  0  0  0  0  0  0  0  0  0  0
   -4.8900   -0.1270   -0.7840 C   0  0  0  0  0  0  0  0  0  0  0  0
   -5.7280    0.2870   -1.7560 C   0  0  0  0  0  0  0  0  0  0  0  0
   -5.1690    0.7910   -2.8960 C   0  0  0  0  0  0  0  0  0  0  0  0
   -3.3880    0.6530   -2.5300 S   0  0  0  0  0  0  0  0  0  0  0  0
   -3.5730   -0.0350   -0.9590 C   0  0  0  0  0  0  0  0  0  0  0  0
  1  2  2  0
  2  3  1  0
  2 11  1  0
  3  4  2  3
  4  5  1  0
  4  9  1  0
  5  6  1  0
  6  7  1  0
  7  8  1  0
  8  9  1  0
  9 10  2  0
 11 12  1  0
 12 13  1  0
 13 14  2  0
 13 21  1  0
 14 15  1  0
 15 16  2  0
 16 17  1  0
 17 18  1  0
 17 21  2  0
 18 19  2  0
 19 20  1  0
 20 21  1  0
M  END
