
     RDKit          3D

 21 23  0  0  0  0  0  0  0  0999 V2000
    4.2920   -1.0070   -0.8630 C   0  0  0  0  0  0  0  0  0  0  0  0
    4.1650    0.1780    0.0320 C   0  0  0  0  0  0  0  0  0  0  0  0
    5.0610    1.1990    0.1420 N   0  0  0  0  0  0  0  0  0  0  0  0
    4.5800    2.0680    1.0540 C   0  0  0  0  0  0  0  0  0  0  0  0
    3.3560    1.6070    1.5430 C   0  0  0  0  0  0  0  0  0  0  0  0
    3.1160    0.4200    0.8880 C   0  0  0  0  0  0  0  0  0  0  0  0
    1.9310   -0.4330    1.0830 C   0  0  0  0  0  0  0  0  0  0  0  0
    1.0440   -0.0990    1.8950 O   0  0  0  0  0  0  0  0  0  0  0  0
    1.7560   -1.6120    0.3900 O   0  0  0  0  0  0  0  0  0  0  0  0
    0.6440   -2.4350    0.5570 C   0  0  0  0  0  0  0  0  0  0  0  0
   -0.5770   -1.6550    0.2050 C   0  0  0  0  0  0  0  0  0  0  0  0
   -0.9290   -0.5880   -0.1650 N   0  0  0  0  0  0  0  0  0  0  0  0
   -2.1160   -0.1380   -0.4090 C   0  0  0  0  0  0  0  0  0  0  0  0
   -3.1390   -1.1130   -0.1850 C   0  0  0  0  0  0  0  0  0  0  0  0
   -2.2600   -2.5070    0.3340 S   0  0  0  0  0  0  0  0  0  0  0  0
   -4.5810   -1.0560   -0.3250 C   0  0  0  0  0  0  0  0  0  0  0  0
   -5.1160   -2.2090   -0.2240 O   0  0  0  0  0  0  0  0  0  0  0  0
   -5.4850   -0.0110   -0.5450 O   0  0  0  0  0  0  0  0  0  0  0  0
   -5.1520    1.3550   -0.9800 C   0  0  0  0  0  0  0  0  0  0  0  0
   -3.7520    1.4550   -0.9840 C   0  0  0  0  0  0  0  0  0  0  0  0
   -2.3500    1.3130   -0.8890 C   0  0  0  0  0  0  0  0  0  0  0  0
  1  2  1  0
  2  3  1  0
  2  6  2  0
  3  4  1  0
  4  5  2  0
  5  6  1  0
  6  7  1  0
  7  8  2  0
  7  9  1  0
  9 10  1  0
 10 11  1  0
 11 12  2  0
 11 15  1  0
 12 13  1  0
 13 14  2  0
 13 21  1  0
 14 15  1  0
 14 16  1  0
 16 17  2  0
 16 18  1  0
 18 19  1  0
 19 20  1  0
 20 21  1  0
M  END
