
     RDKit          3D

 19 21  0  0  0  0  0  0  0  0999 V2000
   -3.2110    2.6080    1.4960 C   0  0  0  0  0  0  0  0  0  0  0  0
   -2.8090    1.3290    0.8620 C   0  0  0  0  0  0  0  0  0  0  0  0
   -1.4810    0.9950    0.8110 C   0  0  0  0  0  0  0  0  0  0  0  0
   -1.0200   -0.1940    0.2310 C   0  0  0  0  0  0  0  0  0  0  0  0
    0.4060   -0.4530    0.1900 C   0  0  0  0  0  0  0  0  0  0  0  0
    1.0090   -1.6340    0.4910 C   0  0  0  0  0  0  0  0  0  0  0  0
    2.4080   -1.6680    0.4810 C   0  0  0  0  0  0  0  0  0  0  0  0
    3.1430   -0.5500    0.1800 C   0  0  0  0  0  0  0  0  0  0  0  0
    2.5050    0.6360   -0.1190 C   0  0  0  0  0  0  0  0  0  0  0  0
    3.3000    1.8610   -0.4480 C   0  0  0  0  0  0  0  0  0  0  0  0
    4.7220    1.5750   -0.4160 N   0  0  0  0  0  0  0  0  0  0  0  0
    1.1790    0.6360   -0.1030 N   0  0  0  0  0  0  0  0  0  0  0  0
   -1.9980   -1.0200   -0.2980 C   0  0  0  0  0  0  0  0  0  0  0  0
   -1.9470   -2.2020   -0.9650 C   0  0  0  0  0  0  0  0  0  0  0  0
   -0.7920   -2.9170   -1.2650 O   0  0  0  0  0  0  0  0  0  0  0  0
   -3.2420   -2.5690   -1.3010 C   0  0  0  0  0  0  0  0  0  0  0  0
   -4.0700   -1.6290   -0.8520 N   0  0  0  0  0  0  0  0  0  0  0  0
   -3.3410   -0.6790   -0.2440 C   0  0  0  0  0  0  0  0  0  0  0  0
   -3.6890    0.4900    0.3400 N   0  0  0  0  0  0  0  0  0  0  0  0
  1  2  1  0
  2  3  2  0
  2 19  1  0
  3  4  1  0
  4  5  1  0
  4 13  2  0
  5  6  2  0
  5 12  1  0
  6  7  1  0
  7  8  2  0
  8  9  1  0
  9 10  1  0
  9 12  2  0
 10 11  1  0
 13 14  1  0
 13 18  1  0
 14 15  1  0
 14 16  2  0
 16 17  1  0
 17 18  1  0
 18 19  2  0
M  CHG  1  11   1
M  END
