
     RDKit          3D

 23 24  0  0  0  0  0  0  0  0999 V2000
    7.3840    0.1280   -0.4720 C   0  0  0  0  0  0  0  0  0  0  0  0
    6.3320    0.1090   -1.4840 C   0  0  0  0  0  0  0  0  0  0  0  0
    5.0520    0.0370   -1.4280 C   0  0  0  0  0  0  0  0  0  0  0  0
    4.4120    0.0520   -2.7200 O   0  0  0  0  0  0  0  0  0  0  0  0
    4.2070   -0.0550   -0.2720 C   0  0  0  0  0  0  0  0  0  0  0  0
    4.6330   -0.0860    1.0230 C   0  0  0  0  0  0  0  0  0  0  0  0
    3.7430   -0.1770    2.1100 C   0  0  0  0  0  0  0  0  0  0  0  0
    2.3860   -0.2380    1.8980 C   0  0  0  0  0  0  0  0  0  0  0  0
    1.4160   -0.3340    3.0060 C   0  0  0  0  0  0  0  0  0  0  0  0
    1.9180   -0.2090    0.6020 C   0  0  0  0  0  0  0  0  0  0  0  0
    0.5550   -0.2710    0.3910 O   0  0  0  0  0  0  0  0  0  0  0  0
   -0.0440   -0.2500   -0.8810 C   0  0  0  0  0  0  0  0  0  0  0  0
   -1.5140   -0.3340   -0.6840 C   0  0  0  0  0  0  0  0  0  0  0  0
   -2.1070   -1.5550   -0.6410 C   0  0  0  0  0  0  0  0  0  0  0  0
   -3.4640   -1.7390   -0.4620 C   0  0  0  0  0  0  0  0  0  0  0  0
   -4.0610   -3.1040   -0.4230 C   0  0  0  0  0  0  0  0  0  0  0  0
   -4.2460   -0.6160   -0.3210 C   0  0  0  0  0  0  0  0  0  0  0  0
   -3.6670    0.6420   -0.3610 C   0  0  0  0  0  0  0  0  0  0  0  0
   -4.5140    1.8280   -0.2100 C   0  0  2  0  0  0  0  0  0  0  0  0
   -5.2160    1.7360    1.1420 C   0  0  0  0  0  0  0  0  0  0  0  0
   -5.5920    1.8700   -1.2730 C   0  0  0  0  0  0  0  0  0  0  0  0
   -2.3100    0.7820   -0.5410 C   0  0  0  0  0  0  0  0  0  0  0  0
    2.8080   -0.1210   -0.4340 C   0  0  0  0  0  0  0  0  0  0  0  0
  1  2  1  0
  2  3  2  3
  3  4  1  0
  3  5  1  0
  5  6  2  0
  5 23  1  0
  6  7  1  0
  7  8  2  0
  8  9  1  0
  8 10  1  0
 10 11  1  0
 10 23  2  0
 11 12  1  0
 12 13  1  0
 13 14  2  0
 13 22  1  0
 14 15  1  0
 15 16  1  0
 15 17  2  0
 17 18  1  0
 18 19  1  0
 18 22  2  0
 19 20  1  1
 19 21  1  0
M  END
