
     RDKit          3D

 19 21  0  0  0  0  0  0  0  0999 V2000
   -4.1310   -1.3670   -0.0430 C   0  0  0  0  0  0  0  0  0  0  0  0
   -2.7060   -0.8830    0.0600 C   0  0  0  0  0  0  0  0  0  0  0  0
   -1.6640   -1.6660    0.4760 C   0  0  0  0  0  0  0  0  0  0  0  0
   -0.3840   -1.1760    0.5530 C   0  0  0  0  0  0  0  0  0  0  0  0
    0.6280   -2.0030    0.8290 N   0  0  0  0  0  0  0  0  0  0  0  0
    1.9410   -1.5820    0.7590 C   0  0  0  0  0  0  0  0  0  0  0  0
    2.9010   -2.3420    1.0060 O   0  0  0  0  0  0  0  0  0  0  0  0
    2.1910   -0.2920    0.3980 C   0  0  0  0  0  0  0  0  0  0  0  0
    3.5860    0.1100    0.0850 C   0  0  0  0  0  0  0  0  0  0  0  0
    4.1240    1.3250    0.3080 C   0  0  0  0  0  0  0  0  0  0  0  0
    5.4290    1.2850   -0.0440 C   0  0  0  0  0  0  0  0  0  0  0  0
    5.7010    0.0100   -0.4900 C   0  0  0  0  0  0  0  0  0  0  0  0
    4.5360   -0.6860   -0.3890 N   0  0  0  0  0  0  0  0  0  0  0  0
    1.1510    0.5710    0.1260 C   0  0  0  0  0  0  0  0  0  0  0  0
   -0.1650    0.1580    0.2010 C   0  0  0  0  0  0  0  0  0  0  0  0
   -1.2170    0.9150   -0.1940 N   0  0  0  0  0  0  0  0  0  0  0  0
   -2.4760    0.4560   -0.2820 C   0  0  0  0  0  0  0  0  0  0  0  0
   -3.5730    1.2200   -0.8660 C   0  0  0  0  0  0  0  0  0  0  0  0
   -3.8940    2.2910    0.0410 N   0  0  0  0  0  0  0  0  0  0  0  0
  1  2  1  0
  2  3  2  0
  2 17  1  0
  3  4  1  0
  4  5  1  0
  4 15  2  0
  5  6  1  0
  6  7  2  0
  6  8  1  0
  8  9  1  0
  8 14  2  0
  9 10  2  0
  9 13  1  0
 10 11  1  0
 11 12  2  0
 12 13  1  0
 14 15  1  0
 15 16  1  0
 16 17  2  0
 17 18  1  0
 18 19  1  0
M  CHG  1  19   1
M  END
