
     RDKit          3D

 42 44  0  0  0  0  0  0  0  0999 V2000
   -6.6690   -1.3840    3.0090 C   0  0  0  0  0  0  0  0  0  0  0  0
   -5.7660   -1.4200    1.8350 C   0  0  0  0  0  0  0  0  0  0  0  0
   -6.0010   -2.2670    0.9390 O   0  0  0  0  0  0  0  0  0  0  0  0
   -4.6540   -0.5500    1.6710 N   0  0  0  0  0  0  0  0  0  0  0  0
   -3.8140   -0.6420    0.4970 C   0  0  2  0  0  0  0  0  0  0  0  0
   -2.4160   -1.0000    0.9150 C   0  0  1  0  0  0  0  0  0  0  0  0
   -2.4310   -2.3350    1.3350 O   0  0  0  0  0  0  0  0  0  0  0  0
   -1.3830   -0.7680   -0.1330 C   0  0  1  0  0  0  0  0  0  0  0  0
   -1.2490   -1.9530   -0.8580 F   0  0  0  0  0  0  0  0  0  0  0  0
   -1.6880    0.3220   -1.1020 C   0  0  1  0  0  0  0  0  0  0  0  0
   -1.3770    1.5890   -0.6700 O   0  0  0  0  0  0  0  0  0  0  0  0
    0.1960    1.8780   -0.2990 P   0  0  2  0  0  0  0  0  0  0  0  0
    0.4110    2.2230    1.1650 O   0  0  0  0  0  0  0  0  0  0  0  0
    0.7020    3.2610   -1.1760 O   0  0  0  0  0  0  0  0  0  0  0  0
    1.2540    0.6380   -0.7030 O   0  0  0  0  0  0  0  0  0  0  0  0
    2.5740    1.0070   -0.6580 C   0  0  0  0  0  0  0  0  0  0  0  0
    3.3940   -0.2270   -1.0500 C   0  0  1  0  0  0  0  0  0  0  0  0
    4.7150    0.1420   -1.0050 O   0  0  0  0  0  0  0  0  0  0  0  0
    5.4440   -0.9310   -0.4970 C   0  0  1  0  0  0  0  0  0  0  0  0
    6.7200   -0.5180   -0.0240 N   0  0  0  0  0  0  0  0  0  0  0  0
    6.9330    0.6890    0.5150 C   0  0  0  0  0  0  0  0  0  0  0  0
    8.1820    1.0760    0.9700 C   0  0  0  0  0  0  0  0  0  0  0  0
    9.2440    0.1950    0.8670 C   0  0  0  0  0  0  0  0  0  0  0  0
   10.5500    0.5340    1.3160 N   0  0  0  0  0  0  0  0  0  0  0  0
    9.0010   -1.0060    0.3230 N   0  0  0  0  0  0  0  0  0  0  0  0
    7.7670   -1.3540   -0.1130 C   0  0  0  0  0  0  0  0  0  0  0  0
    7.6310   -2.5100   -0.6130 O   0  0  0  0  0  0  0  0  0  0  0  0
    4.5300   -1.4020    0.6330 C   0  0  2  0  0  0  0  0  0  0  0  0
    4.8400   -2.6810    1.0460 O   0  0  0  0  0  0  0  0  0  0  0  0
    3.1830   -1.3270   -0.0510 C   0  0  2  0  0  0  0  0  0  0  0  0
    3.0090   -2.5170   -0.7580 O   0  0  0  0  0  0  0  0  0  0  0  0
   -0.9530    0.0690   -2.3620 C   0  0  0  0  0  0  0  0  0  0  0  0
   -0.1940    0.9130   -2.8870 O   0  0  0  0  0  0  0  0  0  0  0  0
   -1.1110   -1.1520   -2.9890 O   0  0  0  0  0  0  0  0  0  0  0  0
   -3.0580    0.3600   -1.4480 O   0  0  0  0  0  0  0  0  0  0  0  0
   -3.7370    0.6410   -0.2660 C   0  0  1  0  0  0  0  0  0  0  0  0
   -5.0300    1.3340   -0.4610 C   0  0  2  0  0  0  0  0  0  0  0  0
   -5.6110    1.5580    0.7860 O   0  0  0  0  0  0  0  0  0  0  0  0
   -5.9720    0.6220   -1.3950 C   0  0  2  0  0  0  0  0  0  0  0  0
   -5.3210    0.4350   -2.6140 O   0  0  0  0  0  0  0  0  0  0  0  0
   -7.2090    1.4450   -1.6840 C   0  0  0  0  0  0  0  0  0  0  0  0
   -7.9600    1.7130   -0.5660 O   0  0  0  0  0  0  0  0  0  0  0  0
  1  2  1  0
  2  3  2  0
  2  4  1  0
  5  4  1  1
  5  6  1  0
  5 36  1  0
  6  7  1  6
  6  8  1  0
  8  9  1  6
  8 10  1  0
 10 11  1  1
 10 32  1  0
 10 35  1  0
 11 12  1  0
 12 13  2  0
 12 14  1  6
 12 15  1  0
 15 16  1  0
 17 16  1  1
 17 18  1  0
 17 30  1  0
 18 19  1  0
 19 20  1  1
 19 28  1  0
 20 21  1  0
 20 26  1  0
 21 22  2  0
 22 23  1  0
 23 24  1  0
 23 25  2  0
 25 26  1  0
 26 27  2  0
 28 29  1  6
 28 30  1  0
 30 31  1  6
 32 33  2  0
 32 34  1  0
 36 35  1  6
 36 37  1  0
 37 38  1  1
 37 39  1  0
 39 40  1  6
 39 41  1  0
 41 42  1  0
M  END
