
     RDKit          3D

 42 44  0  0  0  0  0  0  0  0999 V2000
   -9.0710   -0.8610   -0.0200 C   0  0  0  0  0  0  0  0  0  0  0  0
   -7.8960   -0.1300   -0.4460 O   0  0  0  0  0  0  0  0  0  0  0  0
   -6.6950   -0.2840    0.2810 C   0  0  0  0  0  0  0  0  0  0  0  0
   -6.5230   -0.9420    1.2690 O   0  0  0  0  0  0  0  0  0  0  0  0
   -5.5450    0.5390   -0.2870 C   0  0  2  0  0  0  0  0  0  0  0  0
   -4.4540    0.1960    0.4720 O   0  0  0  0  0  0  0  0  0  0  0  0
   -3.8430   -1.0360    0.4020 C   0  0  0  0  0  0  0  0  0  0  0  0
   -4.2940   -1.9420   -0.5020 O   0  0  0  0  0  0  0  0  0  0  0  0
   -2.6910   -1.3910    1.2380 C   0  0  0  0  0  0  0  0  0  0  0  0
   -1.4870   -0.8370    0.6290 N   0  0  0  0  0  0  0  0  0  0  0  0
   -0.2460   -1.0340    1.2870 C   0  0  0  0  0  0  0  0  0  0  0  0
   -0.2940   -1.6880    2.3000 O   0  0  0  0  0  0  0  0  0  0  0  0
    0.8920   -0.4700    0.7440 C   0  0  1  0  0  0  0  0  0  0  0  0
    1.4780    0.2800    1.9140 F   0  0  0  0  0  0  0  0  0  0  0  0
    2.0030   -1.2370    0.0880 C   0  0  0  0  0  0  0  0  0  0  0  0
    3.2650   -0.6770    0.6880 C   0  0  1  0  0  0  0  0  0  0  0  0
    3.4120   -1.3060    2.0150 C   0  0  0  0  0  0  0  0  0  0  0  0
    4.3230   -0.6890    2.7670 O   0  0  0  0  0  0  0  0  0  0  0  0
    2.8150   -2.3760    2.5480 N   0  0  0  0  0  0  0  0  0  0  0  0
    3.1080   -2.9510    3.8390 C   0  0  0  0  0  0  0  0  0  0  0  0
    3.8310   -2.4780    4.6240 O   0  0  0  0  0  0  0  0  0  0  0  0
    2.4380   -4.2210    4.1320 O   0  0  0  0  0  0  0  0  0  0  0  0
    4.5840   -0.7850    0.1310 C   0  0  0  0  0  0  0  0  0  0  0  0
    5.6240   -1.1990    0.5260 O   0  0  0  0  0  0  0  0  0  0  0  0
    4.7040   -0.1420   -1.4840 N   0  0  0  0  0  0  0  0  0  0  0  0
    6.0790    0.1740   -1.4420 C   0  0  0  0  0  0  0  0  0  0  0  0
    6.7370    0.5170   -0.4880 O   0  0  0  0  0  0  0  0  0  0  0  0
    6.7310    0.1010   -2.7940 N   0  0  0  0  0  0  0  0  0  0  0  0
    8.4110    0.7530   -2.8310 P   0  0  0  0  0  0  0  0  0  0  0  0
    9.3700    0.1660   -1.4720 O   0  0  0  0  0  0  0  0  0  0  0  0
    8.2580    2.5370   -2.5830 O   0  0  0  0  0  0  0  0  0  0  0  0
    2.9610    0.8130    0.7770 C   0  0  0  0  0  0  0  0  0  0  0  0
    3.5920    1.4640    1.5570 O   0  0  0  0  0  0  0  0  0  0  0  0
    1.8890    1.4510   -0.0320 C   0  0  1  0  0  0  0  0  0  0  0  0
    1.5130    2.7960    0.4860 C   0  0  0  0  0  0  0  0  0  0  0  0
    2.1690    3.4480   -0.5860 O   0  0  0  0  0  0  0  0  0  0  0  0
    2.2300    2.1920   -1.2500 C   0  0  0  0  0  0  0  0  0  0  0  0
    0.7600    0.6240   -0.1380 O   0  0  0  0  0  0  0  0  0  0  0  0
   -5.8420    1.9880   -0.3130 C   0  0  0  0  0  0  0  0  0  0  0  0
   -6.3560    2.1580   -1.7160 C   0  0  0  0  0  0  0  0  0  0  0  0
   -6.3970    0.9060   -2.2910 O   0  0  0  0  0  0  0  0  0  0  0  0
   -5.3830    0.1580   -1.7460 C   0  0  0  0  0  0  0  0  0  0  0  0
  1  2  1  0
  2  3  1  0
  3  4  2  0
  3  5  1  0
  5  6  1  1
  5 39  1  0
  5 42  1  0
  6  7  1  0
  7  8  2  0
  7  9  1  0
  9 10  1  0
 10 11  1  0
 11 12  2  0
 11 13  1  0
 13 14  1  1
 13 15  1  0
 13 38  1  0
 15 16  1  0
 16 17  1  1
 16 23  1  0
 16 32  1  0
 17 18  2  0
 17 19  1  0
 19 20  1  0
 20 21  2  0
 20 22  1  0
 23 24  2  0
 23 25  1  0
 25 26  1  0
 26 27  2  0
 26 28  1  0
 28 29  1  0
 29 30  1  0
 29 31  1  0
 32 33  2  0
 32 34  1  0
 34 35  1  1
 34 37  1  0
 34 38  1  0
 35 36  1  0
 36 37  1  0
 39 40  1  0
 40 41  1  0
 41 42  1  0
M  END
