
     RDKit          3D

 41 42  0  0  0  0  0  0  0  0999 V2000
    7.0750    0.2780    0.6220 C   0  0  0  0  0  0  0  0  0  0  0  0
    6.6840   -0.3250   -0.7030 C   0  0  2  0  0  0  0  0  0  0  0  0
    6.9140   -1.8010   -0.7170 C   0  0  0  0  0  0  0  0  0  0  0  0
    7.5600    0.3690   -1.7450 C   0  0  0  0  0  0  0  0  0  0  0  0
    5.3350    0.0670   -0.9890 O   0  0  0  0  0  0  0  0  0  0  0  0
    4.3300   -0.1540   -0.1490 C   0  0  0  0  0  0  0  0  0  0  0  0
    4.3190   -0.6580    0.9130 O   0  0  0  0  0  0  0  0  0  0  0  0
    2.7810    0.3810   -0.7130 N   0  0  0  0  0  0  0  0  0  0  0  0
    2.0760    0.0900    0.4440 C   0  0  0  0  0  0  0  0  0  0  0  0
    2.3280   -0.2500    1.5510 O   0  0  0  0  0  0  0  0  0  0  0  0
    0.6110    0.2820    0.1210 N   0  0  0  0  0  0  0  0  0  0  0  0
   -0.3220    0.1050    1.1640 C   0  0  2  0  0  0  0  0  0  0  0  0
   -0.6500   -1.4100    1.2970 C   0  0  0  0  0  0  0  0  0  0  0  0
   -0.6370   -1.7030    2.5100 O   0  0  0  0  0  0  0  0  0  0  0  0
   -0.8540   -2.0150    0.0780 N   0  0  0  0  0  0  0  0  0  0  0  0
   -1.3750   -1.1450   -0.9990 C   0  0  0  0  0  0  0  0  0  0  0  0
   -1.8640    0.1690   -0.6750 C   0  0  0  0  0  0  0  0  0  0  0  0
   -1.6050    0.7340    0.6950 C   0  0  2  0  0  0  0  0  0  0  0  0
   -1.4620    2.2060    0.6940 C   0  0  0  0  0  0  0  0  0  0  0  0
   -0.5490    2.7300    1.3420 O   0  0  0  0  0  0  0  0  0  0  0  0
   -2.3600    3.0650   -0.0260 N   0  0  0  0  0  0  0  0  0  0  0  0
   -2.3020    4.4580   -0.0450 C   0  0  0  0  0  0  0  0  0  0  0  0
   -1.3560    4.9410    0.7140 O   0  0  0  0  0  0  0  0  0  0  0  0
   -3.1470    5.3770   -0.8060 C   0  0  0  0  0  0  0  0  0  0  0  0
   -2.7010    7.1350   -0.2960 P   0  0  0  0  0  0  0  0  0  0  0  0
   -1.0300    7.4550   -0.5420 O   0  0  0  0  0  0  0  0  0  0  0  0
   -3.7680    8.2920   -0.9370 O   0  0  0  0  0  0  0  0  0  0  0  0
   -2.7930    0.3940    1.5410 C   0  0  0  0  0  0  0  0  0  0  0  0
   -3.9420    0.1750    0.7650 O   0  0  0  0  0  0  0  0  0  0  0  0
   -4.7510   -0.9150    0.6910 C   0  0  0  0  0  0  0  0  0  0  0  0
   -6.0110   -0.7090    0.7960 O   0  0  0  0  0  0  0  0  0  0  0  0
   -4.3580   -2.3190    0.4990 C   0  0  2  0  0  0  0  0  0  0  0  0
   -4.5990   -2.7330   -0.8020 O   0  0  0  0  0  0  0  0  0  0  0  0
   -5.1580   -3.0780    1.4060 O   0  0  0  0  0  0  0  0  0  0  0  0
   -6.4320   -2.9110    1.0950 O   0  0  0  0  0  0  0  0  0  0  0  0
   -3.0620   -2.5870    0.8140 O   0  0  0  0  0  0  0  0  0  0  0  0
   -2.6730   -3.8580    1.0330 C   0  0  0  0  0  0  0  0  0  0  0  0
   -1.5600   -4.4150    0.1830 C   0  0  1  0  0  0  0  0  0  0  0  0
   -0.7120   -5.1460    1.0740 O   0  0  0  0  0  0  0  0  0  0  0  0
   -1.9800   -5.3620   -0.7140 F   0  0  0  0  0  0  0  0  0  0  0  0
   -0.6590   -3.3730   -0.4110 C   0  0  0  0  0  0  0  0  0  0  0  0
  2  1  1  1
  2  3  1  0
  2  4  1  0
  2  5  1  0
  5  6  1  0
  6  7  2  0
  6  8  1  0
  8  9  1  0
  9 10  2  0
  9 11  1  0
 12 11  1  6
 12 13  1  0
 12 18  1  0
 13 14  2  0
 13 15  1  0
 15 16  1  0
 15 41  1  0
 16 17  1  0
 17 18  1  0
 18 19  1  6
 18 28  1  0
 19 20  2  0
 19 21  1  0
 21 22  1  0
 22 23  2  0
 22 24  1  0
 24 25  1  0
 25 26  1  0
 25 27  1  0
 28 29  1  0
 29 30  1  0
 30 31  2  0
 30 32  1  0
 32 33  1  6
 32 34  1  0
 32 36  1  0
 34 35  1  0
 36 37  1  0
 37 38  1  0
 38 39  1  1
 38 40  1  0
 38 41  1  0
M  END
