
     RDKit          3D

 41 43  0  0  0  0  0  0  0  0999 V2000
    3.5260   -0.0220   -4.6340 C   0  0  0  0  0  0  0  0  0  0  0  0
    2.7640   -1.2130   -4.0980 C   0  0  1  0  0  0  0  0  0  0  0  0
    3.4320   -2.3900   -4.3360 O   0  0  0  0  0  0  0  0  0  0  0  0
    2.4530   -1.0780   -2.6520 C   0  0  0  0  0  0  0  0  0  0  0  0
    2.7840   -1.9590   -1.8380 O   0  0  0  0  0  0  0  0  0  0  0  0
    1.7690    0.0720   -2.1980 N   0  0  0  0  0  0  0  0  0  0  0  0
    1.4340    0.2600   -0.7760 C   0  0  2  0  0  0  0  0  0  0  0  0
    2.6960    0.2630    0.0190 C   0  0  0  0  0  0  0  0  0  0  0  0
    3.8260    0.1270   -0.5520 O   0  0  0  0  0  0  0  0  0  0  0  0
    2.7010    0.4150    1.4200 N   0  0  0  0  0  0  0  0  0  0  0  0
    3.9280    0.4170    2.2100 C   0  0  0  0  0  0  0  0  0  0  0  0
    4.6720   -0.8860    2.0670 C   0  0  0  0  0  0  0  0  0  0  0  0
    5.8390   -0.8270    2.8460 O   0  0  0  0  0  0  0  0  0  0  0  0
    6.7640   -2.2730    2.7470 P   0  0  0  0  0  0  0  0  0  0  0  0
    8.4490   -1.8440    2.6410 O   0  0  0  0  0  0  0  0  0  0  0  0
    6.5830   -3.2620    4.1710 O   0  0  0  0  0  0  0  0  0  0  0  0
    0.4380   -0.7460   -0.3250 C   0  0  0  0  0  0  0  0  0  0  0  0
   -0.0720   -0.4190    0.9150 O   0  0  0  0  0  0  0  0  0  0  0  0
   -0.8170    0.7590    0.9370 C   0  0  2  0  0  0  0  0  0  0  0  0
   -1.0160    1.0370    2.3100 O   0  0  0  0  0  0  0  0  0  0  0  0
   -2.1520    0.6290    0.3080 C   0  0  0  0  0  0  0  0  0  0  0  0
   -3.3460    0.8100    0.9020 C   0  0  0  0  0  0  0  0  0  0  0  0
   -3.5490    1.1660    2.2670 N   0  0  0  0  0  0  0  0  0  0  0  0
   -3.9510    0.2560    3.3010 C   0  0  0  0  0  0  0  0  0  0  0  0
   -5.3450   -0.2610    3.1670 C   0  0  0  0  0  0  0  0  0  0  0  0
   -5.5820   -0.9690    1.9730 O   0  0  0  0  0  0  0  0  0  0  0  0
   -4.9180   -2.1070    1.6230 C   0  0  0  0  0  0  0  0  0  0  0  0
   -4.0380   -2.5660    2.4010 O   0  0  0  0  0  0  0  0  0  0  0  0
   -5.1400   -2.8150    0.4490 O   0  0  0  0  0  0  0  0  0  0  0  0
   -4.2970    0.5830   -0.0680 O   0  0  0  0  0  0  0  0  0  0  0  0
   -3.6930    0.6680   -1.3270 C   0  0  2  0  0  0  0  0  0  0  0  0
   -3.7740    2.0380   -1.9340 C   0  0  0  0  0  0  0  0  0  0  0  0
   -3.9160    1.7390   -3.3980 C   0  0  0  0  0  0  0  0  0  0  0  0
   -4.4590    0.4870   -3.5290 O   0  0  0  0  0  0  0  0  0  0  0  0
   -4.3250   -0.2000   -2.3580 C   0  0  0  0  0  0  0  0  0  0  0  0
   -2.3610    0.2910   -1.0230 O   0  0  0  0  0  0  0  0  0  0  0  0
   -0.0430    1.8620    0.4100 N   0  0  0  0  0  0  0  0  0  0  0  0
   -0.1680    3.1300    0.9880 C   0  0  0  0  0  0  0  0  0  0  0  0
    0.4750    4.1400    0.5820 O   0  0  0  0  0  0  0  0  0  0  0  0
   -1.0020    3.3530    2.0360 F   0  0  0  0  0  0  0  0  0  0  0  0
    0.8290    1.6350   -0.6850 C   0  0  0  0  0  0  0  0  0  0  0  0
  2  1  1  1
  2  3  1  0
  2  4  1  0
  4  5  2  0
  4  6  1  0
  7  6  1  6
  7  8  1  0
  7 17  1  0
  7 41  1  0
  8  9  2  0
  8 10  1  0
 10 11  1  0
 11 12  1  0
 12 13  1  0
 13 14  1  0
 14 15  1  0
 14 16  1  0
 17 18  1  0
 18 19  1  0
 19 20  1  1
 19 21  1  0
 19 37  1  0
 21 22  2  0
 21 36  1  0
 22 23  1  0
 22 30  1  0
 23 24  1  0
 24 25  1  0
 25 26  1  0
 26 27  1  0
 27 28  2  0
 27 29  1  0
 30 31  1  0
 31 32  1  6
 31 35  1  0
 31 36  1  0
 32 33  1  0
 33 34  1  0
 34 35  1  0
 37 38  1  0
 37 41  1  0
 38 39  2  0
 38 40  1  0
M  END
