
     RDKit          3D

 41 42  0  0  0  0  0  0  0  0999 V2000
   -5.0320    7.3960    0.4370 C   0  0  0  0  0  0  0  0  0  0  0  0
   -4.0450    6.6490   -0.2410 O   0  0  0  0  0  0  0  0  0  0  0  0
   -4.0310    5.2750   -0.1650 C   0  0  0  0  0  0  0  0  0  0  0  0
   -4.8970    4.6690    0.6100 O   0  0  0  0  0  0  0  0  0  0  0  0
   -3.0790    4.4830   -0.9520 C   0  0  0  0  0  0  0  0  0  0  0  0
   -3.0860    3.1000   -0.6440 O   0  0  0  0  0  0  0  0  0  0  0  0
   -2.8670    2.9710    0.7360 C   0  0  0  0  0  0  0  0  0  0  0  0
   -1.7510    2.0960    1.0750 C   0  0  0  0  0  0  0  0  0  0  0  0
   -1.9360    0.6780    0.7630 N   0  0  0  0  0  0  0  0  0  0  0  0
   -2.1660    0.3310   -0.5720 C   0  0  0  0  0  0  0  0  0  0  0  0
   -0.8370    0.5440   -1.2510 C   0  0  2  0  0  0  0  0  0  0  0  0
   -0.7750   -0.0140   -2.4780 O   0  0  0  0  0  0  0  0  0  0  0  0
   -0.0670   -0.4650   -0.2380 C   0  0  1  0  0  0  0  0  0  0  0  0
   -0.7910   -1.7350   -0.5310 N   0  0  0  0  0  0  0  0  0  0  0  0
   -0.7050   -2.8510    0.3070 C   0  0  0  0  0  0  0  0  0  0  0  0
    0.0480   -2.8200    1.2980 O   0  0  0  0  0  0  0  0  0  0  0  0
   -1.5280   -4.0090   -0.0890 C   0  0  1  0  0  0  0  0  0  0  0  0
   -2.6530   -3.4890   -0.7880 O   0  0  0  0  0  0  0  0  0  0  0  0
   -0.7600   -4.8240   -1.1010 C   0  0  0  0  0  0  0  0  0  0  0  0
   -1.4360   -6.0570   -1.3500 O   0  0  0  0  0  0  0  0  0  0  0  0
   -1.7510   -6.8440   -0.2800 C   0  0  0  0  0  0  0  0  0  0  0  0
   -2.1970   -8.0270   -0.4630 O   0  0  0  0  0  0  0  0  0  0  0  0
   -1.4990   -6.2690    1.0490 C   0  0  0  0  0  0  0  0  0  0  0  0
   -2.0200   -4.8400    1.0760 C   0  0  1  0  0  0  0  0  0  0  0  0
   -1.6500   -4.2380    2.2610 F   0  0  0  0  0  0  0  0  0  0  0  0
   -3.5090   -4.9160    0.9890 C   0  0  0  0  0  0  0  0  0  0  0  0
   -4.0370   -5.9220    0.5410 O   0  0  0  0  0  0  0  0  0  0  0  0
   -4.2770   -3.8650    1.4240 O   0  0  0  0  0  0  0  0  0  0  0  0
    1.2550   -0.5900   -0.6690 C   0  0  0  0  0  0  0  0  0  0  0  0
    1.7970   -1.1440   -1.5460 O   0  0  0  0  0  0  0  0  0  0  0  0
    2.4510    0.3210    0.3340 N   0  0  0  0  0  0  0  0  0  0  0  0
    3.4280   -0.0940   -0.2470 C   0  0  0  0  0  0  0  0  0  0  0  0
    4.2120   -0.7080   -0.9940 O   0  0  0  0  0  0  0  0  0  0  0  0
    4.6480    0.8770    0.4300 N   0  0  0  0  0  0  0  0  0  0  0  0
    5.8190    0.6750   -0.2980 C   0  0  0  0  0  0  0  0  0  0  0  0
    7.1030    0.5230    0.4280 C   0  0  0  0  0  0  0  0  0  0  0  0
    7.4530    1.6350    1.1180 O   0  0  0  0  0  0  0  0  0  0  0  0
    8.9260    2.2870    0.3090 P   0  0  0  0  0  0  0  0  0  0  0  0
    9.1270    1.2460   -1.1180 O   0  0  0  0  0  0  0  0  0  0  0  0
    8.2890    3.8470   -0.3770 O   0  0  0  0  0  0  0  0  0  0  0  0
   -0.5500    0.1160    1.0500 C   0  0  0  0  0  0  0  0  0  0  0  0
  1  2  1  0
  2  3  1  0
  3  4  2  0
  3  5  1  0
  5  6  1  0
  6  7  1  0
  7  8  1  0
  8  9  1  0
  9 10  1  0
  9 41  1  0
 10 11  1  0
 11 12  1  6
 11 13  1  0
 13 14  1  6
 13 29  1  0
 13 41  1  0
 14 15  1  0
 15 16  2  0
 15 17  1  0
 17 18  1  6
 17 19  1  0
 17 24  1  0
 19 20  1  0
 20 21  1  0
 21 22  2  0
 21 23  1  0
 23 24  1  0
 24 25  1  1
 24 26  1  0
 26 27  2  0
 26 28  1  0
 29 30  2  0
 29 31  1  0
 31 32  1  0
 32 33  2  0
 32 34  1  0
 34 35  1  0
 35 36  1  0
 36 37  1  0
 37 38  1  0
 38 39  1  0
 38 40  1  0
M  END
