
     RDKit          3D

 42 43  0  0  0  0  0  0  0  0999 V2000
   -4.6850   -1.4440   -3.2080 C   0  0  0  0  0  0  0  0  0  0  0  0
   -4.0460   -0.4880   -2.4160 O   0  0  0  0  0  0  0  0  0  0  0  0
   -2.6820   -0.5180   -2.1280 C   0  0  0  0  0  0  0  0  0  0  0  0
   -2.0290   -1.4520   -2.6140 O   0  0  0  0  0  0  0  0  0  0  0  0
   -2.1570    0.5720   -1.2720 C   0  0  2  0  0  0  0  0  0  0  0  0
   -2.4420    1.8280   -2.0400 C   0  0  0  0  0  0  0  0  0  0  0  0
   -1.5340    2.6590   -2.2660 O   0  0  0  0  0  0  0  0  0  0  0  0
   -3.7070    2.1140   -2.5270 O   0  0  0  0  0  0  0  0  0  0  0  0
   -0.8220    0.5450   -0.9710 O   0  0  0  0  0  0  0  0  0  0  0  0
    0.2270   -0.2530   -1.2530 C   0  0  0  0  0  0  0  0  0  0  0  0
    1.0410   -0.0960   -2.2410 O   0  0  0  0  0  0  0  0  0  0  0  0
    0.5120   -1.4150   -0.3950 C   0  0  0  0  0  0  0  0  0  0  0  0
    0.8450   -1.2000    1.0010 C   0  0  1  0  0  0  0  0  0  0  0  0
    0.9850   -2.4940    1.7870 C   0  0  0  0  0  0  0  0  0  0  0  0
    1.0760   -3.6100    1.2930 O   0  0  0  0  0  0  0  0  0  0  0  0
    1.0040   -2.3160    3.1960 N   0  0  0  0  0  0  0  0  0  0  0  0
    0.9620   -0.9710    3.6890 C   0  0  0  0  0  0  0  0  0  0  0  0
    0.5710   -0.7830    4.8630 O   0  0  0  0  0  0  0  0  0  0  0  0
    1.3600    0.2120    2.8770 C   0  0  2  0  0  0  0  0  0  0  0  0
    0.2840    1.2170    2.7040 C   0  0  0  0  0  0  0  0  0  0  0  0
   -1.0400    0.7730    2.9850 N   0  0  0  0  0  0  0  0  0  0  0  0
   -2.2000    1.4870    2.5800 C   0  0  0  0  0  0  0  0  0  0  0  0
   -3.3080    1.3260    3.1810 O   0  0  0  0  0  0  0  0  0  0  0  0
   -2.1940    2.4390    1.4640 C   0  0  0  0  0  0  0  0  0  0  0  0
   -3.2630    2.0130    0.4730 C   0  0  0  0  0  0  0  0  0  0  0  0
   -3.0570    0.6260   -0.0340 C   0  0  1  0  0  0  0  0  0  0  0  0
   -4.2600    0.0210   -0.3290 O   0  0  0  0  0  0  0  0  0  0  0  0
   -4.6030   -1.3850    0.5800 P   0  0  0  0  0  0  0  0  0  0  0  0
   -3.6110   -1.5180    1.9940 O   0  0  0  0  0  0  0  0  0  0  0  0
   -6.2650   -1.5590    0.9940 O   0  0  0  0  0  0  0  0  0  0  0  0
    1.8050   -0.3340    1.5160 N   0  0  0  0  0  0  0  0  0  0  0  0
    3.0280    0.1330    1.1210 C   0  0  0  0  0  0  0  0  0  0  0  0
    3.5860    1.0260    1.9050 O   0  0  0  0  0  0  0  0  0  0  0  0
    3.8590   -0.1780   -0.0310 C   0  0  2  0  0  0  0  0  0  0  0  0
    3.4800   -1.1840   -0.8590 O   0  0  0  0  0  0  0  0  0  0  0  0
    5.1830   -0.4590    0.3630 F   0  0  0  0  0  0  0  0  0  0  0  0
    4.0380    1.0870   -0.9020 C   0  0  0  0  0  0  0  0  0  0  0  0
    5.0550    0.8170   -1.9010 N   0  0  0  0  0  0  0  0  0  0  0  0
    4.6930    0.2610   -3.2060 C   0  0  0  0  0  0  0  0  0  0  0  0
    6.4030    1.0860   -1.6290 C   0  0  0  0  0  0  0  0  0  0  0  0
    6.7470    1.5610   -0.5260 O   0  0  0  0  0  0  0  0  0  0  0  0
    7.3700    0.8290   -2.5790 O   0  0  0  0  0  0  0  0  0  0  0  0
  1  2  1  0
  2  3  1  0
  3  4  2  0
  5  3  1  6
  5  6  1  0
  5  9  1  0
  5 26  1  0
  6  7  2  0
  6  8  1  0
  9 10  1  0
 10 11  2  0
 10 12  1  0
 13 12  1  6
 13 14  1  0
 13 31  1  0
 14 15  2  0
 14 16  1  0
 16 17  1  0
 17 18  2  0
 17 19  1  0
 19 20  1  6
 19 31  1  0
 20 21  1  0
 21 22  1  0
 22 23  2  0
 22 24  1  0
 24 25  1  0
 25 26  1  0
 26 27  1  6
 27 28  1  0
 28 29  1  0
 28 30  1  0
 31 32  1  0
 32 33  2  0
 32 34  1  0
 34 35  1  6
 34 36  1  0
 34 37  1  0
 37 38  1  0
 38 39  1  0
 38 40  1  0
 40 41  2  0
 40 42  1  0
M  END
