
     RDKit          3D

 20 21  0  0  0  0  0  0  0  0999 V2000
   -3.4190   -2.5680   -0.8730 N   0  0  0  0  0  0  0  0  0  0  0  0
   -2.2230   -1.8040   -0.5970 C   0  0  0  0  0  0  0  0  0  0  0  0
   -1.1560   -2.4230   -0.5450 O   0  0  0  0  0  0  0  0  0  0  0  0
   -2.3410   -0.3770   -0.4010 C   0  0  0  0  0  0  0  0  0  0  0  0
   -3.5820    0.1630   -0.4880 N   0  0  0  0  0  0  0  0  0  0  0  0
   -3.7990    1.4710   -0.3220 C   0  0  0  0  0  0  0  0  0  0  0  0
   -5.0050    1.8700   -0.4260 O   0  0  0  0  0  0  0  0  0  0  0  0
   -2.7760    2.3360   -0.0550 C   0  0  0  0  0  0  0  0  0  0  0  0
   -3.0050    3.5590    0.0960 O   0  0  0  0  0  0  0  0  0  0  0  0
   -1.5390    1.7990    0.0320 N   0  0  0  0  0  0  0  0  0  0  0  0
   -1.2970    0.4870   -0.1310 C   0  0  0  0  0  0  0  0  0  0  0  0
    0.0220   -0.0330   -0.0300 N   0  0  0  0  0  0  0  0  0  0  0  0
    1.2050    0.7000    0.2390 C   0  0  0  0  0  0  0  0  0  0  0  0
    1.1790    1.9070    0.4160 O   0  0  0  0  0  0  0  0  0  0  0  0
    2.5220    0.0070    0.3140 C   0  0  0  0  0  0  0  0  0  0  0  0
    2.7510   -1.2390    0.1590 N   0  0  0  0  0  0  0  0  0  0  0  0
    4.1620   -1.5420    0.3050 C   0  0  0  0  0  0  0  0  0  0  0  0
    4.7830   -0.2410    0.5830 C   0  0  0  0  0  0  0  0  0  0  0  0
    3.8020    0.6450    0.5820 C   0  0  0  0  0  0  0  0  0  0  0  0
    3.9670    2.0140    0.8080 O   0  0  0  0  0  0  0  0  0  0  0  0
  1  2  1  0
  2  3  2  0
  2  4  1  0
  4  5  1  0
  4 11  2  0
  5  6  1  0
  6  7  2  0
  6  8  1  0
  8  9  2  0
  8 10  1  0
 10 11  1  0
 11 12  1  0
 12 13  1  0
 13 14  2  0
 13 15  1  0
 15 16  2  0
 15 19  1  0
 16 17  1  0
 17 18  1  0
 18 19  2  0
 19 20  1  0
M  END
