
     RDKit          3D

 18 18  0  0  0  0  0  0  0  0999 V2000
    5.0490   -2.0470   -0.0510 C   0  0  0  0  0  0  0  0  0  0  0  0
    4.3830   -0.7380   -0.1680 C   0  0  0  0  0  0  0  0  0  0  0  0
    5.1620    0.3860   -0.3260 C   0  0  0  0  0  0  0  0  0  0  0  0
    4.5870    1.6240   -0.4400 C   0  0  0  0  0  0  0  0  0  0  0  0
    3.2060    1.7220   -0.3910 C   0  0  0  0  0  0  0  0  0  0  0  0
    2.5730    3.0480   -0.5120 C   0  0  0  0  0  0  0  0  0  0  0  0
    2.3930    0.6250   -0.2350 C   0  0  0  0  0  0  0  0  0  0  0  0
    1.0310    0.7530   -0.1910 O   0  0  0  0  0  0  0  0  0  0  0  0
    0.1160   -0.2840   -0.0360 C   0  0  0  0  0  0  0  0  0  0  0  0
   -1.3150    0.1720   -0.0260 C   0  0  0  0  0  0  0  0  0  0  0  0
   -2.2740   -0.9600    0.1410 C   0  0  0  0  0  0  0  0  0  0  0  0
   -3.7100   -0.5430    0.1570 C   0  0  1  0  0  0  0  0  0  0  0  0
   -4.6020   -1.7790    0.3340 C   0  0  0  0  0  0  0  0  0  0  0  0
   -4.0190    0.3620    1.3300 C   0  0  0  0  0  0  0  0  0  0  0  0
   -4.1630    0.1190   -1.0690 C   0  0  0  0  0  0  0  0  0  0  0  0
   -3.5010    0.3550   -2.0880 O   0  0  0  0  0  0  0  0  0  0  0  0
   -5.5090    0.5340   -1.0900 O   0  0  0  0  0  0  0  0  0  0  0  0
    2.9880   -0.6100   -0.1230 C   0  0  0  0  0  0  0  0  0  0  0  0
  1  2  1  0
  2  3  2  0
  2 18  1  0
  3  4  1  0
  4  5  2  0
  5  6  1  0
  5  7  1  0
  7  8  1  0
  7 18  2  0
  8  9  1  0
  9 10  1  0
 10 11  1  0
 11 12  1  0
 12 13  1  1
 12 14  1  0
 12 15  1  0
 15 16  2  0
 15 17  1  0
M  END
