
     RDKit          3D

 18 19  0  0  0  0  0  0  0  0999 V2000
    3.8930   -0.5140   -0.2530 C   0  0  0  0  0  0  0  0  0  0  0  0
    2.5430   -0.1540   -0.6940 C   0  0  0  0  0  0  0  0  0  0  0  0
    2.4060   -0.0410   -2.2140 C   0  0  0  0  0  0  0  0  0  0  0  0
    1.5060    0.0620    0.0490 C   0  0  0  0  0  0  0  0  0  0  0  0
    1.2590    0.0450    1.4510 C   0  0  0  0  0  0  0  0  0  0  0  0
    0.0380    0.3080    1.9570 C   0  0  0  0  0  0  0  0  0  0  0  0
   -1.1310    0.6200    1.1560 C   0  0  0  0  0  0  0  0  0  0  0  0
   -1.8050    1.8290    1.3750 C   0  0  0  0  0  0  0  0  0  0  0  0
   -2.9450    2.1470    0.6720 C   0  0  0  0  0  0  0  0  0  0  0  0
   -3.4670    1.2910   -0.2730 C   0  0  0  0  0  0  0  0  0  0  0  0
   -4.6090    1.5690   -1.0020 O   0  0  0  0  0  0  0  0  0  0  0  0
   -2.8240    0.0980   -0.5060 C   0  0  0  0  0  0  0  0  0  0  0  0
   -1.6710   -0.2220    0.2070 C   0  0  0  0  0  0  0  0  0  0  0  0
   -1.2210   -1.4860   -0.2150 O   0  0  0  0  0  0  0  0  0  0  0  0
   -1.6720   -1.6190   -1.5720 C   0  0  0  0  0  0  0  0  0  0  0  0
   -3.0750   -1.0450   -1.4150 C   0  0  0  0  0  0  0  0  0  0  0  0
    2.3060   -0.2560    2.4510 C   0  0  0  0  0  0  0  0  0  0  0  0
    2.7950   -1.5320    2.2130 O   0  0  0  0  0  0  0  0  0  0  0  0
  1  2  1  0
  2  3  1  0
  2  4  2  3
  4  5  1  0
  5  6  2  3
  5 17  1  0
  6  7  1  0
  7  8  2  0
  7 13  1  0
  8  9  1  0
  9 10  2  0
 10 11  1  0
 10 12  1  0
 12 13  2  0
 12 16  1  0
 13 14  1  0
 14 15  1  0
 15 16  1  0
 17 18  1  0
M  END
