
     RDKit          3D

 18 19  0  0  0  0  0  0  0  0999 V2000
   -3.0960    2.6660   -0.3840 C   0  0  0  0  0  0  0  0  0  0  0  0
   -2.8090    1.2280   -0.0770 C   0  0  0  0  0  0  0  0  0  0  0  0
   -3.8140    0.3520    0.2270 C   0  0  0  0  0  0  0  0  0  0  0  0
   -3.5450   -0.9840    0.5120 C   0  0  0  0  0  0  0  0  0  0  0  0
   -4.6810   -1.8860    0.8350 C   0  0  0  0  0  0  0  0  0  0  0  0
   -2.2400   -1.4340    0.4860 C   0  0  0  0  0  0  0  0  0  0  0  0
   -1.9560   -2.7780    0.7710 O   0  0  0  0  0  0  0  0  0  0  0  0
   -1.2090   -0.5740    0.1830 C   0  0  0  0  0  0  0  0  0  0  0  0
    0.1600   -1.0640    0.1610 C   0  0  0  0  0  0  0  0  0  0  0  0
    0.4190   -2.2660    0.4150 O   0  0  0  0  0  0  0  0  0  0  0  0
    1.3000   -0.1790   -0.1590 C   0  0  0  0  0  0  0  0  0  0  0  0
    2.5320   -0.8680   -0.1220 O   0  0  0  0  0  0  0  0  0  0  0  0
    3.7470   -0.2230   -0.3930 C   0  0  0  0  0  0  0  0  0  0  0  0
    4.8530   -0.7930   -0.8270 C   0  0  0  0  0  0  0  0  0  0  0  0
    5.8900    0.2410   -0.9810 C   0  0  0  0  0  0  0  0  0  0  0  0
    5.2320    1.4920   -0.5760 C   0  0  0  0  0  0  0  0  0  0  0  0
    3.9980    1.1950   -0.2420 C   0  0  0  0  0  0  0  0  0  0  0  0
   -1.5100    0.7430   -0.0940 C   0  0  0  0  0  0  0  0  0  0  0  0
  1  2  1  0
  2  3  2  0
  2 18  1  0
  3  4  1  0
  4  5  1  0
  4  6  2  0
  6  7  1  0
  6  8  1  0
  8  9  1  0
  8 18  2  0
  9 10  2  0
  9 11  1  0
 11 12  1  0
 12 13  1  0
 13 14  2  0
 13 17  1  0
 14 15  1  0
 15 16  1  0
 16 17  2  0
M  END
