
     RDKit          3D

 20 21  0  0  0  0  0  0  0  0999 V2000
    2.4620   -2.9820    0.5370 N   0  0  0  0  0  0  0  0  0  0  0  0
    1.5040   -2.0890   -0.1430 C   0  0  2  0  0  0  0  0  0  0  0  0
    2.2520   -1.2760   -1.0410 N   0  0  0  0  0  0  0  0  0  0  0  0
    2.0250    0.0500   -1.4300 C   0  0  0  0  0  0  0  0  0  0  0  0
    2.2060    0.3240   -2.6680 O   0  0  0  0  0  0  0  0  0  0  0  0
    1.6040    1.1750   -0.5880 C   0  0  0  0  0  0  0  0  0  0  0  0
    0.4750    1.8930   -1.1830 N   0  0  0  0  0  0  0  0  0  0  0  0
   -0.2780    2.8850   -0.5290 C   0  0  0  0  0  0  0  0  0  0  0  0
   -0.5280    3.9390   -1.2180 O   0  0  0  0  0  0  0  0  0  0  0  0
   -0.7940    2.8350    0.8330 C   0  0  0  0  0  0  0  0  0  0  0  0
   -0.5470    3.8810    1.5480 O   0  0  0  0  0  0  0  0  0  0  0  0
   -1.5200    1.7400    1.3780 N   0  0  0  0  0  0  0  0  0  0  0  0
   -2.3980    0.8770    0.6870 C   0  0  0  0  0  0  0  0  0  0  0  0
   -3.5070    0.4800    1.2050 O   0  0  0  0  0  0  0  0  0  0  0  0
   -2.1530    0.3400   -0.6860 C   0  0  2  0  0  0  0  0  0  0  0  0
   -2.7300   -1.0910   -0.9570 C   0  0  0  0  0  0  0  0  0  0  0  0
   -1.2950   -0.8660   -0.6880 C   0  0  2  0  0  0  0  0  0  0  0  0
   -0.7140   -1.1330    0.6490 C   0  0  0  0  0  0  0  0  0  0  0  0
   -1.4660   -1.1090    1.6840 O   0  0  0  0  0  0  0  0  0  0  0  0
    0.6690   -1.4160    0.7920 N   0  0  0  0  0  0  0  0  0  0  0  0
  2  1  1  1
  2  3  1  0
  2 20  1  0
  3  4  1  0
  4  5  2  0
  4  6  1  0
  6  7  1  0
  7  8  1  0
  8  9  2  0
  8 10  1  0
 10 11  2  0
 10 12  1  0
 12 13  1  0
 13 14  2  0
 13 15  1  0
 15 16  1  1
 15 17  1  0
 17 16  1  1
 17 18  1  0
 18 19  2  0
 18 20  1  0
M  END
