
     RDKit          3D

 22 23  0  0  0  0  0  0  0  0999 V2000
   -5.5920   -0.7400    0.6740 C   0  0  0  0  0  0  0  0  0  0  0  0
   -4.6670    0.0240   -0.2410 C   0  0  1  0  0  0  0  0  0  0  0  0
   -3.3290   -0.1170   -0.0340 O   0  0  0  0  0  0  0  0  0  0  0  0
   -2.8760    0.2690    1.2050 C   0  0  0  0  0  0  0  0  0  0  0  0
   -1.3580    0.0340    1.2380 C   0  0  1  0  0  0  0  0  0  0  0  0
   -0.8900    0.4250    2.4990 O   0  0  0  0  0  0  0  0  0  0  0  0
   -1.0250   -1.3950    0.9420 C   0  0  0  0  0  0  0  0  0  0  0  0
    0.3670   -1.5620    0.9750 O   0  0  0  0  0  0  0  0  0  0  0  0
    1.2760   -0.9170    0.1570 C   0  0  0  0  0  0  0  0  0  0  0  0
    0.8570   -0.1140   -0.6950 O   0  0  0  0  0  0  0  0  0  0  0  0
    2.6830   -1.1220    0.2330 N   0  0  0  0  0  0  0  0  0  0  0  0
    3.6260   -0.4500   -0.6200 C   0  0  0  0  0  0  0  0  0  0  0  0
    5.0090   -0.8920   -0.2760 C   0  0  2  0  0  0  0  0  0  0  0  0
    5.3530   -0.6130    1.0390 O   0  0  0  0  0  0  0  0  0  0  0  0
    5.9920    0.6240    1.0270 C   0  0  0  0  0  0  0  0  0  0  0  0
    6.7900    0.7060   -0.2370 C   0  0  0  0  0  0  0  0  0  0  0  0
    6.0680   -0.2730   -1.1470 C   0  0  2  0  0  0  0  0  0  0  0  0
    5.5670    0.3960   -2.2370 O   0  0  0  0  0  0  0  0  0  0  0  0
   -4.9920   -0.3550   -1.6960 C   0  0  0  0  0  0  0  0  0  0  0  0
   -4.7980    1.1370   -2.0050 C   0  0  0  0  0  0  0  0  0  0  0  0
   -5.1960    1.3800   -0.5660 C   0  0  2  0  0  0  0  0  0  0  0  0
   -4.6440    2.4580    0.0530 O   0  0  0  0  0  0  0  0  0  0  0  0
  2  1  1  1
  2  3  1  0
  2 19  1  0
  2 21  1  0
  3  4  1  0
  4  5  1  0
  5  6  1  1
  5  7  1  0
  7  8  1  0
  8  9  1  0
  9 10  2  0
  9 11  1  0
 11 12  1  0
 13 12  1  6
 13 14  1  0
 13 17  1  0
 14 15  1  0
 15 16  1  0
 16 17  1  0
 17 18  1  6
 19 20  1  0
 20 21  1  0
 21 22  1  1
M  END
