
     RDKit          3D

 22 23  0  0  0  0  0  0  0  0999 V2000
   -2.6020    1.4570   -1.8190 C   0  0  0  0  0  0  0  0  0  0  0  0
   -3.0870    0.5370   -0.7200 C   0  0  1  0  0  0  0  0  0  0  0  0
   -2.3570   -0.7850   -0.7760 C   0  0  0  0  0  0  0  0  0  0  0  0
   -0.9360   -0.6230   -0.5540 N   0  0  0  0  0  0  0  0  0  0  0  0
   -0.0740   -1.7520   -0.5680 C   0  0  0  0  0  0  0  0  0  0  0  0
   -0.5050   -2.9170   -0.7710 O   0  0  0  0  0  0  0  0  0  0  0  0
    1.3790   -1.5980   -0.3420 C   0  0  2  0  0  0  0  0  0  0  0  0
    1.7190   -2.3980    0.9090 C   0  0  0  0  0  0  0  0  0  0  0  0
    1.3250   -3.7110    0.6770 O   0  0  0  0  0  0  0  0  0  0  0  0
    1.7680   -0.2750   -0.1270 O   0  0  0  0  0  0  0  0  0  0  0  0
    3.1070   -0.0150    0.0960 C   0  0  0  0  0  0  0  0  0  0  0  0
    3.5110    0.8450    1.0080 C   0  0  0  0  0  0  0  0  0  0  0  0
    4.9440    1.1420    1.2660 C   0  0  2  0  0  0  0  0  0  0  0  0
    5.1820    2.5180    1.1430 O   0  0  0  0  0  0  0  0  0  0  0  0
    5.8110    0.4070    0.4320 O   0  0  0  0  0  0  0  0  0  0  0  0
    5.4130   -0.5000   -0.5310 C   0  0  0  0  0  0  0  0  0  0  0  0
    4.1150   -0.7020   -0.6920 C   0  0  0  0  0  0  0  0  0  0  0  0
   -2.8300    1.1570    0.6180 C   0  0  0  0  0  0  0  0  0  0  0  0
   -3.6700    2.1960    0.9360 O   0  0  0  0  0  0  0  0  0  0  0  0
   -4.9400    2.0920    0.4180 C   0  0  0  0  0  0  0  0  0  0  0  0
   -5.2100    0.6120    0.1580 C   0  0  0  0  0  0  0  0  0  0  0  0
   -4.4370    0.2630   -0.9450 O   0  0  0  0  0  0  0  0  0  0  0  0
  2  1  1  6
  2  3  1  0
  2 18  1  0
  2 22  1  0
  3  4  1  0
  4  5  1  0
  5  6  2  0
  5  7  1  0
  7  8  1  1
  7 10  1  0
  8  9  1  0
 10 11  1  0
 11 12  2  0
 11 17  1  0
 12 13  1  0
 13 14  1  6
 13 15  1  0
 15 16  1  0
 16 17  2  0
 18 19  1  0
 19 20  1  0
 20 21  1  0
 21 22  1  0
M  END
