
     RDKit          3D

 41 43  0  0  0  0  0  0  0  0999 V2000
   -9.1610   -3.2900    3.2810 C   0  0  0  0  0  0  0  0  0  0  0  0
   -9.3250   -2.0390    3.0360 C   0  0  0  0  0  0  0  0  0  0  0  0
   -8.4050   -1.0580    2.5180 C   0  0  0  0  0  0  0  0  0  0  0  0
   -8.9050    0.1800    2.3450 C   0  0  0  0  0  0  0  0  0  0  0  0
   -8.2170    1.3610    1.8490 C   0  0  0  0  0  0  0  0  0  0  0  0
   -7.0450   -1.3700    2.1160 C   0  0  0  0  0  0  0  0  0  0  0  0
   -6.2200   -2.3820    2.5860 C   0  0  0  0  0  0  0  0  0  0  0  0
   -5.0460   -2.3400    1.8150 C   0  0  0  0  0  0  0  0  0  0  0  0
   -5.1600   -1.3350    0.9140 C   0  0  0  0  0  0  0  0  0  0  0  0
   -4.1580   -0.9390   -0.0810 C   0  0  0  0  0  0  0  0  0  0  0  0
   -4.3820    0.0300   -0.8500 O   0  0  0  0  0  0  0  0  0  0  0  0
   -2.9290   -1.6410   -0.1830 N   0  0  0  0  0  0  0  0  0  0  0  0
   -1.8730   -1.3870   -1.0670 C   0  0  0  0  0  0  0  0  0  0  0  0
   -0.5470   -2.3690   -0.9720 S   0  0  0  0  0  0  0  0  0  0  0  0
   -1.8430   -0.3650   -2.0130 N   0  0  0  0  0  0  0  0  0  0  0  0
   -0.7000   -0.1600   -2.8870 C   0  0  0  0  0  0  0  0  0  0  0  0
    0.2420   -0.9740   -2.7320 O   0  0  0  0  0  0  0  0  0  0  0  0
   -0.7520    0.9310   -3.8240 C   0  0  1  0  0  0  0  0  0  0  0  0
   -2.1080    0.8260   -4.5550 C   0  0  0  0  0  0  0  0  0  0  0  0
   -0.4530    2.3150   -3.4230 C   0  0  1  0  0  0  0  0  0  0  0  0
   -1.2780    2.9420   -2.3570 C   0  0  0  0  0  0  0  0  0  0  0  0
    0.9800    2.5560   -3.2730 C   0  0  0  0  0  0  0  0  0  0  0  0
    1.5340    3.1630   -4.2860 O   0  0  0  0  0  0  0  0  0  0  0  0
    1.8380    2.2290   -2.2050 N   0  0  0  0  0  0  0  0  0  0  0  0
    1.3840    1.5760   -1.0290 C   0  0  0  0  0  0  0  0  0  0  0  0
    2.0870    2.0770    0.2250 C   0  0  0  0  0  0  0  0  0  0  0  0
    3.5950    2.1490   -0.0100 C   0  0  2  0  0  0  0  0  0  0  0  0
    4.2370    2.6380    1.1850 C   0  0  0  0  0  0  0  0  0  0  0  0
    5.2400    2.1300    1.8090 C   0  0  0  0  0  0  0  0  0  0  0  0
    5.9250    0.9080    1.3800 C   0  0  0  0  0  0  0  0  0  0  0  0
    5.6010    0.2470    0.3700 O   0  0  0  0  0  0  0  0  0  0  0  0
    7.0320    0.3980    2.1170 N   0  0  0  0  0  0  0  0  0  0  0  0
    7.8020   -0.7730    1.8450 C   0  0  0  0  0  0  0  0  0  0  0  0
    6.9590   -2.0080    1.9430 C   0  0  2  0  0  0  0  0  0  0  0  0
    7.7920   -3.2680    1.7710 C   0  0  0  0  0  0  0  0  0  0  0  0
    6.7690   -4.2600    1.3170 C   0  0  0  0  0  0  0  0  0  0  0  0
    5.5890   -3.4230    0.8970 C   0  0  0  0  0  0  0  0  0  0  0  0
    5.9040   -2.1040    1.1020 O   0  0  0  0  0  0  0  0  0  0  0  0
    3.7330    3.2610   -1.0770 C   0  0  0  0  0  0  0  0  0  0  0  0
    3.2500    2.6150   -2.3640 C   0  0  0  0  0  0  0  0  0  0  0  0
   -6.3670   -0.7530    1.0980 N   0  0  0  0  0  0  0  0  0  0  0  0
  1  2  2  0
  2  3  1  0
  3  4  2  3
  3  6  1  0
  4  5  1  0
  6  7  2  0
  6 41  1  0
  7  8  1  0
  8  9  2  0
  9 10  1  0
  9 41  1  0
 10 11  2  0
 10 12  1  0
 12 13  1  0
 13 14  2  0
 13 15  1  0
 15 16  1  0
 16 17  2  0
 16 18  1  0
 18 19  1  1
 18 20  1  0
 20 21  1  1
 20 22  1  0
 22 23  2  0
 22 24  1  0
 24 25  1  0
 24 40  1  0
 25 26  1  0
 26 27  1  0
 27 28  1  1
 27 39  1  0
 28 29  2  3
 29 30  1  0
 30 31  2  0
 30 32  1  0
 32 33  1  0
 34 33  1  6
 34 35  1  0
 34 38  1  0
 35 36  1  0
 36 37  1  0
 37 38  1  0
 39 40  1  0
M  END
