
     RDKit          3D

 42 45  0  0  0  0  0  0  0  0999 V2000
   -7.9380   -1.8760    1.8200 C   0  0  0  0  0  0  0  0  0  0  0  0
   -6.6360   -1.6000    1.0760 C   0  0  0  0  0  0  0  0  0  0  0  0
   -5.4420   -1.8090    1.9500 C   0  0  1  0  0  0  0  0  0  0  0  0
   -5.3600   -3.2340    2.4690 C   0  0  0  0  0  0  0  0  0  0  0  0
   -4.8840   -4.1810    1.3850 C   0  0  0  0  0  0  0  0  0  0  0  0
   -3.5960   -3.7020    0.7660 C   0  0  0  0  0  0  0  0  0  0  0  0
   -3.8900   -2.3480    0.1140 C   0  0  0  0  0  0  0  0  0  0  0  0
   -4.1760   -1.3990    1.2700 C   0  0  1  0  0  0  0  0  0  0  0  0
   -4.2170   -0.0310    0.8740 N   0  0  0  0  0  0  0  0  0  0  0  0
   -2.9810    0.6170    1.3220 C   0  0  0  0  0  0  0  0  0  0  0  0
   -2.6000    1.7740    0.5220 C   0  0  0  0  0  0  0  0  0  0  0  0
   -1.6700    2.1420   -0.2420 C   0  0  0  0  0  0  0  0  0  0  0  0
   -0.4050    1.4820   -0.7350 C   0  0  0  0  0  0  0  0  0  0  0  0
   -0.6350    0.0670   -0.8230 N   0  0  0  0  0  0  0  0  0  0  0  0
   -0.1640   -0.8760   -1.7520 C   0  0  0  0  0  0  0  0  0  0  0  0
   -0.5100   -2.2920   -1.5510 N   0  0  0  0  0  0  0  0  0  0  0  0
    0.5230   -0.5980   -2.7260 O   0  0  0  0  0  0  0  0  0  0  0  0
    0.4060    2.1430   -1.5000 C   0  0  0  0  0  0  0  0  0  0  0  0
    1.6730    1.7870   -2.0300 C   0  0  0  0  0  0  0  0  0  0  0  0
    2.5860    0.9320   -1.8160 C   0  0  0  0  0  0  0  0  0  0  0  0
    4.1240    0.9160   -2.9290 S   0  0  0  0  0  0  0  0  0  0  0  0
    4.9740   -0.3520   -1.9530 C   0  0  0  0  0  0  0  0  0  0  0  0
    6.1140   -1.0890   -1.8630 N   0  0  0  0  0  0  0  0  0  0  0  0
    5.9550   -1.8660   -0.7600 C   0  0  0  0  0  0  0  0  0  0  0  0
    6.9040   -2.8400   -0.2240 C   0  0  0  0  0  0  0  0  0  0  0  0
    8.0900   -3.1570   -0.6940 C   0  0  0  0  0  0  0  0  0  0  0  0
    8.8280   -4.1330    0.0000 C   0  0  0  0  0  0  0  0  0  0  0  0
    8.2780   -4.6620    1.0760 C   0  0  0  0  0  0  0  0  0  0  0  0
    8.8270   -5.7050    1.9940 C   0  0  0  0  0  0  0  0  0  0  0  0
    6.7040   -3.8590    1.2160 S   0  0  0  0  0  0  0  0  0  0  0  0
    6.7810   -2.9460    2.4450 O   0  0  0  0  0  0  0  0  0  0  0  0
    4.7690   -1.5710   -0.2560 N   0  0  0  0  0  0  0  0  0  0  0  0
    4.1260   -0.6160   -0.9910 N   0  0  0  0  0  0  0  0  0  0  0  0
    2.9730    0.0130   -0.9340 C   0  0  0  0  0  0  0  0  0  0  0  0
    2.1510   -0.2750    0.0650 O   0  0  0  0  0  0  0  0  0  0  0  0
   -0.0530    3.5410   -2.0190 C   0  0  0  0  0  0  0  0  0  0  0  0
    0.8650    4.4880   -1.4570 N   0  0  0  0  0  0  0  0  0  0  0  0
    0.6660    5.8650   -1.7780 C   0  0  0  0  0  0  0  0  0  0  0  0
   -0.2660    6.2570   -2.5190 O   0  0  0  0  0  0  0  0  0  0  0  0
    1.6140    6.8480   -1.1990 C   0  0  2  0  0  0  0  0  0  0  0  0
    1.6100    6.8240    0.3090 C   0  0  0  0  0  0  0  0  0  0  0  0
    1.3820    8.2320   -1.7290 C   0  0  0  0  0  0  0  0  0  0  0  0
  1  2  1  0
  3  2  1  6
  3  4  1  0
  3  8  1  0
  4  5  1  0
  5  6  1  0
  6  7  1  0
  7  8  1  0
  8  9  1  6
  9 10  1  0
 10 11  1  0
 11 12  2  3
 12 13  1  0
 13 14  1  0
 13 18  2  3
 14 15  1  0
 15 16  1  0
 15 17  2  0
 18 19  1  0
 18 36  1  0
 19 20  2  3
 20 21  1  0
 20 34  1  0
 21 22  1  0
 22 23  2  0
 22 33  1  0
 23 24  1  0
 24 25  1  0
 24 32  2  0
 25 26  2  0
 30 25  1  6
 26 27  1  0
 27 28  2  0
 28 29  1  0
 28 30  1  0
 30 31  2  0
 32 33  1  0
 33 34  1  0
 34 35  2  0
 36 37  1  0
 37 38  1  0
 38 39  2  0
 38 40  1  0
 40 41  1  1
 40 42  1  0
M  CHG  1   9   1
M  END
