
     RDKit          3D

 40 43  0  0  0  0  0  0  0  0999 V2000
    5.9940    1.1250   -0.3550 C   0  0  0  0  0  0  0  0  0  0  0  0
    6.6770   -0.1350   -0.2250 N   0  0  0  0  0  0  0  0  0  0  0  0
    5.7620   -1.2270    0.1590 C   0  0  1  0  0  0  0  0  0  0  0  0
    6.6490   -2.4530    0.2630 C   0  0  0  0  0  0  0  0  0  0  0  0
    7.2110   -2.2890    1.5360 O   0  0  0  0  0  0  0  0  0  0  0  0
    6.0580   -2.1320    2.3090 C   0  0  2  0  0  0  0  0  0  0  0  0
    5.3130   -3.2950    2.2060 O   0  0  0  0  0  0  0  0  0  0  0  0
    4.0460   -3.0060    1.7960 C   0  0  0  0  0  0  0  0  0  0  0  0
    3.8850   -1.5040    1.8000 C   0  0  2  0  0  0  0  0  0  0  0  0
    2.9820   -1.0100    0.8650 O   0  0  0  0  0  0  0  0  0  0  0  0
    1.8730   -0.2390    1.2510 C   0  0  0  0  0  0  0  0  0  0  0  0
    1.7580   -0.0330    2.4710 O   0  0  0  0  0  0  0  0  0  0  0  0
    0.9220    0.2920    0.3710 N   0  0  0  0  0  0  0  0  0  0  0  0
   -0.1840    1.0590    0.7770 C   0  0  1  0  0  0  0  0  0  0  0  0
   -0.2040    2.5120    0.6010 C   0  0  0  0  0  0  0  0  0  0  0  0
   -0.0660    3.1000   -0.7210 C   0  0  0  0  0  0  0  0  0  0  0  0
   -1.1680    3.4530   -1.4650 C   0  0  0  0  0  0  0  0  0  0  0  0
   -1.1040    4.0110   -2.7210 C   0  0  0  0  0  0  0  0  0  0  0  0
    0.0960    4.2490   -3.3080 C   0  0  0  0  0  0  0  0  0  0  0  0
    1.2390    3.9030   -2.5800 C   0  0  0  0  0  0  0  0  0  0  0  0
    1.1610    3.3480   -1.3330 C   0  0  0  0  0  0  0  0  0  0  0  0
   -1.5280    0.4170    0.5520 C   0  0  2  0  0  0  0  0  0  0  0  0
   -1.5460   -0.7810    1.3500 O   0  0  0  0  0  0  0  0  0  0  0  0
   -1.7540   -0.0730   -0.8430 C   0  0  0  0  0  0  0  0  0  0  0  0
   -2.9240   -0.8480   -1.0570 N   0  0  0  0  0  0  0  0  0  0  0  0
   -2.8870   -2.2140   -0.6910 C   0  0  0  0  0  0  0  0  0  0  0  0
   -2.9260   -3.1530   -1.9030 C   0  0  2  0  0  0  0  0  0  0  0  0
   -2.8750   -4.5850   -1.3970 C   0  0  0  0  0  0  0  0  0  0  0  0
   -1.7130   -2.9450   -2.7830 C   0  0  0  0  0  0  0  0  0  0  0  0
   -4.4040   -0.1160   -1.2850 S   0  0  1  0  0  0  0  0  0  0  0  0
   -4.4840    0.7370   -2.5280 O   0  0  0  0  0  0  0  0  0  0  0  0
   -5.4350   -1.2210   -1.5270 O   0  0  0  0  0  0  0  0  0  0  0  0
   -4.9910    0.8430    0.0430 C   0  0  0  0  0  0  0  0  0  0  0  0
   -5.6440    0.1650    1.0720 C   0  0  0  0  0  0  0  0  0  0  0  0
   -6.1530    0.8150    2.1560 C   0  0  0  0  0  0  0  0  0  0  0  0
   -6.0310    2.1970    2.2690 C   0  0  0  0  0  0  0  0  0  0  0  0
   -6.5810    2.8320    3.4240 N   0  0  0  0  0  0  0  0  0  0  0  0
   -5.3920    2.8530    1.2600 C   0  0  0  0  0  0  0  0  0  0  0  0
   -4.8760    2.2030    0.1600 C   0  0  0  0  0  0  0  0  0  0  0  0
    5.2910   -1.0390    1.5740 C   0  0  2  0  0  0  0  0  0  0  0  0
  1  2  1  0
  3  2  1  1
  3  4  1  0
 40  3  1  6
  4  5  1  0
  6  5  1  6
  6  7  1  0
  6 40  1  0
  7  8  1  0
  8  9  1  0
  9 10  1  6
  9 40  1  0
 10 11  1  0
 11 12  2  0
 11 13  1  0
 13 14  1  0
 14 15  1  6
 14 22  1  0
 15 16  1  0
 16 17  2  0
 16 21  1  0
 17 18  1  0
 18 19  2  0
 19 20  1  0
 20 21  2  0
 22 23  1  1
 22 24  1  0
 24 25  1  0
 25 26  1  0
 30 25  1  1
 26 27  1  0
 27 28  1  1
 27 29  1  0
 30 31  2  0
 30 32  2  0
 30 33  1  0
 33 34  2  0
 33 39  1  0
 34 35  1  0
 35 36  2  0
 36 37  1  0
 36 38  1  0
 38 39  2  0
M  CHG  1   2   1
M  END
