
     RDKit          3D

 42 45  0  0  0  0  0  0  0  0999 V2000
    6.5800   -0.9610   -2.2360 C   0  0  0  0  0  0  0  0  0  0  0  0
    5.2150   -0.7530   -1.6200 C   0  0  0  0  0  0  0  0  0  0  0  0
    5.3020    0.0230   -0.3520 C   0  0  0  0  0  0  0  0  0  0  0  0
    4.6590    1.1760   -0.2710 C   0  0  0  0  0  0  0  0  0  0  0  0
    3.9100    1.6380   -1.3890 N   0  0  0  0  0  0  0  0  0  0  0  0
    2.6030    1.2220   -1.6200 N   0  0  0  0  0  0  0  0  0  0  0  0
    1.8460    0.4590   -0.7090 C   0  0  0  0  0  0  0  0  0  0  0  0
    2.3660    0.1150    0.3990 O   0  0  0  0  0  0  0  0  0  0  0  0
    0.4380    0.0690   -1.0670 C   0  0  0  0  0  0  0  0  0  0  0  0
   -0.1830   -0.7030   -0.0210 N   0  0  1  0  0  0  0  0  0  0  0  0
   -0.8440    0.2090    0.8920 C   0  0  0  0  0  0  0  0  0  0  0  0
   -2.0200    0.8920    0.2450 C   0  0  0  0  0  0  0  0  0  0  0  0
   -2.3340    0.6530   -0.9370 O   0  0  0  0  0  0  0  0  0  0  0  0
   -2.7310    1.7940    1.0290 N   0  0  0  0  0  0  0  0  0  0  0  0
   -3.8740    2.5200    0.5710 C   0  0  0  0  0  0  0  0  0  0  0  0
   -4.6060    2.2110   -0.5370 C   0  0  0  0  0  0  0  0  0  0  0  0
   -5.6770    2.9620   -0.9350 C   0  0  0  0  0  0  0  0  0  0  0  0
   -6.0440    4.0640   -0.2130 C   0  0  0  0  0  0  0  0  0  0  0  0
   -7.1370    4.7800   -0.6730 C   0  0  0  0  0  0  0  0  0  0  0  0
   -7.5040    5.9010    0.0660 C   0  0  0  0  0  0  0  0  0  0  0  0
   -6.8090    6.2430    1.1680 N   0  0  0  0  0  0  0  0  0  0  0  0
   -5.7530    5.5370    1.5990 C   0  0  0  0  0  0  0  0  0  0  0  0
   -5.3370    4.4110    0.9080 C   0  0  0  0  0  0  0  0  0  0  0  0
   -4.2710    3.6580    1.2990 C   0  0  0  0  0  0  0  0  0  0  0  0
   -0.9940   -1.7900   -0.4400 C   0  0  1  0  0  0  0  0  0  0  0  0
   -0.6650   -2.3280   -1.8130 C   0  0  0  0  0  0  0  0  0  0  0  0
   -1.3140   -3.6490   -2.0770 C   0  0  0  0  0  0  0  0  0  0  0  0
   -1.1330   -4.6250   -0.9130 C   0  0  0  0  0  0  0  0  0  0  0  0
   -1.6910   -3.9730    0.2430 N   0  0  0  0  0  0  0  0  0  0  0  0
   -2.2060   -4.9990    1.4870 S   0  0  1  0  0  0  0  0  0  0  0  0
   -1.0910   -5.8220    2.0710 O   0  0  0  0  0  0  0  0  0  0  0  0
   -2.8280   -4.1240    2.5630 O   0  0  0  0  0  0  0  0  0  0  0  0
   -3.4630   -6.0200    0.8890 N   0  0  0  0  0  0  0  0  0  0  0  0
   -2.9650   -7.2590    0.3400 C   0  0  0  0  0  0  0  0  0  0  0  0
   -0.8360   -2.8960    0.6210 C   0  0  0  0  0  0  0  0  0  0  0  0
    4.7200    1.9610    0.9500 C   0  0  0  0  0  0  0  0  0  0  0  0
    4.0780    3.1300    1.0430 C   0  0  0  0  0  0  0  0  0  0  0  0
    4.1420    3.9200    2.2810 C   0  0  0  0  0  0  0  0  0  0  0  0
    3.1470    3.7280   -0.3420 S   0  0  0  0  0  0  0  0  0  0  0  0
    5.4980    1.4440    2.0620 C   0  0  0  0  0  0  0  0  0  0  0  0
    6.1260    0.3010    1.9620 C   0  0  0  0  0  0  0  0  0  0  0  0
    6.0910   -0.5220    0.7500 C   0  0  0  0  0  0  0  0  0  0  0  0
  1  2  1  0
  2  3  1  0
  3  4  2  0
  3 42  1  0
  4  5  1  0
  4 36  1  0
  5  6  1  0
  6  7  1  0
  7  8  2  0
  7  9  1  0
 10  9  1  6
 10 11  1  0
 10 25  1  0
 11 12  1  0
 12 13  2  0
 12 14  1  0
 14 15  1  0
 15 16  2  0
 15 24  1  0
 16 17  1  0
 17 18  2  0
 18 19  1  0
 18 23  1  0
 19 20  2  0
 20 21  1  0
 21 22  2  0
 22 23  1  0
 23 24  2  0
 25 26  1  6
 25 35  1  0
 26 27  1  0
 27 28  1  0
 28 29  1  0
 29 30  1  0
 29 35  1  0
 30 31  2  0
 30 32  2  0
 30 33  1  6
 33 34  1  0
 36 37  2  3
 36 40  1  0
 37 38  1  0
 37 39  1  0
 40 41  2  0
 41 42  1  0
M  CHG  1  10   1
M  END
