
     RDKit          3D

 26 27  0  0  0  0  0  0  0  0999 V2000
   -5.6700    3.6010   -0.0350 C   0  0  0  0  0  0  0  0  0  0  0  0
   -4.9130    2.3790   -0.5700 C   0  0  0  0  0  0  0  0  0  0  0  0
   -4.8650    1.4440    0.4410 O   0  0  0  0  0  0  0  0  0  0  0  0
   -4.0820    0.0070    0.0970 P   0  0  0  0  0  0  0  0  0  0  0  0
   -4.8810   -1.4360    0.3810 O   0  0  0  0  0  0  0  0  0  0  0  0
   -5.5100   -2.0180   -0.6920 C   0  0  0  0  0  0  0  0  0  0  0  0
   -6.1780   -3.3050   -0.2660 C   0  0  0  0  0  0  0  0  0  0  0  0
   -2.3030   -0.0060    0.1480 C   0  0  0  0  0  0  0  0  0  0  0  0
   -1.5510    1.1200    0.3820 C   0  0  0  0  0  0  0  0  0  0  0  0
   -0.1720    1.0690    0.4150 C   0  0  0  0  0  0  0  0  0  0  0  0
    0.4990   -0.1290    0.2110 C   0  0  0  0  0  0  0  0  0  0  0  0
    1.9710   -0.1810    0.2470 C   0  0  0  0  0  0  0  0  0  0  0  0
    2.7380    0.8860   -0.1600 C   0  0  0  0  0  0  0  0  0  0  0  0
    4.1280    0.8600   -0.1340 C   0  0  0  0  0  0  0  0  0  0  0  0
    4.8030   -0.2560    0.3080 C   0  0  0  0  0  0  0  0  0  0  0  0
    6.2490   -0.3820    0.3730 C   0  0  0  0  0  0  0  0  0  0  0  0
    6.7750   -1.4320    0.7870 O   0  0  0  0  0  0  0  0  0  0  0  0
    7.1020    0.6610   -0.0230 N   0  0  0  0  0  0  0  0  0  0  0  0
    8.5260    0.5660    0.0290 C   0  0  0  0  0  0  0  0  0  0  0  0
    9.0280   -0.4910    0.4450 O   0  0  0  0  0  0  0  0  0  0  0  0
    9.2900    1.6320   -0.3760 O   0  0  0  0  0  0  0  0  0  0  0  0
    4.0140   -1.3370    0.7200 C   0  0  0  0  0  0  0  0  0  0  0  0
    4.6890   -2.4760    1.1710 O   0  0  0  0  0  0  0  0  0  0  0  0
    2.6380   -1.3020    0.6910 C   0  0  0  0  0  0  0  0  0  0  0  0
   -0.2370   -1.2510   -0.0210 C   0  0  0  0  0  0  0  0  0  0  0  0
   -1.6150   -1.1860   -0.0510 C   0  0  0  0  0  0  0  0  0  0  0  0
  1  2  1  0
  2  3  1  0
  3  4  1  0
  4  5  1  0
  4  8  1  0
  5  6  1  0
  6  7  1  0
  8  9  2  0
  8 26  1  0
  9 10  1  0
 10 11  2  0
 11 12  1  0
 11 25  1  0
 12 13  2  0
 12 24  1  0
 13 14  1  0
 14 15  2  0
 15 16  1  0
 15 22  1  0
 16 17  2  0
 16 18  1  0
 18 19  1  0
 19 20  2  0
 19 21  1  0
 22 23  1  0
 22 24  2  0
 25 26  2  0
M  END
