
     RDKit          3D

 26 27  0  0  0  0  0  0  0  0999 V2000
    4.9570    1.3950    3.1120 C   0  0  0  0  0  0  0  0  0  0  0  0
    4.7230    0.4160    2.2470 C   0  0  0  0  0  0  0  0  0  0  0  0
    5.5450   -0.7640    2.2820 C   0  0  0  0  0  0  0  0  0  0  0  0
    5.4800   -1.8260    1.5290 C   0  0  0  0  0  0  0  0  0  0  0  0
    6.3880   -2.8750    1.7330 O   0  0  0  0  0  0  0  0  0  0  0  0
    3.6310    0.5610    1.2790 C   0  0  0  0  0  0  0  0  0  0  0  0
    3.3050   -0.2750    0.4180 O   0  0  0  0  0  0  0  0  0  0  0  0
    2.8500    1.7400    1.2850 O   0  0  0  0  0  0  0  0  0  0  0  0
    1.7840    1.9370    0.3840 C   0  0  0  0  0  0  0  0  0  0  0  0
    0.7650    0.9170    0.5730 C   0  0  0  0  0  0  0  0  0  0  0  0
    0.8530   -0.3530    1.7850 S   0  0  0  0  0  0  0  0  0  0  0  0
   -0.7710   -1.1540    1.3670 C   0  0  0  0  0  0  0  0  0  0  0  0
   -1.1800   -0.3600    0.3580 C   0  0  0  0  0  0  0  0  0  0  0  0
   -2.4930   -0.7060   -0.3010 C   0  0  0  0  0  0  0  0  0  0  0  0
   -3.5080   -0.2010    0.2040 O   0  0  0  0  0  0  0  0  0  0  0  0
   -2.4980   -1.5630   -1.4290 N   0  0  0  0  0  0  0  0  0  0  0  0
   -1.4060   -2.2060   -2.1040 C   0  0  0  0  0  0  0  0  0  0  0  0
   -1.9940   -3.4620   -2.7500 C   0  0  0  0  0  0  0  0  0  0  0  0
   -3.4420   -3.4530   -2.3090 C   0  0  0  0  0  0  0  0  0  0  0  0
   -3.6930   -1.9640   -2.1420 C   0  0  0  0  0  0  0  0  0  0  0  0
   -0.4340    0.6780   -0.0550 C   0  0  0  0  0  0  0  0  0  0  0  0
   -0.8100    1.5520   -1.1200 O   0  0  0  0  0  0  0  0  0  0  0  0
   -1.4260    2.7640   -1.0350 C   0  0  0  0  0  0  0  0  0  0  0  0
   -2.7500    2.8920   -0.3770 C   0  0  1  0  0  0  0  0  0  0  0  0
   -2.6340    2.7420    1.1460 C   0  0  0  0  0  0  0  0  0  0  0  0
   -3.1190    4.2660   -0.5350 O   0  0  0  0  0  0  0  0  0  0  0  0
  1  2  2  0
  2  3  1  0
  2  6  1  0
  3  4  2  3
  4  5  1  0
  6  7  2  0
  6  8  1  0
  8  9  1  0
  9 10  1  0
 10 11  1  0
 10 21  2  0
 11 12  1  0
 12 13  2  0
 13 14  1  0
 13 21  1  0
 14 15  2  0
 14 16  1  0
 16 17  1  0
 16 20  1  0
 17 18  1  0
 18 19  1  0
 19 20  1  0
 21 22  1  0
 22 23  1  0
 23 24  1  0
 24 25  1  1
 24 26  1  0
M  END
