
     RDKit          3D

 26 27  0  0  0  0  0  0  0  0999 V2000
   -6.8690   -1.2990   -1.6970 C   0  0  0  0  0  0  0  0  0  0  0  0
   -5.7710   -0.4460   -1.1070 C   0  0  0  0  0  0  0  0  0  0  0  0
   -4.6610   -1.2290   -0.7960 O   0  0  0  0  0  0  0  0  0  0  0  0
   -3.4630   -0.1590   -0.1280 P   0  0  0  0  0  0  0  0  0  0  0  0
   -2.0940   -1.1100    0.6400 C   0  0  0  0  0  0  0  0  0  0  0  0
   -0.7910   -0.6550    0.1410 N   0  0  0  0  0  0  0  0  0  0  0  0
   -0.2860   -1.3080   -1.0400 C   0  0  0  0  0  0  0  0  0  0  0  0
   -0.1240    0.3860    0.8280 C   0  0  0  0  0  0  0  0  0  0  0  0
   -0.6930    0.8790    1.8390 O   0  0  0  0  0  0  0  0  0  0  0  0
    1.1800    0.9370    0.4590 C   0  0  2  0  0  0  0  0  0  0  0  0
    1.2600    1.3940   -0.9810 C   0  0  0  0  0  0  0  0  0  0  0  0
    2.5200    2.2790   -1.0190 C   0  0  0  0  0  0  0  0  0  0  0  0
    3.6420    1.2740   -0.8750 C   0  0  0  0  0  0  0  0  0  0  0  0
    4.7880    1.3950   -1.6240 C   0  0  0  0  0  0  0  0  0  0  0  0
    5.8080    0.4790   -1.4960 C   0  0  0  0  0  0  0  0  0  0  0  0
    5.7270   -0.5910   -0.6190 C   0  0  0  0  0  0  0  0  0  0  0  0
    7.0300   -1.7510   -0.4630 S   0  0  1  0  0  0  0  0  0  0  0  0
    6.5250   -3.1140   -0.1500 O   0  0  0  0  0  0  0  0  0  0  0  0
    7.8270   -1.8030   -1.7440 O   0  0  0  0  0  0  0  0  0  0  0  0
    8.0650   -1.1820    0.7410 O   0  0  0  0  0  0  0  0  0  0  0  0
    4.5630   -0.6720    0.1100 C   0  0  0  0  0  0  0  0  0  0  0  0
    3.5200    0.2280    0.0060 C   0  0  0  0  0  0  0  0  0  0  0  0
    2.2930    0.0350    0.8610 C   0  0  0  0  0  0  0  0  0  0  0  0
   -4.1750    0.9330    1.0150 O   0  0  0  0  0  0  0  0  0  0  0  0
   -4.5590    0.2700    2.1860 C   0  0  0  0  0  0  0  0  0  0  0  0
   -5.1630    1.3100    3.1060 C   0  0  0  0  0  0  0  0  0  0  0  0
  1  2  1  0
  2  3  1  0
  3  4  1  0
  4  5  1  0
  4 24  1  0
  5  6  1  0
  6  7  1  0
  6  8  1  0
  8  9  2  0
 10  8  1  6
 10 11  1  0
 10 23  1  0
 11 12  1  0
 12 13  1  0
 13 14  2  0
 13 22  1  0
 14 15  1  0
 15 16  2  0
 16 17  1  0
 16 21  1  0
 17 18  2  0
 17 19  2  0
 17 20  1  1
 21 22  2  0
 22 23  1  0
 24 25  1  0
 25 26  1  0
M  END
