
     RDKit          3D

 26 28  0  0  0  0  0  0  0  0999 V2000
   -3.2960    4.7140   -0.8800 C   0  0  0  0  0  0  0  0  0  0  0  0
   -2.1200    4.0450   -0.2720 C   0  0  0  0  0  0  0  0  0  0  0  0
   -1.2320    4.9060    0.3840 C   0  0  0  0  0  0  0  0  0  0  0  0
   -0.1000    4.2840    0.8020 C   0  0  0  0  0  0  0  0  0  0  0  0
    0.1620    2.9140    0.6220 C   0  0  0  0  0  0  0  0  0  0  0  0
    1.5680    1.9280    0.9660 S   0  0  0  0  0  0  0  0  0  0  0  0
    0.9170    0.4330    0.2640 C   0  0  0  0  0  0  0  0  0  0  0  0
    1.5860   -0.8410    0.1700 C   0  0  0  0  0  0  0  0  0  0  0  0
    2.7710   -0.9940    0.4760 O   0  0  0  0  0  0  0  0  0  0  0  0
    3.7210   -0.9170    1.3080 C   0  0  0  0  0  0  0  0  0  0  0  0
    4.9670   -1.5390    0.6990 C   0  0  0  0  0  0  0  0  0  0  0  0
    5.5620   -0.6760   -0.4320 C   0  0  0  0  0  0  0  0  0  0  0  0
    6.4710   -1.5950   -1.0140 O   0  0  0  0  0  0  0  0  0  0  0  0
    7.7040   -1.1190   -0.8940 O   0  0  0  0  0  0  0  0  0  0  0  0
   -0.3740    0.8000   -0.1900 C   0  0  0  0  0  0  0  0  0  0  0  0
   -1.1160   -0.1770   -0.7510 O   0  0  0  0  0  0  0  0  0  0  0  0
   -1.7630   -1.0660   -1.3420 C   0  0  0  0  0  0  0  0  0  0  0  0
   -2.8650   -1.6840   -0.4460 C   0  0  1  0  0  0  0  0  0  0  0  0
   -3.7260   -0.7010   -0.0740 O   0  0  0  0  0  0  0  0  0  0  0  0
   -3.5930   -2.7520   -1.2730 C   0  0  0  0  0  0  0  0  0  0  0  0
   -4.2630   -3.5660   -0.1760 C   0  0  0  0  0  0  0  0  0  0  0  0
   -3.2460   -3.6030    0.8400 N   0  0  0  0  0  0  0  0  0  0  0  0
   -2.3510   -2.4640    0.6660 C   0  0  0  0  0  0  0  0  0  0  0  0
   -1.3850   -2.3340    1.4180 O   0  0  0  0  0  0  0  0  0  0  0  0
   -0.6990    2.0990    0.0100 C   0  0  0  0  0  0  0  0  0  0  0  0
   -1.8790    2.7280   -0.4480 C   0  0  0  0  0  0  0  0  0  0  0  0
  1  2  1  0
  2  3  2  0
  2 26  1  0
  3  4  1  0
  4  5  2  0
  5  6  1  0
  5 25  1  0
  6  7  1  0
  7  8  1  0
  7 15  2  0
  8  9  1  0
  9 10  1  0
 10 11  1  0
 11 12  1  0
 12 13  1  0
 13 14  1  0
 15 16  1  0
 15 25  1  0
 16 17  1  0
 17 18  1  0
 18 19  1  1
 18 20  1  0
 18 23  1  0
 20 21  1  0
 21 22  1  0
 22 23  1  0
 23 24  2  0
 25 26  2  0
M  END
