
     RDKit          3D

 26 28  0  0  0  0  0  0  0  0999 V2000
   -4.1160   -3.6440    0.2450 C   0  0  0  0  0  0  0  0  0  0  0  0
   -5.0110   -2.4980   -0.2510 C   0  0  0  0  0  0  0  0  0  0  0  0
   -4.1410   -1.7670   -1.0490 O   0  0  0  0  0  0  0  0  0  0  0  0
   -4.2260   -0.0630   -0.6270 P   0  0  0  0  0  0  0  0  0  0  0  0
   -5.4670    0.3430    0.3790 O   0  0  0  0  0  0  0  0  0  0  0  0
   -5.4930    1.7030    0.6980 C   0  0  0  0  0  0  0  0  0  0  0  0
   -5.8220    2.4140   -0.6270 C   0  0  0  0  0  0  0  0  0  0  0  0
   -2.5220    0.5020   -0.3940 C   0  0  0  0  0  0  0  0  0  0  0  0
   -1.5330   -0.4510   -0.6970 C   0  0  0  0  0  0  0  0  0  0  0  0
   -0.1810   -0.1190   -0.7860 C   0  0  0  0  0  0  0  0  0  0  0  0
    0.1770    1.1900   -0.5750 C   0  0  0  0  0  0  0  0  0  0  0  0
    1.5600    1.5630   -0.7450 N   0  0  0  0  0  0  0  0  0  0  0  0
    2.6390    0.7600   -0.3230 C   0  0  0  0  0  0  0  0  0  0  0  0
    2.4380   -0.3390    0.4410 C   0  0  0  0  0  0  0  0  0  0  0  0
    3.5850   -1.1310    0.7970 C   0  0  0  0  0  0  0  0  0  0  0  0
    4.8250   -0.7420    0.3780 C   0  0  0  0  0  0  0  0  0  0  0  0
    5.0160    0.3750   -0.3600 C   0  0  0  0  0  0  0  0  0  0  0  0
    3.9200    1.1530   -0.7460 C   0  0  0  0  0  0  0  0  0  0  0  0
    6.4020    0.5450   -0.6140 O   0  0  0  0  0  0  0  0  0  0  0  0
    7.0410   -0.1290    0.4410 C   0  0  2  0  0  0  0  0  0  0  0  0
    8.6700   -0.6340    0.1350 S   0  0  2  0  0  0  0  0  0  0  0  0
    9.0920   -1.5620    1.2640 O   0  0  0  0  0  0  0  0  0  0  0  0
    9.5670    0.5750    0.2010 O   0  0  0  0  0  0  0  0  0  0  0  0
    6.1160   -1.2800    0.5260 O   0  0  0  0  0  0  0  0  0  0  0  0
   -0.7770    2.0950   -0.2650 C   0  0  0  0  0  0  0  0  0  0  0  0
   -2.1190    1.7590   -0.1690 C   0  0  0  0  0  0  0  0  0  0  0  0
  1  2  1  0
  2  3  1  0
  3  4  1  0
  4  5  1  0
  4  8  1  0
  5  6  1  0
  6  7  1  0
  8  9  2  0
  8 26  1  0
  9 10  1  0
 10 11  2  0
 11 12  1  0
 11 25  1  0
 12 13  1  0
 13 14  2  0
 13 18  1  0
 14 15  1  0
 15 16  2  0
 16 17  1  0
 16 24  1  0
 17 18  2  0
 17 19  1  0
 20 19  1  6
 21 20  1  1
 20 24  1  0
 21 22  2  0
 21 23  2  0
 25 26  2  0
M  END
