
     RDKit          3D

 28 31  0  0  0  0  0  0  0  0999 V2000
    4.1370   -1.9900   -0.7910 C   0  0  0  0  0  0  0  0  0  0  0  0
    3.9940   -0.4940   -1.0450 C   0  0  2  0  0  0  0  0  0  0  0  0
    5.1960    0.1550   -1.0770 O   0  0  0  0  0  0  0  0  0  0  0  0
    5.7080    0.5800    0.0980 C   0  0  1  0  0  0  0  0  0  0  0  0
    7.1840    0.1560    0.1460 C   0  0  0  0  0  0  0  0  0  0  0  0
    5.7390    2.1110    0.0820 C   0  0  0  0  0  0  0  0  0  0  0  0
    5.0670    0.0970    1.3400 C   0  0  0  0  0  0  0  0  0  0  0  0
    3.5700    0.0990    1.3330 C   0  0  2  0  0  0  0  0  0  0  0  0
    3.1630   -1.0180    2.0720 O   0  0  0  0  0  0  0  0  0  0  0  0
    3.0050    0.1000   -0.0660 C   0  0  2  0  0  0  0  0  0  0  0  0
    1.7240   -0.6700   -0.1940 C   0  0  2  0  0  0  0  0  0  0  0  0
    1.2820   -0.5320   -1.5100 O   0  0  0  0  0  0  0  0  0  0  0  0
    0.6140   -0.0640    0.6780 C   0  0  1  0  0  0  0  0  0  0  0  0
    0.3270    1.3530    0.2890 C   0  0  0  0  0  0  0  0  0  0  0  0
   -1.1610    1.5960    0.5760 C   0  0  0  0  0  0  0  0  0  0  0  0
   -1.8230    0.7720   -0.3600 O   0  0  0  0  0  0  0  0  0  0  0  0
   -1.8030   -0.5230    0.0970 C   0  0  2  0  0  0  0  0  0  0  0  0
   -2.1140   -1.4140   -1.1150 C   0  0  0  0  0  0  0  0  0  0  0  0
   -3.3760   -0.8460   -1.7330 C   0  0  0  0  0  0  0  0  0  0  0  0
   -3.9060    0.2040   -1.0220 O   0  0  0  0  0  0  0  0  0  0  0  0
   -4.2330   -0.1240    0.2790 C   0  0  1  0  0  0  0  0  0  0  0  0
   -4.7850    1.1110    0.9600 C   0  0  0  0  0  0  0  0  0  0  0  0
   -5.8170    1.7190    0.0610 C   0  0  0  0  0  0  0  0  0  0  0  0
   -6.9740    0.7180   -0.0270 C   0  0  0  0  0  0  0  0  0  0  0  0
   -6.4570   -0.5490   -0.6460 C   0  0  0  0  0  0  0  0  0  0  0  0
   -5.3680   -1.1350    0.2260 C   0  0  0  0  0  0  0  0  0  0  0  0
   -3.0340   -0.6770    1.0060 C   0  0  0  0  0  0  0  0  0  0  0  0
   -0.5660   -0.9550    0.7840 C   0  0  0  0  0  0  0  0  0  0  0  0
  2  1  1  1
  2  3  1  0
 10  2  1  6
  3  4  1  0
  4  5  1  1
  4  6  1  0
  4  7  1  0
  7  8  1  0
  8  9  1  6
  8 10  1  0
 10 11  1  0
 11 12  1  6
 11 13  1  0
 13 14  1  6
 13 28  1  0
 14 15  1  0
 15 16  1  0
 16 17  1  0
 17 18  1  6
 17 27  1  0
 17 28  1  0
 18 19  1  0
 19 20  1  0
 20 21  1  0
 21 22  1  1
 21 26  1  0
 21 27  1  0
 22 23  1  0
 23 24  1  0
 24 25  1  0
 25 26  1  0
M  END
