
     RDKit          3D

 28 30  0  0  0  0  0  0  0  0999 V2000
    3.0180    1.8380   -1.7740 C   0  0  0  0  0  0  0  0  0  0  0  0
    2.2490    1.0210   -0.9210 C   0  0  0  0  0  0  0  0  0  0  0  0
    3.0930    0.2080   -0.1220 C   0  0  0  0  0  0  0  0  0  0  0  0
    2.9770   -0.6790    0.8170 C   0  0  0  0  0  0  0  0  0  0  0  0
    4.2250   -1.2950    1.4120 C   0  0  0  0  0  0  0  0  0  0  0  0
    4.2120   -2.2180    2.3500 C   0  0  0  0  0  0  0  0  0  0  0  0
    5.5190   -2.5800    2.6850 O   0  0  0  0  0  0  0  0  0  0  0  0
    6.3820   -1.7040    2.0060 C   0  0  0  0  0  0  0  0  0  0  0  0
    5.5330   -1.0200    1.1100 O   0  0  0  0  0  0  0  0  0  0  0  0
    4.5540    0.3750   -0.4380 O   0  0  0  0  0  0  0  0  0  0  0  0
    4.9920   -0.4700   -1.5090 C   0  0  0  0  0  0  0  0  0  0  0  0
    0.8750    1.1320   -1.2150 C   0  0  0  0  0  0  0  0  0  0  0  0
    0.5480    1.3760   -2.7130 C   0  0  0  0  0  0  0  0  0  0  0  0
    1.5660    1.3890   -3.6640 N   0  0  0  0  0  0  0  0  0  0  0  0
   -0.6120    1.5450   -3.0810 O   0  0  0  0  0  0  0  0  0  0  0  0
   -0.2540    0.7190   -0.6210 C   0  0  0  0  0  0  0  0  0  0  0  0
   -0.2220   -0.0720    0.6640 C   0  0  0  0  0  0  0  0  0  0  0  0
   -1.5140    1.3360   -1.0040 C   0  0  0  0  0  0  0  0  0  0  0  0
   -2.7290    1.0900   -0.7260 C   0  0  0  0  0  0  0  0  0  0  0  0
   -3.8400    1.9980   -1.3010 C   0  0  0  0  0  0  0  0  0  0  0  0
   -4.9430    2.1180   -0.3150 C   0  0  0  0  0  0  0  0  0  0  0  0
   -4.7290    1.4420    1.0170 C   0  0  0  0  0  0  0  0  0  0  0  0
   -4.1560    0.0640    0.8340 C   0  0  0  0  0  0  0  0  0  0  0  0
   -3.1810   -0.0880   -0.0280 C   0  0  0  0  0  0  0  0  0  0  0  0
   -2.6630   -1.4280   -0.3360 C   0  0  0  0  0  0  0  0  0  0  0  0
   -3.1810   -2.4710    0.2500 C   0  0  0  0  0  0  0  0  0  0  0  0
   -4.2690   -2.3860    1.2070 C   0  0  0  0  0  0  0  0  0  0  0  0
   -4.6540   -1.0300    1.6390 C   0  0  0  0  0  0  0  0  0  0  0  0
  1  2  2  0
  2  3  1  0
  2 12  1  0
  3  4  2  3
  3 10  1  0
  4  5  1  0
  5  6  2  0
  5  9  1  0
  6  7  1  0
  7  8  1  0
  8  9  1  0
 10 11  1  0
 12 13  1  0
 12 16  2  3
 13 14  1  0
 13 15  2  0
 16 17  1  0
 16 18  1  0
 18 19  2  3
 19 20  1  0
 19 24  1  0
 20 21  1  0
 21 22  1  0
 22 23  1  0
 23 24  2  0
 23 28  1  0
 24 25  1  0
 25 26  2  0
 26 27  1  0
 27 28  1  0
M  END
