
     RDKit          3D

 28 31  0  0  0  0  0  0  0  0999 V2000
    5.8470   -1.5380   -0.4760 C   0  0  0  0  0  0  0  0  0  0  0  0
    5.1670   -0.2560   -0.0340 C   0  0  1  0  0  0  0  0  0  0  0  0
    6.1480    0.8740   -0.3080 C   0  0  0  0  0  0  0  0  0  0  0  0
    4.0440   -0.0110   -0.7500 O   0  0  0  0  0  0  0  0  0  0  0  0
    2.9220   -0.7240   -0.4640 C   0  0  2  0  0  0  0  0  0  0  0  0
    1.7730    0.0570   -1.0750 C   0  0  2  0  0  0  0  0  0  0  0  0
    1.6470    1.4450   -0.5180 C   0  0  0  0  0  0  0  0  0  0  0  0
    0.2270    1.9030   -0.6540 C   0  0  1  0  0  0  0  0  0  0  0  0
   -0.2910    1.3200   -1.9610 C   0  0  0  0  0  0  0  0  0  0  0  0
   -0.7020   -0.0330   -1.4970 C   0  0  1  0  0  0  0  0  0  0  0  0
    0.5250   -0.7550   -0.9490 C   0  0  0  0  0  0  0  0  0  0  0  0
   -1.5670    0.2820   -0.2950 C   0  0  2  0  0  0  0  0  0  0  0  0
   -2.9370    0.7710   -0.6720 C   0  0  1  0  0  0  0  0  0  0  0  0
   -3.6880   -0.1470   -1.5440 C   0  0  0  0  0  0  0  0  0  0  0  0
   -5.0270    0.4110   -1.9140 C   0  0  0  0  0  0  0  0  0  0  0  0
   -5.1740    1.7990   -1.3280 C   0  0  0  0  0  0  0  0  0  0  0  0
   -5.0080    1.7750    0.1700 C   0  0  0  0  0  0  0  0  0  0  0  0
   -3.6900    1.1150    0.5640 C   0  0  1  0  0  0  0  0  0  0  0  0
   -4.0100   -0.0860    1.4050 C   0  0  0  0  0  0  0  0  0  0  0  0
   -4.7930   -1.0400    0.8160 O   0  0  0  0  0  0  0  0  0  0  0  0
   -5.0280   -2.0930    1.6650 C   0  0  0  0  0  0  0  0  0  0  0  0
   -5.6870   -1.6490    2.8280 O   0  0  0  0  0  0  0  0  0  0  0  0
   -0.7010    1.3020    0.3980 C   0  0  0  0  0  0  0  0  0  0  0  0
    2.6860   -1.1000    0.9450 C   0  0  0  0  0  0  0  0  0  0  0  0
    3.9320   -1.3300    1.7590 C   0  0  1  0  0  0  0  0  0  0  0  0
    4.3830   -2.6320    1.5930 O   0  0  0  0  0  0  0  0  0  0  0  0
    4.9770   -0.2950    1.4590 C   0  0  1  0  0  0  0  0  0  0  0  0
    6.1760   -0.6180    2.0610 O   0  0  0  0  0  0  0  0  0  0  0  0
  2  1  1  6
  2  3  1  0
  2  4  1  0
  2 27  1  0
  4  5  1  0
  5  6  1  0
  5 24  1  1
  6  7  1  1
  6 11  1  0
  8  7  1  1
  8  9  1  0
  8 23  1  0
  9 10  1  0
 10 11  1  1
 10 12  1  0
 12 13  1  0
 12 23  1  6
 13 14  1  1
 13 18  1  0
 14 15  1  0
 15 16  1  0
 16 17  1  0
 17 18  1  0
 18 19  1  6
 19 20  1  0
 20 21  1  0
 21 22  1  0
 24 25  1  0
 25 26  1  6
 25 27  1  0
 27 28  1  1
M  END
