
     RDKit          3D

 28 30  0  0  0  0  0  0  0  0999 V2000
   -5.9130   -1.2670    0.7240 C   0  0  0  0  0  0  0  0  0  0  0  0
   -5.2540    0.1160    0.8790 C   0  0  2  0  0  0  0  0  0  0  0  0
   -5.6170    0.8930   -0.3410 C   0  0  0  0  0  0  0  0  0  0  0  0
   -4.5520    1.8080   -0.8490 C   0  0  1  0  0  0  0  0  0  0  0  0
   -4.2720    2.7470    0.1350 O   0  0  0  0  0  0  0  0  0  0  0  0
   -3.3340    0.9030   -1.0920 C   0  0  0  0  0  0  0  0  0  0  0  0
   -2.8280    0.5170    0.2690 C   0  0  2  0  0  0  0  0  0  0  0  0
   -1.6660   -0.4770    0.0800 C   0  0  2  0  0  0  0  0  0  0  0  0
   -2.2620   -1.6600   -0.6570 C   0  0  0  0  0  0  0  0  0  0  0  0
   -1.1920   -0.8450    1.4600 C   0  0  0  0  0  0  0  0  0  0  0  0
    0.1320   -0.1220    1.6820 C   0  0  0  0  0  0  0  0  0  0  0  0
    1.0250   -0.6770    0.7780 O   0  0  0  0  0  0  0  0  0  0  0  0
    0.7910   -0.2500   -0.5270 C   0  0  1  0  0  0  0  0  0  0  0  0
    1.6050    1.0500   -0.6600 C   0  0  0  0  0  0  0  0  0  0  0  0
    2.8500    0.9710    0.1150 C   0  0  0  0  0  0  0  0  0  0  0  0
    3.3630    2.2510    0.7450 C   0  0  0  0  0  0  0  0  0  0  0  0
    4.5930    1.7330    1.5280 C   0  0  2  0  0  0  0  0  0  0  0  0
    5.1490    2.7520    2.2710 O   0  0  0  0  0  0  0  0  0  0  0  0
    5.6160    1.2160    0.5800 C   0  0  0  0  0  0  0  0  0  0  0  0
    5.8900   -0.0110    0.2750 C   0  0  0  0  0  0  0  0  0  0  0  0
    5.2670   -1.2620    0.7800 C   0  0  0  0  0  0  0  0  0  0  0  0
    4.6110   -2.0450   -0.3620 C   0  0  0  0  0  0  0  0  0  0  0  0
    3.2440   -2.0200   -0.3340 O   0  0  0  0  0  0  0  0  0  0  0  0
    2.6470   -1.6830   -1.5340 C   0  0  0  0  0  0  0  0  0  0  0  0
    1.2080   -1.3250   -1.4450 C   0  0  1  0  0  0  0  0  0  0  0  0
    0.5530   -2.5070   -1.0200 O   0  0  0  0  0  0  0  0  0  0  0  0
   -0.6240    0.1440   -0.7930 C   0  0  0  0  0  0  0  0  0  0  0  0
   -3.8310   -0.0030    1.2040 C   0  0  0  0  0  0  0  0  0  0  0  0
  2  1  1  6
  2  3  1  0
  2 28  1  0
  3  4  1  0
  4  5  1  1
  4  6  1  0
  7  6  1  6
  7  8  1  0
  7 28  1  0
  8  9  1  6
  8 10  1  0
  8 27  1  0
 10 11  1  0
 11 12  1  0
 12 13  1  0
 13 14  1  6
 13 25  1  0
 13 27  1  0
 14 15  1  0
 15 16  1  0
 16 17  1  0
 17 18  1  6
 17 19  1  0
 19 20  2  0
 20 21  1  0
 21 22  1  0
 22 23  1  0
 23 24  1  0
 24 25  1  0
 25 26  1  1
M  END
