
     RDKit          3D

 12 13  0  0  0  0  0  0  0  0999 V2000
   -3.0400   -0.0940    0.0190 C   0  0  0  0  0  0  0  0  0  0  0  0
   -1.7320    0.3630   -0.5510 C   0  0  0  0  0  0  0  0  0  0  0  0
   -0.5680   -0.1880    0.1870 C   0  0  0  0  0  0  0  0  0  0  0  0
    0.7440    0.0770   -0.1330 C   0  0  0  0  0  0  0  0  0  0  0  0
    1.3420    0.8210   -1.0900 N   0  0  0  0  0  0  0  0  0  0  0  0
    2.6780    0.9280   -1.2030 C   0  0  0  0  0  0  0  0  0  0  0  0
    3.4410    0.2320   -0.2830 C   0  0  0  0  0  0  0  0  0  0  0  0
    2.8790   -0.5140    0.6780 N   0  0  0  0  0  0  0  0  0  0  0  0
    1.5330   -0.6180    0.7870 C   0  0  0  0  0  0  0  0  0  0  0  0
    0.7030   -1.2290    1.5670 O   0  0  0  0  0  0  0  0  0  0  0  0
   -0.5380   -1.0050    1.2510 N   0  0  0  0  0  0  0  0  0  0  0  0
   -1.6530   -1.5280    1.9110 O   0  0  0  0  0  0  0  0  0  0  0  0
  1  2  1  0
  2  3  1  0
  3  4  1  0
  3 11  2  0
  4  5  2  0
  4  9  1  0
  5  6  1  0
  6  7  2  0
  7  8  1  0
  8  9  2  0
  9 10  1  0
 10 11  1  0
 11 12  1  0
M  CHG  2  11   1  12  -1
M  END
