
     RDKit          3D

 12 13  0  0  0  0  0  0  0  0999 V2000
   -3.3250    1.2630    0.2200 O   0  0  0  0  0  0  0  0  0  0  0  0
   -2.2670    0.5790    0.1590 C   0  0  0  0  0  0  0  0  0  0  0  0
   -2.3650   -0.7970    0.2120 C   0  0  0  0  0  0  0  0  0  0  0  0
   -1.1810   -1.5020    0.1420 C   0  0  0  0  0  0  0  0  0  0  0  0
    0.0450   -0.8570    0.0240 C   0  0  0  0  0  0  0  0  0  0  0  0
    1.1990   -1.5280   -0.0450 N   0  0  0  0  0  0  0  0  0  0  0  0
    2.3800   -0.8680   -0.1590 C   0  0  0  0  0  0  0  0  0  0  0  0
    2.4480    0.4730   -0.2080 N   0  0  0  0  0  0  0  0  0  0  0  0
    3.6770    1.0810   -0.3250 O   0  0  0  0  0  0  0  0  0  0  0  0
    1.3130    1.1910   -0.1420 C   0  0  0  0  0  0  0  0  0  0  0  0
    0.0940    0.5220   -0.0240 C   0  0  0  0  0  0  0  0  0  0  0  0
   -1.0680    1.1980    0.0450 N   0  0  0  0  0  0  0  0  0  0  0  0
  1  2  2  0
  2  3  1  0
  2 12  1  0
  3  4  2  0
  4  5  1  0
  5  6  2  0
  5 11  1  0
  6  7  1  0
  7  8  2  0
  8  9  1  0
  8 10  1  0
 10 11  2  0
 11 12  1  0
M  CHG  2   8   1   9  -1
M  END
