
     RDKit          3D

 25 26  0  0  0  0  0  0  0  0999 V2000
   -5.1020   -1.7630   -2.8370 O   0  0  0  0  0  0  0  0  0  0  0  0
   -4.7760   -1.2200   -1.6270 N   0  0  0  0  0  0  0  0  0  0  0  0
   -5.6240   -0.5690   -0.9590 C   0  0  0  0  0  0  0  0  0  0  0  0
   -5.4640    0.0780    0.3370 C   0  0  0  0  0  0  0  0  0  0  0  0
   -6.5190    0.7210    0.8380 C   0  0  0  0  0  0  0  0  0  0  0  0
   -6.4700    1.4070    2.1320 C   0  0  0  0  0  0  0  0  0  0  0  0
   -5.1570    1.3230    2.7960 C   0  0  0  0  0  0  0  0  0  0  0  0
   -4.1390    0.6930    2.2900 C   0  0  0  0  0  0  0  0  0  0  0  0
   -4.2230    0.0150    1.0060 N   0  0  0  0  0  0  0  0  0  0  0  0
   -3.0330   -0.6470    0.5520 C   0  0  0  0  0  0  0  0  0  0  0  0
   -1.9520    0.3570    0.1530 C   0  0  0  0  0  0  0  0  0  0  0  0
   -0.7070   -0.3750   -0.3160 C   0  0  0  0  0  0  0  0  0  0  0  0
    0.3690    0.6010   -0.7220 C   0  0  0  0  0  0  0  0  0  0  0  0
    1.6050   -0.1170   -1.1970 C   0  0  0  0  0  0  0  0  0  0  0  0
    2.1350   -0.9730   -0.0960 C   0  0  0  0  0  0  0  0  0  0  0  0
    3.3720   -1.7230   -0.4210 C   0  0  0  0  0  0  0  0  0  0  0  0
    4.5250   -0.9020   -0.7900 N   0  0  0  0  0  0  0  0  0  0  0  0
    4.9450   -0.9880   -2.1320 C   0  0  0  0  0  0  0  0  0  0  0  0
    5.9920   -0.3110   -2.5510 C   0  0  0  0  0  0  0  0  0  0  0  0
    6.7140    0.5370   -1.6000 C   0  0  0  0  0  0  0  0  0  0  0  0
    6.3340    0.6360   -0.3530 C   0  0  0  0  0  0  0  0  0  0  0  0
    5.1860   -0.0730    0.1800 C   0  0  1  0  0  0  0  0  0  0  0  0
    4.2320    0.8390    0.8670 C   0  0  0  0  0  0  0  0  0  0  0  0
    4.2220    0.9270    2.1320 N   0  0  0  0  0  0  0  0  0  0  0  0
    3.3770    1.7420    2.8480 O   0  0  0  0  0  0  0  0  0  0  0  0
  1  2  1  0
  2  3  2  3
  3  4  1  0
  4  5  2  0
  4  9  1  0
  5  6  1  0
  6  7  1  0
  7  8  2  0
  8  9  1  0
  9 10  1  0
 10 11  1  0
 11 12  1  0
 12 13  1  0
 13 14  1  0
 14 15  1  0
 15 16  1  0
 16 17  1  0
 17 18  1  0
 17 22  1  0
 18 19  2  0
 19 20  1  0
 20 21  2  0
 21 22  1  0
 22 23  1  6
 23 24  2  3
 24 25  1  0
M  END
