
     RDKit          3D

 12 13  0  0  0  0  0  0  0  0999 V2000
    2.9930   -0.0220   -0.2080 C   0  0  0  0  0  0  0  0  0  0  0  0
    1.5260    0.1670   -0.0820 C   0  0  0  0  0  0  0  0  0  0  0  0
    0.9860    1.4180    0.1440 C   0  0  0  0  0  0  0  0  0  0  0  0
   -0.3790    1.6330    0.2670 C   0  0  0  0  0  0  0  0  0  0  0  0
   -1.2410    0.5620    0.1620 C   0  0  0  0  0  0  0  0  0  0  0  0
   -2.5800    0.4370    0.2320 N   0  0  0  0  0  0  0  0  0  0  0  0
   -2.8790   -0.8620    0.0550 C   0  0  0  0  0  0  0  0  0  0  0  0
   -4.0260   -1.3750    0.0530 O   0  0  0  0  0  0  0  0  0  0  0  0
   -1.7280   -1.5370   -0.1240 N   0  0  0  0  0  0  0  0  0  0  0  0
   -0.6860   -0.6820   -0.0640 C   0  0  0  0  0  0  0  0  0  0  0  0
    0.6530   -0.8540   -0.1790 N   0  0  0  0  0  0  0  0  0  0  0  0
    1.1940   -2.1010   -0.4040 O   0  0  0  0  0  0  0  0  0  0  0  0
  1  2  1  0
  2  3  2  0
  2 11  1  0
  3  4  1  0
  4  5  2  0
  5  6  1  0
  5 10  1  0
  6  7  1  0
  7  8  2  0
  7  9  1  0
  9 10  1  0
 10 11  2  0
 11 12  1  0
M  CHG  2  11   1  12  -1
M  END
