
     RDKit          3D

 11 11  0  0  0  0  0  0  0  0999 V2000
    0.1690   -0.9970   -1.1960 N   0  0  0  0  0  0  0  0  0  0  0  0
   -0.3270   -0.1650   -0.1270 C   0  0  2  0  0  0  0  0  0  0  0  0
   -1.5240   -0.7790    0.5280 C   0  0  2  0  0  0  0  0  0  0  0  0
   -2.5160   -0.9270   -0.4430 O   0  0  0  0  0  0  0  0  0  0  0  0
   -2.0230    0.0830    1.4960 O   0  0  0  0  0  0  0  0  0  0  0  0
   -0.7910    1.1710   -0.7310 C   0  0  0  0  0  0  0  0  0  0  0  0
    0.5390    1.8870   -0.7860 C   0  0  0  0  0  0  0  0  0  0  0  0
    1.2040    1.5300    0.3550 O   0  0  0  0  0  0  0  0  0  0  0  0
    0.7160    0.3220    0.8060 C   0  0  2  0  0  0  0  0  0  0  0  0
    1.8770   -0.6100    1.0010 C   0  0  0  0  0  0  0  0  0  0  0  0
    2.5990   -0.8490   -0.1360 O   0  0  0  0  0  0  0  0  0  0  0  0
  2  1  1  6
  2  3  1  0
  2  6  1  0
  2  9  1  0
  3  4  1  6
  3  5  1  0
  6  7  1  0
  7  8  1  0
  8  9  1  0
  9 10  1  6
 10 11  1  0
M  END
