
     RDKit          3D

 11 11  0  0  0  0  0  0  0  0999 V2000
    3.3330    0.0500   -0.5530 N   0  0  0  0  0  0  0  0  0  0  0  0
    2.5150   -0.2420   -1.5070 O   0  0  0  0  0  0  0  0  0  0  0  0
    1.2580    0.3130   -1.4260 C   0  0  0  0  0  0  0  0  0  0  0  0
    0.7620   -0.3900   -0.1630 C   0  0  2  0  0  0  0  0  0  0  0  0
    0.8920   -1.7720   -0.5080 O   0  0  0  0  0  0  0  0  0  0  0  0
   -0.5970   -0.1180    0.2220 C   0  0  2  0  0  0  0  0  0  0  0  0
   -0.9190   -0.9400    1.3010 O   0  0  0  0  0  0  0  0  0  0  0  0
   -1.6240   -0.1960   -0.8930 C   0  0  0  0  0  0  0  0  0  0  0  0
   -2.7980    0.3870   -0.0780 C   0  0  0  0  0  0  0  0  0  0  0  0
   -2.2560    1.3090    0.7870 O   0  0  0  0  0  0  0  0  0  0  0  0
   -0.8610    1.2840    0.6930 C   0  0  0  0  0  0  0  0  0  0  0  0
  1  2  1  0
  2  3  1  0
  3  4  1  0
  4  5  1  6
  4  6  1  0
  6  7  1  1
  6  8  1  0
  6 11  1  0
  8  9  1  0
  9 10  1  0
 10 11  1  0
M  END
