
     RDKit          3D

 10 10  0  0  0  0  0  0  0  0999 V2000
   -0.8100    1.3580    1.0120 N   0  0  0  0  0  0  0  0  0  0  0  0
   -1.1730    0.0760    0.5570 C   0  0  1  0  0  0  0  0  0  0  0  0
   -2.3580    0.2170   -0.3750 C   0  0  0  0  0  0  0  0  0  0  0  0
   -2.7820   -1.0090   -0.8720 O   0  0  0  0  0  0  0  0  0  0  0  0
   -0.0320   -0.6850   -0.1220 C   0  0  2  0  0  0  0  0  0  0  0  0
    0.9920   -1.1110    0.8650 C   0  0  0  0  0  0  0  0  0  0  0  0
    2.1460   -0.3860    0.8830 O   0  0  0  0  0  0  0  0  0  0  0  0
    2.6080   -0.0010   -0.3690 C   0  0  0  0  0  0  0  0  0  0  0  0
    1.5010    0.8120   -1.0060 C   0  0  0  0  0  0  0  0  0  0  0  0
    0.4300   -0.0070   -1.2110 O   0  0  0  0  0  0  0  0  0  0  0  0
  2  1  1  6
  2  3  1  0
  2  5  1  0
  3  4  1  0
  5  6  1  1
  5 10  1  0
  6  7  1  0
  7  8  1  0
  8  9  1  0
  9 10  1  0
M  END
