
     RDKit          3D

 11 11  0  0  0  0  0  0  0  0999 V2000
   -1.2350    1.3100    1.1890 N   0  0  0  0  0  0  0  0  0  0  0  0
   -1.1960    0.3590    0.1570 C   0  0  2  0  0  0  0  0  0  0  0  0
   -1.7700   -1.0030    0.5420 C   0  0  0  0  0  0  0  0  0  0  0  0
   -1.1380   -1.9380   -0.2480 O   0  0  0  0  0  0  0  0  0  0  0  0
   -0.2820   -1.2880   -1.1060 C   0  0  0  0  0  0  0  0  0  0  0  0
    0.1660   -0.0980   -0.2710 C   0  0  2  0  0  0  0  0  0  0  0  0
    0.9860   -0.6650    0.8570 C   0  0  0  0  0  0  0  0  0  0  0  0
    2.2300   -1.0500    0.3090 O   0  0  0  0  0  0  0  0  0  0  0  0
    0.9130    0.9220   -1.0770 C   0  0  1  0  0  0  0  0  0  0  0  0
    1.0510    2.0620   -0.2660 O   0  0  0  0  0  0  0  0  0  0  0  0
    2.2070    0.4850   -1.3510 O   0  0  0  0  0  0  0  0  0  0  0  0
  2  1  1  1
  2  3  1  0
  2  6  1  0
  3  4  1  0
  4  5  1  0
  5  6  1  0
  6  7  1  1
  6  9  1  0
  7  8  1  0
  9 10  1  1
  9 11  1  0
M  CHG  1   1   1
M  END
