
     RDKit          3D

 11 11  0  0  0  0  0  0  0  0999 V2000
   -2.7260    1.1890    0.3630 C   0  0  0  0  0  0  0  0  0  0  0  0
   -1.7350    0.2720   -0.2490 C   0  0  2  0  0  0  0  0  0  0  0  0
   -2.0920   -0.1200   -1.5280 O   0  0  0  0  0  0  0  0  0  0  0  0
   -1.4530   -0.9610    0.6200 C   0  0  0  0  0  0  0  0  0  0  0  0
   -0.2780   -1.4680   -0.0890 N   0  0  0  0  0  0  0  0  0  0  0  0
    0.3160   -0.3020   -0.6680 C   0  0  2  0  0  0  0  0  0  0  0  0
    1.7450   -0.2140   -0.2140 C   0  0  2  0  0  0  0  0  0  0  0  0
    1.7730   -0.1290    1.1610 O   0  0  0  0  0  0  0  0  0  0  0  0
    2.4880    0.9440   -0.8460 C   0  0  0  0  0  0  0  0  0  0  0  0
    3.8050    0.9030   -0.4090 O   0  0  0  0  0  0  0  0  0  0  0  0
   -0.4440    0.7940   -0.3200 O   0  0  0  0  0  0  0  0  0  0  0  0
  2  1  1  1
  2  3  1  0
  2  4  1  0
  2 11  1  0
  4  5  1  0
  6  5  1  1
  6  7  1  0
  6 11  1  0
  7  8  1  1
  7  9  1  0
  9 10  1  0
M  END
