
     RDKit          3D

 15 15  0  0  0  0  0  0  0  0999 V2000
    5.5950    0.6210    0.0020 N   0  0  0  0  0  0  0  0  0  0  0  0
    4.2780    0.3230    0.3840 C   0  0  0  0  0  0  0  0  0  0  0  0
    3.5610    1.2630    0.8550 O   0  0  0  0  0  0  0  0  0  0  0  0
    3.7640   -1.0750    0.2280 C   0  0  0  0  0  0  0  0  0  0  0  0
    2.0360   -1.0670    0.8340 S   0  0  0  0  0  0  0  0  0  0  0  0
    1.0960   -0.0420   -0.3010 C   0  0  0  0  0  0  0  0  0  0  0  0
   -0.3350    0.0930    0.0440 C   0  0  0  0  0  0  0  0  0  0  0  0
   -0.7050    1.3450    0.2610 C   0  0  0  0  0  0  0  0  0  0  0  0
   -2.1520    2.2870    0.6940 S   0  0  0  0  0  0  0  0  0  0  0  0
   -3.6540    1.3430    0.3250 C   0  0  0  0  0  0  0  0  0  0  0  0
   -3.3950    0.5210   -0.9220 C   0  0  0  0  0  0  0  0  0  0  0  0
   -3.6110   -0.9460   -0.6800 C   0  0  0  0  0  0  0  0  0  0  0  0
   -2.4580   -1.5380   -0.0390 N   0  0  0  0  0  0  0  0  0  0  0  0
   -1.0810   -1.1510    0.0860 C   0  0  0  0  0  0  0  0  0  0  0  0
   -0.2960   -2.1170    0.2830 O   0  0  0  0  0  0  0  0  0  0  0  0
  1  2  1  0
  2  3  2  0
  2  4  1  0
  4  5  1  0
  5  6  1  0
  6  7  1  0
  7  8  2  0
  7 14  1  0
  8  9  1  0
  9 10  1  0
 10 11  1  0
 11 12  1  0
 12 13  1  0
 13 14  1  0
 14 15  2  0
M  END
