
     RDKit          3D

 19 20  0  0  0  0  0  0  0  0999 V2000
   -6.0060    0.2530   -1.7290 N   0  0  0  0  0  0  0  0  0  0  0  0
   -4.7890   -0.0580   -1.0830 C   0  0  0  0  0  0  0  0  0  0  0  0
   -4.0140    0.9950   -0.6160 C   0  0  0  0  0  0  0  0  0  0  0  0
   -2.8370    0.7140    0.0090 C   0  0  0  0  0  0  0  0  0  0  0  0
   -2.4110   -0.5830    0.1830 C   0  0  0  0  0  0  0  0  0  0  0  0
   -1.1640   -0.8680    0.8470 N   0  0  0  0  0  0  0  0  0  0  0  0
   -0.4060    0.1950    1.3050 N   0  0  0  0  0  0  0  0  0  0  0  0
    1.0020    0.1840    1.0550 C   0  0  0  0  0  0  0  0  0  0  0  0
    1.5950   -0.8580    0.3750 C   0  0  0  0  0  0  0  0  0  0  0  0
    2.9520   -0.8800    0.1290 C   0  0  0  0  0  0  0  0  0  0  0  0
    3.7800    0.1430    0.5520 C   0  0  0  0  0  0  0  0  0  0  0  0
    5.5060    0.1160    0.2390 S   0  0  2  0  0  0  0  0  0  0  0  0
    5.8810    0.8780   -1.2650 N   0  0  0  0  0  0  0  0  0  0  0  0
    5.9770   -1.3020    0.2320 O   0  0  0  0  0  0  0  0  0  0  0  0
    6.2540    0.8830    1.3210 O   0  0  0  0  0  0  0  0  0  0  0  0
    3.1850    1.1860    1.2330 C   0  0  0  0  0  0  0  0  0  0  0  0
    1.8250    1.2070    1.4800 C   0  0  0  0  0  0  0  0  0  0  0  0
   -3.2070   -1.6190   -0.2940 C   0  0  0  0  0  0  0  0  0  0  0  0
   -4.4010   -1.3710   -0.9300 C   0  0  0  0  0  0  0  0  0  0  0  0
  1  2  1  0
  2  3  2  0
  2 19  1  0
  3  4  1  0
  4  5  2  0
  5  6  1  0
  5 18  1  0
  6  7  1  0
  7  8  1  0
  8  9  2  0
  8 17  1  0
  9 10  1  0
 10 11  2  0
 11 12  1  0
 11 16  1  0
 12 13  1  6
 12 14  2  0
 12 15  2  0
 16 17  2  0
 18 19  2  0
M  END
