
     RDKit          3D

 15 15  0  0  0  0  0  0  0  0999 V2000
   -4.0390    0.6180   -1.4570 C   0  0  0  0  0  0  0  0  0  0  0  0
   -2.9890    0.4860   -0.6500 C   0  0  0  0  0  0  0  0  0  0  0  0
   -1.6030    0.2720   -1.0420 C   0  0  0  0  0  0  0  0  0  0  0  0
   -0.9380   -0.1810    0.0310 C   0  0  0  0  0  0  0  0  0  0  0  0
    0.4360   -0.5040    0.0370 N   0  0  0  0  0  0  0  0  0  0  0  0
    1.0090   -1.2570   -1.0220 C   0  0  0  0  0  0  0  0  0  0  0  0
    0.0420   -1.7430   -2.2490 S   0  0  0  0  0  0  0  0  0  0  0  0
    2.7440   -1.6850   -1.0490 S   0  0  0  0  0  0  0  0  0  0  0  0
    3.6080   -1.0590    0.3950 C   0  0  0  0  0  0  0  0  0  0  0  0
    3.6200    0.4230    0.3480 C   0  0  0  0  0  0  0  0  0  0  0  0
    3.0100    1.1050   -0.7190 N   0  0  0  0  0  0  0  0  0  0  0  0
    4.1780    1.0780    1.2660 O   0  0  0  0  0  0  0  0  0  0  0  0
   -1.8340   -0.2890    1.1780 C   0  0  0  0  0  0  0  0  0  0  0  0
   -1.6110   -0.9580    2.2390 O   0  0  0  0  0  0  0  0  0  0  0  0
   -3.0230    0.5320    0.8350 C   0  0  0  0  0  0  0  0  0  0  0  0
  1  2  2  0
  2  3  1  0
  2 15  1  0
  3  4  2  0
  4  5  1  0
  4 13  1  0
  5  6  1  0
  6  7  2  0
  6  8  1  0
  8  9  1  0
  9 10  1  0
 10 11  1  0
 10 12  2  0
 13 14  2  0
 13 15  1  0
M  END
