
     RDKit          3D

 17 18  0  0  0  0  0  0  0  0999 V2000
   -0.9170    1.2670   -2.3420 C   0  0  0  0  0  0  0  0  0  0  0  0
   -1.6610    0.9050   -1.1370 C   0  0  0  0  0  0  0  0  0  0  0  0
   -2.8860    1.3940   -1.0410 C   0  0  0  0  0  0  0  0  0  0  0  0
   -4.0190    1.3490   -0.0910 C   0  0  0  0  0  0  0  0  0  0  0  0
   -4.4250    0.4260    0.7800 C   0  0  0  0  0  0  0  0  0  0  0  0
   -3.8870   -0.9110    1.1250 C   0  0  0  0  0  0  0  0  0  0  0  0
   -2.6640   -1.4120    1.0690 C   0  0  0  0  0  0  0  0  0  0  0  0
   -1.3430   -0.8870    0.6590 C   0  0  0  0  0  0  0  0  0  0  0  0
   -0.9030    0.0170   -0.1970 C   0  0  0  0  0  0  0  0  0  0  0  0
    0.4780    0.2390   -0.2920 C   0  0  0  0  0  0  0  0  0  0  0  0
    0.9540    1.1330   -1.1060 O   0  0  0  0  0  0  0  0  0  0  0  0
    1.5880   -0.3950    0.4080 C   0  0  2  0  0  0  0  0  0  0  0  0
    1.3960   -1.3880    1.2960 O   0  0  0  0  0  0  0  0  0  0  0  0
    2.4660    0.6660    1.1040 C   0  0  0  0  0  0  0  0  0  0  0  0
    3.8160    0.0400    1.2260 C   0  0  0  0  0  0  0  0  0  0  0  0
    3.9590   -0.8090    0.0090 C   0  0  0  0  0  0  0  0  0  0  0  0
    2.6160   -0.9870   -0.6010 C   0  0  0  0  0  0  0  0  0  0  0  0
  1  2  1  0
  2  3  2  0
  2  9  1  0
  3  4  1  0
  4  5  2  0
  5  6  1  0
  6  7  2  0
  7  8  1  0
  8  9  2  0
  9 10  1  0
 10 11  2  0
 10 12  1  0
 12 13  1  1
 12 14  1  0
 12 17  1  0
 14 15  1  0
 15 16  1  0
 16 17  1  0
M  END
