
     RDKit          3D

 15 16  0  0  0  0  0  0  0  0999 V2000
   -2.0370    1.6770    0.3720 N   0  0  0  0  0  0  0  0  0  0  0  0
   -2.3380    0.2450    0.1330 C   0  0  0  0  0  0  0  0  0  0  0  0
   -3.6190   -0.1350    0.1860 C   0  0  0  0  0  0  0  0  0  0  0  0
   -3.5160   -1.9370   -0.1610 S   0  0  0  0  0  0  0  0  0  0  0  0
   -1.6540   -1.8740   -0.3300 C   0  0  0  0  0  0  0  0  0  0  0  0
   -0.7680   -3.1640   -0.6570 S   0  0  0  0  0  0  0  0  0  0  0  0
   -1.3610   -0.5960   -0.1190 N   0  0  0  0  0  0  0  0  0  0  0  0
    0.0640   -0.2320   -0.1890 C   0  0  0  0  0  0  0  0  0  0  0  0
    0.4690    0.7430   -1.0600 C   0  0  0  0  0  0  0  0  0  0  0  0
    1.8250    1.1080   -1.1450 C   0  0  0  0  0  0  0  0  0  0  0  0
    2.7450    0.4770   -0.3460 C   0  0  0  0  0  0  0  0  0  0  0  0
    4.0920    0.8360   -0.4280 O   0  0  0  0  0  0  0  0  0  0  0  0
    2.3350   -0.4920    0.5180 C   0  0  0  0  0  0  0  0  0  0  0  0
    0.9820   -0.8610    0.6070 C   0  0  0  0  0  0  0  0  0  0  0  0
    0.5720   -1.8490    1.4900 O   0  0  0  0  0  0  0  0  0  0  0  0
  1  2  1  0
  2  3  2  0
  2  7  1  0
  3  4  1  0
  4  5  1  0
  5  6  2  0
  5  7  1  0
  7  8  1  0
  8  9  2  0
  8 14  1  0
  9 10  1  0
 10 11  2  0
 11 12  1  0
 11 13  1  0
 13 14  2  0
 14 15  1  0
M  END
