
     RDKit          3D

 31 32  0  0  0  0  0  0  0  0999 V2000
    2.1950   -4.6940   -2.2380 O   0  0  0  0  0  0  0  0  0  0  0  0
    2.2880   -4.2500   -0.7440 P   0  0  0  0  0  0  0  0  0  0  0  0
    3.1820   -2.3100   -0.2760 P   0  0  0  0  0  0  0  0  0  0  0  0
    4.8770   -2.4860    0.0900 O   0  0  0  0  0  0  0  0  0  0  0  0
    2.2910   -1.4540    1.1090 C   0  0  0  0  0  0  0  0  0  0  0  0
    1.9770   -0.0890    0.7950 N   0  0  0  0  0  0  0  0  0  0  0  0
    2.8450    1.0370    1.0740 C   0  0  0  0  0  0  0  0  0  0  0  0
    3.7270    1.0370    1.9740 O   0  0  0  0  0  0  0  0  0  0  0  0
    2.5100    2.0850    0.1680 N   0  0  0  0  0  0  0  0  0  0  0  0
    2.9730    3.4290    0.2130 C   0  0  0  0  0  0  0  0  0  0  0  0
    3.7590    3.8470    1.0950 O   0  0  0  0  0  0  0  0  0  0  0  0
    2.5460    4.3280   -0.7540 O   0  0  0  0  0  0  0  0  0  0  0  0
    1.6070    1.4750   -0.7910 C   0  0  0  0  0  0  0  0  0  0  0  0
    0.8280    0.5320    0.1600 C   0  0  1  0  0  0  0  0  0  0  0  0
    0.1070   -0.3770   -0.4910 O   0  0  0  0  0  0  0  0  0  0  0  0
   -1.2290   -0.4730   -0.4410 C   0  0  2  0  0  0  0  0  0  0  0  0
   -1.8810   -0.6380    0.9060 C   0  0  0  0  0  0  0  0  0  0  0  0
   -1.2520   -1.5940    1.6450 O   0  0  0  0  0  0  0  0  0  0  0  0
   -1.9070   -1.8670    3.1940 P   0  0  0  0  0  0  0  0  0  0  0  0
   -2.1680   -3.5220    3.5680 O   0  0  0  0  0  0  0  0  0  0  0  0
   -3.2610   -0.8710    3.5640 O   0  0  0  0  0  0  0  0  0  0  0  0
   -1.5550   -1.8070   -1.1270 C   0  0  0  0  0  0  0  0  0  0  0  0
   -0.6550   -2.5230   -1.5760 O   0  0  0  0  0  0  0  0  0  0  0  0
   -2.8720   -2.1780   -1.2240 O   0  0  0  0  0  0  0  0  0  0  0  0
   -1.8500    0.5130   -1.2810 N   0  0  0  0  0  0  0  0  0  0  0  0
   -2.1270    0.3230   -2.6370 N   0  0  0  0  0  0  0  0  0  0  0  0
   -2.6350    1.3030   -3.1930 N   0  0  0  0  0  0  0  0  0  0  0  0
   -2.8090    2.4040   -2.2860 C   0  0  2  0  0  0  0  0  0  0  0  0
   -2.0580    3.5040   -2.6850 O   0  0  0  0  0  0  0  0  0  0  0  0
   -2.2720    1.8260   -1.0000 C   0  0  0  0  0  0  0  0  0  0  0  0
   -2.2100    2.5560    0.4400 S   0  0  0  0  0  0  0  0  0  0  0  0
  1  2  2  0
  2  3  1  0
  3  4  1  0
  3  5  1  0
  5  6  1  0
  6  7  1  0
  6 14  1  0
  7  8  2  0
  7  9  1  0
  9 10  1  0
  9 13  1  0
 10 11  2  0
 10 12  1  0
 13 14  1  0
 14 15  1  6
 15 16  1  0
 16 17  1  1
 16 22  1  0
 16 25  1  0
 17 18  1  0
 18 19  1  0
 19 20  1  0
 19 21  1  0
 22 23  2  0
 22 24  1  0
 25 26  1  0
 25 30  1  0
 26 27  2  0
 27 28  1  0
 28 29  1  6
 28 30  1  0
 30 31  2  0
M  END
