
     RDKit          3D

 30 32  0  0  0  0  0  0  0  0999 V2000
   -1.9630   -0.6210   -3.4290 O   0  0  0  0  0  0  0  0  0  0  0  0
   -1.6610   -0.7800   -2.3010 C   0  0  0  0  0  0  0  0  0  0  0  0
   -0.9460   -2.0040   -2.0150 N   0  0  0  0  0  0  0  0  0  0  0  0
   -0.1960   -2.3660   -0.8380 C   0  0  0  0  0  0  0  0  0  0  0  0
    0.4290   -3.3670   -0.7730 O   0  0  0  0  0  0  0  0  0  0  0  0
   -0.0950   -1.5350    0.2780 N   0  0  0  0  0  0  0  0  0  0  0  0
    1.2030   -1.7600    1.0030 C   0  0  0  0  0  0  0  0  0  0  0  0
    2.0090   -0.6610    0.4590 C   0  0  0  0  0  0  0  0  0  0  0  0
    3.3920   -0.5300    0.5170 O   0  0  0  0  0  0  0  0  0  0  0  0
    4.1290   -1.1760   -0.5470 C   0  0  0  0  0  0  0  0  0  0  0  0
    3.4290   -1.8270   -1.3910 O   0  0  0  0  0  0  0  0  0  0  0  0
    5.5340   -1.1130   -0.6950 C   0  0  0  0  0  0  0  0  0  0  0  0
    6.2720   -0.5500    0.5470 C   0  0  0  0  0  0  0  0  0  0  0  0
    5.6420    0.6860    0.6510 O   0  0  0  0  0  0  0  0  0  0  0  0
    6.6020    1.6570    0.7160 O   0  0  0  0  0  0  0  0  0  0  0  0
    5.9430    2.6120   -0.0480 O   0  0  0  0  0  0  0  0  0  0  0  0
   -0.9070   -0.5020    0.7620 C   0  0  0  0  0  0  0  0  0  0  0  0
   -0.5710    0.0510    1.8080 O   0  0  0  0  0  0  0  0  0  0  0  0
   -2.1680    0.0350    0.1280 C   0  0  1  0  0  0  0  0  0  0  0  0
   -3.1020   -1.1290    0.4260 C   0  0  0  0  0  0  0  0  0  0  0  0
   -4.2130   -1.1410   -0.3630 O   0  0  0  0  0  0  0  0  0  0  0  0
   -5.1040   -0.3830    0.3750 N   0  0  0  0  0  0  0  0  0  0  0  0
   -4.8840    0.9040    0.8090 C   0  0  0  0  0  0  0  0  0  0  0  0
   -5.7450    1.4690    1.5240 O   0  0  0  0  0  0  0  0  0  0  0  0
   -3.6880    1.7460    0.5230 C   0  0  2  0  0  0  0  0  0  0  0  0
   -3.7670    3.1580    1.1320 C   0  0  0  0  0  0  0  0  0  0  0  0
   -4.7510    3.4110    0.1460 O   0  0  0  0  0  0  0  0  0  0  0  0
   -3.9620    2.5850   -0.7020 C   0  0  0  0  0  0  0  0  0  0  0  0
   -2.4790    1.1990    0.7300 O   0  0  0  0  0  0  0  0  0  0  0  0
   -1.9620    0.1470   -1.2910 N   0  0  0  0  0  0  0  0  0  0  0  0
  1  2  2  0
  2  3  1  0
  2 30  1  0
  3  4  1  0
  4  5  2  0
  4  6  1  0
  6  7  1  0
  6 17  1  0
  7  8  1  0
  8  9  1  0
  9 10  1  0
 10 11  2  0
 10 12  1  0
 12 13  1  0
 13 14  1  0
 14 15  1  0
 15 16  1  0
 17 18  2  0
 17 19  1  0
 19 20  1  6
 19 29  1  0
 19 30  1  0
 20 21  1  0
 21 22  1  0
 22 23  1  0
 23 24  2  0
 23 25  1  0
 25 26  1  1
 25 28  1  0
 25 29  1  0
 26 27  1  0
 27 28  1  0
M  END
