
     RDKit          3D

 30 30  0  0  0  0  0  0  0  0999 V2000
   -1.9870   -2.9580    0.9940 C   0  0  0  0  0  0  0  0  0  0  0  0
   -1.6450   -1.7150    1.6320 N   0  0  0  0  0  0  0  0  0  0  0  0
   -1.7080   -0.3950    0.4010 S   0  0  0  0  0  0  0  0  0  0  0  0
   -2.4330    1.0330    0.8160 C   0  0  0  0  0  0  0  0  0  0  0  0
   -3.1190    1.1400    2.5370 P   0  0  0  0  0  0  0  0  0  0  0  0
   -2.3920   -0.0280    3.5600 O   0  0  0  0  0  0  0  0  0  0  0  0
   -4.8290    0.9520    2.5000 O   0  0  0  0  0  0  0  0  0  0  0  0
   -2.6050    2.2060   -0.0300 C   0  0  0  0  0  0  0  0  0  0  0  0
   -3.7700    2.7700   -0.0270 O   0  0  0  0  0  0  0  0  0  0  0  0
   -1.6060    2.7830   -0.8570 N   0  0  0  0  0  0  0  0  0  0  0  0
   -0.2870    3.1030   -0.5220 C   0  0  0  0  0  0  0  0  0  0  0  0
    0.4330    3.7660   -1.3510 O   0  0  0  0  0  0  0  0  0  0  0  0
    0.4190    2.7530    0.7370 C   0  0  0  0  0  0  0  0  0  0  0  0
    1.7960    2.3700    0.4830 N   0  0  0  0  0  0  0  0  0  0  0  0
    2.3280    2.0860   -0.7900 C   0  0  0  0  0  0  0  0  0  0  0  0
    3.4600    2.6280   -1.0830 O   0  0  0  0  0  0  0  0  0  0  0  0
    1.7550    1.2700   -1.7830 N   0  0  0  0  0  0  0  0  0  0  0  0
    1.3400   -0.0960   -1.6780 C   0  0  2  0  0  0  0  0  0  0  0  0
    1.7870   -0.7710   -0.4210 C   0  0  0  0  0  0  0  0  0  0  0  0
    1.3610   -2.0730   -0.3950 O   0  0  0  0  0  0  0  0  0  0  0  0
    1.9390   -2.7890    1.0900 P   0  0  0  0  0  0  0  0  0  0  0  0
    3.3650   -3.6850    0.7020 O   0  0  0  0  0  0  0  0  0  0  0  0
    2.3860   -1.2410    2.5930 P   0  0  0  0  0  0  0  0  0  0  0  0
    3.4860   -0.1710    2.3830 O   0  0  0  0  0  0  0  0  0  0  0  0
    2.0490   -0.8280   -2.7990 C   0  0  0  0  0  0  0  0  0  0  0  0
    2.8140   -0.2500   -3.5900 O   0  0  0  0  0  0  0  0  0  0  0  0
    1.7680   -2.1990   -2.8640 O   0  0  0  0  0  0  0  0  0  0  0  0
   -0.0890   -0.2210   -1.9890 C   0  0  0  0  0  0  0  0  0  0  0  0
   -0.4340    0.2860   -3.1200 O   0  0  0  0  0  0  0  0  0  0  0  0
   -1.0950   -0.8250   -1.2010 N   0  0  0  0  0  0  0  0  0  0  0  0
  1  2  1  0
  3  2  1  6
  3  4  2  0
  3 30  1  0
  4  5  1  0
  4  8  1  0
  5  6  1  0
  5  7  1  0
  8  9  2  0
  8 10  1  0
 10 11  1  0
 11 12  2  0
 11 13  1  0
 13 14  1  0
 14 15  1  0
 15 16  2  0
 15 17  1  0
 17 18  1  0
 18 19  1  1
 18 25  1  0
 18 28  1  0
 19 20  1  0
 20 21  1  0
 21 22  1  0
 21 23  1  0
 23 24  2  0
 25 26  2  0
 25 27  1  0
 28 29  2  0
 28 30  1  0
M  END
