
     RDKit          3D

 31 32  0  0  0  0  0  0  0  0999 V2000
    5.4380    1.1290    0.1360 O   0  0  0  0  0  0  0  0  0  0  0  0
    6.0670    0.0930   -0.1930 C   0  0  0  0  0  0  0  0  0  0  0  0
    7.4840    0.1120   -0.1030 N   0  0  0  0  0  0  0  0  0  0  0  0
    8.1690    1.3000    0.3580 C   0  0  0  0  0  0  0  0  0  0  0  0
    9.9920    0.9510    0.3420 P   0  0  0  0  0  0  0  0  0  0  0  0
   10.8070    2.2110    1.1770 O   0  0  0  0  0  0  0  0  0  0  0  0
   10.2640   -0.6000    1.0340 O   0  0  0  0  0  0  0  0  0  0  0  0
   10.5670   -1.4620    0.1040 O   0  0  0  0  0  0  0  0  0  0  0  0
    5.3630   -1.0280   -0.6310 O   0  0  0  0  0  0  0  0  0  0  0  0
    3.9550   -1.0110   -0.7080 C   0  0  0  0  0  0  0  0  0  0  0  0
    3.4160    0.0510   -0.3650 O   0  0  0  0  0  0  0  0  0  0  0  0
    3.2290   -2.0820   -1.1300 O   0  0  0  0  0  0  0  0  0  0  0  0
    1.8290   -2.1200   -1.2220 C   0  0  0  0  0  0  0  0  0  0  0  0
    1.2420   -1.9210    0.1560 C   0  0  0  0  0  0  0  0  0  0  0  0
   -0.2460   -1.9590    0.1230 C   0  0  0  0  0  0  0  0  0  0  0  0
   -1.0430   -3.0290    0.2660 N   0  0  0  0  0  0  0  0  0  0  0  0
   -2.2890   -2.6470    0.1750 O   0  0  0  0  0  0  0  0  0  0  0  0
   -2.3630   -1.3500   -0.0260 C   0  0  0  0  0  0  0  0  0  0  0  0
   -3.5530   -0.5590   -0.1790 N   0  0  0  0  0  0  0  0  0  0  0  0
   -3.5300    0.8730   -0.3980 C   0  0  0  0  0  0  0  0  0  0  0  0
   -4.9450    1.1780   -0.8320 C   0  0  0  0  0  0  0  0  0  0  0  0
   -5.7510    0.1590   -0.0680 C   0  0  2  0  0  0  0  0  0  0  0  0
   -7.0160   -0.0600   -0.7420 N   0  0  0  0  0  0  0  0  0  0  0  0
   -7.9560    1.4430   -0.8480 P   0  0  0  0  0  0  0  0  0  0  0  0
   -8.2550    2.1630    0.6970 O   0  0  0  0  0  0  0  0  0  0  0  0
   -7.3020    2.5520   -1.9850 O   0  0  0  0  0  0  0  0  0  0  0  0
   -6.1150    0.6950    1.6600 P   0  0  0  0  0  0  0  0  0  0  0  0
   -4.8990    1.7690    2.2720 O   0  0  0  0  0  0  0  0  0  0  0  0
   -6.3940   -0.6230    2.7270 O   0  0  0  0  0  0  0  0  0  0  0  0
   -4.8860   -1.0690   -0.1350 C   0  0  0  0  0  0  0  0  0  0  0  0
   -1.0760   -0.9210   -0.0580 N   0  0  0  0  0  0  0  0  0  0  0  0
  1  2  2  0
  2  3  1  0
  2  9  1  0
  3  4  1  0
  4  5  1  0
  5  6  1  0
  5  7  1  0
  7  8  1  0
  9 10  1  0
 10 11  2  0
 10 12  1  0
 12 13  1  0
 13 14  1  0
 14 15  1  0
 15 16  2  0
 15 31  1  0
 16 17  1  0
 17 18  1  0
 18 19  1  0
 18 31  2  0
 19 20  1  0
 19 30  1  0
 20 21  1  0
 21 22  1  0
 22 23  1  6
 22 27  1  0
 22 30  1  0
 23 24  1  0
 24 25  1  0
 24 26  1  0
 27 28  1  0
 27 29  1  0
M  END
