
     RDKit          3D

 33 37  0  0  0  0  0  0  0  0999 V2000
    7.0230    1.6050   -2.3010 C   0  0  0  0  0  0  0  0  0  0  0  0
    7.3110    0.9380   -0.9890 C   0  0  1  0  0  0  0  0  0  0  0  0
    7.3820    2.0020    0.0990 C   0  0  0  0  0  0  0  0  0  0  0  0
    6.1980    0.0220   -0.5960 C   0  0  0  0  0  0  0  0  0  0  0  0
    6.4410   -1.3010   -0.3040 C   0  0  0  0  0  0  0  0  0  0  0  0
    5.4010   -2.1220    0.0540 C   0  0  0  0  0  0  0  0  0  0  0  0
    4.0930   -1.6550    0.1340 C   0  0  0  0  0  0  0  0  0  0  0  0
    2.9180   -2.2270    0.4510 N   0  0  0  0  0  0  0  0  0  0  0  0
    1.9550   -1.2730    0.3580 C   0  0  0  0  0  0  0  0  0  0  0  0
    0.4880   -1.4620    0.6240 C   0  0  0  0  0  0  0  0  0  0  0  0
   -0.1680   -0.1430    0.3950 C   0  0  0  0  0  0  0  0  0  0  0  0
   -1.6060   -0.1480    0.6090 N   0  0  0  0  0  0  0  0  0  0  0  0
   -2.2070   -0.4720    1.8330 C   0  0  0  0  0  0  0  0  0  0  0  0
   -1.3650   -0.7680    2.7630 O   0  0  0  0  0  0  0  0  0  0  0  0
   -3.6050   -0.5170    2.1810 C   0  0  0  0  0  0  0  0  0  0  0  0
   -3.9580   -0.8740    3.4890 C   0  0  0  0  0  0  0  0  0  0  0  0
   -2.9410   -1.1670    4.3860 O   0  0  0  0  0  0  0  0  0  0  0  0
   -5.2810   -0.9250    3.8460 C   0  0  0  0  0  0  0  0  0  0  0  0
   -6.2490   -0.6230    2.9140 C   0  0  0  0  0  0  0  0  0  0  0  0
   -5.9350   -0.2690    1.6210 C   0  0  0  0  0  0  0  0  0  0  0  0
   -4.5760   -0.2170    1.2530 C   0  0  0  0  0  0  0  0  0  0  0  0
   -4.2810    0.1410   -0.0480 O   0  0  0  0  0  0  0  0  0  0  0  0
   -5.2410    0.4450   -0.9920 C   0  0  0  0  0  0  0  0  0  0  0  0
   -4.9240    0.8020   -2.2970 C   0  0  0  0  0  0  0  0  0  0  0  0
   -5.8840    1.1060   -3.2390 C   0  0  0  0  0  0  0  0  0  0  0  0
   -5.5690    1.4570   -4.5210 F   0  0  0  0  0  0  0  0  0  0  0  0
   -7.2160    1.0540   -2.8750 C   0  0  0  0  0  0  0  0  0  0  0  0
   -7.5360    0.6990   -1.5790 C   0  0  0  0  0  0  0  0  0  0  0  0
   -6.5820    0.3930   -0.6300 C   0  0  0  0  0  0  0  0  0  0  0  0
   -6.8980    0.0360    0.6730 O   0  0  0  0  0  0  0  0  0  0  0  0
    2.5960   -0.1520   -0.0150 N   0  0  0  0  0  0  0  0  0  0  0  0
    3.8830   -0.3640   -0.1550 N   0  0  0  0  0  0  0  0  0  0  0  0
    4.9030    0.4680   -0.5130 C   0  0  0  0  0  0  0  0  0  0  0  0
  2  1  1  6
  2  3  1  0
  2  4  1  0
  4  5  1  0
  4 33  2  0
  5  6  2  0
  6  7  1  0
  7  8  2  0
  7 32  1  0
  8  9  1  0
  9 10  1  0
  9 31  2  0
 10 11  1  0
 11 12  1  0
 12 13  1  0
 13 14  2  0
 13 15  1  0
 15 16  2  0
 15 21  1  0
 16 17  1  0
 16 18  1  0
 18 19  2  0
 19 20  1  0
 20 21  2  0
 20 30  1  0
 21 22  1  0
 22 23  1  0
 23 24  2  0
 23 29  1  0
 24 25  1  0
 25 26  1  0
 25 27  2  0
 27 28  1  0
 28 29  2  0
 29 30  1  0
 31 32  1  0
 32 33  1  0
M  END
