
     RDKit          3D

 33 37  0  0  0  0  0  0  0  0999 V2000
   -9.5160    1.5980    2.6500 C   0  0  0  0  0  0  0  0  0  0  0  0
   -8.2690    1.0280    2.0120 C   0  0  0  0  0  0  0  0  0  0  0  0
   -7.2110    1.7370    1.8230 C   0  0  0  0  0  0  0  0  0  0  0  0
   -5.9580    1.3280    1.2300 C   0  0  0  0  0  0  0  0  0  0  0  0
   -4.9120    2.2620    1.1110 C   0  0  0  0  0  0  0  0  0  0  0  0
   -3.7100    1.9080    0.5540 C   0  0  0  0  0  0  0  0  0  0  0  0
   -3.4700    0.6360    0.0890 C   0  0  0  0  0  0  0  0  0  0  0  0
   -2.3160    0.2900   -0.4470 O   0  0  0  0  0  0  0  0  0  0  0  0
   -2.0680   -0.9150   -0.8960 C   0  0  0  0  0  0  0  0  0  0  0  0
   -0.7640   -1.2600   -1.4890 C   0  0  0  0  0  0  0  0  0  0  0  0
   -0.3930   -2.4870   -1.9900 C   0  0  0  0  0  0  0  0  0  0  0  0
    0.9030   -2.3650   -2.4420 C   0  0  0  0  0  0  0  0  0  0  0  0
    1.2750   -1.0630   -2.1990 C   0  0  0  0  0  0  0  0  0  0  0  0
    2.5980   -0.4630   -2.5200 C   0  0  0  0  0  0  0  0  0  0  0  0
    3.5100   -0.6530   -1.3260 C   0  0  0  0  0  0  0  0  0  0  0  0
    3.0820   -1.2350   -0.3120 O   0  0  0  0  0  0  0  0  0  0  0  0
    4.8370   -0.1730   -1.3650 N   0  0  0  0  0  0  0  0  0  0  0  0
    5.7940   -0.2760   -0.3390 C   0  0  0  0  0  0  0  0  0  0  0  0
    5.5940   -0.8620    0.8730 C   0  0  0  0  0  0  0  0  0  0  0  0
    6.5870   -0.9370    1.8640 C   0  0  0  0  0  0  0  0  0  0  0  0
    7.8230   -0.3950    1.6050 C   0  0  0  0  0  0  0  0  0  0  0  0
    8.0740    0.2110    0.3880 C   0  0  0  0  0  0  0  0  0  0  0  0
    9.1860    0.8260   -0.1430 C   0  0  0  0  0  0  0  0  0  0  0  0
    8.8260    1.2220   -1.3690 N   0  0  0  0  0  0  0  0  0  0  0  0
    7.5830    0.8980   -1.6270 N   0  0  0  0  0  0  0  0  0  0  0  0
    7.0760    0.2630   -0.5530 C   0  0  0  0  0  0  0  0  0  0  0  0
    0.2570   -0.4660   -1.6390 O   0  0  0  0  0  0  0  0  0  0  0  0
   -3.0510   -1.8260   -0.7940 N   0  0  0  0  0  0  0  0  0  0  0  0
   -4.2550   -1.5570   -0.2610 C   0  0  0  0  0  0  0  0  0  0  0  0
   -5.1770   -2.3860   -0.1580 O   0  0  0  0  0  0  0  0  0  0  0  0
   -4.5000   -0.2630    0.2120 C   0  0  0  0  0  0  0  0  0  0  0  0
   -5.7310    0.0560    0.7700 C   0  0  0  0  0  0  0  0  0  0  0  0
   -6.6780   -0.9350    0.8350 F   0  0  0  0  0  0  0  0  0  0  0  0
  1  2  1  0
  2  3  2  3
  3  4  1  0
  4  5  2  0
  4 32  1  0
  5  6  1  0
  6  7  2  0
  7  8  1  0
  7 31  1  0
  8  9  1  0
  9 10  1  0
  9 28  2  0
 10 11  2  0
 10 27  1  0
 11 12  1  0
 12 13  2  0
 13 14  1  0
 13 27  1  0
 14 15  1  0
 15 16  2  0
 15 17  1  0
 17 18  1  0
 18 19  2  0
 18 26  1  0
 19 20  1  0
 20 21  2  0
 21 22  1  0
 22 23  1  0
 22 26  2  0
 23 24  2  0
 24 25  1  0
 25 26  1  0
 28 29  1  0
 29 30  2  0
 29 31  1  0
 31 32  2  0
 32 33  1  0
M  END
