
     RDKit          3D

 32 38  0  0  0  0  0  0  0  0999 V2000
    2.5150   -1.5360   -2.6420 C   0  0  0  0  0  0  0  0  0  0  0  0
    1.7310   -1.6490   -1.5450 O   0  0  0  0  0  0  0  0  0  0  0  0
    0.9180   -0.6370   -1.1730 C   0  0  2  0  0  0  0  0  0  0  0  0
   -0.0610   -0.3330   -2.2790 C   0  0  0  0  0  0  0  0  0  0  0  0
   -1.0400    0.4940   -1.9260 C   0  0  0  0  0  0  0  0  0  0  0  0
   -0.9400    0.9470   -0.4920 C   0  0  2  0  0  0  0  0  0  0  0  0
    0.3940    1.5950   -0.3530 C   0  0  0  0  0  0  0  0  0  0  0  0
    1.5230    0.5710   -0.5600 C   0  0  2  0  0  0  0  0  0  0  0  0
    2.6710    1.1920   -1.2830 C   0  0  0  0  0  0  0  0  0  0  0  0
    1.9840    0.0610    0.7730 C   0  0  2  0  0  0  0  0  0  0  0  0
    3.4260   -0.0520    0.9630 C   0  0  0  0  0  0  0  0  0  0  0  0
    4.2100   -1.1360    0.6340 C   0  0  0  0  0  0  0  0  0  0  0  0
    5.5820   -1.1760    0.8330 C   0  0  0  0  0  0  0  0  0  0  0  0
    6.2220   -0.1130    1.3770 C   0  0  0  0  0  0  0  0  0  0  0  0
    5.4940    0.9920    1.7230 C   0  0  0  0  0  0  0  0  0  0  0  0
    4.1510    1.0150    1.5220 C   0  0  0  0  0  0  0  0  0  0  0  0
    1.1830   -1.0770    1.0640 N   0  0  0  0  0  0  0  0  0  0  0  0
    0.1160   -1.1580    0.0540 C   0  0  1  0  0  0  0  0  0  0  0  0
   -1.0590   -0.3280    0.3430 C   0  0  1  0  0  0  0  0  0  0  0  0
   -1.3030   -0.0200    1.7920 C   0  0  0  0  0  0  0  0  0  0  0  0
   -2.4740    0.9510    1.8750 C   0  0  0  0  0  0  0  0  0  0  0  0
   -2.2560    2.1480    1.1200 N   0  0  2  0  0  0  0  0  0  0  0  0
   -3.4150    3.0050    1.3320 C   0  0  0  0  0  0  0  0  0  0  0  0
   -2.0860    1.8630   -0.2700 C   0  0  2  0  0  0  0  0  0  0  0  0
   -3.3190    1.2100   -0.8220 C   0  0  0  0  0  0  0  0  0  0  0  0
   -3.3200   -0.2530   -0.6570 C   0  0  0  0  0  0  0  0  0  0  0  0
   -4.4590   -0.9120   -1.0680 C   0  0  0  0  0  0  0  0  0  0  0  0
   -4.6100   -2.2760   -0.9490 C   0  0  0  0  0  0  0  0  0  0  0  0
   -3.5970   -3.0210   -0.4040 C   0  0  0  0  0  0  0  0  0  0  0  0
   -3.7250   -4.3950   -0.2740 O   0  0  0  0  0  0  0  0  0  0  0  0
   -2.4380   -2.3430    0.0130 C   0  0  0  0  0  0  0  0  0  0  0  0
   -2.3020   -0.9900   -0.1120 C   0  0  0  0  0  0  0  0  0  0  0  0
  1  2  1  0
  3  2  1  6
  3  4  1  0
  3  8  1  0
  3 18  1  0
  4  5  2  0
  5  6  1  0
  6  7  1  6
  6 19  1  0
  6 24  1  0
  7  8  1  0
  8  9  1  6
  8 10  1  0
 10 11  1  6
 10 17  1  0
 11 12  2  0
 11 16  1  0
 12 13  1  0
 13 14  2  0
 14 15  1  0
 15 16  2  0
 18 17  1  1
 18 19  1  0
 19 20  1  1
 19 32  1  0
 20 21  1  0
 21 22  1  0
 22 23  1  6
 22 24  1  0
 24 25  1  1
 25 26  1  0
 26 27  2  0
 26 32  1  0
 27 28  1  0
 28 29  2  0
 29 30  1  0
 29 31  1  0
 31 32  2  0
M  CHG  2  17   1  22   1
M  END
