
     RDKit          3D

 20 22  0  0  0  0  0  0  0  0999 V2000
    2.3720    0.2010   -2.4300 N   0  0  0  0  0  0  0  0  0  0  0  0
    1.3410    0.1110   -3.3950 C   0  0  0  0  0  0  0  0  0  0  0  0
    1.3740   -0.7630   -4.2900 O   0  0  0  0  0  0  0  0  0  0  0  0
    0.2140    1.0770   -3.3250 C   0  0  0  0  0  0  0  0  0  0  0  0
    0.4230    1.9860   -2.1980 N   0  0  0  0  0  0  0  0  0  0  0  0
    0.3360    1.4910   -0.8370 C   0  0  0  0  0  0  0  0  0  0  0  0
   -0.3100    0.3810   -0.8050 N   0  0  0  0  0  0  0  0  0  0  0  0
   -0.5850   -0.3820    0.3560 C   0  0  0  0  0  0  0  0  0  0  0  0
   -0.2980   -0.1350    1.6850 C   0  0  0  0  0  0  0  0  0  0  0  0
   -0.7620   -1.1510    2.4250 N   0  0  0  0  0  0  0  0  0  0  0  0
   -1.3500   -2.0690    1.6390 C   0  0  0  0  0  0  0  0  0  0  0  0
   -1.2500   -1.6110    0.3530 C   0  0  0  0  0  0  0  0  0  0  0  0
   -1.8140   -2.4730   -0.4820 C   0  0  0  0  0  0  0  0  0  0  0  0
   -2.3370   -3.6110    0.3090 C   0  0  0  0  0  0  0  0  0  0  0  0
   -1.9870   -3.2510    1.6910 C   0  0  0  0  0  0  0  0  0  0  0  0
    0.3990    1.0460    2.1670 C   0  0  0  0  0  0  0  0  0  0  0  0
    0.1480    1.3570    3.4190 C   0  0  0  0  0  0  0  0  0  0  0  0
    0.7210    2.4370    4.0260 F   0  0  0  0  0  0  0  0  0  0  0  0
    1.3270    1.9170    1.4580 C   0  0  0  0  0  0  0  0  0  0  0  0
    0.9810    2.3600    0.1100 C   0  0  0  0  0  0  0  0  0  0  0  0
  1  2  1  0
  2  3  2  0
  2  4  1  0
  4  5  1  0
  5  6  1  0
  6  7  2  0
  6 20  1  0
  7  8  1  0
  8  9  2  0
  8 12  1  0
  9 10  1  0
  9 16  1  0
 10 11  1  0
 11 12  1  0
 11 15  2  0
 12 13  2  0
 13 14  1  0
 14 15  1  0
 16 17  2  3
 16 19  1  0
 17 18  1  0
 19 20  1  0
M  END
