
     RDKit          3D

 19 21  0  0  0  0  0  0  0  0999 V2000
    4.7180   -1.8030   -0.3920 C   0  0  0  0  0  0  0  0  0  0  0  0
    3.5490   -2.5390    0.2130 C   0  0  0  0  0  0  0  0  0  0  0  0
    2.3040   -1.7570    0.0320 C   0  0  0  0  0  0  0  0  0  0  0  0
    2.2550   -0.5390    0.4740 N   0  0  0  0  0  0  0  0  0  0  0  0
    1.0790    0.2080    0.3060 N   0  0  0  0  0  0  0  0  0  0  0  0
    0.9650    1.5250    0.2170 C   0  0  0  0  0  0  0  0  0  0  0  0
    2.0630    2.5220    0.2760 C   0  0  0  0  0  0  0  0  0  0  0  0
    3.3840    1.8550    0.4600 C   0  0  0  0  0  0  0  0  0  0  0  0
    4.3790    2.8530    0.5060 O   0  0  0  0  0  0  0  0  0  0  0  0
   -0.3770    1.8020    0.0590 C   0  0  0  0  0  0  0  0  0  0  0  0
   -1.1270    0.6010    0.0500 C   0  0  0  0  0  0  0  0  0  0  0  0
   -2.4220    0.1830   -0.0630 C   0  0  0  0  0  0  0  0  0  0  0  0
   -2.7040   -1.1020   -0.0170 C   0  0  0  0  0  0  0  0  0  0  0  0
   -1.0200   -1.8800    0.2060 S   0  0  0  0  0  0  0  0  0  0  0  0
   -0.1910   -0.3440    0.2040 C   0  0  0  0  0  0  0  0  0  0  0  0
   -3.9770   -1.8300   -0.1090 C   0  0  0  0  0  0  0  0  0  0  0  0
   -5.0530   -0.8770   -0.5310 C   0  0  0  0  0  0  0  0  0  0  0  0
   -4.8230    0.3810    0.2880 C   0  0  0  0  0  0  0  0  0  0  0  0
   -3.6420    1.1010   -0.2460 C   0  0  0  0  0  0  0  0  0  0  0  0
  1  2  1  0
  2  3  1  0
  3  4  2  3
  4  5  1  0
  5  6  1  0
  5 15  1  0
  6  7  1  0
  6 10  2  0
  7  8  1  0
  8  9  1  0
 10 11  1  0
 11 12  1  0
 11 15  2  0
 12 13  2  0
 12 19  1  0
 13 14  1  0
 13 16  1  0
 14 15  1  0
 16 17  1  0
 17 18  1  0
 18 19  1  0
M  END
