
     RDKit          3D

 20 22  0  0  0  0  0  0  0  0999 V2000
   -3.4100    2.2640   -0.7650 N   0  0  0  0  0  0  0  0  0  0  0  0
   -3.3780    0.8750   -0.4660 C   0  0  0  0  0  0  0  0  0  0  0  0
   -2.1460    0.2480   -0.4390 C   0  0  0  0  0  0  0  0  0  0  0  0
   -2.0660   -1.0990   -0.1510 C   0  0  0  0  0  0  0  0  0  0  0  0
   -0.8510   -1.8040   -0.1440 N   0  0  0  0  0  0  0  0  0  0  0  0
    0.4600   -1.2320   -0.1810 C   0  0  0  0  0  0  0  0  0  0  0  0
    1.4690   -1.8750   -0.9150 C   0  0  0  0  0  0  0  0  0  0  0  0
    2.7560   -1.4180   -0.9750 C   0  0  0  0  0  0  0  0  0  0  0  0
    3.1010   -0.2730   -0.2910 C   0  0  0  0  0  0  0  0  0  0  0  0
    4.4000    0.2280   -0.3260 C   0  0  0  0  0  0  0  0  0  0  0  0
    4.6610    1.3750    0.3860 C   0  0  0  0  0  0  0  0  0  0  0  0
    3.6650    1.9920    1.0990 C   0  0  0  0  0  0  0  0  0  0  0  0
    3.8990    3.0550    1.7600 O   0  0  0  0  0  0  0  0  0  0  0  0
    2.4310    1.4950    1.1170 N   0  0  0  0  0  0  0  0  0  0  0  0
    2.1300    0.3780    0.4390 C   0  0  0  0  0  0  0  0  0  0  0  0
    0.8240   -0.0930    0.4960 C   0  0  0  0  0  0  0  0  0  0  0  0
   -3.2630   -1.7810    0.1030 C   0  0  0  0  0  0  0  0  0  0  0  0
   -3.1780   -3.1140    0.3870 F   0  0  0  0  0  0  0  0  0  0  0  0
   -4.4700   -1.1310    0.0680 C   0  0  0  0  0  0  0  0  0  0  0  0
   -4.5010    0.1800   -0.2150 N   0  0  0  0  0  0  0  0  0  0  0  0
  1  2  1  0
  2  3  2  0
  2 20  1  0
  3  4  1  0
  4  5  1  0
  4 17  2  0
  5  6  1  0
  6  7  2  0
  6 16  1  0
  7  8  1  0
  8  9  2  0
  9 10  1  0
  9 15  1  0
 10 11  2  0
 11 12  1  0
 12 13  2  0
 12 14  1  0
 14 15  1  0
 15 16  2  0
 17 18  1  0
 17 19  1  0
 19 20  2  0
M  CHG  1  20   1
M  END
