
     RDKit          3D

 12 13  0  0  0  0  0  0  0  0999 V2000
    3.2780   -0.4150   -0.1420 C   0  0  0  0  0  0  0  0  0  0  0  0
    1.8020   -0.4470   -0.0130 C   0  0  0  0  0  0  0  0  0  0  0  0
    1.0860    0.7240   -0.1150 C   0  0  0  0  0  0  0  0  0  0  0  0
    1.7710    1.9480   -0.3430 N   0  0  0  0  0  0  0  0  0  0  0  0
   -0.2600    0.6550    0.0080 N   0  0  0  0  0  0  0  0  0  0  0  0
   -0.9060   -0.5100    0.2240 C   0  0  0  0  0  0  0  0  0  0  0  0
   -2.3630   -0.6200    0.3620 C   0  0  1  0  0  0  0  0  0  0  0  0
   -3.1930    0.5360    0.7800 C   0  0  0  0  0  0  0  0  0  0  0  0
   -3.1290    0.2120   -0.7060 C   0  0  0  0  0  0  0  0  0  0  0  0
   -0.1650   -1.6280    0.3170 N   0  0  0  0  0  0  0  0  0  0  0  0
    1.1680   -1.6520    0.2070 C   0  0  0  0  0  0  0  0  0  0  0  0
    2.1440   -3.0990    0.3260 Cl  0  0  0  0  0  0  0  0  0  0  0  0
  1  2  1  0
  2  3  2  0
  2 11  1  0
  3  4  1  0
  3  5  1  0
  5  6  2  0
  7  6  1  6
  6 10  1  0
  7  8  1  0
  7  9  1  0
  8  9  1  0
 10 11  2  0
 11 12  1  0
M  END
