
     RDKit          3D

 20 21  0  0  0  0  0  0  0  0999 V2000
    5.4670    0.9680   -0.2670 C   0  0  0  0  0  0  0  0  0  0  0  0
    4.5690    0.4570    0.8360 C   0  0  0  0  0  0  0  0  0  0  0  0
    3.5520   -0.5340    0.3340 C   0  0  2  0  0  0  0  0  0  0  0  0
    2.6910    0.1350   -0.7050 C   0  0  0  0  0  0  0  0  0  0  0  0
    1.5120   -0.5070   -0.9600 O   0  0  0  0  0  0  0  0  0  0  0  0
    0.8370   -0.9740    0.1310 C   0  0  2  0  0  0  0  0  0  0  0  0
   -0.6200   -0.7010    0.0890 C   0  0  0  0  0  0  0  0  0  0  0  0
   -1.2990   -1.1070    1.0670 O   0  0  0  0  0  0  0  0  0  0  0  0
   -1.2670   -0.0310   -0.9550 N   0  0  0  0  0  0  0  0  0  0  0  0
   -2.6900    0.1660   -0.8650 C   0  0  0  0  0  0  0  0  0  0  0  0
   -3.3910   -0.2780    0.1910 N   0  0  0  0  0  0  0  0  0  0  0  0
   -4.6970   -0.0980    0.2760 N   0  0  0  0  0  0  0  0  0  0  0  0
   -5.4490   -0.5820    1.4230 C   0  0  0  0  0  0  0  0  0  0  0  0
   -5.4090    0.5350   -0.6790 C   0  0  0  0  0  0  0  0  0  0  0  0
   -6.6660    0.6980   -0.5780 O   0  0  0  0  0  0  0  0  0  0  0  0
   -4.7120    0.9810   -1.7380 N   0  0  0  0  0  0  0  0  0  0  0  0
   -3.3840    0.8190   -1.8630 C   0  0  0  0  0  0  0  0  0  0  0  0
   -2.7460    1.2410   -2.8560 O   0  0  0  0  0  0  0  0  0  0  0  0
    1.4700   -0.3910    1.3820 C   0  0  0  0  0  0  0  0  0  0  0  0
    2.7910   -0.9850    1.4800 N   0  0  0  0  0  0  0  0  0  0  0  0
  1  2  1  0
  3  2  1  1
  3  4  1  0
  3 20  1  0
  4  5  1  0
  5  6  1  0
  6  7  1  6
  6 19  1  0
  7  8  2  0
  7  9  1  0
  9 10  1  0
 10 11  2  0
 10 17  1  0
 11 12  1  0
 12 13  1  0
 12 14  1  0
 14 15  2  0
 14 16  1  0
 16 17  1  0
 17 18  2  0
 19 20  1  0
M  END
