
     RDKit          3D

 19 20  0  0  0  0  0  0  0  0999 V2000
   -4.0950    1.9340    0.1550 C   0  0  0  0  0  0  0  0  0  0  0  0
   -4.4050    0.4750    0.0160 C   0  0  0  0  0  0  0  0  0  0  0  0
   -3.3420   -0.2810   -0.4810 O   0  0  0  0  0  0  0  0  0  0  0  0
   -2.1030   -0.3860    0.1390 C   0  0  0  0  0  0  0  0  0  0  0  0
   -1.9300    0.2290    1.1990 O   0  0  0  0  0  0  0  0  0  0  0  0
   -1.0970   -1.2340   -0.5350 C   0  0  2  0  0  0  0  0  0  0  0  0
   -1.6720   -2.6520   -0.5970 C   0  0  0  0  0  0  0  0  0  0  0  0
    0.1520   -1.3090    0.1380 N   0  0  0  0  0  0  0  0  0  0  0  0
    1.0220   -2.1740   -0.6480 C   0  0  0  0  0  0  0  0  0  0  0  0
    1.6390   -1.3230   -1.7350 C   0  0  0  0  0  0  0  0  0  0  0  0
    2.5440   -0.4080   -1.2240 O   0  0  0  0  0  0  0  0  0  0  0  0
    2.2930   -0.1540    0.1100 C   0  0  1  0  0  0  0  0  0  0  0  0
    2.9490    1.1010    0.5070 C   0  0  0  0  0  0  0  0  0  0  0  0
    2.9450    2.2540   -0.1810 N   0  0  0  0  0  0  0  0  0  0  0  0
    3.6450    3.1740    0.4890 N   0  0  0  0  0  0  0  0  0  0  0  0
    4.1020    2.6040    1.6170 C   0  0  0  0  0  0  0  0  0  0  0  0
    4.8060    3.1690    2.5040 O   0  0  0  0  0  0  0  0  0  0  0  0
    3.6650    1.3110    1.6230 N   0  0  0  0  0  0  0  0  0  0  0  0
    0.7910   -0.0570    0.3880 C   0  0  0  0  0  0  0  0  0  0  0  0
  1  2  1  0
  2  3  1  0
  3  4  1  0
  4  5  2  0
  4  6  1  0
  6  7  1  1
  6  8  1  0
  8  9  1  0
  8 19  1  0
  9 10  1  0
 10 11  1  0
 11 12  1  0
 12 13  1  6
 12 19  1  0
 13 14  2  0
 13 18  1  0
 14 15  1  0
 15 16  1  0
 16 17  2  0
 16 18  1  0
M  END
