
     RDKit          3D

 20 21  0  0  0  0  0  0  0  0999 V2000
   -4.0350    1.4640    0.0110 C   0  0  0  0  0  0  0  0  0  0  0  0
   -3.6690    0.7590    1.2780 C   0  0  0  0  0  0  0  0  0  0  0  0
   -3.0290   -0.5970    1.0040 C   0  0  1  0  0  0  0  0  0  0  0  0
   -3.9860   -1.4390    0.2560 C   0  0  0  0  0  0  0  0  0  0  0  0
   -5.1210   -1.6420    0.7660 O   0  0  0  0  0  0  0  0  0  0  0  0
   -3.6830   -2.0170   -0.9920 N   0  0  0  0  0  0  0  0  0  0  0  0
   -2.7350   -1.3900   -1.8710 C   0  0  0  0  0  0  0  0  0  0  0  0
   -1.8350   -0.4430   -1.1210 C   0  0  0  0  0  0  0  0  0  0  0  0
   -1.1270    0.3560   -1.7910 O   0  0  0  0  0  0  0  0  0  0  0  0
   -1.7730   -0.4340    0.2840 N   0  0  0  0  0  0  0  0  0  0  0  0
   -0.5460   -0.2700    0.9680 C   0  0  0  0  0  0  0  0  0  0  0  0
   -0.6050   -0.2590    2.2370 O   0  0  0  0  0  0  0  0  0  0  0  0
    0.7140   -0.1200    0.3690 N   0  0  0  0  0  0  0  0  0  0  0  0
    1.8850    0.0420    1.2160 C   0  0  0  0  0  0  0  0  0  0  0  0
    3.1050    0.1830    0.3960 C   0  0  0  0  0  0  0  0  0  0  0  0
    3.1430    0.1670   -0.8840 N   0  0  0  0  0  0  0  0  0  0  0  0
    4.4300    0.3230   -1.3160 O   0  0  0  0  0  0  0  0  0  0  0  0
    5.3030    0.1070   -0.2230 C   0  0  1  0  0  0  0  0  0  0  0  0
    6.4080    1.1310   -0.2010 C   0  0  0  0  0  0  0  0  0  0  0  0
    4.4140    0.3570    0.9080 N   0  0  0  0  0  0  0  0  0  0  0  0
  1  2  1  0
  3  2  1  6
  3  4  1  0
  3 10  1  0
  4  5  2  0
  4  6  1  0
  6  7  1  0
  7  8  1  0
  8  9  2  0
  8 10  1  0
 10 11  1  0
 11 12  2  0
 11 13  1  0
 13 14  1  0
 14 15  1  0
 15 16  2  0
 15 20  1  0
 16 17  1  0
 17 18  1  0
 18 19  1  6
 18 20  1  0
M  END
