
     RDKit          3D

 27 29  0  0  0  0  0  0  0  0999 V2000
   -6.9640   -2.7610    1.1960 C   0  0  0  0  0  0  0  0  0  0  0  0
   -6.3240   -1.5960    0.4430 C   0  0  1  0  0  0  0  0  0  0  0  0
   -6.8230   -1.6480   -0.9650 C   0  0  0  0  0  0  0  0  0  0  0  0
   -6.7660   -0.3350    1.1140 C   0  0  0  0  0  0  0  0  0  0  0  0
   -4.9410   -1.8010    0.4730 O   0  0  0  0  0  0  0  0  0  0  0  0
   -4.0000   -0.9900   -0.0850 C   0  0  0  0  0  0  0  0  0  0  0  0
   -4.3690    0.0420   -0.6890 O   0  0  0  0  0  0  0  0  0  0  0  0
   -2.5470   -1.2570   -0.0200 C   0  0  0  0  0  0  0  0  0  0  0  0
   -2.1670   -2.2830    0.5800 O   0  0  0  0  0  0  0  0  0  0  0  0
   -1.6030   -0.4040   -0.6050 N   0  0  0  0  0  0  0  0  0  0  0  0
   -0.1950   -0.5500   -0.6130 C   0  0  0  0  0  0  0  0  0  0  0  0
    0.5200   -1.5960   -0.1150 C   0  0  0  0  0  0  0  0  0  0  0  0
    1.8950   -1.6010   -0.1860 C   0  0  0  0  0  0  0  0  0  0  0  0
    2.6270   -0.5530   -0.7630 C   0  0  0  0  0  0  0  0  0  0  0  0
    4.0140   -0.6240   -0.8010 O   0  0  0  0  0  0  0  0  0  0  0  0
    4.8450    0.2980   -0.2020 C   0  0  0  0  0  0  0  0  0  0  0  0
    5.0940    0.1860    1.1730 C   0  0  0  0  0  0  0  0  0  0  0  0
    5.9190    1.0860    1.8100 C   0  0  0  0  0  0  0  0  0  0  0  0
    6.5350    2.1240    1.1600 C   0  0  0  0  0  0  0  0  0  0  0  0
    6.3000    2.2470   -0.1930 C   0  0  0  0  0  0  0  0  0  0  0  0
    5.4630    1.3390   -0.8550 C   0  0  0  0  0  0  0  0  0  0  0  0
    7.0250    3.3550   -0.6110 O   0  0  0  0  0  0  0  0  0  0  0  0
    7.9470    3.7490    0.3890 C   0  0  0  0  0  0  0  0  0  0  0  0
    7.3980    3.1560    1.5460 O   0  0  0  0  0  0  0  0  0  0  0  0
    1.9040    0.5000   -1.2650 C   0  0  0  0  0  0  0  0  0  0  0  0
    2.5880    1.5870   -1.8600 N   0  0  0  0  0  0  0  0  0  0  0  0
    0.5280    0.4890   -1.1860 C   0  0  0  0  0  0  0  0  0  0  0  0
  2  1  1  1
  2  3  1  0
  2  4  1  0
  2  5  1  0
  5  6  1  0
  6  7  2  0
  6  8  1  0
  8  9  2  0
  8 10  1  0
 10 11  1  0
 11 12  2  0
 11 27  1  0
 12 13  1  0
 13 14  2  0
 14 15  1  0
 14 25  1  0
 15 16  1  0
 16 17  2  0
 16 21  1  0
 17 18  1  0
 18 19  2  0
 19 20  1  0
 19 24  1  0
 20 21  2  0
 20 22  1  0
 22 23  1  0
 23 24  1  0
 25 26  1  0
 25 27  2  0
M  END
