
     RDKit          3D

 27 30  0  0  0  0  0  0  0  0999 V2000
   -5.4420   -1.9760    2.8970 C   0  0  0  0  0  0  0  0  0  0  0  0
   -4.3650   -2.8100    2.2660 C   0  0  0  0  0  0  0  0  0  0  0  0
   -3.3000   -2.0700    1.7260 O   0  0  0  0  0  0  0  0  0  0  0  0
   -3.4400   -1.1460    0.7070 C   0  0  0  0  0  0  0  0  0  0  0  0
   -4.6520   -0.8790    0.1250 C   0  0  0  0  0  0  0  0  0  0  0  0
   -4.8000    0.0450   -0.8980 C   0  0  0  0  0  0  0  0  0  0  0  0
   -3.6820    0.7080   -1.3340 C   0  0  0  0  0  0  0  0  0  0  0  0
   -2.4530    0.4280   -0.7350 C   0  0  0  0  0  0  0  0  0  0  0  0
   -2.2750   -0.4770    0.2760 C   0  0  0  0  0  0  0  0  0  0  0  0
   -1.0410   -0.7870    0.9110 N   0  0  0  0  0  0  0  0  0  0  0  0
    0.2180   -0.2330    0.6240 C   0  0  0  0  0  0  0  0  0  0  0  0
    0.3420    0.6230   -0.2630 O   0  0  0  0  0  0  0  0  0  0  0  0
    1.4570   -0.6440    1.3710 C   0  0  0  0  0  0  0  0  0  0  0  0
    2.6410    0.0890    0.8730 C   0  0  0  0  0  0  0  0  0  0  0  0
    3.2030    1.1360    1.5630 C   0  0  0  0  0  0  0  0  0  0  0  0
    4.3130    1.8050    1.0700 C   0  0  0  0  0  0  0  0  0  0  0  0
    4.8870    1.4410   -0.1270 C   0  0  0  0  0  0  0  0  0  0  0  0
    4.3330    0.3940   -0.8270 C   0  0  0  0  0  0  0  0  0  0  0  0
    3.2220   -0.2670   -0.3230 C   0  0  0  0  0  0  0  0  0  0  0  0
    2.6710   -1.3180   -1.0310 O   0  0  0  0  0  0  0  0  0  0  0  0
    4.9280    0.0430   -2.0310 O   0  0  0  0  0  0  0  0  0  0  0  0
    6.2820    0.3720   -2.2970 C   0  0  0  0  0  0  0  0  0  0  0  0
    6.4620    1.8330   -1.9720 C   0  0  0  0  0  0  0  0  0  0  0  0
    6.0320    2.1380   -0.6280 N   0  0  0  0  0  0  0  0  0  0  0  0
   -4.0670    1.5710   -2.3500 O   0  0  0  0  0  0  0  0  0  0  0  0
   -5.4830    1.7760   -2.2250 C   0  0  0  0  0  0  0  0  0  0  0  0
   -5.8660    0.5150   -1.6600 O   0  0  0  0  0  0  0  0  0  0  0  0
  1  2  1  0
  2  3  1  0
  3  4  1  0
  4  5  2  0
  4  9  1  0
  5  6  1  0
  6  7  2  0
  6 27  1  0
  7  8  1  0
  7 25  1  0
  8  9  2  0
  9 10  1  0
 10 11  1  0
 11 12  2  0
 11 13  1  0
 13 14  1  0
 14 15  2  0
 14 19  1  0
 15 16  1  0
 16 17  2  0
 17 18  1  0
 17 24  1  0
 18 19  2  0
 18 21  1  0
 19 20  1  0
 21 22  1  0
 22 23  1  0
 23 24  1  0
 25 26  1  0
 26 27  1  0
M  END
