
     RDKit          3D

 12 12  0  0  0  0  0  0  0  0999 V2000
    2.6270   -1.5490    0.7490 C   0  0  0  0  0  0  0  0  0  0  0  0
    2.6580   -0.1100   -0.2480 S   0  0  1  0  0  0  0  0  0  0  0  0
    3.0320    1.1760    0.5450 N   0  0  0  0  0  0  0  0  0  0  0  0
    4.0350   -0.2350   -1.2980 S   0  0  0  0  0  0  0  0  0  0  0  0
    1.2490    0.0920   -1.2670 C   0  0  0  0  0  0  0  0  0  0  0  0
   -0.0180    0.1910   -0.5500 C   0  0  0  0  0  0  0  0  0  0  0  0
   -0.6870    1.3140   -0.7390 C   0  0  0  0  0  0  0  0  0  0  0  0
   -2.0180    1.6640   -0.1180 C   0  0  0  0  0  0  0  0  0  0  0  0
   -2.9010    0.4760   -0.1880 C   0  0  0  0  0  0  0  0  0  0  0  0
   -2.7580   -0.5520    0.8490 C   0  0  0  0  0  0  0  0  0  0  0  0
   -1.4030   -0.9600    1.2640 C   0  0  0  0  0  0  0  0  0  0  0  0
   -0.3920   -0.9080    0.2590 N   0  0  0  0  0  0  0  0  0  0  0  0
  2  1  1  1
  2  3  2  0
  2  4  2  0
  2  5  1  0
  5  6  1  0
  6  7  2  0
  6 12  1  0
  7  8  1  0
  8  9  1  0
  9 10  1  0
 10 11  1  0
 11 12  1  0
M  CHG  1   3   1
M  END
