
     RDKit          3D

 31 34  0  0  0  0  0  0  0  0999 V2000
    8.5900    3.2350    0.4500 C   0  0  0  0  0  0  0  0  0  0  0  0
    7.7150    2.0570    0.1900 C   0  0  0  0  0  0  0  0  0  0  0  0
    7.7700    0.9650   -0.1240 N   0  0  0  0  0  0  0  0  0  0  0  0
    6.8740    0.0750   -0.3540 C   0  0  0  0  0  0  0  0  0  0  0  0
    7.1050   -1.3970   -0.6090 C   0  0  0  0  0  0  0  0  0  0  0  0
    5.5850    0.5400   -0.1850 C   0  0  0  0  0  0  0  0  0  0  0  0
    4.3200   -0.0440   -0.6100 C   0  0  0  0  0  0  0  0  0  0  0  0
    3.4040   -0.3860    0.4380 N   0  0  0  0  0  0  0  0  0  0  0  0
    2.0570   -0.6070    0.3690 C   0  0  0  0  0  0  0  0  0  0  0  0
    1.3170   -0.1520   -0.7240 N   0  0  0  0  0  0  0  0  0  0  0  0
   -0.0250   -0.3140   -0.7560 C   0  0  0  0  0  0  0  0  0  0  0  0
   -0.7810    0.1430   -1.8170 O   0  0  0  0  0  0  0  0  0  0  0  0
   -2.1900   -0.0440   -1.8610 C   0  0  0  0  0  0  0  0  0  0  0  0
   -2.5530   -1.5420   -1.8640 C   0  0  0  0  0  0  0  0  0  0  0  0
   -4.0160   -1.7030   -2.1760 C   0  0  0  0  0  0  0  0  0  0  0  0
   -4.8390   -0.9650   -1.2090 C   0  0  0  0  0  0  0  0  0  0  0  0
   -5.4080   -1.6700   -0.1440 C   0  0  0  0  0  0  0  0  0  0  0  0
   -6.2330   -0.9650    0.7530 C   0  0  0  0  0  0  0  0  0  0  0  0
   -6.4710    0.4110    0.5570 C   0  0  0  0  0  0  0  0  0  0  0  0
   -7.3010    1.1210    1.3800 C   0  0  0  0  0  0  0  0  0  0  0  0
   -7.6140    2.4540    1.2550 C   0  0  0  0  0  0  0  0  0  0  0  0
   -6.9750    3.0760    0.1540 C   0  0  0  0  0  0  0  0  0  0  0  0
   -6.1630    2.4130   -0.6650 C   0  0  0  0  0  0  0  0  0  0  0  0
   -5.8910    1.0630   -0.5020 C   0  0  0  0  0  0  0  0  0  0  0  0
   -5.1270    0.3670   -1.3110 N   0  0  0  0  0  0  0  0  0  0  0  0
   -0.6160   -0.9420    0.3000 N   0  0  0  0  0  0  0  0  0  0  0  0
    0.0280   -1.4070    1.3730 C   0  0  0  0  0  0  0  0  0  0  0  0
   -0.8160   -2.1870    2.6840 Cl  0  0  0  0  0  0  0  0  0  0  0  0
    1.4100   -1.2340    1.3990 C   0  0  0  0  0  0  0  0  0  0  0  0
    2.2760   -1.8600    2.4310 C   0  0  0  0  0  0  0  0  0  0  0  0
    5.8370    2.2950    0.3330 S   0  0  0  0  0  0  0  0  0  0  0  0
  1  2  1  0
  2  3  2  0
  2 31  1  0
  3  4  1  0
  4  5  1  0
  4  6  2  0
  6  7  1  0
  6 31  1  0
  7  8  1  0
  8  9  1  0
  9 10  2  0
  9 29  1  0
 10 11  1  0
 11 12  1  0
 11 26  2  0
 12 13  1  0
 13 14  1  0
 14 15  1  0
 15 16  1  0
 16 17  2  0
 16 25  1  0
 17 18  1  0
 18 19  2  0
 19 20  1  0
 19 24  1  0
 20 21  2  0
 21 22  1  0
 22 23  2  0
 23 24  1  0
 24 25  2  0
 26 27  1  0
 27 28  1  0
 27 29  2  0
 29 30  1  0
M  END
