
     RDKit          3D

 31 32  0  0  0  0  0  0  0  0999 V2000
    2.5470   -1.2730   -2.8480 C   0  0  0  0  0  0  0  0  0  0  0  0
    3.0330   -0.3120   -1.7560 C   0  0  1  0  0  0  0  0  0  0  0  0
    1.8020   -0.0390   -0.9810 N   0  0  0  0  0  0  0  0  0  0  0  0
    1.1330    1.1980   -1.0440 C   0  0  0  0  0  0  0  0  0  0  0  0
    1.5340    2.1160   -1.7450 O   0  0  0  0  0  0  0  0  0  0  0  0
   -0.1280    1.4060   -0.2210 C   0  0  1  0  0  0  0  0  0  0  0  0
   -0.5420    2.8270   -0.4880 C   0  0  0  0  0  0  0  0  0  0  0  0
   -1.1110    0.3550   -0.5510 C   0  0  0  0  0  0  0  0  0  0  0  0
   -2.3770    0.3460    0.1730 C   0  0  0  0  0  0  0  0  0  0  0  0
   -3.2240    1.5630    0.0030 C   0  0  0  0  0  0  0  0  0  0  0  0
   -4.4980    1.3130    0.7330 N   0  0  0  0  0  0  0  0  0  0  0  0
   -5.4030    0.3870    0.1840 C   0  0  0  0  0  0  0  0  0  0  0  0
   -5.2260   -0.0790   -1.1030 C   0  0  0  0  0  0  0  0  0  0  0  0
   -6.1150   -0.9610   -1.7060 C   0  0  0  0  0  0  0  0  0  0  0  0
   -7.1860   -1.3830   -1.0330 N   0  0  0  0  0  0  0  0  0  0  0  0
   -7.3850   -0.9510    0.2120 C   0  0  0  0  0  0  0  0  0  0  0  0
   -6.5020   -0.0550    0.8570 C   0  0  0  0  0  0  0  0  0  0  0  0
   -6.7820    0.3510    2.2180 C   0  0  0  0  0  0  0  0  0  0  0  0
   -7.9780   -0.1540    2.8640 N   0  0  0  0  0  0  0  0  0  0  0  0
   -6.0820    1.1020    2.8890 O   0  0  0  0  0  0  0  0  0  0  0  0
    0.2870    1.3110    1.2000 C   0  0  0  0  0  0  0  0  0  0  0  0
    0.8710    0.1420    1.7480 N   0  0  0  0  0  0  0  0  0  0  0  0
    0.1350    2.2880    2.0060 O   0  0  0  0  0  0  0  0  0  0  0  0
    4.1660   -0.7180   -0.9610 C   0  0  0  0  0  0  0  0  0  0  0  0
    3.8610   -0.7960    0.2130 O   0  0  0  0  0  0  0  0  0  0  0  0
    5.4590   -1.0890   -0.7410 N   0  0  1  0  0  0  0  0  0  0  0  0
    6.3280   -0.0940   -0.2090 C   0  0  0  0  0  0  0  0  0  0  0  0
    5.8230    0.5290    1.0360 C   0  0  0  0  0  0  0  0  0  0  0  0
    5.7980   -0.5040    2.1160 C   0  0  0  0  0  0  0  0  0  0  0  0
    5.4290   -1.8750    1.6440 C   0  0  0  0  0  0  0  0  0  0  0  0
    5.7100   -2.2000    0.2450 C   0  0  0  0  0  0  0  0  0  0  0  0
  2  1  1  6
  2  3  1  0
  2 24  1  0
  3  4  1  0
  4  5  2  0
  4  6  1  0
  6  7  1  1
  6  8  1  0
  6 21  1  0
  8  9  1  0
  9 10  1  0
 10 11  1  0
 11 12  1  0
 12 13  2  0
 12 17  1  0
 13 14  1  0
 14 15  2  0
 15 16  1  0
 16 17  2  0
 17 18  1  0
 18 19  1  0
 18 20  2  0
 21 22  1  0
 21 23  2  0
 24 25  2  0
 26 24  1  1
 26 27  1  0
 26 31  1  0
 27 28  1  0
 28 29  1  0
 29 30  1  0
 30 31  1  0
M  CHG  2  15   1  26   1
M  END
