
     RDKit          3D

 31 32  0  0  0  0  0  0  0  0999 V2000
    8.0990   -1.0700   -2.5230 N   0  0  0  0  0  0  0  0  0  0  0  0
    9.0760   -1.6400   -1.6710 C   0  0  0  0  0  0  0  0  0  0  0  0
   10.2480   -1.9050   -2.0730 O   0  0  0  0  0  0  0  0  0  0  0  0
    8.7800   -1.9610   -0.2530 C   0  0  0  0  0  0  0  0  0  0  0  0
    7.4010   -1.6020    0.0630 N   0  0  0  0  0  0  0  0  0  0  0  0
    6.9690   -0.2580   -0.0730 C   0  0  0  0  0  0  0  0  0  0  0  0
    7.7760    0.6070   -0.4620 O   0  0  0  0  0  0  0  0  0  0  0  0
    5.5770    0.1500    0.2370 C   0  0  1  0  0  0  0  0  0  0  0  0
    4.5960   -0.6010   -0.6470 C   0  0  0  0  0  0  0  0  0  0  0  0
    3.5150   -1.2830    0.1360 C   0  0  0  0  0  0  0  0  0  0  0  0
    3.0010   -0.3820    1.1210 N   0  0  0  0  0  0  0  0  0  0  0  0
    1.6130   -0.0190    1.1890 C   0  0  0  0  0  0  0  0  0  0  0  0
    0.7900   -0.5010    0.3580 O   0  0  0  0  0  0  0  0  0  0  0  0
    1.1260    0.8770    2.1760 N   0  0  0  0  0  0  0  0  0  0  0  0
   -0.2490    1.2880    2.3060 C   0  0  0  0  0  0  0  0  0  0  0  0
   -0.7660    1.9970    1.0570 C   0  0  0  0  0  0  0  0  0  0  0  0
   -2.0880    2.3770    1.2180 O   0  0  0  0  0  0  0  0  0  0  0  0
   -2.5540    3.0330    0.1210 C   0  0  0  0  0  0  0  0  0  0  0  0
   -2.5340    2.2610   -1.1500 C   0  0  0  0  0  0  0  0  0  0  0  0
   -3.3180    1.0480   -1.1160 N   0  0  0  0  0  0  0  0  0  0  0  0
   -4.6080    1.1870   -0.5140 C   0  0  1  0  0  0  0  0  0  0  0  0
   -5.6220    1.7730   -1.4740 C   0  0  0  0  0  0  0  0  0  0  0  0
   -5.7750    0.9290   -2.7140 C   0  0  0  0  0  0  0  0  0  0  0  0
   -5.8920   -0.5320   -2.4590 C   0  0  0  0  0  0  0  0  0  0  0  0
   -4.9710   -1.0500   -1.3800 C   0  0  0  0  0  0  0  0  0  0  0  0
   -5.1180   -0.1940   -0.1580 C   0  0  1  0  0  0  0  0  0  0  0  0
   -4.4370   -0.7450    1.0630 C   0  0  0  0  0  0  0  0  0  0  0  0
   -4.9280   -2.1140    1.4350 C   0  0  0  0  0  0  0  0  0  0  0  0
   -6.3490   -2.1300    1.7200 N   0  0  0  0  0  0  0  0  0  0  0  0
    3.8970    0.1890    2.0850 C   0  0  0  0  0  0  0  0  0  0  0  0
    5.3330   -0.1250    1.7070 C   0  0  0  0  0  0  0  0  0  0  0  0
  1  2  1  0
  2  3  2  0
  2  4  1  0
  4  5  1  0
  5  6  1  0
  6  7  2  0
  8  6  1  6
  8  9  1  0
  8 31  1  0
  9 10  1  0
 10 11  1  0
 11 12  1  0
 11 30  1  0
 12 13  2  0
 12 14  1  0
 14 15  1  0
 15 16  1  0
 16 17  1  0
 17 18  1  0
 18 19  1  0
 19 20  1  0
 21 20  1  6
 21 22  1  0
 21 26  1  0
 22 23  1  0
 23 24  1  0
 24 25  1  0
 25 26  1  0
 26 27  1  1
 27 28  1  0
 28 29  1  0
 30 31  1  0
M  CHG  2  20   1  29   1
M  END
