
     RDKit          3D

 28 30  0  0  0  0  0  0  0  0999 V2000
   -3.9440   -0.9610   -1.6130 N   0  0  0  0  0  0  0  0  0  0  0  0
   -4.0690   -1.7710   -0.4540 C   0  0  0  0  0  0  0  0  0  0  0  0
   -4.7920   -2.7890   -0.5400 O   0  0  0  0  0  0  0  0  0  0  0  0
   -3.3660   -1.3870    0.7580 C   0  0  2  0  0  0  0  0  0  0  0  0
   -2.6230   -0.2400    0.6620 O   0  0  0  0  0  0  0  0  0  0  0  0
   -1.3810   -0.4870    1.2900 C   0  0  2  0  0  0  0  0  0  0  0  0
   -1.0560    0.6600    2.1820 C   0  0  0  0  0  0  0  0  0  0  0  0
   -0.6560    1.7970    1.5480 O   0  0  0  0  0  0  0  0  0  0  0  0
   -1.6550    2.7260    1.2810 C   0  0  0  0  0  0  0  0  0  0  0  0
   -1.0090    3.7110    0.2890 C   0  0  0  0  0  0  0  0  0  0  0  0
    0.3540    3.7680    0.4930 O   0  0  0  0  0  0  0  0  0  0  0  0
    0.9860    3.1810   -0.5520 O   0  0  0  0  0  0  0  0  0  0  0  0
    2.2690    2.6610   -0.5010 C   0  0  0  0  0  0  0  0  0  0  0  0
    2.5360    1.3920   -0.1390 C   0  0  0  0  0  0  0  0  0  0  0  0
    3.9060    1.0010   -0.1310 N   0  0  0  0  0  0  0  0  0  0  0  0
    4.4210   -0.0430   -0.9330 C   0  0  0  0  0  0  0  0  0  0  0  0
    3.6580   -0.6760   -1.7010 O   0  0  0  0  0  0  0  0  0  0  0  0
    5.7690   -0.3870   -0.8890 O   0  0  0  0  0  0  0  0  0  0  0  0
    6.3040   -1.3590   -1.6200 O   0  0  0  0  0  0  0  0  0  0  0  0
    6.7120   -2.2920   -0.7650 O   0  0  0  0  0  0  0  0  0  0  0  0
    5.6100   -2.7320   -0.1520 O   0  0  0  0  0  0  0  0  0  0  0  0
    1.5640    0.4970    0.2110 O   0  0  0  0  0  0  0  0  0  0  0  0
    0.3510    0.2250   -0.4190 C   0  0  0  0  0  0  0  0  0  0  0  0
   -0.3410   -0.8930    0.3170 C   0  0  2  0  0  0  0  0  0  0  0  0
   -0.9540   -1.7890   -0.5930 O   0  0  0  0  0  0  0  0  0  0  0  0
   -1.4160   -2.8550    0.1750 C   0  0  0  0  0  0  0  0  0  0  0  0
   -2.3700   -2.3990    1.2520 C   0  0  1  0  0  0  0  0  0  0  0  0
   -1.6190   -1.6090    2.1240 O   0  0  0  0  0  0  0  0  0  0  0  0
  1  2  1  0
  2  3  2  0
  4  2  1  6
  4  5  1  0
  4 27  1  0
  5  6  1  0
  6  7  1  1
  6 24  1  0
  6 28  1  0
  7  8  1  0
  8  9  1  0
  9 10  1  0
 10 11  1  0
 11 12  1  0
 12 13  1  0
 13 14  2  0
 14 15  1  0
 14 22  1  0
 15 16  1  0
 16 17  2  0
 16 18  1  0
 18 19  1  0
 19 20  1  0
 20 21  1  0
 22 23  1  0
 24 23  1  6
 24 25  1  0
 25 26  1  0
 27 26  1  6
 27 28  1  0
M  END
