
     RDKit          3D

 28 29  0  0  0  0  0  0  0  0999 V2000
    4.1200    1.2930    0.0090 O   0  0  0  0  0  0  0  0  0  0  0  0
    3.7090    0.1560    0.3370 C   0  0  0  0  0  0  0  0  0  0  0  0
    2.2890   -0.0760    0.7910 C   0  0  0  0  0  0  0  0  0  0  0  0
    1.5560    1.2450    0.7500 C   0  0  1  0  0  0  0  0  0  0  0  0
    1.5330    1.7600   -0.5100 O   0  0  0  0  0  0  0  0  0  0  0  0
    1.4780    1.3780   -1.7800 C   0  0  0  0  0  0  0  0  0  0  0  0
    2.4790    1.4520   -2.6090 O   0  0  0  0  0  0  0  0  0  0  0  0
    0.3090    0.8450   -2.3800 N   0  0  0  0  0  0  0  0  0  0  0  0
   -0.4990   -0.2440   -1.8780 C   0  0  0  0  0  0  0  0  0  0  0  0
   -1.9780    0.0800   -1.9250 C   0  0  1  0  0  0  0  0  0  0  0  0
   -2.6410   -1.1090   -1.6510 O   0  0  0  0  0  0  0  0  0  0  0  0
   -3.1030   -1.0640   -0.3580 C   0  0  1  0  0  0  0  0  0  0  0  0
   -2.2600   -1.8640    0.6110 C   0  0  0  0  0  0  0  0  0  0  0  0
   -1.9460   -1.1900    1.7640 O   0  0  0  0  0  0  0  0  0  0  0  0
   -0.5570   -1.1140    2.0110 C   0  0  0  0  0  0  0  0  0  0  0  0
   -0.2410    0.2090    2.2310 O   0  0  0  0  0  0  0  0  0  0  0  0
    0.2340    1.1960    1.4520 C   0  0  0  0  0  0  0  0  0  0  0  0
   -0.5160    2.2270    1.2760 O   0  0  0  0  0  0  0  0  0  0  0  0
   -3.1670    0.3920   -0.0430 C   0  0  2  0  0  0  0  0  0  0  0  0
   -4.5410    0.9400   -0.3440 C   0  0  0  0  0  0  0  0  0  0  0  0
   -5.5070    0.4080    0.5110 O   0  0  0  0  0  0  0  0  0  0  0  0
   -6.6890    0.8740    0.2590 O   0  0  0  0  0  0  0  0  0  0  0  0
   -7.3910    0.8340    1.3700 O   0  0  0  0  0  0  0  0  0  0  0  0
   -2.2830    0.9680   -0.9290 O   0  0  0  0  0  0  0  0  0  0  0  0
    4.6150   -0.9300    0.2750 N   0  0  0  0  0  0  0  0  0  0  0  0
    5.9850   -0.8040   -0.1440 C   0  0  0  0  0  0  0  0  0  0  0  0
    6.7090    0.0690    0.6660 O   0  0  0  0  0  0  0  0  0  0  0  0
    7.9410    0.1680    0.2710 O   0  0  0  0  0  0  0  0  0  0  0  0
  1  2  2  0
  2  3  1  0
  2 25  1  0
  4  3  1  6
  4  5  1  0
  4 17  1  0
  5  6  1  0
  6  7  2  0
  6  8  1  0
  8  9  1  0
 10  9  1  1
 10 11  1  0
 10 24  1  0
 11 12  1  0
 12 13  1  1
 12 19  1  0
 13 14  1  0
 14 15  1  0
 15 16  1  0
 16 17  1  0
 17 18  2  0
 19 20  1  6
 19 24  1  0
 20 21  1  0
 21 22  1  0
 22 23  1  0
 25 26  1  0
 26 27  1  0
 27 28  1  0
M  END
