
     RDKit          3D

 30 32  0  0  0  0  0  0  0  0999 V2000
    2.9830   -2.9230   -0.7950 C   0  0  0  0  0  0  0  0  0  0  0  0
    3.7810   -1.8140   -1.2940 C   0  0  0  0  0  0  0  0  0  0  0  0
    3.3320   -0.5800   -1.4240 C   0  0  0  0  0  0  0  0  0  0  0  0
    1.9580   -0.2960   -1.0470 C   0  0  0  0  0  0  0  0  0  0  0  0
    1.4300    0.8520   -1.1330 O   0  0  0  0  0  0  0  0  0  0  0  0
    1.1300   -1.2920   -0.5630 O   0  0  0  0  0  0  0  0  0  0  0  0
   -0.1680   -1.0390   -0.2040 C   0  0  0  0  0  0  0  0  0  0  0  0
   -1.1720   -1.1550   -1.1260 C   0  0  0  0  0  0  0  0  0  0  0  0
   -2.4900   -0.9010   -0.7740 C   0  0  0  0  0  0  0  0  0  0  0  0
   -2.8380   -0.5220    0.5150 C   0  0  0  0  0  0  0  0  0  0  0  0
   -4.2270   -0.2470    0.8810 C   0  0  0  0  0  0  0  0  0  0  0  0
   -4.5950    0.8740    1.5780 C   0  0  0  0  0  0  0  0  0  0  0  0
   -5.8900    1.1030    1.9100 C   0  0  0  0  0  0  0  0  0  0  0  0
   -6.8560    0.1960    1.5400 C   0  0  0  0  0  0  0  0  0  0  0  0
   -8.1610    0.4500    1.8870 O   0  0  0  0  0  0  0  0  0  0  0  0
   -6.5150   -0.9390    0.8380 C   0  0  0  0  0  0  0  0  0  0  0  0
   -5.1930   -1.1490    0.5130 C   0  0  0  0  0  0  0  0  0  0  0  0
   -1.8000   -0.4120    1.4280 C   0  0  0  0  0  0  0  0  0  0  0  0
   -1.7920   -0.0700    2.7570 C   0  0  0  0  0  0  0  0  0  0  0  0
   -0.5610   -0.1120    3.1840 O   0  0  0  0  0  0  0  0  0  0  0  0
    0.2650   -0.4590    2.2360 C   0  0  0  0  0  0  0  0  0  0  0  0
   -0.4690   -0.6680    1.0760 C   0  0  0  0  0  0  0  0  0  0  0  0
    4.2460    0.4320   -1.9390 C   0  0  0  0  0  0  0  0  0  0  0  0
    3.9420    1.6730   -2.1160 C   0  0  0  0  0  0  0  0  0  0  0  0
    4.8810    2.6010   -2.6210 O   0  0  0  0  0  0  0  0  0  0  0  0
    5.8350    3.5480   -1.4690 P   0  0  0  0  0  0  0  0  0  0  0  0
    6.6250    4.8070   -2.3260 O   0  0  0  0  0  0  0  0  0  0  0  0
    6.9200    2.4910   -0.6610 O   0  0  0  0  0  0  0  0  0  0  0  0
    5.9670   -0.1320   -2.3640 P   0  0  0  0  0  0  0  0  0  0  0  0
    6.7870   -0.7200   -1.1770 O   0  0  0  0  0  0  0  0  0  0  0  0
  1  2  1  0
  2  3  2  3
  3  4  1  0
  3 23  1  0
  4  5  2  0
  4  6  1  0
  6  7  1  0
  7  8  2  0
  7 22  1  0
  8  9  1  0
  9 10  2  0
 10 11  1  0
 10 18  1  0
 11 12  2  0
 11 17  1  0
 12 13  1  0
 13 14  2  0
 14 15  1  0
 14 16  1  0
 16 17  2  0
 18 19  2  0
 18 22  1  0
 19 20  1  0
 20 21  1  0
 21 22  2  0
 23 24  2  3
 23 29  1  0
 24 25  1  0
 25 26  1  0
 26 27  1  0
 26 28  1  0
 29 30  2  0
M  END
