
     RDKit          3D

 28 29  0  0  0  0  0  0  0  0999 V2000
   -4.0550    3.6170    0.3000 O   0  0  0  0  0  0  0  0  0  0  0  0
   -3.2120    4.5360    0.5790 C   0  0  0  0  0  0  0  0  0  0  0  0
   -3.7080    5.8020    0.7180 O   0  0  0  0  0  0  0  0  0  0  0  0
   -1.8650    4.2120    0.7230 O   0  0  0  0  0  0  0  0  0  0  0  0
   -1.5170    2.8300    0.5420 C   0  0  0  0  0  0  0  0  0  0  0  0
   -0.0270    2.6370    0.7290 C   0  0  2  0  0  0  0  0  0  0  0  0
    0.6750    3.4550   -0.3290 C   0  0  0  0  0  0  0  0  0  0  0  0
    0.9120    2.6470   -1.4100 O   0  0  0  0  0  0  0  0  0  0  0  0
    0.0120    1.7360   -1.6120 O   0  0  0  0  0  0  0  0  0  0  0  0
    0.1280    0.7650   -0.6540 C   0  0  2  0  0  0  0  0  0  0  0  0
    1.2670   -0.1550   -1.1060 C   0  0  0  0  0  0  0  0  0  0  0  0
    2.4500    0.5390   -1.2240 O   0  0  0  0  0  0  0  0  0  0  0  0
    3.4550   -0.2690   -1.6840 C   0  0  0  0  0  0  0  0  0  0  0  0
    3.7240   -1.4060   -0.7620 C   0  0  0  0  0  0  0  0  0  0  0  0
    4.7790   -2.1410   -1.3430 O   0  0  0  0  0  0  0  0  0  0  0  0
    5.0250   -3.1390   -0.5460 O   0  0  0  0  0  0  0  0  0  0  0  0
    5.0120   -2.7340    0.6860 O   0  0  0  0  0  0  0  0  0  0  0  0
    6.2040   -2.9660    1.2110 O   0  0  0  0  0  0  0  0  0  0  0  0
   -1.0660   -0.1190   -0.5500 C   0  0  0  0  0  0  0  0  0  0  0  0
   -2.0870   -0.0190   -1.2520 O   0  0  0  0  0  0  0  0  0  0  0  0
   -1.0400   -1.1560    0.4240 N   0  0  0  0  0  0  0  0  0  0  0  0
   -2.1170   -2.0660    0.6220 C   0  0  0  0  0  0  0  0  0  0  0  0
   -1.9960   -3.3660    0.4820 C   0  0  0  0  0  0  0  0  0  0  0  0
   -3.0950   -4.3430    0.6810 C   0  0  0  0  0  0  0  0  0  0  0  0
   -4.2780   -3.6960    1.0370 O   0  0  0  0  0  0  0  0  0  0  0  0
   -4.4140   -2.3320    1.1860 C   0  0  0  0  0  0  0  0  0  0  0  0
   -3.4030   -1.5560    0.9930 N   0  0  0  0  0  0  0  0  0  0  0  0
    0.3670    1.3190    0.5710 O   0  0  0  0  0  0  0  0  0  0  0  0
  1  2  2  0
  2  3  1  0
  2  4  1  0
  4  5  1  0
  6  5  1  6
  6  7  1  0
  6 28  1  0
  7  8  1  0
  8  9  1  0
  9 10  1  0
 10 11  1  6
 10 19  1  0
 10 28  1  0
 11 12  1  0
 12 13  1  0
 13 14  1  0
 14 15  1  0
 15 16  1  0
 16 17  1  0
 17 18  1  0
 19 20  2  0
 19 21  1  0
 21 22  1  0
 22 23  2  0
 22 27  1  0
 23 24  1  0
 24 25  1  0
 25 26  1  0
 26 27  2  0
M  END
