
     RDKit          3D

 28 29  0  0  0  0  0  0  0  0999 V2000
    1.7640   -3.1670    0.7780 O   0  0  0  0  0  0  0  0  0  0  0  0
    1.3830   -2.0550    1.2790 C   0  0  0  0  0  0  0  0  0  0  0  0
    2.4260   -1.0010    1.3640 C   0  0  0  0  0  0  0  0  0  0  0  0
    3.0010   -0.8490    0.1080 O   0  0  0  0  0  0  0  0  0  0  0  0
    4.0380    0.0350    0.1370 C   0  0  2  0  0  0  0  0  0  0  0  0
    5.1440   -0.3780    0.8300 O   0  0  0  0  0  0  0  0  0  0  0  0
    3.6340    1.4910    0.3010 C   0  0  0  0  0  0  0  0  0  0  0  0
    3.5330    1.6710   -1.1040 N   0  0  0  0  0  0  0  0  0  0  0  0
    4.3060    0.5100   -1.2960 C   0  0  0  0  0  0  0  0  0  0  0  0
    2.8990    2.5970   -1.8960 C   0  0  0  0  0  0  0  0  0  0  0  0
    3.4330    3.6310   -2.4580 O   0  0  0  0  0  0  0  0  0  0  0  0
    1.5090    2.3800   -2.1080 O   0  0  0  0  0  0  0  0  0  0  0  0
    0.5700    2.3830   -1.1680 O   0  0  0  0  0  0  0  0  0  0  0  0
    0.0730    1.3860   -0.3950 C   0  0  0  0  0  0  0  0  0  0  0  0
   -0.1040    1.5400    0.8510 O   0  0  0  0  0  0  0  0  0  0  0  0
   -0.2910    0.0640   -0.9640 C   0  0  0  0  0  0  0  0  0  0  0  0
   -1.2810   -0.7060   -0.1560 C   0  0  2  0  0  0  0  0  0  0  0  0
   -1.5760   -1.9840   -0.9290 C   0  0  0  0  0  0  0  0  0  0  0  0
   -2.0980   -1.7300   -2.1740 O   0  0  0  0  0  0  0  0  0  0  0  0
   -2.5790    0.0820   -0.1750 C   0  0  0  0  0  0  0  0  0  0  0  0
   -3.5750   -0.5510    0.5530 O   0  0  0  0  0  0  0  0  0  0  0  0
   -4.7160    0.2210    0.4890 C   0  0  0  0  0  0  0  0  0  0  0  0
   -5.7140   -0.4230    1.2240 O   0  0  0  0  0  0  0  0  0  0  0  0
   -6.8320    0.2730    1.1960 O   0  0  0  0  0  0  0  0  0  0  0  0
   -6.4850    1.5430    1.1240 O   0  0  0  0  0  0  0  0  0  0  0  0
   -0.9040   -0.9650    1.2400 C   0  0  0  0  0  0  0  0  0  0  0  0
   -1.4590   -0.2690    2.1780 O   0  0  0  0  0  0  0  0  0  0  0  0
    0.0360   -1.9320    1.6980 N   0  0  0  0  0  0  0  0  0  0  0  0
  1  2  2  0
  2  3  1  0
  2 28  1  0
  3  4  1  0
  4  5  1  0
  5  6  1  1
  5  7  1  0
  5  9  1  0
  7  8  1  0
  8  9  1  0
  8 10  1  0
 10 11  2  0
 10 12  1  0
 12 13  1  0
 13 14  1  0
 14 15  2  0
 14 16  1  0
 16 17  1  0
 17 18  1  6
 17 20  1  0
 17 26  1  0
 18 19  1  0
 20 21  1  0
 21 22  1  0
 22 23  1  0
 23 24  1  0
 24 25  1  0
 26 27  2  0
 26 28  1  0
M  END
