
     RDKit          3D

 28 29  0  0  0  0  0  0  0  0999 V2000
    0.5640   -1.5270    3.4690 O   0  0  0  0  0  0  0  0  0  0  0  0
    0.7350   -1.2770    2.2350 C   0  0  0  0  0  0  0  0  0  0  0  0
    0.6370   -2.3590    1.3730 O   0  0  0  0  0  0  0  0  0  0  0  0
    1.0260    0.1080    1.7600 C   0  0  0  0  0  0  0  0  0  0  0  0
    1.1080    0.0910    0.3310 N   0  0  0  0  0  0  0  0  0  0  0  0
    2.4080   -0.1250   -0.2100 C   0  0  0  0  0  0  0  0  0  0  0  0
    2.5300   -0.1480   -1.4580 O   0  0  0  0  0  0  0  0  0  0  0  0
    3.6130   -0.3230    0.6040 C   0  0  0  0  0  0  0  0  0  0  0  0
    4.8450   -0.5310   -0.2500 C   0  0  0  0  0  0  0  0  0  0  0  0
    5.0470    0.6010   -1.0700 O   0  0  0  0  0  0  0  0  0  0  0  0
    6.1100    0.4310   -1.8130 O   0  0  0  0  0  0  0  0  0  0  0  0
    7.2270    0.4080   -1.0990 O   0  0  0  0  0  0  0  0  0  0  0  0
    0.0000    0.2490   -0.4970 C   0  0  0  0  0  0  0  0  0  0  0  0
    0.2950    0.2480   -1.7830 O   0  0  0  0  0  0  0  0  0  0  0  0
   -1.4160    0.4100   -0.2610 C   0  0  2  0  0  0  0  0  0  0  0  0
   -1.8900    0.9970    1.0080 C   0  0  0  0  0  0  0  0  0  0  0  0
   -3.3360    1.0770    1.0200 N   0  0  0  0  0  0  0  0  0  0  0  0
   -4.3250    0.1260    1.5040 C   0  0  0  0  0  0  0  0  0  0  0  0
   -5.4270    0.3500    0.6990 O   0  0  0  0  0  0  0  0  0  0  0  0
   -5.3120    1.5570    0.1400 O   0  0  0  0  0  0  0  0  0  0  0  0
   -4.1130    2.1720    0.5530 C   0  0  0  0  0  0  0  0  0  0  0  0
   -3.8420    3.3970    0.5030 O   0  0  0  0  0  0  0  0  0  0  0  0
   -2.0650   -0.9820   -0.4070 C   0  0  0  0  0  0  0  0  0  0  0  0
   -1.5350   -1.4850   -1.6150 O   0  0  0  0  0  0  0  0  0  0  0  0
   -2.3190   -0.9320   -2.6540 C   0  0  0  0  0  0  0  0  0  0  0  0
   -2.7310    0.3920   -2.3180 O   0  0  0  0  0  0  0  0  0  0  0  0
   -2.0160    1.1670   -1.4270 C   0  0  0  0  0  0  0  0  0  0  0  0
   -1.8680    2.3640   -1.5570 O   0  0  0  0  0  0  0  0  0  0  0  0
  1  2  2  0
  2  3  1  0
  2  4  1  0
  4  5  1  0
  5  6  1  0
  5 13  1  0
  6  7  2  0
  6  8  1  0
  8  9  1  0
  9 10  1  0
 10 11  1  0
 11 12  1  0
 13 14  2  0
 13 15  1  0
 15 16  1  1
 15 23  1  0
 15 27  1  0
 16 17  1  0
 17 18  1  0
 17 21  1  0
 18 19  1  0
 19 20  1  0
 20 21  1  0
 21 22  2  0
 23 24  1  0
 24 25  1  0
 25 26  1  0
 26 27  1  0
 27 28  2  0
M  END
