
     RDKit          3D

 28 29  0  0  0  0  0  0  0  0999 V2000
   -4.6580   -0.3020    3.5600 O   0  0  0  0  0  0  0  0  0  0  0  0
   -5.4710    0.5620    3.1510 C   0  0  0  0  0  0  0  0  0  0  0  0
   -6.0640    1.4850    4.0320 O   0  0  0  0  0  0  0  0  0  0  0  0
   -5.7620    0.5690    1.7960 O   0  0  0  0  0  0  0  0  0  0  0  0
   -5.1690   -0.3510    0.9100 C   0  0  0  0  0  0  0  0  0  0  0  0
   -3.7020   -0.1490    0.9350 C   0  0  0  0  0  0  0  0  0  0  0  0
   -3.2150    0.7530    1.6600 O   0  0  0  0  0  0  0  0  0  0  0  0
   -2.8270   -0.9290    0.1740 O   0  0  0  0  0  0  0  0  0  0  0  0
   -1.4310   -0.6490    0.2730 C   0  0  1  0  0  0  0  0  0  0  0  0
   -0.8560   -1.8890    0.9820 C   0  0  0  0  0  0  0  0  0  0  0  0
    0.5040   -1.6770    1.1920 O   0  0  0  0  0  0  0  0  0  0  0  0
    1.2850   -1.1230    0.1910 C   0  0  0  0  0  0  0  0  0  0  0  0
    2.7440   -1.1540    0.3710 C   0  0  0  0  0  0  0  0  0  0  0  0
    3.4390   -0.5620   -0.7120 O   0  0  0  0  0  0  0  0  0  0  0  0
    4.8210   -0.4950   -0.7250 C   0  0  0  0  0  0  0  0  0  0  0  0
    5.4360   -0.9740    0.2480 O   0  0  0  0  0  0  0  0  0  0  0  0
    5.5530    0.0690   -1.7510 O   0  0  0  0  0  0  0  0  0  0  0  0
    6.9880    0.1140   -1.7170 C   0  0  0  0  0  0  0  0  0  0  0  0
    7.2920    0.8600   -0.5560 O   0  0  0  0  0  0  0  0  0  0  0  0
    8.5780    0.9870   -0.3900 O   0  0  0  0  0  0  0  0  0  0  0  0
    0.6910   -0.6190   -0.8290 N   0  0  0  0  0  0  0  0  0  0  0  0
   -0.7400   -0.5730   -1.0380 C   0  0  2  0  0  0  0  0  0  0  0  0
   -1.0160    0.6680   -1.8460 C   0  0  1  0  0  0  0  0  0  0  0  0
   -2.4290    0.8970   -2.2130 C   0  0  0  0  0  0  0  0  0  0  0  0
   -2.8760    1.9300   -1.4040 O   0  0  0  0  0  0  0  0  0  0  0  0
   -1.7620    2.6700   -0.9890 C   0  0  0  0  0  0  0  0  0  0  0  0
   -1.7930    3.8660   -0.5990 O   0  0  0  0  0  0  0  0  0  0  0  0
   -0.6250    1.8250   -1.0920 N   0  0  0  0  0  0  0  0  0  0  0  0
  1  2  2  0
  2  3  1  0
  2  4  1  0
  4  5  1  0
  5  6  1  0
  6  7  2  0
  6  8  1  0
  9  8  1  6
  9 10  1  0
  9 22  1  0
 10 11  1  0
 11 12  1  0
 12 13  1  0
 12 21  2  0
 13 14  1  0
 14 15  1  0
 15 16  2  0
 15 17  1  0
 17 18  1  0
 18 19  1  0
 19 20  1  0
 22 21  1  1
 22 23  1  0
 23 24  1  1
 23 28  1  0
 24 25  1  0
 25 26  1  0
 26 27  2  0
 26 28  1  0
M  END
