
     RDKit          3D

 10  9  0  0  0  0  0  0  0  0999 V2000
   -2.2240    0.9520    1.4220 O   0  0  0  0  0  0  0  0  0  0  0  0
   -2.3710    0.5320    0.2490 C   0  0  0  0  0  0  0  0  0  0  0  0
   -3.6400    0.5730   -0.2980 O   0  0  0  0  0  0  0  0  0  0  0  0
   -1.1880    0.0200   -0.4820 C   0  0  0  0  0  0  0  0  0  0  0  0
    0.0630    0.0940    0.3540 C   0  0  0  0  0  0  0  0  0  0  0  0
    1.2360   -0.4200   -0.3850 C   0  0  0  0  0  0  0  0  0  0  0  0
    1.0470   -0.8290   -1.5530 O   0  0  0  0  0  0  0  0  0  0  0  0
    2.5710   -0.4700    0.1700 C   0  0  0  0  0  0  0  0  0  0  0  0
    2.7890   -0.0660    1.3410 O   0  0  0  0  0  0  0  0  0  0  0  0
    3.6300   -0.9640   -0.5760 O   0  0  0  0  0  0  0  0  0  0  0  0
  1  2  2  0
  2  3  1  0
  2  4  1  0
  4  5  1  0
  5  6  1  0
  6  7  2  0
  6  8  1  0
  8  9  2  0
  8 10  1  0
M  END
