
     RDKit          3D

 10 10  0  0  0  0  0  0  0  0999 V2000
   -1.5200    0.5630   -0.8260 N   0  0  0  0  0  0  0  0  0  0  0  0
   -1.0820   -0.2850    0.2980 C   0  0  1  0  0  0  0  0  0  0  0  0
   -0.2010   -1.3520   -0.1620 C   0  0  0  0  0  0  0  0  0  0  0  0
    1.1680   -1.0460   -0.4010 N   0  0  0  0  0  0  0  0  0  0  0  0
    1.7730    0.2300   -0.5490 C   0  0  0  0  0  0  0  0  0  0  0  0
    2.8390    0.3040   -1.2430 O   0  0  0  0  0  0  0  0  0  0  0  0
    1.2640    1.4670    0.0350 C   0  0  0  0  0  0  0  0  0  0  0  0
    1.8890    2.4920   -0.3650 O   0  0  0  0  0  0  0  0  0  0  0  0
    0.2210    1.6630    0.9410 O   0  0  0  0  0  0  0  0  0  0  0  0
   -0.6280    0.6140    1.3780 C   0  0  0  0  0  0  0  0  0  0  0  0
  2  1  1  6
  2  3  1  0
  2 10  1  0
  3  4  1  0
  4  5  1  0
  5  6  2  0
  5  7  1  0
  7  8  2  0
  7  9  1  0
  9 10  1  0
M  END
