
     RDKit          3D

 10 10  0  0  0  0  0  0  0  0999 V2000
    2.0610    2.2380    0.8640 N   0  0  0  0  0  0  0  0  0  0  0  0
    1.2860    1.3990    0.7870 C   0  0  0  0  0  0  0  0  0  0  0  0
    0.3110    0.3230    0.6690 C   0  0  0  0  0  0  0  0  0  0  0  0
   -0.1450   -0.1300   -0.4910 C   0  0  0  0  0  0  0  0  0  0  0  0
    0.2160    0.3280   -1.7940 N   0  0  0  0  0  0  0  0  0  0  0  0
   -1.1030   -1.2040   -0.2220 C   0  0  0  0  0  0  0  0  0  0  0  0
   -1.7310   -1.8600   -1.1030 O   0  0  0  0  0  0  0  0  0  0  0  0
   -1.1880   -1.3590    1.1570 O   0  0  0  0  0  0  0  0  0  0  0  0
   -0.3220   -0.4250    1.7430 C   0  0  0  0  0  0  0  0  0  0  0  0
   -0.1110   -0.2470    2.9790 O   0  0  0  0  0  0  0  0  0  0  0  0
  1  2  3  0
  2  3  1  0
  3  4  2  0
  3  9  1  0
  4  5  1  0
  4  6  1  0
  6  7  2  0
  6  8  1  0
  8  9  1  0
  9 10  2  0
M  END
