
     RDKit          3D

 23 24  0  0  0  0  0  0  0  0999 V2000
   -3.6770    0.6640   -1.0770 C   0  0  0  0  0  0  0  0  0  0  0  0
   -3.3530   -0.1730    0.1660 C   0  0  2  0  0  0  0  0  0  0  0  0
   -4.3690   -1.3200    0.2620 C   0  0  0  0  0  0  0  0  0  0  0  0
   -3.5700    0.6980    1.3610 C   0  0  0  0  0  0  0  0  0  0  0  0
   -2.0920   -0.7500    0.0920 O   0  0  0  0  0  0  0  0  0  0  0  0
   -0.9520   -0.0300   -0.0230 C   0  0  0  0  0  0  0  0  0  0  0  0
   -1.1740    1.2430   -0.0550 O   0  0  0  0  0  0  0  0  0  0  0  0
    0.4330   -0.4470   -0.1120 C   0  0  0  0  0  0  0  0  0  0  0  0
    0.7460   -1.7200   -0.0920 C   0  0  0  0  0  0  0  0  0  0  0  0
   -0.2080   -2.8320    0.0070 C   0  0  0  0  0  0  0  0  0  0  0  0
   -1.4330   -2.7810    0.0860 O   0  0  0  0  0  0  0  0  0  0  0  0
    0.3280   -4.1600    0.0140 O   0  0  0  0  0  0  0  0  0  0  0  0
    2.0890   -2.1450   -0.1560 O   0  0  0  0  0  0  0  0  0  0  0  0
    3.1590   -1.2650   -0.2270 C   0  0  0  0  0  0  0  0  0  0  0  0
    4.3940   -1.7030   -0.2990 C   0  0  0  0  0  0  0  0  0  0  0  0
    5.5740   -1.0540   -0.3760 O   0  0  0  0  0  0  0  0  0  0  0  0
    2.8310    0.1630   -0.2190 C   0  0  0  0  0  0  0  0  0  0  0  0
    3.7960    1.0780   -0.1150 C   0  0  0  0  0  0  0  0  0  0  0  0
    3.3830    2.4160   -0.1110 O   0  0  0  0  0  0  0  0  0  0  0  0
    2.3500    2.7310    0.8090 C   0  0  1  0  0  0  0  0  0  0  0  0
    2.0490    4.0940    0.6830 O   0  0  0  0  0  0  0  0  0  0  0  0
    1.1520    1.8890    0.4300 C   0  0  0  0  0  0  0  0  0  0  0  0
    1.4600    0.6540   -0.3260 C   0  0  2  0  0  0  0  0  0  0  0  0
  2  1  1  6
  2  3  1  0
  2  4  1  0
  2  5  1  0
  5  6  1  0
  6  7  2  0
  6  8  1  0
  8  9  2  0
  8 23  1  0
  9 10  1  0
  9 13  1  0
 10 11  2  0
 10 12  1  0
 13 14  1  0
 14 15  2  3
 14 17  1  0
 15 16  1  0
 17 18  2  0
 17 23  1  0
 18 19  1  0
 19 20  1  0
 20 21  1  6
 20 22  1  0
 23 22  1  1
M  END
