
     RDKit          3D

 10 10  0  0  0  0  0  0  0  0999 V2000
    2.2940   -0.7660    0.0560 C   0  0  0  0  0  0  0  0  0  0  0  0
    1.6360    0.4940    0.2080 N   0  0  0  0  0  0  0  0  0  0  0  0
    0.2490    0.6760   -0.0870 C   0  0  0  0  0  0  0  0  0  0  0  0
   -0.7090   -0.2500   -0.1060 C   0  0  0  0  0  0  0  0  0  0  0  0
   -0.4300   -1.6170    0.1880 N   0  0  0  0  0  0  0  0  0  0  0  0
   -2.0200    0.3550   -0.4610 C   0  0  1  0  0  0  0  0  0  0  0  0
   -2.9430    0.1290    0.5580 O   0  0  0  0  0  0  0  0  0  0  0  0
   -1.7600    1.7130   -0.6510 O   0  0  0  0  0  0  0  0  0  0  0  0
   -0.4080    1.9270   -0.4320 C   0  0  0  0  0  0  0  0  0  0  0  0
    0.2200    3.0370   -0.5080 O   0  0  0  0  0  0  0  0  0  0  0  0
  1  2  1  0
  2  3  1  0
  3  4  2  0
  3  9  1  0
  4  5  1  0
  4  6  1  0
  6  7  1  1
  6  8  1  0
  8  9  1  0
  9 10  2  0
M  END
