
     RDKit          3D

 10 10  0  0  0  0  0  0  0  0999 V2000
    2.4590    0.1250    0.3310 C   0  0  0  0  0  0  0  0  0  0  0  0
    1.5050   -0.1340   -0.7010 O   0  0  0  0  0  0  0  0  0  0  0  0
    0.1740   -0.3590   -0.3900 C   0  0  0  0  0  0  0  0  0  0  0  0
   -0.7500    0.5750   -0.2430 C   0  0  0  0  0  0  0  0  0  0  0  0
   -0.6250    1.9780   -0.3590 N   0  0  0  0  0  0  0  0  0  0  0  0
   -2.0390   -0.0740    0.0860 C   0  0  0  0  0  0  0  0  0  0  0  0
   -3.1370    0.5050    0.2950 O   0  0  0  0  0  0  0  0  0  0  0  0
   -1.7870   -1.4710    0.1180 N   0  0  0  0  0  0  0  0  0  0  0  0
   -0.4100   -1.6770   -0.1770 C   0  0  0  0  0  0  0  0  0  0  0  0
    0.1830   -2.7970   -0.2380 O   0  0  0  0  0  0  0  0  0  0  0  0
  1  2  1  0
  2  3  1  0
  3  4  2  0
  3  9  1  0
  4  5  1  0
  4  6  1  0
  6  7  2  0
  6  8  1  0
  8  9  1  0
  9 10  2  0
M  END
