
     RDKit          3D

 10 10  0  0  0  0  0  0  0  0999 V2000
   -2.5420   -0.9710   -0.3150 N   0  0  0  0  0  0  0  0  0  0  0  0
   -1.8230   -0.0290    0.4130 N   0  0  0  0  0  0  0  0  0  0  0  0
   -0.4090   -0.0150    0.3170 C   0  0  0  0  0  0  0  0  0  0  0  0
    0.1380    0.9380   -0.4260 C   0  0  0  0  0  0  0  0  0  0  0  0
   -0.6110    1.8930   -1.0910 O   0  0  0  0  0  0  0  0  0  0  0  0
    1.5940    0.9210   -0.5020 C   0  0  0  0  0  0  0  0  0  0  0  0
    2.2120    2.0020   -0.6740 O   0  0  0  0  0  0  0  0  0  0  0  0
    2.2520   -0.3860   -0.3690 C   0  0  0  0  0  0  0  0  0  0  0  0
    1.5860   -1.3380    0.3270 O   0  0  0  0  0  0  0  0  0  0  0  0
    0.4610   -0.9920    0.9950 C   0  0  0  0  0  0  0  0  0  0  0  0
  1  2  1  0
  2  3  1  0
  3  4  2  0
  3 10  1  0
  4  5  1  0
  4  6  1  0
  6  7  2  0
  6  8  1  0
  8  9  1  0
  9 10  1  0
M  END
