
     RDKit          3D

 10 10  0  0  0  0  0  0  0  0999 V2000
   -2.4740   -0.6510    0.0810 N   0  0  0  0  0  0  0  0  0  0  0  0
   -1.6240    0.3100    0.0410 C   0  0  0  0  0  0  0  0  0  0  0  0
   -2.1380    1.6000    0.0610 O   0  0  0  0  0  0  0  0  0  0  0  0
   -0.1920    0.0440   -0.0220 C   0  0  0  0  0  0  0  0  0  0  0  0
    0.3940   -1.1380   -0.0450 C   0  0  0  0  0  0  0  0  0  0  0  0
    1.8090   -1.0200   -0.1080 N   0  0  0  0  0  0  0  0  0  0  0  0
    2.1460    0.3430   -0.1250 C   0  0  0  0  0  0  0  0  0  0  0  0
    3.3050    0.8450   -0.1780 O   0  0  0  0  0  0  0  0  0  0  0  0
    0.8770    1.0600   -0.0710 C   0  0  0  0  0  0  0  0  0  0  0  0
    0.7080    2.3080   -0.0660 O   0  0  0  0  0  0  0  0  0  0  0  0
  1  2  2  0
  2  3  1  0
  2  4  1  0
  4  5  2  0
  4  9  1  0
  5  6  1  0
  6  7  1  0
  7  8  2  0
  7  9  1  0
  9 10  2  0
M  END
