
     RDKit          3D

 27 30  0  0  0  0  0  0  0  0999 V2000
   -3.6650   -3.1790    0.0860 C   0  0  0  0  0  0  0  0  0  0  0  0
   -3.0000   -1.9070    0.5760 C   0  0  0  0  0  0  0  0  0  0  0  0
   -2.2040   -1.3420   -0.5790 C   0  0  1  0  0  0  0  0  0  0  0  0
   -3.3140   -0.9870   -1.9550 S   0  0  0  0  0  0  0  0  0  0  0  0
   -4.0250    0.6450   -1.6250 C   0  0  1  0  0  0  0  0  0  0  0  0
   -5.4630    0.5010   -1.1720 C   0  0  0  0  0  0  0  0  0  0  0  0
   -6.0280    1.9270   -1.1210 C   0  0  0  0  0  0  0  0  0  0  0  0
   -5.2480    2.6320   -0.1880 O   0  0  0  0  0  0  0  0  0  0  0  0
   -3.9350    2.2880    0.1120 C   0  0  0  0  0  0  0  0  0  0  0  0
   -3.2880    1.3450   -0.5370 C   0  0  0  0  0  0  0  0  0  0  0  0
   -1.9300    1.0370   -0.1830 C   0  0  0  0  0  0  0  0  0  0  0  0
   -1.4010   -0.1590   -0.1890 C   0  0  0  0  0  0  0  0  0  0  0  0
   -0.0260   -0.3770    0.1740 C   0  0  0  0  0  0  0  0  0  0  0  0
    0.4620   -1.5630    0.1580 O   0  0  0  0  0  0  0  0  0  0  0  0
    0.9050    0.6200    0.5690 N   0  0  0  0  0  0  0  0  0  0  0  0
    2.2620    0.3130    0.9150 C   0  0  0  0  0  0  0  0  0  0  0  0
    2.5610    0.0170    2.2500 C   0  0  0  0  0  0  0  0  0  0  0  0
    1.5100    0.0250    3.2440 C   0  0  0  0  0  0  0  0  0  0  0  0
    0.3370    0.2930    2.9260 O   0  0  0  0  0  0  0  0  0  0  0  0
    3.8760   -0.2720    2.5410 C   0  0  0  0  0  0  0  0  0  0  0  0
    4.8440   -0.2640    1.5430 C   0  0  0  0  0  0  0  0  0  0  0  0
    6.2330   -0.5870    1.9500 C   0  0  0  0  0  0  0  0  0  0  0  0
    4.4970    0.0350    0.2420 C   0  0  0  0  0  0  0  0  0  0  0  0
    3.1880    0.3290   -0.0830 C   0  0  0  0  0  0  0  0  0  0  0  0
    3.1020    0.6100   -1.5420 C   0  0  0  0  0  0  0  0  0  0  0  0
    4.5160    1.1190   -1.8190 C   0  0  0  0  0  0  0  0  0  0  0  0
    5.3210    0.1110   -0.9920 C   0  0  0  0  0  0  0  0  0  0  0  0
  1  2  1  0
  3  2  1  1
  3  4  1  0
  3 12  1  0
  4  5  1  0
  5  6  1  1
  5 10  1  0
  6  7  1  0
  7  8  1  0
  8  9  1  0
  9 10  2  0
 10 11  1  0
 11 12  2  0
 12 13  1  0
 13 14  2  0
 13 15  1  0
 15 16  1  0
 16 17  2  0
 16 24  1  0
 17 18  1  0
 17 20  1  0
 18 19  2  0
 20 21  2  0
 21 22  1  0
 21 23  1  0
 23 24  2  0
 23 27  1  0
 24 25  1  0
 25 26  1  0
 26 27  1  0
M  END
