
     RDKit          3D

 27 30  0  0  0  0  0  0  0  0999 V2000
   -2.6760   -1.7840    3.1250 C   0  0  0  0  0  0  0  0  0  0  0  0
   -2.9970   -1.4470    1.7920 O   0  0  0  0  0  0  0  0  0  0  0  0
   -2.1860   -0.5730    1.1120 C   0  0  0  0  0  0  0  0  0  0  0  0
   -1.0810   -0.0400    1.7280 C   0  0  0  0  0  0  0  0  0  0  0  0
   -0.2330    0.8440    1.0890 C   0  0  0  0  0  0  0  0  0  0  0  0
    0.9330    1.4170    1.7730 C   0  0  1  0  0  0  0  0  0  0  0  0
    0.4440    1.9070    3.0100 O   0  0  0  0  0  0  0  0  0  0  0  0
    2.1240    0.5710    1.9490 C   0  0  1  0  0  0  0  0  0  0  0  0
    1.9550   -0.5330    2.9720 C   0  0  0  0  0  0  0  0  0  0  0  0
    2.7110    0.0040    0.7760 N   0  0  0  0  0  0  0  0  0  0  0  0
    2.1070   -1.0170   -0.0510 C   0  0  0  0  0  0  0  0  0  0  0  0
    2.4640   -0.6410   -1.4730 C   0  0  0  0  0  0  0  0  0  0  0  0
    3.8530   -0.0930   -1.2520 C   0  0  0  0  0  0  0  0  0  0  0  0
    4.7960    0.0250   -2.1390 C   0  0  0  0  0  0  0  0  0  0  0  0
    6.3900    0.6960   -1.7140 S   0  0  0  0  0  0  0  0  0  0  0  0
    6.3480    1.1080    0.0240 C   0  0  0  0  0  0  0  0  0  0  0  0
    5.0590    0.8140    0.6780 C   0  0  0  0  0  0  0  0  0  0  0  0
    3.9820    0.2960    0.1400 C   0  0  0  0  0  0  0  0  0  0  0  0
   -0.5580    1.1640   -0.2140 C   0  0  0  0  0  0  0  0  0  0  0  0
   -1.6550    0.6520   -0.8660 C   0  0  0  0  0  0  0  0  0  0  0  0
   -2.4790   -0.2320   -0.1850 C   0  0  0  0  0  0  0  0  0  0  0  0
   -3.5820   -0.7360   -0.8670 O   0  0  0  0  0  0  0  0  0  0  0  0
   -4.1360   -0.0640   -1.9930 C   0  0  2  0  0  0  0  0  0  0  0  0
   -4.9080    1.1230   -1.5160 C   0  0  0  0  0  0  0  0  0  0  0  0
   -5.0770   -1.0030   -2.7170 C   0  0  0  0  0  0  0  0  0  0  0  0
   -3.0200    0.3070   -2.9100 C   0  0  0  0  0  0  0  0  0  0  0  0
   -1.9130    1.0650   -2.2730 C   0  0  0  0  0  0  0  0  0  0  0  0
  1  2  1  0
  2  3  1  0
  3  4  2  0
  3 21  1  0
  4  5  1  0
  5  6  1  0
  5 19  2  0
  6  7  1  1
  6  8  1  0
  8  9  1  1
  8 10  1  0
 10 11  1  0
 10 18  1  0
 11 12  1  0
 12 13  1  0
 13 14  2  0
 13 18  1  0
 14 15  1  0
 15 16  1  0
 16 17  1  0
 17 18  2  0
 19 20  1  0
 20 21  2  0
 20 27  1  0
 21 22  1  0
 22 23  1  0
 23 24  1  1
 23 25  1  0
 23 26  1  0
 26 27  1  0
M  END
