
     RDKit          3D

 29 33  0  0  0  0  0  0  0  0999 V2000
   -7.0490    1.1030    0.8000 O   0  0  0  0  0  0  0  0  0  0  0  0
   -5.8160    0.9380    0.6210 C   0  0  0  0  0  0  0  0  0  0  0  0
   -4.9370    0.5150    1.6510 N   0  0  0  0  0  0  0  0  0  0  0  0
   -3.5590    0.3560    1.3570 C   0  0  0  0  0  0  0  0  0  0  0  0
   -2.7510   -0.0250    2.2740 N   0  0  0  0  0  0  0  0  0  0  0  0
   -1.3470   -0.2080    2.0560 C   0  0  0  0  0  0  0  0  0  0  0  0
   -0.5320   -0.6190    3.0820 C   0  0  0  0  0  0  0  0  0  0  0  0
    0.8090   -0.7940    2.8780 C   0  0  0  0  0  0  0  0  0  0  0  0
    1.3530   -0.5580    1.6390 C   0  0  0  0  0  0  0  0  0  0  0  0
    2.7360   -0.7520    1.4250 N   0  0  0  0  0  0  0  0  0  0  0  0
    3.6550   -1.4610    2.1910 C   0  0  0  0  0  0  0  0  0  0  0  0
    3.2800   -2.0480    3.2280 O   0  0  0  0  0  0  0  0  0  0  0  0
    5.0890   -1.5520    1.8250 C   0  0  0  0  0  0  0  0  0  0  0  0
    5.9980   -2.2120    2.5140 C   0  0  0  0  0  0  0  0  0  0  0  0
    7.3380   -2.1080    1.8870 C   0  0  0  0  0  0  0  0  0  0  0  0
    7.0590   -1.2700    0.7080 C   0  0  0  0  0  0  0  0  0  0  0  0
    5.7790   -0.9640    0.6880 C   0  0  0  0  0  0  0  0  0  0  0  0
    0.5230   -0.1440    0.6120 C   0  0  0  0  0  0  0  0  0  0  0  0
   -0.8190    0.0340    0.8030 C   0  0  0  0  0  0  0  0  0  0  0  0
   -1.6580    0.4570   -0.2500 O   0  0  0  0  0  0  0  0  0  0  0  0
   -3.0080    0.6160    0.0220 C   0  0  0  0  0  0  0  0  0  0  0  0
   -3.8470    1.0130   -0.9340 C   0  0  0  0  0  0  0  0  0  0  0  0
   -3.3600    1.2870   -2.2940 C   0  0  0  0  0  0  0  0  0  0  0  0
   -2.4130    0.4740   -2.8930 C   0  0  0  0  0  0  0  0  0  0  0  0
   -1.9520    0.7380   -4.1640 C   0  0  0  0  0  0  0  0  0  0  0  0
   -2.4430    1.8300   -4.8490 C   0  0  0  0  0  0  0  0  0  0  0  0
   -3.3870    2.6600   -4.2820 C   0  0  0  0  0  0  0  0  0  0  0  0
   -3.8340    2.3710   -3.0000 C   0  0  0  0  0  0  0  0  0  0  0  0
   -5.2280    1.1760   -0.6550 N   0  0  0  0  0  0  0  0  0  0  0  0
  1  2  2  0
  2  3  1  0
  2 29  1  0
  3  4  1  0
  4  5  2  0
  4 21  1  0
  5  6  1  0
  6  7  2  0
  6 19  1  0
  7  8  1  0
  8  9  2  0
  9 10  1  0
  9 18  1  0
 10 11  1  0
 11 12  2  0
 11 13  1  0
 13 14  2  0
 13 17  1  0
 14 15  1  0
 15 16  1  0
 16 17  2  0
 18 19  2  0
 19 20  1  0
 20 21  1  0
 21 22  2  0
 22 23  1  0
 22 29  1  0
 23 24  2  0
 23 28  1  0
 24 25  1  0
 25 26  2  0
 26 27  1  0
 27 28  2  0
M  END
