
     RDKit          3D

 29 32  0  0  0  0  0  0  0  0999 V2000
    7.1910    7.0670   -0.5370 N   0  0  0  0  0  0  0  0  0  0  0  0
    6.5380    6.0190   -0.1530 C   0  0  0  0  0  0  0  0  0  0  0  0
    5.8340    4.9050    0.2720 C   0  0  0  0  0  0  0  0  0  0  0  0
    4.4510    4.8930    0.1630 C   0  0  0  0  0  0  0  0  0  0  0  0
    3.7670    3.6700    0.2860 C   0  0  0  0  0  0  0  0  0  0  0  0
    4.3700    2.5440    0.5060 C   0  0  0  0  0  0  0  0  0  0  0  0
    3.6910    1.2040    0.4620 C   0  0  0  0  0  0  0  0  0  0  0  0
    2.4290    1.2700    0.0300 C   0  0  0  0  0  0  0  0  0  0  0  0
    1.6120    0.0240   -0.0830 C   0  0  0  0  0  0  0  0  0  0  0  0
    2.0440   -1.0470    0.2620 O   0  0  0  0  0  0  0  0  0  0  0  0
    0.3220    0.1870   -0.6360 N   0  0  0  0  0  0  0  0  0  0  0  0
   -0.7360   -0.6430   -0.9420 C   0  0  0  0  0  0  0  0  0  0  0  0
   -1.2240   -0.5840   -2.3130 C   0  0  0  0  0  0  0  0  0  0  0  0
   -2.3300   -1.1480   -2.7370 C   0  0  0  0  0  0  0  0  0  0  0  0
   -3.1220   -1.8750   -1.8420 C   0  0  0  0  0  0  0  0  0  0  0  0
   -4.2820   -2.3650   -2.2330 N   0  0  0  0  0  0  0  0  0  0  0  0
   -5.0780   -2.9780   -1.3800 C   0  0  0  0  0  0  0  0  0  0  0  0
   -6.1870   -3.4340   -1.7920 O   0  0  0  0  0  0  0  0  0  0  0  0
   -4.7530   -3.1440   -0.0490 C   0  0  0  0  0  0  0  0  0  0  0  0
   -5.6010   -3.7840    0.7870 C   0  0  0  0  0  0  0  0  0  0  0  0
   -6.7180   -4.2460    0.3640 O   0  0  0  0  0  0  0  0  0  0  0  0
   -5.2400   -3.9360    2.1110 C   0  0  0  0  0  0  0  0  0  0  0  0
   -4.0420   -3.4370    2.5410 C   0  0  0  0  0  0  0  0  0  0  0  0
   -3.1830   -2.7860    1.6960 N   0  0  0  0  0  0  0  0  0  0  0  0
   -3.5250   -2.6340    0.4090 C   0  0  0  0  0  0  0  0  0  0  0  0
   -2.7280   -1.9940   -0.5260 C   0  0  0  0  0  0  0  0  0  0  0  0
   -1.5230   -1.3650   -0.0810 C   0  0  0  0  0  0  0  0  0  0  0  0
    5.8200    2.4630    0.6510 C   0  0  0  0  0  0  0  0  0  0  0  0
    6.4440    3.7230    0.5120 C   0  0  0  0  0  0  0  0  0  0  0  0
  1  2  3  0
  2  3  1  0
  3  4  2  0
  3 29  1  0
  4  5  1  0
  5  6  2  0
  6  7  1  0
  6 28  1  0
  7  8  2  3
  8  9  1  0
  9 10  2  0
  9 11  1  0
 11 12  1  0
 12 13  2  0
 12 27  1  0
 13 14  1  0
 14 15  2  0
 15 16  1  0
 15 26  1  0
 16 17  1  0
 17 18  2  0
 17 19  1  0
 19 20  1  0
 19 25  2  0
 20 21  2  0
 20 22  1  0
 22 23  2  0
 23 24  1  0
 24 25  1  0
 25 26  1  0
 26 27  2  0
 28 29  2  0
M  END
