
     RDKit          3D

 38 41  0  0  0  0  0  0  0  0999 V2000
    8.9760   -2.5310    2.9510 N   0  0  0  0  0  0  0  0  0  0  0  0
    7.8130   -2.1560    2.2270 C   0  0  0  0  0  0  0  0  0  0  0  0
    6.8700   -3.0610    1.8390 N   0  0  0  0  0  0  0  0  0  0  0  0
    5.7820   -2.6680    1.1550 C   0  0  0  0  0  0  0  0  0  0  0  0
    5.5480   -1.3880    0.8110 N   0  0  0  0  0  0  0  0  0  0  0  0
    6.4440   -0.4550    1.1680 C   0  0  0  0  0  0  0  0  0  0  0  0
    7.5640   -0.8470    1.8700 C   0  0  0  0  0  0  0  0  0  0  0  0
    8.2650    0.2850    2.0840 N   0  0  0  0  0  0  0  0  0  0  0  0
    7.5890    1.3220    1.5290 C   0  0  0  0  0  0  0  0  0  0  0  0
    6.4560    0.8830    0.9550 N   0  0  0  0  0  0  0  0  0  0  0  0
    5.4270    1.6460    0.2430 C   0  0  2  0  0  0  0  0  0  0  0  0
    4.2070    1.5710    0.8350 O   0  0  0  0  0  0  0  0  0  0  0  0
    3.2170    1.4810   -0.1230 C   0  0  2  0  0  0  0  0  0  0  0  0
    2.1480    0.5350    0.3490 C   0  0  0  0  0  0  0  0  0  0  0  0
    1.1130    0.4010   -0.5720 O   0  0  0  0  0  0  0  0  0  0  0  0
   -0.0640   -0.6540   -0.0390 S   0  0  1  0  0  0  0  0  0  0  0  0
   -0.2590   -1.7600   -1.0260 O   0  0  0  0  0  0  0  0  0  0  0  0
    0.4140   -1.2330    1.2860 O   0  0  0  0  0  0  0  0  0  0  0  0
   -1.5660    0.1070    0.2860 N   0  0  0  0  0  0  0  0  0  0  0  0
   -2.7090   -0.2400   -0.5060 C   0  0  0  0  0  0  0  0  0  0  0  0
   -2.5360   -1.1110   -1.4190 O   0  0  0  0  0  0  0  0  0  0  0  0
   -4.0320    0.3860   -0.2760 C   0  0  0  0  0  0  0  0  0  0  0  0
   -4.9940   -0.1070   -1.3240 C   0  0  0  0  0  0  0  0  0  0  0  0
   -6.3450    0.5010   -1.1380 C   0  0  0  0  0  0  0  0  0  0  0  0
   -6.5450    1.6030   -1.6810 O   0  0  0  0  0  0  0  0  0  0  0  0
   -7.3560   -0.1690   -0.3630 C   0  0  0  0  0  0  0  0  0  0  0  0
   -6.9850   -1.3930    0.2190 C   0  0  0  0  0  0  0  0  0  0  0  0
   -7.8460   -2.1170    0.9780 C   0  0  0  0  0  0  0  0  0  0  0  0
   -9.1150   -1.6560    1.1920 C   0  0  0  0  0  0  0  0  0  0  0  0
   -9.5200   -0.4680    0.6450 C   0  0  0  0  0  0  0  0  0  0  0  0
   -8.6260    0.2800   -0.1410 C   0  0  0  0  0  0  0  0  0  0  0  0
   -9.1480    1.5060   -0.6820 C   0  0  0  0  0  0  0  0  0  0  0  0
  -10.3670    1.8250   -0.3730 O   0  0  0  0  0  0  0  0  0  0  0  0
   -8.5290    2.4180   -1.5030 O   0  0  0  0  0  0  0  0  0  0  0  0
    3.8550    1.0350   -1.4040 C   0  0  1  0  0  0  0  0  0  0  0  0
    3.4460    1.7870   -2.5090 O   0  0  0  0  0  0  0  0  0  0  0  0
    5.3230    1.2620   -1.1940 C   0  0  1  0  0  0  0  0  0  0  0  0
    5.8250    2.2550   -2.0340 O   0  0  0  0  0  0  0  0  0  0  0  0
  1  2  1  0
  2  3  2  0
  2  7  1  0
  3  4  1  0
  4  5  2  0
  5  6  1  0
  6  7  2  0
  6 10  1  0
  7  8  1  0
  8  9  2  0
  9 10  1  0
 11 10  1  1
 11 12  1  0
 11 37  1  0
 12 13  1  0
 13 14  1  1
 13 35  1  0
 14 15  1  0
 15 16  1  0
 16 17  2  0
 16 18  2  0
 16 19  1  1
 19 20  1  0
 20 21  2  0
 20 22  1  0
 22 23  1  0
 23 24  1  0
 24 25  2  0
 24 26  1  0
 26 27  2  0
 26 31  1  0
 27 28  1  0
 28 29  2  0
 29 30  1  0
 30 31  2  0
 31 32  1  0
 32 33  2  0
 32 34  1  0
 35 36  1  6
 35 37  1  0
 37 38  1  6
M  END
