
     RDKit          3D

 29 33  0  0  0  0  0  0  0  0999 V2000
   -3.0420    0.1960    3.1910 C   0  0  0  0  0  0  0  0  0  0  0  0
   -3.1150    0.9560    2.0100 O   0  0  0  0  0  0  0  0  0  0  0  0
   -2.8040    0.4900    0.7530 C   0  0  0  0  0  0  0  0  0  0  0  0
   -3.7970   -0.0910   -0.0260 C   0  0  0  0  0  0  0  0  0  0  0  0
   -3.4620   -0.5510   -1.2830 C   0  0  0  0  0  0  0  0  0  0  0  0
   -2.1700   -0.4270   -1.7330 C   0  0  0  0  0  0  0  0  0  0  0  0
   -1.1690    0.1550   -0.9560 C   0  0  0  0  0  0  0  0  0  0  0  0
    0.0920    0.2760   -1.3950 N   0  0  0  0  0  0  0  0  0  0  0  0
    1.0700    0.8370   -0.6560 C   0  0  0  0  0  0  0  0  0  0  0  0
    2.2810    0.9280   -1.1360 N   0  0  0  0  0  0  0  0  0  0  0  0
    3.2760    1.5280   -0.3160 C   0  0  0  0  0  0  0  0  0  0  0  0
    3.3090    2.9070   -0.0960 C   0  0  0  0  0  0  0  0  0  0  0  0
    4.2970    3.4360    0.7080 C   0  0  0  0  0  0  0  0  0  0  0  0
    5.2220    2.5780    1.2700 C   0  0  0  0  0  0  0  0  0  0  0  0
    5.1930    1.2150    1.0560 C   0  0  0  0  0  0  0  0  0  0  0  0
    4.2070    0.6840    0.2520 C   0  0  0  0  0  0  0  0  0  0  0  0
    4.1470   -0.7720    0.0010 C   0  0  0  0  0  0  0  0  0  0  0  0
    4.9580   -1.6780    0.4720 C   0  0  0  0  0  0  0  0  0  0  0  0
    4.5540   -3.0210   -0.0170 C   0  0  0  0  0  0  0  0  0  0  0  0
    3.3670   -2.6910   -0.8470 C   0  0  0  0  0  0  0  0  0  0  0  0
    3.1910   -1.4140   -0.7960 N   0  0  0  0  0  0  0  0  0  0  0  0
    0.7540    1.2910    0.5760 N   0  0  0  0  0  0  0  0  0  0  0  0
   -0.4960    1.1860    1.0460 C   0  0  0  0  0  0  0  0  0  0  0  0
   -0.7400    1.6200    2.1900 O   0  0  0  0  0  0  0  0  0  0  0  0
   -1.5060    0.6150    0.3030 C   0  0  0  0  0  0  0  0  0  0  0  0
   -4.4530   -1.1870   -2.1890 C   0  0  0  0  0  0  0  0  0  0  0  0
   -5.7090   -1.5810   -1.4740 C   0  0  0  0  0  0  0  0  0  0  0  0
   -6.1620   -0.5020   -0.5420 C   0  0  0  0  0  0  0  0  0  0  0  0
   -5.1020   -0.2340    0.3890 O   0  0  0  0  0  0  0  0  0  0  0  0
  1  2  1  0
  2  3  1  0
  3  4  2  0
  3 25  1  0
  4  5  1  0
  4 29  1  0
  5  6  2  0
  5 26  1  0
  6  7  1  0
  7  8  1  0
  7 25  2  0
  8  9  1  0
  9 10  2  3
  9 22  1  0
 10 11  1  0
 11 12  2  0
 11 16  1  0
 12 13  1  0
 13 14  2  0
 14 15  1  0
 15 16  2  0
 16 17  1  0
 17 18  2  0
 17 21  1  0
 18 19  1  0
 19 20  1  0
 20 21  2  0
 22 23  1  0
 23 24  2  0
 23 25  1  0
 26 27  1  0
 27 28  1  0
 28 29  1  0
M  END
