
     RDKit          3D

 29 31  0  0  0  0  0  0  0  0999 V2000
   -4.9030   -3.5340   -0.9400 C   0  0  0  0  0  0  0  0  0  0  0  0
   -4.7840   -2.0540   -0.9670 C   0  0  0  0  0  0  0  0  0  0  0  0
   -3.9020   -1.4420    0.0330 C   0  0  0  0  0  0  0  0  0  0  0  0
   -2.7150   -1.0420   -0.3240 O   0  0  0  0  0  0  0  0  0  0  0  0
   -1.8190   -0.4720    0.4490 C   0  0  0  0  0  0  0  0  0  0  0  0
   -0.5570   -0.1260   -0.1640 C   0  0  0  0  0  0  0  0  0  0  0  0
    0.0470    0.9640   -0.4330 C   0  0  0  0  0  0  0  0  0  0  0  0
    1.3990    0.8930   -1.0850 C   0  0  0  0  0  0  0  0  0  0  0  0
    2.0480   -0.3720   -1.3010 C   0  0  0  0  0  0  0  0  0  0  0  0
    2.5680   -1.1810   -0.2360 N   0  0  0  0  0  0  0  0  0  0  0  0
    3.6830   -0.4470    0.4110 C   0  0  0  0  0  0  0  0  0  0  0  0
    4.8790   -1.3490    0.3420 C   0  0  0  0  0  0  0  0  0  0  0  0
    5.7450   -1.1380   -0.7630 C   0  0  0  0  0  0  0  0  0  0  0  0
    6.7170   -2.0850   -0.6400 C   0  0  0  0  0  0  0  0  0  0  0  0
    6.4500   -2.8040    0.4540 N   0  0  0  0  0  0  0  0  0  0  0  0
    7.2560   -3.9320    0.9040 C   0  0  0  0  0  0  0  0  0  0  0  0
    5.3360   -2.3560    1.0450 N   0  0  0  0  0  0  0  0  0  0  0  0
   -0.4630    2.3320   -0.3430 C   0  0  0  0  0  0  0  0  0  0  0  0
   -1.7640    2.6360   -0.0670 C   0  0  0  0  0  0  0  0  0  0  0  0
   -2.2310    3.9600   -0.0460 C   0  0  0  0  0  0  0  0  0  0  0  0
   -1.3760    4.9890   -0.3050 C   0  0  0  0  0  0  0  0  0  0  0  0
   -1.8020    6.4200   -0.3190 C   0  0  0  0  0  0  0  0  0  0  0  0
   -0.0740    4.7210   -0.5800 C   0  0  0  0  0  0  0  0  0  0  0  0
    0.3840    3.4190   -0.5990 C   0  0  0  0  0  0  0  0  0  0  0  0
   -2.1080   -0.2510    1.7670 C   0  0  0  0  0  0  0  0  0  0  0  0
   -3.3630   -0.6600    2.2080 C   0  0  0  0  0  0  0  0  0  0  0  0
   -3.7240   -0.5020    3.4140 O   0  0  0  0  0  0  0  0  0  0  0  0
   -4.2700   -1.2540    1.3640 C   0  0  0  0  0  0  0  0  0  0  0  0
   -5.6170   -1.7330    1.7780 C   0  0  0  0  0  0  0  0  0  0  0  0
  1  2  1  0
  2  3  1  0
  3  4  1  0
  3 28  2  0
  4  5  1  0
  5  6  1  0
  5 25  2  0
  6  7  2  3
  7  8  1  0
  7 18  1  0
  8  9  1  0
  9 10  1  0
 10 11  1  0
 11 12  1  0
 12 13  1  0
 12 17  2  0
 13 14  2  0
 14 15  1  0
 15 16  1  0
 15 17  1  0
 18 19  2  0
 18 24  1  0
 19 20  1  0
 20 21  2  0
 21 22  1  0
 21 23  1  0
 23 24  2  0
 25 26  1  0
 26 27  2  0
 26 28  1  0
 28 29  1  0
M  END
