
     RDKit          3D

 15 14  0  0  0  0  0  0  0  0999 V2000
    7.7260    0.5370    0.4050 C   0  0  0  0  0  0  0  0  0  0  0  0
    6.5660   -0.1940   -0.7990 S   0  0  0  0  0  0  0  0  0  0  0  0
    4.9740   -1.1080    0.2720 S   0  0  0  0  0  0  0  0  0  0  0  0
    3.4440    0.3450    0.5450 S   0  0  0  0  0  0  0  0  0  0  0  0
    2.3220    0.2190   -0.8970 C   0  0  0  0  0  0  0  0  0  0  0  0
    1.5290   -1.4290   -0.7610 S   0  0  0  0  0  0  0  0  0  0  0  0
    0.2680   -1.4900    0.9630 S   0  0  0  0  0  0  0  0  0  0  0  0
   -1.3110   -0.9670    0.4550 O   0  0  0  0  0  0  0  0  0  0  0  0
   -1.7950    0.3050    0.7320 C   0  0  0  0  0  0  0  0  0  0  0  0
   -1.0740    1.0880    1.3630 O   0  0  0  0  0  0  0  0  0  0  0  0
   -3.1680    0.7290    0.2790 C   0  0  0  0  0  0  0  0  0  0  0  0
   -3.8370   -0.4160   -0.4700 C   0  0  0  0  0  0  0  0  0  0  0  0
   -5.1790    0.0120   -0.9090 C   0  0  0  0  0  0  0  0  0  0  0  0
   -6.2130   -0.6280   -0.4960 N   0  0  0  0  0  0  0  0  0  0  0  0
   -5.3660    1.0870   -1.7570 O   0  0  0  0  0  0  0  0  0  0  0  0
  1  2  1  0
  2  3  1  0
  3  4  1  0
  4  5  1  0
  5  6  1  0
  6  7  1  0
  7  8  1  0
  8  9  1  0
  9 10  2  0
  9 11  1  0
 11 12  1  0
 12 13  1  0
 13 14  2  0
 13 15  1  0
M  CHG  2  14   1  15  -1
M  END
