
     RDKit          3D

 15 14  0  0  0  0  0  0  0  0999 V2000
    6.1790    0.1120   -0.4360 C   0  0  0  0  0  0  0  0  0  0  0  0
    4.6980   -0.2570   -0.3230 C   0  0  0  0  0  0  0  0  0  0  0  0
    4.2580   -0.5350   -1.6070 O   0  0  0  0  0  0  0  0  0  0  0  0
    2.6200   -0.9640   -1.6800 S   0  0  0  0  0  0  0  0  0  0  0  0
    1.7550   -0.8530    0.2800 S   0  0  0  0  0  0  0  0  0  0  0  0
    1.0200    1.1290    0.5150 S   0  0  0  0  0  0  0  0  0  0  0  0
   -0.6550    1.1950   -0.0550 C   0  0  0  0  0  0  0  0  0  0  0  0
   -1.2640    2.2380   -0.0170 O   0  0  0  0  0  0  0  0  0  0  0  0
   -1.3030   -0.0220   -0.5730 C   0  0  0  0  0  0  0  0  0  0  0  0
   -2.2860   -0.8560    0.7100 S   0  0  0  0  0  0  0  0  0  0  0  0
   -3.6790    0.2740    1.0890 C   0  0  0  0  0  0  0  0  0  0  0  0
   -4.5460    0.3310   -0.1500 C   0  0  0  0  0  0  0  0  0  0  0  0
   -5.0250   -0.9970   -0.4220 N   0  0  0  0  0  0  0  0  0  0  0  0
   -4.1360   -1.9930   -0.6800 O   0  0  0  0  0  0  0  0  0  0  0  0
   -6.5930   -1.2940   -0.4180 S   0  0  0  0  0  0  0  0  0  0  0  0
  1  2  1  0
  2  3  1  0
  3  4  1  0
  4  5  1  0
  5  6  1  0
  6  7  1  0
  7  8  2  0
  7  9  1  0
  9 10  1  0
 10 11  1  0
 11 12  1  0
 12 13  1  0
 13 14  1  0
 13 15  2  0
M  CHG  2  13   1  14  -1
M  END
