
     RDKit          3D

 15 15  0  0  0  0  0  0  0  0999 V2000
   -5.8550    0.3790   -1.2270 O   0  0  0  0  0  0  0  0  0  0  0  0
   -5.0980    0.1470    0.0540 S   0  0  1  0  0  0  0  0  0  0  0  0
   -6.0510   -0.2550    1.1530 O   0  0  0  0  0  0  0  0  0  0  0  0
   -3.8830   -1.0930   -0.1800 C   0  0  0  0  0  0  0  0  0  0  0  0
   -2.7350   -0.4440    0.1170 C   0  0  0  0  0  0  0  0  0  0  0  0
   -1.2470   -1.4360   -0.0210 S   0  0  0  0  0  0  0  0  0  0  0  0
    0.2980   -0.3360   -0.8020 S   0  0  0  0  0  0  0  0  0  0  0  0
    1.2650    0.5000    0.4300 C   0  0  0  0  0  0  0  0  0  0  0  0
    0.8530    0.9550    1.6960 S   0  0  0  0  0  0  0  0  0  0  0  0
    2.6860    0.7150    0.0270 C   0  0  0  0  0  0  0  0  0  0  0  0
    3.3720   -0.7210    0.0300 C   0  0  0  0  0  0  0  0  0  0  0  0
    4.5920   -0.3380   -0.4690 O   0  0  0  0  0  0  0  0  0  0  0  0
    5.8900   -0.4220    0.6530 S   0  0  0  0  0  0  0  0  0  0  0  0
   -2.8450    0.9160    0.4910 C   0  0  0  0  0  0  0  0  0  0  0  0
   -4.0460    1.3970    0.5280 N   0  0  0  0  0  0  0  0  0  0  0  0
  1  2  2  0
  2  3  2  0
  2  4  1  6
  2 15  1  0
  4  5  2  0
  5  6  1  0
  5 14  1  0
  6  7  1  0
  7  8  1  0
  8  9  2  0
  8 10  1  0
 10 11  1  0
 11 12  1  0
 12 13  1  0
 14 15  2  0
M  END
