
     RDKit          3D

 15 14  0  0  0  0  0  0  0  0999 V2000
   -2.7190   -1.8510   -0.1630 O   0  0  0  0  0  0  0  0  0  0  0  0
   -3.5690   -0.9640    0.1240 C   0  0  0  0  0  0  0  0  0  0  0  0
   -4.9000   -1.3320    0.0770 O   0  0  0  0  0  0  0  0  0  0  0  0
   -3.1420    0.4040    0.4930 C   0  0  0  0  0  0  0  0  0  0  0  0
   -2.7990    1.2350   -0.7260 C   0  0  0  0  0  0  0  0  0  0  0  0
   -1.4530    0.4970   -1.6790 S   0  0  0  0  0  0  0  0  0  0  0  0
    0.0550    0.5340   -0.7520 C   0  0  0  0  0  0  0  0  0  0  0  0
    0.0400    1.2580    0.8800 S   0  0  0  0  0  0  0  0  0  0  0  0
    1.1560    0.0630   -1.2020 N   0  0  0  0  0  0  0  0  0  0  0  0
    1.2380   -0.6680   -2.8090 S   0  0  0  0  0  0  0  0  0  0  0  0
    2.3570    0.1040   -0.4450 C   0  0  0  0  0  0  0  0  0  0  0  0
    2.9290   -1.2340   -0.1840 C   0  0  0  0  0  0  0  0  0  0  0  0
    2.3890   -2.2400   -0.5970 O   0  0  0  0  0  0  0  0  0  0  0  0
    4.4370   -1.4320    0.7490 S   0  0  0  0  0  0  0  0  0  0  0  0
    5.1560    0.4770    1.3370 S   0  0  0  0  0  0  0  0  0  0  0  0
  1  2  2  0
  2  3  1  0
  2  4  1  0
  4  5  1  0
  5  6  1  0
  6  7  1  0
  7  8  1  0
  7  9  2  3
  9 10  1  0
  9 11  1  0
 11 12  1  0
 12 13  2  0
 12 14  1  0
 14 15  1  0
M  CHG  2   3  -1   9   1
M  END
