
     RDKit          3D

 15 14  0  0  0  0  0  0  0  0999 V2000
   -4.7440   -1.7910   -1.0200 C   0  0  0  0  0  0  0  0  0  0  0  0
   -3.9620   -0.5870   -1.0240 O   0  0  0  0  0  0  0  0  0  0  0  0
   -3.6000    0.0400    0.1560 C   0  0  0  0  0  0  0  0  0  0  0  0
   -4.6790   -0.0100    1.3870 S   0  0  0  0  0  0  0  0  0  0  0  0
   -2.3140    0.7200    0.3090 C   0  0  0  0  0  0  0  0  0  0  0  0
   -1.9760    1.2900    1.3710 O   0  0  0  0  0  0  0  0  0  0  0  0
   -1.3910    0.7170   -0.8620 C   0  0  0  0  0  0  0  0  0  0  0  0
   -0.1650    1.4130   -0.5910 N   0  0  0  0  0  0  0  0  0  0  0  0
   -0.3840    2.6910   -0.2740 O   0  0  0  0  0  0  0  0  0  0  0  0
    0.8090    0.6520    0.6500 S   0  0  0  0  0  0  0  0  0  0  0  0
    1.7450   -1.1200   -0.0480 S   0  0  0  0  0  0  0  0  0  0  0  0
    3.6520   -0.7180   -0.8890 S   0  0  0  0  0  0  0  0  0  0  0  0
    4.9450   -0.7990    0.3060 C   0  0  0  0  0  0  0  0  0  0  0  0
    5.4220    0.2650    0.9530 C   0  0  0  0  0  0  0  0  0  0  0  0
    6.7190    0.1730    2.1490 S   0  0  0  0  0  0  0  0  0  0  0  0
  1  2  1  0
  2  3  1  0
  3  4  2  0
  3  5  1  0
  5  6  2  0
  5  7  1  0
  7  8  1  0
  8  9  1  0
  8 10  1  0
 10 11  1  0
 11 12  1  0
 12 13  1  0
 13 14  2  3
 14 15  1  0
M  CHG  1   9  -1
M  END
