
     RDKit          3D

 31 33  0  0  0  0  0  0  0  0999 V2000
   -0.3880   -2.4770    1.6350 C   0  0  0  0  0  0  0  0  0  0  0  0
   -0.1370   -1.0940    1.7650 O   0  0  0  0  0  0  0  0  0  0  0  0
    0.3640   -0.3390    0.7390 C   0  0  0  0  0  0  0  0  0  0  0  0
   -0.4870    0.2670   -0.1470 C   0  0  0  0  0  0  0  0  0  0  0  0
   -1.8640    0.0810    0.0430 O   0  0  0  0  0  0  0  0  0  0  0  0
   -2.7630    0.6910   -0.8500 C   0  0  0  0  0  0  0  0  0  0  0  0
   -4.1370    0.3540   -0.4490 C   0  0  0  0  0  0  0  0  0  0  0  0
   -4.3680   -0.4380    0.6420 C   0  0  0  0  0  0  0  0  0  0  0  0
   -5.6720   -0.7640    1.0310 C   0  0  0  0  0  0  0  0  0  0  0  0
   -6.7550   -0.2930    0.3220 C   0  0  0  0  0  0  0  0  0  0  0  0
   -8.1510   -0.6310    0.7230 C   0  0  0  0  0  0  0  0  0  0  0  0
   -6.5020    0.5040   -0.7760 C   0  0  0  0  0  0  0  0  0  0  0  0
   -5.2010    0.8310   -1.1670 C   0  0  0  0  0  0  0  0  0  0  0  0
   -4.9730    1.6930   -2.3550 C   0  0  0  0  0  0  0  0  0  0  0  0
   -0.0010    1.0290   -1.1840 C   0  0  0  0  0  0  0  0  0  0  0  0
    1.3520    1.1680   -1.3080 C   0  0  0  0  0  0  0  0  0  0  0  0
    2.2360    0.5520   -0.4030 C   0  0  0  0  0  0  0  0  0  0  0  0
    3.6660    0.8530   -0.5850 C   0  0  0  0  0  0  0  0  0  0  0  0
    3.9760    1.5280   -1.6380 O   0  0  0  0  0  0  0  0  0  0  0  0
    4.7310    0.4970    0.2330 N   0  0  0  0  0  0  0  0  0  0  0  0
    6.1210    0.7540    0.0720 C   0  0  0  0  0  0  0  0  0  0  0  0
    6.5570    1.4520   -1.0200 C   0  0  0  0  0  0  0  0  0  0  0  0
    8.2660    1.7020   -1.1060 S   0  0  0  0  0  0  0  0  0  0  0  0
    9.1050    1.0280    0.1960 C   0  0  0  0  0  0  0  0  0  0  0  0
   10.3670    1.0830    0.3510 O   0  0  0  0  0  0  0  0  0  0  0  0
    8.3120    0.4100    1.0820 N   0  0  0  0  0  0  0  0  0  0  0  0
    7.0000    0.2790    1.0450 C   0  0  0  0  0  0  0  0  0  0  0  0
    6.4430   -0.3600    2.0150 O   0  0  0  0  0  0  0  0  0  0  0  0
    1.7570   -0.1980    0.6110 C   0  0  0  0  0  0  0  0  0  0  0  0
    2.5470   -0.8680    1.5700 O   0  0  0  0  0  0  0  0  0  0  0  0
    2.8930   -2.2480    1.3260 C   0  0  0  0  0  0  0  0  0  0  0  0
  1  2  1  0
  2  3  1  0
  3  4  2  0
  3 29  1  0
  4  5  1  0
  4 15  1  0
  5  6  1  0
  6  7  1  0
  7  8  2  0
  7 13  1  0
  8  9  1  0
  9 10  2  0
 10 11  1  0
 10 12  1  0
 12 13  2  0
 13 14  1  0
 15 16  2  0
 16 17  1  0
 17 18  1  0
 17 29  2  0
 18 19  2  0
 18 20  1  0
 20 21  1  0
 21 22  2  0
 21 27  1  0
 22 23  1  0
 23 24  1  0
 24 25  2  0
 24 26  1  0
 26 27  1  0
 27 28  2  0
 29 30  1  0
 30 31  1  0
M  END
