
     RDKit          3D

 29 31  0  0  0  0  0  0  0  0999 V2000
    6.4370    2.9490    0.2520 C   0  0  0  0  0  0  0  0  0  0  0  0
    4.9550    3.0580    0.3700 C   0  0  0  0  0  0  0  0  0  0  0  0
    4.2780    1.7020    0.1140 C   0  0  0  0  0  0  0  0  0  0  0  0
    5.0200    0.7940   -0.1380 O   0  0  0  0  0  0  0  0  0  0  0  0
    2.9140    1.5990    0.1820 N   0  0  0  0  0  0  0  0  0  0  0  0
    1.9600    0.6530    0.0530 C   0  0  0  0  0  0  0  0  0  0  0  0
    0.8090    1.3270    1.0900 C   0  0  0  0  0  0  0  0  0  0  0  0
    1.4950   -0.5220   -0.1500 C   0  0  0  0  0  0  0  0  0  0  0  0
    0.0260   -0.7570   -0.1780 C   0  0  0  0  0  0  0  0  0  0  0  0
   -0.8250    0.3530   -0.5530 N   0  0  0  0  0  0  0  0  0  0  0  0
   -2.2430    0.1610   -0.4620 C   0  0  0  0  0  0  0  0  0  0  0  0
   -2.9710    0.8390    0.3580 C   0  0  0  0  0  0  0  0  0  0  0  0
   -2.4300    1.8840    1.2870 C   0  0  0  0  0  0  0  0  0  0  0  0
   -4.4360    0.6210    0.4450 C   0  0  0  0  0  0  0  0  0  0  0  0
   -5.0120   -0.3660   -0.4850 C   0  0  1  0  0  0  0  0  0  0  0  0
   -6.0790    0.3020   -1.3790 C   0  0  0  0  0  0  0  0  0  0  0  0
   -7.1400    0.8390   -0.4680 C   0  0  0  0  0  0  0  0  0  0  0  0
   -4.0840   -1.0690   -1.3700 C   0  0  0  0  0  0  0  0  0  0  0  0
   -2.8020   -0.8360   -1.3700 C   0  0  0  0  0  0  0  0  0  0  0  0
   -1.9680   -1.5210   -2.2410 F   0  0  0  0  0  0  0  0  0  0  0  0
   -0.5480   -1.8950   -0.1330 N   0  0  0  0  0  0  0  0  0  0  0  0
    0.1480   -3.1010   -0.0590 C   0  0  0  0  0  0  0  0  0  0  0  0
   -0.2210   -4.3780   -0.0050 N   0  0  0  0  0  0  0  0  0  0  0  0
    0.8050   -5.1300    0.0500 O   0  0  0  0  0  0  0  0  0  0  0  0
    1.9070   -4.3630    0.0350 C   0  0  0  0  0  0  0  0  0  0  0  0
    1.5320   -3.0340   -0.0360 C   0  0  0  0  0  0  0  0  0  0  0  0
    2.2350   -1.7820   -0.0800 N   0  0  0  0  0  0  0  0  0  0  0  0
    3.6420   -1.7450   -0.0580 C   0  0  0  0  0  0  0  0  0  0  0  0
    4.4670   -2.9730    0.0520 C   0  0  0  0  0  0  0  0  0  0  0  0
  1  2  1  0
  2  3  1  0
  3  4  2  0
  3  5  1  0
  5  6  1  0
  6  7  1  0
  6  8  2  3
  8  9  1  0
  8 27  1  0
  9 10  1  0
  9 21  2  0
 10 11  1  0
 11 12  2  0
 11 19  1  0
 12 13  1  0
 12 14  1  0
 14 15  1  0
 15 16  1  6
 15 18  1  0
 16 17  1  0
 18 19  2  0
 19 20  1  0
 21 22  1  0
 22 23  2  0
 22 26  1  0
 23 24  1  0
 24 25  1  0
 25 26  2  0
 26 27  1  0
 27 28  1  0
 28 29  1  0
M  END
