
     RDKit          3D

 31 33  0  0  0  0  0  0  0  0999 V2000
    8.9250    0.1160    0.1100 C   0  0  0  0  0  0  0  0  0  0  0  0
    7.5380   -0.3160    0.3930 C   0  0  0  0  0  0  0  0  0  0  0  0
    6.6590   -0.3350   -0.5850 C   0  0  0  0  0  0  0  0  0  0  0  0
    7.1030    0.0830   -1.9460 C   0  0  0  0  0  0  0  0  0  0  0  0
    5.3630   -0.7380   -0.3290 O   0  0  0  0  0  0  0  0  0  0  0  0
    4.3350    0.2170   -0.1680 C   0  0  0  0  0  0  0  0  0  0  0  0
    4.7040    1.5310   -0.2810 C   0  0  0  0  0  0  0  0  0  0  0  0
    3.6920    2.4720   -0.1230 C   0  0  0  0  0  0  0  0  0  0  0  0
    2.3920    2.0300    0.1360 C   0  0  0  0  0  0  0  0  0  0  0  0
    0.8650    2.9280    0.3920 S   0  0  0  0  0  0  0  0  0  0  0  0
   -0.1520    1.4790    0.6310 C   0  0  0  0  0  0  0  0  0  0  0  0
   -1.5790    1.4920    0.8980 C   0  0  0  0  0  0  0  0  0  0  0  0
   -2.1560    2.6040    0.9690 O   0  0  0  0  0  0  0  0  0  0  0  0
   -2.2950    0.2860    1.0730 N   0  0  0  0  0  0  0  0  0  0  0  0
   -3.7450    0.3210    1.3400 C   0  0  2  0  0  0  0  0  0  0  0  0
   -3.9180   -0.1760    2.6940 C   0  0  0  0  0  0  0  0  0  0  0  0
   -3.3620    0.4870    3.6630 O   0  0  0  0  0  0  0  0  0  0  0  0
   -4.6600   -1.3360    2.9810 N   0  0  0  0  0  0  0  0  0  0  0  0
   -5.2880   -2.0820    1.9660 C   0  0  0  0  0  0  0  0  0  0  0  0
   -5.9560   -3.1170    2.1820 O   0  0  0  0  0  0  0  0  0  0  0  0
   -5.1280   -1.5830    0.5700 C   0  0  0  0  0  0  0  0  0  0  0  0
   -5.7650   -2.4050   -0.4650 C   0  0  0  0  0  0  0  0  0  0  0  0
   -7.2810   -2.3910   -0.3610 C   0  0  0  0  0  0  0  0  0  0  0  0
   -4.4390   -0.5090    0.3110 C   0  0  0  0  0  0  0  0  0  0  0  0
   -4.3530   -0.0150   -1.0860 C   0  0  0  0  0  0  0  0  0  0  0  0
   -4.8750   -0.4950   -2.0720 O   0  0  0  0  0  0  0  0  0  0  0  0
   -3.5800    1.1450   -1.3220 O   0  0  0  0  0  0  0  0  0  0  0  0
   -3.4570    1.6720   -2.6460 C   0  0  0  0  0  0  0  0  0  0  0  0
    0.7240    0.4540    0.5010 C   0  0  0  0  0  0  0  0  0  0  0  0
    2.0200    0.7390    0.2490 C   0  0  0  0  0  0  0  0  0  0  0  0
    3.0640   -0.2080    0.0850 C   0  0  0  0  0  0  0  0  0  0  0  0
  1  2  1  0
  2  3  2  3
  3  4  1  0
  3  5  1  0
  5  6  1  0
  6  7  2  0
  6 31  1  0
  7  8  1  0
  8  9  2  0
  9 10  1  0
  9 30  1  0
 10 11  1  0
 11 12  1  0
 11 29  2  0
 12 13  2  0
 12 14  1  0
 15 14  1  6
 15 16  1  0
 15 24  1  0
 16 17  2  0
 16 18  1  0
 18 19  1  0
 19 20  2  0
 19 21  1  0
 21 22  1  0
 21 24  2  0
 22 23  1  0
 24 25  1  0
 25 26  2  0
 25 27  1  0
 27 28  1  0
 29 30  1  0
 30 31  2  0
M  END
