
     RDKit          3D

 31 33  0  0  0  0  0  0  0  0999 V2000
   -6.8560    2.9740   -0.8930 C   0  0  0  0  0  0  0  0  0  0  0  0
   -6.2230    2.3010    0.1980 O   0  0  0  0  0  0  0  0  0  0  0  0
   -5.2890    1.3280   -0.1270 C   0  0  0  0  0  0  0  0  0  0  0  0
   -4.9630    1.0040   -1.4320 C   0  0  0  0  0  0  0  0  0  0  0  0
   -4.0240    0.0260   -1.7200 C   0  0  0  0  0  0  0  0  0  0  0  0
   -3.3680   -0.6730   -0.7310 C   0  0  0  0  0  0  0  0  0  0  0  0
   -2.4280   -1.6540   -0.9900 O   0  0  0  0  0  0  0  0  0  0  0  0
   -1.1060   -1.6310   -0.5560 C   0  0  0  0  0  0  0  0  0  0  0  0
   -0.6370   -2.6210    0.2780 C   0  0  0  0  0  0  0  0  0  0  0  0
    0.6630   -2.6000    0.7070 C   0  0  0  0  0  0  0  0  0  0  0  0
    1.1070   -3.6110    1.5470 O   0  0  0  0  0  0  0  0  0  0  0  0
    0.2420   -4.6250    1.9440 C   0  0  0  0  0  0  0  0  0  0  0  0
    1.4950   -1.5880    0.3000 C   0  0  0  0  0  0  0  0  0  0  0  0
    1.0610   -0.5830   -0.5330 C   0  0  0  0  0  0  0  0  0  0  0  0
   -0.2300   -0.6100   -0.9550 C   0  0  0  0  0  0  0  0  0  0  0  0
   -0.7060    0.4500   -1.8670 C   0  0  0  0  0  0  0  0  0  0  0  0
    2.0320    0.7490   -1.0950 S   0  0  2  0  0  0  0  0  0  0  0  0
    1.4180    2.0400   -0.6950 O   0  0  0  0  0  0  0  0  0  0  0  0
    2.3360    0.6690   -2.5690 O   0  0  0  0  0  0  0  0  0  0  0  0
    3.6180    0.6510   -0.3290 N   0  0  0  0  0  0  0  0  0  0  0  0
    3.9310    1.7050    0.5270 C   0  0  0  0  0  0  0  0  0  0  0  0
    4.8030    2.6250    0.1710 C   0  0  0  0  0  0  0  0  0  0  0  0
    5.5110    2.6200   -1.1350 C   0  0  0  0  0  0  0  0  0  0  0  0
    5.0910    3.6810    1.0760 N   0  0  0  0  0  0  0  0  0  0  0  0
    4.5250   -0.4490   -0.5600 C   0  0  0  0  0  0  0  0  0  0  0  0
    3.9400   -1.7400   -0.1410 C   0  0  0  0  0  0  0  0  0  0  0  0
    2.8460   -1.7380    0.8620 C   0  0  0  0  0  0  0  0  0  0  0  0
   -3.7000   -0.3420    0.5890 C   0  0  0  0  0  0  0  0  0  0  0  0
   -3.0380   -1.0480    1.5860 O   0  0  0  0  0  0  0  0  0  0  0  0
   -3.3630   -0.7260    2.9420 C   0  0  0  0  0  0  0  0  0  0  0  0
   -4.6360    0.6330    0.8670 C   0  0  0  0  0  0  0  0  0  0  0  0
  1  2  1  0
  2  3  1  0
  3  4  2  0
  3 31  1  0
  4  5  1  0
  5  6  2  0
  6  7  1  0
  6 28  1  0
  7  8  1  0
  8  9  2  0
  8 15  1  0
  9 10  1  0
 10 11  1  0
 10 13  2  0
 11 12  1  0
 13 14  1  0
 13 27  1  0
 14 15  2  0
 14 17  1  0
 15 16  1  0
 17 18  2  0
 17 19  2  0
 17 20  1  1
 20 21  1  0
 20 25  1  0
 21 22  2  3
 22 23  1  0
 22 24  1  0
 25 26  1  0
 26 27  1  0
 28 29  1  0
 28 31  2  0
 29 30  1  0
M  END
