
     RDKit          3D

 29 31  0  0  0  0  0  0  0  0999 V2000
    6.3650   -0.7290   -2.6430 C   0  0  0  0  0  0  0  0  0  0  0  0
    5.4320   -0.7130   -1.7130 C   0  0  0  0  0  0  0  0  0  0  0  0
    4.3580   -1.7020   -1.8370 C   0  0  0  0  0  0  0  0  0  0  0  0
    4.4840   -2.5040   -2.7990 O   0  0  0  0  0  0  0  0  0  0  0  0
    3.2010   -1.9000   -1.0490 N   0  0  0  0  0  0  0  0  0  0  0  0
    2.5640   -1.0430   -0.1300 C   0  0  0  0  0  0  0  0  0  0  0  0
    1.6840   -1.5590    0.6480 N   0  0  0  0  0  0  0  0  0  0  0  0
    0.9910   -0.8240    1.5910 N   0  0  0  0  0  0  0  0  0  0  0  0
   -0.2860   -0.2580    1.1800 C   0  0  0  0  0  0  0  0  0  0  0  0
   -0.6830   -0.4640    0.0110 O   0  0  0  0  0  0  0  0  0  0  0  0
   -1.0100    0.5150    2.1810 C   0  0  0  0  0  0  0  0  0  0  0  0
   -2.2070    1.1090    1.8850 O   0  0  0  0  0  0  0  0  0  0  0  0
   -3.3430    0.4780    1.4600 C   0  0  0  0  0  0  0  0  0  0  0  0
   -4.1580   -0.1320    2.4350 C   0  0  0  0  0  0  0  0  0  0  0  0
   -3.7290   -0.0390    3.7290 F   0  0  0  0  0  0  0  0  0  0  0  0
   -5.3200   -0.7850    2.1080 C   0  0  0  0  0  0  0  0  0  0  0  0
   -5.7470   -0.8760    0.8030 C   0  0  0  0  0  0  0  0  0  0  0  0
   -4.9830   -0.2930   -0.1780 C   0  0  0  0  0  0  0  0  0  0  0  0
   -5.3420   -0.3360   -1.5360 O   0  0  0  0  0  0  0  0  0  0  0  0
   -6.5330   -1.0010   -1.9160 C   0  0  0  0  0  0  0  0  0  0  0  0
   -3.7990    0.3720    0.1690 C   0  0  0  0  0  0  0  0  0  0  0  0
   -3.0520    0.9580   -0.8430 O   0  0  0  0  0  0  0  0  0  0  0  0
   -3.3240    2.3110   -1.2090 C   0  0  0  0  0  0  0  0  0  0  0  0
    2.8460    0.7090    0.0790 S   0  0  0  0  0  0  0  0  0  0  0  0
    4.6350    0.9290    0.1100 C   0  0  0  0  0  0  0  0  0  0  0  0
    5.2970    1.7990    0.9530 C   0  0  0  0  0  0  0  0  0  0  0  0
    6.6000    1.6970    0.6990 N   0  0  0  0  0  0  0  0  0  0  0  0
    6.8260    0.7970   -0.2760 C   0  0  0  0  0  0  0  0  0  0  0  0
    5.5870    0.3000   -0.6610 C   0  0  0  0  0  0  0  0  0  0  0  0
  1  2  2  0
  2  3  1  0
  2 29  1  0
  3  4  2  0
  3  5  1  0
  5  6  1  0
  6  7  2  3
  6 24  1  0
  7  8  1  0
  8  9  1  0
  9 10  2  0
  9 11  1  0
 11 12  1  0
 12 13  1  0
 13 14  2  0
 13 21  1  0
 14 15  1  0
 14 16  1  0
 16 17  2  0
 17 18  1  0
 18 19  1  0
 18 21  2  0
 19 20  1  0
 21 22  1  0
 22 23  1  0
 24 25  1  0
 25 26  2  0
 25 29  1  0
 26 27  1  0
 27 28  1  0
 28 29  2  0
M  END
