
     RDKit          3D

 29 31  0  0  0  0  0  0  0  0999 V2000
   -4.8390    5.2090    0.4720 C   0  0  0  0  0  0  0  0  0  0  0  0
   -3.6230    4.6530    0.7940 O   0  0  0  0  0  0  0  0  0  0  0  0
   -3.5890    3.2910    0.6070 C   0  0  0  0  0  0  0  0  0  0  0  0
   -3.8390    2.8650   -0.8220 C   0  0  0  0  0  0  0  0  0  0  0  0
   -3.7810    1.4220   -0.9480 N   0  0  0  0  0  0  0  0  0  0  0  0
   -2.5250    0.7170   -0.7750 C   0  0  0  0  0  0  0  0  0  0  0  0
   -1.4290    1.2900   -0.9030 N   0  0  0  0  0  0  0  0  0  0  0  0
   -0.2450    0.5990   -0.7340 C   0  0  0  0  0  0  0  0  0  0  0  0
    0.9910    0.9310   -0.8300 N   0  0  0  0  0  0  0  0  0  0  0  0
    2.0510   -0.0120   -0.5940 C   0  0  0  0  0  0  0  0  0  0  0  0
    1.8730   -1.2410   -0.7610 O   0  0  0  0  0  0  0  0  0  0  0  0
    3.3180    0.4400   -0.1660 N   0  0  0  0  0  0  0  0  0  0  0  0
    4.4550   -0.3560    0.1090 C   0  0  0  0  0  0  0  0  0  0  0  0
    4.5360   -1.7070    0.0910 C   0  0  0  0  0  0  0  0  0  0  0  0
    5.7060   -2.4080    0.3710 C   0  0  0  0  0  0  0  0  0  0  0  0
    5.7320   -3.7520    0.3390 F   0  0  0  0  0  0  0  0  0  0  0  0
    6.8680   -1.7360    0.6900 C   0  0  0  0  0  0  0  0  0  0  0  0
    6.8190   -0.3630    0.7180 C   0  0  0  0  0  0  0  0  0  0  0  0
    8.0270    0.3690    1.0500 C   0  0  0  0  0  0  0  0  0  0  0  0
    9.0770   -0.2620    1.3020 O   0  0  0  0  0  0  0  0  0  0  0  0
    5.6330    0.3140    0.4320 C   0  0  0  0  0  0  0  0  0  0  0  0
   -0.7780   -1.0820   -0.2970 S   0  0  0  0  0  0  0  0  0  0  0  0
   -2.5100   -0.6840   -0.4460 C   0  0  0  0  0  0  0  0  0  0  0  0
   -3.4960   -1.5190   -0.2820 C   0  0  0  0  0  0  0  0  0  0  0  0
   -3.2670   -2.9260    0.0550 C   0  0  0  0  0  0  0  0  0  0  0  0
   -4.1350   -3.8770    0.2500 C   0  0  0  0  0  0  0  0  0  0  0  0
   -3.4700   -5.0740    0.5520 O   0  0  0  0  0  0  0  0  0  0  0  0
   -2.0830   -4.8790    0.3860 C   0  0  0  0  0  0  0  0  0  0  0  0
   -2.0000   -3.4830    0.2260 O   0  0  0  0  0  0  0  0  0  0  0  0
  1  2  1  0
  2  3  1  0
  3  4  1  0
  4  5  1  0
  5  6  1  0
  6  7  2  0
  6 23  1  0
  7  8  1  0
  8  9  2  3
  8 22  1  0
  9 10  1  0
 10 11  2  0
 10 12  1  0
 12 13  1  0
 13 14  2  0
 13 21  1  0
 14 15  1  0
 15 16  1  0
 15 17  2  0
 17 18  1  0
 18 19  1  0
 18 21  2  0
 19 20  2  0
 22 23  1  0
 23 24  2  3
 24 25  1  0
 25 26  2  0
 25 29  1  0
 26 27  1  0
 27 28  1  0
 28 29  1  0
M  END
