
     RDKit          3D

 29 31  0  0  0  0  0  0  0  0999 V2000
   -6.8430    2.0530   -1.5050 C   0  0  0  0  0  0  0  0  0  0  0  0
   -6.1720    0.7690   -1.3770 N   0  0  0  0  0  0  0  0  0  0  0  0
   -6.7060   -0.3420   -2.0700 C   0  0  0  0  0  0  0  0  0  0  0  0
   -7.7570   -0.2140   -2.7870 O   0  0  0  0  0  0  0  0  0  0  0  0
   -6.0470   -1.6510   -1.9620 C   0  0  0  0  0  0  0  0  0  0  0  0
   -4.8410   -1.6550   -1.2500 O   0  0  0  0  0  0  0  0  0  0  0  0
   -3.7050   -0.9740   -1.6200 C   0  0  0  0  0  0  0  0  0  0  0  0
   -3.7530   -0.2950   -2.6920 O   0  0  0  0  0  0  0  0  0  0  0  0
   -2.5060   -0.9970   -0.8700 C   0  0  0  0  0  0  0  0  0  0  0  0
   -2.0640   -1.5690    0.2740 C   0  0  0  0  0  0  0  0  0  0  0  0
   -0.8300   -1.3970    0.7450 C   0  0  0  0  0  0  0  0  0  0  0  0
   -0.2650   -1.9210    1.8870 N   0  0  0  0  0  0  0  0  0  0  0  0
    0.9920   -1.6650    2.2420 C   0  0  0  0  0  0  0  0  0  0  0  0
    1.4280   -2.2000    3.3240 O   0  0  0  0  0  0  0  0  0  0  0  0
    1.8770   -0.8650    1.5410 C   0  0  0  0  0  0  0  0  0  0  0  0
    3.1900   -0.6570    2.0030 N   0  0  0  0  0  0  0  0  0  0  0  0
    4.1940    0.1290    1.3930 C   0  0  0  0  0  0  0  0  0  0  0  0
    3.9730    0.7930    0.2410 N   0  0  0  0  0  0  0  0  0  0  0  0
    4.8380    1.5490   -0.4050 C   0  0  0  0  0  0  0  0  0  0  0  0
    4.4770    2.2450   -1.6910 C   0  0  0  0  0  0  0  0  0  0  0  0
    6.0870    1.6920    0.1200 C   0  0  0  0  0  0  0  0  0  0  0  0
    6.9910    2.4580   -0.5190 F   0  0  0  0  0  0  0  0  0  0  0  0
    6.4160    1.0610    1.2840 C   0  0  0  0  0  0  0  0  0  0  0  0
    5.4420    0.2610    1.9340 C   0  0  0  0  0  0  0  0  0  0  0  0
    5.8310   -0.3870    3.1620 C   0  0  0  0  0  0  0  0  0  0  0  0
    5.1620   -1.1280    3.9020 O   0  0  0  0  0  0  0  0  0  0  0  0
    1.3450   -0.3190    0.3840 C   0  0  0  0  0  0  0  0  0  0  0  0
    0.0450   -0.5990    0.0400 C   0  0  0  0  0  0  0  0  0  0  0  0
   -0.9760   -0.0680   -1.3860 S   0  0  0  0  0  0  0  0  0  0  0  0
  1  2  1  0
  2  3  1  0
  3  4  2  0
  3  5  1  0
  5  6  1  0
  6  7  1  0
  7  8  2  0
  7  9  1  0
  9 10  2  0
  9 29  1  0
 10 11  1  0
 11 12  1  0
 11 28  2  0
 12 13  1  0
 13 14  2  0
 13 15  1  0
 15 16  1  0
 15 27  2  0
 16 17  1  0
 17 18  2  0
 17 24  1  0
 18 19  1  0
 19 20  1  0
 19 21  2  0
 21 22  1  0
 21 23  1  0
 23 24  2  0
 24 25  1  0
 25 26  2  0
 27 28  1  0
 28 29  1  0
M  END
