
     RDKit          3D

 29 31  0  0  0  0  0  0  0  0999 V2000
   -6.4820   -2.6760   -0.2550 C   0  0  0  0  0  0  0  0  0  0  0  0
   -5.5210   -3.2180   -1.1260 O   0  0  0  0  0  0  0  0  0  0  0  0
   -4.2890   -3.1350   -0.5460 C   0  0  0  0  0  0  0  0  0  0  0  0
   -3.8810   -1.8080   -0.1150 C   0  0  0  0  0  0  0  0  0  0  0  0
   -2.9480   -1.0350   -0.5480 N   0  0  0  0  0  0  0  0  0  0  0  0
   -2.8240    0.1270    0.0850 C   0  0  0  0  0  0  0  0  0  0  0  0
   -1.8350    1.1360   -0.2140 C   0  0  2  0  0  0  0  0  0  0  0  0
   -0.6160    0.5050   -0.6430 N   0  0  0  0  0  0  0  0  0  0  0  0
    0.2850   -0.0820    0.4340 C   0  0  0  0  0  0  0  0  0  0  0  0
   -0.1340   -0.2630    1.5360 O   0  0  0  0  0  0  0  0  0  0  0  0
    1.5260   -0.2010   -0.1480 N   0  0  0  0  0  0  0  0  0  0  0  0
    2.2630   -1.2950    1.0230 C   0  0  0  0  0  0  0  0  0  0  0  0
    1.4700   -1.9560    1.5210 O   0  0  0  0  0  0  0  0  0  0  0  0
    3.6830   -1.0580    1.0280 C   0  0  0  0  0  0  0  0  0  0  0  0
    4.5360   -1.8230    0.2480 O   0  0  0  0  0  0  0  0  0  0  0  0
    5.8810   -1.4690    0.1480 C   0  0  0  0  0  0  0  0  0  0  0  0
    6.1690   -0.2180   -0.1600 C   0  0  0  0  0  0  0  0  0  0  0  0
    7.3070    0.6230   -0.3640 C   0  0  0  0  0  0  0  0  0  0  0  0
    8.8210   -0.4030   -0.2130 S   0  0  0  0  0  0  0  0  0  0  0  0
    8.2210   -2.0180    0.2920 C   0  0  0  0  0  0  0  0  0  0  0  0
    9.2120   -2.9400    0.5350 F   0  0  0  0  0  0  0  0  0  0  0  0
    6.9630   -2.3940    0.4110 C   0  0  0  0  0  0  0  0  0  0  0  0
   -1.4840    2.0960    0.8750 C   0  0  0  0  0  0  0  0  0  0  0  0
   -2.5620    3.0580    1.2600 C   0  0  0  0  0  0  0  0  0  0  0  0
   -3.1050    3.7920    0.0680 C   0  0  0  0  0  0  0  0  0  0  0  0
   -3.4710    2.8150   -1.0190 C   0  0  0  0  0  0  0  0  0  0  0  0
   -2.2830    2.0000   -1.4160 C   0  0  0  0  0  0  0  0  0  0  0  0
   -3.8160    0.0550    1.0370 N   0  0  0  0  0  0  0  0  0  0  0  0
   -4.4430   -1.0940    0.9360 O   0  0  0  0  0  0  0  0  0  0  0  0
  1  2  1  0
  2  3  1  0
  3  4  1  0
  4  5  2  0
  4 29  1  0
  5  6  1  0
  6  7  1  0
  6 28  2  0
  7  8  1  6
  7 23  1  0
  7 27  1  0
  8  9  1  0
  9 10  2  0
  9 11  1  0
 11 12  1  0
 12 13  2  0
 12 14  1  0
 14 15  1  0
 15 16  1  0
 16 17  2  0
 16 22  1  0
 17 18  1  0
 18 19  1  0
 19 20  1  0
 20 21  1  0
 20 22  2  0
 23 24  1  0
 24 25  1  0
 25 26  1  0
 26 27  1  0
 28 29  1  0
M  END
