
     RDKit          3D

 29 31  0  0  0  0  0  0  0  0999 V2000
    6.4680    0.8650    0.8640 C   0  0  0  0  0  0  0  0  0  0  0  0
    5.4900   -0.2550    0.8420 N   0  0  0  0  0  0  0  0  0  0  0  0
    4.1360   -0.0050    0.5570 C   0  0  0  0  0  0  0  0  0  0  0  0
    3.2520   -0.9710    0.5310 C   0  0  0  0  0  0  0  0  0  0  0  0
    1.8900   -0.7750    0.2520 N   0  0  0  0  0  0  0  0  0  0  0  0
    1.2510    0.4450   -0.0370 C   0  0  0  0  0  0  0  0  0  0  0  0
    1.9140    1.4900   -0.0630 O   0  0  0  0  0  0  0  0  0  0  0  0
   -0.1810    0.5010   -0.3090 C   0  0  0  0  0  0  0  0  0  0  0  0
   -0.9250   -0.5530   -0.2970 C   0  0  0  0  0  0  0  0  0  0  0  0
   -2.3270   -0.6290   -0.5440 N   0  0  0  0  0  0  0  0  0  0  0  0
   -3.0170   -1.8870   -0.4940 C   0  0  0  0  0  0  0  0  0  0  0  0
   -3.5490   -2.2200    0.8610 C   0  0  0  0  0  0  0  0  0  0  0  0
   -4.2370   -3.5290    0.7970 C   0  0  0  0  0  0  0  0  0  0  0  0
   -4.8380   -4.0860    1.9530 N   0  0  0  0  0  0  0  0  0  0  0  0
   -4.3030   -4.1700   -0.2770 O   0  0  0  0  0  0  0  0  0  0  0  0
   -3.1690    0.8140   -0.9030 S   0  0  1  0  0  0  0  0  0  0  0  0
   -3.7860    0.7790   -2.2710 O   0  0  0  0  0  0  0  0  0  0  0  0
   -4.2190    1.0940    0.1550 O   0  0  0  0  0  0  0  0  0  0  0  0
   -1.9890    2.0940   -0.8660 C   0  0  0  0  0  0  0  0  0  0  0  0
   -2.3880    3.4930   -1.1370 C   0  0  0  0  0  0  0  0  0  0  0  0
   -3.6770    3.8770   -1.4280 C   0  0  0  0  0  0  0  0  0  0  0  0
   -3.6890    5.2650   -1.6260 C   0  0  0  0  0  0  0  0  0  0  0  0
   -2.3730    5.6320   -1.4360 C   0  0  0  0  0  0  0  0  0  0  0  0
   -1.9610    6.9260   -1.5430 F   0  0  0  0  0  0  0  0  0  0  0  0
   -1.6600    4.5710   -1.1550 O   0  0  0  0  0  0  0  0  0  0  0  0
   -0.7380    1.8040   -0.5950 C   0  0  0  0  0  0  0  0  0  0  0  0
    3.7100   -2.3560    0.8100 C   0  0  0  0  0  0  0  0  0  0  0  0
    4.9560   -2.5890    1.0720 C   0  0  0  0  0  0  0  0  0  0  0  0
    5.9980   -1.5610    1.1190 C   0  0  0  0  0  0  0  0  0  0  0  0
  1  2  1  0
  2  3  1  0
  2 29  1  0
  3  4  2  0
  4  5  1  0
  4 27  1  0
  5  6  1  0
  6  7  2  0
  6  8  1  0
  8  9  2  0
  8 26  1  0
  9 10  1  0
 10 11  1  0
 16 10  1  1
 11 12  1  0
 12 13  1  0
 13 14  1  0
 13 15  2  0
 16 17  2  0
 16 18  2  0
 16 19  1  0
 19 20  1  0
 19 26  2  0
 20 21  2  0
 20 25  1  0
 21 22  1  0
 22 23  2  0
 23 24  1  0
 23 25  1  0
 27 28  2  0
 28 29  1  0
M  END
