
     RDKit          3D

 29 31  0  0  0  0  0  0  0  0999 V2000
   -7.8890   -1.3710   -0.0640 C   0  0  0  0  0  0  0  0  0  0  0  0
   -6.3940   -1.2820   -0.2010 C   0  0  0  0  0  0  0  0  0  0  0  0
   -5.6100   -2.3130   -0.5480 N   0  0  0  0  0  0  0  0  0  0  0  0
   -4.3550   -1.8580   -0.5660 C   0  0  0  0  0  0  0  0  0  0  0  0
   -3.1230   -2.4660   -0.8530 C   0  0  0  0  0  0  0  0  0  0  0  0
   -2.0310   -1.7130   -0.7770 N   0  0  0  0  0  0  0  0  0  0  0  0
   -2.0040   -0.4190   -0.4490 C   0  0  0  0  0  0  0  0  0  0  0  0
   -0.8210    0.3190   -0.3860 N   0  0  0  0  0  0  0  0  0  0  0  0
    0.5080   -0.1050   -0.6370 C   0  0  0  0  0  0  0  0  0  0  0  0
    0.8120   -1.3870   -0.9980 C   0  0  0  0  0  0  0  0  0  0  0  0
    2.1400   -1.7750   -1.2390 C   0  0  0  0  0  0  0  0  0  0  0  0
    3.0820   -0.8590   -1.1060 N   0  0  0  0  0  0  0  0  0  0  0  0
    2.8450    0.4060   -0.7560 C   0  0  0  0  0  0  0  0  0  0  0  0
    3.8190    1.3570   -0.6170 O   0  0  0  0  0  0  0  0  0  0  0  0
    5.1620    1.3920   -0.7470 C   0  0  0  0  0  0  0  0  0  0  0  0
    6.0320    0.5640    0.1350 C   0  0  2  0  0  0  0  0  0  0  0  0
    5.8370   -0.9230    0.0530 C   0  0  0  0  0  0  0  0  0  0  0  0
    5.8260    1.0670    1.5590 C   0  0  0  0  0  0  0  0  0  0  0  0
    7.7690    0.8760   -0.2390 S   0  0  2  0  0  0  0  0  0  0  0  0
    8.7540   -0.1270    0.8310 C   0  0  0  0  0  0  0  0  0  0  0  0
    8.0950    2.3190    0.0020 O   0  0  0  0  0  0  0  0  0  0  0  0
    8.0700    0.5080   -1.6510 O   0  0  0  0  0  0  0  0  0  0  0  0
    1.5390    0.7470   -0.5290 N   0  0  0  0  0  0  0  0  0  0  0  0
   -3.2150    0.2220   -0.1550 C   0  0  0  0  0  0  0  0  0  0  0  0
   -4.3810   -0.5370   -0.2250 C   0  0  0  0  0  0  0  0  0  0  0  0
   -5.6850   -0.1860    0.0040 N   0  0  0  0  0  0  0  0  0  0  0  0
   -6.0970    1.1460    0.3890 C   0  0  1  0  0  0  0  0  0  0  0  0
   -6.7170    1.9010   -0.7630 C   0  0  0  0  0  0  0  0  0  0  0  0
   -7.1260    1.1090    1.5030 C   0  0  0  0  0  0  0  0  0  0  0  0
  1  2  1  0
  2  3  2  0
  2 26  1  0
  3  4  1  0
  4  5  2  0
  4 25  1  0
  5  6  1  0
  6  7  2  0
  7  8  1  0
  7 24  1  0
  8  9  1  0
  9 10  2  0
  9 23  1  0
 10 11  1  0
 11 12  2  0
 12 13  1  0
 13 14  1  0
 13 23  2  0
 14 15  1  0
 15 16  1  0
 16 17  1  1
 16 18  1  0
 16 19  1  0
 19 20  1  1
 19 21  2  0
 19 22  2  0
 24 25  2  0
 25 26  1  0
 26 27  1  0
 27 28  1  6
 27 29  1  0
M  END
