
     RDKit          3D

 30 33  0  0  0  0  0  0  0  0999 V2000
    6.4840    0.9530    0.1720 C   0  0  0  0  0  0  0  0  0  0  0  0
    5.5730   -0.0590   -0.5120 C   0  0  0  0  0  0  0  0  0  0  0  0
    4.3570   -0.2470    0.3040 C   0  0  0  0  0  0  0  0  0  0  0  0
    4.2180    0.4140    1.3130 O   0  0  0  0  0  0  0  0  0  0  0  0
    3.3290   -1.2240   -0.0970 C   0  0  2  0  0  0  0  0  0  0  0  0
    2.8170   -0.7910   -1.4630 C   0  0  0  0  0  0  0  0  0  0  0  0
    1.9420   -1.3930    0.9970 S   0  0  0  0  0  0  0  0  0  0  0  0
    0.8280   -0.0080    0.9230 C   0  0  0  0  0  0  0  0  0  0  0  0
    1.0540    1.1180    1.6050 N   0  0  0  0  0  0  0  0  0  0  0  0
    0.2330    2.1810    1.6060 C   0  0  0  0  0  0  0  0  0  0  0  0
    0.4570    3.2410    2.2540 O   0  0  0  0  0  0  0  0  0  0  0  0
   -0.9120    2.0900    0.8530 C   0  0  0  0  0  0  0  0  0  0  0  0
   -1.1950    0.9520    0.1320 C   0  0  0  0  0  0  0  0  0  0  0  0
   -2.3810    1.1240   -0.5210 N   0  0  0  0  0  0  0  0  0  0  0  0
   -2.8290    2.3530   -0.2110 C   0  0  0  0  0  0  0  0  0  0  0  0
   -3.9700    3.0460   -0.5890 C   0  0  0  0  0  0  0  0  0  0  0  0
   -4.2490    4.3220   -0.1540 C   0  0  0  0  0  0  0  0  0  0  0  0
   -5.7070    5.1550   -0.6620 Cl  0  0  0  0  0  0  0  0  0  0  0  0
   -3.3410    4.9240    0.6970 C   0  0  0  0  0  0  0  0  0  0  0  0
   -2.2010    4.2530    1.0860 C   0  0  0  0  0  0  0  0  0  0  0  0
   -1.9480    2.9780    0.6340 C   0  0  0  0  0  0  0  0  0  0  0  0
   -0.3300   -0.1270    0.1510 C   0  0  0  0  0  0  0  0  0  0  0  0
   -0.6800   -1.3320   -0.6000 C   0  0  0  0  0  0  0  0  0  0  0  0
   -0.2970   -1.4180   -1.7880 O   0  0  0  0  0  0  0  0  0  0  0  0
   -1.4410   -2.3730    0.0240 N   0  0  0  0  0  0  0  0  0  0  0  0
   -1.8380   -2.1860    1.4060 C   0  0  0  0  0  0  0  0  0  0  0  0
   -3.1880   -1.4990    1.5130 C   0  0  0  0  0  0  0  0  0  0  0  0
   -1.8210   -3.5740   -0.6460 C   0  0  2  0  0  0  0  0  0  0  0  0
   -1.0160   -4.1700   -1.7290 C   0  0  0  0  0  0  0  0  0  0  0  0
   -2.2820   -3.4240   -2.0660 C   0  0  0  0  0  0  0  0  0  0  0  0
  1  2  1  0
  2  3  1  0
  3  4  2  0
  3  5  1  0
  5  6  1  6
  5  7  1  0
  7  8  1  0
  8  9  1  0
  8 22  2  0
  9 10  1  0
 10 11  2  0
 10 12  1  0
 12 13  2  0
 12 21  1  0
 13 14  1  0
 13 22  1  0
 14 15  1  0
 15 16  2  0
 15 21  1  0
 16 17  1  0
 17 18  1  0
 17 19  2  0
 19 20  1  0
 20 21  2  0
 22 23  1  0
 23 24  2  0
 23 25  1  0
 25 26  1  0
 28 25  1  6
 26 27  1  0
 28 29  1  0
 28 30  1  0
 29 30  1  0
M  END
