
     RDKit          3D

 30 33  0  0  0  0  0  0  0  0999 V2000
    6.5870   -2.4310   -2.0210 O   0  0  0  0  0  0  0  0  0  0  0  0
    6.5930   -1.5030   -1.1550 C   0  0  0  0  0  0  0  0  0  0  0  0
    7.8640   -1.0160   -0.5680 C   0  0  0  0  0  0  0  0  0  0  0  0
    7.5940   -0.0970    0.5860 C   0  0  0  0  0  0  0  0  0  0  0  0
    6.5860    0.9660    0.1830 C   0  0  0  0  0  0  0  0  0  0  0  0
    5.3020    0.2840   -0.0920 C   0  0  0  0  0  0  0  0  0  0  0  0
    4.0020    0.5790    0.1620 N   0  0  0  0  0  0  0  0  0  0  0  0
    3.2270   -0.3910   -0.3060 C   0  0  0  0  0  0  0  0  0  0  0  0
    1.8040   -0.5170   -0.2700 N   0  0  0  0  0  0  0  0  0  0  0  0
    0.9990    0.4900    0.3310 C   0  0  0  0  0  0  0  0  0  0  0  0
    1.5950    1.4870    0.8210 O   0  0  0  0  0  0  0  0  0  0  0  0
   -0.4090    0.3460    0.3600 N   0  0  0  0  0  0  0  0  0  0  0  0
   -0.9860   -0.8170   -0.2200 C   0  0  0  0  0  0  0  0  0  0  0  0
   -2.4630   -0.9010   -0.2730 C   0  0  0  0  0  0  0  0  0  0  0  0
   -3.1540    0.2440    0.2030 N   0  0  0  0  0  0  0  0  0  0  0  0
   -4.5940    0.0990    0.4650 C   0  0  0  0  0  0  0  0  0  0  0  0
   -4.9270   -0.3620    1.6120 C   0  0  0  0  0  0  0  0  0  0  0  0
   -6.1900   -0.6480    2.2440 C   0  0  2  0  0  0  0  0  0  0  0  0
   -6.9540   -1.6120    1.6180 F   0  0  0  0  0  0  0  0  0  0  0  0
   -6.9260    0.5000    2.4240 F   0  0  0  0  0  0  0  0  0  0  0  0
   -5.8810   -1.2330    3.9450 Cl  0  0  0  0  0  0  0  0  0  0  0  0
   -5.4450    0.5030   -0.6200 C   0  0  0  0  0  0  0  0  0  0  0  0
   -4.9770    0.9970   -1.8630 C   0  0  0  0  0  0  0  0  0  0  0  0
   -6.0840    1.2640   -2.6080 C   0  0  0  0  0  0  0  0  0  0  0  0
   -7.1450    0.9600   -1.8830 N   0  0  0  0  0  0  0  0  0  0  0  0
   -6.7760    0.4970   -0.6730 N   0  0  0  0  0  0  0  0  0  0  0  0
   -2.5880    1.5260    0.4560 C   0  0  0  0  0  0  0  0  0  0  0  0
   -1.1860    1.3770    0.9760 C   0  0  0  0  0  0  0  0  0  0  0  0
    4.0470   -1.3030   -0.8580 N   0  0  0  0  0  0  0  0  0  0  0  0
    5.3240   -0.9270   -0.7480 C   0  0  0  0  0  0  0  0  0  0  0  0
  1  2  2  0
  2  3  1  0
  2 30  1  0
  3  4  1  0
  4  5  1  0
  5  6  1  0
  6  7  1  0
  6 30  2  0
  7  8  2  0
  8  9  1  0
  8 29  1  0
  9 10  1  0
 10 11  2  0
 10 12  1  0
 12 13  1  0
 12 28  1  0
 13 14  1  0
 14 15  1  0
 15 16  1  0
 15 27  1  0
 16 17  2  3
 16 22  1  0
 17 18  1  0
 18 19  1  6
 18 20  1  0
 18 21  1  0
 22 23  2  0
 22 26  1  0
 23 24  1  0
 24 25  2  0
 25 26  1  0
 27 28  1  0
 29 30  1  0
M  END
