
     RDKit          3D

 31 34  0  0  0  0  0  0  0  0999 V2000
    6.4780    1.8680   -0.1070 C   0  0  0  0  0  0  0  0  0  0  0  0
    5.3930    2.5090    0.6710 C   0  0  0  0  0  0  0  0  0  0  0  0
    4.0560    1.8610    0.4600 C   0  0  0  0  0  0  0  0  0  0  0  0
    4.0300    0.4460    0.8960 C   0  0  0  0  0  0  0  0  0  0  0  0
    2.7260   -0.1830    0.7040 N   0  0  0  0  0  0  0  0  0  0  0  0
    2.4080   -0.3590   -0.6860 C   0  0  0  0  0  0  0  0  0  0  0  0
    1.1440   -1.0090   -0.8560 N   0  0  0  0  0  0  0  0  0  0  0  0
    0.0650   -0.2310   -0.3440 C   0  0  0  0  0  0  0  0  0  0  0  0
   -1.2300   -0.8920   -0.6000 N   0  0  0  0  0  0  0  0  0  0  0  0
   -1.1510   -2.3110   -0.4910 C   0  0  0  0  0  0  0  0  0  0  0  0
   -2.3920   -2.8590   -0.5500 C   0  0  0  0  0  0  0  0  0  0  0  0
   -2.4690   -4.2520   -0.4610 C   0  0  0  0  0  0  0  0  0  0  0  0
   -3.6050   -4.7630   -0.5150 O   0  0  0  0  0  0  0  0  0  0  0  0
   -1.3190   -4.9800   -0.3230 N   0  0  0  0  0  0  0  0  0  0  0  0
   -0.1250   -4.3800   -0.2700 C   0  0  0  0  0  0  0  0  0  0  0  0
    0.9240   -5.0340   -0.1440 O   0  0  0  0  0  0  0  0  0  0  0  0
   -0.0350   -3.0320   -0.3550 N   0  0  0  0  0  0  0  0  0  0  0  0
    1.2260   -2.3370   -0.3040 C   0  0  0  0  0  0  0  0  0  0  0  0
   -3.3160   -1.7940   -0.6900 N   0  0  0  0  0  0  0  0  0  0  0  0
   -2.5630   -0.5560   -0.9410 C   0  0  1  0  0  0  0  0  0  0  0  0
   -3.1880    0.5940   -0.3140 C   0  0  0  0  0  0  0  0  0  0  0  0
   -2.6240    1.6020    0.3940 C   0  0  0  0  0  0  0  0  0  0  0  0
   -3.3770    2.6160    0.9150 N   0  0  0  0  0  0  0  0  0  0  0  0
   -4.6970    2.6930    0.7720 C   0  0  0  0  0  0  0  0  0  0  0  0
   -5.5450    3.7830    1.3250 C   0  0  2  0  0  0  0  0  0  0  0  0
   -6.1960    4.4120    0.2580 F   0  0  0  0  0  0  0  0  0  0  0  0
   -4.8140    4.7100    2.0310 F   0  0  0  0  0  0  0  0  0  0  0  0
   -6.5670    3.2650    2.1160 F   0  0  0  0  0  0  0  0  0  0  0  0
   -5.3280    1.7000    0.0660 C   0  0  0  0  0  0  0  0  0  0  0  0
   -7.0820    1.7550   -0.1500 Cl  0  0  0  0  0  0  0  0  0  0  0  0
   -4.5880    0.6740   -0.4660 C   0  0  0  0  0  0  0  0  0  0  0  0
  1  2  1  0
  2  3  1  0
  3  4  1  0
  4  5  1  0
  5  6  1  0
  6  7  1  0
  7  8  1  0
  7 18  1  0
  8  9  1  0
  9 10  1  0
  9 20  1  0
 10 11  2  0
 10 17  1  0
 11 12  1  0
 11 19  1  0
 12 13  2  0
 12 14  1  0
 14 15  1  0
 15 16  2  0
 15 17  1  0
 17 18  1  0
 19 20  1  0
 20 21  1  1
 21 22  2  0
 21 31  1  0
 22 23  1  0
 23 24  2  0
 24 25  1  0
 24 29  1  0
 25 26  1  6
 25 27  1  0
 25 28  1  0
 29 30  1  0
 29 31  2  0
M  END
