
     RDKit          3D

 31 34  0  0  0  0  0  0  0  0999 V2000
   -1.4830    3.9310   -1.2310 C   0  0  0  0  0  0  0  0  0  0  0  0
   -0.9580    2.5370   -1.2570 C   0  0  0  0  0  0  0  0  0  0  0  0
    0.2640    2.2020   -0.6760 C   0  0  0  0  0  0  0  0  0  0  0  0
    0.7650    0.9160   -0.6910 C   0  0  0  0  0  0  0  0  0  0  0  0
    2.0420    0.5730   -0.0790 C   0  0  0  0  0  0  0  0  0  0  0  0
    2.4350   -0.6190   -0.1600 O   0  0  0  0  0  0  0  0  0  0  0  0
    2.8890    1.4690    0.6030 N   0  0  0  0  0  0  0  0  0  0  0  0
    4.1400    1.0200    1.1740 C   0  0  0  0  0  0  0  0  0  0  0  0
    4.8460    0.1160    1.3350 N   0  0  0  0  0  0  0  0  0  0  0  0
    5.9980    0.0160    1.9430 C   0  0  0  0  0  0  0  0  0  0  0  0
    6.8120   -1.2180    2.0780 C   0  0  1  0  0  0  0  0  0  0  0  0
    6.1800   -2.5560    1.9520 C   0  0  0  0  0  0  0  0  0  0  0  0
    6.9890   -2.0290    0.7930 C   0  0  0  0  0  0  0  0  0  0  0  0
    6.4350    1.2440    2.4930 C   0  0  0  0  0  0  0  0  0  0  0  0
    5.1530    2.3530    2.0680 S   0  0  0  0  0  0  0  0  0  0  0  0
   -0.0090   -0.0390   -1.3160 C   0  0  0  0  0  0  0  0  0  0  0  0
   -1.2180    0.2900   -1.8920 C   0  0  0  0  0  0  0  0  0  0  0  0
   -1.7240    1.5730   -1.8810 C   0  0  0  0  0  0  0  0  0  0  0  0
   -2.9430    1.9050   -2.4640 O   0  0  0  0  0  0  0  0  0  0  0  0
   -3.8040    1.0350   -3.1080 C   0  0  0  0  0  0  0  0  0  0  0  0
   -4.3570   -0.0530   -2.2290 C   0  0  0  0  0  0  0  0  0  0  0  0
   -5.0190   -0.9270   -2.8150 O   0  0  0  0  0  0  0  0  0  0  0  0
   -4.1510   -0.0860   -0.8640 N   0  0  0  0  0  0  0  0  0  0  0  0
   -4.6260   -1.0700    0.0380 C   0  0  0  0  0  0  0  0  0  0  0  0
   -5.3670   -2.1500   -0.3390 C   0  0  0  0  0  0  0  0  0  0  0  0
   -5.8090   -3.0920    0.5950 C   0  0  0  0  0  0  0  0  0  0  0  0
   -6.5290   -4.1290    0.1840 F   0  0  0  0  0  0  0  0  0  0  0  0
   -5.5020   -2.9450    1.9240 C   0  0  0  0  0  0  0  0  0  0  0  0
   -4.7480   -1.8520    2.3260 C   0  0  0  0  0  0  0  0  0  0  0  0
   -4.3270   -0.9460    1.4040 C   0  0  0  0  0  0  0  0  0  0  0  0
   -3.3630    0.4540    1.9120 Cl  0  0  0  0  0  0  0  0  0  0  0  0
  1  2  1  0
  2  3  2  0
  2 18  1  0
  3  4  1  0
  4  5  1  0
  4 16  2  0
  5  6  2  0
  5  7  1  0
  7  8  1  0
  8  9  2  0
  8 15  1  0
  9 10  1  0
 11 10  1  6
 10 14  2  0
 11 12  1  0
 11 13  1  0
 12 13  1  0
 14 15  1  0
 16 17  1  0
 17 18  2  0
 18 19  1  0
 19 20  1  0
 20 21  1  0
 21 22  2  0
 21 23  1  0
 23 24  1  0
 24 25  2  0
 24 30  1  0
 25 26  1  0
 26 27  1  0
 26 28  2  0
 28 29  1  0
 29 30  2  0
 30 31  1  0
M  END
