
     RDKit          3D

 29 31  0  0  0  0  0  0  0  0999 V2000
   -5.9750    2.5050    0.3950 C   0  0  0  0  0  0  0  0  0  0  0  0
   -6.2520    1.2030   -0.1590 N   0  0  0  0  0  0  0  0  0  0  0  0
   -5.6740    0.1220    0.5920 C   0  0  1  0  0  0  0  0  0  0  0  0
   -6.2080    0.1340    2.0060 C   0  0  0  0  0  0  0  0  0  0  0  0
   -6.0920   -1.2250   -0.0660 C   0  0  0  0  0  0  0  0  0  0  0  0
   -7.4510   -1.3910   -0.1000 O   0  0  0  0  0  0  0  0  0  0  0  0
   -4.2120    0.1280    0.4700 C   0  0  0  0  0  0  0  0  0  0  0  0
   -3.5990    1.0070   -0.3860 C   0  0  0  0  0  0  0  0  0  0  0  0
   -2.2080    0.9690   -0.5120 C   0  0  0  0  0  0  0  0  0  0  0  0
   -1.4220    0.0860    0.1850 C   0  0  0  0  0  0  0  0  0  0  0  0
    0.3760    0.0580   -0.0680 S   0  0  0  0  0  0  0  0  0  0  0  0
    0.7230   -1.0190   -1.4330 C   0  0  0  0  0  0  0  0  0  0  0  0
    1.9260   -1.3030   -1.8270 C   0  0  0  0  0  0  0  0  0  0  0  0
    3.1600   -0.8420   -1.2810 C   0  0  0  0  0  0  0  0  0  0  0  0
    4.2620   -1.2590   -1.8320 O   0  0  0  0  0  0  0  0  0  0  0  0
    3.3480    0.0370   -0.1760 N   0  0  0  0  0  0  0  0  0  0  0  0
    4.6920    0.3680    0.2550 C   0  0  0  0  0  0  0  0  0  0  0  0
    5.0240    1.6230    0.6920 C   0  0  0  0  0  0  0  0  0  0  0  0
    6.3090    1.9070    1.1460 C   0  0  0  0  0  0  0  0  0  0  0  0
    7.2870    0.9140    1.1630 C   0  0  0  0  0  0  0  0  0  0  0  0
    6.9760   -0.3460    0.7300 C   0  0  0  0  0  0  0  0  0  0  0  0
    5.6880   -0.5910    0.2860 C   0  0  0  0  0  0  0  0  0  0  0  0
    8.2010   -1.1830    0.8760 C   0  0  0  0  0  0  0  0  0  0  0  0
    8.9920   -0.4500    1.7300 O   0  0  0  0  0  0  0  0  0  0  0  0
    8.7140    0.8880    1.5830 C   0  0  0  0  0  0  0  0  0  0  0  0
   -0.4400   -1.6480   -2.1930 C   0  0  0  0  0  0  0  0  0  0  0  0
   -1.2460   -0.6760   -2.7340 O   0  0  0  0  0  0  0  0  0  0  0  0
   -2.0260   -0.7940    1.0420 C   0  0  0  0  0  0  0  0  0  0  0  0
   -3.4200   -0.7580    1.1730 C   0  0  0  0  0  0  0  0  0  0  0  0
  1  2  1  0
  2  3  1  0
  3  4  1  1
  3  5  1  0
  3  7  1  0
  5  6  1  0
  7  8  2  0
  7 29  1  0
  8  9  1  0
  9 10  2  0
 10 11  1  0
 10 28  1  0
 11 12  1  0
 12 13  2  3
 12 26  1  0
 13 14  1  0
 14 15  2  0
 14 16  1  0
 16 17  1  0
 17 18  2  0
 17 22  1  0
 18 19  1  0
 19 20  2  0
 20 21  1  0
 20 25  1  0
 21 22  2  0
 21 23  1  0
 23 24  1  0
 24 25  1  0
 26 27  1  0
 28 29  2  0
M  END
