
     RDKit          3D

 30 33  0  0  0  0  0  0  0  0999 V2000
   -0.8920   -4.0830   -0.0720 C   0  0  0  0  0  0  0  0  0  0  0  0
   -1.4160   -2.7320   -0.1750 N   0  0  0  0  0  0  0  0  0  0  0  0
   -2.7940   -2.4830   -0.1340 C   0  0  0  0  0  0  0  0  0  0  0  0
   -3.4650   -3.3950    0.5190 O   0  0  0  0  0  0  0  0  0  0  0  0
   -3.5350   -1.3870   -0.6870 C   0  0  0  0  0  0  0  0  0  0  0  0
   -3.1800   -0.6880   -1.7920 C   0  0  0  0  0  0  0  0  0  0  0  0
   -3.8630    0.4440   -2.1860 C   0  0  0  0  0  0  0  0  0  0  0  0
   -4.9210    0.8860   -1.4590 N   0  0  0  0  0  0  0  0  0  0  0  0
   -5.2920    0.2040   -0.3540 C   0  0  0  0  0  0  0  0  0  0  0  0
   -6.4070    0.7230    0.4870 C   0  0  1  0  0  0  0  0  0  0  0  0
   -7.7250    0.5920   -0.1650 C   0  0  0  0  0  0  0  0  0  0  0  0
   -6.3630    0.0250    1.8520 C   0  0  0  0  0  0  0  0  0  0  0  0
   -6.1430    2.2090    0.7990 C   0  0  0  0  0  0  0  0  0  0  0  0
   -4.6230   -0.9330    0.0550 C   0  0  0  0  0  0  0  0  0  0  0  0
   -0.5050   -1.6370   -0.3210 C   0  0  0  0  0  0  0  0  0  0  0  0
   -0.9050   -0.3680   -0.3700 N   0  0  0  0  0  0  0  0  0  0  0  0
   -0.1330    0.7130   -0.4420 C   0  0  0  0  0  0  0  0  0  0  0  0
    1.2620    0.5280   -0.4690 C   0  0  0  0  0  0  0  0  0  0  0  0
    1.6930   -0.7730   -0.4210 C   0  0  0  0  0  0  0  0  0  0  0  0
    0.8330   -1.8250   -0.3500 N   0  0  0  0  0  0  0  0  0  0  0  0
    3.1890   -1.0150   -0.4150 C   0  0  0  0  0  0  0  0  0  0  0  0
    3.8290    0.1220    0.1460 N   0  0  0  0  0  0  0  0  0  0  0  0
    4.9540    0.0060    0.9390 C   0  0  1  0  0  0  0  0  0  0  0  0
    6.1280   -0.5450    0.1770 C   0  0  0  0  0  0  0  0  0  0  0  0
    7.4110    0.1840    0.5120 C   0  0  0  0  0  0  0  0  0  0  0  0
    7.2210    1.6690    0.3760 C   0  0  0  0  0  0  0  0  0  0  0  0
    6.1260    2.1860    1.1300 N   0  0  0  0  0  0  0  0  0  0  0  0
    5.3000    1.2140    1.7720 C   0  0  0  0  0  0  0  0  0  0  0  0
    3.5670    1.3190   -0.5950 C   0  0  0  0  0  0  0  0  0  0  0  0
    2.1340    1.7290   -0.5450 C   0  0  0  0  0  0  0  0  0  0  0  0
  1  2  1  0
  2  3  1  0
  2 15  1  0
  3  4  2  0
  3  5  1  0
  5  6  2  0
  5 14  1  0
  6  7  1  0
  7  8  2  0
  8  9  1  0
  9 10  1  0
  9 14  2  0
 10 11  1  6
 10 12  1  0
 10 13  1  0
 15 16  2  0
 15 20  1  0
 16 17  1  0
 17 18  2  0
 18 19  1  0
 18 30  1  0
 19 20  2  0
 19 21  1  0
 21 22  1  0
 23 22  1  6
 22 29  1  0
 23 24  1  0
 23 28  1  0
 24 25  1  0
 25 26  1  0
 26 27  1  0
 27 28  1  0
 29 30  1  0
M  END
