
     RDKit          3D

 29 31  0  0  0  0  0  0  0  0999 V2000
   -7.5100    3.1630    0.7470 C   0  0  0  0  0  0  0  0  0  0  0  0
   -7.0690    1.9470   -0.0590 C   0  0  0  0  0  0  0  0  0  0  0  0
   -6.1410    1.1360    0.6080 O   0  0  0  0  0  0  0  0  0  0  0  0
   -5.8130    0.0520   -0.2140 C   0  0  0  0  0  0  0  0  0  0  0  0
   -4.9510    0.3240   -1.3580 C   0  0  0  0  0  0  0  0  0  0  0  0
   -3.4700    0.5880   -1.1340 C   0  0  0  0  0  0  0  0  0  0  0  0
   -2.7230   -0.5990   -0.6510 C   0  0  0  0  0  0  0  0  0  0  0  0
   -1.4850   -0.4620   -0.0710 C   0  0  0  0  0  0  0  0  0  0  0  0
   -0.7040   -1.4950    0.3710 C   0  0  0  0  0  0  0  0  0  0  0  0
    0.5610   -1.5450    0.9220 N   0  0  0  0  0  0  0  0  0  0  0  0
    1.7160   -0.7110    0.7820 C   0  0  0  0  0  0  0  0  0  0  0  0
    1.6200    0.2960    0.1100 O   0  0  0  0  0  0  0  0  0  0  0  0
    2.9300   -1.0430    1.3920 N   0  0  0  0  0  0  0  0  0  0  0  0
    4.2250   -0.6120    1.5500 C   0  0  0  0  0  0  0  0  0  0  0  0
    5.1050   -0.1710    0.4630 C   0  0  0  0  0  0  0  0  0  0  0  0
    6.1700   -1.0230    0.0920 C   0  0  0  0  0  0  0  0  0  0  0  0
    6.2020   -2.3880    0.7140 C   0  0  0  0  0  0  0  0  0  0  0  0
    7.1350   -0.6760   -0.8070 C   0  0  0  0  0  0  0  0  0  0  0  0
    7.0710    0.5750   -1.3900 C   0  0  0  0  0  0  0  0  0  0  0  0
    6.0330    1.3900   -1.0200 C   0  0  0  0  0  0  0  0  0  0  0  0
    5.0430    1.0870   -0.1230 C   0  0  0  0  0  0  0  0  0  0  0  0
    4.1270    2.1510    0.1590 C   0  0  0  0  0  0  0  0  0  0  0  0
    4.3180    3.2920   -0.4710 C   0  0  0  0  0  0  0  0  0  0  0  0
    5.7240    3.0690   -1.5070 S   0  0  0  0  0  0  0  0  0  0  0  0
    5.4370    3.2200   -2.9730 O   0  0  0  0  0  0  0  0  0  0  0  0
   -1.2600   -2.8080    0.1950 C   0  0  0  0  0  0  0  0  0  0  0  0
   -2.4810   -2.9690   -0.3810 C   0  0  0  0  0  0  0  0  0  0  0  0
   -3.2170   -1.8810   -0.8030 C   0  0  0  0  0  0  0  0  0  0  0  0
   -4.4220   -2.1400   -1.3700 O   0  0  0  0  0  0  0  0  0  0  0  0
  1  2  1  0
  2  3  1  0
  3  4  1  0
  4  5  1  0
  5  6  1  0
  6  7  1  0
  7  8  2  0
  7 28  1  0
  8  9  1  0
  9 10  1  0
  9 26  2  0
 10 11  1  0
 11 12  2  0
 11 13  1  0
 13 14  1  0
 14 15  1  0
 15 16  2  0
 15 21  1  0
 16 17  1  0
 16 18  1  0
 18 19  2  0
 19 20  1  0
 20 21  2  0
 20 24  1  0
 21 22  1  0
 22 23  2  0
 24 23  1  1
 24 25  2  0
 26 27  1  0
 27 28  2  0
 28 29  1  0
M  END
