
     RDKit          3D

 30 33  0  0  0  0  0  0  0  0999 V2000
   -6.6250    3.4680    0.2470 C   0  0  0  0  0  0  0  0  0  0  0  0
   -6.1780    2.2410    0.3710 C   0  0  0  0  0  0  0  0  0  0  0  0
   -4.7780    1.8560    0.1870 C   0  0  0  0  0  0  0  0  0  0  0  0
   -4.2440    0.7690    0.7490 C   0  0  0  0  0  0  0  0  0  0  0  0
   -2.8550    0.4690    0.5050 C   0  0  0  0  0  0  0  0  0  0  0  0
   -2.2500   -0.5250    0.9820 O   0  0  0  0  0  0  0  0  0  0  0  0
   -2.0040    1.2870   -0.3230 N   0  0  0  0  0  0  0  0  0  0  0  0
   -0.6200    0.9310   -0.5280 C   0  0  0  0  0  0  0  0  0  0  0  0
   -0.0920   -0.1640    0.0420 N   0  0  0  0  0  0  0  0  0  0  0  0
    1.2040   -0.4450   -0.1860 C   0  0  0  0  0  0  0  0  0  0  0  0
    1.7990   -1.5660    0.3800 C   0  0  0  0  0  0  0  0  0  0  0  0
    3.1190   -1.8790    0.1650 C   0  0  0  0  0  0  0  0  0  0  0  0
    3.8560   -1.0260   -0.6490 C   0  0  0  0  0  0  0  0  0  0  0  0
    5.2280   -1.2620   -0.9310 N   0  0  0  0  0  0  0  0  0  0  0  0
    5.8220   -2.4440   -0.3280 C   0  0  0  0  0  0  0  0  0  0  0  0
    7.2880   -2.5510   -0.5850 C   0  0  0  0  0  0  0  0  0  0  0  0
    7.8880   -1.1700   -0.4430 C   0  0  0  0  0  0  0  0  0  0  0  0
    7.3900   -0.2310   -1.5100 C   0  0  0  0  0  0  0  0  0  0  0  0
    5.9240   -0.3500   -1.7700 C   0  0  0  0  0  0  0  0  0  0  0  0
    3.2520    0.0560   -1.1850 N   0  0  0  0  0  0  0  0  0  0  0  0
    1.9650    0.3780   -0.9870 C   0  0  0  0  0  0  0  0  0  0  0  0
    1.4160    1.4880   -1.5610 N   0  0  0  0  0  0  0  0  0  0  0  0
    0.1280    1.7590   -1.3290 C   0  0  0  0  0  0  0  0  0  0  0  0
   -0.4890    2.9770   -1.9520 C   0  0  0  0  0  0  0  0  0  0  0  0
   -5.0510   -0.0590    1.6380 C   0  0  0  0  0  0  0  0  0  0  0  0
   -4.6340   -1.1550    2.2050 C   0  0  0  0  0  0  0  0  0  0  0  0
   -5.4700   -2.0150    3.1220 C   0  0  0  0  0  0  0  0  0  0  0  0
   -6.4410    0.3820    1.8700 C   0  0  0  0  0  0  0  0  0  0  0  0
   -7.0510    0.2430    2.9250 N   0  0  0  0  0  0  0  0  0  0  0  0
   -7.1210    1.1220    0.7230 C   0  0  0  0  0  0  0  0  0  0  0  0
  1  2  2  0
  2  3  1  0
  2 30  1  0
  3  4  2  0
  4  5  1  0
  4 25  1  0
  5  6  2  0
  5  7  1  0
  7  8  1  0
  8  9  2  0
  8 23  1  0
  9 10  1  0
 10 11  2  0
 10 21  1  0
 11 12  1  0
 12 13  2  0
 13 14  1  0
 13 20  1  0
 14 15  1  0
 14 19  1  0
 15 16  1  0
 16 17  1  0
 17 18  1  0
 18 19  1  0
 20 21  2  0
 21 22  1  0
 22 23  2  0
 23 24  1  0
 25 26  2  3
 25 28  1  0
 26 27  1  0
 28 29  2  0
 28 30  1  0
M  END
