
     RDKit          3D

 34 37  0  0  0  0  0  0  0  0999 V2000
    5.5810    0.8550   -1.5170 C   0  0  0  0  0  0  0  0  0  0  0  0
    5.0690    0.4460   -0.1710 C   0  0  2  0  0  0  0  0  0  0  0  0
    5.7360   -0.6920    0.4980 C   0  0  0  0  0  0  0  0  0  0  0  0
    7.1710   -0.5920    0.8350 C   0  0  1  0  0  0  0  0  0  0  0  0
    8.1570   -0.4050   -0.2480 C   0  0  0  0  0  0  0  0  0  0  0  0
    8.7640    0.8940   -0.0180 N   0  0  0  0  0  0  0  0  0  0  0  0
    8.2960    1.3460    1.2200 C   0  0  0  0  0  0  0  0  0  0  0  0
    8.6320    2.4330    1.7730 O   0  0  0  0  0  0  0  0  0  0  0  0
    7.4050    0.4480    1.7820 O   0  0  0  0  0  0  0  0  0  0  0  0
    3.6370    0.1020   -0.2730 N   0  0  0  0  0  0  0  0  0  0  0  0
    2.6610    0.9040    0.4100 C   0  0  0  0  0  0  0  0  0  0  0  0
    3.0900    1.8560    1.0560 O   0  0  0  0  0  0  0  0  0  0  0  0
    1.2790    0.6190    0.3470 N   0  0  0  0  0  0  0  0  0  0  0  0
    0.2610    1.3330    0.9740 C   0  0  0  0  0  0  0  0  0  0  0  0
    0.4670    2.4270    1.7470 C   0  0  0  0  0  0  0  0  0  0  0  0
   -0.6100    3.0520    2.3160 N   0  0  0  0  0  0  0  0  0  0  0  0
   -1.8400    2.6120    2.1260 N   0  0  0  0  0  0  0  0  0  0  0  0
   -2.0870    1.5320    1.3660 C   0  0  0  0  0  0  0  0  0  0  0  0
   -1.0410    0.8500    0.7600 C   0  0  0  0  0  0  0  0  0  0  0  0
   -1.3290   -0.2850   -0.0320 N   0  0  0  0  0  0  0  0  0  0  0  0
   -2.6940   -0.6800   -0.2090 N   0  0  0  0  0  0  0  0  0  0  0  0
   -3.5480   -0.0080   -1.0840 C   0  0  0  0  0  0  0  0  0  0  0  0
   -3.0270    0.9870   -1.7130 O   0  0  0  0  0  0  0  0  0  0  0  0
   -4.9380   -0.3390   -1.3280 C   0  0  0  0  0  0  0  0  0  0  0  0
   -5.9790    0.6630   -2.4850 S   0  0  0  0  0  0  0  0  0  0  0  0
   -7.4900   -0.4440   -2.1580 C   0  0  0  0  0  0  0  0  0  0  0  0
   -8.7050   -0.0950   -2.8640 N   0  0  0  0  0  0  0  0  0  0  0  0
   -9.8250    1.0360   -2.1490 S   0  0  0  0  0  0  0  0  0  0  0  0
  -10.7850    1.5290   -3.2350 O   0  0  0  0  0  0  0  0  0  0  0  0
   -7.0270   -1.2030   -1.3990 N   0  0  0  0  0  0  0  0  0  0  0  0
   -5.8150   -1.2830   -0.9040 C   0  0  0  0  0  0  0  0  0  0  0  0
   -5.3750   -2.3670    0.0480 C   0  0  2  0  0  0  0  0  0  0  0  0
   -6.5230   -3.2050    0.6930 C   0  0  0  0  0  0  0  0  0  0  0  0
   -5.6450   -2.3030    1.4820 C   0  0  0  0  0  0  0  0  0  0  0  0
  2  1  1  6
  2  3  1  0
  2 10  1  0
  4  3  1  6
  4  5  1  0
  4  9  1  0
  5  6  1  0
  6  7  1  0
  7  8  2  0
  7  9  1  0
 10 11  1  0
 11 12  2  0
 11 13  1  0
 13 14  1  0
 14 15  2  0
 14 19  1  0
 15 16  1  0
 16 17  2  0
 17 18  1  0
 18 19  2  0
 19 20  1  0
 20 21  1  0
 21 22  1  0
 22 23  2  0
 22 24  1  0
 24 25  1  0
 24 31  2  0
 25 26  1  0
 26 27  1  0
 26 30  2  0
 27 28  1  0
 28 29  2  0
 30 31  1  0
 32 31  1  6
 32 33  1  0
 32 34  1  0
 33 34  1  0
M  END
