
     RDKit          3D

 34 36  0  0  0  0  0  0  0  0999 V2000
    4.9600    6.1450   -0.5510 N   0  0  0  0  0  0  0  0  0  0  0  0
    5.5770    5.0550   -0.7280 N   0  0  0  0  0  0  0  0  0  0  0  0
    4.9570    4.0220   -1.4230 N   0  0  0  0  0  0  0  0  0  0  0  0
    5.6920    2.4580   -1.3790 S   0  0  1  0  0  0  0  0  0  0  0  0
    5.3610    1.7090   -2.6500 O   0  0  0  0  0  0  0  0  0  0  0  0
    7.1980    2.6210   -1.3830 O   0  0  0  0  0  0  0  0  0  0  0  0
    5.1390    1.5230   -0.0670 N   0  0  0  0  0  0  0  0  0  0  0  0
    4.0060    0.7420   -0.4150 N   0  0  0  0  0  0  0  0  0  0  0  0
    3.2870    0.0140    0.5650 C   0  0  0  0  0  0  0  0  0  0  0  0
    3.6820    0.0830    1.7550 O   0  0  0  0  0  0  0  0  0  0  0  0
    2.1440   -0.7950    0.3040 N   0  0  0  0  0  0  0  0  0  0  0  0
    1.4380   -1.5210    1.3280 C   0  0  1  0  0  0  0  0  0  0  0  0
    0.2030   -0.9440    1.8070 C   0  0  0  0  0  0  0  0  0  0  0  0
   -0.9170   -0.6920    0.9980 N   0  0  0  0  0  0  0  0  0  0  0  0
   -1.0460    0.1990   -0.0960 C   0  0  0  0  0  0  0  0  0  0  0  0
   -0.0590    0.8870   -0.4370 O   0  0  0  0  0  0  0  0  0  0  0  0
   -2.3360    0.2900   -0.8060 C   0  0  2  0  0  0  0  0  0  0  0  0
   -2.4920    1.5850   -1.5620 C   0  0  0  0  0  0  0  0  0  0  0  0
   -3.8890    1.7220   -2.1210 C   0  0  0  0  0  0  0  0  0  0  0  0
   -4.6470    0.4250   -2.1570 C   0  0  0  0  0  0  0  0  0  0  0  0
   -4.6470   -0.3260   -0.8710 C   0  0  0  0  0  0  0  0  0  0  0  0
   -3.4780   -0.0860   -0.0620 N   0  0  0  0  0  0  0  0  0  0  0  0
   -3.7390    0.5200    1.1820 C   0  0  0  0  0  0  0  0  0  0  0  0
   -4.4900    1.8140    1.1210 C   0  0  0  0  0  0  0  0  0  0  0  0
   -3.9410    3.0640    1.2610 C   0  0  0  0  0  0  0  0  0  0  0  0
   -4.9800    3.9590    1.1370 C   0  0  0  0  0  0  0  0  0  0  0  0
   -6.0550    3.2390    0.9370 O   0  0  0  0  0  0  0  0  0  0  0  0
   -5.8010    1.9780    0.9230 N   0  0  0  0  0  0  0  0  0  0  0  0
    1.4690   -2.9660    0.9280 C   0  0  2  0  0  0  0  0  0  0  0  0
    2.8820   -3.4470    0.8260 C   0  0  0  0  0  0  0  0  0  0  0  0
    3.1280   -4.8440    0.4290 C   0  0  0  0  0  0  0  0  0  0  0  0
    2.4770   -6.0640    1.5600 S   0  0  0  0  0  0  0  0  0  0  0  0
    0.5150   -3.6140    0.0450 C   0  0  0  0  0  0  0  0  0  0  0  0
    0.3640   -3.7820    1.5790 C   0  0  0  0  0  0  0  0  0  0  0  0
  1  2  2  0
  2  3  1  0
  4  3  1  6
  4  5  2  0
  4  6  2  0
  4  7  1  0
  7  8  1  0
  8  9  1  0
  9 10  2  0
  9 11  1  0
 11 12  1  0
 12 13  1  6
 12 29  1  0
 13 14  1  0
 14 15  1  0
 15 16  2  0
 17 15  1  1
 17 18  1  0
 17 22  1  0
 18 19  1  0
 19 20  1  0
 20 21  1  0
 21 22  1  0
 22 23  1  0
 23 24  1  0
 24 25  1  0
 24 28  2  0
 25 26  2  0
 26 27  1  0
 27 28  1  0
 29 30  1  6
 29 33  1  0
 29 34  1  0
 30 31  1  0
 31 32  1  0
 33 34  1  0
M  END
