
     RDKit          3D

 34 36  0  0  0  0  0  0  0  0999 V2000
   -3.6510   -0.1750   -4.3280 C   0  0  0  0  0  0  0  0  0  0  0  0
   -3.4760   -1.0090   -3.1350 N   0  0  0  0  0  0  0  0  0  0  0  0
   -4.9140   -0.8620   -2.1250 S   0  0  2  0  0  0  0  0  0  0  0  0
   -5.0570   -2.2490   -1.5080 O   0  0  0  0  0  0  0  0  0  0  0  0
   -6.0390   -0.6940   -3.1440 O   0  0  0  0  0  0  0  0  0  0  0  0
   -4.7660    0.3770   -1.0390 N   0  0  0  0  0  0  0  0  0  0  0  0
   -5.2990    0.9380   -0.1130 C   0  0  0  0  0  0  0  0  0  0  0  0
   -4.6160    2.0710    0.4810 N   0  0  0  0  0  0  0  0  0  0  0  0
   -3.2450    2.2080    0.2000 C   0  0  0  0  0  0  0  0  0  0  0  0
   -2.3670    1.5470    0.9170 C   0  0  0  0  0  0  0  0  0  0  0  0
   -0.9250    1.6170    0.7110 C   0  0  0  0  0  0  0  0  0  0  0  0
   -0.1200    0.9020    1.4980 C   0  0  0  0  0  0  0  0  0  0  0  0
   -0.6060    0.0460    2.5650 C   0  0  0  0  0  0  0  0  0  0  0  0
   -1.8750   -0.0340    2.7690 N   0  0  0  0  0  0  0  0  0  0  0  0
   -2.7770    0.6820    1.9890 N   0  0  0  0  0  0  0  0  0  0  0  0
    0.5840   -0.5850    3.2250 C   0  0  0  0  0  0  0  0  0  0  0  0
    1.6530    0.4810    2.9590 C   0  0  0  0  0  0  0  0  0  0  0  0
    1.3640    0.7850    1.5070 C   0  0  2  0  0  0  0  0  0  0  0  0
    2.0040    2.0850    1.0700 C   0  0  0  0  0  0  0  0  0  0  0  0
    3.4460    1.9560    1.0830 N   0  0  0  0  0  0  0  0  0  0  0  0
    4.1410    1.0180    0.3030 C   0  0  0  0  0  0  0  0  0  0  0  0
    3.5270    0.2270   -0.4620 O   0  0  0  0  0  0  0  0  0  0  0  0
    5.5680    0.8890    0.3160 N   0  0  0  0  0  0  0  0  0  0  0  0
    6.2460   -0.1000   -0.5110 C   0  0  2  0  0  0  0  0  0  0  0  0
    6.9960   -1.1050    0.3720 C   0  0  0  0  0  0  0  0  0  0  0  0
    8.0070   -1.6470   -0.6350 C   0  0  0  0  0  0  0  0  0  0  0  0
    8.3800   -0.5250   -1.4580 N   0  0  0  0  0  0  0  0  0  0  0  0
    8.5540   -0.9290   -3.1370 S   0  0  0  0  0  0  0  0  0  0  0  0
    7.2340   -1.5130   -3.6600 O   0  0  0  0  0  0  0  0  0  0  0  0
    7.3600    0.4800   -1.3230 C   0  0  0  0  0  0  0  0  0  0  0  0
   -6.5420    0.6020    0.4650 N   0  0  0  0  0  0  0  0  0  0  0  0
   -7.1340   -0.6810    0.2730 C   0  0  0  0  0  0  0  0  0  0  0  0
   -8.4440   -0.7970    1.0390 C   0  0  0  0  0  0  0  0  0  0  0  0
   -8.9440   -2.0740    0.7930 O   0  0  0  0  0  0  0  0  0  0  0  0
  1  2  1  0
  3  2  1  6
  3  4  2  0
  3  5  2  0
  3  6  1  0
  6  7  2  3
  7  8  1  0
  7 31  1  0
  8  9  1  0
  9 10  2  3
 10 11  1  0
 10 15  1  0
 11 12  2  0
 12 13  1  0
 12 18  1  0
 13 14  2  0
 13 16  1  0
 14 15  1  0
 16 17  1  0
 17 18  1  0
 18 19  1  1
 19 20  1  0
 20 21  1  0
 21 22  2  0
 21 23  1  0
 24 23  1  1
 24 25  1  0
 24 30  1  0
 25 26  1  0
 26 27  1  0
 27 28  1  0
 27 30  1  0
 28 29  2  0
 31 32  1  0
 32 33  1  0
 33 34  1  0
M  END
