
     RDKit          3D

 34 36  0  0  0  0  0  0  0  0999 V2000
    8.7340    1.7520   -1.2120 C   0  0  0  0  0  0  0  0  0  0  0  0
    9.2600    0.8670   -0.1930 N   0  0  0  0  0  0  0  0  0  0  0  0
    8.2810    0.7090    0.8780 C   0  0  0  0  0  0  0  0  0  0  0  0
    7.0900   -0.0520    0.3680 C   0  0  1  0  0  0  0  0  0  0  0  0
    7.4950   -1.3050   -0.0720 O   0  0  0  0  0  0  0  0  0  0  0  0
    6.0460   -0.2270    1.4470 C   0  0  0  0  0  0  0  0  0  0  0  0
    4.8830   -0.9570    0.9180 N   0  0  0  0  0  0  0  0  0  0  0  0
    3.6920   -1.1640    2.1220 S   0  0  2  0  0  0  0  0  0  0  0  0
    4.3590   -1.1700    3.4860 O   0  0  0  0  0  0  0  0  0  0  0  0
    3.0490   -2.5140    1.9650 O   0  0  0  0  0  0  0  0  0  0  0  0
    2.5510    0.1060    2.1130 N   0  0  0  0  0  0  0  0  0  0  0  0
    1.3110    0.0290    1.4070 C   0  0  0  0  0  0  0  0  0  0  0  0
    0.1410    0.4340    1.9860 C   0  0  0  0  0  0  0  0  0  0  0  0
   -1.0770    0.3560    1.2960 C   0  0  0  0  0  0  0  0  0  0  0  0
   -1.1380   -0.1260    0.0230 C   0  0  0  0  0  0  0  0  0  0  0  0
   -2.2960   -0.2880   -0.7750 N   0  0  0  0  0  0  0  0  0  0  0  0
   -3.6320   -0.3520   -0.3310 C   0  0  0  0  0  0  0  0  0  0  0  0
   -3.7320   -0.2540    0.9480 O   0  0  0  0  0  0  0  0  0  0  0  0
   -4.8060   -0.5060   -1.1160 N   0  0  0  0  0  0  0  0  0  0  0  0
   -4.9760   -0.6780   -2.5220 N   0  0  0  0  0  0  0  0  0  0  0  0
   -4.1690   -0.6980   -3.6770 C   0  0  0  0  0  0  0  0  0  0  0  0
   -4.7200   -0.8980   -4.8060 N   0  0  0  0  0  0  0  0  0  0  0  0
   -6.4270   -1.1030   -4.5620 S   0  0  0  0  0  0  0  0  0  0  0  0
   -6.3540   -0.8860   -2.7650 C   0  0  0  0  0  0  0  0  0  0  0  0
   -6.9820   -0.8370   -1.6850 N   0  0  0  0  0  0  0  0  0  0  0  0
   -6.1210   -0.5670   -0.5480 C   0  0  1  0  0  0  0  0  0  0  0  0
   -6.2650   -1.6390    0.4630 C   0  0  0  0  0  0  0  0  0  0  0  0
   -5.1580   -2.4730    0.7280 N   0  0  0  0  0  0  0  0  0  0  0  0
   -7.3290   -1.8020    1.0630 O   0  0  0  0  0  0  0  0  0  0  0  0
   -6.6640    0.7550   -0.0400 C   0  0  1  0  0  0  0  0  0  0  0  0
   -5.9280    1.4530    1.0350 C   0  0  0  0  0  0  0  0  0  0  0  0
   -6.8720    1.7310   -1.1850 C   0  0  0  0  0  0  0  0  0  0  0  0
    0.0850   -0.5270   -0.5270 C   0  0  0  0  0  0  0  0  0  0  0  0
    1.2830   -0.4570    0.1350 C   0  0  0  0  0  0  0  0  0  0  0  0
  1  2  1  0
  2  3  1  0
  3  4  1  0
  4  5  1  1
  4  6  1  0
  6  7  1  0
  8  7  1  6
  8  9  2  0
  8 10  2  0
  8 11  1  0
 11 12  1  0
 12 13  2  0
 12 34  1  0
 13 14  1  0
 14 15  2  0
 15 16  1  0
 15 33  1  0
 16 17  1  0
 17 18  2  0
 17 19  1  0
 19 20  1  0
 19 26  1  0
 20 21  1  0
 20 24  1  0
 21 22  2  0
 22 23  1  0
 23 24  1  0
 24 25  2  0
 25 26  1  0
 26 27  1  1
 26 30  1  0
 27 28  1  0
 27 29  2  0
 30 31  1  1
 30 32  1  0
 33 34  2  0
M  END
