
     RDKit          3D

 34 36  0  0  0  0  0  0  0  0999 V2000
   -7.9270    2.3090   -0.7650 N   0  0  0  0  0  0  0  0  0  0  0  0
   -9.2640    1.8680   -0.9290 C   0  0  0  0  0  0  0  0  0  0  0  0
   -9.9980    2.3240   -1.8430 O   0  0  0  0  0  0  0  0  0  0  0  0
   -9.8460    0.8500   -0.0220 C   0  0  0  0  0  0  0  0  0  0  0  0
   -8.8340    0.4690    0.9360 N   0  0  0  0  0  0  0  0  0  0  0  0
   -7.5980   -0.1120    0.5590 C   0  0  0  0  0  0  0  0  0  0  0  0
   -7.4000   -0.2950   -0.6670 O   0  0  0  0  0  0  0  0  0  0  0  0
   -6.5550   -0.5030    1.5240 C   0  0  0  0  0  0  0  0  0  0  0  0
   -5.3510   -1.1020    0.8830 C   0  0  1  0  0  0  0  0  0  0  0  0
   -5.6320   -2.3590    0.0880 C   0  0  0  0  0  0  0  0  0  0  0  0
   -3.9980   -3.1880   -0.0720 S   0  0  0  0  0  0  0  0  0  0  0  0
   -2.8270   -1.8310   -0.2340 C   0  0  0  0  0  0  0  0  0  0  0  0
   -1.4970   -1.7790   -0.4150 N   0  0  0  0  0  0  0  0  0  0  0  0
   -1.0780   -0.5020   -0.4760 C   0  0  0  0  0  0  0  0  0  0  0  0
    0.3060   -0.0360   -0.6660 C   0  0  0  0  0  0  0  0  0  0  0  0
    0.5550    1.1770   -0.7050 O   0  0  0  0  0  0  0  0  0  0  0  0
    1.3710   -0.9700   -0.8060 N   0  0  0  0  0  0  0  0  0  0  0  0
    2.7490   -0.5580   -0.9950 C   0  0  0  0  0  0  0  0  0  0  0  0
    3.6040   -1.7970   -1.1040 C   0  0  0  0  0  0  0  0  0  0  0  0
    4.9950   -1.4820   -1.2980 N   0  0  0  0  0  0  0  0  0  0  0  0
    5.6880   -0.7390   -0.3120 C   0  0  0  0  0  0  0  0  0  0  0  0
    5.1360   -0.3420    0.7450 O   0  0  0  0  0  0  0  0  0  0  0  0
    7.0550   -0.4190   -0.5000 N   0  0  0  0  0  0  0  0  0  0  0  0
    7.7860    0.3350    0.4840 C   0  0  1  0  0  0  0  0  0  0  0  0
    8.8900   -0.5520    1.0250 C   0  0  0  0  0  0  0  0  0  0  0  0
    9.8570    0.3280    2.2730 S   0  0  0  0  0  0  0  0  0  0  0  0
    8.3400    1.5570   -0.1140 C   0  0  0  0  0  0  0  0  0  0  0  0
    8.2960    2.8090    0.4530 C   0  0  0  0  0  0  0  0  0  0  0  0
    8.8960    3.6080   -0.3970 O   0  0  0  0  0  0  0  0  0  0  0  0
    9.3030    2.9220   -1.4490 C   0  0  0  0  0  0  0  0  0  0  0  0
    8.9670    1.6340   -1.2960 N   0  0  0  0  0  0  0  0  0  0  0  0
   -2.1610    0.2430   -0.3320 N   0  0  0  0  0  0  0  0  0  0  0  0
   -3.2250   -0.5290   -0.1850 N   0  0  0  0  0  0  0  0  0  0  0  0
   -4.5970   -0.1380   -0.0020 C   0  0  0  0  0  0  0  0  0  0  0  0
  1  2  1  0
  2  3  2  0
  2  4  1  0
  4  5  1  0
  5  6  1  0
  6  7  2  0
  6  8  1  0
  9  8  1  6
  9 10  1  0
  9 34  1  0
 10 11  1  0
 11 12  1  0
 12 13  2  0
 12 33  1  0
 13 14  1  0
 14 15  1  0
 14 32  2  0
 15 16  2  0
 15 17  1  0
 17 18  1  0
 18 19  1  0
 19 20  1  0
 20 21  1  0
 21 22  2  0
 21 23  1  0
 23 24  1  0
 24 25  1  6
 24 27  1  0
 25 26  1  0
 27 28  2  0
 27 31  1  0
 28 29  1  0
 29 30  1  0
 30 31  2  0
 32 33  1  0
 33 34  1  0
M  END
