
     RDKit          3D

 34 35  0  0  0  0  0  0  0  0999 V2000
   10.5330    1.0440    0.3140 C   0  0  0  0  0  0  0  0  0  0  0  0
    9.1130    0.5820    0.0890 C   0  0  0  0  0  0  0  0  0  0  0  0
    8.9110   -0.6810   -0.4500 C   0  0  0  0  0  0  0  0  0  0  0  0
    7.5610   -1.0180   -0.6320 C   0  0  0  0  0  0  0  0  0  0  0  0
    7.2940   -2.3630   -1.2210 C   0  0  0  0  0  0  0  0  0  0  0  0
    6.5130   -0.2230   -0.3260 C   0  0  0  0  0  0  0  0  0  0  0  0
    5.0980   -0.5730   -0.3870 C   0  0  0  0  0  0  0  0  0  0  0  0
    4.5890   -1.0770    0.9560 C   0  0  0  0  0  0  0  0  0  0  0  0
    3.2880   -1.4740    0.9730 N   0  0  0  0  0  0  0  0  0  0  0  0
    2.0690   -0.7150    0.4790 C   0  0  0  0  0  0  0  0  0  0  0  0
    2.3460    0.3480   -0.0660 O   0  0  0  0  0  0  0  0  0  0  0  0
    0.9540   -1.4680    0.8000 N   0  0  0  0  0  0  0  0  0  0  0  0
   -0.2650   -0.3600    0.0790 C   0  0  0  0  0  0  0  0  0  0  0  0
    0.2410    0.3660   -0.5660 O   0  0  0  0  0  0  0  0  0  0  0  0
   -1.5070   -0.7990    0.6230 C   0  0  0  0  0  0  0  0  0  0  0  0
   -2.6940   -0.3080    0.3300 C   0  0  0  0  0  0  0  0  0  0  0  0
   -2.8950    0.8220   -0.6850 C   0  0  0  0  0  0  0  0  0  0  0  0
   -3.6440    1.7970    0.1040 N   0  0  0  0  0  0  0  0  0  0  0  0
   -3.4230    3.1420   -0.1800 C   0  0  1  0  0  0  0  0  0  0  0  0
   -1.9700    3.5760   -0.1480 C   0  0  0  0  0  0  0  0  0  0  0  0
   -1.9290    5.0070   -0.4030 N   0  0  0  0  0  0  0  0  0  0  0  0
   -4.2870    3.9540   -1.0380 C   0  0  0  0  0  0  0  0  0  0  0  0
   -5.6490    4.1740   -0.5410 N   0  0  0  0  0  0  0  0  0  0  0  0
   -4.9710    1.4000    0.3500 C   0  0  0  0  0  0  0  0  0  0  0  0
   -5.0970   -0.1650    0.2680 C   0  0  0  0  0  0  0  0  0  0  0  0
   -3.9340   -0.7140    1.0050 C   0  0  1  0  0  0  0  0  0  0  0  0
   -3.9300   -2.0660    1.5430 C   0  0  0  0  0  0  0  0  0  0  0  0
   -3.7730   -3.2790    0.7480 C   0  0  0  0  0  0  0  0  0  0  0  0
   -4.7990   -3.8080   -0.1640 C   0  0  2  0  0  0  0  0  0  0  0  0
   -4.2520   -5.1300   -0.8390 C   0  0  0  0  0  0  0  0  0  0  0  0
   -5.3290   -3.0060   -1.2830 C   0  0  0  0  0  0  0  0  0  0  0  0
    6.8210    1.0440    0.2130 C   0  0  0  0  0  0  0  0  0  0  0  0
    5.8930    1.8530    0.5160 O   0  0  0  0  0  0  0  0  0  0  0  0
    8.0810    1.3710    0.3890 N   0  0  0  0  0  0  0  0  0  0  0  0
  1  2  1  0
  2  3  2  0
  2 34  1  0
  3  4  1  0
  4  5  1  0
  4  6  2  0
  6  7  1  0
  6 32  1  0
  7  8  1  0
  8  9  1  0
  9 10  1  0
 10 11  2  0
 10 12  1  0
 12 13  1  0
 13 14  2  0
 13 15  1  0
 15 16  2  3
 16 17  1  0
 16 26  1  0
 17 18  1  0
 18 19  1  0
 18 24  1  0
 19 20  1  6
 19 22  1  0
 20 21  1  0
 22 23  1  0
 24 25  1  0
 25 26  1  0
 26 27  1  6
 27 28  1  0
 28 29  1  0
 29 30  1  6
 29 31  1  0
 32 33  2  0
 32 34  1  0
M  CHG  2  21   1  23   1
M  END
