
     RDKit          3D

 35 37  0  0  0  0  0  0  0  0999 V2000
   -5.4630    3.1510   -2.7970 C   0  0  0  0  0  0  0  0  0  0  0  0
   -5.0350    2.5270   -1.4960 C   0  0  0  0  0  0  0  0  0  0  0  0
   -3.8800    1.9050   -1.3900 C   0  0  0  0  0  0  0  0  0  0  0  0
   -3.4400    1.2930   -0.1470 C   0  0  0  0  0  0  0  0  0  0  0  0
   -2.2270    0.6640   -0.1100 O   0  0  0  0  0  0  0  0  0  0  0  0
   -2.0650   -0.7170   -0.1000 C   0  0  0  0  0  0  0  0  0  0  0  0
   -3.1380   -1.5790   -0.1270 C   0  0  0  0  0  0  0  0  0  0  0  0
   -2.9840   -2.9360   -0.1180 C   0  0  0  0  0  0  0  0  0  0  0  0
   -4.1340   -3.8950   -0.1460 C   0  0  0  0  0  0  0  0  0  0  0  0
   -5.3730   -3.1210   -0.1840 N   0  0  0  0  0  0  0  0  0  0  0  0
   -1.7160   -3.4480   -0.0800 C   0  0  0  0  0  0  0  0  0  0  0  0
   -1.4960   -4.9170   -0.0680 C   0  0  0  0  0  0  0  0  0  0  0  0
   -0.6220   -2.5620   -0.0530 C   0  0  0  0  0  0  0  0  0  0  0  0
   -0.7530   -1.2100   -0.0620 C   0  0  0  0  0  0  0  0  0  0  0  0
    0.2920   -0.2750   -0.0360 N   0  0  0  0  0  0  0  0  0  0  0  0
    1.6530   -0.6650    0.0030 C   0  0  0  0  0  0  0  0  0  0  0  0
    2.0680   -1.8370    0.0180 O   0  0  0  0  0  0  0  0  0  0  0  0
    2.7030    0.4250    0.0290 C   0  0  0  0  0  0  0  0  0  0  0  0
    3.9630   -0.2000    0.0670 O   0  0  0  0  0  0  0  0  0  0  0  0
    5.1280    0.5720    0.0970 C   0  0  0  0  0  0  0  0  0  0  0  0
    4.9650    1.7990    0.0880 O   0  0  0  0  0  0  0  0  0  0  0  0
    6.4100    0.0090    0.1350 N   0  0  0  0  0  0  0  0  0  0  0  0
    7.6130    0.7370    0.1670 C   0  0  0  0  0  0  0  0  0  0  0  0
    7.7770    2.0860    0.1660 C   0  0  0  0  0  0  0  0  0  0  0  0
    9.0210    2.7030    0.2000 C   0  0  0  0  0  0  0  0  0  0  0  0
   10.1670    1.9680    0.2360 C   0  0  0  0  0  0  0  0  0  0  0  0
   11.3980    2.5980    0.2690 O   0  0  0  0  0  0  0  0  0  0  0  0
   10.0490    0.5950    0.2380 C   0  0  0  0  0  0  0  0  0  0  0  0
    8.8060    0.0000    0.2040 C   0  0  0  0  0  0  0  0  0  0  0  0
   -4.1670    1.3190    0.9550 C   0  0  0  0  0  0  0  0  0  0  0  0
   -3.7360    0.7020    2.2280 C   0  0  0  0  0  0  0  0  0  0  0  0
   -3.6770    1.7780    3.2240 N   0  0  0  0  0  0  0  0  0  0  0  0
   -5.4510    1.9940    0.8900 C   0  0  0  0  0  0  0  0  0  0  0  0
   -6.1570    2.0250    1.9440 O   0  0  0  0  0  0  0  0  0  0  0  0
   -5.9370    2.6280   -0.3470 C   0  0  0  0  0  0  0  0  0  0  0  0
  1  2  1  0
  2  3  2  0
  2 35  1  0
  3  4  1  0
  4  5  1  0
  4 30  2  0
  5  6  1  0
  6  7  2  0
  6 14  1  0
  7  8  1  0
  8  9  1  0
  8 11  2  0
  9 10  1  0
 11 12  1  0
 11 13  1  0
 13 14  2  0
 14 15  1  0
 15 16  1  0
 16 17  2  0
 16 18  1  0
 18 19  1  0
 19 20  1  0
 20 21  2  0
 20 22  1  0
 22 23  1  0
 23 24  2  0
 23 29  1  0
 24 25  1  0
 25 26  2  0
 26 27  1  0
 26 28  1  0
 28 29  2  0
 30 31  1  0
 30 33  1  0
 31 32  1  0
 33 34  2  0
 33 35  1  0
M  CHG  1  10   1
M  END
