
     RDKit          3D

 34 36  0  0  0  0  0  0  0  0999 V2000
   -8.3420    1.7730   -0.6830 C   0  0  0  0  0  0  0  0  0  0  0  0
   -7.6760    1.9300    0.5340 O   0  0  0  0  0  0  0  0  0  0  0  0
   -6.4780    1.3010    0.8760 C   0  0  0  0  0  0  0  0  0  0  0  0
   -5.9740    1.5780    2.1200 C   0  0  0  0  0  0  0  0  0  0  0  0
   -4.7890    0.9890    2.5270 C   0  0  0  0  0  0  0  0  0  0  0  0
   -4.1260    0.1310    1.6810 C   0  0  0  0  0  0  0  0  0  0  0  0
   -4.6180   -0.1630    0.4200 C   0  0  0  0  0  0  0  0  0  0  0  0
   -3.8590   -1.0710   -0.4230 C   0  0  1  0  0  0  0  0  0  0  0  0
   -4.4000   -1.3680   -1.7690 C   0  0  0  0  0  0  0  0  0  0  0  0
   -5.7160   -2.0050   -1.7730 C   0  0  0  0  0  0  0  0  0  0  0  0
   -6.4230   -2.4650   -0.6470 N   0  0  0  0  0  0  0  0  0  0  0  0
   -6.2910   -2.1660   -2.9050 O   0  0  0  0  0  0  0  0  0  0  0  0
   -2.4710   -0.6150   -0.5050 N   0  0  0  0  0  0  0  0  0  0  0  0
   -2.3710    0.7530   -0.8320 C   0  0  0  0  0  0  0  0  0  0  0  0
   -1.0890    1.3200   -1.2480 C   0  0  0  0  0  0  0  0  0  0  0  0
    0.0420    1.3380   -0.4120 N   0  0  0  0  0  0  0  0  0  0  0  0
    0.7780    0.2340    0.0700 C   0  0  0  0  0  0  0  0  0  0  0  0
    0.4200   -0.8980   -0.3020 O   0  0  0  0  0  0  0  0  0  0  0  0
    1.8640    0.4350    0.9300 N   0  0  0  0  0  0  0  0  0  0  0  0
    2.7280   -0.5360    1.4770 C   0  0  0  0  0  0  0  0  0  0  0  0
    3.5850   -1.2820    0.5120 C   0  0  2  0  0  0  0  0  0  0  0  0
    4.3700   -0.3570   -0.2740 N   0  0  0  0  0  0  0  0  0  0  0  0
    5.3050    0.6100    0.1490 C   0  0  0  0  0  0  0  0  0  0  0  0
    5.8600    0.6910    1.4010 C   0  0  0  0  0  0  0  0  0  0  0  0
    6.7600    1.6850    1.7610 C   0  0  0  0  0  0  0  0  0  0  0  0
    7.1210    2.6340    0.8380 C   0  0  0  0  0  0  0  0  0  0  0  0
    6.5790    2.5790   -0.4330 C   0  0  0  0  0  0  0  0  0  0  0  0
    6.9970    3.6310   -1.4030 C   0  0  0  0  0  0  0  0  0  0  0  0
    5.6960    1.5980   -0.7750 C   0  0  0  0  0  0  0  0  0  0  0  0
    2.8300   -2.2430   -0.3480 C   0  0  0  0  0  0  0  0  0  0  0  0
    3.8770   -3.4110   -0.5130 C   0  0  0  0  0  0  0  0  0  0  0  0
    4.1720   -3.5400    0.9180 N   0  0  0  0  0  0  0  0  0  0  0  0
    4.5480   -2.2020    1.2770 C   0  0  0  0  0  0  0  0  0  0  0  0
   -5.8010    0.4480    0.0590 C   0  0  0  0  0  0  0  0  0  0  0  0
  1  2  1  0
  2  3  1  0
  3  4  2  0
  3 34  1  0
  4  5  1  0
  5  6  2  0
  6  7  1  0
  7  8  1  0
  7 34  2  0
  8  9  1  6
  8 13  1  0
  9 10  1  0
 10 11  1  0
 10 12  2  0
 13 14  1  0
 14 15  1  0
 15 16  1  0
 16 17  1  0
 17 18  2  0
 17 19  1  0
 19 20  1  0
 21 20  1  1
 21 22  1  0
 21 30  1  0
 21 33  1  0
 22 23  1  0
 23 24  2  0
 23 29  1  0
 24 25  1  0
 25 26  2  0
 26 27  1  0
 27 28  1  0
 27 29  2  0
 30 31  1  0
 31 32  1  0
 32 33  1  0
M  CHG  2  13   1  32   1
M  END
