
     RDKit          3D

 25 25  0  0  0  0  0  0  0  0999 V2000
   -2.3360   -0.8160   -4.4930 C   0  0  0  0  0  0  0  0  0  0  0  0
   -1.8800    0.2670   -3.9160 N   0  0  0  0  0  0  0  0  0  0  0  0
   -1.7230    0.3450   -2.5200 C   0  0  0  0  0  0  0  0  0  0  0  0
   -0.6440   -0.1320   -1.9100 C   0  0  0  0  0  0  0  0  0  0  0  0
   -0.5370   -0.0170   -0.4120 C   0  0  2  0  0  0  0  0  0  0  0  0
   -1.6350   -0.8620    0.1280 C   0  0  0  0  0  0  0  0  0  0  0  0
   -1.3250   -1.8520    0.8330 O   0  0  0  0  0  0  0  0  0  0  0  0
   -2.9700   -0.5940   -0.1200 O   0  0  0  0  0  0  0  0  0  0  0  0
   -3.9200   -1.3810    0.3860 O   0  0  0  0  0  0  0  0  0  0  0  0
   -3.3840   -2.1970    1.8210 P   0  0  0  0  0  0  0  0  0  0  0  0
   -0.8250    1.4250   -0.0840 C   0  0  0  0  0  0  0  0  0  0  0  0
    0.3760    2.0170    0.4640 C   0  0  0  0  0  0  0  0  0  0  0  0
    0.3100    3.3210    0.6660 C   0  0  0  0  0  0  0  0  0  0  0  0
    0.1870    4.5960    0.9480 C   0  0  0  0  0  0  0  0  0  0  0  0
   -0.3100    4.9050    2.2680 C   0  0  0  0  0  0  0  0  0  0  0  0
    0.5520    5.3590   -0.0580 F   0  0  0  0  0  0  0  0  0  0  0  0
    1.5610    1.4630    0.8070 O   0  0  0  0  0  0  0  0  0  0  0  0
    1.7090    0.0880    0.5260 C   0  0  0  0  0  0  0  0  0  0  0  0
    2.9130   -0.5430    0.8590 O   0  0  0  0  0  0  0  0  0  0  0  0
    3.0400   -1.8940    0.5750 C   0  0  0  0  0  0  0  0  0  0  0  0
    2.0920   -2.5090    0.0380 O   0  0  0  0  0  0  0  0  0  0  0  0
    4.2620   -2.6180    0.8910 C   0  0  0  0  0  0  0  0  0  0  0  0
    4.4120   -4.0490    0.5970 C   0  0  0  0  0  0  0  0  0  0  0  0
    5.2110   -2.0030    1.4290 O   0  0  0  0  0  0  0  0  0  0  0  0
    0.7330   -0.5020   -0.0160 N   0  0  0  0  0  0  0  0  0  0  0  0
  1  2  2  0
  2  3  1  0
  3  4  2  3
  5  4  1  6
  5  6  1  0
  5 11  1  0
  5 25  1  0
  6  7  2  0
  6  8  1  0
  8  9  1  0
  9 10  1  0
 11 12  1  0
 12 13  2  0
 12 17  1  0
 13 14  2  0
 14 15  1  0
 14 16  1  0
 17 18  1  0
 18 19  1  0
 18 25  2  0
 19 20  1  0
 20 21  2  0
 20 22  1  0
 22 23  1  0
 22 24  2  0
M  END
