
     RDKit          3D

 10  9  0  0  0  0  0  0  0  0999 V2000
   -0.1830    0.3760    1.2900 O   0  0  0  0  0  0  0  0  0  0  0  0
   -0.7780    0.3990    0.0540 C   0  0  2  0  0  0  0  0  0  0  0  0
   -2.0190   -0.4570    0.0330 C   0  0  0  0  0  0  0  0  0  0  0  0
   -3.0430    0.0140    1.0050 C   0  0  0  0  0  0  0  0  0  0  0  0
   -2.4500   -0.0120    2.6500 Cl  0  0  0  0  0  0  0  0  0  0  0  0
    0.1760   -0.0410   -1.0540 C   0  0  0  0  0  0  0  0  0  0  0  0
    1.2790    0.7260   -1.1860 O   0  0  0  0  0  0  0  0  0  0  0  0
    2.2320    0.8250   -0.2540 C   0  0  0  0  0  0  0  0  0  0  0  0
    3.0770   -0.3780    0.0410 C   0  0  0  0  0  0  0  0  0  0  0  0
    2.2140   -1.7880    0.6120 Cl  0  0  0  0  0  0  0  0  0  0  0  0
  2  1  1  1
  2  3  1  0
  2  6  1  0
  3  4  1  0
  4  5  1  0
  6  7  1  0
  7  8  1  0
  8  9  1  0
  9 10  1  0
M  END
