
     RDKit          3D

 17 18  0  0  0  0  0  0  0  0999 V2000
    3.8720   -0.6860   -0.6550 C   0  0  0  0  0  0  0  0  0  0  0  0
    2.6670   -1.2970   -0.3930 O   0  0  0  0  0  0  0  0  0  0  0  0
    1.4640   -0.7420    0.0060 C   0  0  0  0  0  0  0  0  0  0  0  0
    0.4570   -1.0150   -0.7970 C   0  0  0  0  0  0  0  0  0  0  0  0
   -0.6020   -1.3730   -1.7510 C   0  0  0  0  0  0  0  0  0  0  0  0
   -0.9130   -2.1780   -3.2530 Cl  0  0  0  0  0  0  0  0  0  0  0  0
   -0.9450   -0.6780   -0.6440 C   0  0  0  0  0  0  0  0  0  0  0  0
   -1.6440    0.0770    0.4600 C   0  0  1  0  0  0  0  0  0  0  0  0
   -1.7370    1.5310    0.1190 C   0  0  0  0  0  0  0  0  0  0  0  0
   -2.9410   -0.5610    0.7340 C   0  0  0  0  0  0  0  0  0  0  0  0
   -4.0120   -0.5010   -0.2880 C   0  0  0  0  0  0  0  0  0  0  0  0
   -3.1350   -1.1290    1.7790 O   0  0  0  0  0  0  0  0  0  0  0  0
   -0.8280   -0.1390    1.6020 O   0  0  0  0  0  0  0  0  0  0  0  0
    0.2180    0.5810    1.6000 O   0  0  0  0  0  0  0  0  0  0  0  0
    1.4230    0.0700    1.2390 C   0  0  2  0  0  0  0  0  0  0  0  0
    2.3100    1.3020    0.9590 C   0  0  0  0  0  0  0  0  0  0  0  0
    2.2300   -0.8010    2.5700 Cl  0  0  0  0  0  0  0  0  0  0  0  0
  1  2  1  0
  2  3  1  0
  3  4  2  0
  3 15  1  0
  4  5  1  0
  4  7  1  0
  5  6  1  0
  5  7  2  0
  7  8  1  0
  8  9  1  6
  8 10  1  0
  8 13  1  0
 10 11  1  0
 10 12  2  0
 13 14  1  0
 14 15  1  0
 15 16  1  6
 15 17  1  0
M  END
