
     RDKit          3D

 21 22  0  0  0  0  0  0  0  0999 V2000
   -2.5880    1.6640   -0.5940 N   0  0  0  0  0  0  0  0  0  0  0  0
   -3.3490    0.4390   -0.4870 C   0  0  1  0  0  0  0  0  0  0  0  0
   -2.6020   -0.7590   -1.0190 C   0  0  0  0  0  0  0  0  0  0  0  0
   -1.3350   -1.0070   -0.3110 C   0  0  0  0  0  0  0  0  0  0  0  0
   -1.3190   -1.8330    0.8050 C   0  0  0  0  0  0  0  0  0  0  0  0
   -0.1510   -2.0900    1.4960 C   0  0  0  0  0  0  0  0  0  0  0  0
   -0.1260   -3.1340    2.9080 Cl  0  0  0  0  0  0  0  0  0  0  0  0
    1.0540   -1.5370    1.1050 C   0  0  0  0  0  0  0  0  0  0  0  0
    2.5430   -1.8700    1.9760 Cl  0  0  0  0  0  0  0  0  0  0  0  0
    1.0610   -0.7140    0.0000 C   0  0  0  0  0  0  0  0  0  0  0  0
    2.3070   -0.1040   -0.4410 C   0  0  0  0  0  0  0  0  0  0  0  0
    2.7360   -0.1170   -1.7560 C   0  0  0  0  0  0  0  0  0  0  0  0
    3.8820    0.4570   -2.1400 N   0  0  0  0  0  0  0  0  0  0  0  0
    4.6940    1.0850   -1.2740 C   0  0  0  0  0  0  0  0  0  0  0  0
    4.3170    1.1290    0.0490 C   0  0  0  0  0  0  0  0  0  0  0  0
    5.1520    1.7760    0.9470 O   0  0  0  0  0  0  0  0  0  0  0  0
    3.1220    0.5330    0.4650 C   0  0  0  0  0  0  0  0  0  0  0  0
   -0.1310   -0.4600   -0.6930 C   0  0  0  0  0  0  0  0  0  0  0  0
   -3.8760    0.2290    0.8790 C   0  0  0  0  0  0  0  0  0  0  0  0
   -4.5540   -0.8110    1.0800 O   0  0  0  0  0  0  0  0  0  0  0  0
   -3.6560    1.1170    1.9290 O   0  0  0  0  0  0  0  0  0  0  0  0
  2  1  1  1
  2  3  1  0
  2 19  1  0
  3  4  1  0
  4  5  2  0
  4 18  1  0
  5  6  1  0
  6  7  1  0
  6  8  2  0
  8  9  1  0
  8 10  1  0
 10 11  1  0
 10 18  2  0
 11 12  2  0
 11 17  1  0
 12 13  1  0
 13 14  2  0
 14 15  1  0
 15 16  1  0
 15 17  2  0
 19 20  2  0
 19 21  1  0
M  CHG  1   1   1
M  END
