
     RDKit          3D

  9  8  0  0  0  0  0  0  0  0999 V2000
   -2.1880   -0.7390    0.7600 C   0  0  0  0  0  0  0  0  0  0  0  0
   -1.2730   -0.1880   -0.3140 C   0  0  1  0  0  0  0  0  0  0  0  0
   -2.0810    0.6940   -1.2390 C   0  0  0  0  0  0  0  0  0  0  0  0
   -0.2470    0.5000    0.3130 O   0  0  0  0  0  0  0  0  0  0  0  0
    1.0100    0.0170    0.0090 C   0  0  2  0  0  0  0  0  0  0  0  0
    1.7160   -0.4550    1.2690 C   0  0  0  0  0  0  0  0  0  0  0  0
    2.9800   -0.9360    0.9290 O   0  0  0  0  0  0  0  0  0  0  0  0
    1.8190    1.1620   -0.5600 C   0  0  0  0  0  0  0  0  0  0  0  0
    3.4640    0.6490   -0.9880 Cl  0  0  0  0  0  0  0  0  0  0  0  0
  2  1  1  1
  2  3  1  0
  2  4  1  0
  4  5  1  0
  5  6  1  1
  5  8  1  0
  6  7  1  0
  8  9  1  0
M  END
