
     RDKit          3D

 17 17  0  0  0  0  0  0  0  0999 V2000
   -2.0270    1.8700    0.8730 C   0  0  0  0  0  0  0  0  0  0  0  0
   -2.2080    0.6270    0.0890 C   0  0  0  0  0  0  0  0  0  0  0  0
   -3.4710    0.5160   -0.6910 C   0  0  0  0  0  0  0  0  0  0  0  0
   -1.2880   -0.3380    0.0820 C   0  0  0  0  0  0  0  0  0  0  0  0
   -1.5200   -1.5370   -0.7040 C   0  0  0  0  0  0  0  0  0  0  0  0
   -0.6500   -2.4680   -0.7150 O   0  0  0  0  0  0  0  0  0  0  0  0
   -2.6500   -1.7760   -1.4790 O   0  0  0  0  0  0  0  0  0  0  0  0
   -0.0140   -0.2690    0.8410 C   0  0  2  0  0  0  0  0  0  0  0  0
   -0.0550   -1.6250    2.0230 Cl  0  0  0  0  0  0  0  0  0  0  0  0
    0.1270    0.8700    1.5740 O   0  0  0  0  0  0  0  0  0  0  0  0
    1.4120    1.0080    1.7660 O   0  0  0  0  0  0  0  0  0  0  0  0
    2.0020    0.8490    0.5120 C   0  0  2  0  0  0  0  0  0  0  0  0
    3.4660    0.6630    0.5140 C   0  0  0  0  0  0  0  0  0  0  0  0
    1.5990    2.3020   -0.4480 Cl  0  0  0  0  0  0  0  0  0  0  0  0
    1.2230   -0.3710    0.0270 C   0  0  2  0  0  0  0  0  0  0  0  0
    0.9990   -0.1770   -1.4520 C   0  0  0  0  0  0  0  0  0  0  0  0
    1.9440   -1.6440    0.2770 C   0  0  0  0  0  0  0  0  0  0  0  0
  1  2  1  0
  2  3  1  0
  2  4  2  3
  4  5  1  0
  4  8  1  0
  5  6  2  0
  5  7  1  0
  8  9  1  1
  8 10  1  0
  8 15  1  0
 10 11  1  0
 11 12  1  0
 12 13  1  1
 12 14  1  0
 12 15  1  0
 15 16  1  6
 15 17  1  0
M  END
