
     RDKit          3D

 17 18  0  0  0  0  0  0  0  0999 V2000
    5.1740   -0.1290   -0.2370 C   0  0  0  0  0  0  0  0  0  0  0  0
    3.6920    0.1210   -0.1580 C   0  0  0  0  0  0  0  0  0  0  0  0
    2.6640   -0.3580    0.5070 C   0  0  0  0  0  0  0  0  0  0  0  0
    2.5610   -1.3670    1.4700 O   0  0  0  0  0  0  0  0  0  0  0  0
    1.6580    0.5050   -0.0860 C   0  0  0  0  0  0  0  0  0  0  0  0
    0.3430    0.7030    0.0070 C   0  0  0  0  0  0  0  0  0  0  0  0
   -0.4780    1.9110   -0.9470 Cl  0  0  0  0  0  0  0  0  0  0  0  0
   -0.3520   -0.1010    0.9040 O   0  0  0  0  0  0  0  0  0  0  0  0
   -1.7350   -0.0070    1.0420 C   0  0  0  0  0  0  0  0  0  0  0  0
   -2.4900    0.1420    2.6100 Cl  0  0  0  0  0  0  0  0  0  0  0  0
   -2.4940   -0.0320   -0.0330 C   0  0  0  0  0  0  0  0  0  0  0  0
   -3.9670    0.0680    0.1250 C   0  0  1  0  0  0  0  0  0  0  0  0
   -4.5360    1.3420    0.2590 O   0  0  0  0  0  0  0  0  0  0  0  0
   -4.7840   -0.9630   -0.5300 C   0  0  0  0  0  0  0  0  0  0  0  0
   -4.6000   -1.0440    0.8330 C   0  0  0  0  0  0  0  0  0  0  0  0
    2.7860    1.0440   -0.8270 C   0  0  0  0  0  0  0  0  0  0  0  0
    2.8580    1.9530   -1.6910 O   0  0  0  0  0  0  0  0  0  0  0  0
  1  2  1  0
  2  3  2  0
  2 16  1  0
  3  4  1  0
  3  5  1  0
  5  6  2  3
  5 16  1  0
  6  7  1  0
  6  8  1  0
  8  9  1  0
  9 10  1  0
  9 11  2  3
 11 12  1  0
 12 13  1  1
 12 14  1  0
 12 15  1  0
 14 15  2  0
 16 17  2  0
M  END
