
     RDKit          3D

  9  8  0  0  0  0  0  0  0  0999 V2000
   -1.8210   -1.3320   -0.7560 C   0  0  0  0  0  0  0  0  0  0  0  0
   -1.7400   -0.2810    0.3130 C   0  0  1  0  0  0  0  0  0  0  0  0
   -2.2770   -0.7860    1.4940 O   0  0  0  0  0  0  0  0  0  0  0  0
   -0.3420    0.1660    0.5990 C   0  0  2  0  0  0  0  0  0  0  0  0
   -0.3800    1.1500    1.5790 O   0  0  0  0  0  0  0  0  0  0  0  0
    0.3550    0.7160   -0.6300 C   0  0  0  0  0  0  0  0  0  0  0  0
    1.7530    1.1430   -0.2600 C   0  0  0  0  0  0  0  0  0  0  0  0
    2.5860    0.0000    0.2790 C   0  0  0  0  0  0  0  0  0  0  0  0
    2.7040   -1.2620   -0.9610 Cl  0  0  0  0  0  0  0  0  0  0  0  0
  2  1  1  6
  2  3  1  0
  2  4  1  0
  4  5  1  1
  4  6  1  0
  6  7  1  0
  7  8  1  0
  8  9  1  0
M  END
