
     RDKit          3D

 28 30  0  0  0  0  0  0  0  0999 V2000
   -3.1410    1.8930    4.7200 C   0  0  0  0  0  0  0  0  0  0  0  0
   -1.9300    1.4840    4.1330 O   0  0  0  0  0  0  0  0  0  0  0  0
   -1.9540    0.9360    2.8620 C   0  0  0  0  0  0  0  0  0  0  0  0
   -3.0610    0.8280    2.2860 O   0  0  0  0  0  0  0  0  0  0  0  0
   -0.7170    0.4830    2.1810 C   0  0  0  0  0  0  0  0  0  0  0  0
   -1.0480   -0.0630    0.8080 C   0  0  2  0  0  0  0  0  0  0  0  0
    0.1320   -0.5290    0.0840 C   0  0  0  0  0  0  0  0  0  0  0  0
    0.9130   -1.4580    0.5020 N   0  0  0  0  0  0  0  0  0  0  0  0
    2.0100   -1.8230   -0.2690 N   0  0  0  0  0  0  0  0  0  0  0  0
    3.2790   -1.1670   -0.0290 C   0  0  0  0  0  0  0  0  0  0  0  0
    3.3700   -0.2870    0.8630 O   0  0  0  0  0  0  0  0  0  0  0  0
    4.4230   -1.5090   -0.7930 N   0  0  0  0  0  0  0  0  0  0  0  0
    5.6690   -0.9160   -0.6110 N   0  0  0  0  0  0  0  0  0  0  0  0
    6.0990    0.0270    0.2260 C   0  0  0  0  0  0  0  0  0  0  0  0
    7.4480    0.3050    0.0410 C   0  0  0  0  0  0  0  0  0  0  0  0
    7.8290   -0.5130   -0.9530 N   0  0  0  0  0  0  0  0  0  0  0  0
    6.7680   -1.2440   -1.3440 C   0  0  0  0  0  0  0  0  0  0  0  0
    6.7640   -2.1210   -2.2630 O   0  0  0  0  0  0  0  0  0  0  0  0
    0.2870    0.2030   -1.1540 C   0  0  0  0  0  0  0  0  0  0  0  0
    1.0550   -0.0790   -2.1390 O   0  0  0  0  0  0  0  0  0  0  0  0
   -0.6300    1.3750   -1.0810 C   0  0  0  0  0  0  0  0  0  0  0  0
   -1.6850    0.9460   -0.0810 C   0  0  1  0  0  0  0  0  0  0  0  0
   -2.8320    0.4040   -0.8710 C   0  0  0  0  0  0  0  0  0  0  0  0
   -4.0540    0.8560   -0.8020 C   0  0  0  0  0  0  0  0  0  0  0  0
   -5.1700    0.3390   -1.5620 C   0  0  0  0  0  0  0  0  0  0  0  0
   -4.9180   -0.7280   -2.4490 N   0  0  0  0  0  0  0  0  0  0  0  0
   -3.6140   -1.1950   -2.5070 C   0  0  0  0  0  0  0  0  0  0  0  0
   -2.6290   -0.7100   -1.8060 C   0  0  0  0  0  0  0  0  0  0  0  0
  1  2  1  0
  2  3  1  0
  3  4  2  0
  3  5  1  0
  6  5  1  1
  6  7  1  0
  6 22  1  0
  7  8  2  3
  7 19  1  0
  8  9  1  0
  9 10  1  0
 10 11  2  0
 10 12  1  0
 12 13  1  0
 13 14  1  0
 13 17  1  0
 14 15  2  0
 15 16  1  0
 16 17  1  0
 17 18  2  0
 19 20  2  0
 19 21  1  0
 21 22  1  0
 22 23  1  6
 23 24  2  0
 23 28  1  0
 24 25  1  0
 25 26  1  0
 26 27  1  0
 27 28  2  0
M  CHG  1  26   1
M  END
