
     RDKit          3D

 28 30  0  0  0  0  0  0  0  0999 V2000
   -4.1450    2.9150   -1.0740 N   0  0  0  0  0  0  0  0  0  0  0  0
   -3.1380    2.9140   -0.0740 C   0  0  0  0  0  0  0  0  0  0  0  0
   -3.0940    3.8420    0.7450 O   0  0  0  0  0  0  0  0  0  0  0  0
   -2.1530    1.8140   -0.0130 C   0  0  2  0  0  0  0  0  0  0  0  0
   -1.4040    1.7950   -1.3170 C   0  0  0  0  0  0  0  0  0  0  0  0
   -0.7070    0.4790   -1.5660 C   0  0  1  0  0  0  0  0  0  0  0  0
    0.4010    0.2720   -0.6640 N   0  0  0  0  0  0  0  0  0  0  0  0
    1.7080    0.1650   -1.1720 C   0  0  0  0  0  0  0  0  0  0  0  0
    1.9040    0.2510   -2.4050 O   0  0  0  0  0  0  0  0  0  0  0  0
    2.8350   -0.0420   -0.2890 C   0  0  0  0  0  0  0  0  0  0  0  0
    4.0410   -0.1380   -0.7920 C   0  0  0  0  0  0  0  0  0  0  0  0
    5.2250   -0.3460    0.0200 C   0  0  0  0  0  0  0  0  0  0  0  0
    6.4340   -0.4380   -0.5240 C   0  0  0  0  0  0  0  0  0  0  0  0
    7.6750   -0.6450    0.2070 C   0  0  0  0  0  0  0  0  0  0  0  0
    7.5660   -0.7510    1.6060 N   0  0  0  0  0  0  0  0  0  0  0  0
    6.2850   -0.6510    2.1510 C   0  0  0  0  0  0  0  0  0  0  0  0
    5.1930   -0.4670    1.4650 C   0  0  0  0  0  0  0  0  0  0  0  0
   -1.6880   -0.6710   -1.5360 C   0  0  0  0  0  0  0  0  0  0  0  0
   -2.6150   -0.5400   -0.4290 N   0  0  0  0  0  0  0  0  0  0  0  0
   -3.4100   -1.5200    0.0840 C   0  0  0  0  0  0  0  0  0  0  0  0
   -3.5010   -2.7200   -0.2930 O   0  0  0  0  0  0  0  0  0  0  0  0
   -4.1180   -0.9970    1.0980 N   0  0  0  0  0  0  0  0  0  0  0  0
   -5.0980   -1.6650    1.9460 C   0  0  0  0  0  0  0  0  0  0  0  0
   -6.4680   -1.5010    1.2780 C   0  0  0  0  0  0  0  0  0  0  0  0
   -6.4470   -2.0830    0.0070 O   0  0  0  0  0  0  0  0  0  0  0  0
   -3.7470    0.2920    1.1920 C   0  0  0  0  0  0  0  0  0  0  0  0
   -4.2160    1.1060    2.0500 O   0  0  0  0  0  0  0  0  0  0  0  0
   -2.8260    0.5540    0.2490 N   0  0  0  0  0  0  0  0  0  0  0  0
  1  2  1  0
  2  3  2  0
  4  2  1  6
  4  5  1  0
  4 28  1  0
  5  6  1  0
  6  7  1  1
  6 18  1  0
  7  8  1  0
  8  9  2  0
  8 10  1  0
 10 11  2  3
 11 12  1  0
 12 13  2  0
 12 17  1  0
 13 14  1  0
 14 15  1  0
 15 16  1  0
 16 17  2  0
 18 19  1  0
 19 20  1  0
 19 28  1  0
 20 21  2  0
 20 22  1  0
 22 23  1  0
 22 26  1  0
 23 24  1  0
 24 25  1  0
 26 27  2  0
 26 28  1  0
M  CHG  1  15   1
M  END
