
     RDKit          3D

 28 30  0  0  0  0  0  0  0  0999 V2000
   -4.6910    4.9940    0.2370 C   0  0  0  0  0  0  0  0  0  0  0  0
   -4.2140    3.6890    0.0040 O   0  0  0  0  0  0  0  0  0  0  0  0
   -2.8990    3.3390    0.1910 C   0  0  0  0  0  0  0  0  0  0  0  0
   -1.9480    4.2120    0.6140 C   0  0  0  0  0  0  0  0  0  0  0  0
   -0.6880    3.8060    0.7750 N   0  0  0  0  0  0  0  0  0  0  0  0
   -0.3110    2.5470    0.5330 C   0  0  0  0  0  0  0  0  0  0  0  0
    1.0080    2.2040    0.7230 C   0  0  0  0  0  0  0  0  0  0  0  0
    1.4660    0.9070    0.4880 C   0  0  0  0  0  0  0  0  0  0  0  0
    2.8340    0.6160    0.7100 N   0  0  0  0  0  0  0  0  0  0  0  0
    3.5330   -0.5460    0.3990 C   0  0  0  0  0  0  0  0  0  0  0  0
    2.9760   -1.4980   -0.1470 O   0  0  0  0  0  0  0  0  0  0  0  0
    4.9290   -0.6780    0.7050 N   0  0  0  0  0  0  0  0  0  0  0  0
    5.6470   -1.8920    0.3770 C   0  0  0  0  0  0  0  0  0  0  0  0
    7.0430   -1.7510    0.7970 C   0  0  0  0  0  0  0  0  0  0  0  0
    8.0160   -2.7930    0.6080 N   0  0  0  0  0  0  0  0  0  0  0  0
    7.4370   -0.7000    1.3440 O   0  0  0  0  0  0  0  0  0  0  0  0
    0.5180    0.0220    0.0620 C   0  0  0  0  0  0  0  0  0  0  0  0
   -0.8230    0.2860   -0.1520 C   0  0  0  0  0  0  0  0  0  0  0  0
   -1.7660   -0.6670   -0.5940 N   0  0  0  0  0  0  0  0  0  0  0  0
   -1.5470   -2.0280   -0.8970 C   0  0  0  0  0  0  0  0  0  0  0  0
   -0.4010   -2.5040   -0.7820 O   0  0  0  0  0  0  0  0  0  0  0  0
   -2.6870   -2.9170   -1.3610 C   0  0  1  0  0  0  0  0  0  0  0  0
   -2.9340   -4.0510   -0.4080 C   0  0  0  0  0  0  0  0  0  0  0  0
   -3.6710   -3.3270    0.6430 N   0  0  0  0  0  0  0  0  0  0  0  0
   -4.3990   -2.3180   -0.1110 C   0  0  0  0  0  0  0  0  0  0  0  0
   -3.8300   -2.1710   -1.3380 O   0  0  0  0  0  0  0  0  0  0  0  0
   -1.2400    1.6040    0.0970 C   0  0  0  0  0  0  0  0  0  0  0  0
   -2.5490    2.0030   -0.0760 C   0  0  0  0  0  0  0  0  0  0  0  0
  1  2  1  0
  2  3  1  0
  3  4  2  0
  3 28  1  0
  4  5  1  0
  5  6  2  0
  6  7  1  0
  6 27  1  0
  7  8  2  0
  8  9  1  0
  8 17  1  0
  9 10  1  0
 10 11  2  0
 10 12  1  0
 12 13  1  0
 13 14  1  0
 14 15  1  0
 14 16  2  0
 17 18  2  0
 18 19  1  0
 18 27  1  0
 19 20  1  0
 20 21  2  0
 22 20  1  1
 22 23  1  0
 22 26  1  0
 23 24  1  0
 24 25  1  0
 25 26  1  0
 27 28  2  0
M  CHG  1   5   1
M  END
