
     RDKit          3D

 28 30  0  0  0  0  0  0  0  0999 V2000
   -4.2920    1.7560   -5.1530 N   0  0  0  0  0  0  0  0  0  0  0  0
   -5.1020    1.2320   -4.0750 C   0  0  0  0  0  0  0  0  0  0  0  0
   -6.3270    1.1960   -4.2280 O   0  0  0  0  0  0  0  0  0  0  0  0
   -4.4240    0.8000   -2.9250 N   0  0  0  0  0  0  0  0  0  0  0  0
   -5.0590    0.2650   -1.7950 C   0  0  0  0  0  0  0  0  0  0  0  0
   -6.4090    0.0740   -1.7410 C   0  0  0  0  0  0  0  0  0  0  0  0
   -7.0080   -0.4750   -0.5870 C   0  0  0  0  0  0  0  0  0  0  0  0
   -8.3240   -0.7690   -0.2750 C   0  0  0  0  0  0  0  0  0  0  0  0
   -8.3180   -1.2860    0.9850 C   0  0  0  0  0  0  0  0  0  0  0  0
   -7.0490   -1.3040    1.4170 N   0  0  0  0  0  0  0  0  0  0  0  0
   -6.2060   -0.8100    0.4750 C   0  0  0  0  0  0  0  0  0  0  0  0
   -4.8360   -0.6090    0.4010 C   0  0  0  0  0  0  0  0  0  0  0  0
   -4.2420   -0.0800   -0.7060 C   0  0  0  0  0  0  0  0  0  0  0  0
   -2.9070    0.1200   -0.7890 O   0  0  0  0  0  0  0  0  0  0  0  0
   -1.9270   -0.1520    0.1770 C   0  0  0  0  0  0  0  0  0  0  0  0
   -0.6060    0.2410   -0.3960 C   0  0  0  0  0  0  0  0  0  0  0  0
    0.5250    0.0160    0.5220 C   0  0  0  0  0  0  0  0  0  0  0  0
    0.3420   -0.4680    1.6860 O   0  0  0  0  0  0  0  0  0  0  0  0
    1.8750    0.3090    0.2020 N   0  0  0  0  0  0  0  0  0  0  0  0
    2.9570    0.1040    1.0590 N   0  0  0  0  0  0  0  0  0  0  0  0
    4.2840    0.1730    0.6040 C   0  0  0  0  0  0  0  0  0  0  0  0
    4.4810    0.4250   -0.6070 O   0  0  0  0  0  0  0  0  0  0  0  0
    5.4110   -0.0140    1.3850 O   0  0  0  0  0  0  0  0  0  0  0  0
    6.7170    0.0660    0.8850 C   0  0  1  0  0  0  0  0  0  0  0  0
    7.5440    1.1480    1.4970 C   0  0  0  0  0  0  0  0  0  0  0  0
    8.7510    0.4270    2.0180 C   0  0  0  0  0  0  0  0  0  0  0  0
    8.4780   -0.9890    1.9950 N   0  0  0  0  0  0  0  0  0  0  0  0
    7.4710   -1.2160    0.9900 C   0  0  0  0  0  0  0  0  0  0  0  0
  1  2  1  0
  2  3  2  0
  2  4  1  0
  4  5  1  0
  5  6  2  0
  5 13  1  0
  6  7  1  0
  7  8  1  0
  7 11  2  0
  8  9  2  0
  9 10  1  0
 10 11  1  0
 11 12  1  0
 12 13  2  0
 13 14  1  0
 14 15  1  0
 15 16  1  0
 16 17  1  0
 17 18  2  0
 17 19  1  0
 19 20  1  0
 20 21  1  0
 21 22  2  0
 21 23  1  0
 24 23  1  1
 24 25  1  0
 24 28  1  0
 25 26  1  0
 26 27  1  0
 27 28  1  0
M  CHG  1  27   1
M  END
