
     RDKit          3D

 15 16  0  0  0  0  0  0  0  0999 V2000
    3.7060   -0.9090   -1.7510 O   0  0  0  0  0  0  0  0  0  0  0  0
    2.9890   -0.1760   -1.0560 C   0  0  0  0  0  0  0  0  0  0  0  0
    1.5510   -0.5360   -0.8590 C   0  0  0  0  0  0  0  0  0  0  0  0
    1.2580   -0.2860    0.6250 C   0  0  2  0  0  0  0  0  0  0  0  0
    0.0310   -0.9270    0.9560 N   0  0  0  0  0  0  0  0  0  0  0  0
   -1.2230   -0.6280    0.3430 C   0  0  0  0  0  0  0  0  0  0  0  0
   -1.9720    0.4130    0.6320 C   0  0  0  0  0  0  0  0  0  0  0  0
   -3.1910    0.3850   -0.2060 C   0  0  0  0  0  0  0  0  0  0  0  0
   -3.0360   -0.8370   -1.0290 C   0  0  0  0  0  0  0  0  0  0  0  0
   -1.8900   -1.4010   -0.6890 C   0  0  0  0  0  0  0  0  0  0  0  0
   -1.2650   -2.9010   -1.4090 Cl  0  0  0  0  0  0  0  0  0  0  0  0
    1.2370    1.2080    0.8120 C   0  0  0  0  0  0  0  0  0  0  0  0
    2.4620    1.7830    0.1650 C   0  0  0  0  0  0  0  0  0  0  0  0
    2.5500    3.0500    0.1990 O   0  0  0  0  0  0  0  0  0  0  0  0
    3.4280    0.9820   -0.4290 O   0  0  0  0  0  0  0  0  0  0  0  0
  1  2  2  0
  2  3  1  0
  2 15  1  0
  3  4  1  0
  4  5  1  6
  4 12  1  0
  5  6  1  0
  6  7  2  0
  6 10  1  0
  7  8  1  0
  8  9  1  0
  9 10  2  0
 10 11  1  0
 12 13  1  0
 13 14  2  0
 13 15  1  0
M  END
