
     RDKit          3D

 15 16  0  0  0  0  0  0  0  0999 V2000
    2.8870   -1.0720    0.5660 C   0  0  0  0  0  0  0  0  0  0  0  0
    1.5150   -0.5620    0.1990 C   0  0  0  0  0  0  0  0  0  0  0  0
    1.2960    0.7250    0.0060 C   0  0  0  0  0  0  0  0  0  0  0  0
    2.1900    1.8810    0.0790 C   0  0  0  0  0  0  0  0  0  0  0  0
    3.4170    1.8590    0.3580 O   0  0  0  0  0  0  0  0  0  0  0  0
    1.4170    2.9720   -0.2160 O   0  0  0  0  0  0  0  0  0  0  0  0
    0.0920    2.6460   -0.4790 C   0  0  0  0  0  0  0  0  0  0  0  0
   -0.8250    3.4510   -0.7750 O   0  0  0  0  0  0  0  0  0  0  0  0
   -0.0400    1.1910   -0.3470 C   0  0  0  0  0  0  0  0  0  0  0  0
   -1.0900    0.3990   -0.4950 C   0  0  0  0  0  0  0  0  0  0  0  0
   -2.4560    0.8840   -0.8570 C   0  0  0  0  0  0  0  0  0  0  0  0
   -3.6620    0.5000    0.3680 Cl  0  0  0  0  0  0  0  0  0  0  0  0
   -0.9110   -1.0550   -0.2910 C   0  0  2  0  0  0  0  0  0  0  0  0
   -1.8660   -1.6210    0.7370 C   0  0  0  0  0  0  0  0  0  0  0  0
    0.4200   -1.4490    0.0500 N   0  0  0  0  0  0  0  0  0  0  0  0
  1  2  1  0
  2  3  2  0
  2 15  1  0
  3  4  1  0
  3  9  1  0
  4  5  2  0
  4  6  1  0
  6  7  1  0
  7  8  2  0
  7  9  1  0
  9 10  2  0
 10 11  1  0
 10 13  1  0
 11 12  1  0
 13 14  1  1
 13 15  1  0
M  END
