
     RDKit          3D

 15 16  0  0  0  0  0  0  0  0999 V2000
   -2.0440   -1.3840   -1.0630 C   0  0  0  0  0  0  0  0  0  0  0  0
   -2.1320   -0.3620   -0.0220 C   0  0  0  0  0  0  0  0  0  0  0  0
   -1.2280    0.3370    0.5580 C   0  0  0  0  0  0  0  0  0  0  0  0
    0.1700    0.3780    0.4080 N   0  0  0  0  0  0  0  0  0  0  0  0
    1.0310   -0.3300   -0.4220 C   0  0  0  0  0  0  0  0  0  0  0  0
    0.6090   -1.1630   -1.2030 O   0  0  0  0  0  0  0  0  0  0  0  0
    2.5040   -0.1110   -0.4030 C   0  0  0  0  0  0  0  0  0  0  0  0
    3.4100   -0.7190   -1.1390 C   0  0  0  0  0  0  0  0  0  0  0  0
    4.6890   -0.2630   -0.8540 O   0  0  0  0  0  0  0  0  0  0  0  0
    4.5930    0.6730    0.1730 C   0  0  0  0  0  0  0  0  0  0  0  0
    3.1990    0.7790    0.3980 O   0  0  0  0  0  0  0  0  0  0  0  0
   -1.8780    1.2390    1.5550 C   0  0  0  0  0  0  0  0  0  0  0  0
   -3.1730    1.0580    1.5500 C   0  0  0  0  0  0  0  0  0  0  0  0
   -4.3420    1.9220    2.5790 Cl  0  0  0  0  0  0  0  0  0  0  0  0
   -3.4750    0.0310    0.5580 C   0  0  0  0  0  0  0  0  0  0  0  0
  1  2  1  0
  2  3  2  0
  2 15  1  0
  3  4  1  0
  3 12  1  0
  4  5  1  0
  5  6  2  0
  5  7  1  0
  7  8  2  0
  7 11  1  0
  8  9  1  0
  9 10  1  0
 10 11  1  0
 12 13  2  0
 13 14  1  0
 13 15  1  0
M  END
