
     RDKit          3D

 15 16  0  0  0  0  0  0  0  0999 V2000
    3.2210    1.3490    1.7560 O   0  0  0  0  0  0  0  0  0  0  0  0
    3.0510    0.5140    0.8410 C   0  0  0  0  0  0  0  0  0  0  0  0
    4.1610   -0.0950    0.2860 O   0  0  0  0  0  0  0  0  0  0  0  0
    1.7140    0.1570    0.3370 C   0  0  0  0  0  0  0  0  0  0  0  0
    0.6770    0.7390    0.8700 N   0  0  0  0  0  0  0  0  0  0  0  0
   -0.6610    0.4840    0.4740 C   0  0  0  0  0  0  0  0  0  0  0  0
   -1.7370    1.1430    1.0860 C   0  0  0  0  0  0  0  0  0  0  0  0
   -3.0330    0.8860    0.6920 C   0  0  0  0  0  0  0  0  0  0  0  0
   -4.3830    1.7190    1.4660 Cl  0  0  0  0  0  0  0  0  0  0  0  0
   -3.2370   -0.0340   -0.3170 C   0  0  0  0  0  0  0  0  0  0  0  0
   -2.1770   -0.6830   -0.9200 C   0  0  0  0  0  0  0  0  0  0  0  0
   -0.8710   -0.4330   -0.5320 C   0  0  0  0  0  0  0  0  0  0  0  0
    0.2380   -1.1220   -1.1740 C   0  0  0  0  0  0  0  0  0  0  0  0
    0.0740   -1.9610   -2.0910 O   0  0  0  0  0  0  0  0  0  0  0  0
    1.6250   -0.8360   -0.7400 C   0  0  0  0  0  0  0  0  0  0  0  0
  1  2  2  0
  2  3  1  0
  2  4  1  0
  4  5  2  0
  4 15  1  0
  5  6  1  0
  6  7  2  0
  6 12  1  0
  7  8  1  0
  8  9  1  0
  8 10  2  0
 10 11  1  0
 11 12  2  0
 12 13  1  0
 13 14  2  0
 13 15  1  0
M  END
