
     RDKit          3D

 15 16  0  0  0  0  0  0  0  0999 V2000
    0.0350    0.9510    1.6150 O   0  0  0  0  0  0  0  0  0  0  0  0
    0.2640    0.3100    0.5580 C   0  0  0  0  0  0  0  0  0  0  0  0
   -0.8200   -0.1700   -0.1370 O   0  0  0  0  0  0  0  0  0  0  0  0
   -2.1480    0.0000    0.2400 C   0  0  1  0  0  0  0  0  0  0  0  0
   -2.9620    0.7560   -0.8170 C   0  0  0  0  0  0  0  0  0  0  0  0
   -4.3550    0.2950   -0.4310 C   0  0  0  0  0  0  0  0  0  0  0  0
   -4.2550   -0.9730    0.0660 O   0  0  0  0  0  0  0  0  0  0  0  0
   -2.9430   -1.2660    0.3250 C   0  0  0  0  0  0  0  0  0  0  0  0
    1.6390    0.1250    0.1530 C   0  0  0  0  0  0  0  0  0  0  0  0
    1.9780   -0.5330   -0.9380 C   0  0  0  0  0  0  0  0  0  0  0  0
    3.3360   -0.7030   -1.3180 N   0  0  0  0  0  0  0  0  0  0  0  0
    4.4440   -0.1950   -0.5780 C   0  0  0  0  0  0  0  0  0  0  0  0
    4.0060    0.5270    0.6250 C   0  0  0  0  0  0  0  0  0  0  0  0
    2.7330    0.6610    0.9380 C   0  0  0  0  0  0  0  0  0  0  0  0
    2.3750    1.5580    2.4210 Cl  0  0  0  0  0  0  0  0  0  0  0  0
  1  2  2  0
  2  3  1  0
  2  9  1  0
  4  3  1  6
  4  5  1  0
  4  8  1  0
  5  6  1  0
  6  7  1  0
  7  8  1  0
  9 10  2  0
  9 14  1  0
 10 11  1  0
 11 12  1  0
 12 13  1  0
 13 14  2  0
 14 15  1  0
M  END
