
     RDKit          3D

 15 16  0  0  0  0  0  0  0  0999 V2000
    4.4390    1.5410   -0.1490 C   0  0  0  0  0  0  0  0  0  0  0  0
    3.2390    1.1500   -0.7440 O   0  0  0  0  0  0  0  0  0  0  0  0
    2.2850    0.4850    0.0080 C   0  0  0  0  0  0  0  0  0  0  0  0
    2.4920    0.2300    1.2280 O   0  0  0  0  0  0  0  0  0  0  0  0
    1.0390    0.0540   -0.5230 N   0  0  0  0  0  0  0  0  0  0  0  0
    0.0530   -0.6420    0.2840 C   0  0  2  0  0  0  0  0  0  0  0  0
   -0.1930   -1.9800   -0.3830 C   0  0  0  0  0  0  0  0  0  0  0  0
   -1.4150   -2.6560    0.2100 C   0  0  0  0  0  0  0  0  0  0  0  0
   -2.5660   -1.9100   -0.1580 O   0  0  0  0  0  0  0  0  0  0  0  0
   -2.5170   -0.5290    0.1190 C   0  0  0  0  0  0  0  0  0  0  0  0
   -3.4890    0.3500    0.2230 C   0  0  0  0  0  0  0  0  0  0  0  0
   -2.8850    1.6530    0.5250 C   0  0  0  0  0  0  0  0  0  0  0  0
   -1.4370    1.3930    0.5790 C   0  0  0  0  0  0  0  0  0  0  0  0
   -0.1650    2.6030    0.9110 Cl  0  0  0  0  0  0  0  0  0  0  0  0
   -1.2330    0.1140    0.3400 C   0  0  0  0  0  0  0  0  0  0  0  0
  1  2  1  0
  2  3  1  0
  3  4  2  0
  3  5  1  0
  6  5  1  6
  6  7  1  0
  6 15  1  0
  7  8  1  0
  8  9  1  0
  9 10  1  0
 10 11  2  0
 10 15  1  0
 11 12  1  0
 12 13  1  0
 13 14  1  0
 13 15  2  0
M  END
