
     RDKit          3D

 15 15  0  0  0  0  0  0  0  0999 V2000
   -2.6400    1.7640   -0.5180 C   0  0  0  0  0  0  0  0  0  0  0  0
   -2.3090    0.6860    0.0740 C   0  0  0  0  0  0  0  0  0  0  0  0
   -3.7750    0.2240    1.1250 Cl  0  0  0  0  0  0  0  0  0  0  0  0
   -1.1530   -0.0770    0.2590 C   0  0  0  0  0  0  0  0  0  0  0  0
   -1.3660   -1.2770    0.8930 C   0  0  0  0  0  0  0  0  0  0  0  0
   -2.6050   -1.8060    1.3450 C   0  0  0  0  0  0  0  0  0  0  0  0
    0.2350    0.0070   -0.1580 C   0  0  0  0  0  0  0  0  0  0  0  0
    0.8340    1.0590   -0.6140 C   0  0  0  0  0  0  0  0  0  0  0  0
    0.1040    2.2370   -0.7200 N   0  0  0  0  0  0  0  0  0  0  0  0
    2.2100    1.1860   -1.0410 O   0  0  0  0  0  0  0  0  0  0  0  0
    3.3200    0.6160   -0.3900 C   0  0  0  0  0  0  0  0  0  0  0  0
    3.4050   -0.8770   -0.4760 C   0  0  0  0  0  0  0  0  0  0  0  0
    2.2940   -1.5590    0.0370 O   0  0  0  0  0  0  0  0  0  0  0  0
    0.9610   -1.3100   -0.2250 C   0  0  0  0  0  0  0  0  0  0  0  0
    0.2560   -2.2880   -0.5670 O   0  0  0  0  0  0  0  0  0  0  0  0
  1  2  2  0
  2  3  1  0
  2  4  1  0
  4  5  2  3
  4  7  1  0
  5  6  1  0
  7  8  2  0
  7 14  1  0
  8  9  1  0
  8 10  1  0
 10 11  1  0
 11 12  1  0
 12 13  1  0
 13 14  1  0
 14 15  2  0
M  END
