
     RDKit          3D

  9  8  0  0  0  0  0  0  0  0999 V2000
   -2.2820   -0.9750   -1.1060 O   0  0  0  0  0  0  0  0  0  0  0  0
   -1.0620   -0.3730   -1.3390 C   0  0  0  0  0  0  0  0  0  0  0  0
   -0.3020   -0.2430   -0.0300 C   0  0  2  0  0  0  0  0  0  0  0  0
   -1.1340    0.6930    0.8560 C   0  0  0  0  0  0  0  0  0  0  0  0
   -1.2920    1.9330    0.2470 O   0  0  0  0  0  0  0  0  0  0  0  0
    0.9240    0.3530   -0.2120 O   0  0  0  0  0  0  0  0  0  0  0  0
    1.9870   -0.3860    0.2460 C   0  0  2  0  0  0  0  0  0  0  0  0
    2.7670    0.3150    1.1910 O   0  0  0  0  0  0  0  0  0  0  0  0
    2.8430   -0.6330   -0.8340 O   0  0  0  0  0  0  0  0  0  0  0  0
  1  2  1  0
  3  2  1  6
  3  4  1  0
  3  6  1  0
  4  5  1  0
  6  7  1  0
  7  8  1  1
  7  9  1  0
M  END
