
     RDKit          3D

  9  8  0  0  0  0  0  0  0  0999 V2000
   -0.7870    1.5300   -1.0500 C   0  0  0  0  0  0  0  0  0  0  0  0
   -0.2990    0.5490   -0.0100 C   0  0  2  0  0  0  0  0  0  0  0  0
    0.4890   -0.3950   -0.6530 O   0  0  0  0  0  0  0  0  0  0  0  0
    1.7530   -0.5200   -0.1340 C   0  0  1  0  0  0  0  0  0  0  0  0
    2.0990   -1.7790    0.2740 O   0  0  0  0  0  0  0  0  0  0  0  0
    2.6560   -0.0830   -1.1250 O   0  0  0  0  0  0  0  0  0  0  0  0
   -1.4800   -0.2110    0.5880 C   0  0  2  0  0  0  0  0  0  0  0  0
   -2.3030    0.6880    1.2450 O   0  0  0  0  0  0  0  0  0  0  0  0
   -1.0250   -1.1510    1.4810 O   0  0  0  0  0  0  0  0  0  0  0  0
  2  1  1  6
  2  3  1  0
  2  7  1  0
  3  4  1  0
  4  5  1  6
  4  6  1  0
  7  8  1  1
  7  9  1  0
M  END
