
     RDKit          3D

 10  9  0  0  0  0  0  0  0  0999 V2000
   -1.3500    0.9770   -1.7780 O   0  0  0  0  0  0  0  0  0  0  0  0
   -1.5700    0.7220   -0.4250 C   0  0  0  0  0  0  0  0  0  0  0  0
   -0.4990   -0.2290    0.1330 C   0  0  1  0  0  0  0  0  0  0  0  0
    0.6920    0.3720   -0.0330 O   0  0  0  0  0  0  0  0  0  0  0  0
    1.6080   -0.1690   -0.8780 C   0  0  2  0  0  0  0  0  0  0  0  0
    2.7310   -0.4930   -0.1070 O   0  0  0  0  0  0  0  0  0  0  0  0
    2.0670    0.7040   -1.8680 O   0  0  0  0  0  0  0  0  0  0  0  0
   -0.9180   -0.5620    1.5270 C   0  0  2  0  0  0  0  0  0  0  0  0
   -1.0150    0.5450    2.3530 O   0  0  0  0  0  0  0  0  0  0  0  0
   -0.1650   -1.5880    2.1000 O   0  0  0  0  0  0  0  0  0  0  0  0
  1  2  1  0
  3  2  1  1
  3  4  1  0
  3  8  1  0
  4  5  1  0
  5  6  1  1
  5  7  1  0
  8  9  1  1
  8 10  1  0
M  END
