
     RDKit          3D

  9  8  0  0  0  0  0  0  0  0999 V2000
    3.7060    1.1800    0.3020 O   0  0  0  0  0  0  0  0  0  0  0  0
    3.0110   -0.0200    0.4850 C   0  0  0  0  0  0  0  0  0  0  0  0
    1.6940    0.2110    0.0830 O   0  0  0  0  0  0  0  0  0  0  0  0
    0.9560   -0.9590    0.2460 C   0  0  0  0  0  0  0  0  0  0  0  0
   -0.4660   -0.7040   -0.1890 C   0  0  0  0  0  0  0  0  0  0  0  0
   -1.0780    0.2970    0.5460 O   0  0  0  0  0  0  0  0  0  0  0  0
   -2.3620    0.4600    0.0840 C   0  0  1  0  0  0  0  0  0  0  0  0
   -3.3200    0.1310    1.0640 O   0  0  0  0  0  0  0  0  0  0  0  0
   -2.6000    1.7740   -0.3600 O   0  0  0  0  0  0  0  0  0  0  0  0
  1  2  1  0
  2  3  1  0
  3  4  1  0
  4  5  1  0
  5  6  1  0
  6  7  1  0
  7  8  1  1
  7  9  1  0
M  END
