
     RDKit          3D

 22 24  0  0  0  0  0  0  0  0999 V2000
    3.2900   -1.1320   -1.5750 O   0  0  0  0  0  0  0  0  0  0  0  0
    2.1320   -1.1940   -1.0730 C   0  0  0  0  0  0  0  0  0  0  0  0
    1.0180   -1.6110   -1.9570 C   0  0  0  0  0  0  0  0  0  0  0  0
   -0.2380   -1.5330   -1.3710 O   0  0  0  0  0  0  0  0  0  0  0  0
   -0.7240   -0.2720   -0.9710 C   0  0  0  0  0  0  0  0  0  0  0  0
    0.0020    0.8800   -1.1650 C   0  0  0  0  0  0  0  0  0  0  0  0
   -0.5310    2.1010   -0.7470 C   0  0  0  0  0  0  0  0  0  0  0  0
   -1.7640    2.1670   -0.1470 C   0  0  0  0  0  0  0  0  0  0  0  0
   -2.2730    3.3770    0.2590 O   0  0  0  0  0  0  0  0  0  0  0  0
   -2.4770    1.0240    0.0420 C   0  0  0  0  0  0  0  0  0  0  0  0
   -1.9730   -0.1820   -0.3600 C   0  0  0  0  0  0  0  0  0  0  0  0
   -2.6640   -1.3820   -0.1900 O   0  0  0  0  0  0  0  0  0  0  0  0
   -3.8990   -1.4860    0.3880 C   0  0  0  0  0  0  0  0  0  0  0  0
   -4.6610   -2.4310    0.0030 O   0  0  0  0  0  0  0  0  0  0  0  0
   -4.4260   -0.5730    1.4410 C   0  0  0  0  0  0  0  0  0  0  0  0
   -4.0770    1.1210    0.8230 S   0  0  0  0  0  0  0  0  0  0  0  0
    2.0060   -0.8650    0.2780 N   0  0  0  0  0  0  0  0  0  0  0  0
    3.1300   -0.4590    1.1140 C   0  0  0  0  0  0  0  0  0  0  0  0
    3.3630   -0.1250    2.2480 N   0  0  0  0  0  0  0  0  0  0  0  0
    4.5310    0.1900    2.7040 N   0  0  0  0  0  0  0  0  0  0  0  0
    5.5270    0.1740    1.9980 C   0  0  0  0  0  0  0  0  0  0  0  0
    4.8130   -0.3670    0.3760 S   0  0  0  0  0  0  0  0  0  0  0  0
  1  2  2  0
  2  3  1  0
  2 17  1  0
  3  4  1  0
  4  5  1  0
  5  6  2  0
  5 11  1  0
  6  7  1  0
  7  8  2  0
  8  9  1  0
  8 10  1  0
 10 11  2  0
 10 16  1  0
 11 12  1  0
 12 13  1  0
 13 14  2  0
 13 15  1  0
 15 16  1  0
 17 18  1  0
 18 19  2  0
 18 22  1  0
 19 20  1  0
 20 21  2  0
 21 22  1  0
M  END
