
     RDKit          3D

 22 24  0  0  0  0  0  0  0  0999 V2000
    7.6090   -0.0030   -0.6280 C   0  0  0  0  0  0  0  0  0  0  0  0
    5.8820    0.0620   -0.3280 S   0  0  1  0  0  0  0  0  0  0  0  0
    5.2910    1.0700   -1.3060 O   0  0  0  0  0  0  0  0  0  0  0  0
    5.2720   -1.3020   -0.5700 O   0  0  0  0  0  0  0  0  0  0  0  0
    5.4800    0.5250    1.2660 N   0  0  0  0  0  0  0  0  0  0  0  0
    4.2610    0.3600    1.6570 C   0  0  0  0  0  0  0  0  0  0  0  0
    3.7840    0.6740    2.8830 N   0  0  0  0  0  0  0  0  0  0  0  0
    2.4970    0.3630    2.9110 N   0  0  0  0  0  0  0  0  0  0  0  0
    2.1720   -0.1390    1.7170 C   0  0  0  0  0  0  0  0  0  0  0  0
    0.8450   -0.6170    1.2990 C   0  0  0  0  0  0  0  0  0  0  0  0
   -0.1200    0.7310    0.5670 S   0  0  0  0  0  0  0  0  0  0  0  0
   -1.7360    0.1410    0.0600 C   0  0  0  0  0  0  0  0  0  0  0  0
   -2.1340   -1.1690    0.2290 C   0  0  0  0  0  0  0  0  0  0  0  0
   -3.4020   -1.5760   -0.1830 C   0  0  0  0  0  0  0  0  0  0  0  0
   -4.2950   -0.7100   -0.7640 C   0  0  0  0  0  0  0  0  0  0  0  0
   -3.8980    0.6010   -0.9330 C   0  0  0  0  0  0  0  0  0  0  0  0
   -2.6370    1.0060   -0.5240 C   0  0  0  0  0  0  0  0  0  0  0  0
   -4.8040    1.4670   -1.5200 O   0  0  0  0  0  0  0  0  0  0  0  0
   -6.0900    1.1020   -1.9440 C   0  0  0  0  0  0  0  0  0  0  0  0
   -6.6030   -0.0830   -1.1750 C   0  0  0  0  0  0  0  0  0  0  0  0
   -5.5650   -1.0750   -1.1880 O   0  0  0  0  0  0  0  0  0  0  0  0
    3.2440   -0.1340    0.9770 O   0  0  0  0  0  0  0  0  0  0  0  0
  2  1  1  1
  2  3  2  0
  2  4  2  0
  2  5  1  0
  5  6  2  3
  6  7  1  0
  6 22  1  0
  7  8  1  0
  8  9  2  0
  9 10  1  0
  9 22  1  0
 10 11  1  0
 11 12  1  0
 12 13  2  0
 12 17  1  0
 13 14  1  0
 14 15  2  0
 15 16  1  0
 15 21  1  0
 16 17  2  0
 16 18  1  0
 18 19  1  0
 19 20  1  0
 20 21  1  0
M  END
