
     RDKit          3D

 23 24  0  0  0  0  0  0  0  0999 V2000
    5.4510   -0.1740    1.9700 C   0  0  0  0  0  0  0  0  0  0  0  0
    4.6940   -0.5370    0.7020 C   0  0  0  0  0  0  0  0  0  0  0  0
    3.4230   -0.3550    0.4600 N   0  0  0  0  0  0  0  0  0  0  0  0
    2.8060   -0.6240   -0.5050 C   0  0  0  0  0  0  0  0  0  0  0  0
    1.4410   -0.5460   -1.0370 N   0  0  0  0  0  0  0  0  0  0  0  0
    0.4820    0.0180   -0.1960 C   0  0  0  0  0  0  0  0  0  0  0  0
    0.7930    0.4290    0.9500 O   0  0  0  0  0  0  0  0  0  0  0  0
   -0.8960    0.1320   -0.6500 N   0  0  0  0  0  0  0  0  0  0  0  0
   -1.8060    0.7150    0.2610 C   0  0  0  0  0  0  0  0  0  0  0  0
   -3.1960    0.8750   -0.0930 C   0  0  0  0  0  0  0  0  0  0  0  0
   -3.6460    0.4910   -1.2520 C   0  0  0  0  0  0  0  0  0  0  0  0
   -5.0430    0.5730   -1.7970 C   0  0  0  0  0  0  0  0  0  0  0  0
   -5.9830   -0.3260   -1.0290 C   0  0  0  0  0  0  0  0  0  0  0  0
   -6.4810    0.2890    0.2390 C   0  0  0  0  0  0  0  0  0  0  0  0
   -5.2170    0.2790    1.4870 S   0  0  2  0  0  0  0  0  0  0  0  0
   -4.5140   -1.0690    1.4960 O   0  0  0  0  0  0  0  0  0  0  0  0
   -5.7720    0.6080    2.8250 O   0  0  0  0  0  0  0  0  0  0  0  0
   -4.0130    1.5160    1.0140 C   0  0  0  0  0  0  0  0  0  0  0  0
    4.1080   -1.3630   -1.5670 S   0  0  0  0  0  0  0  0  0  0  0  0
    5.4130   -1.1320   -0.3290 C   0  0  0  0  0  0  0  0  0  0  0  0
    6.8200   -1.4990   -0.4630 C   0  0  0  0  0  0  0  0  0  0  0  0
    7.6510   -0.2760   -0.7360 C   0  0  0  0  0  0  0  0  0  0  0  0
    7.1280    0.5230   -2.2510 Cl  0  0  0  0  0  0  0  0  0  0  0  0
  1  2  1  0
  2  3  1  0
  2 20  2  0
  3  4  2  0
  4  5  1  0
  4 19  1  0
  5  6  1  0
  6  7  2  0
  6  8  1  0
  8  9  1  0
  9 10  1  0
 10 11  2  0
 10 18  1  0
 11 12  1  0
 12 13  1  0
 13 14  1  0
 15 14  1  6
 15 16  2  0
 15 17  2  0
 15 18  1  0
 19 20  1  0
 20 21  1  0
 21 22  1  0
 22 23  1  0
M  END
