
     RDKit          3D

 22 23  0  0  0  0  0  0  0  0999 V2000
    7.5340    2.2320   -0.1810 C   0  0  0  0  0  0  0  0  0  0  0  0
    6.4280    1.4010   -0.6910 N   0  0  0  0  0  0  0  0  0  0  0  0
    5.7810    0.5640    0.2270 C   0  0  0  0  0  0  0  0  0  0  0  0
    6.1500    0.5420    1.4520 O   0  0  0  0  0  0  0  0  0  0  0  0
    4.6770   -0.3060   -0.1540 C   0  0  0  0  0  0  0  0  0  0  0  0
    3.1000    0.4960    0.3450 S   0  0  0  0  0  0  0  0  0  0  0  0
    1.7720   -0.6770    0.0020 C   0  0  0  0  0  0  0  0  0  0  0  0
    1.8330   -1.7930   -0.5740 N   0  0  0  0  0  0  0  0  0  0  0  0
    0.7060   -2.5620   -0.7410 C   0  0  0  0  0  0  0  0  0  0  0  0
    0.6540   -3.7160   -1.3190 O   0  0  0  0  0  0  0  0  0  0  0  0
   -0.5280   -1.9850   -0.1990 C   0  0  0  0  0  0  0  0  0  0  0  0
   -1.7290   -2.5150   -0.1460 C   0  0  0  0  0  0  0  0  0  0  0  0
   -2.8060   -1.7370    0.4460 C   0  0  0  0  0  0  0  0  0  0  0  0
   -4.0650   -2.1920    0.5540 C   0  0  0  0  0  0  0  0  0  0  0  0
   -4.8480   -1.2410    1.1510 O   0  0  0  0  0  0  0  0  0  0  0  0
   -3.9930   -0.1500    1.4970 C   0  0  2  0  0  0  0  0  0  0  0  0
   -4.5460    1.0750    0.8640 C   0  0  0  0  0  0  0  0  0  0  0  0
   -3.9970    2.2120    0.9470 O   0  0  0  0  0  0  0  0  0  0  0  0
   -5.7580    1.0190    0.1120 N   0  0  0  0  0  0  0  0  0  0  0  0
   -6.3530    2.1830   -0.5270 C   0  0  0  0  0  0  0  0  0  0  0  0
   -2.7450   -0.4670    0.9720 O   0  0  0  0  0  0  0  0  0  0  0  0
    0.0460   -0.3920    0.3920 S   0  0  0  0  0  0  0  0  0  0  0  0
  1  2  1  0
  2  3  1  0
  3  4  2  0
  3  5  1  0
  5  6  1  0
  6  7  1  0
  7  8  2  0
  7 22  1  0
  8  9  1  0
  9 10  2  0
  9 11  1  0
 11 12  2  3
 11 22  1  0
 12 13  1  0
 13 14  2  0
 13 21  1  0
 14 15  1  0
 15 16  1  0
 16 17  1  6
 16 21  1  0
 17 18  2  0
 17 19  1  0
 19 20  1  0
M  END
