
     RDKit          3D

 22 23  0  0  0  0  0  0  0  0999 V2000
    4.1680    3.0320   -0.4260 C   0  0  0  0  0  0  0  0  0  0  0  0
    3.1570    3.6280    0.5130 C   0  0  0  0  0  0  0  0  0  0  0  0
    1.8200    3.2840    0.1480 O   0  0  0  0  0  0  0  0  0  0  0  0
    1.4210    1.9430    0.0990 C   0  0  0  0  0  0  0  0  0  0  0  0
    2.3750    1.1530    0.4090 O   0  0  0  0  0  0  0  0  0  0  0  0
    0.0890    1.5370   -0.2600 C   0  0  0  0  0  0  0  0  0  0  0  0
   -0.5260    0.3630   -0.3750 C   0  0  0  0  0  0  0  0  0  0  0  0
    0.2710   -0.8420   -0.1070 C   0  0  0  0  0  0  0  0  0  0  0  0
    0.0200   -2.0850   -0.1240 C   0  0  0  0  0  0  0  0  0  0  0  0
    1.1120   -3.0450    0.2140 C   0  0  0  0  0  0  0  0  0  0  0  0
    0.8990   -4.3420    0.2100 C   0  0  0  0  0  0  0  0  0  0  0  0
    1.8830   -5.2940    0.5180 N   0  0  0  0  0  0  0  0  0  0  0  0
   -1.9290    0.4570   -0.5880 N   0  0  0  0  0  0  0  0  0  0  0  0
   -2.4530    1.7810   -0.6210 C   0  0  0  0  0  0  0  0  0  0  0  0
   -3.6820    2.1210   -0.4040 N   0  0  0  0  0  0  0  0  0  0  0  0
   -4.7280    1.2450   -0.0910 C   0  0  0  0  0  0  0  0  0  0  0  0
   -5.9310    1.5540   -0.1280 O   0  0  0  0  0  0  0  0  0  0  0  0
   -4.4600   -0.1870    0.3260 C   0  0  0  0  0  0  0  0  0  0  0  0
   -3.2020   -0.6720   -0.8850 S   0  0  1  0  0  0  0  0  0  0  0  0
   -3.9190   -0.3300   -2.2250 O   0  0  0  0  0  0  0  0  0  0  0  0
   -2.9750   -2.0720   -0.9210 O   0  0  0  0  0  0  0  0  0  0  0  0
   -1.0060    2.8100   -0.9150 S   0  0  0  0  0  0  0  0  0  0  0  0
  1  2  1  0
  2  3  1  0
  3  4  1  0
  4  5  2  0
  4  6  1  0
  6  7  2  0
  6 22  1  0
  7  8  1  0
  7 13  1  0
  8  9  2  3
  9 10  1  0
 10 11  2  3
 11 12  1  0
 13 14  1  0
 13 19  1  0
 14 15  2  0
 14 22  1  0
 15 16  1  0
 16 17  2  0
 16 18  1  0
 19 18  1  1
 19 20  2  0
 19 21  2  0
M  END
