
     RDKit          3D

 23 24  0  0  0  0  0  0  0  0999 V2000
   -5.8690    1.1720    0.6240 C   0  0  0  0  0  0  0  0  0  0  0  0
   -4.8440    0.4560   -0.1710 C   0  0  0  0  0  0  0  0  0  0  0  0
   -3.6620    0.0620    0.4450 C   0  0  0  0  0  0  0  0  0  0  0  0
   -3.4920    0.3700    1.8190 N   0  0  0  0  0  0  0  0  0  0  0  0
   -2.6590   -0.6090   -0.2270 C   0  0  0  0  0  0  0  0  0  0  0  0
   -1.4300   -1.0080    0.4430 C   0  0  0  0  0  0  0  0  0  0  0  0
   -1.3060   -0.7150    1.6750 O   0  0  0  0  0  0  0  0  0  0  0  0
   -0.3570   -1.7230   -0.2470 C   0  0  0  0  0  0  0  0  0  0  0  0
    0.7480   -0.8550   -0.7780 C   0  0  0  0  0  0  0  0  0  0  0  0
    1.4630   -0.0720    0.2310 C   0  0  0  0  0  0  0  0  0  0  0  0
    1.2290   -0.0840    1.4680 O   0  0  0  0  0  0  0  0  0  0  0  0
    2.5080    0.7720   -0.2100 N   0  0  0  0  0  0  0  0  0  0  0  0
    3.6880    0.5370    0.1200 C   0  0  0  0  0  0  0  0  0  0  0  0
    4.5210   -0.6490    1.0630 S   0  0  0  0  0  0  0  0  0  0  0  0
    6.1610   -0.2930    1.0450 C   0  0  0  0  0  0  0  0  0  0  0  0
    6.5060    0.7770    0.3470 C   0  0  0  0  0  0  0  0  0  0  0  0
    7.8620    1.3930    0.1030 C   0  0  0  0  0  0  0  0  0  0  0  0
    8.6240    0.7450   -1.3400 Cl  0  0  0  0  0  0  0  0  0  0  0  0
    5.1390    1.5180   -0.3610 S   0  0  0  0  0  0  0  0  0  0  0  0
   -2.8610   -0.8900   -1.5610 C   0  0  0  0  0  0  0  0  0  0  0  0
   -4.0050   -0.5100   -2.1580 N   0  0  0  0  0  0  0  0  0  0  0  0
   -4.9860    0.1450   -1.5070 C   0  0  0  0  0  0  0  0  0  0  0  0
   -6.0600    0.5030   -2.0630 O   0  0  0  0  0  0  0  0  0  0  0  0
  1  2  1  0
  2  3  2  0
  2 22  1  0
  3  4  1  0
  3  5  1  0
  5  6  1  0
  5 20  2  0
  6  7  2  0
  6  8  1  0
  8  9  1  0
  9 10  1  0
 10 11  2  0
 10 12  1  0
 12 13  2  3
 13 14  1  0
 13 19  1  0
 14 15  1  0
 15 16  2  0
 16 17  1  0
 16 19  1  0
 17 18  1  0
 20 21  1  0
 21 22  1  0
 22 23  2  0
M  END
