
     RDKit          3D

 18 19  0  0  0  0  0  0  0  0999 V2000
    5.8750    0.2210   -0.3570 O   0  0  0  0  0  0  0  0  0  0  0  0
    4.6540   -0.1150   -0.1480 C   0  0  0  0  0  0  0  0  0  0  0  0
    4.1820   -1.4590   -0.3860 C   0  0  0  0  0  0  0  0  0  0  0  0
    2.8860   -1.7730   -0.1510 C   0  0  0  0  0  0  0  0  0  0  0  0
    1.9570   -0.7670    0.3430 C   0  0  0  0  0  0  0  0  0  0  0  0
    0.7700   -1.0430    0.5530 N   0  0  0  0  0  0  0  0  0  0  0  0
   -0.3280   -0.3960    0.9880 N   0  0  0  0  0  0  0  0  0  0  0  0
   -1.3440    0.2800    0.2960 C   0  0  0  0  0  0  0  0  0  0  0  0
   -1.0610    1.4060   -0.4390 C   0  0  0  0  0  0  0  0  0  0  0  0
   -2.0430    2.1240   -1.1340 C   0  0  0  0  0  0  0  0  0  0  0  0
   -3.3580    1.6940   -1.0880 C   0  0  0  0  0  0  0  0  0  0  0  0
   -3.6740    0.5690   -0.3600 C   0  0  0  0  0  0  0  0  0  0  0  0
   -2.6710   -0.1150    0.3150 C   0  0  0  0  0  0  0  0  0  0  0  0
   -3.0650   -1.2790    1.0780 C   0  0  0  0  0  0  0  0  0  0  0  0
   -2.2320   -1.9430    1.7280 O   0  0  0  0  0  0  0  0  0  0  0  0
   -4.3780   -1.7230    1.1300 O   0  0  0  0  0  0  0  0  0  0  0  0
    2.4860    0.5610    0.5630 C   0  0  0  0  0  0  0  0  0  0  0  0
    3.7480    0.8890    0.3390 C   0  0  0  0  0  0  0  0  0  0  0  0
  1  2  2  0
  2  3  1  0
  2 18  1  0
  3  4  2  0
  4  5  1  0
  5  6  2  3
  5 17  1  0
  6  7  1  0
  7  8  1  0
  8  9  2  0
  8 13  1  0
  9 10  1  0
 10 11  2  0
 11 12  1  0
 12 13  2  0
 13 14  1  0
 14 15  2  0
 14 16  1  0
 17 18  2  0
M  END
