
     RDKit          3D

 12 12  0  0  0  0  0  0  0  0999 V2000
    3.0190    0.0590    0.2750 C   0  0  0  0  0  0  0  0  0  0  0  0
    1.6480   -0.1210   -0.3350 C   0  0  0  0  0  0  0  0  0  0  0  0
    0.6340    0.0730    0.7960 C   0  0  0  0  0  0  0  0  0  0  0  0
   -0.7370   -0.0950    0.2610 C   0  0  0  0  0  0  0  0  0  0  0  0
   -1.4090   -1.2640    0.4360 N   0  0  0  0  0  0  0  0  0  0  0  0
   -2.6420   -1.4480   -0.0570 C   0  0  0  0  0  0  0  0  0  0  0  0
   -3.2740   -2.5480    0.1070 O   0  0  0  0  0  0  0  0  0  0  0  0
   -3.1910   -0.4590   -0.7210 O   0  0  0  0  0  0  0  0  0  0  0  0
   -2.6400    0.6910   -0.9430 C   0  0  0  0  0  0  0  0  0  0  0  0
   -3.1640    1.6430   -1.5800 O   0  0  0  0  0  0  0  0  0  0  0  0
   -1.3530    0.9100   -0.4400 C   0  0  0  0  0  0  0  0  0  0  0  0
   -0.7400    2.1270   -0.6610 O   0  0  0  0  0  0  0  0  0  0  0  0
  1  2  1  0
  2  3  1  0
  3  4  1  0
  4  5  1  0
  4 11  2  0
  5  6  1  0
  6  7  2  0
  6  8  1  0
  8  9  1  0
  9 10  2  0
  9 11  1  0
 11 12  1  0
M  END
