
     RDKit          3D

 10 10  0  0  0  0  0  0  0  0999 V2000
   -2.7490   -0.6800    0.1390 C   0  0  0  0  0  0  0  0  0  0  0  0
   -1.7900    0.3230    0.0440 O   0  0  0  0  0  0  0  0  0  0  0  0
   -0.4250    0.1420    0.0050 C   0  0  0  0  0  0  0  0  0  0  0  0
    0.1850   -1.0890    0.0570 C   0  0  0  0  0  0  0  0  0  0  0  0
    1.5430   -1.1920    0.0140 N   0  0  0  0  0  0  0  0  0  0  0  0
    2.1220   -2.4360    0.0690 O   0  0  0  0  0  0  0  0  0  0  0  0
    2.3600   -0.1310   -0.0800 C   0  0  0  0  0  0  0  0  0  0  0  0
    1.7820    1.1150   -0.1340 C   0  0  0  0  0  0  0  0  0  0  0  0
    0.3900    1.2460   -0.0920 C   0  0  0  0  0  0  0  0  0  0  0  0
   -0.2090    2.4950   -0.1460 O   0  0  0  0  0  0  0  0  0  0  0  0
  1  2  1  0
  2  3  1  0
  3  4  2  0
  3  9  1  0
  4  5  1  0
  5  6  1  0
  5  7  2  0
  7  8  1  0
  8  9  2  0
  9 10  1  0
M  CHG  2   5   1   6  -1
M  END
