
     RDKit          3D

 10 10  0  0  0  0  0  0  0  0999 V2000
    2.7590   -0.6690    0.2140 C   0  0  0  0  0  0  0  0  0  0  0  0
    1.7810    0.2930    0.2050 O   0  0  0  0  0  0  0  0  0  0  0  0
    0.4380    0.1740    0.0560 C   0  0  0  0  0  0  0  0  0  0  0  0
   -0.1270   -1.0710   -0.1200 C   0  0  0  0  0  0  0  0  0  0  0  0
   -1.4990   -1.2420   -0.2760 C   0  0  0  0  0  0  0  0  0  0  0  0
   -2.3090   -0.1700   -0.2580 N   0  0  0  0  0  0  0  0  0  0  0  0
   -3.6730   -0.2570   -0.4060 O   0  0  0  0  0  0  0  0  0  0  0  0
   -1.7860    1.0570   -0.0890 C   0  0  0  0  0  0  0  0  0  0  0  0
   -0.4110    1.2580    0.0710 C   0  0  0  0  0  0  0  0  0  0  0  0
    0.1040    2.5110    0.2420 O   0  0  0  0  0  0  0  0  0  0  0  0
  1  2  1  0
  2  3  1  0
  3  4  2  0
  3  9  1  0
  4  5  1  0
  5  6  2  0
  6  7  1  0
  6  8  1  0
  8  9  2  0
  9 10  1  0
M  CHG  2   6   1   7  -1
M  END
