
     RDKit          3D

 10 10  0  0  0  0  0  0  0  0999 V2000
   -2.8280   -0.0730   -0.0460 C   0  0  0  0  0  0  0  0  0  0  0  0
   -1.6600    0.6910   -0.0780 O   0  0  0  0  0  0  0  0  0  0  0  0
   -0.4090    0.1110   -0.0610 C   0  0  0  0  0  0  0  0  0  0  0  0
   -0.2750   -1.2580   -0.0120 C   0  0  0  0  0  0  0  0  0  0  0  0
    1.0120   -1.7640    0.0010 C   0  0  0  0  0  0  0  0  0  0  0  0
    2.0980   -0.9850   -0.0310 N   0  0  0  0  0  0  0  0  0  0  0  0
    2.0040    0.3490   -0.0790 C   0  0  0  0  0  0  0  0  0  0  0  0
    3.1310    1.1810   -0.1130 O   0  0  0  0  0  0  0  0  0  0  0  0
    0.7440    0.9070   -0.0940 C   0  0  0  0  0  0  0  0  0  0  0  0
    0.5970    2.2780   -0.1430 O   0  0  0  0  0  0  0  0  0  0  0  0
  1  2  1  0
  2  3  1  0
  3  4  2  0
  3  9  1  0
  4  5  1  0
  5  6  2  0
  6  7  1  0
  7  8  1  0
  7  9  2  0
  9 10  1  0
M  END
