
     RDKit          3D

 10 10  0  0  0  0  0  0  0  0999 V2000
    2.4230    1.2030    0.4060 O   0  0  0  0  0  0  0  0  0  0  0  0
    2.2560    0.5760   -0.8330 C   0  0  0  0  0  0  0  0  0  0  0  0
    1.4980   -0.6130   -0.7240 O   0  0  0  0  0  0  0  0  0  0  0  0
    0.1960   -0.6220   -0.2450 C   0  0  0  0  0  0  0  0  0  0  0  0
   -0.5320   -1.8020   -0.1440 C   0  0  0  0  0  0  0  0  0  0  0  0
   -1.8150   -1.7960    0.3300 C   0  0  0  0  0  0  0  0  0  0  0  0
   -2.3580   -0.6220    0.6950 N   0  0  0  0  0  0  0  0  0  0  0  0
   -1.6960    0.5380    0.6150 C   0  0  0  0  0  0  0  0  0  0  0  0
   -2.2650    1.7580    0.9970 O   0  0  0  0  0  0  0  0  0  0  0  0
   -0.3840    0.5690    0.1360 C   0  0  0  0  0  0  0  0  0  0  0  0
  1  2  1  0
  2  3  1  0
  3  4  1  0
  4  5  2  0
  4 10  1  0
  5  6  1  0
  6  7  2  0
  7  8  1  0
  8  9  1  0
  8 10  2  0
M  END
