
     RDKit          3D

 10 11  0  0  0  0  0  0  0  0999 V2000
   -2.9370    1.1930   -0.1240 O   0  0  0  0  0  0  0  0  0  0  0  0
   -2.0390    0.1660   -0.0650 C   0  0  0  0  0  0  0  0  0  0  0  0
   -2.3850   -1.1040   -0.0090 O   0  0  0  0  0  0  0  0  0  0  0  0
   -1.3070   -1.8520    0.0390 C   0  0  0  0  0  0  0  0  0  0  0  0
   -0.1920   -1.0450    0.0140 C   0  0  0  0  0  0  0  0  0  0  0  0
   -0.6660    0.2500   -0.0520 C   0  0  0  0  0  0  0  0  0  0  0  0
    0.2360    1.3320   -0.0920 O   0  0  0  0  0  0  0  0  0  0  0  0
    1.5310    1.0640    0.4570 C   0  0  0  0  0  0  0  0  0  0  0  0
    2.0340   -0.1750   -0.2780 C   0  0  0  0  0  0  0  0  0  0  0  0
    1.1810   -1.2570    0.0400 O   0  0  0  0  0  0  0  0  0  0  0  0
  1  2  1  0
  2  3  1  0
  2  6  2  0
  3  4  1  0
  4  5  2  0
  5  6  1  0
  5 10  1  0
  6  7  1  0
  7  8  1  0
  8  9  1  0
  9 10  1  0
M  END
