
     RDKit          3D

 20 19  0  0  0  0  0  0  0  0999 V2000
    0.4670    0.7660    1.5620 O   0  0  0  0  0  0  0  0  0  0  0  0
    0.3470    0.6240    0.1690 C   0  0  2  0  0  0  0  0  0  0  0  0
    1.4490   -0.3330   -0.2800 C   0  0  0  0  0  0  0  0  0  0  0  0
    1.3300   -1.5080    0.3900 O   0  0  0  0  0  0  0  0  0  0  0  0
    2.2660   -2.4620    0.0760 C   0  0  2  0  0  0  0  0  0  0  0  0
    1.7450   -3.6190   -0.4290 F   0  0  0  0  0  0  0  0  0  0  0  0
    3.0420   -2.7540    1.1760 F   0  0  0  0  0  0  0  0  0  0  0  0
    0.7660    1.9650   -0.4000 C   0  0  0  0  0  0  0  0  0  0  0  0
   -0.0220    3.1400    0.0180 C   0  0  2  0  0  0  0  0  0  0  0  0
   -0.0150    3.3340    1.3950 F   0  0  0  0  0  0  0  0  0  0  0  0
   -1.2510    3.2820   -0.5490 F   0  0  0  0  0  0  0  0  0  0  0  0
    0.7130    4.2660   -0.4490 F   0  0  0  0  0  0  0  0  0  0  0  0
   -1.0020    0.1720   -0.2140 C   0  0  2  0  0  0  0  0  0  0  0  0
   -1.1270    0.0460   -1.5970 F   0  0  0  0  0  0  0  0  0  0  0  0
   -1.9550    1.0730    0.2720 F   0  0  0  0  0  0  0  0  0  0  0  0
   -1.3560   -1.1650    0.3650 C   0  0  0  0  0  0  0  0  0  0  0  0
   -2.8010   -1.4500   -0.1220 C   0  0  1  0  0  0  0  0  0  0  0  0
   -3.1680   -2.6750    0.3900 F   0  0  0  0  0  0  0  0  0  0  0  0
   -3.5850   -0.4690    0.4320 F   0  0  0  0  0  0  0  0  0  0  0  0
   -2.8280   -1.4590   -1.4960 F   0  0  0  0  0  0  0  0  0  0  0  0
  2  1  1  1
  2  3  1  0
  2  8  1  0
  2 13  1  0
  3  4  1  0
  4  5  1  0
  5  6  1  1
  5  7  1  0
  8  9  1  0
  9 10  1  1
  9 11  1  0
  9 12  1  0
 13 14  1  6
 13 15  1  0
 13 16  1  0
 16 17  1  0
 17 18  1  1
 17 19  1  0
 17 20  1  0
M  END
