
     RDKit          3D

 20 19  0  0  0  0  0  0  0  0999 V2000
   -2.6710    1.7690   -0.1640 F   0  0  0  0  0  0  0  0  0  0  0  0
   -3.5580    0.7610   -0.3560 C   0  0  0  0  0  0  0  0  0  0  0  0
   -4.8110    1.1050   -0.7300 F   0  0  0  0  0  0  0  0  0  0  0  0
   -3.1850   -0.4990   -0.1770 C   0  0  0  0  0  0  0  0  0  0  0  0
   -1.8350   -0.8650    0.2250 C   0  0  0  0  0  0  0  0  0  0  0  0
   -0.9290    0.1650    0.4210 O   0  0  0  0  0  0  0  0  0  0  0  0
    0.4230    0.1070   -0.0190 C   0  0  2  0  0  0  0  0  0  0  0  0
    1.0190    1.2970    0.3440 O   0  0  0  0  0  0  0  0  0  0  0  0
    2.0900    1.2480    1.1710 C   0  0  0  0  0  0  0  0  0  0  0  0
    3.3110    0.5360    0.7150 C   0  0  2  0  0  0  0  0  0  0  0  0
    4.2390    0.6580    1.7720 F   0  0  0  0  0  0  0  0  0  0  0  0
    3.9400    1.1720   -0.3530 F   0  0  0  0  0  0  0  0  0  0  0  0
    3.1980   -0.8010    0.5010 F   0  0  0  0  0  0  0  0  0  0  0  0
    0.4740    0.0220   -1.5340 C   0  0  2  0  0  0  0  0  0  0  0  0
    1.7660   -0.0360   -2.0020 F   0  0  0  0  0  0  0  0  0  0  0  0
   -0.1520    1.0650   -2.1380 F   0  0  0  0  0  0  0  0  0  0  0  0
   -0.2150   -1.1390   -1.8780 F   0  0  0  0  0  0  0  0  0  0  0  0
   -1.5460   -2.1360    0.3810 C   0  0  0  0  0  0  0  0  0  0  0  0
   -0.3250   -2.5930    0.7530 F   0  0  0  0  0  0  0  0  0  0  0  0
   -2.5060   -3.0570    0.1650 F   0  0  0  0  0  0  0  0  0  0  0  0
  1  2  1  0
  2  3  1  0
  2  4  2  3
  4  5  1  0
  5  6  1  0
  5 18  2  3
  7  6  1  6
  7  8  1  0
  7 14  1  0
  8  9  1  0
  9 10  1  0
 10 11  1  1
 10 12  1  0
 10 13  1  0
 14 15  1  6
 14 16  1  0
 14 17  1  0
 18 19  1  0
 18 20  1  0
M  END
