
     RDKit          3D

 20 19  0  0  0  0  0  0  0  0999 V2000
    2.1900   -0.3950    0.2610 O   0  0  0  0  0  0  0  0  0  0  0  0
    1.9090   -0.2100   -0.9320 C   0  0  0  0  0  0  0  0  0  0  0  0
    2.9360   -0.4180   -1.9640 C   0  0  0  0  0  0  0  0  0  0  0  0
    2.3550   -0.1430   -3.1910 F   0  0  0  0  0  0  0  0  0  0  0  0
    0.6070    0.1920   -1.2180 O   0  0  0  0  0  0  0  0  0  0  0  0
   -0.3030    0.3600   -0.1170 C   0  0  0  0  0  0  0  0  0  0  0  0
   -0.2400    1.5220    0.4100 C   0  0  0  0  0  0  0  0  0  0  0  0
    0.7140    2.4090   -0.1920 F   0  0  0  0  0  0  0  0  0  0  0  0
   -0.9160    2.1820    1.5270 C   0  0  1  0  0  0  0  0  0  0  0  0
   -0.2760    1.9300    2.7440 F   0  0  0  0  0  0  0  0  0  0  0  0
   -0.7380    3.6070    1.4080 F   0  0  0  0  0  0  0  0  0  0  0  0
   -2.2570    2.0530    1.5390 F   0  0  0  0  0  0  0  0  0  0  0  0
   -1.0940   -0.7750    0.1920 C   0  0  0  0  0  0  0  0  0  0  0  0
   -0.9050   -1.8670   -0.6050 C   0  0  0  0  0  0  0  0  0  0  0  0
   -0.0200   -1.8490   -1.6170 F   0  0  0  0  0  0  0  0  0  0  0  0
   -1.5810   -3.0190   -0.4420 F   0  0  0  0  0  0  0  0  0  0  0  0
   -2.1090   -0.9920    1.2300 C   0  0  1  0  0  0  0  0  0  0  0  0
   -3.3150   -0.4350    0.8740 F   0  0  0  0  0  0  0  0  0  0  0  0
   -2.3710   -2.3770    1.3120 F   0  0  0  0  0  0  0  0  0  0  0  0
   -1.7330   -0.6230    2.4990 F   0  0  0  0  0  0  0  0  0  0  0  0
  1  2  2  0
  2  3  1  0
  2  5  1  0
  3  4  1  0
  5  6  1  0
  6  7  2  3
  6 13  1  0
  7  8  1  0
  7  9  1  0
  9 10  1  1
  9 11  1  0
  9 12  1  0
 13 14  2  3
 13 17  1  0
 14 15  1  0
 14 16  1  0
 17 18  1  6
 17 19  1  0
 17 20  1  0
M  END
