
     RDKit          3D

 25 26  0  0  0  0  0  0  0  0999 V2000
    8.6490   -1.0540    0.0150 C   0  0  0  0  0  0  0  0  0  0  0  0
    7.2320   -0.6830   -0.1490 C   0  0  0  0  0  0  0  0  0  0  0  0
    6.6650    0.4800   -0.6470 C   0  0  0  0  0  0  0  0  0  0  0  0
    5.3260    0.5440   -0.6800 C   0  0  0  0  0  0  0  0  0  0  0  0
    4.5810   -0.4750   -0.2500 C   0  0  0  0  0  0  0  0  0  0  0  0
    3.1720   -0.7510   -0.1400 C   0  0  0  0  0  0  0  0  0  0  0  0
    2.7770   -1.8530    0.3270 O   0  0  0  0  0  0  0  0  0  0  0  0
    2.1730    0.1700   -0.5360 N   0  0  0  0  0  0  0  0  0  0  0  0
    0.7540   -0.1180   -0.4200 C   0  0  0  0  0  0  0  0  0  0  0  0
   -0.0910    1.0070   -0.9030 C   0  0  1  0  0  0  0  0  0  0  0  0
    0.1780    2.2560   -0.1040 C   0  0  0  0  0  0  0  0  0  0  0  0
    0.2860    1.2700   -2.3490 C   0  0  0  0  0  0  0  0  0  0  0  0
   -1.5010    0.6340   -0.8610 N   0  0  0  0  0  0  0  0  0  0  0  0
   -2.1750    0.3020    0.3310 C   0  0  0  0  0  0  0  0  0  0  0  0
   -1.4480    0.3580    1.3860 O   0  0  0  0  0  0  0  0  0  0  0  0
   -3.5480   -0.0840    0.5060 C   0  0  0  0  0  0  0  0  0  0  0  0
   -4.3410   -0.1610   -0.5360 C   0  0  0  0  0  0  0  0  0  0  0  0
   -5.7420   -0.4960   -0.8170 C   0  0  0  0  0  0  0  0  0  0  0  0
   -6.8610   -0.5690   -0.1230 C   0  0  0  0  0  0  0  0  0  0  0  0
   -7.1280   -0.3190    1.3070 C   0  0  0  0  0  0  0  0  0  0  0  0
   -6.3970   -0.2530    2.4050 C   0  0  0  0  0  0  0  0  0  0  0  0
   -4.9730   -0.4070    2.6560 C   0  0  0  0  0  0  0  0  0  0  0  0
   -3.8520   -0.3450    1.9320 C   0  0  0  0  0  0  0  0  0  0  0  0
   -2.6940   -0.5720    2.6490 O   0  0  0  0  0  0  0  0  0  0  0  0
    5.8700   -1.6680    0.2630 S   0  0  0  0  0  0  0  0  0  0  0  0
  1  2  1  0
  2  3  2  0
  2 25  1  0
  3  4  1  0
  4  5  2  0
  5  6  1  0
  5 25  1  0
  6  7  2  0
  6  8  1  0
  8  9  1  0
  9 10  1  0
 10 11  1  1
 10 12  1  0
 10 13  1  0
 13 14  1  0
 14 15  2  0
 14 16  1  0
 16 17  2  0
 16 23  1  0
 17 18  1  0
 18 19  2  0
 19 20  1  0
 20 21  2  0
 21 22  1  0
 22 23  2  0
 23 24  1  0
M  END
