
     RDKit          3D

 25 27  0  0  0  0  0  0  0  0999 V2000
    7.4010   -1.4530   -0.9390 C   0  0  0  0  0  0  0  0  0  0  0  0
    6.7620   -1.5440    0.7620 S   0  0  0  0  0  0  0  0  0  0  0  0
    5.4550   -0.3190    0.8690 C   0  0  0  0  0  0  0  0  0  0  0  0
    5.7990    0.9540    1.3020 C   0  0  0  0  0  0  0  0  0  0  0  0
    4.8200    1.9060    1.3720 C   0  0  0  0  0  0  0  0  0  0  0  0
    3.5200    1.6380    1.0290 C   0  0  0  0  0  0  0  0  0  0  0  0
    3.1680    0.3850    0.6000 C   0  0  0  0  0  0  0  0  0  0  0  0
    1.8880   -0.0270    0.2150 N   0  0  0  0  0  0  0  0  0  0  0  0
    0.6480    0.7250    0.3710 C   0  0  0  0  0  0  0  0  0  0  0  0
    0.7860    1.8170    0.9100 O   0  0  0  0  0  0  0  0  0  0  0  0
   -0.5730    0.0740   -0.1310 C   0  0  0  0  0  0  0  0  0  0  0  0
   -1.7820    0.8550   -0.0130 C   0  0  0  0  0  0  0  0  0  0  0  0
   -1.8000    2.1970    0.2500 C   0  0  0  0  0  0  0  0  0  0  0  0
   -2.9710    2.9130    0.3350 N   0  0  0  0  0  0  0  0  0  0  0  0
   -4.1310    2.2710    0.1510 C   0  0  0  0  0  0  0  0  0  0  0  0
   -5.2380    2.9040    0.2210 O   0  0  0  0  0  0  0  0  0  0  0  0
   -4.1960    0.9250   -0.1190 C   0  0  0  0  0  0  0  0  0  0  0  0
   -5.4200    0.3240   -0.3100 C   0  0  0  0  0  0  0  0  0  0  0  0
   -5.4350   -1.0310   -0.5900 C   0  0  0  0  0  0  0  0  0  0  0  0
   -6.6910   -1.6380   -0.7850 O   0  0  0  0  0  0  0  0  0  0  0  0
   -4.2690   -1.7570   -0.6760 C   0  0  0  0  0  0  0  0  0  0  0  0
   -4.3700   -3.1970   -0.9750 C   0  0  0  0  0  0  0  0  0  0  0  0
   -3.0640   -1.1110   -0.4760 C   0  0  0  0  0  0  0  0  0  0  0  0
   -3.0330    0.2350   -0.1970 C   0  0  0  0  0  0  0  0  0  0  0  0
    4.1680   -0.5920    0.5270 C   0  0  0  0  0  0  0  0  0  0  0  0
  1  2  1  0
  2  3  1  0
  3  4  2  0
  3 25  1  0
  4  5  1  0
  5  6  2  0
  6  7  1  0
  7  8  1  0
  7 25  2  0
  8  9  1  0
  9 10  2  0
  9 11  1  0
 11 12  1  0
 12 13  2  0
 12 24  1  0
 13 14  1  0
 14 15  1  0
 15 16  2  0
 15 17  1  0
 17 18  2  0
 17 24  1  0
 18 19  1  0
 19 20  1  0
 19 21  2  0
 21 22  1  0
 21 23  1  0
 23 24  2  0
M  END
