
     RDKit          3D

 25 27  0  0  0  0  0  0  0  0999 V2000
    7.4270   -0.0400    0.8830 C   0  0  0  0  0  0  0  0  0  0  0  0
    6.4220    1.0610    0.7360 C   0  0  1  0  0  0  0  0  0  0  0  0
    7.0020    2.1060   -0.2190 C   0  0  0  0  0  0  0  0  0  0  0  0
    5.1060    0.5740    0.2210 C   0  0  0  0  0  0  0  0  0  0  0  0
    4.7950   -0.2520   -0.8350 C   0  0  0  0  0  0  0  0  0  0  0  0
    3.4940   -0.5010   -1.0530 C   0  0  0  0  0  0  0  0  0  0  0  0
    2.5440    0.0210   -0.2890 C   0  0  0  0  0  0  0  0  0  0  0  0
    1.1000   -0.0730   -0.2690 C   0  0  0  0  0  0  0  0  0  0  0  0
    0.3890   -1.1640   -0.3560 C   0  0  0  0  0  0  0  0  0  0  0  0
    0.7770   -2.5550   -0.4890 C   0  0  0  0  0  0  0  0  0  0  0  0
    1.9200   -3.0330   -0.5370 O   0  0  0  0  0  0  0  0  0  0  0  0
   -0.3980   -3.3460   -0.5590 N   0  0  0  0  0  0  0  0  0  0  0  0
   -1.5440   -2.4860   -0.4740 C   0  0  0  0  0  0  0  0  0  0  0  0
   -2.8980   -2.7200   -0.4920 C   0  0  0  0  0  0  0  0  0  0  0  0
   -3.7700   -1.6410   -0.3880 C   0  0  0  0  0  0  0  0  0  0  0  0
   -3.3720   -0.3440   -0.2670 C   0  0  0  0  0  0  0  0  0  0  0  0
   -4.2080    0.7860   -0.1410 N   0  0  0  0  0  0  0  0  0  0  0  0
   -5.5800    0.7420    0.1720 C   0  0  0  0  0  0  0  0  0  0  0  0
   -6.1680   -0.3390    0.3730 O   0  0  0  0  0  0  0  0  0  0  0  0
   -6.3570    2.0380    0.2670 C   0  0  0  0  0  0  0  0  0  0  0  0
   -7.7900    1.7300    0.6520 C   0  0  0  0  0  0  0  0  0  0  0  0
   -8.3740    0.9100   -0.3090 O   0  0  0  0  0  0  0  0  0  0  0  0
   -1.9820   -0.1520   -0.2520 C   0  0  0  0  0  0  0  0  0  0  0  0
   -1.0930   -1.1960   -0.3530 C   0  0  0  0  0  0  0  0  0  0  0  0
    3.4860    1.0010    0.9170 S   0  0  0  0  0  0  0  0  0  0  0  0
  2  1  1  6
  2  3  1  0
  2  4  1  0
  4  5  2  0
  4 25  1  0
  5  6  1  0
  6  7  2  0
  7  8  1  0
  7 25  1  0
  8  9  2  3
  9 10  1  0
  9 24  1  0
 10 11  2  0
 10 12  1  0
 12 13  1  0
 13 14  2  0
 13 24  1  0
 14 15  1  0
 15 16  2  0
 16 17  1  0
 16 23  1  0
 17 18  1  0
 18 19  2  0
 18 20  1  0
 20 21  1  0
 21 22  1  0
 23 24  2  0
M  END
