
     RDKit          3D

 14 14  0  0  0  0  0  0  0  0999 V2000
    2.1800   -1.3570   -1.9630 O   0  0  0  0  0  0  0  0  0  0  0  0
    2.4380   -0.5590   -1.0380 C   0  0  0  0  0  0  0  0  0  0  0  0
    1.3900   -0.0070   -0.1660 C   0  0  0  0  0  0  0  0  0  0  0  0
    0.1080   -0.4710   -0.4890 O   0  0  0  0  0  0  0  0  0  0  0  0
   -0.9600   -0.0140    0.2700 C   0  0  0  0  0  0  0  0  0  0  0  0
   -1.2580   -0.5690    1.4350 C   0  0  0  0  0  0  0  0  0  0  0  0
   -2.4260    0.0250    2.1340 C   0  0  0  0  0  0  0  0  0  0  0  0
   -3.5840   -0.0710    1.1660 C   0  0  0  0  0  0  0  0  0  0  0  0
   -3.2990    0.7600   -0.0440 C   0  0  0  0  0  0  0  0  0  0  0  0
   -1.8400    1.1090   -0.1480 C   0  0  0  0  0  0  0  0  0  0  0  0
    3.7890   -0.1600   -0.8050 N   0  0  0  0  0  0  0  0  0  0  0  0
    4.8720   -0.6170   -1.5680 C   0  0  0  0  0  0  0  0  0  0  0  0
    4.5810   -1.5170   -2.6120 O   0  0  0  0  0  0  0  0  0  0  0  0
    6.3820   -0.1330   -1.2630 S   0  0  0  0  0  0  0  0  0  0  0  0
  1  2  2  0
  2  3  1  0
  2 11  1  0
  3  4  1  0
  4  5  1  0
  5  6  2  0
  5 10  1  0
  6  7  1  0
  7  8  1  0
  8  9  1  0
  9 10  1  0
 11 12  1  0
 12 13  1  0
 12 14  2  0
M  END
