
     RDKit          3D

 25 27  0  0  0  0  0  0  0  0999 V2000
    8.2380    0.8680   -0.9300 C   0  0  0  0  0  0  0  0  0  0  0  0
    6.8460    0.4340   -0.6360 C   0  0  0  0  0  0  0  0  0  0  0  0
    5.7570    1.2160   -0.9740 C   0  0  0  0  0  0  0  0  0  0  0  0
    4.4720    0.7720   -0.6800 C   0  0  0  0  0  0  0  0  0  0  0  0
    4.2300   -0.4300   -0.0590 C   0  0  0  0  0  0  0  0  0  0  0  0
    2.5680   -0.9730    0.3050 S   0  0  0  0  0  0  0  0  0  0  0  0
    1.3920    0.2610   -0.2580 C   0  0  0  0  0  0  0  0  0  0  0  0
   -0.0090   -0.2280    0.0650 C   0  0  0  0  0  0  0  0  0  0  0  0
   -0.1640   -1.3300    0.6310 O   0  0  0  0  0  0  0  0  0  0  0  0
   -1.0960    0.5810   -0.2880 N   0  0  0  0  0  0  0  0  0  0  0  0
   -2.4530    0.2630   -0.0510 C   0  0  0  0  0  0  0  0  0  0  0  0
   -3.4360    1.1000   -0.5940 C   0  0  0  0  0  0  0  0  0  0  0  0
   -4.7910    0.8840   -0.4150 C   0  0  0  0  0  0  0  0  0  0  0  0
   -5.2350   -0.1820    0.3180 C   0  0  0  0  0  0  0  0  0  0  0  0
   -4.2930   -1.0230    0.8650 C   0  0  0  0  0  0  0  0  0  0  0  0
   -4.7090   -2.1630    1.6470 C   0  0  0  0  0  0  0  0  0  0  0  0
   -3.8430   -2.9240    2.1420 O   0  0  0  0  0  0  0  0  0  0  0  0
   -6.0430   -2.4700    1.8870 O   0  0  0  0  0  0  0  0  0  0  0  0
   -2.9310   -0.7910    0.6750 C   0  0  0  0  0  0  0  0  0  0  0  0
   -6.7240   -0.2090    0.3750 C   0  0  0  0  0  0  0  0  0  0  0  0
   -7.0700    1.2350    0.0290 C   0  0  0  0  0  0  0  0  0  0  0  0
   -5.9810    1.6430   -0.9040 C   0  0  0  0  0  0  0  0  0  0  0  0
    5.3100   -1.2110    0.2790 C   0  0  0  0  0  0  0  0  0  0  0  0
    6.5940   -0.7680   -0.0130 C   0  0  0  0  0  0  0  0  0  0  0  0
    7.7060   -1.5990    0.3490 N   0  0  0  0  0  0  0  0  0  0  0  0
  1  2  1  0
  2  3  2  0
  2 24  1  0
  3  4  1  0
  4  5  2  0
  5  6  1  0
  5 23  1  0
  6  7  1  0
  7  8  1  0
  8  9  2  0
  8 10  1  0
 10 11  1  0
 11 12  2  0
 11 19  1  0
 12 13  1  0
 13 14  2  0
 13 22  1  0
 14 15  1  0
 14 20  1  0
 15 16  1  0
 15 19  2  0
 16 17  2  0
 16 18  1  0
 20 21  1  0
 21 22  1  0
 23 24  2  0
 24 25  1  0
M  END
