
     RDKit          3D

 25 28  0  0  0  0  0  0  0  0999 V2000
   -4.7130   -2.1030    1.4330 C   0  0  0  0  0  0  0  0  0  0  0  0
   -5.1810   -1.1470    0.5160 O   0  0  0  0  0  0  0  0  0  0  0  0
   -4.3830   -0.2370   -0.1600 C   0  0  0  0  0  0  0  0  0  0  0  0
   -3.0070   -0.1720   -0.0010 C   0  0  0  0  0  0  0  0  0  0  0  0
   -2.2470    0.7460   -0.6910 C   0  0  0  0  0  0  0  0  0  0  0  0
   -0.7890    0.8370   -0.5400 C   0  0  0  0  0  0  0  0  0  0  0  0
   -0.1480    2.0690   -0.6850 C   0  0  0  0  0  0  0  0  0  0  0  0
    1.2050    2.2350   -0.5590 C   0  0  0  0  0  0  0  0  0  0  0  0
    2.0030    1.1310   -0.2700 C   0  0  0  0  0  0  0  0  0  0  0  0
    3.3660    1.3250   -0.1470 C   0  0  0  0  0  0  0  0  0  0  0  0
    4.1260    0.2000    0.1410 C   0  0  0  0  0  0  0  0  0  0  0  0
    5.4400    0.3600    0.2640 N   0  0  0  0  0  0  0  0  0  0  0  0
    6.2220   -0.7050    0.5440 C   0  0  0  0  0  0  0  0  0  0  0  0
    7.8360   -0.5470    0.7040 S   0  0  0  0  0  0  0  0  0  0  0  0
    5.6910   -1.9280    0.7000 N   0  0  0  0  0  0  0  0  0  0  0  0
    4.3750   -2.1300    0.5840 C   0  0  0  0  0  0  0  0  0  0  0  0
    3.8780   -3.2740    0.7300 O   0  0  0  0  0  0  0  0  0  0  0  0
    3.5470   -1.0460    0.2950 C   0  0  0  0  0  0  0  0  0  0  0  0
    2.1860   -1.1790    0.1620 C   0  0  0  0  0  0  0  0  0  0  0  0
    1.3840   -0.0950   -0.1240 C   0  0  0  0  0  0  0  0  0  0  0  0
    0.0050   -0.2510   -0.2550 C   0  0  0  0  0  0  0  0  0  0  0  0
   -2.9170    1.6020   -1.5510 C   0  0  0  0  0  0  0  0  0  0  0  0
   -4.2870    1.5450   -1.7160 C   0  0  0  0  0  0  0  0  0  0  0  0
   -5.0410    0.6240   -1.0220 C   0  0  0  0  0  0  0  0  0  0  0  0
   -6.4320    0.5600   -1.1840 O   0  0  0  0  0  0  0  0  0  0  0  0
  1  2  1  0
  2  3  1  0
  3  4  2  0
  3 24  1  0
  4  5  1  0
  5  6  1  0
  5 22  2  0
  6  7  2  0
  6 21  1  0
  7  8  1  0
  8  9  2  0
  9 10  1  0
  9 20  1  0
 10 11  2  0
 11 12  1  0
 11 18  1  0
 12 13  1  0
 13 14  2  0
 13 15  1  0
 15 16  1  0
 16 17  2  0
 16 18  1  0
 18 19  2  0
 19 20  1  0
 20 21  2  0
 22 23  1  0
 23 24  2  0
 24 25  1  0
M  END
