
     RDKit          3D

 24 26  0  0  0  0  0  0  0  0999 V2000
    6.9040   -0.9330   -1.1740 C   0  0  0  0  0  0  0  0  0  0  0  0
    6.3990   -0.2830    0.0800 C   0  0  1  0  0  0  0  0  0  0  0  0
    6.9070    1.0360    0.0980 O   0  0  0  0  0  0  0  0  0  0  0  0
    4.9030   -0.1210    0.0050 C   0  0  0  0  0  0  0  0  0  0  0  0
    4.0850   -0.8760    0.8070 C   0  0  0  0  0  0  0  0  0  0  0  0
    2.6910   -0.7080    0.7200 C   0  0  0  0  0  0  0  0  0  0  0  0
    2.1250    0.1870   -0.1430 C   0  0  0  0  0  0  0  0  0  0  0  0
    0.7200    0.3710   -0.2460 N   0  0  0  0  0  0  0  0  0  0  0  0
   -0.2840   -0.2870    0.4710 C   0  0  0  0  0  0  0  0  0  0  0  0
    0.0040   -1.1490    1.3170 O   0  0  0  0  0  0  0  0  0  0  0  0
   -1.7420    0.0490    0.2190 C   0  0  0  0  0  0  0  0  0  0  0  0
   -2.5970   -0.6160    0.9350 C   0  0  0  0  0  0  0  0  0  0  0  0
   -4.0150   -0.6080    1.0120 C   0  0  0  0  0  0  0  0  0  0  0  0
   -4.6250   -1.6100    1.7930 C   0  0  0  0  0  0  0  0  0  0  0  0
   -5.9880   -1.6570    1.9300 C   0  0  0  0  0  0  0  0  0  0  0  0
   -6.7970   -0.7370    1.3160 C   0  0  0  0  0  0  0  0  0  0  0  0
   -6.1950    0.2500    0.5480 C   0  0  0  0  0  0  0  0  0  0  0  0
   -6.7690    1.2930   -0.1570 C   0  0  0  0  0  0  0  0  0  0  0  0
   -5.7580    1.9850   -0.7280 C   0  0  0  0  0  0  0  0  0  0  0  0
   -4.5610    1.4110   -0.4070 N   0  0  0  0  0  0  0  0  0  0  0  0
   -4.8180    0.3500    0.3710 C   0  0  0  0  0  0  0  0  0  0  0  0
    2.9700    0.9450   -0.9500 C   0  0  0  0  0  0  0  0  0  0  0  0
    2.4250    1.8630   -1.8380 O   0  0  0  0  0  0  0  0  0  0  0  0
    4.3190    0.7680   -0.8510 C   0  0  0  0  0  0  0  0  0  0  0  0
  2  1  1  6
  2  3  1  0
  2  4  1  0
  4  5  2  0
  4 24  1  0
  5  6  1  0
  6  7  2  0
  7  8  1  0
  7 22  1  0
  8  9  1  0
  9 10  2  0
  9 11  1  0
 11 12  2  3
 12 13  1  0
 13 14  2  0
 13 21  1  0
 14 15  1  0
 15 16  2  0
 16 17  1  0
 17 18  1  0
 17 21  2  0
 18 19  2  0
 19 20  1  0
 20 21  1  0
 22 23  1  0
 22 24  2  0
M  END
