
     RDKit          3D

 24 25  0  0  0  0  0  0  0  0999 V2000
    2.9630   -0.9110    0.5380 N   0  0  0  0  0  0  0  0  0  0  0  0
    2.6540    0.5230    0.2710 C   0  0  0  0  0  0  0  0  0  0  0  0
    3.6570    1.3100    0.4810 C   0  0  0  0  0  0  0  0  0  0  0  0
    3.5220    2.6750    0.2790 O   0  0  0  0  0  0  0  0  0  0  0  0
    4.5670    3.4690    0.2010 O   0  0  0  0  0  0  0  0  0  0  0  0
    5.3170    0.6770    1.0320 P   0  0  0  0  0  0  0  0  0  0  0  0
    5.4860   -0.8920    0.8450 O   0  0  0  0  0  0  0  0  0  0  0  0
    1.3080    0.6640    0.0610 N   0  0  0  0  0  0  0  0  0  0  0  0
    0.8860   -0.0050   -1.2890 C   0  0  0  0  0  0  0  0  0  0  0  0
   -0.2150   -0.9790   -0.8670 C   0  0  1  0  0  0  0  0  0  0  0  0
    0.4920   -1.9760   -0.1670 O   0  0  0  0  0  0  0  0  0  0  0  0
   -0.3380   -2.8670    0.4620 C   0  0  0  0  0  0  0  0  0  0  0  0
   -1.2360   -2.2840    1.3430 O   0  0  0  0  0  0  0  0  0  0  0  0
   -1.4200   -0.9340    1.3140 C   0  0  0  0  0  0  0  0  0  0  0  0
   -1.7350   -0.1960    2.2680 O   0  0  0  0  0  0  0  0  0  0  0  0
   -1.2280   -0.3210   -0.1100 C   0  0  2  0  0  0  0  0  0  0  0  0
   -2.6460   -0.4340   -0.6590 C   0  0  0  0  0  0  0  0  0  0  0  0
   -3.0350    0.9150   -0.9290 O   0  0  0  0  0  0  0  0  0  0  0  0
   -4.4750    1.1710   -0.0420 P   0  0  0  0  0  0  0  0  0  0  0  0
   -5.5720    2.2830   -0.4910 O   0  0  0  0  0  0  0  0  0  0  0  0
   -4.8060    0.0410    1.1750 O   0  0  0  0  0  0  0  0  0  0  0  0
   -1.0110    1.0720    0.2740 O   0  0  0  0  0  0  0  0  0  0  0  0
    0.2980    1.4290    0.6000 C   0  0  0  0  0  0  0  0  0  0  0  0
    0.6040    2.4010    1.3530 O   0  0  0  0  0  0  0  0  0  0  0  0
  1  2  1  0
  2  3  2  3
  2  8  1  0
  3  4  1  0
  3  6  1  0
  4  5  1  0
  6  7  2  0
  8  9  1  0
  8 23  1  0
 10  9  1  1
 10 11  1  0
 10 16  1  0
 11 12  1  0
 12 13  1  0
 13 14  1  0
 14 15  2  0
 14 16  1  0
 16 17  1  6
 16 22  1  0
 17 18  1  0
 18 19  1  0
 19 20  1  0
 19 21  1  0
 22 23  1  0
 23 24  2  0
M  END
