
     RDKit          3D

 25 27  0  0  0  0  0  0  0  0999 V2000
   -4.4340    4.1370    0.7270 O   0  0  0  0  0  0  0  0  0  0  0  0
   -3.2120    3.4470    1.6100 P   0  0  0  0  0  0  0  0  0  0  0  0
   -2.9550    1.8850    1.0520 O   0  0  0  0  0  0  0  0  0  0  0  0
   -1.8430    1.2100    1.1580 C   0  0  0  0  0  0  0  0  0  0  0  0
   -2.1840   -0.0450    0.1570 C   0  0  2  0  0  0  0  0  0  0  0  0
   -1.0840   -0.8600    0.3410 O   0  0  0  0  0  0  0  0  0  0  0  0
    0.1180   -0.4950   -0.1400 C   0  0  0  0  0  0  0  0  0  0  0  0
    0.4160    0.4400   -0.8120 O   0  0  0  0  0  0  0  0  0  0  0  0
    1.4870   -1.4290    0.1880 N   0  0  0  0  0  0  0  0  0  0  0  0
    2.2570   -0.5470   -0.5320 C   0  0  0  0  0  0  0  0  0  0  0  0
    2.7860    0.2370   -1.1370 O   0  0  0  0  0  0  0  0  0  0  0  0
    3.7800   -1.3890   -0.1860 N   0  0  0  0  0  0  0  0  0  0  0  0
    4.7160   -0.3960   -0.0350 C   0  0  0  0  0  0  0  0  0  0  0  0
    6.1570   -0.7910   -0.0230 C   0  0  0  0  0  0  0  0  0  0  0  0
    6.7720    0.4450    0.3580 O   0  0  0  0  0  0  0  0  0  0  0  0
    6.8150    1.3170   -0.6030 O   0  0  0  0  0  0  0  0  0  0  0  0
   -2.0360    0.7740   -1.1490 C   0  0  0  0  0  0  0  0  0  0  0  0
   -0.8620    1.4110   -1.3450 O   0  0  0  0  0  0  0  0  0  0  0  0
   -3.0990    0.6610   -1.8650 O   0  0  0  0  0  0  0  0  0  0  0  0
   -4.1320   -0.0690   -1.1650 C   0  0  1  0  0  0  0  0  0  0  0  0
   -4.6320   -1.1080   -1.8130 O   0  0  0  0  0  0  0  0  0  0  0  0
   -5.0210   -2.2270   -0.5070 P   0  0  0  0  0  0  0  0  0  0  0  0
   -6.5130   -1.6590    0.2200 O   0  0  0  0  0  0  0  0  0  0  0  0
   -3.7400   -1.6890    0.5580 O   0  0  0  0  0  0  0  0  0  0  0  0
   -3.5610   -0.4000    0.1670 C   0  0  1  0  0  0  0  0  0  0  0  0
  1  2  2  0
  2  3  1  0
  3  4  1  0
  5  4  1  1
  5  6  1  0
  5 17  1  0
  5 25  1  0
  6  7  1  0
  7  8  2  0
  7  9  1  0
  9 10  1  0
 10 11  2  0
 10 12  1  0
 12 13  1  0
 13 14  1  0
 14 15  1  0
 15 16  1  0
 17 18  2  0
 17 19  1  0
 20 19  1  6
 20 21  1  0
 20 25  1  0
 21 22  1  0
 22 23  1  0
 22 24  1  0
 25 24  1  6
 18  8  1  0
M  END
