
     RDKit          3D

 16 15  0  0  0  0  0  0  0  0999 V2000
   -3.3350    0.1040   -1.7290 O   0  0  0  0  0  0  0  0  0  0  0  0
   -3.4760    0.6560   -0.6110 C   0  0  0  0  0  0  0  0  0  0  0  0
   -3.6860    2.0490   -0.5240 O   0  0  0  0  0  0  0  0  0  0  0  0
   -3.4360   -0.0640    0.6100 N   0  0  0  0  0  0  0  0  0  0  0  0
   -3.2230   -1.4840    0.6620 C   0  0  0  0  0  0  0  0  0  0  0  0
   -1.9260   -1.9790    0.1310 C   0  0  1  0  0  0  0  0  0  0  0  0
   -1.6610   -1.7190   -1.1930 O   0  0  0  0  0  0  0  0  0  0  0  0
   -0.7730   -1.4240    0.9180 C   0  0  0  0  0  0  0  0  0  0  0  0
   -0.8180   -1.5580    2.1570 O   0  0  0  0  0  0  0  0  0  0  0  0
    0.3010   -0.7900    0.3220 O   0  0  0  0  0  0  0  0  0  0  0  0
    1.3900   -0.2640    1.0500 C   0  0  0  0  0  0  0  0  0  0  0  0
    2.3520    0.3460    0.0350 C   0  0  0  0  0  0  0  0  0  0  0  0
    3.4300    0.8690    0.7260 O   0  0  0  0  0  0  0  0  0  0  0  0
    4.5390    1.5720   -0.4240 P   0  0  0  0  0  0  0  0  0  0  0  0
    4.3800    3.3060   -0.4110 O   0  0  0  0  0  0  0  0  0  0  0  0
    6.1880    1.1600   -0.0290 O   0  0  0  0  0  0  0  0  0  0  0  0
  1  2  2  0
  2  3  1  0
  2  4  1  0
  4  5  1  0
  5  6  1  0
  6  7  1  6
  6  8  1  0
  8  9  2  0
  8 10  1  0
 10 11  1  0
 11 12  1  0
 12 13  1  0
 13 14  1  0
 14 15  1  0
 14 16  1  0
M  END
