
     RDKit          3D

 25 26  0  0  0  0  0  0  0  0999 V2000
   -2.7930    1.7700    2.2850 O   0  0  0  0  0  0  0  0  0  0  0  0
   -2.7440    1.4870    1.0640 C   0  0  0  0  0  0  0  0  0  0  0  0
   -1.4670    1.4090    0.4260 N   0  0  0  0  0  0  0  0  0  0  0  0
   -1.0140    0.7950   -0.7730 C   0  0  1  0  0  0  0  0  0  0  0  0
   -0.4910   -0.5790   -0.5040 C   0  0  1  0  0  0  0  0  0  0  0  0
   -1.5990   -1.4290   -0.0110 C   0  0  0  0  0  0  0  0  0  0  0  0
   -2.2010   -1.1970    1.0660 O   0  0  0  0  0  0  0  0  0  0  0  0
   -2.0080   -2.5190   -0.7340 O   0  0  0  0  0  0  0  0  0  0  0  0
   -0.0500   -1.1790   -1.7470 O   0  0  0  0  0  0  0  0  0  0  0  0
    0.4810   -2.4540   -1.6000 C   0  0  0  0  0  0  0  0  0  0  0  0
    0.8510   -3.1490   -2.5810 O   0  0  0  0  0  0  0  0  0  0  0  0
    0.5920   -2.9540   -0.2700 N   0  0  0  0  0  0  0  0  0  0  0  0
    0.7750   -2.1020    0.8890 C   0  0  0  0  0  0  0  0  0  0  0  0
    0.7170   -0.6530    0.3780 C   0  0  2  0  0  0  0  0  0  0  0  0
    0.7910    0.2500    1.3940 O   0  0  0  0  0  0  0  0  0  0  0  0
    2.2700    1.1510    1.4000 P   0  0  0  0  0  0  0  0  0  0  0  0
    2.8270    1.4600   -0.2240 O   0  0  0  0  0  0  0  0  0  0  0  0
    3.5430    0.3090    2.2210 O   0  0  0  0  0  0  0  0  0  0  0  0
    5.0340    1.1250    1.8510 P   0  0  0  0  0  0  0  0  0  0  0  0
    4.7210    2.6590    1.0940 O   0  0  0  0  0  0  0  0  0  0  0  0
    5.9850    0.1920    0.7330 O   0  0  0  0  0  0  0  0  0  0  0  0
   -2.0420    0.6340   -1.7300 O   0  0  0  0  0  0  0  0  0  0  0  0
   -2.9620    1.6510   -1.7200 C   0  0  0  0  0  0  0  0  0  0  0  0
   -4.2160    1.1340   -1.0040 C   0  0  0  0  0  0  0  0  0  0  0  0
   -3.9630    1.2640    0.4020 O   0  0  0  0  0  0  0  0  0  0  0  0
  1  2  2  0
  2  3  1  0
  2 25  1  0
  4  3  1  1
  4  5  1  0
  4 22  1  0
  5  6  1  1
  5  9  1  0
  5 14  1  0
  6  7  2  0
  6  8  1  0
  9 10  1  0
 10 11  2  0
 10 12  1  0
 12 13  1  0
 13 14  1  0
 14 15  1  1
 15 16  1  0
 16 17  1  0
 16 18  1  0
 18 19  1  0
 19 20  1  0
 19 21  1  0
 22 23  1  0
 23 24  1  0
 24 25  1  0
M  END
