
     RDKit          3D

 16 15  0  0  0  0  0  0  0  0999 V2000
   -4.5570    0.3750    0.8150 O   0  0  0  0  0  0  0  0  0  0  0  0
   -4.8780   -0.7270    0.2980 C   0  0  0  0  0  0  0  0  0  0  0  0
   -6.2030   -0.9800   -0.0250 O   0  0  0  0  0  0  0  0  0  0  0  0
   -3.8970   -1.8030    0.0050 C   0  0  0  0  0  0  0  0  0  0  0  0
   -2.5810   -1.4220    0.3810 O   0  0  0  0  0  0  0  0  0  0  0  0
   -1.9210   -0.3400   -0.1300 C   0  0  0  0  0  0  0  0  0  0  0  0
   -2.5200    0.3580   -0.9860 O   0  0  0  0  0  0  0  0  0  0  0  0
   -0.5590    0.0440    0.2670 C   0  0  0  0  0  0  0  0  0  0  0  0
    0.0790   -0.6260    1.1200 O   0  0  0  0  0  0  0  0  0  0  0  0
    0.0960    1.1730   -0.2850 N   0  0  0  0  0  0  0  0  0  0  0  0
    1.4200    1.5890    0.0670 C   0  0  0  0  0  0  0  0  0  0  0  0
    2.4800    0.5540   -0.2130 C   0  0  0  0  0  0  0  0  0  0  0  0
    3.6910    1.1560    0.2000 O   0  0  0  0  0  0  0  0  0  0  0  0
    5.0440    0.1470   -0.0290 P   0  0  0  0  0  0  0  0  0  0  0  0
    4.6820   -1.3080   -0.8880 O   0  0  0  0  0  0  0  0  0  0  0  0
    6.3980    0.9850   -0.7030 O   0  0  0  0  0  0  0  0  0  0  0  0
  1  2  2  0
  2  3  1  0
  2  4  1  0
  4  5  1  0
  5  6  1  0
  6  7  2  0
  6  8  1  0
  8  9  2  0
  8 10  1  0
 10 11  1  0
 11 12  1  0
 12 13  1  0
 13 14  1  0
 14 15  1  0
 14 16  1  0
M  END
