
     RDKit          3D

 26 29  0  0  0  0  0  0  0  0999 V2000
   -3.8380   -1.7450   -2.0870 N   0  0  0  0  0  0  0  0  0  0  0  0
   -3.2690   -1.1480   -0.8710 C   0  0  2  0  0  0  0  0  0  0  0  0
   -4.3190   -0.3180   -0.2590 C   0  0  0  0  0  0  0  0  0  0  0  0
   -4.0830    0.8320    0.4520 C   0  0  0  0  0  0  0  0  0  0  0  0
   -5.1730    1.5540    0.9590 C   0  0  0  0  0  0  0  0  0  0  0  0
   -6.4300    1.1670    0.7790 N   0  0  0  0  0  0  0  0  0  0  0  0
   -6.6860    0.0550    0.0930 C   0  0  0  0  0  0  0  0  0  0  0  0
   -5.6370   -0.6970   -0.4320 C   0  0  0  0  0  0  0  0  0  0  0  0
   -2.1160   -0.3300   -1.3340 C   0  0  0  0  0  0  0  0  0  0  0  0
   -2.0600    0.5440   -2.3340 N   0  0  0  0  0  0  0  0  0  0  0  0
   -0.8620    1.0520   -2.4500 N   0  0  0  0  0  0  0  0  0  0  0  0
   -0.0900    0.4740   -1.4640 C   0  0  0  0  0  0  0  0  0  0  0  0
   -0.8700   -0.3590   -0.8010 N   0  0  0  0  0  0  0  0  0  0  0  0
   -0.3380   -1.1050    0.2740 N   0  0  0  0  0  0  0  0  0  0  0  0
    1.0200   -0.9530    0.6300 C   0  0  0  0  0  0  0  0  0  0  0  0
    1.5490   -1.5950    1.5830 O   0  0  0  0  0  0  0  0  0  0  0  0
    1.8590   -0.0600   -0.0800 N   0  0  0  0  0  0  0  0  0  0  0  0
    3.2520    0.0800    0.3100 C   0  0  0  0  0  0  0  0  0  0  0  0
    3.8270    1.3150    0.5150 C   0  0  0  0  0  0  0  0  0  0  0  0
    5.1550    1.4280    0.9030 C   0  0  0  0  0  0  0  0  0  0  0  0
    5.9390    0.3170    1.0950 C   0  0  0  0  0  0  0  0  0  0  0  0
    7.3700    0.4100    1.5110 C   0  0  0  0  0  0  0  0  0  0  0  0
    7.5330    0.4020    3.2860 Cl  0  0  0  0  0  0  0  0  0  0  0  0
    5.3710   -0.9220    0.8920 C   0  0  0  0  0  0  0  0  0  0  0  0
    4.0390   -1.0330    0.5030 C   0  0  0  0  0  0  0  0  0  0  0  0
    1.3490    0.7070   -1.1720 C   0  0  0  0  0  0  0  0  0  0  0  0
  2  1  1  6
  2  3  1  0
  2  9  1  0
  3  4  2  0
  3  8  1  0
  4  5  1  0
  5  6  2  0
  6  7  1  0
  7  8  2  0
  9 10  2  0
  9 13  1  0
 10 11  1  0
 11 12  2  0
 12 13  1  0
 12 26  1  0
 13 14  1  0
 14 15  1  0
 15 16  2  0
 15 17  1  0
 17 18  1  0
 17 26  1  0
 18 19  2  0
 18 25  1  0
 19 20  1  0
 20 21  2  0
 21 22  1  0
 21 24  1  0
 22 23  1  0
 24 25  2  0
M  CHG  1   6   1
M  END
