
     RDKit          3D

 26 29  0  0  0  0  0  0  0  0999 V2000
    6.6100   -0.7520   -0.8290 C   0  0  0  0  0  0  0  0  0  0  0  0
    6.5910    0.2910    0.2760 C   0  0  0  0  0  0  0  0  0  0  0  0
    5.3730    1.1520    0.2200 C   0  0  0  0  0  0  0  0  0  0  0  0
    4.1340    0.5480    0.3380 N   0  0  0  0  0  0  0  0  0  0  0  0
    3.7420   -0.0320    1.5630 C   0  0  0  0  0  0  0  0  0  0  0  0
    2.6560   -1.0770    1.4340 C   0  0  0  0  0  0  0  0  0  0  0  0
    1.8010   -0.8880    0.3060 N   0  0  0  0  0  0  0  0  0  0  0  0
    0.4190   -1.2700    0.2860 C   0  0  0  0  0  0  0  0  0  0  0  0
   -0.5880   -0.4000    0.1070 N   0  0  0  0  0  0  0  0  0  0  0  0
   -1.8830   -0.8090    0.0940 C   0  0  0  0  0  0  0  0  0  0  0  0
   -3.0550   -0.1450   -0.0670 N   0  0  0  0  0  0  0  0  0  0  0  0
   -4.0900   -0.9990   -0.0030 C   0  0  0  0  0  0  0  0  0  0  0  0
   -5.3470   -0.7260   -0.1150 N   0  0  0  0  0  0  0  0  0  0  0  0
   -5.8620    0.5680   -0.3330 C   0  0  0  0  0  0  0  0  0  0  0  0
   -6.7150    1.1240    0.5090 C   0  0  0  0  0  0  0  0  0  0  0  0
   -7.3150    2.4680    0.3790 C   0  0  0  0  0  0  0  0  0  0  0  0
   -6.8920    3.1160   -0.7560 O   0  0  0  0  0  0  0  0  0  0  0  0
   -6.0070    2.5810   -1.6570 C   0  0  0  0  0  0  0  0  0  0  0  0
   -5.4870    1.3760   -1.5060 C   0  0  0  0  0  0  0  0  0  0  0  0
   -3.5540   -2.2090    0.2010 N   0  0  0  0  0  0  0  0  0  0  0  0
   -2.2020   -2.1270    0.2650 C   0  0  0  0  0  0  0  0  0  0  0  0
   -1.2190   -3.0270    0.4470 N   0  0  0  0  0  0  0  0  0  0  0  0
    0.0540   -2.6100    0.4570 C   0  0  0  0  0  0  0  0  0  0  0  0
    1.3230   -3.8120    0.6970 Cl  0  0  0  0  0  0  0  0  0  0  0  0
    2.3070   -0.2850   -0.9150 C   0  0  0  0  0  0  0  0  0  0  0  0
    3.0740    0.9560   -0.5100 C   0  0  0  0  0  0  0  0  0  0  0  0
  1  2  1  0
  2  3  1  0
  3  4  1  0
  4  5  1  0
  4 26  1  0
  5  6  1  0
  6  7  1  0
  7  8  1  0
  7 25  1  0
  8  9  2  0
  8 23  1  0
  9 10  1  0
 10 11  1  0
 10 21  2  0
 11 12  1  0
 12 13  2  3
 12 20  1  0
 13 14  1  0
 14 15  2  0
 14 19  1  0
 15 16  1  0
 16 17  1  0
 17 18  1  0
 18 19  2  0
 20 21  1  0
 21 22  1  0
 22 23  2  0
 23 24  1  0
 25 26  1  0
M  CHG  1  13   1
M  END
