
     RDKit          3D

 26 29  0  0  0  0  0  0  0  0999 V2000
   -4.1340    0.1070   -1.9600 C   0  0  0  0  0  0  0  0  0  0  0  0
   -4.9290   -1.0260   -1.3610 C   0  0  0  0  0  0  0  0  0  0  0  0
   -4.2330   -1.5790   -0.1400 C   0  0  0  0  0  0  0  0  0  0  0  0
   -4.0660   -0.5590    0.9070 C   0  0  0  0  0  0  0  0  0  0  0  0
   -5.0200   -0.1000    1.7600 C   0  0  0  0  0  0  0  0  0  0  0  0
   -6.4600   -0.5230    1.8370 C   0  0  0  0  0  0  0  0  0  0  0  0
   -4.4110    0.8140    2.5310 N   0  0  0  0  0  0  0  0  0  0  0  0
   -3.1370    0.9380    2.1940 N   0  0  0  0  0  0  0  0  0  0  0  0
   -2.1520    1.6860    2.6430 N   0  0  0  0  0  0  0  0  0  0  0  0
   -0.8970    1.6050    2.0880 C   0  0  0  0  0  0  0  0  0  0  0  0
   -0.0530    2.3530    2.5890 O   0  0  0  0  0  0  0  0  0  0  0  0
   -0.6020    0.7660    1.0630 C   0  0  0  0  0  0  0  0  0  0  0  0
    0.6960    0.6160    0.4140 C   0  0  0  0  0  0  0  0  0  0  0  0
    0.8910   -0.2640   -0.6210 N   0  0  0  0  0  0  0  0  0  0  0  0
    2.1300   -0.2460   -1.0660 C   0  0  0  0  0  0  0  0  0  0  0  0
    2.8070    0.6750   -0.3150 C   0  0  0  0  0  0  0  0  0  0  0  0
    1.8960    1.2120    0.6140 C   0  0  0  0  0  0  0  0  0  0  0  0
    2.3050    2.4350    1.7980 Cl  0  0  0  0  0  0  0  0  0  0  0  0
    4.2340    0.9850   -0.5110 C   0  0  0  0  0  0  0  0  0  0  0  0
    4.9800   -0.0540   -1.1040 N   0  0  0  0  0  0  0  0  0  0  0  0
    6.0980   -0.4910   -0.3390 C   0  0  0  0  0  0  0  0  0  0  0  0
    6.9850    0.6690   -0.1690 N   0  0  0  0  0  0  0  0  0  0  0  0
    4.3520   -1.0140   -1.9060 C   0  0  0  0  0  0  0  0  0  0  0  0
    2.8950   -0.9630   -2.1340 C   0  0  0  0  0  0  0  0  0  0  0  0
   -1.6530    0.0040    0.6240 N   0  0  0  0  0  0  0  0  0  0  0  0
   -2.8630    0.0920    1.1710 C   0  0  0  0  0  0  0  0  0  0  0  0
  1  2  1  0
  2  3  1  0
  3  4  1  0
  4  5  1  0
  4 26  2  0
  5  6  1  0
  5  7  2  0
  7  8  1  0
  8  9  1  0
  8 26  1  0
  9 10  1  0
 10 11  2  0
 10 12  1  0
 12 13  1  0
 12 25  2  0
 13 14  1  0
 13 17  2  0
 14 15  1  0
 15 16  2  0
 15 24  1  0
 16 17  1  0
 16 19  1  0
 17 18  1  0
 19 20  1  0
 20 21  1  0
 20 23  1  0
 21 22  1  0
 23 24  1  0
 25 26  1  0
M  CHG  1  22   1
M  END
