
     RDKit          3D

 26 29  0  0  0  0  0  0  0  0999 V2000
    3.3100    0.1440   -2.1820 O   0  0  0  0  0  0  0  0  0  0  0  0
    2.8790   -0.1220   -0.9050 C   0  0  0  0  0  0  0  0  0  0  0  0
    1.5250   -0.1180   -0.6410 C   0  0  0  0  0  0  0  0  0  0  0  0
    1.0290   -0.3780    0.6240 C   0  0  0  0  0  0  0  0  0  0  0  0
   -0.4050   -0.3700    0.8860 C   0  0  0  0  0  0  0  0  0  0  0  0
   -0.9850   -0.6170    2.1110 C   0  0  0  0  0  0  0  0  0  0  0  0
   -2.3080   -0.5070    1.8970 N   0  0  0  0  0  0  0  0  0  0  0  0
   -2.5740   -0.2140    0.6420 N   0  0  0  0  0  0  0  0  0  0  0  0
   -3.8420   -0.0230    0.0530 C   0  0  0  0  0  0  0  0  0  0  0  0
   -3.9970   -0.0410   -1.3140 C   0  0  0  0  0  0  0  0  0  0  0  0
   -5.2490    0.1480   -1.9000 C   0  0  0  0  0  0  0  0  0  0  0  0
   -6.3320    0.3530   -1.0900 C   0  0  0  0  0  0  0  0  0  0  0  0
   -6.1450    0.3650    0.2720 C   0  0  0  0  0  0  0  0  0  0  0  0
   -4.9250    0.1800    0.8140 N   0  0  0  0  0  0  0  0  0  0  0  0
   -7.4360    0.5960    0.8220 N   0  0  0  0  0  0  0  0  0  0  0  0
   -8.3050    1.0870   -0.2340 C   0  0  0  0  0  0  0  0  0  0  0  0
   -7.7060    0.5690   -1.4240 N   0  0  0  0  0  0  0  0  0  0  0  0
   -1.3950   -0.1280    0.0110 N   0  0  0  0  0  0  0  0  0  0  0  0
    1.9520   -0.6430    1.6150 C   0  0  0  0  0  0  0  0  0  0  0  0
    3.3020   -0.6430    1.3360 C   0  0  0  0  0  0  0  0  0  0  0  0
    3.8060   -0.3850    0.0780 C   0  0  0  0  0  0  0  0  0  0  0  0
    5.1970   -0.3980   -0.1530 N   0  0  0  0  0  0  0  0  0  0  0  0
    6.1870   -0.6640    0.8310 C   0  0  0  0  0  0  0  0  0  0  0  0
    7.5930   -0.5990    0.2460 C   0  0  0  0  0  0  0  0  0  0  0  0
    7.8800    0.7700   -0.3290 C   0  0  0  0  0  0  0  0  0  0  0  0
    9.5340    0.7390   -0.9810 Cl  0  0  0  0  0  0  0  0  0  0  0  0
  1  2  1  0
  2  3  2  0
  2 21  1  0
  3  4  1  0
  4  5  1  0
  4 19  2  0
  5  6  1  0
  5 18  2  0
  6  7  2  0
  7  8  1  0
  8  9  1  0
  8 18  1  0
  9 10  2  0
  9 14  1  0
 10 11  1  0
 11 12  2  0
 12 13  1  0
 12 17  1  0
 13 14  2  0
 13 15  1  0
 15 16  1  0
 16 17  1  0
 19 20  1  0
 20 21  2  0
 21 22  1  0
 22 23  1  0
 23 24  1  0
 24 25  1  0
 25 26  1  0
M  CHG  1  17   1
M  END
