
     RDKit          3D

 26 29  0  0  0  0  0  0  0  0999 V2000
    5.4120    0.5060    2.2760 C   0  0  0  0  0  0  0  0  0  0  0  0
    4.7330   -0.0770    1.1320 N   0  0  0  0  0  0  0  0  0  0  0  0
    3.4790    0.1670    0.7930 N   0  0  0  0  0  0  0  0  0  0  0  0
    3.1650   -0.5290   -0.3060 C   0  0  0  0  0  0  0  0  0  0  0  0
    1.8810   -0.5360   -0.9970 C   0  0  0  0  0  0  0  0  0  0  0  0
    0.8610    0.3870   -0.3020 C   0  0  1  0  0  0  0  0  0  0  0  0
    1.4290    1.8170   -0.3090 C   0  0  0  0  0  0  0  0  0  0  0  0
   -0.3360    0.4120   -1.2000 C   0  0  0  0  0  0  0  0  0  0  0  0
   -1.6030    0.3030   -0.4880 N   0  0  0  0  0  0  0  0  0  0  0  0
   -2.6780    0.9320   -1.1870 C   0  0  0  0  0  0  0  0  0  0  0  0
   -3.9650    0.5410   -0.6200 C   0  0  0  0  0  0  0  0  0  0  0  0
   -4.0630   -0.4090    0.3550 C   0  0  0  0  0  0  0  0  0  0  0  0
   -5.3010   -0.8220    0.8710 C   0  0  0  0  0  0  0  0  0  0  0  0
   -5.3480   -1.8200    1.8920 N   0  0  0  0  0  0  0  0  0  0  0  0
   -6.4320   -0.2470    0.3710 C   0  0  0  0  0  0  0  0  0  0  0  0
   -6.3360    0.7080   -0.6110 C   0  0  0  0  0  0  0  0  0  0  0  0
   -5.1190    1.1110   -1.1140 C   0  0  0  0  0  0  0  0  0  0  0  0
   -5.0590    2.3450   -2.3790 Cl  0  0  0  0  0  0  0  0  0  0  0  0
   -1.4180    0.8660    0.8480 C   0  0  0  0  0  0  0  0  0  0  0  0
   -0.5010   -0.0930    1.5480 C   0  0  0  0  0  0  0  0  0  0  0  0
    0.7320   -0.0650    0.9560 O   0  0  0  0  0  0  0  0  0  0  0  0
    4.2530   -1.2220   -0.6570 N   0  0  0  0  0  0  0  0  0  0  0  0
    4.7740   -2.0810   -1.5300 N   0  0  0  0  0  0  0  0  0  0  0  0
    6.0270   -2.3580   -1.2360 N   0  0  0  0  0  0  0  0  0  0  0  0
    6.3470   -1.6630   -0.1340 C   0  0  0  0  0  0  0  0  0  0  0  0
    5.2240   -0.9440    0.2320 C   0  0  0  0  0  0  0  0  0  0  0  0
  1  2  1  0
  2  3  1  0
  2 26  1  0
  3  4  2  0
  4  5  1  0
  4 22  1  0
  5  6  1  0
  6  7  1  1
  6  8  1  0
  6 21  1  0
  8  9  1  0
  9 10  1  0
  9 19  1  0
 10 11  1  0
 11 12  2  0
 11 17  1  0
 12 13  1  0
 13 14  1  0
 13 15  2  0
 15 16  1  0
 16 17  2  0
 17 18  1  0
 19 20  1  0
 20 21  1  0
 22 23  1  0
 22 26  1  0
 23 24  2  0
 24 25  1  0
 25 26  2  0
M  CHG  1  24   1
M  END
