
     RDKit          3D

 26 29  0  0  0  0  0  0  0  0999 V2000
    6.9990    1.4810    1.6930 N   0  0  0  0  0  0  0  0  0  0  0  0
    6.0890    1.0910    0.6560 C   0  0  0  0  0  0  0  0  0  0  0  0
    4.8000    0.6960    0.9980 C   0  0  0  0  0  0  0  0  0  0  0  0
    3.9650    0.3310   -0.0350 C   0  0  0  0  0  0  0  0  0  0  0  0
    2.5830   -0.1000    0.2440 C   0  0  0  0  0  0  0  0  0  0  0  0
    1.6690   -0.4800   -0.6570 N   0  0  0  0  0  0  0  0  0  0  0  0
    0.5630   -0.7870    0.0020 C   0  0  0  0  0  0  0  0  0  0  0  0
   -0.6950   -1.2600   -0.6680 C   0  0  1  0  0  0  0  0  0  0  0  0
   -0.8010   -2.7300   -0.4390 C   0  0  0  0  0  0  0  0  0  0  0  0
   -1.3040   -2.9620    0.8840 N   0  0  0  0  0  0  0  0  0  0  0  0
   -2.6970   -2.5710    0.9070 C   0  0  0  0  0  0  0  0  0  0  0  0
   -2.9640   -1.3260    0.1130 C   0  0  0  0  0  0  0  0  0  0  0  0
   -1.7780   -0.5090   -0.0300 N   0  0  0  0  0  0  0  0  0  0  0  0
   -2.0480    0.6220   -0.8670 C   0  0  0  0  0  0  0  0  0  0  0  0
   -3.1170    1.4970   -0.3350 C   0  0  0  0  0  0  0  0  0  0  0  0
   -4.4180    1.2330   -0.7070 C   0  0  0  0  0  0  0  0  0  0  0  0
   -5.4350    2.0480   -0.2140 C   0  0  0  0  0  0  0  0  0  0  0  0
   -5.1750    3.0790    0.6130 N   0  0  0  0  0  0  0  0  0  0  0  0
   -3.9240    3.3610    0.9920 C   0  0  0  0  0  0  0  0  0  0  0  0
   -2.9040    2.5630    0.5130 C   0  0  0  0  0  0  0  0  0  0  0  0
    0.7890   -0.6000    1.3010 N   0  0  0  0  0  0  0  0  0  0  0  0
    2.0000   -0.1910    1.4160 O   0  0  0  0  0  0  0  0  0  0  0  0
    4.3980    0.3600   -1.3390 C   0  0  0  0  0  0  0  0  0  0  0  0
    3.3610   -0.0970   -2.6730 Cl  0  0  0  0  0  0  0  0  0  0  0  0
    5.6970    0.7620   -1.6470 C   0  0  0  0  0  0  0  0  0  0  0  0
    6.5020    1.1160   -0.6230 N   0  0  0  0  0  0  0  0  0  0  0  0
  1  2  1  0
  2  3  2  0
  2 26  1  0
  3  4  1  0
  4  5  1  0
  4 23  2  0
  5  6  2  0
  5 22  1  0
  6  7  1  0
  8  7  1  1
  7 21  2  0
  8  9  1  0
  8 13  1  0
  9 10  1  0
 10 11  1  0
 11 12  1  0
 12 13  1  0
 13 14  1  0
 14 15  1  0
 15 16  2  0
 15 20  1  0
 16 17  1  0
 17 18  2  0
 18 19  1  0
 19 20  2  0
 21 22  1  0
 23 24  1  0
 23 25  1  0
 25 26  2  0
M  CHG  1  10   1
M  END
