
     RDKit          3D

 22 24  0  0  0  0  0  0  0  0999 V2000
    2.9430    3.1760    0.2210 C   0  0  0  0  0  0  0  0  0  0  0  0
    2.7390    2.3090   -0.7360 C   0  0  0  0  0  0  0  0  0  0  0  0
    2.2480    0.9330   -0.6190 C   0  0  0  0  0  0  0  0  0  0  0  0
    1.0240    0.5930   -0.9620 N   0  0  0  0  0  0  0  0  0  0  0  0
    0.5470   -0.7130   -1.0040 C   0  0  0  0  0  0  0  0  0  0  0  0
   -0.8430   -0.7160   -1.3470 N   0  0  0  0  0  0  0  0  0  0  0  0
   -1.8480   -0.7700   -0.3720 C   0  0  0  0  0  0  0  0  0  0  0  0
   -2.7690    0.3150   -0.2700 C   0  0  0  0  0  0  0  0  0  0  0  0
   -3.6420   -0.0010    0.7180 C   0  0  0  0  0  0  0  0  0  0  0  0
   -3.2900   -1.2200    1.2180 N   0  0  0  0  0  0  0  0  0  0  0  0
   -2.2300   -1.6470    0.5410 N   0  0  0  0  0  0  0  0  0  0  0  0
   -1.6820   -2.9910    0.8110 C   0  0  0  0  0  0  0  0  0  0  0  0
   -4.7150    0.9660    1.1140 C   0  0  0  0  0  0  0  0  0  0  0  0
   -4.9430    1.9200   -0.0320 C   0  0  0  0  0  0  0  0  0  0  0  0
   -3.6260    2.5690   -0.3960 C   0  0  0  0  0  0  0  0  0  0  0  0
   -2.7850    1.5350   -1.0740 C   0  0  0  0  0  0  0  0  0  0  0  0
    1.4160   -1.6720   -0.6750 C   0  0  0  0  0  0  0  0  0  0  0  0
    2.7370   -1.4060   -0.2960 C   0  0  0  0  0  0  0  0  0  0  0  0
    3.6960   -2.4090    0.1740 C   0  0  0  0  0  0  0  0  0  0  0  0
    4.7860   -2.5560   -0.7820 N   0  0  0  0  0  0  0  0  0  0  0  0
    3.1150   -0.0560   -0.2790 C   0  0  0  0  0  0  0  0  0  0  0  0
    4.5170    0.2310    0.1590 C   0  0  0  0  0  0  0  0  0  0  0  0
  1  2  2  0
  2  3  1  0
  3  4  2  0
  3 21  1  0
  4  5  1  0
  5  6  1  0
  5 17  2  0
  6  7  1  0
  7  8  2  0
  7 11  1  0
  8  9  1  0
  8 16  1  0
  9 10  2  0
  9 13  1  0
 10 11  1  0
 11 12  1  0
 13 14  1  0
 14 15  1  0
 15 16  1  0
 17 18  1  0
 18 19  1  0
 18 21  2  0
 19 20  1  0
 21 22  1  0
M  END
