
     RDKit          3D

 22 24  0  0  0  0  0  0  0  0999 V2000
    8.1760   -0.5420    0.4570 C   0  0  0  0  0  0  0  0  0  0  0  0
    6.8980   -0.0360    1.0140 C   0  0  0  0  0  0  0  0  0  0  0  0
    5.7180   -0.2230    0.4280 C   0  0  0  0  0  0  0  0  0  0  0  0
    4.5090    0.2970    1.0260 C   0  0  0  0  0  0  0  0  0  0  0  0
    3.3120    0.1660    0.5300 C   0  0  0  0  0  0  0  0  0  0  0  0
    3.0470   -0.5440   -0.7290 C   0  0  0  0  0  0  0  0  0  0  0  0
    2.1110   -1.7230   -0.4960 C   0  0  0  0  0  0  0  0  0  0  0  0
    0.8370   -1.2660    0.0480 N   0  0  0  0  0  0  0  0  0  0  0  0
    0.6110   -1.1550    1.3690 C   0  0  0  0  0  0  0  0  0  0  0  0
   -0.6730   -0.7050    1.5120 C   0  0  0  0  0  0  0  0  0  0  0  0
   -1.1880   -0.5580    0.2440 C   0  0  0  0  0  0  0  0  0  0  0  0
   -2.5470   -0.0930   -0.0710 C   0  0  0  0  0  0  0  0  0  0  0  0
   -3.4860    0.2550    0.8010 N   0  0  0  0  0  0  0  0  0  0  0  0
   -4.6320    0.6380    0.1710 C   0  0  0  0  0  0  0  0  0  0  0  0
   -5.8620    1.0760    0.6090 C   0  0  0  0  0  0  0  0  0  0  0  0
   -6.8820    1.4090   -0.2580 C   0  0  0  0  0  0  0  0  0  0  0  0
   -8.1510    1.8610    0.1870 N   0  0  0  0  0  0  0  0  0  0  0  0
   -6.6060    1.2790   -1.6240 C   0  0  0  0  0  0  0  0  0  0  0  0
   -5.3720    0.8390   -2.0490 C   0  0  0  0  0  0  0  0  0  0  0  0
   -4.3620    0.5100   -1.1700 C   0  0  0  0  0  0  0  0  0  0  0  0
   -3.0980    0.0680   -1.2890 N   0  0  0  0  0  0  0  0  0  0  0  0
   -0.2370   -0.9100   -0.6290 N   0  0  0  0  0  0  0  0  0  0  0  0
  1  2  1  0
  2  3  2  3
  3  4  1  0
  4  5  2  3
  5  6  1  0
  6  7  1  0
  7  8  1  0
  8  9  1  0
  8 22  1  0
  9 10  2  0
 10 11  1  0
 11 12  1  0
 11 22  2  0
 12 13  2  0
 12 21  1  0
 13 14  1  0
 14 15  2  0
 14 20  1  0
 15 16  1  0
 16 17  1  0
 16 18  2  0
 18 19  1  0
 19 20  2  0
 20 21  1  0
M  END
