
     RDKit          3D

 22 24  0  0  0  0  0  0  0  0999 V2000
   -5.4540    2.2910    0.0720 C   0  0  0  0  0  0  0  0  0  0  0  0
   -5.1700    0.8640    0.3010 C   0  0  0  0  0  0  0  0  0  0  0  0
   -4.0850    0.2630   -0.1250 C   0  0  0  0  0  0  0  0  0  0  0  0
   -3.8720   -1.1110    0.1290 N   0  0  0  0  0  0  0  0  0  0  0  0
   -4.6590   -1.7630    1.1500 C   0  0  0  0  0  0  0  0  0  0  0  0
   -2.8930   -1.8330   -0.6150 C   0  0  0  0  0  0  0  0  0  0  0  0
   -1.5100   -1.3400   -0.4650 C   0  0  0  0  0  0  0  0  0  0  0  0
   -1.2330   -0.3850    0.4850 C   0  0  0  0  0  0  0  0  0  0  0  0
    0.0650    0.0410    0.5830 C   0  0  0  0  0  0  0  0  0  0  0  0
    1.0550   -0.4830   -0.2570 C   0  0  0  0  0  0  0  0  0  0  0  0
    2.4190    0.0040   -0.1120 C   0  0  0  0  0  0  0  0  0  0  0  0
    2.7580    0.9530    0.8140 N   0  0  0  0  0  0  0  0  0  0  0  0
    4.0530    1.2070    0.7270 C   0  0  0  0  0  0  0  0  0  0  0  0
    4.9100    2.0620    1.4080 C   0  0  0  0  0  0  0  0  0  0  0  0
    6.2470    2.1060    1.0840 C   0  0  0  0  0  0  0  0  0  0  0  0
    6.7310    1.2870    0.0680 C   0  0  0  0  0  0  0  0  0  0  0  0
    5.8510    0.4480   -0.5900 C   0  0  0  0  0  0  0  0  0  0  0  0
    4.5260    0.3930   -0.2800 C   0  0  0  0  0  0  0  0  0  0  0  0
    3.5100   -0.3370   -0.7830 N   0  0  0  0  0  0  0  0  0  0  0  0
    0.7510   -1.4360   -1.1970 C   0  0  0  0  0  0  0  0  0  0  0  0
    1.6950   -2.0180   -2.0860 N   0  0  0  0  0  0  0  0  0  0  0  0
   -0.5570   -1.8330   -1.2600 N   0  0  0  0  0  0  0  0  0  0  0  0
  1  2  1  0
  2  3  2  3
  3  4  1  0
  4  5  1  0
  4  6  1  0
  6  7  1  0
  7  8  2  0
  7 22  1  0
  8  9  1  0
  9 10  2  0
 10 11  1  0
 10 20  1  0
 11 12  2  0
 11 19  1  0
 12 13  1  0
 13 14  2  0
 13 18  1  0
 14 15  1  0
 15 16  2  0
 16 17  1  0
 17 18  2  0
 18 19  1  0
 20 21  1  0
 20 22  2  0
M  END
