
     RDKit          3D

 22 24  0  0  0  0  0  0  0  0999 V2000
   -2.6110   -2.7160   -1.0100 C   0  0  0  0  0  0  0  0  0  0  0  0
   -3.4430   -1.5270   -0.6150 C   0  0  0  0  0  0  0  0  0  0  0  0
   -4.7720   -1.4750   -0.4240 N   0  0  0  0  0  0  0  0  0  0  0  0
   -5.1450   -0.2550   -0.0830 N   0  0  0  0  0  0  0  0  0  0  0  0
   -6.5060    0.2140    0.2120 C   0  0  0  0  0  0  0  0  0  0  0  0
   -4.0560    0.5140   -0.0460 C   0  0  0  0  0  0  0  0  0  0  0  0
   -4.0230    1.9750    0.2980 C   0  0  0  0  0  0  0  0  0  0  0  0
   -2.9650   -0.2570   -0.3770 C   0  0  0  0  0  0  0  0  0  0  0  0
   -1.5740    0.2430   -0.4430 C   0  0  0  0  0  0  0  0  0  0  0  0
   -0.7510   -0.1790    0.7550 C   0  0  0  0  0  0  0  0  0  0  0  0
    0.6210    0.4040    0.5340 C   0  0  0  0  0  0  0  0  0  0  0  0
    1.6850   -0.3620    0.4500 C   0  0  0  0  0  0  0  0  0  0  0  0
    3.0270    0.1660    0.2370 C   0  0  0  0  0  0  0  0  0  0  0  0
    3.3090    1.5000    0.1040 C   0  0  0  0  0  0  0  0  0  0  0  0
    4.5980    1.9990   -0.1010 C   0  0  0  0  0  0  0  0  0  0  0  0
    4.7600    3.3950   -0.2220 N   0  0  0  0  0  0  0  0  0  0  0  0
    5.6210    1.1380   -0.1730 N   0  0  0  0  0  0  0  0  0  0  0  0
    5.3930   -0.1810   -0.0480 C   0  0  0  0  0  0  0  0  0  0  0  0
    6.2520   -1.2340   -0.0850 N   0  0  0  0  0  0  0  0  0  0  0  0
    5.5730   -2.3960    0.0880 C   0  0  0  0  0  0  0  0  0  0  0  0
    4.2480   -2.0690    0.2380 C   0  0  0  0  0  0  0  0  0  0  0  0
    4.1200   -0.7040    0.1560 C   0  0  0  0  0  0  0  0  0  0  0  0
  1  2  1  0
  2  3  2  0
  2  8  1  0
  3  4  1  0
  4  5  1  0
  4  6  1  0
  6  7  1  0
  6  8  2  0
  8  9  1  0
  9 10  1  0
 10 11  1  0
 11 12  2  3
 12 13  1  0
 13 14  2  0
 13 22  1  0
 14 15  1  0
 15 16  1  0
 15 17  2  0
 17 18  1  0
 18 19  1  0
 18 22  2  0
 19 20  1  0
 20 21  2  0
 21 22  1  0
M  END
