
     RDKit          3D

 25 26  0  0  0  0  0  0  0  0999 V2000
   -2.7790    3.7630    2.9910 N   0  0  0  0  0  0  0  0  0  0  0  0
   -2.2300    2.6770    2.3500 O   0  0  0  0  0  0  0  0  0  0  0  0
   -2.9900    1.8540    1.5350 C   0  0  0  0  0  0  0  0  0  0  0  0
   -4.2090    2.1570    1.4140 O   0  0  0  0  0  0  0  0  0  0  0  0
   -2.3870    0.7190    0.8730 C   0  0  0  0  0  0  0  0  0  0  0  0
   -3.0540   -0.1060    0.0810 C   0  0  0  0  0  0  0  0  0  0  0  0
   -4.3910    0.0680   -0.1680 O   0  0  0  0  0  0  0  0  0  0  0  0
   -2.2810   -1.2120   -0.5110 C   0  0  1  0  0  0  0  0  0  0  0  0
   -3.0540   -2.1120   -1.4130 C   0  0  0  0  0  0  0  0  0  0  0  0
   -4.1800   -2.8000   -0.7030 C   0  0  0  0  0  0  0  0  0  0  0  0
   -4.8940   -3.6480   -1.5780 O   0  0  0  0  0  0  0  0  0  0  0  0
   -1.1310   -0.5260   -1.2710 C   0  0  2  0  0  0  0  0  0  0  0  0
   -0.3260   -1.4950   -1.8890 O   0  0  0  0  0  0  0  0  0  0  0  0
   -0.3500    0.3480   -0.3430 C   0  0  2  0  0  0  0  0  0  0  0  0
    1.0280    0.0540   -0.3120 O   0  0  0  0  0  0  0  0  0  0  0  0
    2.0160    0.9370   -0.7210 C   0  0  0  0  0  0  0  0  0  0  0  0
    1.6180    2.0510   -1.1360 O   0  0  0  0  0  0  0  0  0  0  0  0
    3.4180    0.5260   -0.6450 C   0  0  2  0  0  0  0  0  0  0  0  0
    3.5910   -0.7540   -0.1500 O   0  0  0  0  0  0  0  0  0  0  0  0
    4.8440   -1.1970   -0.5750 C   0  0  0  0  0  0  0  0  0  0  0  0
    5.8190   -0.2330   -0.5160 O   0  0  0  0  0  0  0  0  0  0  0  0
    5.5920    0.7540    0.4230 C   0  0  0  0  0  0  0  0  0  0  0  0
    4.2650    1.4580    0.1920 C   0  0  2  0  0  0  0  0  0  0  0  0
    3.6590    1.7080    1.4250 O   0  0  0  0  0  0  0  0  0  0  0  0
   -0.9460    0.4390    1.0580 C   0  0  0  0  0  0  0  0  0  0  0  0
  1  2  1  0
  2  3  1  0
  3  4  2  0
  3  5  1  0
  5  6  2  0
  5 25  1  0
  6  7  1  0
  6  8  1  0
  8  9  1  6
  8 12  1  0
  9 10  1  0
 10 11  1  0
 12 13  1  1
 12 14  1  0
 14 15  1  1
 14 25  1  0
 15 16  1  0
 16 17  2  0
 18 16  1  1
 18 19  1  0
 18 23  1  0
 19 20  1  0
 20 21  1  0
 21 22  1  0
 22 23  1  0
 23 24  1  1
M  CHG  1   7  -1
M  END
