
     RDKit          3D

 19 20  0  0  0  0  0  0  0  0999 V2000
   -1.5850   -1.8420   -1.7220 C   0  0  0  0  0  0  0  0  0  0  0  0
   -1.9860   -0.4630   -1.2420 C   0  0  0  0  0  0  0  0  0  0  0  0
   -1.2760    0.1370   -0.3430 C   0  0  0  0  0  0  0  0  0  0  0  0
   -0.0680   -0.3430    0.3030 C   0  0  0  0  0  0  0  0  0  0  0  0
    0.4170    0.4930    1.1720 O   0  0  0  0  0  0  0  0  0  0  0  0
    0.6700   -1.5040    0.1820 N   0  0  0  0  0  0  0  0  0  0  0  0
    1.8920   -1.7350    0.9870 C   0  0  0  0  0  0  0  0  0  0  0  0
    2.8430   -0.6630    0.6510 C   0  0  0  0  0  0  0  0  0  0  0  0
    2.6760    0.3060   -0.2410 N   0  0  0  0  0  0  0  0  0  0  0  0
    3.7700    1.0490   -0.2260 N   0  0  0  0  0  0  0  0  0  0  0  0
    4.6210    0.5350    0.6830 C   0  0  0  0  0  0  0  0  0  0  0  0
    5.7750    0.9360    1.0130 O   0  0  0  0  0  0  0  0  0  0  0  0
    4.0580   -0.5470    1.2490 N   0  0  0  0  0  0  0  0  0  0  0  0
   -1.7960    1.4370    0.2240 C   0  0  2  0  0  0  0  0  0  0  0  0
   -2.4330    1.1120    1.6000 C   0  0  0  0  0  0  0  0  0  0  0  0
   -2.7860    2.0340   -0.5510 N   0  0  0  0  0  0  0  0  0  0  0  0
   -3.5480    1.3260   -1.5110 C   0  0  0  0  0  0  0  0  0  0  0  0
   -4.5740    1.8910   -1.9990 O   0  0  0  0  0  0  0  0  0  0  0  0
   -3.1440    0.0710   -1.8640 O   0  0  0  0  0  0  0  0  0  0  0  0
  1  2  1  0
  2  3  2  0
  2 19  1  0
  3  4  1  0
  3 14  1  0
  4  5  2  0
  4  6  1  0
  6  7  1  0
  7  8  1  0
  8  9  2  0
  8 13  1  0
  9 10  1  0
 10 11  1  0
 11 12  2  0
 11 13  1  0
 14 15  1  1
 14 16  1  0
 16 17  1  0
 17 18  2  0
 17 19  1  0
M  END
