
     RDKit          3D

 19 20  0  0  0  0  0  0  0  0999 V2000
    4.1360    1.4100    0.1680 C   0  0  0  0  0  0  0  0  0  0  0  0
    3.4130    0.2170   -0.2240 C   0  0  0  0  0  0  0  0  0  0  0  0
    2.2800   -0.2770   -0.3540 C   0  0  0  0  0  0  0  0  0  0  0  0
    0.8540   -0.1990   -0.2710 C   0  0  0  0  0  0  0  0  0  0  0  0
    0.1370   -1.2850   -0.6260 C   0  0  0  0  0  0  0  0  0  0  0  0
    0.8000   -2.4560   -1.0640 O   0  0  0  0  0  0  0  0  0  0  0  0
   -1.3120   -1.3960   -0.6100 C   0  0  1  0  0  0  0  0  0  0  0  0
   -1.7870   -2.5990    0.1390 C   0  0  0  0  0  0  0  0  0  0  0  0
   -3.1780   -2.8100    0.2210 N   0  0  0  0  0  0  0  0  0  0  0  0
   -0.9910   -3.4000    0.6800 O   0  0  0  0  0  0  0  0  0  0  0  0
   -1.9450   -0.1690   -0.1530 C   0  0  0  0  0  0  0  0  0  0  0  0
   -3.2200   -0.0880   -0.0740 O   0  0  0  0  0  0  0  0  0  0  0  0
   -1.1810    0.9600    0.2160 N   0  0  0  0  0  0  0  0  0  0  0  0
   -1.5960    2.1910    0.6660 C   0  0  0  0  0  0  0  0  0  0  0  0
   -2.9840    2.5360    0.8410 N   0  0  0  0  0  0  0  0  0  0  0  0
   -0.5480    2.9610    0.8970 N   0  0  0  0  0  0  0  0  0  0  0  0
    0.5320    2.1840    0.5810 C   0  0  0  0  0  0  0  0  0  0  0  0
    1.6810    2.6190    0.6900 O   0  0  0  0  0  0  0  0  0  0  0  0
    0.1490    0.9620    0.1650 N   0  0  0  0  0  0  0  0  0  0  0  0
  1  2  1  0
  2  3  2  3
  3  4  1  0
  4  5  2  0
  4 19  1  0
  5  6  1  0
  5  7  1  0
  7  8  1  1
  7 11  1  0
  8  9  1  0
  8 10  2  0
 11 12  2  0
 11 13  1  0
 13 14  1  0
 13 19  1  0
 14 15  1  0
 14 16  2  0
 16 17  1  0
 17 18  2  0
 17 19  1  0
M  END
