
     RDKit          3D

 25 28  0  0  0  0  0  0  0  0999 V2000
    6.1250    1.8590   -0.9880 C   0  0  0  0  0  0  0  0  0  0  0  0
    5.0130    1.3350   -1.8300 C   0  0  0  0  0  0  0  0  0  0  0  0
    4.1180    0.4600   -1.1640 N   0  0  0  0  0  0  0  0  0  0  0  0
    4.2170   -0.9660   -1.0560 C   0  0  0  0  0  0  0  0  0  0  0  0
    5.0870   -1.7140   -1.5140 O   0  0  0  0  0  0  0  0  0  0  0  0
    3.0480   -1.4160   -0.2690 C   0  0  0  0  0  0  0  0  0  0  0  0
    2.5800   -2.6350    0.1880 C   0  0  0  0  0  0  0  0  0  0  0  0
    1.4170   -2.6780    0.9400 C   0  0  0  0  0  0  0  0  0  0  0  0
    0.6930   -1.5510    1.2590 C   0  0  0  0  0  0  0  0  0  0  0  0
    1.1850   -0.3280    0.7840 C   0  0  0  0  0  0  0  0  0  0  0  0
    0.5400    0.8260    1.0650 C   0  0  0  0  0  0  0  0  0  0  0  0
   -0.9760    0.9090    1.8840 S   0  0  1  0  0  0  0  0  0  0  0  0
   -0.8030    0.1520    3.1910 O   0  0  0  0  0  0  0  0  0  0  0  0
   -1.0970    2.3740    2.3680 O   0  0  0  0  0  0  0  0  0  0  0  0
   -2.3430    0.5530    1.0500 N   0  0  0  0  0  0  0  0  0  0  0  0
   -2.7210   -0.6090    0.4350 C   0  0  1  0  0  0  0  0  0  0  0  0
   -4.0010   -1.2180    1.0290 C   0  0  0  0  0  0  0  0  0  0  0  0
   -5.1480   -0.2930    0.8380 C   0  0  0  0  0  0  0  0  0  0  0  0
   -5.1710    0.3560   -0.5110 C   0  0  0  0  0  0  0  0  0  0  0  0
   -4.3650   -0.5180   -1.4500 C   0  0  0  0  0  0  0  0  0  0  0  0
   -2.9200   -0.3990   -1.0670 C   0  0  0  0  0  0  0  0  0  0  0  0
    1.1150    2.0160    0.5650 C   0  0  0  0  0  0  0  0  0  0  0  0
    2.2710    2.0250   -0.1740 C   0  0  0  0  0  0  0  0  0  0  0  0
    2.9340    0.8330   -0.4650 C   0  0  0  0  0  0  0  0  0  0  0  0
    2.3340   -0.2930    0.0440 C   0  0  0  0  0  0  0  0  0  0  0  0
  1  2  1  0
  2  3  1  0
  3  4  1  0
  3 24  1  0
  4  5  2  0
  4  6  1  0
  6  7  2  0
  6 25  1  0
  7  8  1  0
  8  9  2  0
  9 10  1  0
 10 11  2  0
 10 25  1  0
 11 12  1  0
 11 22  1  0
 12 13  2  0
 12 14  2  0
 12 15  1  6
 16 15  1  1
 16 17  1  0
 16 21  1  0
 17 18  1  0
 18 19  1  0
 19 20  1  0
 20 21  1  0
 22 23  2  0
 23 24  1  0
 24 25  2  0
M  END
