
     RDKit          3D

 25 28  0  0  0  0  0  0  0  0999 V2000
    3.4610   -1.2450   -0.3960 O   0  0  0  0  0  0  0  0  0  0  0  0
    2.8120   -0.2750    0.0300 C   0  0  0  0  0  0  0  0  0  0  0  0
    1.4590   -0.4570    0.6230 C   0  0  0  0  0  0  0  0  0  0  0  0
    1.0430   -1.8260    0.6290 N   0  0  0  0  0  0  0  0  0  0  0  0
   -0.1900   -2.1260    0.5520 C   0  0  0  0  0  0  0  0  0  0  0  0
   -1.2320   -1.1850    0.4580 N   0  0  0  0  0  0  0  0  0  0  0  0
   -2.5170   -1.5290   -0.0790 C   0  0  0  0  0  0  0  0  0  0  0  0
   -3.4550   -0.4610   -0.0760 C   0  0  0  0  0  0  0  0  0  0  0  0
   -4.7300   -0.6240   -0.5360 C   0  0  0  0  0  0  0  0  0  0  0  0
   -5.7280    0.4490   -0.5510 C   0  0  2  0  0  0  0  0  0  0  0  0
   -5.3180    1.7560   -1.1140 C   0  0  0  0  0  0  0  0  0  0  0  0
   -5.3100    2.3590    0.2530 C   0  0  0  0  0  0  0  0  0  0  0  0
   -5.9150    1.0910    0.8030 C   0  0  0  0  0  0  0  0  0  0  0  0
   -5.0860   -1.8710   -1.0080 C   0  0  0  0  0  0  0  0  0  0  0  0
   -4.2050   -2.9110   -1.0220 C   0  0  0  0  0  0  0  0  0  0  0  0
   -2.8790   -2.7540   -0.5480 C   0  0  0  0  0  0  0  0  0  0  0  0
   -2.0130   -3.9710   -0.6410 C   0  0  0  0  0  0  0  0  0  0  0  0
   -0.6790   -3.8430    0.5600 S   0  0  0  0  0  0  0  0  0  0  0  0
    3.3420    0.9880   -0.0410 O   0  0  0  0  0  0  0  0  0  0  0  0
    4.5960    1.2940   -0.5720 C   0  0  0  0  0  0  0  0  0  0  0  0
    5.7360    0.6010    0.1560 C   0  0  1  0  0  0  0  0  0  0  0  0
    7.0180    1.0520   -0.5580 C   0  0  0  0  0  0  0  0  0  0  0  0
    7.2700    2.3720    0.1150 C   0  0  0  0  0  0  0  0  0  0  0  0
    6.4840    2.4490    1.2330 O   0  0  0  0  0  0  0  0  0  0  0  0
    5.9770    1.2100    1.5250 C   0  0  0  0  0  0  0  0  0  0  0  0
  1  2  2  0
  2  3  1  0
  2 19  1  0
  3  4  1  0
  4  5  2  3
  5  6  1  0
  5 18  1  0
  6  7  1  0
  7  8  2  0
  7 16  1  0
  8  9  1  0
 10  9  1  1
  9 14  2  0
 10 11  1  0
 10 13  1  0
 11 12  1  0
 12 13  1  0
 14 15  1  0
 15 16  2  0
 16 17  1  0
 17 18  1  0
 19 20  1  0
 21 20  1  6
 21 22  1  0
 21 25  1  0
 22 23  1  0
 23 24  1  0
 24 25  1  0
M  END
