
     RDKit          3D

 25 28  0  0  0  0  0  0  0  0999 V2000
    4.8860    2.8880    0.6780 C   0  0  0  0  0  0  0  0  0  0  0  0
    3.4980    3.1800    0.2140 C   0  0  0  0  0  0  0  0  0  0  0  0
    2.8580    1.9580   -0.4090 C   0  0  0  0  0  0  0  0  0  0  0  0
    2.7770    0.8730    0.5150 N   0  0  0  0  0  0  0  0  0  0  0  0
    2.1870   -0.4070    0.1050 C   0  0  0  0  0  0  0  0  0  0  0  0
    0.8660   -0.5770    0.2810 C   0  0  0  0  0  0  0  0  0  0  0  0
   -0.1540    0.2950    0.8210 C   0  0  0  0  0  0  0  0  0  0  0  0
    0.1860    1.4320    1.2120 O   0  0  0  0  0  0  0  0  0  0  0  0
   -1.5040   -0.0970    0.9180 N   0  0  0  0  0  0  0  0  0  0  0  0
   -2.5040    0.8050    1.4600 C   0  0  0  0  0  0  0  0  0  0  0  0
   -3.5720    0.9740    0.3980 C   0  0  0  0  0  0  0  0  0  0  0  0
   -4.2760   -0.3340    0.2230 C   0  0  1  0  0  0  0  0  0  0  0  0
   -3.4760   -1.4480    0.7960 C   0  0  0  0  0  0  0  0  0  0  0  0
   -1.9970   -1.3930    0.4990 C   0  0  0  0  0  0  0  0  0  0  0  0
   -5.5240   -0.2080    0.8450 O   0  0  0  0  0  0  0  0  0  0  0  0
   -6.2710    0.6000    0.0180 C   0  0  0  0  0  0  0  0  0  0  0  0
   -5.6720    0.3430   -1.3340 C   0  0  0  0  0  0  0  0  0  0  0  0
   -4.6630   -0.5600   -1.0960 O   0  0  0  0  0  0  0  0  0  0  0  0
    0.5730   -2.2360   -0.3380 S   0  0  0  0  0  0  0  0  0  0  0  0
    2.2580   -2.5560   -0.7820 C   0  0  0  0  0  0  0  0  0  0  0  0
    2.8560   -3.6780   -1.3490 C   0  0  0  0  0  0  0  0  0  0  0  0
    4.2310   -3.6600   -1.5980 C   0  0  0  0  0  0  0  0  0  0  0  0
    4.9150   -2.5190   -1.2620 C   0  0  0  0  0  0  0  0  0  0  0  0
    4.2950   -1.4470   -0.7110 C   0  0  0  0  0  0  0  0  0  0  0  0
    2.9060   -1.4110   -0.4370 C   0  0  0  0  0  0  0  0  0  0  0  0
  1  2  1  0
  2  3  1  0
  3  4  1  0
  4  5  1  0
  5  6  2  0
  5 25  1  0
  6  7  1  0
  6 19  1  0
  7  8  2  0
  7  9  1  0
  9 10  1  0
  9 14  1  0
 10 11  1  0
 12 11  1  6
 12 13  1  0
 12 15  1  0
 12 18  1  0
 13 14  1  0
 15 16  1  0
 16 17  1  0
 17 18  1  0
 19 20  1  0
 20 21  2  0
 20 25  1  0
 21 22  1  0
 22 23  2  0
 23 24  1  0
 24 25  2  0
M  END
