
     RDKit          3D

 25 28  0  0  0  0  0  0  0  0999 V2000
   -4.3500    3.4110   -0.7320 C   0  0  0  0  0  0  0  0  0  0  0  0
   -4.4700    1.9680   -0.7180 N   0  0  0  0  0  0  0  0  0  0  0  0
   -3.3300    1.1350   -0.6290 C   0  0  0  0  0  0  0  0  0  0  0  0
   -2.0870    1.7010   -0.5640 C   0  0  0  0  0  0  0  0  0  0  0  0
   -0.9260    0.9610   -0.4800 C   0  0  0  0  0  0  0  0  0  0  0  0
    0.2540    1.6620   -0.4240 O   0  0  0  0  0  0  0  0  0  0  0  0
    1.5390    1.0640   -0.3080 C   0  0  0  0  0  0  0  0  0  0  0  0
    1.7000    0.3330    0.9540 C   0  0  0  0  0  0  0  0  0  0  0  0
    0.6720    0.2730    1.7060 O   0  0  0  0  0  0  0  0  0  0  0  0
    2.9190   -0.2660    1.3180 N   0  0  0  0  0  0  0  0  0  0  0  0
    2.9790   -1.0000    2.6170 C   0  0  0  0  0  0  0  0  0  0  0  0
    4.5940   -0.2310    3.1400 S   0  0  0  0  0  0  0  0  0  0  0  0
    5.2570   -0.2230    1.4850 C   0  0  0  0  0  0  0  0  0  0  0  0
    6.5280   -0.2040    1.0150 C   0  0  0  0  0  0  0  0  0  0  0  0
    6.7870   -0.2530   -0.3650 C   0  0  0  0  0  0  0  0  0  0  0  0
    5.7110   -0.3190   -1.1910 C   0  0  0  0  0  0  0  0  0  0  0  0
    4.4260   -0.3380   -0.7130 C   0  0  0  0  0  0  0  0  0  0  0  0
    4.1530   -0.2880    0.6610 C   0  0  0  0  0  0  0  0  0  0  0  0
   -1.0370   -0.4090   -0.4620 C   0  0  0  0  0  0  0  0  0  0  0  0
   -2.2730   -1.0100   -0.5250 C   0  0  0  0  0  0  0  0  0  0  0  0
   -3.4070   -0.2420   -0.6080 C   0  0  0  0  0  0  0  0  0  0  0  0
   -4.7170   -0.9360   -0.6680 C   0  0  0  0  0  0  0  0  0  0  0  0
   -4.5490   -2.2120    0.1720 C   0  0  0  0  0  0  0  0  0  0  0  0
   -3.6300   -2.9910   -0.5260 O   0  0  0  0  0  0  0  0  0  0  0  0
   -2.3620   -2.4740   -0.5060 C   0  0  0  0  0  0  0  0  0  0  0  0
  1  2  1  0
  2  3  1  0
  3  4  2  0
  3 21  1  0
  4  5  1  0
  5  6  1  0
  5 19  2  0
  6  7  1  0
  7  8  1  0
  8  9  2  0
  8 10  1  0
 10 11  1  0
 10 18  1  0
 11 12  1  0
 12 13  1  0
 13 14  2  0
 13 18  1  0
 14 15  1  0
 15 16  2  0
 16 17  1  0
 17 18  2  0
 19 20  1  0
 20 21  2  0
 20 25  1  0
 21 22  1  0
 22 23  1  0
 23 24  1  0
 24 25  1  0
M  END
