
     RDKit          3D

 25 28  0  0  0  0  0  0  0  0999 V2000
   -3.4610   -3.4960   -0.7090 C   0  0  0  0  0  0  0  0  0  0  0  0
   -2.9450   -2.2160   -0.0990 C   0  0  2  0  0  0  0  0  0  0  0  0
   -3.1900   -1.0200   -0.9840 C   0  0  0  0  0  0  0  0  0  0  0  0
   -1.8820   -0.3260   -1.3500 C   0  0  0  0  0  0  0  0  0  0  0  0
   -1.2310    0.1300   -0.1070 N   0  0  0  0  0  0  0  0  0  0  0  0
   -0.8450    1.4710    0.0130 C   0  0  0  0  0  0  0  0  0  0  0  0
   -1.6700    2.4540   -0.5680 C   0  0  0  0  0  0  0  0  0  0  0  0
   -1.3990    3.7820   -0.3960 C   0  0  0  0  0  0  0  0  0  0  0  0
   -0.3100    4.1790    0.3530 C   0  0  0  0  0  0  0  0  0  0  0  0
    0.4790    3.2180    0.9070 C   0  0  0  0  0  0  0  0  0  0  0  0
    0.2430    1.8310    0.7590 C   0  0  0  0  0  0  0  0  0  0  0  0
    1.2390    0.9520    1.3270 C   0  0  0  0  0  0  0  0  0  0  0  0
    1.4240    1.0540    2.5840 O   0  0  0  0  0  0  0  0  0  0  0  0
    2.0370    0.0040    0.6490 N   0  0  0  0  0  0  0  0  0  0  0  0
    3.0210   -0.8150    1.3530 C   0  0  0  0  0  0  0  0  0  0  0  0
    3.8610   -1.6020    0.4800 C   0  0  0  0  0  0  0  0  0  0  0  0
    5.2060   -1.6050    0.3790 C   0  0  0  0  0  0  0  0  0  0  0  0
    5.8450   -2.3880   -0.4890 C   0  0  0  0  0  0  0  0  0  0  0  0
    5.0520   -3.2260   -1.3090 C   0  0  0  0  0  0  0  0  0  0  0  0
    3.3870   -2.7990   -0.7390 S   0  0  0  0  0  0  0  0  0  0  0  0
   -0.3200    5.5740    0.3330 O   0  0  0  0  0  0  0  0  0  0  0  0
   -1.5460    6.0520   -0.1860 C   0  0  0  0  0  0  0  0  0  0  0  0
   -2.0630    4.9160   -0.8680 O   0  0  0  0  0  0  0  0  0  0  0  0
   -1.1590   -0.9100    0.8850 C   0  0  0  0  0  0  0  0  0  0  0  0
   -1.4830   -2.2410    0.2270 C   0  0  0  0  0  0  0  0  0  0  0  0
  2  1  1  6
  2  3  1  0
  2 25  1  0
  3  4  1  0
  4  5  1  0
  5  6  1  0
  5 24  1  0
  6  7  2  0
  6 11  1  0
  7  8  1  0
  8  9  2  0
  8 23  1  0
  9 10  1  0
  9 21  1  0
 10 11  2  0
 11 12  1  0
 12 13  2  0
 12 14  1  0
 14 15  1  0
 15 16  1  0
 16 17  2  0
 16 20  1  0
 17 18  1  0
 18 19  2  0
 19 20  1  0
 21 22  1  0
 22 23  1  0
 24 25  1  0
M  END
