
     RDKit          3D

 25 28  0  0  0  0  0  0  0  0999 V2000
   -3.0830    2.5140    0.3820 C   0  0  0  0  0  0  0  0  0  0  0  0
   -4.2190    1.7220   -0.1190 C   0  0  0  0  0  0  0  0  0  0  0  0
   -5.3510    2.2240   -0.2230 O   0  0  0  0  0  0  0  0  0  0  0  0
   -3.9990    0.3290   -0.4970 C   0  0  0  0  0  0  0  0  0  0  0  0
   -2.8140   -0.2390   -0.4010 C   0  0  0  0  0  0  0  0  0  0  0  0
   -2.5920   -1.6710   -0.7740 C   0  0  0  0  0  0  0  0  0  0  0  0
   -1.3620   -2.2120   -0.8780 C   0  0  0  0  0  0  0  0  0  0  0  0
    0.0200   -1.8830   -0.5760 C   0  0  0  0  0  0  0  0  0  0  0  0
    0.9270   -2.7530   -0.9270 O   0  0  0  0  0  0  0  0  0  0  0  0
    0.5700   -0.7650    0.0460 N   0  0  0  0  0  0  0  0  0  0  0  0
    1.9610   -0.5240    0.3040 C   0  0  0  0  0  0  0  0  0  0  0  0
    2.9690   -1.4120    0.2400 C   0  0  0  0  0  0  0  0  0  0  0  0
    4.2920   -1.0460    0.4960 C   0  0  0  0  0  0  0  0  0  0  0  0
    4.6200    0.2600    0.8290 C   0  0  0  0  0  0  0  0  0  0  0  0
    3.6030    1.1870    0.9010 C   0  0  0  0  0  0  0  0  0  0  0  0
    2.3110    0.7920    0.6430 C   0  0  0  0  0  0  0  0  0  0  0  0
    4.2190    2.5060    1.2750 C   0  0  0  0  0  0  0  0  0  0  0  0
    5.6620    2.3560    0.8420 C   0  0  0  0  0  0  0  0  0  0  0  0
    5.9250    0.9140    1.1470 C   0  0  0  0  0  0  0  0  0  0  0  0
   -1.7160   -3.8420   -1.6450 S   0  0  0  0  0  0  0  0  0  0  0  0
   -3.4950   -3.5670   -1.7140 C   0  0  0  0  0  0  0  0  0  0  0  0
   -4.3180   -4.4040   -2.1790 O   0  0  0  0  0  0  0  0  0  0  0  0
   -3.6350   -2.3420   -1.1810 N   0  0  0  0  0  0  0  0  0  0  0  0
   -5.0060   -1.8380   -0.8850 C   0  0  0  0  0  0  0  0  0  0  0  0
   -5.1140   -0.3950   -1.1170 C   0  0  0  0  0  0  0  0  0  0  0  0
  1  2  1  0
  2  3  2  0
  2  4  1  0
  4  5  2  0
  4 25  1  0
  5  6  1  0
  6  7  2  0
  6 23  1  0
  7  8  1  0
  7 20  1  0
  8  9  2  0
  8 10  1  0
 10 11  1  0
 11 12  2  0
 11 16  1  0
 12 13  1  0
 13 14  2  0
 14 15  1  0
 14 19  1  0
 15 16  2  0
 15 17  1  0
 17 18  1  0
 18 19  1  0
 20 21  1  0
 21 22  2  0
 21 23  1  0
 23 24  1  0
 24 25  1  0
M  END
