
     RDKit          3D

 15 16  0  0  0  0  0  0  0  0999 V2000
   -1.3740   -2.3370   -0.7250 N   0  0  0  0  0  0  0  0  0  0  0  0
   -0.7210   -1.2030   -0.0510 C   0  0  1  0  0  0  0  0  0  0  0  0
    0.6030   -1.0100   -0.7470 C   0  0  0  0  0  0  0  0  0  0  0  0
    1.6140   -0.2650    0.0430 C   0  0  1  0  0  0  0  0  0  0  0  0
    2.3480    0.5450   -0.8200 O   0  0  0  0  0  0  0  0  0  0  0  0
    3.6970    0.1870   -0.8360 C   0  0  0  0  0  0  0  0  0  0  0  0
    4.4320    0.9920   -1.6950 O   0  0  0  0  0  0  0  0  0  0  0  0
    1.0550    0.6120    1.1220 C   0  0  0  0  0  0  0  0  0  0  0  0
    0.1410    1.6510    0.4570 C   0  0  0  0  0  0  0  0  0  0  0  0
   -1.2330    1.1620    0.6130 C   0  0  1  0  0  0  0  0  0  0  0  0
   -2.2490    2.0210    0.3260 O   0  0  0  0  0  0  0  0  0  0  0  0
   -3.4020    1.2070    0.4780 C   0  0  0  0  0  0  0  0  0  0  0  0
   -2.9820   -0.1470    0.0540 C   0  0  0  0  0  0  0  0  0  0  0  0
   -3.6330   -1.1460    0.0010 O   0  0  0  0  0  0  0  0  0  0  0  0
   -1.5570   -0.0040   -0.3000 C   0  0  2  0  0  0  0  0  0  0  0  0
  2  1  1  6
  2  3  1  0
  2 15  1  0
  3  4  1  0
  4  5  1  6
  4  8  1  0
  5  6  1  0
  6  7  1  0
  8  9  1  0
 10  9  1  6
 10 11  1  0
 10 15  1  0
 11 12  1  0
 12 13  1  0
 13 14  2  0
 15 13  1  1
M  CHG  1   1   1
M  END
