
     RDKit          3D

 15 16  0  0  0  0  0  0  0  0999 V2000
   -2.3320    2.3440    0.0550 N   0  0  0  0  0  0  0  0  0  0  0  0
   -1.8180    1.1200   -0.5000 C   0  0  2  0  0  0  0  0  0  0  0  0
   -2.8610    0.1590   -0.9490 C   0  0  0  0  0  0  0  0  0  0  0  0
   -2.7850   -1.0580   -0.0350 C   0  0  2  0  0  0  0  0  0  0  0  0
   -2.1740   -0.4170    1.2190 C   0  0  0  0  0  0  0  0  0  0  0  0
   -1.0300    0.3420    0.5310 C   0  0  1  0  0  0  0  0  0  0  0  0
   -0.1520   -0.6280   -0.2230 C   0  0  1  0  0  0  0  0  0  0  0  0
    1.2520   -0.4420    0.2770 C   0  0  1  0  0  0  0  0  0  0  0  0
    1.2450   -0.7160    1.6500 O   0  0  0  0  0  0  0  0  0  0  0  0
    2.1790   -1.2420   -0.3330 O   0  0  0  0  0  0  0  0  0  0  0  0
    3.1740   -0.5880   -1.0130 C   0  0  0  0  0  0  0  0  0  0  0  0
    4.0130    0.3270   -0.1550 C   0  0  0  0  0  0  0  0  0  0  0  0
    4.9710    0.9020   -1.0220 O   0  0  0  0  0  0  0  0  0  0  0  0
   -0.6780   -2.0220   -0.0480 C   0  0  0  0  0  0  0  0  0  0  0  0
   -1.9810   -2.0470   -0.5390 O   0  0  0  0  0  0  0  0  0  0  0  0
  2  1  1  1
  2  3  1  0
  2  6  1  0
  4  3  1  6
  4  5  1  0
  4 15  1  0
  6  5  1  1
  6  7  1  0
  7  8  1  0
  7 14  1  1
  8  9  1  1
  8 10  1  0
 10 11  1  0
 11 12  1  0
 12 13  1  0
 14 15  1  0
M  CHG  1   1   1
M  END
