
     RDKit          3D

 15 16  0  0  0  0  0  0  0  0999 V2000
   -0.3440   -0.1690   -1.8550 O   0  0  0  0  0  0  0  0  0  0  0  0
   -0.6650    0.3170   -0.6020 C   0  0  1  0  0  0  0  0  0  0  0  0
   -2.1250    0.2600   -0.3310 C   0  0  0  0  0  0  0  0  0  0  0  0
   -3.1010   -0.1940   -1.0840 C   0  0  0  0  0  0  0  0  0  0  0  0
   -4.3690   -0.0530   -0.4240 N   0  0  0  0  0  0  0  0  0  0  0  0
   -4.0700    0.5360    0.8140 C   0  0  0  0  0  0  0  0  0  0  0  0
   -2.7640    0.7290    0.8920 C   0  0  0  0  0  0  0  0  0  0  0  0
    0.1230   -0.4740    0.4210 C   0  0  1  0  0  0  0  0  0  0  0  0
   -0.1540   -1.8240    0.3940 O   0  0  0  0  0  0  0  0  0  0  0  0
    1.5960   -0.3010    0.1280 C   0  0  1  0  0  0  0  0  0  0  0  0
    1.9060    1.1720    0.0320 C   0  0  0  0  0  0  0  0  0  0  0  0
    3.2630    1.4360    0.1950 O   0  0  0  0  0  0  0  0  0  0  0  0
    4.0350    0.2870    0.0750 C   0  0  0  0  0  0  0  0  0  0  0  0
    3.6800   -0.7890    1.0460 C   0  0  0  0  0  0  0  0  0  0  0  0
    2.3220   -0.9570    1.0810 O   0  0  0  0  0  0  0  0  0  0  0  0
  2  1  1  6
  2  3  1  0
  2  8  1  0
  3  4  2  0
  3  7  1  0
  4  5  1  0
  5  6  1  0
  6  7  2  0
  8  9  1  6
  8 10  1  0
 10 11  1  1
 10 15  1  0
 11 12  1  0
 12 13  1  0
 13 14  1  0
 14 15  1  0
M  CHG  1   5   1
M  END
