
     RDKit          3D

 15 16  0  0  0  0  0  0  0  0999 V2000
    3.5600    1.2910   -0.6200 N   0  0  0  0  0  0  0  0  0  0  0  0
    2.4070    0.8170   -1.3470 C   0  0  0  0  0  0  0  0  0  0  0  0
    1.2980    0.4090   -0.4210 C   0  0  2  0  0  0  0  0  0  0  0  0
    1.7040   -0.7350    0.4910 C   0  0  0  0  0  0  0  0  0  0  0  0
    0.3560   -1.0350    1.1180 C   0  0  0  0  0  0  0  0  0  0  0  0
   -0.6650   -0.7100    0.0280 C   0  0  2  0  0  0  0  0  0  0  0  0
   -1.4560   -1.9470   -0.2180 C   0  0  0  0  0  0  0  0  0  0  0  0
   -0.5700   -2.9680   -0.6370 O   0  0  0  0  0  0  0  0  0  0  0  0
    0.1670   -0.2920   -1.1780 C   0  0  0  0  0  0  0  0  0  0  0  0
   -1.4130    0.4910    0.4540 C   0  0  2  0  0  0  0  0  0  0  0  0
   -1.7350    0.4110    1.8220 O   0  0  0  0  0  0  0  0  0  0  0  0
   -2.6670    0.7960   -0.3110 C   0  0  0  0  0  0  0  0  0  0  0  0
   -3.6700   -0.1240   -0.1830 O   0  0  0  0  0  0  0  0  0  0  0  0
   -0.4970    1.7070    0.2640 C   0  0  0  0  0  0  0  0  0  0  0  0
    0.8340    1.4020    0.3870 O   0  0  0  0  0  0  0  0  0  0  0  0
  1  2  1  0
  3  2  1  6
  3  4  1  0
  3  9  1  0
  3 15  1  0
  4  5  1  0
  5  6  1  0
  6  7  1  6
  6  9  1  0
  6 10  1  0
  7  8  1  0
 10 11  1  1
 10 12  1  0
 10 14  1  0
 12 13  1  0
 14 15  1  0
M  CHG  1   1   1
M  END
