
     RDKit          3D

 16 16  0  0  0  0  0  0  0  0999 V2000
    3.8980    1.2150    0.1500 O   0  0  0  0  0  0  0  0  0  0  0  0
    4.2860   -0.0460   -0.2990 C   0  0  0  0  0  0  0  0  0  0  0  0
    3.6020   -1.1530    0.4430 C   0  0  0  0  0  0  0  0  0  0  0  0
    2.1700   -1.1580    0.3620 N   0  0  1  0  0  0  0  0  0  0  0  0
    1.6350   -0.5550    1.5460 C   0  0  0  0  0  0  0  0  0  0  0  0
    0.1680   -0.2670    1.4710 C   0  0  0  0  0  0  0  0  0  0  0  0
   -0.0430    0.5620    0.2710 N   0  0  2  0  0  0  0  0  0  0  0  0
   -1.1640    1.3890    0.3160 C   0  0  0  0  0  0  0  0  0  0  0  0
   -2.1130    1.5200   -0.7780 C   0  0  0  0  0  0  0  0  0  0  0  0
   -2.8910    0.3500   -1.2550 C   0  0  0  0  0  0  0  0  0  0  0  0
   -3.9690   -0.4310   -0.2460 S   0  0  2  0  0  0  0  0  0  0  0  0
   -5.0800    0.7660    0.2090 O   0  0  0  0  0  0  0  0  0  0  0  0
   -2.9930   -0.5670    1.3160 O   0  0  0  0  0  0  0  0  0  0  0  0
   -4.4640   -1.7310   -0.5000 O   0  0  0  0  0  0  0  0  0  0  0  0
    0.2120   -0.2760   -0.8420 C   0  0  0  0  0  0  0  0  0  0  0  0
    1.6960   -0.6470   -0.8630 C   0  0  0  0  0  0  0  0  0  0  0  0
  1  2  1  0
  2  3  1  0
  4  3  1  6
  4  5  1  0
  4 16  1  0
  5  6  1  0
  6  7  1  0
  7  8  1  6
  7 15  1  0
  8  9  1  0
  9 10  1  0
 10 11  1  0
 11 12  1  1
 11 13  1  0
 11 14  1  0
 15 16  1  0
M  CHG  2   4   1   7   1
M  END
