
     RDKit          3D

 16 16  0  0  0  0  0  0  0  0999 V2000
   -0.3060    0.1700    1.7700 C   0  0  0  0  0  0  0  0  0  0  0  0
   -0.3220    0.2540    0.2320 C   0  0  2  0  0  0  0  0  0  0  0  0
   -1.6780   -0.0130   -0.3530 C   0  0  1  0  0  0  0  0  0  0  0  0
   -1.6090   -0.0860   -1.8260 N   0  0  0  0  0  0  0  0  0  0  0  0
   -2.3970   -1.2310    0.0710 C   0  0  0  0  0  0  0  0  0  0  0  0
   -2.7360   -1.3880    1.4410 N   0  0  0  0  0  0  0  0  0  0  0  0
    0.4870   -0.7810   -0.1640 O   0  0  0  0  0  0  0  0  0  0  0  0
    1.5950   -0.5840   -0.8690 C   0  0  2  0  0  0  0  0  0  0  0  0
    2.7540   -1.2970   -0.1660 C   0  0  0  0  0  0  0  0  0  0  0  0
    2.9650   -0.8350    1.1080 O   0  0  0  0  0  0  0  0  0  0  0  0
    3.9640   -1.4840    1.6480 O   0  0  0  0  0  0  0  0  0  0  0  0
    2.0100    0.7100   -1.0910 O   0  0  0  0  0  0  0  0  0  0  0  0
    1.7080    1.5860   -0.0880 C   0  0  0  0  0  0  0  0  0  0  0  0
    0.1790    1.6330   -0.0140 C   0  0  1  0  0  0  0  0  0  0  0  0
   -0.2910    2.3560   -1.2110 C   0  0  0  0  0  0  0  0  0  0  0  0
    0.5270    3.9720   -1.1590 Cl  0  0  0  0  0  0  0  0  0  0  0  0
  2  1  1  1
  2  3  1  0
  2  7  1  0
  2 14  1  0
  3  4  1  6
  3  5  1  0
  5  6  1  0
  7  8  1  0
  8  9  1  1
  8 12  1  0
  9 10  1  0
 10 11  1  0
 12 13  1  0
 13 14  1  0
 14 15  1  6
 15 16  1  0
M  CHG  2   4   1   6   1
M  END
