
     RDKit          3D

 16 15  0  0  0  0  0  0  0  0999 V2000
   -3.4100   -0.6920    1.6920 C   0  0  0  0  0  0  0  0  0  0  0  0
   -3.4420    0.2910    0.5520 C   0  0  2  0  0  0  0  0  0  0  0  0
   -3.8090   -0.3890   -0.7590 C   0  0  0  0  0  0  0  0  0  0  0  0
   -5.0990   -0.9980   -0.6710 N   0  0  0  0  0  0  0  0  0  0  0  0
   -2.1750    1.0560    0.4190 C   0  0  0  0  0  0  0  0  0  0  0  0
   -2.1440    2.3250    0.5120 O   0  0  0  0  0  0  0  0  0  0  0  0
   -0.9620    0.4460    0.1890 O   0  0  0  0  0  0  0  0  0  0  0  0
    0.2650    1.1020    0.0540 C   0  0  2  0  0  0  0  0  0  0  0  0
    0.5930    1.8900    1.3250 C   0  0  0  0  0  0  0  0  0  0  0  0
    0.3000    2.2250   -1.3110 Cl  0  0  0  0  0  0  0  0  0  0  0  0
    1.3190    0.0530   -0.1180 C   0  0  0  0  0  0  0  0  0  0  0  0
    1.0380   -1.1830   -0.1240 O   0  0  0  0  0  0  0  0  0  0  0  0
    2.6590    0.3840   -0.2780 O   0  0  0  0  0  0  0  0  0  0  0  0
    3.6340   -0.6540   -0.4390 C   0  0  0  0  0  0  0  0  0  0  0  0
    4.9710    0.0410   -0.5870 C   0  0  0  0  0  0  0  0  0  0  0  0
    5.9750   -1.0050   -0.7520 N   0  0  0  0  0  0  0  0  0  0  0  0
  2  1  1  1
  2  3  1  0
  2  5  1  0
  3  4  1  0
  5  6  2  0
  5  7  1  0
  7  8  1  0
  8  9  1  1
  8 10  1  0
  8 11  1  0
 11 12  2  0
 11 13  1  0
 13 14  1  0
 14 15  1  0
 15 16  1  0
M  CHG  2   4   1  16   1
M  END
