
     RDKit          3D

 16 15  0  0  0  0  0  0  0  0999 V2000
    0.6270   -1.4720    0.4720 C   0  0  0  0  0  0  0  0  0  0  0  0
    0.8170   -0.0670    0.7030 N   0  0  2  0  0  0  0  0  0  0  0  0
   -0.3500    0.7200    0.3730 C   0  0  0  0  0  0  0  0  0  0  0  0
   -1.6050   -0.0170    0.3940 C   0  0  0  0  0  0  0  0  0  0  0  0
   -2.1220   -0.6640    1.5120 O   0  0  0  0  0  0  0  0  0  0  0  0
   -2.3230   -0.0910   -0.7130 C   0  0  0  0  0  0  0  0  0  0  0  0
   -3.6190   -0.8180   -0.8030 C   0  0  2  0  0  0  0  0  0  0  0  0
   -3.9100   -1.3780   -2.4590 Cl  0  0  0  0  0  0  0  0  0  0  0  0
   -4.7770    0.0340   -0.3280 C   0  0  0  0  0  0  0  0  0  0  0  0
   -4.5820    0.4050    0.9990 O   0  0  0  0  0  0  0  0  0  0  0  0
    1.9490    0.5060    0.0680 C   0  0  2  0  0  0  0  0  0  0  0  0
    2.6560   -0.3530   -0.9290 C   0  0  0  0  0  0  0  0  0  0  0  0
    1.8450   -0.7700   -2.0360 N   0  0  0  0  0  0  0  0  0  0  0  0
    3.0110    0.9430    1.0910 C   0  0  0  0  0  0  0  0  0  0  0  0
    4.0840    1.4920    0.3890 O   0  0  0  0  0  0  0  0  0  0  0  0
    5.0110    1.8770    1.2280 O   0  0  0  0  0  0  0  0  0  0  0  0
  2  1  1  6
  2  3  1  0
  2 11  1  0
  3  4  1  0
  4  5  1  0
  4  6  2  3
  6  7  1  0
  7  8  1  6
  7  9  1  0
  9 10  1  0
 11 12  1  6
 11 14  1  0
 12 13  1  0
 14 15  1  0
 15 16  1  0
M  CHG  2   2   1  13   1
M  END
