
     RDKit          3D

 19 20  0  0  0  0  0  0  0  0999 V2000
   -5.1180    0.8110    1.6040 C   0  0  0  0  0  0  0  0  0  0  0  0
   -4.9210    0.5540    0.1440 C   0  0  0  0  0  0  0  0  0  0  0  0
   -3.5050    0.4490   -0.2180 N   0  0  0  0  0  0  0  0  0  0  0  0
   -2.7070   -0.5500    0.3730 C   0  0  0  0  0  0  0  0  0  0  0  0
   -3.3050   -1.3320    1.2260 O   0  0  0  0  0  0  0  0  0  0  0  0
   -1.2880   -0.7770    0.1130 C   0  0  0  0  0  0  0  0  0  0  0  0
   -0.6540   -0.0230   -0.7270 C   0  0  0  0  0  0  0  0  0  0  0  0
   -1.0600    1.0910   -1.5450 N   0  0  0  0  0  0  0  0  0  0  0  0
   -0.1020    1.5190   -2.2100 N   0  0  0  0  0  0  0  0  0  0  0  0
    1.0810    0.7920   -1.9630 C   0  0  0  0  0  0  0  0  0  0  0  0
    0.7820   -0.1460   -1.0670 C   0  0  0  0  0  0  0  0  0  0  0  0
    1.5990   -1.1460   -0.4640 C   0  0  0  0  0  0  0  0  0  0  0  0
    2.8540   -1.0890   -0.1540 C   0  0  0  0  0  0  0  0  0  0  0  0
    3.6960    0.0250   -0.3510 N   0  0  0  0  0  0  0  0  0  0  0  0
    5.0890   -0.0580    0.0360 C   0  0  0  0  0  0  0  0  0  0  0  0
    6.0010    1.1190   -0.1660 C   0  0  0  0  0  0  0  0  0  0  0  0
    5.4890   -1.1240    0.5330 O   0  0  0  0  0  0  0  0  0  0  0  0
    0.7100   -2.6750    0.0360 S   0  0  0  0  0  0  0  0  0  0  0  0
   -0.7410   -1.9420    0.8710 C   0  0  0  0  0  0  0  0  0  0  0  0
  1  2  1  0
  2  3  1  0
  3  4  1  0
  4  5  2  0
  4  6  1  0
  6  7  2  0
  6 19  1  0
  7  8  1  0
  7 11  1  0
  8  9  2  0
  9 10  1  0
 10 11  2  0
 11 12  1  0
 12 13  2  3
 12 18  1  0
 13 14  1  0
 14 15  1  0
 15 16  1  0
 15 17  2  0
 18 19  1  0
M  END
