
     RDKit          3D

 18 19  0  0  0  0  0  0  0  0999 V2000
    5.0640    0.9460    0.0090 O   0  0  0  0  0  0  0  0  0  0  0  0
    4.9070   -0.1920   -0.5510 C   0  0  0  0  0  0  0  0  0  0  0  0
    5.9840   -0.9420   -0.9920 O   0  0  0  0  0  0  0  0  0  0  0  0
    3.5850   -0.6980   -0.7230 N   0  0  0  0  0  0  0  0  0  0  0  0
    2.4390    0.0060   -0.3010 C   0  0  0  0  0  0  0  0  0  0  0  0
    2.5650    1.1230    0.2500 O   0  0  0  0  0  0  0  0  0  0  0  0
    1.1000   -0.6180   -0.5310 C   0  0  0  0  0  0  0  0  0  0  0  0
    1.0380   -1.7200   -1.0780 O   0  0  0  0  0  0  0  0  0  0  0  0
   -0.0460    0.0670   -0.1180 N   0  0  0  0  0  0  0  0  0  0  0  0
   -1.4090   -0.3810   -0.2590 C   0  0  0  0  0  0  0  0  0  0  0  0
   -2.4210    0.3540    0.1710 C   0  0  0  0  0  0  0  0  0  0  0  0
   -2.6520    1.6520    0.8350 C   0  0  0  0  0  0  0  0  0  0  0  0
   -3.9580    1.7750    0.9760 C   0  0  0  0  0  0  0  0  0  0  0  0
   -4.6310    0.6100    0.4340 C   0  0  0  0  0  0  0  0  0  0  0  0
   -3.7100   -0.1890   -0.0220 C   0  0  0  0  0  0  0  0  0  0  0  0
   -3.5420   -1.7580   -0.8170 S   0  0  0  0  0  0  0  0  0  0  0  0
   -1.7280   -1.6310   -0.8640 C   0  0  0  0  0  0  0  0  0  0  0  0
   -1.0970   -2.5790   -1.3770 O   0  0  0  0  0  0  0  0  0  0  0  0
  1  2  2  0
  2  3  1  0
  2  4  1  0
  4  5  1  0
  5  6  2  0
  5  7  1  0
  7  8  2  0
  7  9  1  0
  9 10  1  0
 10 11  2  0
 10 17  1  0
 11 12  1  0
 11 15  1  0
 12 13  2  0
 13 14  1  0
 14 15  2  0
 15 16  1  0
 16 17  1  0
 17 18  2  0
M  END
