
     RDKit          3D

 13 13  0  0  0  0  0  0  0  0999 V2000
   -4.2450   -0.0980   -1.0700 C   0  0  0  0  0  0  0  0  0  0  0  0
   -4.0460    0.3220    0.3720 C   0  0  0  0  0  0  0  0  0  0  0  0
   -2.6760   -0.2260    0.7870 C   0  0  0  0  0  0  0  0  0  0  0  0
   -1.7350    0.3640   -0.0840 O   0  0  0  0  0  0  0  0  0  0  0  0
   -0.4020    0.0510    0.0570 C   0  0  0  0  0  0  0  0  0  0  0  0
   -0.0040   -0.8260    1.0370 C   0  0  0  0  0  0  0  0  0  0  0  0
    1.3440   -1.1120    1.1420 C   0  0  0  0  0  0  0  0  0  0  0  0
    2.2710   -0.5330    0.2860 C   0  0  0  0  0  0  0  0  0  0  0  0
    3.7200   -0.8420    0.4020 C   0  0  0  0  0  0  0  0  0  0  0  0
    4.4920   -0.1240   -0.5920 N   0  0  0  0  0  0  0  0  0  0  0  0
    1.8700    0.3450   -0.6950 C   0  0  0  0  0  0  0  0  0  0  0  0
    0.5130    0.6270   -0.7930 C   0  0  0  0  0  0  0  0  0  0  0  0
    0.0090    1.7340   -2.0300 Cl  0  0  0  0  0  0  0  0  0  0  0  0
  1  2  1  0
  2  3  1  0
  3  4  1  0
  4  5  1  0
  5  6  2  0
  5 12  1  0
  6  7  1  0
  7  8  2  0
  8  9  1  0
  8 11  1  0
  9 10  1  0
 11 12  2  0
 12 13  1  0
M  CHG  1  10   1
M  END
