
     RDKit          3D

 23 23  0  0  0  0  0  0  0  0999 V2000
   -4.5730   -0.7570   -1.3050 C   0  0  0  0  0  0  0  0  0  0  0  0
   -3.2310   -0.0730   -1.2000 C   0  0  1  0  0  0  0  0  0  0  0  0
   -3.2890    1.1530   -0.3170 C   0  0  0  0  0  0  0  0  0  0  0  0
   -2.6180    2.2170   -0.8920 O   0  0  0  0  0  0  0  0  0  0  0  0
   -1.3790    2.7280   -0.6600 C   0  0  0  0  0  0  0  0  0  0  0  0
   -1.1090    3.8780   -0.2130 O   0  0  0  0  0  0  0  0  0  0  0  0
   -0.1900    1.8790   -0.9490 C   0  0  0  0  0  0  0  0  0  0  0  0
    0.2050    1.2160    0.3460 C   0  0  2  0  0  0  0  0  0  0  0  0
    0.6160    2.2150    1.2260 O   0  0  0  0  0  0  0  0  0  0  0  0
    1.3150    0.2070    0.1700 C   0  0  1  0  0  0  0  0  0  0  0  0
    1.3400   -0.2930   -1.1420 O   0  0  0  0  0  0  0  0  0  0  0  0
    2.6010    0.9130    0.4900 C   0  0  0  0  0  0  0  0  0  0  0  0
    3.8170    0.0660    0.3690 C   0  0  1  0  0  0  0  0  0  0  0  0
    4.9200    0.8850    0.7030 O   0  0  0  0  0  0  0  0  0  0  0  0
    3.8200   -0.9510    1.3450 O   0  0  0  0  0  0  0  0  0  0  0  0
    4.0480   -0.4200   -0.8960 O   0  0  0  0  0  0  0  0  0  0  0  0
    5.1380   -1.1490   -0.8890 O   0  0  0  0  0  0  0  0  0  0  0  0
    1.0140   -0.9340    1.1020 C   0  0  2  0  0  0  0  0  0  0  0  0
    1.5650   -2.1350    0.6760 O   0  0  0  0  0  0  0  0  0  0  0  0
   -0.3400   -1.0510    1.3980 O   0  0  0  0  0  0  0  0  0  0  0  0
   -0.9900   -2.0680    0.7510 C   0  0  0  0  0  0  0  0  0  0  0  0
   -2.3940   -1.6510    0.2840 C   0  0  0  0  0  0  0  0  0  0  0  0
   -2.2120   -0.9320   -0.8740 O   0  0  0  0  0  0  0  0  0  0  0  0
  2  1  1  1
  2  3  1  0
  2 23  1  0
  3  4  1  0
  4  5  1  0
  5  6  2  0
  5  7  1  0
  7  8  1  0
  8  9  1  1
  8 10  1  0
 10 11  1  6
 10 12  1  0
 10 18  1  0
 12 13  1  0
 13 14  1  1
 13 15  1  0
 13 16  1  0
 16 17  1  0
 18 19  1  6
 18 20  1  0
 20 21  1  0
 21 22  1  0
 22 23  1  0
M  END
