
     RDKit          3D

 19 20  0  0  0  0  0  0  0  0999 V2000
    4.7710    0.4890   -1.6950 C   0  0  0  0  0  0  0  0  0  0  0  0
    4.4030   -0.0050   -0.4010 N   0  0  0  0  0  0  0  0  0  0  0  0
    3.7400    0.6550    0.4710 C   0  0  0  0  0  0  0  0  0  0  0  0
    3.3090    1.9750    0.1960 N   0  0  0  0  0  0  0  0  0  0  0  0
    2.0840    2.3070    0.0440 C   0  0  0  0  0  0  0  0  0  0  0  0
    1.0670    1.2440    0.1650 C   0  0  0  0  0  0  0  0  0  0  0  0
   -0.2740    1.5450    0.0110 C   0  0  0  0  0  0  0  0  0  0  0  0
   -1.2620    0.6080    0.1110 C   0  0  0  0  0  0  0  0  0  0  0  0
   -2.6410    0.8530   -0.0360 N   0  0  0  0  0  0  0  0  0  0  0  0
   -3.2250    2.1010   -0.3090 C   0  0  0  0  0  0  0  0  0  0  0  0
   -4.7210    2.2040   -0.4390 C   0  0  0  0  0  0  0  0  0  0  0  0
   -2.5830    3.1530   -0.4560 O   0  0  0  0  0  0  0  0  0  0  0  0
   -0.8650   -0.6980    0.3810 C   0  0  0  0  0  0  0  0  0  0  0  0
   -1.5410   -1.8620    0.5450 N   0  0  0  0  0  0  0  0  0  0  0  0
   -0.6560   -2.8420    0.7910 C   0  0  0  0  0  0  0  0  0  0  0  0
   -0.9610   -4.2740    1.0330 C   0  0  0  0  0  0  0  0  0  0  0  0
    0.6280   -2.3380    0.7930 C   0  0  0  0  0  0  0  0  0  0  0  0
    0.5510   -0.9670    0.5350 C   0  0  0  0  0  0  0  0  0  0  0  0
    1.4070    0.0100    0.4180 O   0  0  0  0  0  0  0  0  0  0  0  0
  1  2  1  0
  2  3  2  3
  3  4  1  0
  4  5  2  3
  5  6  1  0
  6  7  2  0
  6 19  1  0
  7  8  1  0
  8  9  1  0
  8 13  2  0
  9 10  1  0
 10 11  1  0
 10 12  2  0
 13 14  1  0
 13 18  1  0
 14 15  2  0
 15 16  1  0
 15 17  1  0
 17 18  2  0
 18 19  1  0
M  CHG  1  14   1
M  END
