
     RDKit          3D

 19 21  0  0  0  0  0  0  0  0999 V2000
    1.0940    2.2630   -0.2750 O   0  0  0  0  0  0  0  0  0  0  0  0
    1.4900    1.0530   -0.1700 C   0  0  0  0  0  0  0  0  0  0  0  0
    0.4640    0.0300   -0.1150 C   0  0  0  0  0  0  0  0  0  0  0  0
    0.7610   -1.2710   -0.0040 N   0  0  0  0  0  0  0  0  0  0  0  0
   -0.1550   -2.2490    0.0500 C   0  0  0  0  0  0  0  0  0  0  0  0
   -1.5030   -1.9050   -0.0110 C   0  0  0  0  0  0  0  0  0  0  0  0
   -1.8360   -0.5760   -0.1240 C   0  0  0  0  0  0  0  0  0  0  0  0
   -3.2180   -0.1160   -0.1950 C   0  0  0  0  0  0  0  0  0  0  0  0
   -3.6940    1.0970   -0.3030 C   0  0  0  0  0  0  0  0  0  0  0  0
   -5.2000    1.0380   -0.3360 C   0  0  0  0  0  0  0  0  0  0  0  0
   -5.4190   -0.2000    0.4250 N   0  0  0  0  0  0  0  0  0  0  0  0
   -4.3820   -1.0320   -0.1550 C   0  0  0  0  0  0  0  0  0  0  0  0
   -0.8540    0.3330   -0.1710 N   0  0  0  0  0  0  0  0  0  0  0  0
    2.8490    0.7080   -0.1090 N   0  0  0  0  0  0  0  0  0  0  0  0
    3.8590    1.7420   -0.1630 C   0  0  0  0  0  0  0  0  0  0  0  0
    5.0040    1.4880    0.7740 C   0  0  0  0  0  0  0  0  0  0  0  0
    5.1530    0.1570    1.1130 O   0  0  0  0  0  0  0  0  0  0  0  0
    4.7640   -0.7100    0.1030 C   0  0  0  0  0  0  0  0  0  0  0  0
    3.2470   -0.6690    0.0080 C   0  0  0  0  0  0  0  0  0  0  0  0
  1  2  2  0
  2  3  1  0
  2 14  1  0
  3  4  2  0
  3 13  1  0
  4  5  1  0
  5  6  2  0
  6  7  1  0
  7  8  1  0
  7 13  2  0
  8  9  2  0
  8 12  1  0
  9 10  1  0
 10 11  1  0
 11 12  1  0
 14 15  1  0
 14 19  1  0
 15 16  1  0
 16 17  1  0
 17 18  1  0
 18 19  1  0
M  CHG  1  11   1
M  END
