
     RDKit          3D

 19 21  0  0  0  0  0  0  0  0999 V2000
    6.5920    1.2220    0.7080 C   0  0  0  0  0  0  0  0  0  0  0  0
    5.3460    0.9300   -0.0640 C   0  0  0  0  0  0  0  0  0  0  0  0
    5.3280    0.5440   -1.3390 N   0  0  0  0  0  0  0  0  0  0  0  0
    4.0550    0.3710   -1.7160 N   0  0  0  0  0  0  0  0  0  0  0  0
    3.2820    0.6590   -0.6450 C   0  0  0  0  0  0  0  0  0  0  0  0
    1.8110    0.6200   -0.5480 C   0  0  0  0  0  0  0  0  0  0  0  0
    1.3350   -0.7080   -0.1150 C   0  0  0  0  0  0  0  0  0  0  0  0
    2.1990   -1.5910    0.1040 O   0  0  0  0  0  0  0  0  0  0  0  0
   -0.0720   -0.9720    0.0480 N   0  0  0  0  0  0  0  0  0  0  0  0
   -1.1490   -0.0820   -0.1610 C   0  0  0  0  0  0  0  0  0  0  0  0
   -2.3060   -0.6670    0.0850 C   0  0  0  0  0  0  0  0  0  0  0  0
   -3.7680   -0.4370    0.1000 C   0  0  0  0  0  0  0  0  0  0  0  0
   -4.4110    0.8470   -0.2540 C   0  0  0  0  0  0  0  0  0  0  0  0
   -3.9760    1.9240    0.6120 N   0  0  0  0  0  0  0  0  0  0  0  0
   -4.3040   -1.5840    0.4820 C   0  0  0  0  0  0  0  0  0  0  0  0
   -3.2610   -2.5730    0.7220 C   0  0  0  0  0  0  0  0  0  0  0  0
   -2.0570   -2.0380    0.4890 C   0  0  0  0  0  0  0  0  0  0  0  0
   -0.5960   -2.2410    0.4660 C   0  0  0  0  0  0  0  0  0  0  0  0
    4.1070    0.9900    0.3240 O   0  0  0  0  0  0  0  0  0  0  0  0
  1  2  1  0
  2  3  2  0
  2 19  1  0
  3  4  1  0
  4  5  2  0
  5  6  1  0
  5 19  1  0
  6  7  1  0
  7  8  2  0
  7  9  1  0
  9 10  1  0
  9 18  1  0
 10 11  2  0
 11 12  1  0
 11 17  1  0
 12 13  1  0
 12 15  2  0
 13 14  1  0
 15 16  1  0
 16 17  2  0
 17 18  1  0
M  CHG  1  14   1
M  END
