
     RDKit          3D

 19 21  0  0  0  0  0  0  0  0999 V2000
   -1.5010   -1.1650   -1.0680 C   0  0  0  0  0  0  0  0  0  0  0  0
   -1.3230   -0.8660    0.3940 C   0  0  1  0  0  0  0  0  0  0  0  0
   -0.0900   -0.0870    0.5900 C   0  0  0  0  0  0  0  0  0  0  0  0
   -0.1750    0.9960    1.2350 O   0  0  0  0  0  0  0  0  0  0  0  0
    1.1820   -0.4570    0.1110 N   0  0  0  0  0  0  0  0  0  0  0  0
    2.3540    0.3160    0.3180 C   0  0  0  0  0  0  0  0  0  0  0  0
    2.4020    1.4790    0.9820 N   0  0  0  0  0  0  0  0  0  0  0  0
    3.6380    1.9550    1.0030 N   0  0  0  0  0  0  0  0  0  0  0  0
    4.4520    1.1230    0.3540 C   0  0  0  0  0  0  0  0  0  0  0  0
    3.6450    0.0690   -0.0900 C   0  0  0  0  0  0  0  0  0  0  0  0
    4.3990   -0.7950   -0.7440 C   0  0  0  0  0  0  0  0  0  0  0  0
    5.7940   -0.3150   -0.7530 C   0  0  0  0  0  0  0  0  0  0  0  0
    5.7010    0.9430   -0.0070 C   0  0  0  0  0  0  0  0  0  0  0  0
   -2.4730   -0.2690    0.9900 N   0  0  0  0  0  0  0  0  0  0  0  0
   -3.6440   -1.0740    0.9890 C   0  0  0  0  0  0  0  0  0  0  0  0
   -4.6130   -0.8360   -0.1170 C   0  0  0  0  0  0  0  0  0  0  0  0
   -4.5540    0.4450   -0.6470 O   0  0  0  0  0  0  0  0  0  0  0  0
   -4.1440    1.3810    0.2980 C   0  0  0  0  0  0  0  0  0  0  0  0
   -2.6980    1.0910    0.6250 C   0  0  0  0  0  0  0  0  0  0  0  0
  2  1  1  6
  2  3  1  0
  2 14  1  0
  3  4  2  0
  3  5  1  0
  5  6  1  0
  6  7  2  0
  6 10  1  0
  7  8  1  0
  8  9  1  0
  9 10  1  0
  9 13  2  0
 10 11  2  0
 11 12  1  0
 12 13  1  0
 14 15  1  0
 14 19  1  0
 15 16  1  0
 16 17  1  0
 17 18  1  0
 18 19  1  0
M  END
