
     RDKit          3D

  9  9  0  0  0  0  0  0  0  0999 V2000
   -2.8480   -0.1200    0.7210 C   0  0  0  0  0  0  0  0  0  0  0  0
   -1.7730   -0.6360   -0.1790 C   0  0  0  0  0  0  0  0  0  0  0  0
   -0.3730   -0.3420    0.3620 C   0  0  1  0  0  0  0  0  0  0  0  0
   -0.2060   -0.9320    1.5920 O   0  0  0  0  0  0  0  0  0  0  0  0
    0.5830   -0.9360   -0.6560 C   0  0  0  0  0  0  0  0  0  0  0  0
    2.0170   -0.8180   -0.2550 C   0  0  0  0  0  0  0  0  0  0  0  0
    2.3110    0.4870    0.4470 C   0  0  0  0  0  0  0  0  0  0  0  0
    1.2970    1.5040    0.0180 C   0  0  0  0  0  0  0  0  0  0  0  0
   -0.1040    1.1450    0.3840 C   0  0  0  0  0  0  0  0  0  0  0  0
  1  2  1  0
  2  3  1  0
  3  4  1  1
  3  5  1  0
  3  9  1  0
  5  6  1  0
  6  7  1  0
  7  8  1  0
  8  9  1  0
M  END
