
     RDKit          3D

  9  9  0  0  0  0  0  0  0  0999 V2000
   -2.6780   -0.5850    0.0820 C   0  0  0  0  0  0  0  0  0  0  0  0
   -1.5970    0.4560    0.2610 C   0  0  1  0  0  0  0  0  0  0  0  0
   -0.6720    0.1160    1.4170 C   0  0  0  0  0  0  0  0  0  0  0  0
    0.7360    0.5080    0.9500 C   0  0  0  0  0  0  0  0  0  0  0  0
    1.1420   -0.5170   -0.0700 C   0  0  2  0  0  0  0  0  0  0  0  0
    2.5860   -0.4120   -0.4580 C   0  0  0  0  0  0  0  0  0  0  0  0
    2.8920    0.8210   -1.0060 O   0  0  0  0  0  0  0  0  0  0  0  0
    0.2200   -0.4010   -1.2470 C   0  0  0  0  0  0  0  0  0  0  0  0
   -0.8750    0.6180   -1.0370 C   0  0  0  0  0  0  0  0  0  0  0  0
  2  1  1  6
  2  3  1  0
  2  9  1  0
  3  4  1  0
  4  5  1  0
  5  6  1  6
  5  8  1  0
  6  7  1  0
  8  9  1  0
M  END
