
     RDKit          3D

  9  9  0  0  0  0  0  0  0  0999 V2000
    0.3810   -1.7380   -0.2900 C   0  0  0  0  0  0  0  0  0  0  0  0
   -0.0440   -0.3880    0.2720 C   0  0  1  0  0  0  0  0  0  0  0  0
    1.1250    0.1630    1.0380 C   0  0  0  0  0  0  0  0  0  0  0  0
    2.2780    0.2960    0.0320 C   0  0  0  0  0  0  0  0  0  0  0  0
    3.4140    0.8040    0.6570 O   0  0  0  0  0  0  0  0  0  0  0  0
   -0.4290    0.5850   -0.7990 C   0  0  0  0  0  0  0  0  0  0  0  0
   -1.9190    0.8490   -0.6260 C   0  0  0  0  0  0  0  0  0  0  0  0
   -2.1870    0.5830    0.8500 C   0  0  0  0  0  0  0  0  0  0  0  0
   -1.2680   -0.5880    1.1110 C   0  0  0  0  0  0  0  0  0  0  0  0
  2  1  1  6
  2  3  1  0
  2  6  1  0
  2  9  1  0
  3  4  1  0
  4  5  1  0
  6  7  1  0
  7  8  1  0
  8  9  1  0
M  END
