
     RDKit          3D

  9  9  0  0  0  0  0  0  0  0999 V2000
    2.9600    0.6090   -1.5040 O   0  0  0  0  0  0  0  0  0  0  0  0
    2.7970    0.0530   -0.2690 C   0  0  0  0  0  0  0  0  0  0  0  0
    1.6010   -0.8300   -0.1230 C   0  0  0  0  0  0  0  0  0  0  0  0
    0.2890   -0.2090   -0.3630 C   0  0  2  0  0  0  0  0  0  0  0  0
   -0.0420    0.9400    0.5460 C   0  0  0  0  0  0  0  0  0  0  0  0
   -1.4600    1.3780    0.4650 C   0  0  0  0  0  0  0  0  0  0  0  0
   -2.4670    0.3060    0.3190 C   0  0  0  0  0  0  0  0  0  0  0  0
   -1.8420   -1.0160    0.6960 C   0  0  0  0  0  0  0  0  0  0  0  0
   -0.7640   -1.3050   -0.3200 C   0  0  0  0  0  0  0  0  0  0  0  0
  1  2  1  0
  2  3  1  0
  4  3  1  1
  4  5  1  0
  4  9  1  0
  5  6  1  0
  6  7  1  0
  7  8  1  0
  8  9  1  0
M  END
