
     RDKit          3D

  8  8  0  0  0  0  0  0  0  0999 V2000
    2.4640    0.6140    0.2900 C   0  0  0  0  0  0  0  0  0  0  0  0
    1.4810    0.2180   -0.7920 C   0  0  0  0  0  0  0  0  0  0  0  0
    0.2080   -0.2200   -0.1210 C   0  0  2  0  0  0  0  0  0  0  0  0
    0.3690   -1.2860    0.7210 O   0  0  0  0  0  0  0  0  0  0  0  0
   -0.8770   -0.5570   -1.1300 C   0  0  0  0  0  0  0  0  0  0  0  0
   -2.0930   -0.6680   -0.2190 C   0  0  0  0  0  0  0  0  0  0  0  0
   -1.8030    0.2520    0.9520 C   0  0  0  0  0  0  0  0  0  0  0  0
   -0.4610    0.9010    0.6410 C   0  0  0  0  0  0  0  0  0  0  0  0
  1  2  1  0
  2  3  1  0
  3  4  1  1
  3  5  1  0
  3  8  1  0
  5  6  1  0
  6  7  1  0
  7  8  1  0
M  END
