
     RDKit          3D

  9  9  0  0  0  0  0  0  0  0999 V2000
   -2.5500   -0.1110   -0.2480 C   0  0  0  0  0  0  0  0  0  0  0  0
   -1.0690    0.0110    0.1620 C   0  0  2  0  0  0  0  0  0  0  0  0
   -1.1490    0.2530    1.5560 O   0  0  0  0  0  0  0  0  0  0  0  0
   -0.5280    1.1780   -0.5700 C   0  0  0  0  0  0  0  0  0  0  0  0
    0.9080    1.4540   -0.4350 C   0  0  0  0  0  0  0  0  0  0  0  0
    1.6000    0.8320    0.7280 C   0  0  0  0  0  0  0  0  0  0  0  0
    1.9290   -0.5930    0.4330 C   0  0  0  0  0  0  0  0  0  0  0  0
    0.9990   -1.2390   -0.5510 C   0  0  0  0  0  0  0  0  0  0  0  0
   -0.4250   -1.2900   -0.1150 C   0  0  0  0  0  0  0  0  0  0  0  0
  2  1  1  6
  2  3  1  0
  2  4  1  0
  2  9  1  0
  4  5  1  0
  5  6  1  0
  6  7  1  0
  7  8  1  0
  8  9  1  0
M  END
