
     RDKit          3D

  9  9  0  0  0  0  0  0  0  0999 V2000
    4.0980    0.7190   -0.1600 O   0  0  0  0  0  0  0  0  0  0  0  0
    3.3260   -0.0320    0.7290 C   0  0  0  0  0  0  0  0  0  0  0  0
    2.0090   -0.2860    0.1030 C   0  0  0  0  0  0  0  0  0  0  0  0
    0.8970    0.1440    0.6870 C   0  0  0  0  0  0  0  0  0  0  0  0
   -0.4010   -0.1130    0.0590 C   0  0  2  0  0  0  0  0  0  0  0  0
   -1.1800    1.1410   -0.2350 C   0  0  0  0  0  0  0  0  0  0  0  0
   -2.5850    0.6590   -0.3790 C   0  0  0  0  0  0  0  0  0  0  0  0
   -2.6520   -0.7480    0.1500 C   0  0  0  0  0  0  0  0  0  0  0  0
   -1.3380   -0.9250    0.9220 C   0  0  0  0  0  0  0  0  0  0  0  0
  1  2  1  0
  2  3  1  0
  3  4  2  3
  5  4  1  1
  5  6  1  0
  5  9  1  0
  6  7  1  0
  7  8  1  0
  8  9  1  0
M  END
