
     RDKit          3D

 14 13  0  0  0  0  0  0  0  0999 V2000
   -3.6320    1.2260    0.5730 C   0  0  0  0  0  0  0  0  0  0  0  0
   -2.4090    1.1720    0.0920 C   0  0  0  0  0  0  0  0  0  0  0  0
   -1.9690    2.3500   -0.5340 O   0  0  0  0  0  0  0  0  0  0  0  0
   -1.5720    0.0030    0.1900 C   0  0  0  0  0  0  0  0  0  0  0  0
   -0.3580   -0.1090   -0.2490 C   0  0  0  0  0  0  0  0  0  0  0  0
    0.4590    0.8530   -0.9240 C   0  0  0  0  0  0  0  0  0  0  0  0
    1.7160    0.5810   -1.3210 C   0  0  0  0  0  0  0  0  0  0  0  0
    2.6400    1.8130   -2.1380 Cl  0  0  0  0  0  0  0  0  0  0  0  0
    2.2930   -0.6370   -1.1030 O   0  0  0  0  0  0  0  0  0  0  0  0
    3.1580   -0.9860   -0.0730 C   0  0  0  0  0  0  0  0  0  0  0  0
    4.4280   -0.1930   -0.0290 C   0  0  0  0  0  0  0  0  0  0  0  0
    4.2300    1.1610    0.1330 O   0  0  0  0  0  0  0  0  0  0  0  0
   -2.1650   -1.2090    0.8710 C   0  0  0  0  0  0  0  0  0  0  0  0
   -3.3110   -1.6910    0.1380 N   0  0  0  0  0  0  0  0  0  0  0  0
  1  2  2  0
  2  3  1  0
  2  4  1  0
  4  5  2  3
  4 13  1  0
  5  6  1  0
  6  7  2  3
  7  8  1  0
  7  9  1  0
  9 10  1  0
 10 11  1  0
 11 12  1  0
 13 14  1  0
M  CHG  1  14   1
M  END
