
     RDKit          3D

 14 13  0  0  0  0  0  0  0  0999 V2000
    1.1780    0.1270    1.6640 C   0  0  0  0  0  0  0  0  0  0  0  0
    0.8970   -0.4090    0.3100 C   0  0  0  0  0  0  0  0  0  0  0  0
    1.9080   -0.4290   -0.5430 C   0  0  0  0  0  0  0  0  0  0  0  0
    3.2200    0.0450   -0.1870 C   0  0  0  0  0  0  0  0  0  0  0  0
    4.2400    0.0170   -1.0600 C   0  0  0  0  0  0  0  0  0  0  0  0
    3.9090   -0.6200   -2.6510 Cl  0  0  0  0  0  0  0  0  0  0  0  0
    5.4810    0.4730   -0.7000 O   0  0  0  0  0  0  0  0  0  0  0  0
    5.8820    0.5690    0.5730 O   0  0  0  0  0  0  0  0  0  0  0  0
   -0.3960   -0.9430   -0.1370 C   0  0  0  0  0  0  0  0  0  0  0  0
   -1.5150    0.0730   -0.1580 C   0  0  2  0  0  0  0  0  0  0  0  0
   -1.7550    0.6220    1.1420 N   0  0  0  0  0  0  0  0  0  0  0  0
   -2.7640   -0.5240   -0.7440 C   0  0  0  0  0  0  0  0  0  0  0  0
   -3.8770    0.4720   -0.7790 C   0  0  0  0  0  0  0  0  0  0  0  0
   -5.0160   -0.1420   -1.3770 O   0  0  0  0  0  0  0  0  0  0  0  0
  1  2  1  0
  2  3  2  3
  2  9  1  0
  3  4  1  0
  4  5  2  3
  5  6  1  0
  5  7  1  0
  7  8  1  0
  9 10  1  0
 10 11  1  1
 10 12  1  0
 12 13  1  0
 13 14  1  0
M  CHG  1  11   1
M  END
