
     RDKit          3D

 14 14  0  0  0  0  0  0  0  0999 V2000
   -3.5060   -1.3430   -0.6230 N   0  0  0  0  0  0  0  0  0  0  0  0
   -3.3490   -0.1220    0.1450 C   0  0  1  0  0  0  0  0  0  0  0  0
   -2.1000   -0.1070    0.9240 C   0  0  0  0  0  0  0  0  0  0  0  0
   -1.3720    0.9090    0.5630 C   0  0  0  0  0  0  0  0  0  0  0  0
   -0.1220    1.3310    1.0120 O   0  0  0  0  0  0  0  0  0  0  0  0
    0.8080    0.3850    1.5580 C   0  0  0  0  0  0  0  0  0  0  0  0
    1.1360   -0.6480    0.5410 C   0  0  0  0  0  0  0  0  0  0  0  0
    1.6900   -0.2740   -0.6100 O   0  0  0  0  0  0  0  0  0  0  0  0
    2.8710    0.3620   -0.6550 C   0  0  0  0  0  0  0  0  0  0  0  0
    3.9770   -0.4960   -0.0320 C   0  0  0  0  0  0  0  0  0  0  0  0
    5.2030    0.1900   -0.0910 O   0  0  0  0  0  0  0  0  0  0  0  0
   -2.0890    1.6330   -0.4760 C   0  0  0  0  0  0  0  0  0  0  0  0
   -3.2350    1.0530   -0.7320 C   0  0  0  0  0  0  0  0  0  0  0  0
   -4.4580    1.5370   -1.8980 Cl  0  0  0  0  0  0  0  0  0  0  0  0
  2  1  1  6
  2  3  1  0
  2 13  1  0
  3  4  2  0
  4  5  1  0
  4 12  1  0
  5  6  1  0
  6  7  1  0
  7  8  1  0
  8  9  1  0
  9 10  1  0
 10 11  1  0
 12 13  2  0
 13 14  1  0
M  CHG  1   1   1
M  END
