
     RDKit          3D

 14 13  0  0  0  0  0  0  0  0999 V2000
   -2.0980    1.1050    1.9030 C   0  0  0  0  0  0  0  0  0  0  0  0
   -0.9620    0.4780    1.1370 C   0  0  0  0  0  0  0  0  0  0  0  0
    0.0780   -0.1780    1.9110 C   0  0  0  0  0  0  0  0  0  0  0  0
   -0.9430    0.5320   -0.1970 C   0  0  0  0  0  0  0  0  0  0  0  0
   -2.1230    1.2520   -0.8300 C   0  0  0  0  0  0  0  0  0  0  0  0
   -2.9400    0.2840   -1.4940 N   0  0  0  0  0  0  0  0  0  0  0  0
    0.1110   -0.0460   -0.9490 C   0  0  0  0  0  0  0  0  0  0  0  0
    1.1460   -0.7450   -0.2500 O   0  0  0  0  0  0  0  0  0  0  0  0
    2.4940   -0.3570   -0.3290 C   0  0  0  0  0  0  0  0  0  0  0  0
    3.3430   -1.3430    0.4270 C   0  0  0  0  0  0  0  0  0  0  0  0
    2.9880   -1.3980    1.7460 O   0  0  0  0  0  0  0  0  0  0  0  0
    0.2500   -0.0090   -2.2640 C   0  0  0  0  0  0  0  0  0  0  0  0
    1.3660   -0.6540   -2.8630 O   0  0  0  0  0  0  0  0  0  0  0  0
   -0.8260    0.7840   -3.3440 Cl  0  0  0  0  0  0  0  0  0  0  0  0
  1  2  1  0
  2  3  1  0
  2  4  2  3
  4  5  1  0
  4  7  1  0
  5  6  1  0
  7  8  1  0
  7 12  2  3
  8  9  1  0
  9 10  1  0
 10 11  1  0
 12 13  1  0
 12 14  1  0
M  CHG  1   6   1
M  END
