
     RDKit          3D

 14 13  0  0  0  0  0  0  0  0999 V2000
   -1.6490   -1.8520    1.7340 C   0  0  0  0  0  0  0  0  0  0  0  0
   -1.2720   -0.4720    1.4420 N   0  0  0  0  0  0  0  0  0  0  0  0
   -1.6070   -0.1910    0.0810 C   0  0  0  0  0  0  0  0  0  0  0  0
   -0.6750    0.6670   -0.6480 C   0  0  0  0  0  0  0  0  0  0  0  0
   -1.1050    1.8490   -1.1060 C   0  0  0  0  0  0  0  0  0  0  0  0
   -2.4740    2.3530   -0.9220 C   0  0  2  0  0  0  0  0  0  0  0  0
   -2.6610    3.5400   -1.6420 O   0  0  0  0  0  0  0  0  0  0  0  0
   -2.8320    2.6940    0.7920 Cl  0  0  0  0  0  0  0  0  0  0  0  0
    0.6830    0.2600   -0.8870 C   0  0  0  0  0  0  0  0  0  0  0  0
    1.5230    1.1490   -1.5910 O   0  0  0  0  0  0  0  0  0  0  0  0
    1.1830   -0.8770   -0.4940 C   0  0  0  0  0  0  0  0  0  0  0  0
    2.6310   -1.2000   -0.8010 C   0  0  0  0  0  0  0  0  0  0  0  0
    3.2940   -1.4000    0.5680 C   0  0  0  0  0  0  0  0  0  0  0  0
    3.1390   -0.2050    1.2540 O   0  0  0  0  0  0  0  0  0  0  0  0
  1  2  1  0
  2  3  1  0
  3  4  1  0
  4  5  2  3
  4  9  1  0
  5  6  1  0
  6  7  1  6
  6  8  1  0
  9 10  1  0
  9 11  2  3
 11 12  1  0
 12 13  1  0
 13 14  1  0
M  CHG  1   2   1
M  END
