
     RDKit          3D

 34 38  0  0  0  0  0  0  0  0999 V2000
   -2.1960    5.1920   -0.4640 C   0  0  0  0  0  0  0  0  0  0  0  0
   -2.9300    4.1950    0.4240 C   0  0  0  0  0  0  0  0  0  0  0  0
   -2.0920    2.9760    0.4930 C   0  0  0  0  0  0  0  0  0  0  0  0
   -2.4790    1.7790    0.0980 C   0  0  0  0  0  0  0  0  0  0  0  0
   -1.3630    0.8680    0.3380 C   0  0  0  0  0  0  0  0  0  0  0  0
   -1.7100   -0.3690    0.1210 C   0  0  0  0  0  0  0  0  0  0  0  0
   -0.7210   -1.4630    0.2730 C   0  0  1  0  0  0  0  0  0  0  0  0
   -1.3230   -2.8420    0.4010 C   0  0  0  0  0  0  0  0  0  0  0  0
   -1.6540   -3.3210    1.5150 O   0  0  0  0  0  0  0  0  0  0  0  0
   -1.5430   -3.6570   -0.6950 O   0  0  0  0  0  0  0  0  0  0  0  0
   -2.1050   -4.9340   -0.4730 C   0  0  0  0  0  0  0  0  0  0  0  0
    0.1330   -1.5940   -0.9980 C   0  0  0  0  0  0  0  0  0  0  0  0
    1.5100   -2.1070   -0.7750 C   0  0  0  0  0  0  0  0  0  0  0  0
    2.5020   -1.1920   -1.2230 O   0  0  0  0  0  0  0  0  0  0  0  0
    3.4940   -0.9790   -0.3010 C   0  0  1  0  0  0  0  0  0  0  0  0
    4.6920   -1.7560   -0.8740 C   0  0  0  0  0  0  0  0  0  0  0  0
    5.9680   -1.4980   -0.1550 C   0  0  0  0  0  0  0  0  0  0  0  0
    6.2880   -0.0570    0.0610 C   0  0  0  0  0  0  0  0  0  0  0  0
    5.1590    0.7550   -0.5270 C   0  0  0  0  0  0  0  0  0  0  0  0
    3.8190    0.3800    0.1370 C   0  0  2  0  0  0  0  0  0  0  0  0
    4.1570    0.3800    1.6370 C   0  0  0  0  0  0  0  0  0  0  0  0
    2.9240    1.5090   -0.1400 C   0  0  2  0  0  0  0  0  0  0  0  0
    3.5550    2.6130   -0.7270 O   0  0  0  0  0  0  0  0  0  0  0  0
    2.1770    2.0680    1.0630 C   0  0  0  0  0  0  0  0  0  0  0  0
    1.0370    1.1260    1.2860 C   0  0  0  0  0  0  0  0  0  0  0  0
   -0.2870    1.5930    0.8850 C   0  0  0  0  0  0  0  0  0  0  0  0
   -0.7620    2.8750    0.9700 C   0  0  0  0  0  0  0  0  0  0  0  0
   -3.1640   -0.3840   -0.0330 C   0  0  2  0  0  0  0  0  0  0  0  0
   -3.7220   -0.5040    1.4030 C   0  0  0  0  0  0  0  0  0  0  0  0
   -3.9510   -1.0950   -0.9970 C   0  0  1  0  0  0  0  0  0  0  0  0
   -4.4230   -2.4780   -0.7590 C   0  0  0  0  0  0  0  0  0  0  0  0
   -5.2680   -0.2520   -1.0070 C   0  0  0  0  0  0  0  0  0  0  0  0
   -4.8750    1.0950   -0.3520 C   0  0  0  0  0  0  0  0  0  0  0  0
   -3.4680    0.9980   -0.5660 C   0  0  1  0  0  0  0  0  0  0  0  0
  1  2  1  0
  2  3  1  0
  3  4  2  0
  3 27  1  0
  4  5  1  0
  4 34  1  0
  5  6  2  0
  5 26  1  0
  6  7  1  0
  6 28  1  0
  7  8  1  6
  7 12  1  0
  8  9  2  0
  8 10  1  0
 10 11  1  0
 12 13  1  0
 13 14  1  0
 14 15  1  0
 15 16  1  6
 15 20  1  0
 16 17  1  0
 17 18  1  0
 18 19  1  0
 19 20  1  0
 20 21  1  1
 20 22  1  0
 22 23  1  1
 22 24  1  0
 24 25  1  0
 25 26  1  0
 26 27  2  0
 28 29  1  1
 28 30  1  0
 28 34  1  0
 30 31  1  1
 30 32  1  0
 32 33  1  0
 34 33  1  1
M  END
