
     RDKit          3D

 33 34  0  0  0  0  0  0  0  0999 V2000
   -6.5400    1.4440    2.6850 C   0  0  0  0  0  0  0  0  0  0  0  0
   -5.1010    1.5030    2.0680 C   0  0  0  0  0  0  0  0  0  0  0  0
   -5.2570    1.1190    0.6310 C   0  0  0  0  0  0  0  0  0  0  0  0
   -4.1990    0.9760   -0.3300 C   0  0  1  0  0  0  0  0  0  0  0  0
   -3.6320    2.5140   -0.4110 C   0  0  0  0  0  0  0  0  0  0  0  0
   -2.9090    0.3390   -0.0590 C   0  0  0  0  0  0  0  0  0  0  0  0
   -2.0450    0.6620    0.8840 O   0  0  0  0  0  0  0  0  0  0  0  0
   -0.9860   -0.1350    0.7250 C   0  0  0  0  0  0  0  0  0  0  0  0
    0.2710   -0.0860    1.5740 C   0  0  0  0  0  0  0  0  0  0  0  0
    1.3040   -0.7050    0.7380 N   0  0  0  0  0  0  0  0  0  0  0  0
    1.3690   -0.2200   -0.6300 C   0  0  0  0  0  0  0  0  0  0  0  0
    0.5550    0.7190   -0.8900 O   0  0  0  0  0  0  0  0  0  0  0  0
    2.2690   -0.7530   -1.6460 C   0  0  0  0  0  0  0  0  0  0  0  0
    3.3690   -1.4780   -1.2460 O   0  0  0  0  0  0  0  0  0  0  0  0
    4.4400   -0.8670   -0.6450 C   0  0  0  0  0  0  0  0  0  0  0  0
    4.4220    0.4940   -0.4730 C   0  0  0  0  0  0  0  0  0  0  0  0
    5.4680    1.1670    0.1040 C   0  0  0  0  0  0  0  0  0  0  0  0
    6.6030    0.4740    0.5390 C   0  0  0  0  0  0  0  0  0  0  0  0
    7.6050    1.0740    1.0630 O   0  0  0  0  0  0  0  0  0  0  0  0
    8.6190    1.6790    1.5920 C   0  0  0  0  0  0  0  0  0  0  0  0
    9.8940    1.4260    0.8400 C   0  0  0  0  0  0  0  0  0  0  0  0
    9.9040    0.2650   -0.0610 N   0  0  0  0  0  0  0  0  0  0  0  0
   10.9060    2.0690    0.9160 O   0  0  0  0  0  0  0  0  0  0  0  0
    6.6020   -0.9260    0.3620 C   0  0  0  0  0  0  0  0  0  0  0  0
    5.5370   -1.5590   -0.2180 C   0  0  0  0  0  0  0  0  0  0  0  0
   -1.1630   -0.9650   -0.2910 N   0  0  0  0  0  0  0  0  0  0  0  0
   -2.3580   -0.6930   -0.7950 C   0  0  0  0  0  0  0  0  0  0  0  0
   -3.0980   -1.4540   -1.7930 C   0  0  0  0  0  0  0  0  0  0  0  0
   -2.6060   -1.9340   -2.8370 O   0  0  0  0  0  0  0  0  0  0  0  0
   -4.5020   -1.6950   -1.5630 N   0  0  0  0  0  0  0  0  0  0  0  0
   -5.2700   -2.4210   -2.4880 C   0  0  0  0  0  0  0  0  0  0  0  0
   -6.6970   -2.5080   -1.9020 C   0  0  0  0  0  0  0  0  0  0  0  0
   -6.6860   -3.1590   -0.6480 O   0  0  0  0  0  0  0  0  0  0  0  0
  1  2  1  0
  2  3  1  0
  3  4  1  0
  4  5  1  1
  4  6  1  0
  6  7  1  0
  6 27  2  0
  7  8  1  0
  8  9  1  0
  8 26  2  0
  9 10  1  0
 10 11  1  0
 11 12  2  0
 11 13  1  0
 13 14  1  0
 14 15  1  0
 15 16  2  0
 15 25  1  0
 16 17  1  0
 17 18  2  0
 18 19  1  0
 18 24  1  0
 19 20  1  0
 20 21  1  0
 21 22  1  0
 21 23  2  0
 24 25  2  0
 26 27  1  0
 27 28  1  0
 28 29  2  0
 28 30  1  0
 30 31  1  0
 31 32  1  0
 32 33  1  0
M  END
