
     RDKit          3D

 34 36  0  0  0  0  0  0  0  0999 V2000
    1.5160   -0.8050    0.2520 O   0  0  0  0  0  0  0  0  0  0  0  0
    1.0470   -1.4230    1.2110 C   0  0  0  0  0  0  0  0  0  0  0  0
   -0.0090   -0.6950    1.9970 C   0  0  0  0  0  0  0  0  0  0  0  0
   -0.2830    0.6560    1.4550 C   0  0  0  0  0  0  0  0  0  0  0  0
   -0.7480    0.7220    0.1090 N   0  0  0  0  0  0  0  0  0  0  0  0
   -1.5870   -0.3340   -0.3280 C   0  0  0  0  0  0  0  0  0  0  0  0
   -3.0320    0.0150   -0.3410 C   0  0  0  0  0  0  0  0  0  0  0  0
   -3.7430   -0.2110    0.8200 C   0  0  0  0  0  0  0  0  0  0  0  0
   -5.1080    0.0920    0.8860 C   0  0  0  0  0  0  0  0  0  0  0  0
   -5.7580    0.6200   -0.2110 C   0  0  0  0  0  0  0  0  0  0  0  0
   -7.1800    0.9150   -0.0780 C   0  0  0  0  0  0  0  0  0  0  0  0
   -7.7110    2.1040   -0.5250 C   0  0  0  0  0  0  0  0  0  0  0  0
   -9.0660    2.3730   -0.3940 C   0  0  0  0  0  0  0  0  0  0  0  0
   -9.9280    1.4660    0.1850 C   0  0  0  0  0  0  0  0  0  0  0  0
   -9.4040    0.2740    0.6340 C   0  0  0  0  0  0  0  0  0  0  0  0
   -8.0390    0.0070    0.5010 C   0  0  0  0  0  0  0  0  0  0  0  0
   -5.0290    0.8370   -1.3600 C   0  0  0  0  0  0  0  0  0  0  0  0
   -5.8150    1.4950   -2.7500 Cl  0  0  0  0  0  0  0  0  0  0  0  0
   -3.6660    0.5360   -1.4270 C   0  0  0  0  0  0  0  0  0  0  0  0
    1.4710   -2.7040    1.5340 N   0  0  0  0  0  0  0  0  0  0  0  0
    2.4400   -3.5530    0.9380 C   0  0  0  0  0  0  0  0  0  0  0  0
    3.8490   -3.1730    0.8660 C   0  0  0  0  0  0  0  0  0  0  0  0
    4.3180   -2.1050   -0.0010 C   0  0  0  0  0  0  0  0  0  0  0  0
    3.6920   -1.8590   -1.0520 O   0  0  0  0  0  0  0  0  0  0  0  0
    5.4590   -1.3190    0.2850 N   0  0  0  0  0  0  0  0  0  0  0  0
    5.9920   -0.2650   -0.4790 C   0  0  0  0  0  0  0  0  0  0  0  0
    5.4520    0.2500   -1.6150 C   0  0  0  0  0  0  0  0  0  0  0  0
    6.0620    1.3020   -2.3130 C   0  0  0  0  0  0  0  0  0  0  0  0
    7.2370    1.8670   -1.8880 C   0  0  0  0  0  0  0  0  0  0  0  0
    7.7960    1.3540   -0.7390 C   0  0  0  0  0  0  0  0  0  0  0  0
    9.0510    1.9330   -0.2540 C   0  0  0  0  0  0  0  0  0  0  0  0
    9.5600    1.4830    0.7760 O   0  0  0  0  0  0  0  0  0  0  0  0
    9.6560    2.9650   -0.9340 O   0  0  0  0  0  0  0  0  0  0  0  0
    7.1950    0.3260   -0.0600 C   0  0  0  0  0  0  0  0  0  0  0  0
  1  2  2  0
  2  3  1  0
  2 20  1  0
  3  4  1  0
  4  5  1  0
  5  6  1  0
  6  7  1  0
  7  8  2  0
  7 19  1  0
  8  9  1  0
  9 10  2  0
 10 11  1  0
 10 17  1  0
 11 12  2  0
 11 16  1  0
 12 13  1  0
 13 14  2  0
 14 15  1  0
 15 16  2  0
 17 18  1  0
 17 19  2  0
 20 21  1  0
 21 22  1  0
 22 23  1  0
 23 24  2  0
 23 25  1  0
 25 26  1  0
 26 27  2  0
 26 34  1  0
 27 28  1  0
 28 29  2  0
 29 30  1  0
 30 31  1  0
 30 34  2  0
 31 32  2  0
 31 33  1  0
M  CHG  1   5   1
M  END
