
     RDKit          3D

 34 37  0  0  0  0  0  0  0  0999 V2000
   -2.4670   -2.0300    1.7980 C   0  0  0  0  0  0  0  0  0  0  0  0
   -2.1750   -1.7550    0.3530 C   0  0  1  0  0  0  0  0  0  0  0  0
   -0.9900   -0.9980   -0.0200 C   0  0  0  0  0  0  0  0  0  0  0  0
   -0.6870    0.3920    0.3670 C   0  0  2  0  0  0  0  0  0  0  0  0
    0.6800    0.6270   -0.3500 C   0  0  1  0  0  0  0  0  0  0  0  0
    0.3200    0.5500   -1.7160 O   0  0  0  0  0  0  0  0  0  0  0  0
    1.3540    1.8760   -0.0320 C   0  0  0  0  0  0  0  0  0  0  0  0
    2.7910    1.7780    0.4670 C   0  0  2  0  0  0  0  0  0  0  0  0
    3.3780    3.1880    0.2930 C   0  0  0  0  0  0  0  0  0  0  0  0
    3.6390    0.8440   -0.3100 C   0  0  0  0  0  0  0  0  0  0  0  0
    2.9220   -0.3150   -0.8620 C   0  0  1  0  0  0  0  0  0  0  0  0
    3.6880   -1.6210   -0.7520 C   0  0  1  0  0  0  0  0  0  0  0  0
    4.9950   -1.5940   -1.4680 C   0  0  0  0  0  0  0  0  0  0  0  0
    6.0790   -1.7540   -0.4420 C   0  0  0  0  0  0  0  0  0  0  0  0
    5.4170   -2.2950    0.8090 C   0  0  0  0  0  0  0  0  0  0  0  0
    3.9560   -1.9930    0.6840 C   0  0  0  0  0  0  0  0  0  0  0  0
    1.5720   -0.6050   -0.1930 C   0  0  0  0  0  0  0  0  0  0  0  0
   -0.3650    0.4950    1.8010 C   0  0  0  0  0  0  0  0  0  0  0  0
   -1.3420    1.1450    2.7110 C   0  0  0  0  0  0  0  0  0  0  0  0
   -1.7710    2.4460    2.1250 C   0  0  0  0  0  0  0  0  0  0  0  0
   -2.4710    2.1230    0.8290 C   0  0  1  0  0  0  0  0  0  0  0  0
   -2.8970    3.4990    0.2810 C   0  0  0  0  0  0  0  0  0  0  0  0
   -4.3280    3.3900   -0.1870 C   0  0  1  0  0  0  0  0  0  0  0  0
   -4.6130    4.2330   -1.3810 C   0  0  0  0  0  0  0  0  0  0  0  0
   -4.6710    2.0480   -0.4860 O   0  0  0  0  0  0  0  0  0  0  0  0
   -3.9020    1.1440   -1.1560 C   0  0  0  0  0  0  0  0  0  0  0  0
   -4.6150    0.2300   -1.7070 O   0  0  0  0  0  0  0  0  0  0  0  0
   -2.4550    1.0580   -1.3380 C   0  0  0  0  0  0  0  0  0  0  0  0
   -1.5890    1.4470   -0.1920 C   0  0  2  0  0  0  0  0  0  0  0  0
   -0.8310    2.5430   -0.6920 O   0  0  0  0  0  0  0  0  0  0  0  0
   -1.9530   -3.1740   -0.2500 C   0  0  2  0  0  0  0  0  0  0  0  0
   -1.6470   -3.1120   -1.7210 C   0  0  0  0  0  0  0  0  0  0  0  0
   -3.1600   -4.0230   -0.0610 C   0  0  0  0  0  0  0  0  0  0  0  0
   -0.7660   -3.8060    0.4080 C   0  0  0  0  0  0  0  0  0  0  0  0
  2  1  1  1
  2  3  1  0
  2 31  1  0
  4  3  1  1
  4  5  1  0
  4 18  1  0
  4 29  1  0
  5  6  1  6
  5  7  1  0
  5 17  1  0
  7  8  1  0
  8  9  1  6
  8 10  1  0
 11 10  1  1
 11 12  1  0
 11 17  1  0
 12 13  1  6
 12 16  1  0
 13 14  1  0
 14 15  1  0
 15 16  1  0
 18 19  1  0
 19 20  1  0
 21 20  1  1
 21 22  1  0
 21 29  1  0
 22 23  1  0
 23 24  1  6
 23 25  1  0
 25 26  1  0
 26 27  2  0
 26 28  1  0
 28 29  1  0
 29 30  1  6
 31 32  1  6
 31 33  1  0
 31 34  1  0
M  END
