
     RDKit          3D

  9  9  0  0  0  0  0  0  0  0999 V2000
    0.4540    1.9650    0.0060 N   0  0  0  0  0  0  0  0  0  0  0  0
    0.2230    0.5880    0.3760 C   0  0  2  0  0  0  0  0  0  0  0  0
    1.5270   -0.1740    0.5570 C   0  0  1  0  0  0  0  0  0  0  0  0
    1.6600   -0.6530    1.8600 O   0  0  0  0  0  0  0  0  0  0  0  0
    1.4990   -1.2610   -0.3000 O   0  0  0  0  0  0  0  0  0  0  0  0
    0.1220   -1.5800   -0.4000 C   0  0  0  0  0  0  0  0  0  0  0  0
   -0.4090   -0.1980   -0.7540 C   0  0  1  0  0  0  0  0  0  0  0  0
   -1.8880   -0.1080   -0.8240 C   0  0  0  0  0  0  0  0  0  0  0  0
   -2.5330   -0.5600    0.2900 O   0  0  0  0  0  0  0  0  0  0  0  0
  2  1  1  6
  2  3  1  0
  2  7  1  0
  3  4  1  1
  3  5  1  0
  5  6  1  0
  6  7  1  0
  7  8  1  1
  8  9  1  0
M  CHG  1   1   1
M  END
