
     RDKit          3D

  9  8  0  0  0  0  0  0  0  0999 V2000
   -1.6540   -1.1940    0.1470 C   0  0  0  0  0  0  0  0  0  0  0  0
   -0.6070   -0.2120   -0.3610 C   0  0  1  0  0  0  0  0  0  0  0  0
   -0.3490   -0.5570   -1.6920 O   0  0  0  0  0  0  0  0  0  0  0  0
   -1.2840    1.1280   -0.3550 C   0  0  0  0  0  0  0  0  0  0  0  0
   -1.5350    1.5490    0.9630 O   0  0  0  0  0  0  0  0  0  0  0  0
    0.6210   -0.1890    0.4470 C   0  0  1  0  0  0  0  0  0  0  0  0
    1.3010   -1.4840    0.5030 N   0  0  0  0  0  0  0  0  0  0  0  0
    1.6320    0.7620   -0.1420 C   0  0  0  0  0  0  0  0  0  0  0  0
    1.2240    2.0630   -0.2620 O   0  0  0  0  0  0  0  0  0  0  0  0
  2  1  1  1
  2  3  1  0
  2  4  1  0
  2  6  1  0
  4  5  1  0
  6  7  1  6
  6  8  1  0
  8  9  1  0
M  CHG  1   7   1
M  END
