
     RDKit          3D

  9  9  0  0  0  0  0  0  0  0999 V2000
    2.3990    0.3400   -0.1480 N   0  0  0  0  0  0  0  0  0  0  0  0
    1.0990   -0.3160   -0.3680 C   0  0  1  0  0  0  0  0  0  0  0  0
    0.6730   -0.9000    0.9280 C   0  0  0  0  0  0  0  0  0  0  0  0
   -0.4410   -0.2360    1.4910 O   0  0  0  0  0  0  0  0  0  0  0  0
   -1.4850   -0.4940    0.5700 C   0  0  1  0  0  0  0  0  0  0  0  0
   -2.7270   -0.3200    1.1300 O   0  0  0  0  0  0  0  0  0  0  0  0
   -1.2720    0.5030   -0.5530 C   0  0  1  0  0  0  0  0  0  0  0  0
   -1.6910    1.7510   -0.0320 O   0  0  0  0  0  0  0  0  0  0  0  0
    0.1300    0.5950   -1.0170 C   0  0  0  0  0  0  0  0  0  0  0  0
  2  1  1  1
  2  3  1  0
  2  9  1  0
  3  4  1  0
  4  5  1  0
  5  6  1  1
  5  7  1  0
  7  8  1  1
  7  9  1  0
M  CHG  1   1   1
M  END
