
     RDKit          3D

  9  9  0  0  0  0  0  0  0  0999 V2000
    0.9580    1.7360    0.0560 N   0  0  0  0  0  0  0  0  0  0  0  0
    0.9530    0.3590   -0.3380 C   0  0  1  0  0  0  0  0  0  0  0  0
    1.8840   -0.4840    0.5130 C   0  0  0  0  0  0  0  0  0  0  0  0
    1.9810   -1.7490   -0.0610 O   0  0  0  0  0  0  0  0  0  0  0  0
    0.8250   -2.2120   -0.5130 O   0  0  0  0  0  0  0  0  0  0  0  0
   -0.4030   -1.5880   -0.3490 C   0  0  0  0  0  0  0  0  0  0  0  0
   -0.3880   -0.2680   -0.2550 C   0  0  0  0  0  0  0  0  0  0  0  0
   -1.6520    0.4760   -0.0790 C   0  0  0  0  0  0  0  0  0  0  0  0
   -2.7480   -0.3780   -0.0360 O   0  0  0  0  0  0  0  0  0  0  0  0
  2  1  1  1
  2  3  1  0
  2  7  1  0
  3  4  1  0
  4  5  1  0
  5  6  1  0
  6  7  2  0
  7  8  1  0
  8  9  1  0
M  END
