
     RDKit          3D

 28 31  0  0  0  0  0  0  0  0999 V2000
   -8.8500    1.1190    1.0960 C   0  0  0  0  0  0  0  0  0  0  0  0
   -7.4640    0.7210    0.6590 C   0  0  0  0  0  0  0  0  0  0  0  0
   -7.2450    0.1050   -0.5600 C   0  0  0  0  0  0  0  0  0  0  0  0
   -5.9830   -0.2620   -0.9660 C   0  0  0  0  0  0  0  0  0  0  0  0
   -5.7710   -0.8870   -2.2040 N   0  0  0  0  0  0  0  0  0  0  0  0
   -4.8980   -0.0170   -0.1520 C   0  0  0  0  0  0  0  0  0  0  0  0
   -3.6180   -0.3570   -0.4970 C   0  0  0  0  0  0  0  0  0  0  0  0
   -2.5020   -0.1100    0.3310 C   0  0  0  0  0  0  0  0  0  0  0  0
   -1.2270   -0.5060   -0.1000 N   0  0  0  0  0  0  0  0  0  0  0  0
    0.0060   -0.1160    0.4410 C   0  0  0  0  0  0  0  0  0  0  0  0
    0.0450    0.6680    1.4030 O   0  0  0  0  0  0  0  0  0  0  0  0
    1.2530   -0.5750   -0.0590 N   0  0  0  0  0  0  0  0  0  0  0  0
    2.5460   -0.2670    0.3910 C   0  0  0  0  0  0  0  0  0  0  0  0
    2.8120    0.3630    1.5640 C   0  0  0  0  0  0  0  0  0  0  0  0
    4.1330    0.6510    1.9340 C   0  0  0  0  0  0  0  0  0  0  0  0
    5.1740    0.2840    1.0890 C   0  0  0  0  0  0  0  0  0  0  0  0
    6.4340    0.5550    1.4360 N   0  0  0  0  0  0  0  0  0  0  0  0
    7.4630    0.2180    0.6480 C   0  0  0  0  0  0  0  0  0  0  0  0
    8.8820    0.5190    1.0320 C   0  0  0  0  0  0  0  0  0  0  0  0
    7.2130   -0.4290   -0.5560 C   0  0  0  0  0  0  0  0  0  0  0  0
    5.9310   -0.7270   -0.9530 C   0  0  0  0  0  0  0  0  0  0  0  0
    5.6350   -1.3920   -2.1860 N   0  0  0  0  0  0  0  0  0  0  0  0
    4.8960   -0.3540   -0.0960 C   0  0  0  0  0  0  0  0  0  0  0  0
    3.6100   -0.6400   -0.4690 C   0  0  0  0  0  0  0  0  0  0  0  0
   -2.7420    0.5000    1.5330 C   0  0  0  0  0  0  0  0  0  0  0  0
   -4.0450    0.8360    1.8620 C   0  0  0  0  0  0  0  0  0  0  0  0
   -5.1350    0.6000    1.0660 C   0  0  0  0  0  0  0  0  0  0  0  0
   -6.3930    0.9480    1.4340 N   0  0  0  0  0  0  0  0  0  0  0  0
  1  2  1  0
  2  3  2  0
  2 28  1  0
  3  4  1  0
  4  5  1  0
  4  6  2  0
  6  7  1  0
  6 27  1  0
  7  8  2  0
  8  9  1  0
  8 25  1  0
  9 10  1  0
 10 11  2  0
 10 12  1  0
 12 13  1  0
 13 14  2  0
 13 24  1  0
 14 15  1  0
 15 16  2  0
 16 17  1  0
 16 23  1  0
 17 18  2  0
 18 19  1  0
 18 20  1  0
 20 21  2  0
 21 22  1  0
 21 23  1  0
 23 24  2  0
 25 26  2  0
 26 27  1  0
 27 28  2  0
M  END
