
     RDKit          3D

  9  9  0  0  0  0  0  0  0  0999 V2000
   -0.1070   -0.9840    1.2090 N   0  0  0  0  0  0  0  0  0  0  0  0
    0.1910   -0.1720    0.0730 C   0  0  2  0  0  0  0  0  0  0  0  0
    1.5350   -0.4540   -0.5410 C   0  0  0  0  0  0  0  0  0  0  0  0
    2.5580   -0.2380    0.3690 O   0  0  0  0  0  0  0  0  0  0  0  0
    0.0450    1.2970    0.4440 C   0  0  0  0  0  0  0  0  0  0  0  0
   -1.4180    1.5320    0.1410 C   0  0  0  0  0  0  0  0  0  0  0  0
   -1.8980    0.4290   -0.5160 O   0  0  0  0  0  0  0  0  0  0  0  0
   -0.8510   -0.2900   -1.0260 C   0  0  2  0  0  0  0  0  0  0  0  0
   -1.1160   -1.6140   -1.2560 O   0  0  0  0  0  0  0  0  0  0  0  0
  2  1  1  1
  2  3  1  0
  2  5  1  0
  2  8  1  0
  3  4  1  0
  5  6  1  0
  6  7  1  0
  7  8  1  0
  8  9  1  1
M  CHG  1   1   1
M  END
