
     RDKit          3D

 20 22  0  0  0  0  0  0  0  0999 V2000
   -2.1840    2.5640    1.1630 C   0  0  0  0  0  0  0  0  0  0  0  0
   -2.0850    1.0460    0.9350 C   0  0  0  0  0  0  0  0  0  0  0  0
   -1.0220    0.7160    0.1850 O   0  0  0  0  0  0  0  0  0  0  0  0
   -0.7590   -0.5520   -0.1950 C   0  0  1  0  0  0  0  0  0  0  0  0
   -0.5500   -1.5390    0.8910 C   0  0  0  0  0  0  0  0  0  0  0  0
   -1.6680   -1.7710    1.7350 N   0  0  0  0  0  0  0  0  0  0  0  0
   -1.8920   -1.0140   -1.1100 C   0  0  0  0  0  0  0  0  0  0  0  0
   -2.7670   -1.8870   -0.8750 O   0  0  0  0  0  0  0  0  0  0  0  0
   -1.7070   -0.2210   -2.2690 N   0  0  0  0  0  0  0  0  0  0  0  0
   -0.2750   -0.1440   -2.4560 C   0  0  2  0  0  0  0  0  0  0  0  0
    0.3570   -1.5100   -2.3650 C   0  0  0  0  0  0  0  0  0  0  0  0
    0.3720   -0.5160   -1.1930 C   0  0  2  0  0  0  0  0  0  0  0  0
    1.7350   -0.0020   -0.8150 C   0  0  2  0  0  0  0  0  0  0  0  0
    2.3810   -0.7950    0.1670 N   0  0  0  0  0  0  0  0  0  0  0  0
    3.4540   -0.2700    0.9280 C   0  0  0  0  0  0  0  0  0  0  0  0
    4.2250   -1.0560    1.5580 O   0  0  0  0  0  0  0  0  0  0  0  0
    3.6890    1.1280    1.0020 N   0  0  0  0  0  0  0  0  0  0  0  0
    2.7860    1.9500    0.2740 C   0  0  0  0  0  0  0  0  0  0  0  0
    2.9710    3.2110    0.3200 O   0  0  0  0  0  0  0  0  0  0  0  0
    1.7360    1.3730   -0.4620 N   0  0  0  0  0  0  0  0  0  0  0  0
  1  2  1  0
  2  3  1  0
  3  4  1  0
  4  5  1  1
  4  7  1  0
  4 12  1  0
  5  6  1  0
  7  8  2  0
  7  9  1  0
  9 10  1  0
 10 11  1  6
 10 12  1  0
 12 11  1  6
 12 13  1  0
 13 14  1  1
 13 20  1  0
 14 15  1  0
 15 16  2  0
 15 17  1  0
 17 18  1  0
 18 19  2  0
 18 20  1  0
M  CHG  1   6   1
M  END
