
     RDKit          3D

 20 21  0  0  0  0  0  0  0  0999 V2000
    4.9460    2.8550    1.3130 N   0  0  0  0  0  0  0  0  0  0  0  0
    4.6550    1.5410    0.8800 C   0  0  0  0  0  0  0  0  0  0  0  0
    5.6130    0.7860    0.5900 O   0  0  0  0  0  0  0  0  0  0  0  0
    3.2900    1.0250    0.7530 C   0  0  0  0  0  0  0  0  0  0  0  0
    2.2910    1.7330    1.0560 O   0  0  0  0  0  0  0  0  0  0  0  0
    3.0080   -0.2790    0.2910 N   0  0  0  0  0  0  0  0  0  0  0  0
    1.6910   -0.7240    0.1900 N   0  0  0  0  0  0  0  0  0  0  0  0
    1.1620   -1.4360   -0.9160 C   0  0  0  0  0  0  0  0  0  0  0  0
    2.0250   -1.6670   -1.8360 O   0  0  0  0  0  0  0  0  0  0  0  0
   -0.2210   -1.8900   -1.0370 C   0  0  0  0  0  0  0  0  0  0  0  0
   -0.6010   -3.0390   -1.6840 N   0  0  0  0  0  0  0  0  0  0  0  0
   -1.9140   -3.1880   -1.6760 C   0  0  0  0  0  0  0  0  0  0  0  0
   -2.4640   -2.1140   -1.0050 C   0  0  0  0  0  0  0  0  0  0  0  0
   -1.4030   -1.3140   -0.6150 C   0  0  0  0  0  0  0  0  0  0  0  0
   -2.0010   -0.1360    0.0690 C   0  0  1  0  0  0  0  0  0  0  0  0
   -1.2750    1.1630   -0.2260 C   0  0  0  0  0  0  0  0  0  0  0  0
   -1.9950    2.2250    0.4870 N   0  0  0  0  0  0  0  0  0  0  0  0
   -3.4070   -0.0720   -0.4910 C   0  0  0  0  0  0  0  0  0  0  0  0
   -3.7380   -1.5230   -0.5600 C   0  0  0  0  0  0  0  0  0  0  0  0
   -4.8140   -2.1260   -0.3110 O   0  0  0  0  0  0  0  0  0  0  0  0
  1  2  1  0
  2  3  2  0
  2  4  1  0
  4  5  2  0
  4  6  1  0
  6  7  1  0
  7  8  1  0
  8  9  2  0
  8 10  1  0
 10 11  1  0
 10 14  2  0
 11 12  1  0
 12 13  2  0
 13 14  1  0
 13 19  1  0
 14 15  1  0
 15 16  1  6
 15 18  1  0
 16 17  1  0
 18 19  1  0
 19 20  2  0
M  CHG  1  17   1
M  END
