
     RDKit          3D

 20 21  0  0  0  0  0  0  0  0999 V2000
    3.6540   -0.2990   -1.1940 N   0  0  0  0  0  0  0  0  0  0  0  0
    2.4030    0.4190   -1.1460 C   0  0  0  0  0  0  0  0  0  0  0  0
    1.8660    0.4120    0.2480 C   0  0  2  0  0  0  0  0  0  0  0  0
    1.6060   -0.9950    0.7810 C   0  0  1  0  0  0  0  0  0  0  0  0
    0.5410   -0.7130    1.8050 C   0  0  0  0  0  0  0  0  0  0  0  0
    0.1080    0.5870    1.6420 O   0  0  0  0  0  0  0  0  0  0  0  0
    0.4590    0.9640    0.3510 C   0  0  1  0  0  0  0  0  0  0  0  0
    0.3580    2.4160    0.0770 C   0  0  0  0  0  0  0  0  0  0  0  0
   -0.8710    2.9780    0.5680 N   0  0  0  0  0  0  0  0  0  0  0  0
   -2.1150    2.3350    0.6650 C   0  0  0  0  0  0  0  0  0  0  0  0
   -2.7750    2.4800    1.7510 O   0  0  0  0  0  0  0  0  0  0  0  0
   -2.7630    1.4940   -0.3610 C   0  0  0  0  0  0  0  0  0  0  0  0
   -3.3790    0.3600    0.2850 N   0  0  0  0  0  0  0  0  0  0  0  0
   -2.8470   -0.9230    0.4250 C   0  0  0  0  0  0  0  0  0  0  0  0
   -2.9620   -1.4660    1.5830 O   0  0  0  0  0  0  0  0  0  0  0  0
   -2.1640   -1.7190   -0.6280 C   0  0  0  0  0  0  0  0  0  0  0  0
   -1.2130   -2.6100   -0.0030 N   0  0  0  0  0  0  0  0  0  0  0  0
    0.1360   -2.7950   -0.2850 C   0  0  0  0  0  0  0  0  0  0  0  0
    0.4720   -4.0030   -0.6130 O   0  0  0  0  0  0  0  0  0  0  0  0
    1.1940   -1.8670   -0.2680 N   0  0  0  0  0  0  0  0  0  0  0  0
  1  2  1  0
  3  2  1  6
  3  4  1  0
  3  7  1  0
  4  5  1  1
  4 20  1  0
  5  6  1  0
  6  7  1  0
  7  8  1  1
  8  9  1  0
  9 10  1  0
 10 11  2  0
 10 12  1  0
 12 13  1  0
 13 14  1  0
 14 15  2  0
 14 16  1  0
 16 17  1  0
 17 18  1  0
 18 19  2  0
 18 20  1  0
M  CHG  1   1   1
M  END
