
     RDKit          3D

 20 21  0  0  0  0  0  0  0  0999 V2000
    5.0280   -0.8510    1.6780 C   0  0  0  0  0  0  0  0  0  0  0  0
    5.0380    0.1360    0.5520 C   0  0  0  0  0  0  0  0  0  0  0  0
    6.0830    0.8880    0.2280 N   0  0  0  0  0  0  0  0  0  0  0  0
    5.7600    1.6520   -0.8140 C   0  0  0  0  0  0  0  0  0  0  0  0
    6.5480    2.4710   -1.3470 O   0  0  0  0  0  0  0  0  0  0  0  0
    4.5070    1.3850   -1.1530 N   0  0  0  0  0  0  0  0  0  0  0  0
    4.0190    0.4350   -0.3150 C   0  0  0  0  0  0  0  0  0  0  0  0
    2.7100   -0.1580   -0.3100 C   0  0  0  0  0  0  0  0  0  0  0  0
    2.4060   -1.0330    0.5370 O   0  0  0  0  0  0  0  0  0  0  0  0
    1.6920    0.2020   -1.2480 N   0  0  0  0  0  0  0  0  0  0  0  0
    0.4200   -0.4080   -1.2030 N   0  0  0  0  0  0  0  0  0  0  0  0
   -0.6410    0.1180   -0.4250 C   0  0  0  0  0  0  0  0  0  0  0  0
   -0.4260    1.1610    0.2380 O   0  0  0  0  0  0  0  0  0  0  0  0
   -1.9540   -0.5140   -0.3800 C   0  0  2  0  0  0  0  0  0  0  0  0
   -2.6910   -0.4870   -1.6990 C   0  0  0  0  0  0  0  0  0  0  0  0
   -4.1380   -0.6760   -1.2260 C   0  0  0  0  0  0  0  0  0  0  0  0
   -4.0120   -0.5520    0.2630 C   0  0  2  0  0  0  0  0  0  0  0  0
   -5.1540    0.2170    0.8830 C   0  0  0  0  0  0  0  0  0  0  0  0
   -4.8730    0.3840    2.2970 N   0  0  0  0  0  0  0  0  0  0  0  0
   -2.8280    0.1830    0.4490 O   0  0  0  0  0  0  0  0  0  0  0  0
  1  2  1  0
  2  3  1  0
  2  7  2  0
  3  4  1  0
  4  5  2  0
  4  6  1  0
  6  7  1  0
  7  8  1  0
  8  9  2  0
  8 10  1  0
 10 11  1  0
 11 12  1  0
 12 13  2  0
 14 12  1  6
 14 15  1  0
 14 20  1  0
 15 16  1  0
 16 17  1  0
 17 18  1  6
 17 20  1  0
 18 19  1  0
M  CHG  1  19   1
M  END
