
     RDKit          3D

 45 49  0  0  0  0  0  0  0  0999 V2000
    1.4010    6.3150    0.6170 C   0  0  0  0  0  0  0  0  0  0  0  0
    0.0340    6.3570    1.2560 C   0  0  0  0  0  0  0  0  0  0  0  0
   -0.3110    5.0580    1.7430 O   0  0  0  0  0  0  0  0  0  0  0  0
   -0.3830    3.9540    0.9050 C   0  0  0  0  0  0  0  0  0  0  0  0
   -0.1290    4.1410   -0.3110 O   0  0  0  0  0  0  0  0  0  0  0  0
   -0.7370    2.6460    1.4160 C   0  0  0  0  0  0  0  0  0  0  0  0
   -1.0390    2.4420    2.7390 C   0  0  0  0  0  0  0  0  0  0  0  0
   -1.3740    1.1830    3.2140 C   0  0  0  0  0  0  0  0  0  0  0  0
   -1.4030    0.1250    2.3360 C   0  0  0  0  0  0  0  0  0  0  0  0
   -1.1000    0.3100    0.9920 C   0  0  0  0  0  0  0  0  0  0  0  0
   -1.1400   -0.8850    0.0760 C   0  0  1  0  0  0  0  0  0  0  0  0
   -2.5770   -0.9450   -0.4140 C   0  0  0  0  0  0  0  0  0  0  0  0
   -2.5930   -0.8160   -1.7180 C   0  0  0  0  0  0  0  0  0  0  0  0
   -3.7420   -0.8190   -2.5410 O   0  0  0  0  0  0  0  0  0  0  0  0
   -4.8720   -1.5850   -2.1780 C   0  0  1  0  0  0  0  0  0  0  0  0
   -5.9210   -1.3840   -3.2440 C   0  0  0  0  0  0  0  0  0  0  0  0
   -7.2810   -1.2190   -2.5690 C   0  0  0  0  0  0  0  0  0  0  0  0
   -8.0310   -2.5380   -2.5380 C   0  0  0  0  0  0  0  0  0  0  0  0
   -7.5960   -3.3250   -1.3300 C   0  0  0  0  0  0  0  0  0  0  0  0
   -6.5250   -4.3080   -1.6820 C   0  0  0  0  0  0  0  0  0  0  0  0
   -5.1680   -3.8550   -1.1730 C   0  0  0  0  0  0  0  0  0  0  0  0
   -4.4420   -3.0440   -2.2230 C   0  0  1  0  0  0  0  0  0  0  0  0
   -4.6940   -3.6230   -3.4590 O   0  0  0  0  0  0  0  0  0  0  0  0
   -1.2260   -0.6720   -2.1740 C   0  0  0  0  0  0  0  0  0  0  0  0
   -0.3610   -0.7120   -1.1460 C   0  0  0  0  0  0  0  0  0  0  0  0
    1.0880   -0.5990   -1.3190 C   0  0  0  0  0  0  0  0  0  0  0  0
    1.9700   -0.6450   -0.3610 C   0  0  0  0  0  0  0  0  0  0  0  0
    1.6900   -0.8520    1.3790 S   0  0  0  0  0  0  0  0  0  0  0  0
    3.3640   -1.5000    1.6960 C   0  0  0  0  0  0  0  0  0  0  0  0
    3.6670   -2.2090    2.6860 N   0  0  0  0  0  0  0  0  0  0  0  0
    4.1140   -1.0060    0.6010 N   0  0  0  0  0  0  0  0  0  0  0  0
    5.5900   -0.9950    0.6690 C   0  0  0  0  0  0  0  0  0  0  0  0
    6.0220    0.3170    1.2580 C   0  0  2  0  0  0  0  0  0  0  0  0
    5.5390    1.3340    0.4020 O   0  0  0  0  0  0  0  0  0  0  0  0
    7.5000    0.4350    1.2180 C   0  0  0  0  0  0  0  0  0  0  0  0
    8.3560   -0.4680    0.7250 N   0  0  0  0  0  0  0  0  0  0  0  0
    9.6240   -0.0580    0.8410 C   0  0  0  0  0  0  0  0  0  0  0  0
    9.5650    1.1810    1.4440 C   0  0  0  0  0  0  0  0  0  0  0  0
    8.2450    1.4910    1.6800 C   0  0  0  0  0  0  0  0  0  0  0  0
    7.7260    2.7540    2.3270 C   0  0  2  0  0  0  0  0  0  0  0  0
    6.8980    2.4480    3.3780 F   0  0  0  0  0  0  0  0  0  0  0  0
    6.9870    3.4240    1.3700 F   0  0  0  0  0  0  0  0  0  0  0  0
    3.4000   -0.5500   -0.4950 C   0  0  0  0  0  0  0  0  0  0  0  0
    3.9270   -0.0740   -1.5640 O   0  0  0  0  0  0  0  0  0  0  0  0
   -0.7740    1.5700    0.5620 C   0  0  0  0  0  0  0  0  0  0  0  0
  1  2  1  0
  2  3  1  0
  3  4  1  0
  4  5  2  0
  4  6  1  0
  6  7  2  0
  6 45  1  0
  7  8  1  0
  8  9  2  0
  9 10  1  0
 11 10  1  1
 10 45  2  0
 11 12  1  0
 11 25  1  0
 12 13  2  0
 13 14  1  0
 13 24  1  0
 15 14  1  6
 15 16  1  0
 15 22  1  0
 16 17  1  0
 17 18  1  0
 18 19  1  0
 19 20  1  0
 20 21  1  0
 21 22  1  0
 22 23  1  6
 24 25  2  0
 25 26  1  0
 26 27  2  3
 27 28  1  0
 27 43  1  0
 28 29  1  0
 29 30  2  0
 29 31  1  0
 31 32  1  0
 31 43  1  0
 32 33  1  0
 33 34  1  6
 33 35  1  0
 35 36  1  0
 35 39  2  0
 36 37  1  0
 37 38  2  0
 38 39  1  0
 39 40  1  0
 40 41  1  1
 40 42  1  0
 43 44  2  0
M  END
