
     RDKit          3D

 45 47  0  0  0  0  0  0  0  0999 V2000
   -6.5960    2.5750    1.9810 N   0  0  0  0  0  0  0  0  0  0  0  0
   -6.5010    1.2410    1.4550 C   0  0  0  0  0  0  0  0  0  0  0  0
   -7.2080    0.3710    2.0250 O   0  0  0  0  0  0  0  0  0  0  0  0
   -5.6350    0.9140    0.3400 C   0  0  2  0  0  0  0  0  0  0  0  0
   -6.2110    1.2030   -1.0240 C   0  0  0  0  0  0  0  0  0  0  0  0
   -6.6060    2.6140   -1.2630 C   0  0  0  0  0  0  0  0  0  0  0  0
   -7.7930    2.9860   -0.4960 C   0  0  0  0  0  0  0  0  0  0  0  0
   -8.5890    2.0990   -0.0960 O   0  0  0  0  0  0  0  0  0  0  0  0
   -8.0470    4.3070   -0.2060 O   0  0  0  0  0  0  0  0  0  0  0  0
   -5.4100   -0.5550    0.2920 N   0  0  0  0  0  0  0  0  0  0  0  0
   -4.0810   -1.0240    0.2980 C   0  0  0  0  0  0  0  0  0  0  0  0
   -3.1690   -0.1170    0.3540 O   0  0  0  0  0  0  0  0  0  0  0  0
   -3.6350   -2.4000    0.2350 C   0  0  2  0  0  0  0  0  0  0  0  0
   -3.7640   -3.3230    1.3700 C   0  0  0  0  0  0  0  0  0  0  0  0
   -5.0590   -3.6550    1.9710 C   0  0  0  0  0  0  0  0  0  0  0  0
   -5.7460   -2.5590    2.6560 C   0  0  0  0  0  0  0  0  0  0  0  0
   -7.0150   -2.5530    2.8170 O   0  0  0  0  0  0  0  0  0  0  0  0
   -5.0230   -1.4980    3.1520 O   0  0  0  0  0  0  0  0  0  0  0  0
   -2.1830   -2.4290   -0.1140 N   0  0  0  0  0  0  0  0  0  0  0  0
   -1.2330   -1.9160    0.7610 C   0  0  0  0  0  0  0  0  0  0  0  0
   -1.5170   -1.4080    1.8930 O   0  0  0  0  0  0  0  0  0  0  0  0
    0.2160   -1.9310    0.4110 C   0  0  1  0  0  0  0  0  0  0  0  0
    0.6480   -3.3450    0.2350 C   0  0  0  0  0  0  0  0  0  0  0  0
    0.4340   -4.0800    1.4950 C   0  0  0  0  0  0  0  0  0  0  0  0
   -0.7060   -4.4890    1.7840 O   0  0  0  0  0  0  0  0  0  0  0  0
    1.4780   -4.3250    2.3640 O   0  0  0  0  0  0  0  0  0  0  0  0
    0.3440   -1.1040   -0.8480 C   0  0  0  0  0  0  0  0  0  0  0  0
    1.7460   -1.0350   -1.3010 C   0  0  0  0  0  0  0  0  0  0  0  0
    2.6880   -0.0820   -0.9420 C   0  0  0  0  0  0  0  0  0  0  0  0
    3.8610   -0.3940   -1.5940 C   0  0  0  0  0  0  0  0  0  0  0  0
    5.1140    0.3370   -1.5170 C   0  0  0  0  0  0  0  0  0  0  0  0
    5.2150    1.4710   -0.7090 C   0  0  0  0  0  0  0  0  0  0  0  0
    6.3840    2.1910   -0.6160 C   0  0  0  0  0  0  0  0  0  0  0  0
    7.4940    1.7980   -1.3310 C   0  0  0  0  0  0  0  0  0  0  0  0
    8.7330    2.5690   -1.2260 C   0  0  0  0  0  0  0  0  0  0  0  0
    8.6820    3.9320   -1.0070 C   0  0  0  0  0  0  0  0  0  0  0  0
    9.8620    4.6340   -0.9120 C   0  0  0  0  0  0  0  0  0  0  0  0
   11.0990    4.0440   -1.0230 C   0  0  0  0  0  0  0  0  0  0  0  0
   11.1160    2.6790   -1.2410 C   0  0  0  0  0  0  0  0  0  0  0  0
   12.6610    1.8470   -1.3950 Cl  0  0  0  0  0  0  0  0  0  0  0  0
    9.9500    1.9570   -1.3400 C   0  0  0  0  0  0  0  0  0  0  0  0
    7.4230    0.6880   -2.1320 C   0  0  0  0  0  0  0  0  0  0  0  0
    6.2480   -0.0120   -2.2080 C   0  0  0  0  0  0  0  0  0  0  0  0
    3.5900   -1.4970   -2.3040 N   0  0  0  0  0  0  0  0  0  0  0  0
    2.3430   -1.8560   -2.1170 O   0  0  0  0  0  0  0  0  0  0  0  0
  1  2  1  0
  2  3  2  0
  2  4  1  0
  4  5  1  6
  4 10  1  0
  5  6  1  0
  6  7  1  0
  7  8  2  0
  7  9  1  0
 10 11  1  0
 11 12  2  0
 11 13  1  0
 13 14  1  1
 13 19  1  0
 14 15  1  0
 15 16  1  0
 16 17  2  0
 16 18  1  0
 19 20  1  0
 20 21  2  0
 20 22  1  0
 22 23  1  6
 22 27  1  0
 23 24  1  0
 24 25  2  0
 24 26  1  0
 27 28  1  0
 28 29  2  0
 28 45  1  0
 29 30  1  0
 30 31  1  0
 30 44  2  0
 31 32  2  0
 31 43  1  0
 32 33  1  0
 33 34  2  0
 34 35  1  0
 34 42  1  0
 35 36  2  0
 35 41  1  0
 36 37  1  0
 37 38  2  0
 38 39  1  0
 39 40  1  0
 39 41  2  0
 42 43  2  0
 44 45  1  0
M  END
