
     RDKit          3D

 45 49  0  0  0  0  0  0  0  0999 V2000
   -6.8970   -3.3120    0.7850 C   0  0  0  0  0  0  0  0  0  0  0  0
   -6.3550   -3.3480   -0.6040 C   0  0  0  0  0  0  0  0  0  0  0  0
   -5.9170   -1.9790   -1.1240 C   0  0  1  0  0  0  0  0  0  0  0  0
   -7.0400   -1.0040   -1.1480 C   0  0  0  0  0  0  0  0  0  0  0  0
   -6.4350    0.3740   -1.3320 C   0  0  1  0  0  0  0  0  0  0  0  0
   -7.4340    1.2270   -1.6900 F   0  0  0  0  0  0  0  0  0  0  0  0
   -5.7380    0.7030   -0.0560 C   0  0  1  0  0  0  0  0  0  0  0  0
   -5.3330    2.1510   -0.0720 C   0  0  0  0  0  0  0  0  0  0  0  0
   -6.5230    3.0770    0.0050 C   0  0  0  0  0  0  0  0  0  0  0  0
   -7.5560    2.6460    0.9940 C   0  0  0  0  0  0  0  0  0  0  0  0
   -7.8480    1.2340    0.8780 N   0  0  0  0  0  0  0  0  0  0  0  0
   -6.6270    0.5100    1.1580 C   0  0  0  0  0  0  0  0  0  0  0  0
   -4.5410   -0.2070    0.1050 C   0  0  2  0  0  0  0  0  0  0  0  0
   -3.4030    0.5110   -0.4380 N   0  0  0  0  0  0  0  0  0  0  0  0
   -2.1900    0.9400    0.6510 S   0  0  2  0  0  0  0  0  0  0  0  0
   -2.5800    0.6690    2.0900 O   0  0  0  0  0  0  0  0  0  0  0  0
   -2.0040    2.4480    0.5740 O   0  0  0  0  0  0  0  0  0  0  0  0
   -0.6840    0.1750    0.2690 C   0  0  0  0  0  0  0  0  0  0  0  0
    0.3610    1.0120   -0.1750 C   0  0  0  0  0  0  0  0  0  0  0  0
    1.5640    0.4550   -0.5200 C   0  0  0  0  0  0  0  0  0  0  0  0
    2.6770    1.3100   -0.9850 C   0  0  0  0  0  0  0  0  0  0  0  0
    2.5280    2.0870   -1.9590 O   0  0  0  0  0  0  0  0  0  0  0  0
    3.9700    1.2650   -0.3170 C   0  0  0  0  0  0  0  0  0  0  0  0
    4.0620    0.6690    0.9380 C   0  0  0  0  0  0  0  0  0  0  0  0
    5.2760    0.6200    1.5860 C   0  0  0  0  0  0  0  0  0  0  0  0
    6.4200    1.1520    1.0180 C   0  0  0  0  0  0  0  0  0  0  0  0
    7.6070    1.0670    1.7260 O   0  0  0  0  0  0  0  0  0  0  0  0
    8.7300    0.4110    1.2490 C   0  0  0  0  0  0  0  0  0  0  0  0
    9.9210    1.1030    1.0680 C   0  0  0  0  0  0  0  0  0  0  0  0
   11.0630    0.5100    0.6010 C   0  0  0  0  0  0  0  0  0  0  0  0
   11.0340   -0.8250    0.2950 C   0  0  0  0  0  0  0  0  0  0  0  0
    9.8600   -1.5620    0.4600 C   0  0  0  0  0  0  0  0  0  0  0  0
    9.8630   -3.0070    0.1190 C   0  0  0  0  0  0  0  0  0  0  0  0
    8.7450   -0.9360    0.9280 C   0  0  0  0  0  0  0  0  0  0  0  0
    7.6180   -1.6460    1.0850 F   0  0  0  0  0  0  0  0  0  0  0  0
    6.3250    1.7400   -0.2240 C   0  0  0  0  0  0  0  0  0  0  0  0
    7.4610    2.2840   -0.8200 O   0  0  0  0  0  0  0  0  0  0  0  0
    7.3780    2.8910   -2.0920 C   0  0  0  0  0  0  0  0  0  0  0  0
    5.1090    1.7800   -0.8550 C   0  0  0  0  0  0  0  0  0  0  0  0
    1.7230   -0.9120   -0.4250 C   0  0  0  0  0  0  0  0  0  0  0  0
    2.8190   -1.4780   -0.7340 O   0  0  0  0  0  0  0  0  0  0  0  0
    0.7080   -1.6810    0.0020 N   0  0  0  0  0  0  0  0  0  0  0  0
   -0.5100   -1.1680    0.3570 C   0  0  0  0  0  0  0  0  0  0  0  0
   -1.5560   -2.0730    0.8430 C   0  0  0  0  0  0  0  0  0  0  0  0
   -4.6350   -1.5300   -0.5360 C   0  0  0  0  0  0  0  0  0  0  0  0
  1  2  1  0
  3  2  1  1
  3  4  1  0
  3 45  1  0
  4  5  1  0
  5  6  1  1
  5  7  1  0
  7  8  1  6
  7 12  1  0
  7 13  1  0
  8  9  1  0
  9 10  1  0
 10 11  1  0
 11 12  1  0
 13 14  1  6
 13 45  1  0
 15 14  1  6
 15 16  2  0
 15 17  2  0
 15 18  1  0
 18 19  1  0
 18 43  2  0
 19 20  2  0
 20 21  1  0
 20 40  1  0
 21 22  2  0
 21 23  1  0
 23 24  2  0
 23 39  1  0
 24 25  1  0
 25 26  2  0
 26 27  1  0
 26 36  1  0
 27 28  1  0
 28 29  2  0
 28 34  1  0
 29 30  1  0
 30 31  2  0
 31 32  1  0
 32 33  1  0
 32 34  2  0
 34 35  1  0
 36 37  1  0
 36 39  2  0
 37 38  1  0
 40 41  2  0
 40 42  1  0
 42 43  1  0
 43 44  1  0
M  END
