
     RDKit          3D

 45 48  0  0  0  0  0  0  0  0999 V2000
    1.7040   -3.3870    4.6560 C   0  0  0  0  0  0  0  0  0  0  0  0
    1.5330   -4.2960    3.5550 N   0  0  0  0  0  0  0  0  0  0  0  0
    1.9590   -3.9290    2.2600 C   0  0  0  0  0  0  0  0  0  0  0  0
    1.7440   -4.9960    1.0430 S   0  0  0  0  0  0  0  0  0  0  0  0
    2.5860   -2.6030    2.0190 C   0  0  1  0  0  0  0  0  0  0  0  0
    2.9860   -2.5550    0.5430 C   0  0  0  0  0  0  0  0  0  0  0  0
    2.5380   -1.1460    0.1460 C   0  0  2  0  0  0  0  0  0  0  0  0
    1.3050   -0.9410    0.9050 C   0  0  0  0  0  0  0  0  0  0  0  0
    0.1560   -0.3860    0.4480 C   0  0  0  0  0  0  0  0  0  0  0  0
   -0.9510   -0.2650    1.3860 C   0  0  0  0  0  0  0  0  0  0  0  0
   -2.1910   -0.6510    1.4400 C   0  0  0  0  0  0  0  0  0  0  0  0
   -2.9250   -0.2870    2.6120 F   0  0  0  0  0  0  0  0  0  0  0  0
   -3.0440   -1.4200    0.5460 C   0  0  0  0  0  0  0  0  0  0  0  0
   -3.4610   -2.6210    1.0070 C   0  0  0  0  0  0  0  0  0  0  0  0
   -4.3330   -3.5190    0.2020 C   0  0  0  0  0  0  0  0  0  0  0  0
   -5.5990   -3.7280    0.9600 C   0  0  0  0  0  0  0  0  0  0  0  0
   -6.4450   -4.5550    0.2840 O   0  0  0  0  0  0  0  0  0  0  0  0
   -6.8100   -4.0750   -0.9650 C   0  0  0  0  0  0  0  0  0  0  0  0
   -3.4850   -1.0750   -0.7120 O   0  0  0  0  0  0  0  0  0  0  0  0
   -4.2390    0.0140   -1.1760 C   0  0  0  0  0  0  0  0  0  0  0  0
   -4.2300    1.2210   -0.2810 C   0  0  0  0  0  0  0  0  0  0  0  0
   -4.1940    2.4850   -1.0340 N   0  0  0  0  0  0  0  0  0  0  0  0
   -3.1130    3.3980   -0.9730 C   0  0  0  0  0  0  0  0  0  0  0  0
   -3.4120    4.6290   -0.8880 O   0  0  0  0  0  0  0  0  0  0  0  0
   -1.6610    2.9690   -1.0050 C   0  0  1  0  0  0  0  0  0  0  0  0
   -0.9870    3.6430    0.1470 C   0  0  0  0  0  0  0  0  0  0  0  0
   -1.1750    3.2740    1.4610 C   0  0  0  0  0  0  0  0  0  0  0  0
   -0.5500    3.8930    2.5230 C   0  0  0  0  0  0  0  0  0  0  0  0
    0.3180    4.9400    2.3130 C   0  0  0  0  0  0  0  0  0  0  0  0
    0.9430    5.5610    3.3570 F   0  0  0  0  0  0  0  0  0  0  0  0
    0.5320    5.3380    1.0120 C   0  0  0  0  0  0  0  0  0  0  0  0
   -0.1010    4.7090   -0.0370 C   0  0  0  0  0  0  0  0  0  0  0  0
   -1.6340    1.6180   -1.0390 O   0  0  0  0  0  0  0  0  0  0  0  0
   -1.0010    0.5990   -1.6400 C   0  0  0  0  0  0  0  0  0  0  0  0
   -1.2450    0.0850   -2.7930 O   0  0  0  0  0  0  0  0  0  0  0  0
    0.1370   -0.0850   -0.9630 C   0  0  0  0  0  0  0  0  0  0  0  0
    1.1680   -0.3610   -1.7440 C   0  0  0  0  0  0  0  0  0  0  0  0
    2.4200   -0.9940   -1.2890 C   0  0  1  0  0  0  0  0  0  0  0  0
    3.6330   -0.3790   -1.9620 C   0  0  0  0  0  0  0  0  0  0  0  0
    3.9650    0.9900   -1.4770 C   0  0  0  0  0  0  0  0  0  0  0  0
    5.2060    1.4350   -2.2730 C   0  0  0  0  0  0  0  0  0  0  0  0
    5.6390    2.8030   -1.8740 C   0  0  0  0  0  0  0  0  0  0  0  0
    6.7570    3.1940   -2.5820 O   0  0  0  0  0  0  0  0  0  0  0  0
    6.5940    3.2500   -3.9360 C   0  0  0  0  0  0  0  0  0  0  0  0
    1.6490   -1.5010    2.2020 N   0  0  0  0  0  0  0  0  0  0  0  0
  1  2  1  0
  2  3  1  0
  3  4  2  0
  5  3  1  6
  5  6  1  0
  5 45  1  0
  7  6  1  6
  7  8  1  0
  7 38  1  0
  8  9  2  0
  8 45  1  0
  9 10  1  0
  9 36  1  0
 10 11  2  0
 11 12  1  0
 11 13  1  0
 13 14  2  3
 13 19  1  0
 14 15  1  0
 15 16  1  0
 16 17  1  0
 17 18  1  0
 19 20  1  0
 20 21  1  0
 21 22  1  0
 22 23  1  0
 23 24  2  0
 23 25  1  0
 25 26  1  1
 25 33  1  0
 26 27  2  0
 26 32  1  0
 27 28  1  0
 28 29  2  0
 29 30  1  0
 29 31  1  0
 31 32  2  0
 33 34  1  0
 34 35  2  0
 34 36  1  0
 36 37  2  0
 37 38  1  0
 38 39  1  1
 39 40  1  0
 40 41  1  0
 41 42  1  0
 42 43  1  0
 43 44  1  0
M  END
