
     RDKit          3D

 45 49  0  0  0  0  0  0  0  0999 V2000
    7.9190    2.1980    1.3170 C   0  0  0  0  0  0  0  0  0  0  0  0
    7.5490    3.1810    0.2190 C   0  0  1  0  0  0  0  0  0  0  0  0
    6.5570    4.2020    0.7170 C   0  0  0  0  0  0  0  0  0  0  0  0
    8.7190    3.8700   -0.0900 O   0  0  0  0  0  0  0  0  0  0  0  0
    7.0980    2.4500   -1.0190 C   0  0  0  0  0  0  0  0  0  0  0  0
    5.8990    1.5970   -0.7710 C   0  0  0  0  0  0  0  0  0  0  0  0
    5.9950    0.2840   -0.3520 C   0  0  0  0  0  0  0  0  0  0  0  0
    4.8610   -0.4710   -0.1330 C   0  0  0  0  0  0  0  0  0  0  0  0
    3.5870    0.0320   -0.3180 C   0  0  0  0  0  0  0  0  0  0  0  0
    2.4170   -0.8230   -0.0610 C   0  0  0  0  0  0  0  0  0  0  0  0
    1.1160   -0.4180   -0.2170 C   0  0  0  0  0  0  0  0  0  0  0  0
    0.0250   -1.2670    0.0390 C   0  0  0  0  0  0  0  0  0  0  0  0
   -1.2120   -0.8360   -0.1120 O   0  0  0  0  0  0  0  0  0  0  0  0
   -1.9120    0.2620   -0.4770 C   0  0  0  0  0  0  0  0  0  0  0  0
   -1.7090    1.5310    0.2920 C   0  0  2  0  0  0  0  0  0  0  0  0
   -1.9680    1.2210    1.6510 O   0  0  0  0  0  0  0  0  0  0  0  0
   -2.8910    2.4370   -0.0800 C   0  0  0  0  0  0  0  0  0  0  0  0
   -2.8470    3.7050    0.5830 N   0  0  0  0  0  0  0  0  0  0  0  0
   -3.3340    3.9390    1.8300 C   0  0  0  0  0  0  0  0  0  0  0  0
   -3.1020    5.2160    2.1430 N   0  0  0  0  0  0  0  0  0  0  0  0
   -2.4940    5.7560    1.1290 N   0  0  0  0  0  0  0  0  0  0  0  0
   -2.3230    4.8360    0.1430 C   0  0  0  0  0  0  0  0  0  0  0  0
   -1.6770    5.1790   -1.1430 C   0  0  0  0  0  0  0  0  0  0  0  0
   -2.6810    5.7120   -2.1500 C   0  0  0  0  0  0  0  0  0  0  0  0
   -3.6900    4.8230   -2.4600 O   0  0  0  0  0  0  0  0  0  0  0  0
    0.2650   -2.5470    0.4570 C   0  0  0  0  0  0  0  0  0  0  0  0
   -0.5590   -3.5840    0.7790 C   0  0  0  0  0  0  0  0  0  0  0  0
   -1.9550   -3.8040    0.7040 C   0  0  1  0  0  0  0  0  0  0  0  0
   -2.3240   -4.8250    1.7860 C   0  0  0  0  0  0  0  0  0  0  0  0
   -2.8800   -6.0990    1.2370 C   0  0  0  0  0  0  0  0  0  0  0  0
   -3.9080   -5.5990   -0.1720 S   0  0  0  0  0  0  0  0  0  0  0  0
   -4.3070   -3.8540    0.0530 C   0  0  2  0  0  0  0  0  0  0  0  0
   -5.4220   -3.7350    1.0190 C   0  0  0  0  0  0  0  0  0  0  0  0
   -4.8260   -3.4000   -1.3080 C   0  0  0  0  0  0  0  0  0  0  0  0
   -6.0110   -4.1670   -1.7260 C   0  0  1  0  0  0  0  0  0  0  0  0
   -7.0690   -4.0390   -0.8620 F   0  0  0  0  0  0  0  0  0  0  0  0
   -6.4380   -3.7970   -3.0150 F   0  0  0  0  0  0  0  0  0  0  0  0
   -3.0690   -2.9970    0.4510 C   0  0  1  0  0  0  0  0  0  0  0  0
   -3.5060   -2.3140    1.5850 O   0  0  0  0  0  0  0  0  0  0  0  0
    0.3240   -4.6250    1.1390 C   0  0  0  0  0  0  0  0  0  0  0  0
    1.6200   -4.2270    1.0340 C   0  0  0  0  0  0  0  0  0  0  0  0
    1.6840   -2.9320    0.6100 C   0  0  0  0  0  0  0  0  0  0  0  0
    2.6050   -2.0700    0.3470 O   0  0  0  0  0  0  0  0  0  0  0  0
    3.4840    1.3370   -0.7350 C   0  0  0  0  0  0  0  0  0  0  0  0
    4.6340    2.1110   -0.9580 C   0  0  0  0  0  0  0  0  0  0  0  0
  2  1  1  1
  2  3  1  0
  2  4  1  0
  2  5  1  0
  5  6  1  0
  6  7  2  0
  6 45  1  0
  7  8  1  0
  8  9  2  0
  9 10  1  0
  9 44  1  0
 10 11  2  0
 10 43  1  0
 11 12  1  0
 12 13  1  0
 12 26  2  0
 13 14  1  0
 14 15  1  0
 15 16  1  1
 15 17  1  0
 17 18  1  0
 18 19  1  0
 18 22  1  0
 19 20  2  0
 20 21  1  0
 21 22  2  0
 22 23  1  0
 23 24  1  0
 24 25  1  0
 26 27  1  0
 26 42  1  0
 28 27  1  1
 27 40  2  0
 28 29  1  0
 28 38  1  0
 29 30  1  0
 30 31  1  0
 31 32  1  0
 32 33  1  1
 32 34  1  0
 32 38  1  0
 34 35  1  0
 35 36  1  1
 35 37  1  0
 38 39  1  1
 40 41  1  0
 41 42  2  0
 42 43  1  0
 44 45  2  0
M  END
