
     RDKit          3D

 13 14  0  0  0  0  0  0  0  0999 V2000
   -2.0700   -0.2880   -1.7150 N   0  0  0  0  0  0  0  0  0  0  0  0
   -1.8200   -0.9710   -0.4610 C   0  0  2  0  0  0  0  0  0  0  0  0
   -2.8970   -0.4780    0.5190 C   0  0  0  0  0  0  0  0  0  0  0  0
   -2.3460   -0.2430    1.7830 O   0  0  0  0  0  0  0  0  0  0  0  0
   -1.5070    0.8960    1.7520 C   0  0  0  0  0  0  0  0  0  0  0  0
   -0.6060    0.8420    0.5850 C   0  0  1  0  0  0  0  0  0  0  0  0
    0.7160    1.1080    0.8100 O   0  0  0  0  0  0  0  0  0  0  0  0
    1.4550    0.1470    0.1210 C   0  0  2  0  0  0  0  0  0  0  0  0
    2.6010    0.7340   -0.6470 C   0  0  0  0  0  0  0  0  0  0  0  0
    3.3060   -0.4360   -1.3420 C   0  0  0  0  0  0  0  0  0  0  0  0
    4.4010    0.0310   -2.0900 O   0  0  0  0  0  0  0  0  0  0  0  0
    0.5580   -0.5430   -0.6960 O   0  0  0  0  0  0  0  0  0  0  0  0
   -0.5190   -0.6290    0.1390 C   0  0  2  0  0  0  0  0  0  0  0  0
  2  1  1  6
  2  3  1  0
  2 13  1  0
  3  4  1  0
  4  5  1  0
  6  5  1  1
  6  7  1  0
  6 13  1  0
  7  8  1  0
  8  9  1  6
  8 12  1  0
  9 10  1  0
 10 11  1  0
 13 12  1  6
M  CHG  1   1   1
M  END
