
     RDKit          3D

 13 14  0  0  0  0  0  0  0  0999 V2000
    2.7950   -0.3620   -0.9960 N   0  0  0  0  0  0  0  0  0  0  0  0
    1.8380   -0.2750    0.0450 C   0  0  1  0  0  0  0  0  0  0  0  0
    1.9600    0.9910    0.8800 C   0  0  0  0  0  0  0  0  0  0  0  0
    0.5620    1.2920    1.3880 C   0  0  0  0  0  0  0  0  0  0  0  0
   -0.2150    0.0830    0.9820 C   0  0  1  0  0  0  0  0  0  0  0  0
   -1.5660    0.2810    0.8560 O   0  0  0  0  0  0  0  0  0  0  0  0
   -2.2010   -0.5930    0.0230 C   0  0  1  0  0  0  0  0  0  0  0  0
   -2.9740    0.1610   -0.9840 C   0  0  0  0  0  0  0  0  0  0  0  0
   -3.6590   -0.3880   -1.8840 O   0  0  0  0  0  0  0  0  0  0  0  0
   -2.9440    1.5450   -0.9380 O   0  0  0  0  0  0  0  0  0  0  0  0
   -1.3450   -1.6670   -0.5580 C   0  0  0  0  0  0  0  0  0  0  0  0
   -0.1070   -1.2730   -0.9880 O   0  0  0  0  0  0  0  0  0  0  0  0
    0.4150   -0.1790   -0.3960 C   0  0  2  0  0  0  0  0  0  0  0  0
  2  1  1  6
  2  3  1  0
  2 13  1  0
  3  4  1  0
  5  4  1  6
  5  6  1  0
  5 13  1  0
  6  7  1  0
  7  8  1  6
  7 11  1  0
  8  9  2  0
  8 10  1  0
 11 12  1  0
 13 12  1  1
M  CHG  1   1   1
M  END
