
     RDKit          3D

 13 13  0  0  0  0  0  0  0  0999 V2000
    2.8790   -1.0470    0.3830 O   0  0  0  0  0  0  0  0  0  0  0  0
    3.1930    0.1790   -0.2130 C   0  0  2  0  0  0  0  0  0  0  0  0
    3.3700    1.0930    0.8050 O   0  0  0  0  0  0  0  0  0  0  0  0
    2.0210    0.5670   -1.1160 C   0  0  0  0  0  0  0  0  0  0  0  0
    0.8170    0.6910   -0.3430 N   0  0  0  0  0  0  0  0  0  0  0  0
   -0.2430   -0.1970   -0.8050 C   0  0  1  0  0  0  0  0  0  0  0  0
   -0.5080   -1.2850    0.1740 C   0  0  0  0  0  0  0  0  0  0  0  0
   -1.9160   -1.3570    0.6670 C   0  0  1  0  0  0  0  0  0  0  0  0
   -1.9280   -2.1970    1.7930 O   0  0  0  0  0  0  0  0  0  0  0  0
   -2.5070   -0.0530    1.0690 C   0  0  0  0  0  0  0  0  0  0  0  0
   -1.9270    1.1280    0.3370 C   0  0  0  0  0  0  0  0  0  0  0  0
   -1.4850    0.6340   -1.0270 C   0  0  1  0  0  0  0  0  0  0  0  0
   -1.1960    1.6870   -1.8890 O   0  0  0  0  0  0  0  0  0  0  0  0
  2  1  1  1
  2  3  1  0
  2  4  1  0
  4  5  1  0
  6  5  1  1
  6  7  1  0
  6 12  1  0
  7  8  1  0
  8  9  1  1
  8 10  1  0
 10 11  1  0
 11 12  1  0
 12 13  1  6
M  CHG  1   5   1
M  END
