
     RDKit          3D

 12 13  0  0  0  0  0  0  0  0999 V2000
   -3.1160   -0.1310   -0.8700 N   0  0  0  0  0  0  0  0  0  0  0  0
   -1.7200    0.1670   -0.9170 C   0  0  1  0  0  0  0  0  0  0  0  0
   -1.4700    1.2950    0.0940 C   0  0  0  0  0  0  0  0  0  0  0  0
   -0.0930    1.7800   -0.2300 C   0  0  0  0  0  0  0  0  0  0  0  0
    0.8940    0.7310    0.1470 C   0  0  2  0  0  0  0  0  0  0  0  0
    2.1170    1.1060   -0.4650 O   0  0  0  0  0  0  0  0  0  0  0  0
    3.0800    0.1870   -0.0540 C   0  0  0  0  0  0  0  0  0  0  0  0
    2.7050   -1.1580   -0.6470 C   0  0  0  0  0  0  0  0  0  0  0  0
    1.4010   -1.1170   -1.1880 O   0  0  0  0  0  0  0  0  0  0  0  0
    0.5360   -0.6590   -0.1620 C   0  0  2  0  0  0  0  0  0  0  0  0
   -0.8500   -0.9820   -0.5160 C   0  0  1  0  0  0  0  0  0  0  0  0
   -1.5220   -1.6510    0.5340 O   0  0  0  0  0  0  0  0  0  0  0  0
  2  1  1  1
  2  3  1  0
  2 11  1  0
  3  4  1  0
  5  4  1  6
  5  6  1  0
  5 10  1  0
  6  7  1  0
  7  8  1  0
  8  9  1  0
 10  9  1  6
 10 11  1  0
 11 12  1  1
M  CHG  1   1   1
M  END
