
     RDKit          3D

 30 32  0  0  0  0  0  0  0  0999 V2000
   -0.3940    0.0210    2.8750 C   0  0  0  0  0  0  0  0  0  0  0  0
   -0.5750    0.8060    1.5970 C   0  0  0  0  0  0  0  0  0  0  0  0
   -0.4800   -0.1240    0.3460 C   0  0  1  0  0  0  0  0  0  0  0  0
    0.8410   -0.7570    0.4710 C   0  0  0  0  0  0  0  0  0  0  0  0
    1.9560    0.2650    0.4520 C   0  0  0  0  0  0  0  0  0  0  0  0
    2.0390    1.1660    1.2700 O   0  0  0  0  0  0  0  0  0  0  0  0
    3.0490    0.2550   -0.5680 C   0  0  1  0  0  0  0  0  0  0  0  0
    2.4250    0.4510   -1.9600 C   0  0  0  0  0  0  0  0  0  0  0  0
    1.7020    1.7640   -2.0680 C   0  0  0  0  0  0  0  0  0  0  0  0
    3.9520    1.4490   -0.3800 C   0  0  2  0  0  0  0  0  0  0  0  0
    4.0750    2.2430   -1.5090 O   0  0  0  0  0  0  0  0  0  0  0  0
    5.2930    0.8430   -0.0650 C   0  0  0  0  0  0  0  0  0  0  0  0
    5.2720   -0.4130   -0.9320 C   0  0  0  0  0  0  0  0  0  0  0  0
    3.8990   -0.9570   -0.5790 C   0  0  2  0  0  0  0  0  0  0  0  0
    3.5220   -1.7700   -1.6550 O   0  0  0  0  0  0  0  0  0  0  0  0
    3.9910   -1.7450    0.6790 C   0  0  0  0  0  0  0  0  0  0  0  0
    4.9240   -2.9610    0.4990 C   0  0  0  0  0  0  0  0  0  0  0  0
   -1.7290   -0.7660    0.2530 C   0  0  0  0  0  0  0  0  0  0  0  0
   -2.0080   -2.0300    0.4060 C   0  0  0  0  0  0  0  0  0  0  0  0
   -0.9190   -2.9490    0.7190 C   0  0  0  0  0  0  0  0  0  0  0  0
   -3.3830   -2.6040    0.2690 C   0  0  0  0  0  0  0  0  0  0  0  0
   -4.4350   -1.7140   -0.0790 C   0  0  0  0  0  0  0  0  0  0  0  0
   -4.2260   -0.4220   -0.2640 C   0  0  0  0  0  0  0  0  0  0  0  0
   -2.8980    0.1200   -0.1140 C   0  0  0  0  0  0  0  0  0  0  0  0
   -2.6990    1.4110   -0.3940 C   0  0  0  0  0  0  0  0  0  0  0  0
   -3.8040    2.3500   -0.7620 C   0  0  1  0  0  0  0  0  0  0  0  0
   -3.3070    3.3880   -1.7410 C   0  0  0  0  0  0  0  0  0  0  0  0
   -4.9270    1.5880   -1.4370 C   0  0  0  0  0  0  0  0  0  0  0  0
   -5.3830    0.4450   -0.6080 C   0  0  2  0  0  0  0  0  0  0  0  0
   -6.0550    0.9910    0.6350 C   0  0  0  0  0  0  0  0  0  0  0  0
  1  2  1  0
  3  2  1  1
  3  4  1  0
  3 18  1  0
  4  5  1  0
  5  6  2  0
  5  7  1  0
  7  8  1  6
  7 10  1  0
  7 14  1  0
  8  9  1  0
 10 11  1  6
 10 12  1  0
 12 13  1  0
 13 14  1  0
 14 15  1  6
 14 16  1  0
 16 17  1  0
 18 19  2  0
 18 24  1  0
 19 20  1  0
 19 21  1  0
 21 22  1  0
 22 23  2  0
 23 24  1  0
 23 29  1  0
 24 25  2  0
 25 26  1  0
 26 27  1  6
 26 28  1  0
 28 29  1  0
 29 30  1  1
M  END
