
     RDKit          3D

 29 32  0  0  0  0  0  0  0  0999 V2000
   -7.6710    0.5740   -0.2590 C   0  0  0  0  0  0  0  0  0  0  0  0
   -6.5520    1.3660   -0.8920 C   0  0  0  0  0  0  0  0  0  0  0  0
   -5.3680    0.5860   -1.0580 N   0  0  0  0  0  0  0  0  0  0  0  0
   -4.9750   -0.2240   -2.1890 C   0  0  0  0  0  0  0  0  0  0  0  0
   -5.6480   -0.3560   -3.2130 O   0  0  0  0  0  0  0  0  0  0  0  0
   -3.6850   -0.7980   -1.8330 C   0  0  0  0  0  0  0  0  0  0  0  0
   -2.8060   -1.6460   -2.4650 C   0  0  0  0  0  0  0  0  0  0  0  0
   -1.6390   -2.0000   -1.8060 C   0  0  0  0  0  0  0  0  0  0  0  0
   -1.3350   -1.5320   -0.5480 C   0  0  0  0  0  0  0  0  0  0  0  0
   -2.2110   -0.6760    0.0990 C   0  0  0  0  0  0  0  0  0  0  0  0
   -1.9310   -0.2020    1.3510 C   0  0  0  0  0  0  0  0  0  0  0  0
   -0.4820   -0.5330    2.2460 S   0  0  1  0  0  0  0  0  0  0  0  0
   -0.6340   -0.0100    3.6710 O   0  0  0  0  0  0  0  0  0  0  0  0
   -0.3230   -2.0490    2.4430 O   0  0  0  0  0  0  0  0  0  0  0  0
    0.9540    0.0860    1.6270 N   0  0  0  0  0  0  0  0  0  0  0  0
    1.9280   -0.8700    1.2910 C   0  0  0  0  0  0  0  0  0  0  0  0
    3.2080   -0.2710    0.7390 C   0  0  2  0  0  0  0  0  0  0  0  0
    3.8730    0.6560    1.7100 C   0  0  0  0  0  0  0  0  0  0  0  0
    4.9900    1.3720    0.9410 C   0  0  0  0  0  0  0  0  0  0  0  0
    5.3030    0.6560   -0.2810 N   0  0  0  0  0  0  0  0  0  0  0  0
    6.5720    0.0480   -0.5020 C   0  0  0  0  0  0  0  0  0  0  0  0
    6.8220   -0.6640   -1.7700 C   0  0  0  0  0  0  0  0  0  0  0  0
    7.4550    0.1260    0.3770 O   0  0  0  0  0  0  0  0  0  0  0  0
    4.2600    0.5810   -1.2860 C   0  0  0  0  0  0  0  0  0  0  0  0
    2.9290    0.4790   -0.5440 C   0  0  0  0  0  0  0  0  0  0  0  0
   -2.9120    0.6450    1.8850 C   0  0  0  0  0  0  0  0  0  0  0  0
   -4.0740    0.9740    1.1880 C   0  0  0  0  0  0  0  0  0  0  0  0
   -4.3280    0.4760   -0.0850 C   0  0  0  0  0  0  0  0  0  0  0  0
   -3.3520   -0.3510   -0.5830 C   0  0  0  0  0  0  0  0  0  0  0  0
  1  2  1  0
  2  3  1  0
  3  4  1  0
  3 28  1  0
  4  5  2  0
  4  6  1  0
  6  7  2  0
  6 29  1  0
  7  8  1  0
  8  9  2  0
  9 10  1  0
 10 11  2  0
 10 29  1  0
 11 12  1  0
 11 26  1  0
 12 13  2  0
 12 14  2  0
 12 15  1  6
 15 16  1  0
 17 16  1  1
 17 18  1  0
 17 25  1  0
 18 19  1  0
 19 20  1  0
 20 21  1  0
 20 24  1  0
 21 22  1  0
 21 23  2  0
 24 25  1  0
 26 27  2  0
 27 28  1  0
 28 29  2  0
M  END
