
     RDKit          3D

 31 34  0  0  0  0  0  0  0  0999 V2000
    9.3560    1.3860   -1.3060 C   0  0  0  0  0  0  0  0  0  0  0  0
    8.0550    1.0940   -0.7850 O   0  0  0  0  0  0  0  0  0  0  0  0
    7.3150    0.0160   -1.2580 C   0  0  0  0  0  0  0  0  0  0  0  0
    7.7400   -0.7170   -2.1230 O   0  0  0  0  0  0  0  0  0  0  0  0
    5.9720   -0.2270   -0.6760 C   0  0  0  0  0  0  0  0  0  0  0  0
    5.2440   -1.3300   -1.0840 C   0  0  0  0  0  0  0  0  0  0  0  0
    3.9660   -1.5440   -0.6320 C   0  0  0  0  0  0  0  0  0  0  0  0
    3.4090   -0.6220    0.2510 C   0  0  0  0  0  0  0  0  0  0  0  0
    2.1350   -0.5420    0.7740 C   0  0  0  0  0  0  0  0  0  0  0  0
    1.1240   -1.6210    0.7230 C   0  0  0  0  0  0  0  0  0  0  0  0
    0.0270   -1.2790   -0.1020 N   0  0  0  0  0  0  0  0  0  0  0  0
   -1.2790   -1.7650    0.0860 C   0  0  0  0  0  0  0  0  0  0  0  0
   -1.6100   -2.4830    1.0530 O   0  0  0  0  0  0  0  0  0  0  0  0
   -2.2980   -1.3810   -0.9240 C   0  0  0  0  0  0  0  0  0  0  0  0
   -1.9270   -1.3740   -2.1030 O   0  0  0  0  0  0  0  0  0  0  0  0
   -3.5880   -1.0440   -0.5590 N   0  0  0  0  0  0  0  0  0  0  0  0
   -4.0990   -0.8430    0.7490 C   0  0  0  0  0  0  0  0  0  0  0  0
   -4.1660   -1.2160    2.0280 C   0  0  0  0  0  0  0  0  0  0  0  0
   -5.0290   -0.3320    2.8040 C   0  0  0  0  0  0  0  0  0  0  0  0
   -5.5060    0.6440    1.8020 C   0  0  0  0  0  0  0  0  0  0  0  0
   -4.9880    0.3610    0.6380 C   0  0  0  0  0  0  0  0  0  0  0  0
   -4.8980    0.7340   -0.8180 C   0  0  2  0  0  0  0  0  0  0  0  0
   -3.5840    1.3840   -1.0760 C   0  0  0  0  0  0  0  0  0  0  0  0
   -6.0920    1.4350   -1.3260 C   0  0  0  0  0  0  0  0  0  0  0  0
   -4.7420   -0.7000   -1.4230 C   0  0  2  0  0  0  0  0  0  0  0  0
   -5.8800   -1.5710   -1.0460 C   0  0  0  0  0  0  0  0  0  0  0  0
    2.0630    0.6200    1.5090 C   0  0  0  0  0  0  0  0  0  0  0  0
    3.2650    1.2520    1.4580 N   0  0  0  0  0  0  0  0  0  0  0  0
    3.6370    2.4570    2.1390 C   0  0  0  0  0  0  0  0  0  0  0  0
    4.0950    0.4810    0.6750 C   0  0  0  0  0  0  0  0  0  0  0  0
    5.3580    0.6440    0.2010 C   0  0  0  0  0  0  0  0  0  0  0  0
  1  2  1  0
  2  3  1  0
  3  4  2  0
  3  5  1  0
  5  6  2  0
  5 31  1  0
  6  7  1  0
  7  8  2  0
  8  9  1  0
  8 30  1  0
  9 10  1  0
  9 27  2  0
 10 11  1  0
 11 12  1  0
 12 13  2  0
 12 14  1  0
 14 15  2  0
 14 16  1  0
 16 17  1  0
 16 25  1  0
 17 18  2  0
 17 21  1  0
 18 19  1  0
 19 20  1  0
 20 21  2  0
 21 22  1  0
 22 23  1  1
 22 24  1  0
 22 25  1  0
 25 26  1  1
 27 28  1  0
 28 29  1  0
 28 30  1  0
 30 31  2  0
M  END
