
     RDKit          3D

 30 32  0  0  0  0  0  0  0  0999 V2000
   -3.4760    2.0520   -2.3540 C   0  0  0  0  0  0  0  0  0  0  0  0
   -2.5400    2.8560   -1.4950 C   0  0  0  0  0  0  0  0  0  0  0  0
   -2.2070    2.3630   -0.3090 C   0  0  0  0  0  0  0  0  0  0  0  0
   -1.3430    3.2070    0.3660 O   0  0  0  0  0  0  0  0  0  0  0  0
   -2.7640    1.1010    0.0810 C   0  0  2  0  0  0  0  0  0  0  0  0
   -3.6500    1.5360    1.1560 O   0  0  0  0  0  0  0  0  0  0  0  0
   -1.8730   -0.0060    0.6580 C   0  0  2  0  0  0  0  0  0  0  0  0
   -1.2260    0.4760    1.8830 C   0  0  0  0  0  0  0  0  0  0  0  0
    0.1750    0.1780    2.2490 C   0  0  0  0  0  0  0  0  0  0  0  0
    0.9220    1.3630    2.7790 C   0  0  0  0  0  0  0  0  0  0  0  0
    2.0810    1.8250    2.4030 C   0  0  0  0  0  0  0  0  0  0  0  0
    3.0710    1.4770    1.4370 C   0  0  0  0  0  0  0  0  0  0  0  0
    3.0910    0.3030    0.5800 C   0  0  2  0  0  0  0  0  0  0  0  0
    4.6190    0.0830    0.2920 C   0  0  0  0  0  0  0  0  0  0  0  0
    5.3300   -0.1460    1.6090 C   0  0  0  0  0  0  0  0  0  0  0  0
    2.5120    0.4520   -0.8000 C   0  0  1  0  0  0  0  0  0  0  0  0
    3.5790    1.1070   -1.7100 C   0  0  0  0  0  0  0  0  0  0  0  0
    2.2850   -0.8880   -1.4550 C   0  0  0  0  0  0  0  0  0  0  0  0
    1.0300   -1.5880   -1.1050 C   0  0  0  0  0  0  0  0  0  0  0  0
   -0.2600   -0.7690   -1.3140 C   0  0  2  0  0  0  0  0  0  0  0  0
   -0.6590   -1.3890   -2.6990 C   0  0  0  0  0  0  0  0  0  0  0  0
    0.2280    0.5480   -1.7680 C   0  0  0  0  0  0  0  0  0  0  0  0
    1.2780    1.2580   -0.9450 C   0  0  0  0  0  0  0  0  0  0  0  0
   -1.2860   -0.9580   -0.2930 C   0  0  1  0  0  0  0  0  0  0  0  0
   -0.6880   -1.9450    0.5800 O   0  0  0  0  0  0  0  0  0  0  0  0
   -2.4330   -1.8240   -0.8570 C   0  0  0  0  0  0  0  0  0  0  0  0
   -2.9330   -2.9610   -0.0850 C   0  0  0  0  0  0  0  0  0  0  0  0
   -2.6350   -3.1980    1.3310 C   0  0  0  0  0  0  0  0  0  0  0  0
   -2.5740   -1.9450    2.1740 C   0  0  0  0  0  0  0  0  0  0  0  0
   -3.0340   -0.8540    1.3250 C   0  0  0  0  0  0  0  0  0  0  0  0
  1  2  1  0
  2  3  2  3
  3  4  1  0
  3  5  1  0
  5  6  1  1
  5  7  1  0
  7  8  1  1
  7 24  1  0
  7 30  1  0
  8  9  1  0
  9 10  1  0
 10 11  2  0
 11 12  1  0
 12 13  1  0
 13 14  1  6
 13 16  1  0
 14 15  1  0
 16 17  1  6
 16 18  1  0
 16 23  1  0
 18 19  1  0
 19 20  1  0
 20 21  1  6
 20 22  1  0
 20 24  1  0
 22 23  1  0
 24 25  1  1
 24 26  1  0
 26 27  1  0
 27 28  1  0
 28 29  1  0
 29 30  1  0
M  END
