
     RDKit          3D

 30 32  0  0  0  0  0  0  0  0999 V2000
    6.5760    1.0660    1.8900 C   0  0  0  0  0  0  0  0  0  0  0  0
    6.2730   -0.2030    1.1090 C   0  0  2  0  0  0  0  0  0  0  0  0
    7.2010   -0.3060    0.0300 O   0  0  0  0  0  0  0  0  0  0  0  0
    4.8960   -0.2250    0.5520 C   0  0  0  0  0  0  0  0  0  0  0  0
    4.5560    0.6850   -0.4340 C   0  0  0  0  0  0  0  0  0  0  0  0
    3.2780    0.6500   -0.9810 C   0  0  0  0  0  0  0  0  0  0  0  0
    2.3340   -0.2550   -0.5820 C   0  0  0  0  0  0  0  0  0  0  0  0
    0.9150   -0.3100   -1.1640 C   0  0  1  0  0  0  0  0  0  0  0  0
    0.9750    0.7570   -2.2330 C   0  0  0  0  0  0  0  0  0  0  0  0
    0.9760   -1.6320   -1.8910 C   0  0  0  0  0  0  0  0  0  0  0  0
    0.0700   -0.1510   -0.0310 C   0  0  0  0  0  0  0  0  0  0  0  0
   -1.3680   -0.1100    0.2280 C   0  0  2  0  0  0  0  0  0  0  0  0
   -2.2040    0.9790   -0.4210 C   0  0  2  0  0  0  0  0  0  0  0  0
   -3.4840    0.7090    0.2190 O   0  0  0  0  0  0  0  0  0  0  0  0
   -2.5970    0.6610   -1.8670 C   0  0  0  0  0  0  0  0  0  0  0  0
   -2.5430    1.9560   -2.6420 C   0  0  0  0  0  0  0  0  0  0  0  0
   -1.7510    2.8880   -1.8560 C   0  0  0  0  0  0  0  0  0  0  0  0
   -1.9420    2.3670   -0.4070 C   0  0  2  0  0  0  0  0  0  0  0  0
   -0.9780    3.1330    0.3960 C   0  0  0  0  0  0  0  0  0  0  0  0
   -3.2960    3.0870   -0.0820 C   0  0  0  0  0  0  0  0  0  0  0  0
   -1.5840    0.0580    1.7290 C   0  0  0  0  0  0  0  0  0  0  0  0
   -2.5120   -0.7630    2.4800 C   0  0  0  0  0  0  0  0  0  0  0  0
   -3.1090   -1.9700    1.9010 C   0  0  0  0  0  0  0  0  0  0  0  0
   -2.0970   -2.4940    0.9070 C   0  0  1  0  0  0  0  0  0  0  0  0
   -0.9450   -3.0210    1.6270 C   0  0  0  0  0  0  0  0  0  0  0  0
   -2.8510   -3.6640    0.2200 C   0  0  0  0  0  0  0  0  0  0  0  0
   -1.9650   -1.4670   -0.1390 C   0  0  1  0  0  0  0  0  0  0  0  0
   -3.2770   -1.3600   -0.6210 O   0  0  0  0  0  0  0  0  0  0  0  0
    2.6620   -1.1600    0.3940 C   0  0  0  0  0  0  0  0  0  0  0  0
    3.9450   -1.1310    0.9490 C   0  0  0  0  0  0  0  0  0  0  0  0
  2  1  1  6
  2  3  1  0
  2  4  1  0
  4  5  2  0
  4 30  1  0
  5  6  1  0
  6  7  2  0
  7  8  1  0
  7 29  1  0
  8  9  1  6
  8 10  1  0
  8 11  1  0
 12 11  1  1
 12 13  1  0
 12 21  1  0
 12 27  1  0
 13 14  1  1
 13 15  1  0
 13 18  1  0
 15 16  1  0
 16 17  1  0
 17 18  1  0
 18 19  1  1
 18 20  1  0
 21 22  1  0
 22 23  1  0
 23 24  1  0
 24 25  1  1
 24 26  1  0
 24 27  1  0
 27 28  1  1
 29 30  2  0
M  END
