
     RDKit          3D

 31 34  0  0  0  0  0  0  0  0999 V2000
   -5.6460    0.4900    1.5360 C   0  0  0  0  0  0  0  0  0  0  0  0
   -4.4650   -0.0200    1.1000 C   0  0  0  0  0  0  0  0  0  0  0  0
   -3.4110   -0.1230    2.0800 C   0  0  0  0  0  0  0  0  0  0  0  0
   -2.2760    0.4950    2.3450 C   0  0  0  0  0  0  0  0  0  0  0  0
   -1.6880    1.5190    1.7270 N   0  0  0  0  0  0  0  0  0  0  0  0
   -1.3040    2.5800    1.3210 C   0  0  0  0  0  0  0  0  0  0  0  0
   -0.2920    2.5410    0.2710 N   0  0  0  0  0  0  0  0  0  0  0  0
   -0.1250    3.6660   -0.6220 C   0  0  0  0  0  0  0  0  0  0  0  0
    0.5660    1.3570    0.1160 C   0  0  2  0  0  0  0  0  0  0  0  0
    1.9120    1.7860   -0.3600 C   0  0  0  0  0  0  0  0  0  0  0  0
    2.8180    0.7590   -0.5400 O   0  0  0  0  0  0  0  0  0  0  0  0
    3.3900   -0.1240    0.2950 C   0  0  0  0  0  0  0  0  0  0  0  0
    3.1730   -0.1470    1.6540 C   0  0  0  0  0  0  0  0  0  0  0  0
    3.8030   -1.1010    2.4640 C   0  0  0  0  0  0  0  0  0  0  0  0
    4.6420   -2.0210    1.9110 C   0  0  0  0  0  0  0  0  0  0  0  0
    4.8740   -2.0120    0.5390 C   0  0  0  0  0  0  0  0  0  0  0  0
    4.2610   -1.0820   -0.2550 C   0  0  0  0  0  0  0  0  0  0  0  0
    4.4690   -1.0480   -1.6100 O   0  0  0  0  0  0  0  0  0  0  0  0
    5.5050   -0.2870   -2.2180 C   0  0  0  0  0  0  0  0  0  0  0  0
    5.7610   -3.0380    0.2090 O   0  0  0  0  0  0  0  0  0  0  0  0
    6.0380   -3.7710    1.3880 C   0  0  0  0  0  0  0  0  0  0  0  0
    5.3940   -3.0650    2.4310 O   0  0  0  0  0  0  0  0  0  0  0  0
   -0.0080    0.4520   -0.9800 C   0  0  0  0  0  0  0  0  0  0  0  0
   -1.2610   -0.1670   -0.5790 N   0  0  0  0  0  0  0  0  0  0  0  0
   -2.3360    0.4920   -1.2620 C   0  0  0  0  0  0  0  0  0  0  0  0
   -3.6120   -0.2900   -1.3010 C   0  0  0  0  0  0  0  0  0  0  0  0
   -3.8660   -0.8250   -2.5750 C   0  0  0  0  0  0  0  0  0  0  0  0
   -5.0060   -1.5220   -2.8990 C   0  0  0  0  0  0  0  0  0  0  0  0
   -5.9530   -1.7070   -1.9170 C   0  0  0  0  0  0  0  0  0  0  0  0
   -5.7030   -1.1910   -0.6890 C   0  0  0  0  0  0  0  0  0  0  0  0
   -4.5260   -0.4620   -0.3190 C   0  0  0  0  0  0  0  0  0  0  0  0
  1  2  2  0
  2  3  1  0
  2 31  1  0
  3  4  2  0
  4  5  1  0
  5  6  2  0
  6  7  1  0
  7  8  1  0
  7  9  1  0
  9 10  1  6
  9 23  1  0
 10 11  1  0
 11 12  1  0
 12 13  2  0
 12 17  1  0
 13 14  1  0
 14 15  2  0
 15 16  1  0
 15 22  1  0
 16 17  2  0
 16 20  1  0
 17 18  1  0
 18 19  1  0
 20 21  1  0
 21 22  1  0
 23 24  1  0
 24 25  1  0
 25 26  1  0
 26 27  2  0
 26 31  1  0
 27 28  1  0
 28 29  2  0
 29 30  1  0
 30 31  2  0
M  END
