
     RDKit          3D

 19 20  0  0  0  0  0  0  0  0999 V2000
   -2.9450   -1.5300   -0.7040 C   0  0  0  0  0  0  0  0  0  0  0  0
   -2.5180   -0.0680   -0.6340 C   0  0  0  0  0  0  0  0  0  0  0  0
   -3.1930    0.9470   -1.2160 C   0  0  0  0  0  0  0  0  0  0  0  0
   -2.7780    2.2050   -1.1200 C   0  0  0  0  0  0  0  0  0  0  0  0
   -3.3660    3.7220   -1.7130 Cl  0  0  0  0  0  0  0  0  0  0  0  0
   -1.2540    2.0050   -0.0960 S   0  0  0  0  0  0  0  0  0  0  0  0
   -1.3960    0.2580    0.0540 C   0  0  0  0  0  0  0  0  0  0  0  0
   -0.4370   -0.6260    0.8040 C   0  0  1  0  0  0  0  0  0  0  0  0
   -0.7710   -1.9220    0.5160 O   0  0  0  0  0  0  0  0  0  0  0  0
    0.9610   -0.2880    0.4660 C   0  0  0  0  0  0  0  0  0  0  0  0
    1.5180   -0.5910   -0.7550 C   0  0  0  0  0  0  0  0  0  0  0  0
    0.5810   -1.4160   -1.9820 Cl  0  0  0  0  0  0  0  0  0  0  0  0
    2.8330   -0.2640   -1.0690 C   0  0  0  0  0  0  0  0  0  0  0  0
    3.6340    0.3830   -0.1510 C   0  0  0  0  0  0  0  0  0  0  0  0
    5.3090    0.8040   -0.5410 Cl  0  0  0  0  0  0  0  0  0  0  0  0
    3.0890    0.6930    1.0770 C   0  0  0  0  0  0  0  0  0  0  0  0
    3.8920    1.3540    2.0270 O   0  0  0  0  0  0  0  0  0  0  0  0
    1.7800    0.3670    1.3860 C   0  0  0  0  0  0  0  0  0  0  0  0
    1.1530    0.7970    2.9760 Cl  0  0  0  0  0  0  0  0  0  0  0  0
  1  2  1  0
  2  3  1  0
  2  7  2  0
  3  4  2  0
  4  5  1  0
  4  6  1  0
  6  7  1  0
  7  8  1  0
  8  9  1  6
  8 10  1  0
 10 11  2  0
 10 18  1  0
 11 12  1  0
 11 13  1  0
 13 14  2  0
 14 15  1  0
 14 16  1  0
 16 17  1  0
 16 18  2  0
 18 19  1  0
M  END
