
     RDKit          3D

 18 19  0  0  0  0  0  0  0  0999 V2000
   -4.8250    0.5230    0.7540 C   0  0  0  0  0  0  0  0  0  0  0  0
   -3.3470    0.8780    0.7270 C   0  0  2  0  0  0  0  0  0  0  0  0
   -2.7840    0.8690   -0.6010 C   0  0  0  0  0  0  0  0  0  0  0  0
   -1.7420    0.2640   -1.0290 C   0  0  0  0  0  0  0  0  0  0  0  0
   -1.3480    0.4930   -2.7630 Cl  0  0  0  0  0  0  0  0  0  0  0  0
   -0.8300   -0.5930   -0.2760 C   0  0  0  0  0  0  0  0  0  0  0  0
    0.2720   -1.1680   -0.9560 O   0  0  0  0  0  0  0  0  0  0  0  0
    1.5580   -0.7790   -0.6020 C   0  0  0  0  0  0  0  0  0  0  0  0
    1.7940    0.1490    0.3890 C   0  0  0  0  0  0  0  0  0  0  0  0
    3.0970    0.5200    0.7220 C   0  0  0  0  0  0  0  0  0  0  0  0
    3.4100    1.6920    1.9740 Cl  0  0  0  0  0  0  0  0  0  0  0  0
    4.1590   -0.0450    0.0560 C   0  0  0  0  0  0  0  0  0  0  0  0
    5.4630    0.3340    0.3970 O   0  0  0  0  0  0  0  0  0  0  0  0
    3.9410   -0.9740   -0.9380 C   0  0  0  0  0  0  0  0  0  0  0  0
    2.6420   -1.3230   -1.2470 C   0  0  0  0  0  0  0  0  0  0  0  0
    2.4150   -2.5110   -2.5200 Cl  0  0  0  0  0  0  0  0  0  0  0  0
   -1.0320   -0.8210    0.9930 C   0  0  0  0  0  0  0  0  0  0  0  0
   -2.3880   -0.1220    1.8550 S   0  0  0  0  0  0  0  0  0  0  0  0
  2  1  1  6
  2  3  1  0
  2 18  1  0
  3  4  2  0
  4  5  1  0
  4  6  1  0
  6  7  1  0
  6 17  2  0
  7  8  1  0
  8  9  2  0
  8 15  1  0
  9 10  1  0
 10 11  1  0
 10 12  2  0
 12 13  1  0
 12 14  1  0
 14 15  2  0
 15 16  1  0
 17 18  1  0
M  END
