
     RDKit          3D

 27 28  0  0  0  0  0  0  0  0999 V2000
   -4.3020   -0.1950    2.2180 C   0  0  0  0  0  0  0  0  0  0  0  0
   -4.0420    0.5570    0.9280 C   0  0  2  0  0  0  0  0  0  0  0  0
   -3.4460    1.8840    1.1820 C   0  0  0  0  0  0  0  0  0  0  0  0
   -5.4070    0.7720    0.2370 C   0  0  0  0  0  0  0  0  0  0  0  0
   -4.6760    0.5380   -1.0370 C   0  0  0  0  0  0  0  0  0  0  0  0
   -4.8180    0.8640   -2.1930 O   0  0  0  0  0  0  0  0  0  0  0  0
   -3.7300   -0.2550   -0.2360 C   0  0  1  0  0  0  0  0  0  0  0  0
   -2.3470   -0.4140   -0.7830 C   0  0  2  0  0  0  0  0  0  0  0  0
   -1.8040    0.8090   -1.1720 O   0  0  0  0  0  0  0  0  0  0  0  0
   -2.4890   -1.2730   -2.0330 C   0  0  0  0  0  0  0  0  0  0  0  0
   -3.0160   -2.5180   -1.8010 O   0  0  0  0  0  0  0  0  0  0  0  0
   -1.5070   -1.0200    0.2610 C   0  0  0  0  0  0  0  0  0  0  0  0
   -0.1710   -1.3430    0.0270 N   0  0  0  0  0  0  0  0  0  0  0  0
    0.7620   -0.3210   -0.2970 C   0  0  1  0  0  0  0  0  0  0  0  0
    1.0410    0.6200    0.8150 C   0  0  0  0  0  0  0  0  0  0  0  0
    2.3830    0.5760    1.4340 C   0  0  0  0  0  0  0  0  0  0  0  0
    3.5010    0.4520    0.5610 N   0  0  0  0  0  0  0  0  0  0  0  0
    4.5700   -0.1900    1.2420 C   0  0  0  0  0  0  0  0  0  0  0  0
    5.1560    0.6600    2.3390 C   0  0  1  0  0  0  0  0  0  0  0  0
    4.2500    0.9940    3.3170 F   0  0  0  0  0  0  0  0  0  0  0  0
    6.1880   -0.0990    2.9090 F   0  0  0  0  0  0  0  0  0  0  0  0
    5.6950    1.8300    1.8240 F   0  0  0  0  0  0  0  0  0  0  0  0
    3.2150   -0.0850   -0.7390 C   0  0  2  0  0  0  0  0  0  0  0  0
    4.3980   -0.8610   -1.3160 C   0  0  0  0  0  0  0  0  0  0  0  0
    2.9250    1.0280   -1.7280 C   0  0  0  0  0  0  0  0  0  0  0  0
    4.0110    1.8920   -1.8550 O   0  0  0  0  0  0  0  0  0  0  0  0
    2.0740   -1.0460   -0.6420 C   0  0  0  0  0  0  0  0  0  0  0  0
  2  1  1  1
  2  3  1  0
  2  4  1  0
  2  7  1  0
  4  5  1  0
  5  6  2  0
  7  5  1  6
  7  8  1  0
  8  9  1  6
  8 10  1  0
  8 12  1  0
 10 11  1  0
 12 13  1  0
 14 13  1  1
 14 15  1  0
 14 27  1  0
 15 16  1  0
 16 17  1  0
 17 18  1  0
 17 23  1  0
 18 19  1  0
 19 20  1  1
 19 21  1  0
 19 22  1  0
 23 24  1  6
 23 25  1  0
 23 27  1  0
 25 26  1  0
M  CHG  1  13   1
M  END
