
     RDKit          3D

 18 19  0  0  0  0  0  0  0  0999 V2000
   -4.3750    0.8110   -0.0470 C   0  0  0  0  0  0  0  0  0  0  0  0
   -2.9610    0.4700    0.0020 C   0  0  0  0  0  0  0  0  0  0  0  0
   -2.0300    1.3010   -0.3330 C   0  0  0  0  0  0  0  0  0  0  0  0
   -0.6130    1.0400   -0.3120 C   0  0  0  0  0  0  0  0  0  0  0  0
   -0.0440   -0.0600    0.0420 C   0  0  0  0  0  0  0  0  0  0  0  0
   -0.7150   -1.1890    0.4680 C   0  0  0  0  0  0  0  0  0  0  0  0
   -0.1180   -2.3580    0.8450 C   0  0  0  0  0  0  0  0  0  0  0  0
   -1.0900   -3.7380    1.3730 Cl  0  0  0  0  0  0  0  0  0  0  0  0
    1.2360   -2.4070    0.7950 C   0  0  0  0  0  0  0  0  0  0  0  0
    2.0490   -3.8840    1.2690 Cl  0  0  0  0  0  0  0  0  0  0  0  0
    2.0060   -1.3220    0.3800 C   0  0  0  0  0  0  0  0  0  0  0  0
    3.7330   -1.5710    0.3810 Cl  0  0  0  0  0  0  0  0  0  0  0  0
    1.3800   -0.1460    0.0020 C   0  0  0  0  0  0  0  0  0  0  0  0
    2.0800    0.8870   -0.3920 C   0  0  0  0  0  0  0  0  0  0  0  0
    3.4650    1.1620   -0.5560 C   0  0  0  0  0  0  0  0  0  0  0  0
    3.7450    2.3750   -0.9920 O   0  0  0  0  0  0  0  0  0  0  0  0
    4.6050    0.4600   -0.3690 O   0  0  0  0  0  0  0  0  0  0  0  0
   -2.5140   -1.1490    0.5430 S   0  0  0  0  0  0  0  0  0  0  0  0
  1  2  1  0
  2  3  2  0
  2 18  1  0
  3  4  1  0
  4  5  2  0
  5  6  1  0
  5 13  1  0
  6  7  2  0
  6 18  1  0
  7  8  1  0
  7  9  1  0
  9 10  1  0
  9 11  2  0
 11 12  1  0
 11 13  1  0
 13 14  2  3
 14 15  1  0
 15 16  2  0
 15 17  1  0
M  END
