
     RDKit          3D

 19 20  0  0  0  0  0  0  0  0999 V2000
    4.6820   -0.6920    1.6320 O   0  0  0  0  0  0  0  0  0  0  0  0
    4.3580   -1.0790    0.3420 C   0  0  0  0  0  0  0  0  0  0  0  0
    3.0470   -0.5300   -0.0810 C   0  0  0  0  0  0  0  0  0  0  0  0
    1.9850    0.5000    0.8900 S   0  0  0  0  0  0  0  0  0  0  0  0
    0.6920    0.6810   -0.3400 C   0  0  0  0  0  0  0  0  0  0  0  0
   -0.5490    1.4630   -0.1560 C   0  0  1  0  0  0  0  0  0  0  0  0
   -0.7860    2.2320   -1.3090 O   0  0  0  0  0  0  0  0  0  0  0  0
   -1.7290    0.6600    0.1870 C   0  0  0  0  0  0  0  0  0  0  0  0
   -1.6830   -0.2510    1.2070 C   0  0  0  0  0  0  0  0  0  0  0  0
   -2.7860   -1.0290    1.5560 C   0  0  0  0  0  0  0  0  0  0  0  0
   -2.7230   -2.1920    2.8580 Cl  0  0  0  0  0  0  0  0  0  0  0  0
   -3.9340   -0.8290    0.8130 C   0  0  0  0  0  0  0  0  0  0  0  0
   -5.3580   -1.7900    1.2180 Cl  0  0  0  0  0  0  0  0  0  0  0  0
   -4.0140    0.0810   -0.2200 C   0  0  0  0  0  0  0  0  0  0  0  0
   -2.8930    0.8240   -0.5240 C   0  0  0  0  0  0  0  0  0  0  0  0
   -3.0030    1.9920   -1.8520 Cl  0  0  0  0  0  0  0  0  0  0  0  0
    1.1690   -0.0370   -1.3530 C   0  0  0  0  0  0  0  0  0  0  0  0
    2.3530   -0.6670   -1.2690 C   0  0  0  0  0  0  0  0  0  0  0  0
    3.0960   -1.6640   -2.5680 Cl  0  0  0  0  0  0  0  0  0  0  0  0
  1  2  1  0
  2  3  1  0
  3  4  1  0
  3 18  2  0
  4  5  1  0
  5  6  1  0
  5 17  2  0
  6  7  1  6
  6  8  1  0
  8  9  2  0
  8 15  1  0
  9 10  1  0
 10 11  1  0
 10 12  2  0
 12 13  1  0
 12 14  1  0
 14 15  2  0
 15 16  1  0
 17 18  1  0
 18 19  1  0
M  END
