
     RDKit          3D

 19 20  0  0  0  0  0  0  0  0999 V2000
   -2.3030   -2.6080   -1.0260 O   0  0  0  0  0  0  0  0  0  0  0  0
   -2.5360   -1.3630   -0.4910 C   0  0  0  0  0  0  0  0  0  0  0  0
   -3.8160   -0.8480   -0.4340 C   0  0  0  0  0  0  0  0  0  0  0  0
   -5.1560   -1.8160   -1.0610 Cl  0  0  0  0  0  0  0  0  0  0  0  0
   -4.0880    0.3900    0.0940 C   0  0  0  0  0  0  0  0  0  0  0  0
   -3.0170    1.1100    0.5720 C   0  0  0  0  0  0  0  0  0  0  0  0
   -3.3060    2.6870    1.2520 Cl  0  0  0  0  0  0  0  0  0  0  0  0
   -1.7090    0.5990    0.5220 C   0  0  0  0  0  0  0  0  0  0  0  0
   -1.4390   -0.6370   -0.0070 C   0  0  0  0  0  0  0  0  0  0  0  0
    0.1540   -1.3480   -0.1730 S   0  0  0  0  0  0  0  0  0  0  0  0
    1.5390   -0.2870   -0.0770 C   0  0  0  0  0  0  0  0  0  0  0  0
    1.5040    1.0680   -0.2780 C   0  0  0  0  0  0  0  0  0  0  0  0
    2.6330    1.8890   -0.1460 C   0  0  0  0  0  0  0  0  0  0  0  0
    2.5380    3.6180   -0.4100 Cl  0  0  0  0  0  0  0  0  0  0  0  0
    3.8310    1.3440    0.1950 C   0  0  0  0  0  0  0  0  0  0  0  0
    3.9150   -0.0170    0.4050 C   0  0  0  0  0  0  0  0  0  0  0  0
    5.4890   -0.6530    0.8410 Cl  0  0  0  0  0  0  0  0  0  0  0  0
    2.8060   -0.7880    0.2710 C   0  0  0  0  0  0  0  0  0  0  0  0
    2.9000   -2.1550    0.4840 O   0  0  0  0  0  0  0  0  0  0  0  0
  1  2  1  0
  2  3  2  0
  2  9  1  0
  3  4  1  0
  3  5  1  0
  5  6  2  0
  6  7  1  0
  6  8  1  0
  8  9  2  0
  9 10  1  0
 10 11  1  0
 11 12  2  0
 11 18  1  0
 12 13  1  0
 13 14  1  0
 13 15  2  0
 15 16  1  0
 16 17  1  0
 16 18  2  0
 18 19  1  0
M  END
