
     RDKit          3D

 18 19  0  0  0  0  0  0  0  0999 V2000
   -4.4470   -0.5930    0.7140 O   0  0  0  0  0  0  0  0  0  0  0  0
   -3.0810   -0.4570    0.5290 C   0  0  0  0  0  0  0  0  0  0  0  0
   -2.5640    0.4260   -0.3950 C   0  0  0  0  0  0  0  0  0  0  0  0
   -3.7210    1.3940   -1.3510 S   0  0  0  0  0  0  0  0  0  0  0  0
   -1.1800    0.5510   -0.5690 C   0  0  0  0  0  0  0  0  0  0  0  0
   -0.3240   -0.2160    0.1900 C   0  0  0  0  0  0  0  0  0  0  0  0
    1.1050   -0.0540   -0.0280 C   0  0  0  0  0  0  0  0  0  0  0  0
    1.9570    0.0820    1.0700 C   0  0  0  0  0  0  0  0  0  0  0  0
    3.3130    0.2430    0.9660 C   0  0  0  0  0  0  0  0  0  0  0  0
    4.3570    0.4130    2.3640 Cl  0  0  0  0  0  0  0  0  0  0  0  0
    3.8910    0.2750   -0.2820 C   0  0  0  0  0  0  0  0  0  0  0  0
    3.0750    0.1420   -1.3850 C   0  0  0  0  0  0  0  0  0  0  0  0
    3.8160    0.1820   -2.9880 Cl  0  0  0  0  0  0  0  0  0  0  0  0
    1.6990   -0.0210   -1.2700 C   0  0  0  0  0  0  0  0  0  0  0  0
    0.7100   -0.1890   -2.6940 Cl  0  0  0  0  0  0  0  0  0  0  0  0
   -0.8350   -1.1050    1.1190 C   0  0  0  0  0  0  0  0  0  0  0  0
   -2.2080   -1.2150    1.2780 C   0  0  0  0  0  0  0  0  0  0  0  0
   -2.8950   -2.3370    2.4530 Cl  0  0  0  0  0  0  0  0  0  0  0  0
  1  2  1  0
  2  3  2  0
  2 17  1  0
  3  4  1  0
  3  5  1  0
  5  6  2  0
  6  7  1  0
  6 16  1  0
  7  8  2  0
  7 14  1  0
  8  9  1  0
  9 10  1  0
  9 11  2  0
 11 12  1  0
 12 13  1  0
 12 14  2  0
 14 15  1  0
 16 17  2  0
 17 18  1  0
M  END
