
     RDKit          3D

 26 28  0  0  0  0  0  0  0  0999 V2000
   -1.3300   -1.7470    1.8820 C   0  0  0  0  0  0  0  0  0  0  0  0
   -1.3460   -0.2040    1.6580 C   0  0  2  0  0  0  0  0  0  0  0  0
   -2.5790    0.0980    0.9490 C   0  0  0  0  0  0  0  0  0  0  0  0
   -3.0170   -0.7280   -0.1010 C   0  0  0  0  0  0  0  0  0  0  0  0
   -4.0940   -0.4290   -0.9080 C   0  0  0  0  0  0  0  0  0  0  0  0
   -4.5130   -1.3380   -2.0170 C   0  0  0  0  0  0  0  0  0  0  0  0
   -5.4930   -2.1800   -1.5750 F   0  0  0  0  0  0  0  0  0  0  0  0
   -4.7970    0.7470   -0.6950 C   0  0  0  0  0  0  0  0  0  0  0  0
   -4.4000    1.5770    0.3210 C   0  0  0  0  0  0  0  0  0  0  0  0
   -3.3020    1.2330    1.1230 C   0  0  0  0  0  0  0  0  0  0  0  0
   -3.1100    2.1540    2.2220 N   0  0  0  0  0  0  0  0  0  0  0  0
   -0.1210    0.0540    0.9030 N   0  0  0  0  0  0  0  0  0  0  0  0
   -0.1790    1.0340   -0.1160 C   0  0  0  0  0  0  0  0  0  0  0  0
   -0.1840    2.4320    0.4090 C   0  0  0  0  0  0  0  0  0  0  0  0
   -0.2660    3.3710   -0.6370 O   0  0  0  0  0  0  0  0  0  0  0  0
    0.5400   -1.1510    0.5040 C   0  0  0  0  0  0  0  0  0  0  0  0
    1.8840   -0.9850   -0.0950 C   0  0  0  0  0  0  0  0  0  0  0  0
    2.2070   -1.3190   -1.3750 C   0  0  0  0  0  0  0  0  0  0  0  0
    3.5070   -1.2540   -1.8960 C   0  0  0  0  0  0  0  0  0  0  0  0
    4.5350   -0.8310   -1.0910 C   0  0  0  0  0  0  0  0  0  0  0  0
    4.2460   -0.4750    0.2240 C   0  0  0  0  0  0  0  0  0  0  0  0
    2.9280   -0.5580    0.7070 C   0  0  0  0  0  0  0  0  0  0  0  0
    5.4050    0.0190    0.8760 N   0  0  0  0  0  0  0  0  0  0  0  0
    6.4740   -0.0230   -0.0930 C   0  0  0  0  0  0  0  0  0  0  0  0
    7.5900    0.5240    0.1520 O   0  0  0  0  0  0  0  0  0  0  0  0
    6.0220   -0.7580   -1.2710 C   0  0  0  0  0  0  0  0  0  0  0  0
  2  1  1  6
  2  3  1  0
  2 12  1  0
  3  4  2  0
  3 10  1  0
  4  5  1  0
  5  6  1  0
  5  8  2  0
  6  7  1  0
  8  9  1  0
  9 10  2  0
 10 11  1  0
 12 13  1  0
 12 16  1  0
 13 14  1  0
 14 15  1  0
 16 17  1  0
 17 18  2  0
 17 22  1  0
 18 19  1  0
 19 20  2  0
 20 21  1  0
 20 26  1  0
 21 22  2  0
 21 23  1  0
 23 24  1  0
 24 25  2  0
 24 26  1  0
M  END
