
     RDKit          3D

 28 30  0  0  0  0  0  0  0  0999 V2000
   -6.0280    3.1350   -1.7990 C   0  0  0  0  0  0  0  0  0  0  0  0
   -4.6300    2.8960   -1.7050 O   0  0  0  0  0  0  0  0  0  0  0  0
   -4.1090    1.8190   -1.0080 C   0  0  0  0  0  0  0  0  0  0  0  0
   -4.9000    0.9000   -0.3560 C   0  0  0  0  0  0  0  0  0  0  0  0
   -4.2740   -0.1210    0.2960 C   0  0  0  0  0  0  0  0  0  0  0  0
   -5.0220   -1.0700    0.9660 O   0  0  0  0  0  0  0  0  0  0  0  0
   -6.4360   -1.0440    1.0170 C   0  0  0  0  0  0  0  0  0  0  0  0
   -2.8890   -0.2500    0.3160 C   0  0  0  0  0  0  0  0  0  0  0  0
   -2.3350   -1.3420    1.0110 O   0  0  0  0  0  0  0  0  0  0  0  0
   -2.2300   -2.5460    0.2360 C   0  0  0  0  0  0  0  0  0  0  0  0
   -1.6340   -3.6380    1.0570 C   0  0  0  0  0  0  0  0  0  0  0  0
   -1.3230   -3.4220    2.1980 O   0  0  0  0  0  0  0  0  0  0  0  0
   -2.0820    0.6390   -0.3130 C   0  0  0  0  0  0  0  0  0  0  0  0
   -0.6280    0.6580   -0.2910 C   0  0  0  0  0  0  0  0  0  0  0  0
   -0.0510    1.5480   -1.0000 O   0  0  0  0  0  0  0  0  0  0  0  0
    0.2380   -0.1920    0.4160 N   0  0  0  0  0  0  0  0  0  0  0  0
    1.6450   -0.1820    0.4090 C   0  0  0  0  0  0  0  0  0  0  0  0
    2.3370   -0.8120    1.4230 C   0  0  0  0  0  0  0  0  0  0  0  0
    3.7290   -0.8580    1.4620 C   0  0  0  0  0  0  0  0  0  0  0  0
    4.4410   -0.2540    0.4540 C   0  0  0  0  0  0  0  0  0  0  0  0
    5.7970   -0.1030    0.1730 C   0  0  0  0  0  0  0  0  0  0  0  0
    6.8670   -0.6400    1.0250 C   0  0  0  0  0  0  0  0  0  0  0  0
    5.9500    0.6080   -0.9960 C   0  0  0  0  0  0  0  0  0  0  0  0
    7.2330    1.0010   -1.6720 C   0  0  0  0  0  0  0  0  0  0  0  0
    4.7090    0.8880   -1.4240 N   0  0  0  0  0  0  0  0  0  0  0  0
    3.7830    0.3810   -0.5690 C   0  0  0  0  0  0  0  0  0  0  0  0
    2.3830    0.4010   -0.5670 C   0  0  0  0  0  0  0  0  0  0  0  0
   -2.7450    1.6800   -0.9790 C   0  0  0  0  0  0  0  0  0  0  0  0
  1  2  1  0
  2  3  1  0
  3  4  2  0
  3 28  1  0
  4  5  1  0
  5  6  1  0
  5  8  2  0
  6  7  1  0
  8  9  1  0
  8 13  1  0
  9 10  1  0
 10 11  1  0
 11 12  2  0
 13 14  1  0
 13 28  2  0
 14 15  2  0
 14 16  1  0
 16 17  1  0
 17 18  2  0
 17 27  1  0
 18 19  1  0
 19 20  2  0
 20 21  1  0
 20 26  1  0
 21 22  1  0
 21 23  2  0
 23 24  1  0
 23 25  1  0
 25 26  1  0
 26 27  2  0
M  END
