
     RDKit          3D

 26 27  0  0  0  0  0  0  0  0999 V2000
   -5.9240    1.0820    0.7980 C   0  0  0  0  0  0  0  0  0  0  0  0
   -5.7430    1.0370   -0.5360 C   0  0  0  0  0  0  0  0  0  0  0  0
   -4.9110    0.0100   -1.1170 C   0  0  0  0  0  0  0  0  0  0  0  0
   -4.0640   -0.9250   -0.2880 C   0  0  0  0  0  0  0  0  0  0  0  0
   -3.0010   -0.1630    0.4160 C   0  0  0  0  0  0  0  0  0  0  0  0
   -2.1400   -1.0600    1.2910 C   0  0  1  0  0  0  0  0  0  0  0  0
   -1.4690   -2.1130    0.4770 C   0  0  0  0  0  0  0  0  0  0  0  0
   -0.2800   -2.6500    1.2450 C   0  0  0  0  0  0  0  0  0  0  0  0
    0.6760   -1.5460    1.3670 N   0  0  0  0  0  0  0  0  0  0  0  0
    2.0500   -1.7190    1.0820 C   0  0  0  0  0  0  0  0  0  0  0  0
    2.4350   -2.8660    0.7140 O   0  0  0  0  0  0  0  0  0  0  0  0
    2.9830   -0.6210    1.2060 C   0  0  0  0  0  0  0  0  0  0  0  0
    2.7080    0.5420    1.5560 O   0  0  0  0  0  0  0  0  0  0  0  0
    4.3680   -0.8510    0.9060 N   0  0  0  0  0  0  0  0  0  0  0  0
    5.3410    0.1630    1.0010 C   0  0  0  0  0  0  0  0  0  0  0  0
    5.1500    1.3660    0.1410 C   0  0  0  0  0  0  0  0  0  0  0  0
    5.1280    1.0180   -1.3410 C   0  0  0  0  0  0  0  0  0  0  0  0
    6.4230    0.3680   -1.7740 C   0  0  0  0  0  0  0  0  0  0  0  0
    7.5610    1.2070   -1.5630 N   0  0  0  0  0  0  0  0  0  0  0  0
    0.2040   -0.2600    1.7880 C   0  0  0  0  0  0  0  0  0  0  0  0
   -1.2500   -0.2670    2.1840 C   0  0  0  0  0  0  0  0  0  0  0  0
   -4.8970   -0.1250   -2.4460 C   0  0  0  0  0  0  0  0  0  0  0  0
   -5.6850    0.7630   -3.2610 C   0  0  0  0  0  0  0  0  0  0  0  0
   -6.4250    1.7380   -2.7790 C   0  0  0  0  0  0  0  0  0  0  0  0
   -6.4990    2.0100   -1.3420 C   0  0  1  0  0  0  0  0  0  0  0  0
   -7.8160    2.0890   -0.8930 F   0  0  0  0  0  0  0  0  0  0  0  0
  1  2  2  0
  2  3  1  0
  2 25  1  0
  3  4  1  0
  3 22  2  0
  4  5  1  0
  6  5  1  6
  6  7  1  0
  6 21  1  0
  7  8  1  0
  8  9  1  0
  9 10  1  0
  9 20  1  0
 10 11  2  0
 10 12  1  0
 12 13  2  0
 12 14  1  0
 14 15  1  0
 15 16  1  0
 16 17  1  0
 17 18  1  0
 18 19  1  0
 20 21  1  0
 22 23  1  0
 23 24  2  0
 24 25  1  0
 25 26  1  1
M  CHG  1  19   1
M  END
