
     RDKit          3D

 28 30  0  0  0  0  0  0  0  0999 V2000
   -7.0270   -2.5990   -1.1010 C   0  0  0  0  0  0  0  0  0  0  0  0
   -6.3780   -1.3760   -0.8080 O   0  0  0  0  0  0  0  0  0  0  0  0
   -5.0120   -1.2830   -0.5910 C   0  0  0  0  0  0  0  0  0  0  0  0
   -4.3400   -2.3360   -0.6620 O   0  0  0  0  0  0  0  0  0  0  0  0
   -4.4210    0.0530   -0.2890 C   0  0  2  0  0  0  0  0  0  0  0  0
   -2.9960   -0.0360   -0.0930 N   0  0  0  0  0  0  0  0  0  0  0  0
   -2.4850   -0.8560    0.9460 C   0  0  0  0  0  0  0  0  0  0  0  0
   -3.3120   -1.4800    1.6600 O   0  0  0  0  0  0  0  0  0  0  0  0
   -1.0590   -1.0220    1.2380 C   0  0  0  0  0  0  0  0  0  0  0  0
   -0.2390   -0.2700    0.3660 O   0  0  0  0  0  0  0  0  0  0  0  0
    1.1540   -0.3450    0.5440 C   0  0  0  0  0  0  0  0  0  0  0  0
    1.7030   -1.1350    1.5470 C   0  0  0  0  0  0  0  0  0  0  0  0
    3.0610   -1.2330    1.7510 C   0  0  0  0  0  0  0  0  0  0  0  0
    3.8980   -0.5200    0.9270 C   0  0  0  0  0  0  0  0  0  0  0  0
    5.2610   -0.6160    1.1300 O   0  0  0  0  0  0  0  0  0  0  0  0
    6.1460    0.0740    0.3370 C   0  0  0  0  0  0  0  0  0  0  0  0
    6.7740    1.1540    0.7180 C   0  0  0  0  0  0  0  0  0  0  0  0
    7.7020    1.8690   -0.1270 C   0  0  0  0  0  0  0  0  0  0  0  0
    7.9690    1.4660   -1.3430 C   0  0  0  0  0  0  0  0  0  0  0  0
    7.3410    0.2690   -1.9140 C   0  0  0  0  0  0  0  0  0  0  0  0
    6.4100   -0.4160   -1.0130 C   0  0  0  0  0  0  0  0  0  0  0  0
    5.7950   -1.4860   -1.4050 N   0  0  0  0  0  0  0  0  0  0  0  0
    3.3890    0.2690   -0.0720 C   0  0  0  0  0  0  0  0  0  0  0  0
    2.0120    0.3630   -0.2710 C   0  0  0  0  0  0  0  0  0  0  0  0
   -5.1250    0.6550    0.9100 C   0  0  0  0  0  0  0  0  0  0  0  0
   -5.1310    2.1590    0.6660 C   0  0  0  0  0  0  0  0  0  0  0  0
   -4.4620    2.3710   -0.6680 C   0  0  0  0  0  0  0  0  0  0  0  0
   -4.7740    1.0590   -1.3740 C   0  0  0  0  0  0  0  0  0  0  0  0
  1  2  1  0
  2  3  1  0
  3  4  2  0
  3  5  1  0
  5  6  1  1
  5 25  1  0
  5 28  1  0
  6  7  1  0
  7  8  2  0
  7  9  1  0
  9 10  1  0
 10 11  1  0
 11 12  2  0
 11 24  1  0
 12 13  1  0
 13 14  2  0
 14 15  1  0
 14 23  1  0
 15 16  1  0
 16 17  2  0
 16 21  1  0
 17 18  1  0
 18 19  2  0
 19 20  1  0
 20 21  1  0
 21 22  2  0
 23 24  2  0
 25 26  1  0
 26 27  1  0
 27 28  1  0
M  END
