
     RDKit          3D

 18 19  0  0  0  0  0  0  0  0999 V2000
   -3.3620   -1.8730   -0.8780 O   0  0  0  0  0  0  0  0  0  0  0  0
   -3.3950   -0.7140   -0.1440 C   0  0  0  0  0  0  0  0  0  0  0  0
   -4.2470   -0.6160    0.8550 C   0  0  0  0  0  0  0  0  0  0  0  0
   -4.2770    0.5400    1.5850 O   0  0  0  0  0  0  0  0  0  0  0  0
   -3.4610    1.6470    1.3530 C   0  0  0  0  0  0  0  0  0  0  0  0
   -2.5260    1.4620    0.2110 C   0  0  0  0  0  0  0  0  0  0  0  0
   -2.4750    0.3550   -0.5130 C   0  0  0  0  0  0  0  0  0  0  0  0
   -1.5910    0.2690   -1.5400 O   0  0  0  0  0  0  0  0  0  0  0  0
   -0.7300   -0.7470   -1.8850 C   0  0  0  0  0  0  0  0  0  0  0  0
    0.2860   -1.0780   -0.7810 C   0  0  2  0  0  0  0  0  0  0  0  0
   -0.4010   -1.4710    0.3650 O   0  0  0  0  0  0  0  0  0  0  0  0
    1.0910    0.1630   -0.5320 C   0  0  0  0  0  0  0  0  0  0  0  0
    2.1090   -0.0660    0.5310 C   0  0  2  0  0  0  0  0  0  0  0  0
    1.4810   -0.4400    1.7210 O   0  0  0  0  0  0  0  0  0  0  0  0
    2.8620    1.2400    0.7280 C   0  0  0  0  0  0  0  0  0  0  0  0
    4.1730    1.0430    0.0510 C   0  0  0  0  0  0  0  0  0  0  0  0
    4.2100   -0.2200   -0.4770 O   0  0  0  0  0  0  0  0  0  0  0  0
    3.2050   -0.9800    0.1150 C   0  0  0  0  0  0  0  0  0  0  0  0
  1  2  1  0
  2  3  2  0
  2  7  1  0
  3  4  1  0
  4  5  1  0
  5  6  1  0
  6  7  2  0
  7  8  1  0
  8  9  1  0
  9 10  1  0
 10 11  1  1
 10 12  1  0
 12 13  1  0
 13 14  1  1
 13 15  1  0
 13 18  1  0
 15 16  1  0
 16 17  1  0
 17 18  1  0
M  END
