
     RDKit          3D

 18 19  0  0  0  0  0  0  0  0999 V2000
    2.3210   -1.3750   -0.4980 O   0  0  0  0  0  0  0  0  0  0  0  0
    2.0970   -0.2400   -0.1400 C   0  0  0  0  0  0  0  0  0  0  0  0
    3.2670    0.6860   -0.0590 C   0  0  0  0  0  0  0  0  0  0  0  0
    4.5460   -0.0130   -0.4560 C   0  0  0  0  0  0  0  0  0  0  0  0
    5.5720    0.9360   -0.3460 O   0  0  0  0  0  0  0  0  0  0  0  0
    0.7870    0.3120    0.2200 C   0  0  0  0  0  0  0  0  0  0  0  0
   -0.3610   -0.6310    0.1520 C   0  0  2  0  0  0  0  0  0  0  0  0
   -0.1320   -1.7900    1.1040 C   0  0  0  0  0  0  0  0  0  0  0  0
   -0.0030   -1.3370    2.4310 O   0  0  0  0  0  0  0  0  0  0  0  0
   -0.5190   -1.2630   -1.2270 C   0  0  2  0  0  0  0  0  0  0  0  0
    0.0260   -0.5110   -2.2400 O   0  0  0  0  0  0  0  0  0  0  0  0
   -2.0250   -1.2500   -1.3930 C   0  0  0  0  0  0  0  0  0  0  0  0
   -2.3380    0.1340   -0.8760 C   0  0  1  0  0  0  0  0  0  0  0  0
   -3.6980    0.3650   -0.7310 O   0  0  0  0  0  0  0  0  0  0  0  0
   -3.8530    1.1460    0.4190 C   0  0  0  0  0  0  0  0  0  0  0  0
   -2.6600    2.0370    0.6750 C   0  0  0  0  0  0  0  0  0  0  0  0
   -1.5250    1.2950    1.0470 O   0  0  0  0  0  0  0  0  0  0  0  0
   -1.6480    0.0580    0.4780 C   0  0  2  0  0  0  0  0  0  0  0  0
  1  2  2  0
  2  3  1  0
  2  6  1  0
  3  4  1  0
  4  5  1  0
  7  6  1  6
  7  8  1  0
  7 10  1  0
  7 18  1  0
  8  9  1  0
 10 11  1  6
 10 12  1  0
 13 12  1  1
 13 14  1  0
 13 18  1  0
 14 15  1  0
 15 16  1  0
 16 17  1  0
 18 17  1  6
M  END
