
     RDKit          3D

 17 18  0  0  0  0  0  0  0  0999 V2000
   -3.4740   -0.5170   -1.8900 O   0  0  0  0  0  0  0  0  0  0  0  0
   -3.0860    0.7550   -1.4760 C   0  0  1  0  0  0  0  0  0  0  0  0
   -3.8720    1.0660   -0.2030 C   0  0  0  0  0  0  0  0  0  0  0  0
   -3.4280    0.1800    0.9030 C   0  0  0  0  0  0  0  0  0  0  0  0
   -2.5270   -0.9360    0.5060 C   0  0  2  0  0  0  0  0  0  0  0  0
   -2.0060   -1.4950    1.6980 O   0  0  0  0  0  0  0  0  0  0  0  0
   -1.3800   -0.5480   -0.3570 C   0  0  2  0  0  0  0  0  0  0  0  0
   -1.2020   -1.4920   -1.3970 O   0  0  0  0  0  0  0  0  0  0  0  0
   -0.1000   -0.5270    0.4240 C   0  0  0  0  0  0  0  0  0  0  0  0
    0.9840   -0.1580   -0.3680 O   0  0  0  0  0  0  0  0  0  0  0  0
    2.1720   -0.1380    0.3550 C   0  0  1  0  0  0  0  0  0  0  0  0
    3.1540   -1.1260   -0.1980 C   0  0  0  0  0  0  0  0  0  0  0  0
    4.5880   -0.7570    0.0540 C   0  0  0  0  0  0  0  0  0  0  0  0
    4.8280    0.5360   -0.4210 O   0  0  0  0  0  0  0  0  0  0  0  0
    4.1540    1.4060    0.4270 C   0  0  0  0  0  0  0  0  0  0  0  0
    2.6770    1.2780    0.3570 C   0  0  0  0  0  0  0  0  0  0  0  0
   -1.6260    0.7810   -1.0690 C   0  0  0  0  0  0  0  0  0  0  0  0
  2  1  1  1
  2  3  1  0
  2 17  1  0
  3  4  1  0
  4  5  1  0
  5  6  1  1
  5  7  1  0
  7  8  1  6
  7  9  1  0
  7 17  1  0
  9 10  1  0
 11 10  1  6
 11 12  1  0
 11 16  1  0
 12 13  1  0
 13 14  1  0
 14 15  1  0
 15 16  1  0
M  END
