
     RDKit          3D

 18 19  0  0  0  0  0  0  0  0999 V2000
    4.2720    0.7370    0.3960 C   0  0  0  0  0  0  0  0  0  0  0  0
    3.3920   -0.0890   -0.5380 C   0  0  2  0  0  0  0  0  0  0  0  0
    2.5850    0.7420   -1.4590 C   0  0  0  0  0  0  0  0  0  0  0  0
    1.2520    1.1640   -0.9530 C   0  0  0  0  0  0  0  0  0  0  0  0
    0.5440   -0.0160   -0.3730 C   0  0  2  0  0  0  0  0  0  0  0  0
    0.6480   -1.0670   -1.2830 O   0  0  0  0  0  0  0  0  0  0  0  0
   -0.8600    0.2580    0.0060 C   0  0  0  0  0  0  0  0  0  0  0  0
   -1.0860    1.1860    0.8240 O   0  0  0  0  0  0  0  0  0  0  0  0
   -1.9500   -0.4290   -0.4710 O   0  0  0  0  0  0  0  0  0  0  0  0
   -3.2840   -0.1880   -0.1290 C   0  0  1  0  0  0  0  0  0  0  0  0
   -3.8000    1.1910   -0.4490 C   0  0  0  0  0  0  0  0  0  0  0  0
   -5.1140    1.3870   -0.0970 O   0  0  0  0  0  0  0  0  0  0  0  0
   -4.2350   -1.3170   -0.5400 C   0  0  0  0  0  0  0  0  0  0  0  0
   -3.9780   -1.0320    0.8850 C   0  0  0  0  0  0  0  0  0  0  0  0
    1.3440   -0.4410    0.8580 C   0  0  2  0  0  0  0  0  0  0  0  0
    1.7610    0.6900    1.5680 O   0  0  0  0  0  0  0  0  0  0  0  0
    2.6260   -1.0630    0.2900 C   0  0  1  0  0  0  0  0  0  0  0  0
    2.3270   -2.2500   -0.3620 O   0  0  0  0  0  0  0  0  0  0  0  0
  2  1  1  1
  2  3  1  0
  2 17  1  0
  3  4  1  0
  4  5  1  0
  5  6  1  6
  5  7  1  0
  5 15  1  0
  7  8  2  0
  7  9  1  0
  9 10  1  0
 10 11  1  1
 10 13  1  0
 10 14  1  0
 11 12  1  0
 13 14  1  0
 15 16  1  1
 15 17  1  0
 17 18  1  6
M  END
