
     RDKit          3D

 28 30  0  0  0  0  0  0  0  0999 V2000
    0.2410    5.7770    0.1170 C   0  0  0  0  0  0  0  0  0  0  0  0
    0.0060    4.5130   -0.4660 O   0  0  0  0  0  0  0  0  0  0  0  0
    0.6620    3.3580   -0.0940 C   0  0  0  0  0  0  0  0  0  0  0  0
    1.7100    3.4530    0.7500 F   0  0  0  0  0  0  0  0  0  0  0  0
    0.2470    2.2130   -0.5700 C   0  0  0  0  0  0  0  0  0  0  0  0
    0.8920    0.9220   -0.2240 C   0  0  0  0  0  0  0  0  0  0  0  0
    2.2190    0.8540   -0.0870 N   0  0  0  0  0  0  0  0  0  0  0  0
    2.8970   -0.2880    0.1860 C   0  0  0  0  0  0  0  0  0  0  0  0
    4.3220   -0.1400    0.2940 C   0  0  0  0  0  0  0  0  0  0  0  0
    5.2350   -1.2700    0.2960 C   0  0  0  0  0  0  0  0  0  0  0  0
    6.6020   -0.6990    0.4260 N   0  0  0  0  0  0  0  0  0  0  0  0
    2.2300   -1.4830    0.3430 C   0  0  0  0  0  0  0  0  0  0  0  0
    0.8570   -1.4330    0.2070 C   0  0  0  0  0  0  0  0  0  0  0  0
    0.1760   -0.2470   -0.0750 C   0  0  0  0  0  0  0  0  0  0  0  0
   -1.2740   -0.2510   -0.1660 C   0  0  0  0  0  0  0  0  0  0  0  0
   -2.1280    0.3870    0.5750 C   0  0  0  0  0  0  0  0  0  0  0  0
   -1.8920    1.2680    1.6950 C   0  0  0  0  0  0  0  0  0  0  0  0
   -0.8360    1.6040    2.2460 O   0  0  0  0  0  0  0  0  0  0  0  0
   -3.1930    1.7450    2.1250 N   0  0  0  0  0  0  0  0  0  0  0  0
   -4.1230    1.1520    1.2780 N   0  0  0  0  0  0  0  0  0  0  0  0
   -3.5760    0.3890    0.4020 C   0  0  0  0  0  0  0  0  0  0  0  0
   -4.3470   -0.3680   -0.6170 C   0  0  2  0  0  0  0  0  0  0  0  0
   -3.9390   -0.0110   -2.0080 C   0  0  0  0  0  0  0  0  0  0  0  0
   -5.8240   -0.1110   -0.4720 C   0  0  0  0  0  0  0  0  0  0  0  0
   -4.1130   -1.8420   -0.3160 C   0  0  0  0  0  0  0  0  0  0  0  0
    0.3460   -2.7950    0.4150 C   0  0  0  0  0  0  0  0  0  0  0  0
    1.5350   -3.7070    0.3950 C   0  0  0  0  0  0  0  0  0  0  0  0
    2.7330   -2.8050    0.6300 C   0  0  0  0  0  0  0  0  0  0  0  0
  1  2  1  0
  2  3  1  0
  3  4  1  0
  3  5  2  3
  5  6  1  0
  6  7  2  0
  6 14  1  0
  7  8  1  0
  8  9  1  0
  8 12  2  0
  9 10  1  0
 10 11  1  0
 12 13  1  0
 12 28  1  0
 13 14  2  0
 13 26  1  0
 14 15  1  0
 15 16  2  3
 16 17  1  0
 16 21  1  0
 17 18  2  0
 17 19  1  0
 19 20  1  0
 20 21  2  0
 21 22  1  0
 22 23  1  6
 22 24  1  0
 22 25  1  0
 26 27  1  0
 27 28  1  0
M  CHG  1  11   1
M  END
