
     RDKit          3D

 28 31  0  0  0  0  0  0  0  0999 V2000
    3.2890    1.0770   -3.3290 C   0  0  0  0  0  0  0  0  0  0  0  0
    1.9410    0.5360   -3.2100 C   0  0  0  0  0  0  0  0  0  0  0  0
    1.2890    0.0400   -4.3630 C   0  0  0  0  0  0  0  0  0  0  0  0
    0.0630   -0.4800   -4.2200 C   0  0  0  0  0  0  0  0  0  0  0  0
   -0.5400   -0.5320   -3.0440 N   0  0  0  0  0  0  0  0  0  0  0  0
    0.0850   -0.0400   -1.8650 C   0  0  0  0  0  0  0  0  0  0  0  0
   -0.8250    0.0410   -0.7420 C   0  0  0  0  0  0  0  0  0  0  0  0
   -0.5500    0.5630    0.5140 C   0  0  0  0  0  0  0  0  0  0  0  0
   -1.5980    0.6470    1.4330 C   0  0  0  0  0  0  0  0  0  0  0  0
   -2.8590    0.2420    1.1380 C   0  0  0  0  0  0  0  0  0  0  0  0
   -3.1290   -0.2830   -0.1250 C   0  0  0  0  0  0  0  0  0  0  0  0
   -2.0850   -0.3280   -0.9310 N   0  0  0  0  0  0  0  0  0  0  0  0
   -4.5000   -0.6320   -0.4890 C   0  0  0  0  0  0  0  0  0  0  0  0
   -5.3480   -0.8270    0.7350 C   0  0  2  0  0  0  0  0  0  0  0  0
   -6.8110   -1.0430    0.3600 C   0  0  0  0  0  0  0  0  0  0  0  0
   -5.2400    0.3470    1.5670 N   0  0  0  0  0  0  0  0  0  0  0  0
   -3.9340    0.3890    2.1600 C   0  0  0  0  0  0  0  0  0  0  0  0
    1.3240    0.4880   -1.9520 C   0  0  0  0  0  0  0  0  0  0  0  0
    2.0160    1.1440   -0.8540 C   0  0  0  0  0  0  0  0  0  0  0  0
    2.6390    0.5130    0.1000 O   0  0  0  0  0  0  0  0  0  0  0  0
    2.8730   -0.3560    1.0490 C   0  0  0  0  0  0  0  0  0  0  0  0
    1.9380   -1.2220    1.2200 O   0  0  0  0  0  0  0  0  0  0  0  0
    4.0520   -0.4170    1.8850 C   0  0  0  0  0  0  0  0  0  0  0  0
    5.0830    0.4080    1.9190 C   0  0  0  0  0  0  0  0  0  0  0  0
    5.2630    1.5240    1.1440 F   0  0  0  0  0  0  0  0  0  0  0  0
    6.0390    0.0100    2.8650 N   0  0  0  0  0  0  0  0  0  0  0  0
    5.5220   -1.2090    3.4570 C   0  0  0  0  0  0  0  0  0  0  0  0
    4.3560   -1.4380    2.8680 C   0  0  0  0  0  0  0  0  0  0  0  0
  1  2  1  0
  2  3  2  0
  2 18  1  0
  3  4  1  0
  4  5  2  0
  5  6  1  0
  6  7  1  0
  6 18  2  0
  7  8  2  0
  7 12  1  0
  8  9  1  0
  9 10  2  0
 10 11  1  0
 10 17  1  0
 11 12  2  0
 11 13  1  0
 13 14  1  0
 14 15  1  6
 14 16  1  0
 16 17  1  0
 18 19  1  0
 19 20  1  0
 20 21  1  0
 21 22  2  0
 21 23  1  0
 23 24  2  0
 23 28  1  0
 24 25  1  0
 24 26  1  0
 26 27  1  0
 27 28  2  0
M  CHG  1  26   1
M  END
