
     RDKit          3D

 28 30  0  0  0  0  0  0  0  0999 V2000
    0.9490    3.8760    1.6730 C   0  0  0  0  0  0  0  0  0  0  0  0
   -0.3240    3.8030    1.4360 C   0  0  0  0  0  0  0  0  0  0  0  0
   -0.9010    5.0930    1.6490 F   0  0  0  0  0  0  0  0  0  0  0  0
   -1.1730    2.7590    0.9930 C   0  0  0  0  0  0  0  0  0  0  0  0
   -2.5140    3.1700    0.9330 C   0  0  0  0  0  0  0  0  0  0  0  0
   -2.9640    4.4740    1.2760 C   0  0  0  0  0  0  0  0  0  0  0  0
   -1.0460    1.3980    0.6240 C   0  0  0  0  0  0  0  0  0  0  0  0
   -0.3830    0.3340    0.3810 C   0  0  0  0  0  0  0  0  0  0  0  0
    1.0410    0.1980    0.4460 C   0  0  0  0  0  0  0  0  0  0  0  0
    1.8060    1.2040    0.5230 O   0  0  0  0  0  0  0  0  0  0  0  0
    1.7980   -1.0310    0.4540 N   0  0  0  0  0  0  0  0  0  0  0  0
    3.2680   -1.0140    0.4790 C   0  0  0  0  0  0  0  0  0  0  0  0
    3.8240   -0.3590   -0.7400 C   0  0  0  0  0  0  0  0  0  0  0  0
    5.3140   -0.3700   -0.6850 C   0  0  0  0  0  0  0  0  0  0  0  0
    6.1050    0.5950   -0.1390 C   0  0  0  0  0  0  0  0  0  0  0  0
    7.4120    0.1720   -0.3100 C   0  0  0  0  0  0  0  0  0  0  0  0
    7.3390   -1.0370   -0.9580 C   0  0  0  0  0  0  0  0  0  0  0  0
    6.0770   -1.3210   -1.1600 O   0  0  0  0  0  0  0  0  0  0  0  0
   -1.2610   -0.8320   -0.0620 C   0  0  0  0  0  0  0  0  0  0  0  0
   -2.5390   -0.6090    0.0430 N   0  0  0  0  0  0  0  0  0  0  0  0
   -3.7000   -1.3450   -0.2250 C   0  0  0  0  0  0  0  0  0  0  0  0
   -3.7350   -2.5400   -0.8320 C   0  0  0  0  0  0  0  0  0  0  0  0
   -2.5920   -3.3420   -1.3510 C   0  0  0  0  0  0  0  0  0  0  0  0
   -1.5480   -2.4360   -1.8120 N   0  0  0  0  0  0  0  0  0  0  0  0
   -0.6850   -1.9990   -0.6940 C   0  0  0  0  0  0  0  0  0  0  0  0
   -5.0620   -2.9810   -0.9330 N   0  0  0  0  0  0  0  0  0  0  0  0
   -5.8850   -1.9900   -0.3490 C   0  0  0  0  0  0  0  0  0  0  0  0
   -5.0900   -1.0200    0.0720 C   0  0  0  0  0  0  0  0  0  0  0  0
  1  2  2  0
  2  3  1  0
  2  4  1  0
  4  5  2  3
  4  7  1  0
  5  6  1  0
  7  8  2  3
  8  9  1  0
  8 19  1  0
  9 10  2  0
  9 11  1  0
 11 12  1  0
 12 13  1  0
 13 14  1  0
 14 15  2  0
 14 18  1  0
 15 16  1  0
 16 17  2  0
 17 18  1  0
 19 20  2  0
 19 25  1  0
 20 21  1  0
 21 22  2  0
 21 28  1  0
 22 23  1  0
 22 26  1  0
 23 24  1  0
 24 25  1  0
 26 27  1  0
 27 28  2  0
M  CHG  1  26   1
M  END
