
     RDKit          3D

 25 26  0  0  0  0  0  0  0  0999 V2000
   -2.0200    0.3320   -2.7560 C   0  0  0  0  0  0  0  0  0  0  0  0
   -2.3940   -0.7280   -1.7430 C   0  0  0  0  0  0  0  0  0  0  0  0
   -2.9180   -0.1160   -0.5010 C   0  0  0  0  0  0  0  0  0  0  0  0
   -2.2030    0.4930    0.4840 C   0  0  0  0  0  0  0  0  0  0  0  0
   -0.7820    0.7330    0.6640 C   0  0  0  0  0  0  0  0  0  0  0  0
   -0.4440    1.4020    1.7060 O   0  0  0  0  0  0  0  0  0  0  0  0
    0.2730    0.3320   -0.1490 N   0  0  0  0  0  0  0  0  0  0  0  0
    1.6640    0.6040    0.0690 C   0  0  0  0  0  0  0  0  0  0  0  0
    2.1090    1.5900    0.8700 C   0  0  0  0  0  0  0  0  0  0  0  0
    3.4820    1.7840    1.0600 C   0  0  0  0  0  0  0  0  0  0  0  0
    4.3970    0.9650    0.4250 C   0  0  0  0  0  0  0  0  0  0  0  0
    3.9710   -0.0510   -0.4000 C   0  0  0  0  0  0  0  0  0  0  0  0
    4.8880   -0.8650   -1.0280 O   0  0  0  0  0  0  0  0  0  0  0  0
    6.2760   -0.7570   -0.8790 C   0  0  0  0  0  0  0  0  0  0  0  0
    6.7260   -0.9890    0.5130 C   0  0  0  0  0  0  0  0  0  0  0  0
    8.1040   -0.8300    0.8470 N   0  0  0  0  0  0  0  0  0  0  0  0
    5.9100   -1.3230    1.4000 O   0  0  0  0  0  0  0  0  0  0  0  0
    2.6160   -0.1990   -0.5520 C   0  0  0  0  0  0  0  0  0  0  0  0
   -3.1480    0.8920    1.4020 N   0  0  0  0  0  0  0  0  0  0  0  0
   -4.3710    0.5510    1.0120 C   0  0  0  0  0  0  0  0  0  0  0  0
   -5.6380    0.8180    1.7510 C   0  0  0  0  0  0  0  0  0  0  0  0
   -4.2890   -0.0920   -0.1900 C   0  0  0  0  0  0  0  0  0  0  0  0
   -5.3460   -0.6470   -1.0120 C   0  0  0  0  0  0  0  0  0  0  0  0
   -5.7280   -2.0640   -0.7800 C   0  0  0  0  0  0  0  0  0  0  0  0
   -5.9420    0.0240   -1.9010 O   0  0  0  0  0  0  0  0  0  0  0  0
  1  2  1  0
  2  3  1  0
  3  4  2  0
  3 22  1  0
  4  5  1  0
  4 19  1  0
  5  6  2  0
  5  7  1  0
  7  8  1  0
  8  9  2  0
  8 18  1  0
  9 10  1  0
 10 11  2  0
 11 12  1  0
 12 13  1  0
 12 18  2  0
 13 14  1  0
 14 15  1  0
 15 16  1  0
 15 17  2  0
 19 20  1  0
 20 21  1  0
 20 22  2  0
 22 23  1  0
 23 24  1  0
 23 25  2  0
M  END
