
     RDKit          3D

 28 30  0  0  0  0  0  0  0  0999 V2000
   -5.6750   -1.8010   -2.5600 C   0  0  0  0  0  0  0  0  0  0  0  0
   -5.0830   -1.1300   -1.3200 C   0  0  0  0  0  0  0  0  0  0  0  0
   -5.8500   -0.9330   -0.3290 C   0  0  0  0  0  0  0  0  0  0  0  0
   -5.6850   -0.3490    0.9850 C   0  0  0  0  0  0  0  0  0  0  0  0
   -4.6280    0.1780    1.5640 C   0  0  0  0  0  0  0  0  0  0  0  0
   -3.3370    0.3490    1.1180 N   0  0  0  0  0  0  0  0  0  0  0  0
   -2.3480    0.9050    1.8100 C   0  0  0  0  0  0  0  0  0  0  0  0
   -1.0140    1.0880    1.3670 N   0  0  0  0  0  0  0  0  0  0  0  0
   -0.5190    0.7130    0.1210 C   0  0  0  0  0  0  0  0  0  0  0  0
   -1.2230    0.1690   -0.7360 O   0  0  0  0  0  0  0  0  0  0  0  0
    0.9430    1.0050   -0.1410 C   0  0  0  0  0  0  0  0  0  0  0  0
    1.3270    0.5490   -1.5090 C   0  0  0  0  0  0  0  0  0  0  0  0
    2.6980    0.7780   -1.8530 N   0  0  0  0  0  0  0  0  0  0  0  0
    3.8110    0.1290   -1.2460 C   0  0  0  0  0  0  0  0  0  0  0  0
    3.6850   -0.9510   -0.4010 C   0  0  0  0  0  0  0  0  0  0  0  0
    4.7710   -1.5610    0.1900 C   0  0  0  0  0  0  0  0  0  0  0  0
    6.0080   -1.0710   -0.0790 N   0  0  0  0  0  0  0  0  0  0  0  0
    6.1820   -0.0220   -0.8960 C   0  0  0  0  0  0  0  0  0  0  0  0
    7.5590    0.4830   -1.1660 C   0  0  0  0  0  0  0  0  0  0  0  0
    8.5600   -0.3660   -0.4220 C   0  0  0  0  0  0  0  0  0  0  0  0
    9.8410    0.1220   -0.6790 F   0  0  0  0  0  0  0  0  0  0  0  0
    5.0820    0.5880   -1.4880 C   0  0  0  0  0  0  0  0  0  0  0  0
   -2.6630    1.3480    3.1000 C   0  0  0  0  0  0  0  0  0  0  0  0
   -3.9360    1.2000    3.5910 C   0  0  0  0  0  0  0  0  0  0  0  0
   -4.1910    1.6110    4.7640 O   0  0  0  0  0  0  0  0  0  0  0  0
   -4.9330    0.6160    2.8340 C   0  0  0  0  0  0  0  0  0  0  0  0
   -6.2020    0.3910    3.1330 C   0  0  0  0  0  0  0  0  0  0  0  0
   -6.8310   -0.2540    1.9830 C   0  0  0  0  0  0  0  0  0  0  0  0
  1  2  1  0
  2  3  2  3
  3  4  1  0
  4  5  2  0
  4 28  1  0
  5  6  1  0
  5 26  1  0
  6  7  1  0
  7  8  1  0
  7 23  2  0
  8  9  1  0
  9 10  2  0
  9 11  1  0
 11 12  1  0
 12 13  1  0
 13 14  1  0
 14 15  2  0
 14 22  1  0
 15 16  1  0
 16 17  2  0
 17 18  1  0
 18 19  1  0
 18 22  2  0
 19 20  1  0
 20 21  1  0
 23 24  1  0
 24 25  2  0
 24 26  1  0
 26 27  2  0
 27 28  1  0
M  CHG  1  17   1
M  END
