
     RDKit          3D

 28 29  0  0  0  0  0  0  0  0999 V2000
    8.4870   -0.2760   -1.3430 C   0  0  0  0  0  0  0  0  0  0  0  0
    8.4200    1.0310   -0.6280 C   0  0  0  0  0  0  0  0  0  0  0  0
    7.3250    1.1300    0.3570 N   0  0  0  0  0  0  0  0  0  0  0  0
    6.0210    0.9140   -0.0590 C   0  0  0  0  0  0  0  0  0  0  0  0
    5.7850    0.5960   -1.2660 O   0  0  0  0  0  0  0  0  0  0  0  0
    4.8860    1.0440    0.8830 C   0  0  0  0  0  0  0  0  0  0  0  0
    3.6680    0.4510    0.4250 O   0  0  0  0  0  0  0  0  0  0  0  0
    2.5130    0.7470    1.1010 C   0  0  0  0  0  0  0  0  0  0  0  0
    2.6720    1.5960    2.0690 O   0  0  0  0  0  0  0  0  0  0  0  0
    1.2130    0.2130    0.8180 C   0  0  0  0  0  0  0  0  0  0  0  0
    0.0880    0.7000    1.3680 N   0  0  0  0  0  0  0  0  0  0  0  0
   -0.9730   -0.1280    1.0400 C   0  0  0  0  0  0  0  0  0  0  0  0
   -2.3020    0.0770    1.6510 C   0  0  0  0  0  0  0  0  0  0  0  0
   -3.3780    0.2870    0.7630 N   0  0  0  0  0  0  0  0  0  0  0  0
   -4.6300    0.6920    1.2740 C   0  0  0  0  0  0  0  0  0  0  0  0
   -4.6030    0.9260    2.5720 O   0  0  0  0  0  0  0  0  0  0  0  0
   -5.8600    0.8330    0.5310 C   0  0  0  0  0  0  0  0  0  0  0  0
   -6.2980    0.6340   -0.7020 C   0  0  0  0  0  0  0  0  0  0  0  0
   -7.5940    0.8060   -1.0130 C   0  0  0  0  0  0  0  0  0  0  0  0
   -8.4730    1.1900   -0.0630 C   0  0  0  0  0  0  0  0  0  0  0  0
   -9.9190    1.4490   -0.0360 C   0  0  0  0  0  0  0  0  0  0  0  0
   -7.4150    1.3310    1.4050 S   0  0  0  0  0  0  0  0  0  0  0  0
   -0.4750   -1.1640    0.2580 C   0  0  0  0  0  0  0  0  0  0  0  0
   -1.3090   -2.2310   -0.2470 C   0  0  0  0  0  0  0  0  0  0  0  0
   -0.7330   -3.3100   -1.1420 C   0  0  0  0  0  0  0  0  0  0  0  0
   -2.5370   -2.3690   -0.0130 O   0  0  0  0  0  0  0  0  0  0  0  0
    0.8710   -0.9440    0.1280 C   0  0  0  0  0  0  0  0  0  0  0  0
    1.8260   -1.7870   -0.5760 C   0  0  0  0  0  0  0  0  0  0  0  0
  1  2  1  0
  2  3  1  0
  3  4  1  0
  4  5  2  0
  4  6  1  0
  6  7  1  0
  7  8  1  0
  8  9  2  0
  8 10  1  0
 10 11  1  0
 10 27  2  0
 11 12  1  0
 12 13  1  0
 12 23  2  0
 13 14  1  0
 14 15  1  0
 15 16  2  0
 15 17  1  0
 17 18  2  0
 17 22  1  0
 18 19  1  0
 19 20  2  0
 20 21  1  0
 20 22  1  0
 23 24  1  0
 23 27  1  0
 24 25  1  0
 24 26  2  0
 27 28  1  0
M  END
