
     RDKit          3D

 28 29  0  0  0  0  0  0  0  0999 V2000
   -2.9000    0.3500   -2.2880 C   0  0  0  0  0  0  0  0  0  0  0  0
   -3.6200    0.7800   -1.0250 C   0  0  0  0  0  0  0  0  0  0  0  0
   -2.9380    0.3410    0.1630 N   0  0  0  0  0  0  0  0  0  0  0  0
   -3.5250    0.6050    1.4510 C   0  0  0  0  0  0  0  0  0  0  0  0
   -3.5400    2.0520    1.8450 C   0  0  0  0  0  0  0  0  0  0  0  0
   -4.2600    2.7900    0.9400 O   0  0  0  0  0  0  0  0  0  0  0  0
   -4.2590    4.1280    1.3260 C   0  0  0  0  0  0  0  0  0  0  0  0
   -1.6640   -0.3210    0.1490 C   0  0  0  0  0  0  0  0  0  0  0  0
   -0.5800    0.3280    0.2730 N   0  0  0  0  0  0  0  0  0  0  0  0
    0.7440   -0.2170    0.2740 C   0  0  0  0  0  0  0  0  0  0  0  0
    2.0580    0.9000    0.5230 S   0  0  0  0  0  0  0  0  0  0  0  0
    3.6580    0.4360   -0.0080 C   0  0  0  0  0  0  0  0  0  0  0  0
    4.0060   -0.5370   -0.8870 C   0  0  0  0  0  0  0  0  0  0  0  0
    5.3500   -0.8090   -1.1560 C   0  0  0  0  0  0  0  0  0  0  0  0
    6.3700   -0.1110   -0.5510 C   0  0  0  0  0  0  0  0  0  0  0  0
    7.7110   -0.3650   -0.8020 O   0  0  0  0  0  0  0  0  0  0  0  0
    6.0360    0.8830    0.3450 C   0  0  0  0  0  0  0  0  0  0  0  0
    7.1310    1.6620    1.0250 C   0  0  0  0  0  0  0  0  0  0  0  0
    6.5280    2.5860    1.8620 O   0  0  0  0  0  0  0  0  0  0  0  0
    4.7210    1.1320    0.5930 C   0  0  0  0  0  0  0  0  0  0  0  0
    0.9270   -1.5130    0.1390 C   0  0  0  0  0  0  0  0  0  0  0  0
   -0.2230   -2.3780   -0.0120 C   0  0  0  0  0  0  0  0  0  0  0  0
   -0.0820   -3.6180   -0.1440 O   0  0  0  0  0  0  0  0  0  0  0  0
   -1.5760   -1.7610   -0.0080 C   0  0  0  0  0  0  0  0  0  0  0  0
   -2.6020   -2.5410   -0.1430 C   0  0  0  0  0  0  0  0  0  0  0  0
   -3.9430   -2.1390   -0.1610 N   0  0  0  0  0  0  0  0  0  0  0  0
   -2.3810   -3.9230   -0.2860 O   0  0  0  0  0  0  0  0  0  0  0  0
   -2.6270   -4.5880   -1.5060 C   0  0  0  0  0  0  0  0  0  0  0  0
  1  2  1  0
  2  3  1  0
  3  4  1  0
  3  8  1  0
  4  5  1  0
  5  6  1  0
  6  7  1  0
  8  9  2  0
  8 24  1  0
  9 10  1  0
 10 11  1  0
 10 21  2  0
 11 12  1  0
 12 13  2  0
 12 20  1  0
 13 14  1  0
 14 15  2  0
 15 16  1  0
 15 17  1  0
 17 18  1  0
 17 20  2  0
 18 19  1  0
 21 22  1  0
 22 23  2  0
 22 24  1  0
 24 25  2  3
 25 26  1  0
 25 27  1  0
 27 28  1  0
M  END
