
     RDKit          3D

 28 29  0  0  0  0  0  0  0  0999 V2000
   -4.4250   -1.4300    1.1960 C   0  0  0  0  0  0  0  0  0  0  0  0
   -5.3660   -0.4120    0.5840 C   0  0  0  0  0  0  0  0  0  0  0  0
   -4.6640    0.8190    0.4240 N   0  0  0  0  0  0  0  0  0  0  0  0
   -5.3870    1.9870    0.8060 C   0  0  0  0  0  0  0  0  0  0  0  0
   -6.8200    2.0030    0.3370 C   0  0  0  0  0  0  0  0  0  0  0  0
   -3.8720    0.9680   -1.0920 S   0  0  1  0  0  0  0  0  0  0  0  0
   -4.8460    0.8160   -2.2510 O   0  0  0  0  0  0  0  0  0  0  0  0
   -3.2360    2.3340   -1.1500 O   0  0  0  0  0  0  0  0  0  0  0  0
   -2.6680   -0.2840   -1.2830 C   0  0  0  0  0  0  0  0  0  0  0  0
   -3.0000   -1.4860   -1.8510 C   0  0  0  0  0  0  0  0  0  0  0  0
   -2.0260   -2.4350   -1.9800 C   0  0  0  0  0  0  0  0  0  0  0  0
   -0.7070   -2.2480   -1.5630 C   0  0  0  0  0  0  0  0  0  0  0  0
    0.1990   -3.2600   -1.7340 O   0  0  0  0  0  0  0  0  0  0  0  0
   -0.3550   -1.0240   -0.9810 C   0  0  0  0  0  0  0  0  0  0  0  0
    0.9960   -0.8350   -0.5540 N   0  0  0  0  0  0  0  0  0  0  0  0
    1.5420    0.2970    0.0380 C   0  0  0  0  0  0  0  0  0  0  0  0
    0.8100    1.3100    0.2610 O   0  0  0  0  0  0  0  0  0  0  0  0
    2.9310    0.4300    0.4430 C   0  0  0  0  0  0  0  0  0  0  0  0
    3.4090    1.4190    1.2700 N   0  0  0  0  0  0  0  0  0  0  0  0
    4.7170    1.3180    1.4530 C   0  0  0  0  0  0  0  0  0  0  0  0
    5.6000    2.1970    2.2790 C   0  0  0  0  0  0  0  0  0  0  0  0
    5.1260    0.2300    0.7280 C   0  0  0  0  0  0  0  0  0  0  0  0
    6.4710   -0.2890    0.6120 C   0  0  0  0  0  0  0  0  0  0  0  0
    7.3690    0.1890   -0.4550 C   0  0  0  0  0  0  0  0  0  0  0  0
    6.8880   -1.1600    1.4300 O   0  0  0  0  0  0  0  0  0  0  0  0
    4.0190   -0.3260    0.0970 C   0  0  0  0  0  0  0  0  0  0  0  0
    4.0800   -1.5120   -0.8020 C   0  0  0  0  0  0  0  0  0  0  0  0
   -1.3490   -0.0870   -0.8620 C   0  0  0  0  0  0  0  0  0  0  0  0
  1  2  1  0
  2  3  1  0
  3  4  1  0
  6  3  1  1
  4  5  1  0
  6  7  2  0
  6  8  2  0
  6  9  1  0
  9 10  2  0
  9 28  1  0
 10 11  1  0
 11 12  2  0
 12 13  1  0
 12 14  1  0
 14 15  1  0
 14 28  2  0
 15 16  1  0
 16 17  2  0
 16 18  1  0
 18 19  1  0
 18 26  2  0
 19 20  1  0
 20 21  1  0
 20 22  2  0
 22 23  1  0
 22 26  1  0
 23 24  1  0
 23 25  2  0
 26 27  1  0
M  END
