
     RDKit          3D

 31 33  0  0  0  0  0  0  0  0999 V2000
    6.1900    0.7890   -1.7780 C   0  0  0  0  0  0  0  0  0  0  0  0
    5.3310    0.4460   -0.6640 N   0  0  0  0  0  0  0  0  0  0  0  0
    5.8780   -0.0290    0.5800 C   0  0  0  0  0  0  0  0  0  0  0  0
    6.1050    1.1150    1.5090 C   0  0  1  0  0  0  0  0  0  0  0  0
    6.6750    0.5650    2.8120 C   0  0  0  0  0  0  0  0  0  0  0  0
    8.1240    0.3140    2.4200 C   0  0  0  0  0  0  0  0  0  0  0  0
    8.3970    1.1010    1.2560 N   0  0  0  0  0  0  0  0  0  0  0  0
    7.2380    1.9670    1.0360 C   0  0  0  0  0  0  0  0  0  0  0  0
    3.9040    0.5510   -0.7710 C   0  0  0  0  0  0  0  0  0  0  0  0
    3.1850    0.2510    0.1990 O   0  0  0  0  0  0  0  0  0  0  0  0
    3.2680    1.0150   -2.0270 C   0  0  0  0  0  0  0  0  0  0  0  0
    1.8760    0.9340   -1.8840 O   0  0  0  0  0  0  0  0  0  0  0  0
    1.2450   -0.2740   -1.6810 C   0  0  0  0  0  0  0  0  0  0  0  0
    1.9270   -1.4430   -1.6300 C   0  0  0  0  0  0  0  0  0  0  0  0
    1.2030   -2.5980   -1.4190 C   0  0  0  0  0  0  0  0  0  0  0  0
    1.9020   -3.8500   -1.3610 N   0  0  0  0  0  0  0  0  0  0  0  0
   -0.1630   -2.6030   -1.2620 C   0  0  0  0  0  0  0  0  0  0  0  0
   -0.8890   -1.3990   -1.3120 C   0  0  0  0  0  0  0  0  0  0  0  0
   -2.2860   -1.4610   -1.1530 N   0  0  0  0  0  0  0  0  0  0  0  0
   -3.1910   -0.3830   -1.0560 C   0  0  0  0  0  0  0  0  0  0  0  0
   -2.7590    0.7840   -1.1090 O   0  0  0  0  0  0  0  0  0  0  0  0
   -4.6730   -0.6260   -0.8880 C   0  0  0  0  0  0  0  0  0  0  0  0
   -5.3390    0.7120   -0.8190 C   0  0  0  0  0  0  0  0  0  0  0  0
   -6.8200    0.6380   -0.6520 C   0  0  1  0  0  0  0  0  0  0  0  0
   -7.3350   -0.0540   -1.7550 O   0  0  0  0  0  0  0  0  0  0  0  0
   -7.2420   -0.1110    0.5780 C   0  0  2  0  0  0  0  0  0  0  0  0
   -8.7620   -0.1110    0.6260 C   0  0  0  0  0  0  0  0  0  0  0  0
   -9.1130    0.3420    2.0390 C   0  0  0  0  0  0  0  0  0  0  0  0
   -8.0280    1.2290    2.3770 N   0  0  0  0  0  0  0  0  0  0  0  0
   -6.8720    0.5620    1.8590 C   0  0  0  0  0  0  0  0  0  0  0  0
   -0.1540   -0.2620   -1.5220 C   0  0  0  0  0  0  0  0  0  0  0  0
  1  2  1  0
  2  3  1  0
  2  9  1  0
  4  3  1  6
  4  5  1  0
  4  8  1  0
  5  6  1  0
  6  7  1  0
  7  8  1  0
  9 10  2  0
  9 11  1  0
 11 12  1  0
 12 13  1  0
 13 14  2  0
 13 31  1  0
 14 15  1  0
 15 16  1  0
 15 17  2  0
 17 18  1  0
 18 19  1  0
 18 31  2  0
 19 20  1  0
 20 21  2  0
 20 22  1  0
 22 23  1  0
 23 24  1  0
 24 25  1  6
 24 26  1  0
 26 27  1  6
 26 30  1  0
 27 28  1  0
 28 29  1  0
 29 30  1  0
M  CHG  2   7   1  29   1
M  END
