
     RDKit          3D

 31 33  0  0  0  0  0  0  0  0999 V2000
    2.4890    1.1420   -2.3760 C   0  0  0  0  0  0  0  0  0  0  0  0
    2.4430    0.4840   -0.9890 C   0  0  2  0  0  0  0  0  0  0  0  0
    1.0910    0.7600   -0.5000 O   0  0  0  0  0  0  0  0  0  0  0  0
    0.1910   -0.1670   -0.2150 C   0  0  0  0  0  0  0  0  0  0  0  0
    0.2070   -1.2820   -0.2320 O   0  0  0  0  0  0  0  0  0  0  0  0
   -1.3310    0.5300    0.3040 N   0  0  0  0  0  0  0  0  0  0  0  0
   -1.9980   -0.7330    0.6270 C   0  0  0  0  0  0  0  0  0  0  0  0
   -1.7690   -1.8510    0.4500 O   0  0  0  0  0  0  0  0  0  0  0  0
   -3.2680   -0.3650    1.3680 N   0  0  0  0  0  0  0  0  0  0  0  0
   -4.1510   -1.3280    1.8550 C   0  0  1  0  0  0  0  0  0  0  0  0
   -4.0650   -1.3760    3.4310 C   0  0  0  0  0  0  0  0  0  0  0  0
   -4.5270    0.0830    3.6430 C   0  0  0  0  0  0  0  0  0  0  0  0
   -5.7520    0.1880    2.7170 C   0  0  0  0  0  0  0  0  0  0  0  0
   -5.6150   -0.9390    1.7530 C   0  0  1  0  0  0  0  0  0  0  0  0
   -6.2010   -0.7900    0.4040 C   0  0  0  0  0  0  0  0  0  0  0  0
   -5.6130    0.2170   -0.4890 C   0  0  0  0  0  0  0  0  0  0  0  0
   -6.1970    0.2710   -1.8540 C   0  0  0  0  0  0  0  0  0  0  0  0
   -7.6120    0.5820   -2.0120 C   0  0  0  0  0  0  0  0  0  0  0  0
   -8.5290   -0.3930   -1.5220 N   0  0  0  0  0  0  0  0  0  0  0  0
    3.4750    1.0150   -0.1790 C   0  0  0  0  0  0  0  0  0  0  0  0
    3.1170    1.8330    0.7590 O   0  0  0  0  0  0  0  0  0  0  0  0
    4.8500    0.7710   -0.2620 N   0  0  0  0  0  0  0  0  0  0  0  0
    5.7850    1.4520    0.6740 C   0  0  0  0  0  0  0  0  0  0  0  0
    6.7280    0.3890    1.2050 C   0  0  0  0  0  0  0  0  0  0  0  0
    7.6100    0.0910   -0.0020 C   0  0  0  0  0  0  0  0  0  0  0  0
    6.9600   -0.1440   -1.1220 C   0  0  0  0  0  0  0  0  0  0  0  0
    7.7520   -0.4360   -2.3020 C   0  0  0  0  0  0  0  0  0  0  0  0
    9.0760   -0.4470   -2.1740 C   0  0  0  0  0  0  0  0  0  0  0  0
    9.8090   -0.1880   -0.9370 C   0  0  0  0  0  0  0  0  0  0  0  0
    8.9880    0.1040    0.2140 N   0  0  0  0  0  0  0  0  0  0  0  0
    5.4730   -0.1300   -1.1970 C   0  0  0  0  0  0  0  0  0  0  0  0
  2  1  1  6
  2  3  1  0
  2 20  1  0
  3  4  1  0
  4  5  2  0
  4  6  1  0
  6  7  1  0
  7  8  2  0
  7  9  1  0
 10  9  1  1
 10 11  1  0
 10 14  1  0
 11 12  1  0
 12 13  1  0
 13 14  1  0
 14 15  1  6
 15 16  1  0
 16 17  1  0
 17 18  1  0
 18 19  1  0
 20 21  2  0
 20 22  1  0
 22 23  1  0
 22 31  1  0
 23 24  1  0
 24 25  1  0
 25 26  2  0
 25 30  1  0
 26 27  1  0
 26 31  1  0
 27 28  2  0
 28 29  1  0
 29 30  1  0
M  CHG  2  19   1  30   1
M  END
