
     RDKit          3D

 31 31  0  0  0  0  0  0  0  0999 V2000
    0.1290    4.4690    3.5420 C   0  0  0  0  0  0  0  0  0  0  0  0
    0.2940    2.9790    3.7380 C   0  0  0  0  0  0  0  0  0  0  0  0
   -0.5580    2.3200    2.8280 O   0  0  0  0  0  0  0  0  0  0  0  0
   -0.4780    2.4550    1.4510 C   0  0  0  0  0  0  0  0  0  0  0  0
    0.4110    3.2140    0.9950 O   0  0  0  0  0  0  0  0  0  0  0  0
   -1.3710    1.7640    0.5200 C   0  0  1  0  0  0  0  0  0  0  0  0
   -1.0370    2.1110   -0.8030 O   0  0  0  0  0  0  0  0  0  0  0  0
   -1.2720    0.3260    0.5840 N   0  0  0  0  0  0  0  0  0  0  0  0
   -2.4840   -0.4320    0.7590 C   0  0  0  0  0  0  0  0  0  0  0  0
   -3.1350   -0.8020   -0.5430 C   0  0  0  0  0  0  0  0  0  0  0  0
   -4.3550   -1.5700   -0.2560 C   0  0  0  0  0  0  0  0  0  0  0  0
   -4.6770   -1.8190    0.9150 O   0  0  0  0  0  0  0  0  0  0  0  0
   -5.1530   -2.0160   -1.3230 N   0  0  0  0  0  0  0  0  0  0  0  0
   -6.3470   -2.7670   -1.1160 C   0  0  0  0  0  0  0  0  0  0  0  0
   -6.0030   -4.0530   -0.4040 C   0  0  0  0  0  0  0  0  0  0  0  0
   -7.1540   -4.8270   -0.1800 O   0  0  0  0  0  0  0  0  0  0  0  0
   -0.0410   -0.3740    0.4770 C   0  0  0  0  0  0  0  0  0  0  0  0
   -0.0680   -1.6230    0.5510 O   0  0  0  0  0  0  0  0  0  0  0  0
    1.1860    0.2300    0.2970 O   0  0  0  0  0  0  0  0  0  0  0  0
    2.4050   -0.4850    0.1950 C   0  0  2  0  0  0  0  0  0  0  0  0
    3.3380   -0.1780    1.2910 C   0  0  0  0  0  0  0  0  0  0  0  0
    3.0200    0.3110    2.3420 O   0  0  0  0  0  0  0  0  0  0  0  0
    5.0610   -0.5590    1.0360 S   0  0  0  0  0  0  0  0  0  0  0  0
    5.3510   -0.0970   -0.6640 C   0  0  0  0  0  0  0  0  0  0  0  0
    6.4720   -0.2680   -1.2820 C   0  0  0  0  0  0  0  0  0  0  0  0
    7.6000   -0.8330   -0.7040 O   0  0  0  0  0  0  0  0  0  0  0  0
    4.1730    0.5120   -1.3240 C   0  0  1  0  0  0  0  0  0  0  0  0
    4.4140    0.8150   -2.7750 C   0  0  0  0  0  0  0  0  0  0  0  0
    3.2620    1.3810   -3.3070 O   0  0  0  0  0  0  0  0  0  0  0  0
    2.9480   -0.3280   -1.1850 C   0  0  1  0  0  0  0  0  0  0  0  0
    3.2470   -1.5680   -1.7980 O   0  0  0  0  0  0  0  0  0  0  0  0
  1  2  1  0
  2  3  1  0
  3  4  1  0
  4  5  2  0
  4  6  1  0
  6  7  1  6
  6  8  1  0
  8  9  1  0
  8 17  1  0
  9 10  1  0
 10 11  1  0
 11 12  2  0
 11 13  1  0
 13 14  1  0
 14 15  1  0
 15 16  1  0
 17 18  2  0
 17 19  1  0
 20 19  1  6
 20 21  1  0
 20 30  1  0
 21 22  2  0
 21 23  1  0
 23 24  1  0
 24 25  2  3
 24 27  1  0
 25 26  1  0
 27 28  1  6
 27 30  1  0
 28 29  1  0
 30 31  1  1
M  END
