
     RDKit          3D

 23 25  0  0  0  0  0  0  0  0999 V2000
    1.8340   -0.2160    0.4760 O   0  0  0  0  0  0  0  0  0  0  0  0
    2.3950   -0.7490   -0.5260 C   0  0  0  0  0  0  0  0  0  0  0  0
    1.8090   -1.9410   -0.8510 N   0  0  0  0  0  0  0  0  0  0  0  0
    0.6840   -2.4580   -0.0900 C   0  0  0  0  0  0  0  0  0  0  0  0
    0.3890   -3.5620   -0.6120 N   0  0  0  0  0  0  0  0  0  0  0  0
   -0.6850   -4.1440    0.0570 C   0  0  0  0  0  0  0  0  0  0  0  0
   -1.1690   -5.2410   -0.2670 O   0  0  0  0  0  0  0  0  0  0  0  0
   -1.0820   -3.3290    1.0750 O   0  0  0  0  0  0  0  0  0  0  0  0
   -0.2350   -2.2080    1.0190 C   0  0  2  0  0  0  0  0  0  0  0  0
   -1.1250   -1.0150    0.8510 C   0  0  0  0  0  0  0  0  0  0  0  0
   -2.1340   -0.9380   -0.0320 N   0  0  0  0  0  0  0  0  0  0  0  0
   -2.7120    0.2770    0.1040 C   0  0  0  0  0  0  0  0  0  0  0  0
   -2.0550    0.9310    1.0680 N   0  0  0  0  0  0  0  0  0  0  0  0
   -1.0820    0.1290    1.5200 N   0  0  0  0  0  0  0  0  0  0  0  0
   -2.4510    2.2660    1.4470 C   0  0  0  0  0  0  0  0  0  0  0  0
   -3.1100    3.0100    0.3120 C   0  0  0  0  0  0  0  0  0  0  0  0
   -4.2040    2.2360   -0.2160 O   0  0  0  0  0  0  0  0  0  0  0  0
   -3.8210    0.9250   -0.5720 C   0  0  0  0  0  0  0  0  0  0  0  0
   -4.4350    0.3080   -1.4740 O   0  0  0  0  0  0  0  0  0  0  0  0
    3.4770   -0.1610   -1.1890 N   0  0  0  0  0  0  0  0  0  0  0  0
    4.0810    1.3980   -0.5660 P   0  0  0  0  0  0  0  0  0  0  0  0
    5.7470    1.2420   -0.2030 O   0  0  0  0  0  0  0  0  0  0  0  0
    3.6660    2.7500   -1.5260 O   0  0  0  0  0  0  0  0  0  0  0  0
  1  2  2  0
  2  3  1  0
  2 20  1  0
  3  4  1  0
  4  5  2  0
  4  9  1  0
  5  6  1  0
  6  7  2  0
  6  8  1  0
  8  9  1  0
  9 10  1  6
 10 11  1  0
 10 14  2  0
 11 12  2  0
 12 13  1  0
 12 18  1  0
 13 14  1  0
 13 15  1  0
 15 16  1  0
 16 17  1  0
 17 18  1  0
 18 19  2  0
 20 21  1  0
 21 22  1  0
 21 23  1  0
M  END
