
     RDKit          3D

 22 24  0  0  0  0  0  0  0  0999 V2000
   -5.1550    0.4610   -0.5890 O   0  0  0  0  0  0  0  0  0  0  0  0
   -3.9090    0.7230   -0.6640 C   0  0  0  0  0  0  0  0  0  0  0  0
   -3.0730    0.0820   -1.6370 N   0  0  0  0  0  0  0  0  0  0  0  0
   -1.6930    0.4250   -1.6610 C   0  0  0  0  0  0  0  0  0  0  0  0
   -1.0160    0.1470   -2.6820 O   0  0  0  0  0  0  0  0  0  0  0  0
   -1.0170    1.0970   -0.5330 C   0  0  2  0  0  0  0  0  0  0  0  0
    0.1350    0.4090   -0.0290 N   0  0  0  0  0  0  0  0  0  0  0  0
    1.3120    0.9970    0.2520 C   0  0  0  0  0  0  0  0  0  0  0  0
    1.6610    2.3740    0.1160 N   0  0  0  0  0  0  0  0  0  0  0  0
    3.2960    2.9450    0.5490 P   0  0  0  0  0  0  0  0  0  0  0  0
    4.4910    1.7650    0.1440 O   0  0  0  0  0  0  0  0  0  0  0  0
    3.6310    4.4940   -0.0780 O   0  0  0  0  0  0  0  0  0  0  0  0
    2.1470    0.0420    0.7030 N   0  0  0  0  0  0  0  0  0  0  0  0
    1.4920   -1.1260    0.7000 C   0  0  0  0  0  0  0  0  0  0  0  0
    0.2260   -0.9180    0.2440 C   0  0  0  0  0  0  0  0  0  0  0  0
   -0.7910   -1.9560    0.1000 C   0  0  0  0  0  0  0  0  0  0  0  0
   -0.3110   -3.3450    0.3040 C   0  0  0  0  0  0  0  0  0  0  0  0
    0.9490   -3.4900    0.9520 N   0  0  0  0  0  0  0  0  0  0  0  0
    1.9160   -2.4700    1.0850 C   0  0  0  0  0  0  0  0  0  0  0  0
    3.0800   -2.7100    1.5140 O   0  0  0  0  0  0  0  0  0  0  0  0
   -1.9840    1.3750    0.6100 C   0  0  0  0  0  0  0  0  0  0  0  0
   -3.2840    1.6320    0.1780 O   0  0  0  0  0  0  0  0  0  0  0  0
  1  2  2  0
  2  3  1  0
  2 22  1  0
  3  4  1  0
  4  5  2  0
  4  6  1  0
  6  7  1  1
  6 21  1  0
  7  8  1  0
  7 15  1  0
  8  9  1  0
  8 13  2  0
  9 10  1  0
 10 11  1  0
 10 12  1  0
 13 14  1  0
 14 15  2  0
 14 19  1  0
 15 16  1  0
 16 17  1  0
 17 18  1  0
 18 19  1  0
 19 20  2  0
 21 22  1  0
M  END
