
     RDKit          3D

 23 25  0  0  0  0  0  0  0  0999 V2000
    1.8000    1.6940   -0.1660 O   0  0  0  0  0  0  0  0  0  0  0  0
    0.5650    1.7850   -0.2560 C   0  0  0  0  0  0  0  0  0  0  0  0
   -0.0980    2.9460   -0.6470 O   0  0  0  0  0  0  0  0  0  0  0  0
   -1.4620    3.1330   -0.4270 C   0  0  0  0  0  0  0  0  0  0  0  0
   -2.2740    1.8880   -0.4330 C   0  0  0  0  0  0  0  0  0  0  0  0
   -1.5610    0.6770   -0.0240 C   0  0  0  0  0  0  0  0  0  0  0  0
   -0.2210    0.6030    0.0670 C   0  0  0  0  0  0  0  0  0  0  0  0
    0.6380   -0.4970    0.4490 C   0  0  0  0  0  0  0  0  0  0  0  0
    2.0530   -0.3740    0.1940 N   0  0  0  0  0  0  0  0  0  0  0  0
    2.5700   -1.0140   -0.8150 C   0  0  0  0  0  0  0  0  0  0  0  0
    1.7890   -1.8070   -1.6460 O   0  0  0  0  0  0  0  0  0  0  0  0
    3.9720   -0.8440   -1.0030 N   0  0  0  0  0  0  0  0  0  0  0  0
    5.0480   -0.1630    0.2260 P   0  0  0  0  0  0  0  0  0  0  0  0
    5.4760    1.4650   -0.0310 O   0  0  0  0  0  0  0  0  0  0  0  0
    4.5820   -0.5280    1.8330 O   0  0  0  0  0  0  0  0  0  0  0  0
    0.2330   -1.5930    1.0060 N   0  0  0  0  0  0  0  0  0  0  0  0
   -1.0100   -2.0400    1.3840 O   0  0  0  0  0  0  0  0  0  0  0  0
   -2.2300   -1.6020    0.8910 C   0  0  0  0  0  0  0  0  0  0  0  0
   -3.3980   -2.3250    0.9560 C   0  0  0  0  0  0  0  0  0  0  0  0
   -3.5770   -3.6010    1.5150 O   0  0  0  0  0  0  0  0  0  0  0  0
   -4.3380   -1.5600    0.3750 N   0  0  0  0  0  0  0  0  0  0  0  0
   -3.8060   -0.4220   -0.0350 N   0  0  0  0  0  0  0  0  0  0  0  0
   -2.5120   -0.3970    0.2580 C   0  0  0  0  0  0  0  0  0  0  0  0
  1  2  2  0
  2  3  1  0
  2  7  1  0
  3  4  1  0
  4  5  1  0
  5  6  1  0
  6  7  2  0
  6 23  1  0
  7  8  1  0
  8  9  1  0
  8 16  2  0
  9 10  2  3
 10 11  1  0
 10 12  1  0
 12 13  1  0
 13 14  1  0
 13 15  1  0
 16 17  1  0
 17 18  1  0
 18 19  1  0
 18 23  2  0
 19 20  1  0
 19 21  2  0
 21 22  1  0
 22 23  1  0
M  END
