
     RDKit          3D

 46 49  0  0  0  0  0  0  0  0999 V2000
   -7.6020    1.3630    0.7550 C   0  0  0  0  0  0  0  0  0  0  0  0
   -6.5560    1.1460   -0.2880 C   0  0  0  0  0  0  0  0  0  0  0  0
   -5.1980    1.3420    0.2970 N   0  0  0  0  0  0  0  0  0  0  0  0
   -4.0490    1.1940   -0.4810 C   0  0  0  0  0  0  0  0  0  0  0  0
   -4.3190    0.9230   -1.7170 O   0  0  0  0  0  0  0  0  0  0  0  0
   -2.6470    1.2730   -0.1230 C   0  0  0  0  0  0  0  0  0  0  0  0
   -2.2720    1.5300    1.2620 C   0  0  0  0  0  0  0  0  0  0  0  0
   -1.1110    2.0260    1.4610 O   0  0  0  0  0  0  0  0  0  0  0  0
   -3.0630    1.2670    2.3990 N   0  0  0  0  0  0  0  0  0  0  0  0
   -2.6910    1.5700    3.7290 C   0  0  0  0  0  0  0  0  0  0  0  0
   -1.7540    2.4890    4.0700 C   0  0  0  0  0  0  0  0  0  0  0  0
   -1.4110    2.7260    5.4090 C   0  0  0  0  0  0  0  0  0  0  0  0
   -2.0550    1.9980    6.3660 C   0  0  0  0  0  0  0  0  0  0  0  0
   -3.0180    1.0500    6.0730 C   0  0  0  0  0  0  0  0  0  0  0  0
   -3.3210    0.8520    4.7520 C   0  0  0  0  0  0  0  0  0  0  0  0
   -1.7170    1.2950   -1.0700 C   0  0  0  0  0  0  0  0  0  0  0  0
   -2.0830    1.2740   -2.4870 C   0  0  0  0  0  0  0  0  0  0  0  0
   -1.9010   -0.0500   -3.1410 C   0  0  1  0  0  0  0  0  0  0  0  0
   -2.4020    0.1300   -4.5970 C   0  0  0  0  0  0  0  0  0  0  0  0
   -2.2490   -1.1530   -5.3640 C   0  0  1  0  0  0  0  0  0  0  0  0
   -1.4770   -0.8580   -6.4980 O   0  0  0  0  0  0  0  0  0  0  0  0
   -1.4550   -2.1410   -4.5350 C   0  0  0  0  0  0  0  0  0  0  0  0
   -0.2430   -1.4220   -4.0320 C   0  0  0  0  0  0  0  0  0  0  0  0
   -0.5410   -0.3680   -3.2100 O   0  0  0  0  0  0  0  0  0  0  0  0
   -0.3150    1.2530   -0.7180 N   0  0  0  0  0  0  0  0  0  0  0  0
    0.4060    2.4930   -0.8860 C   0  0  0  0  0  0  0  0  0  0  0  0
    0.3100    0.0090   -0.3630 C   0  0  0  0  0  0  0  0  0  0  0  0
    0.9260   -0.2080    0.9370 C   0  0  2  0  0  0  0  0  0  0  0  0
    2.0270    0.7390    1.2410 C   0  0  0  0  0  0  0  0  0  0  0  0
    3.1900    0.7200    0.3310 C   0  0  0  0  0  0  0  0  0  0  0  0
    3.2670   -0.1210   -0.5840 O   0  0  0  0  0  0  0  0  0  0  0  0
    4.2600    1.6470    0.4550 N   0  0  0  0  0  0  0  0  0  0  0  0
    5.4120    1.7480   -0.3220 C   0  0  0  0  0  0  0  0  0  0  0  0
    5.8190    0.8820   -1.2890 C   0  0  0  0  0  0  0  0  0  0  0  0
    6.9970    1.0800   -2.0310 C   0  0  0  0  0  0  0  0  0  0  0  0
    7.7840    2.1740   -1.7930 C   0  0  0  0  0  0  0  0  0  0  0  0
    7.3890    3.0590   -0.8200 C   0  0  0  0  0  0  0  0  0  0  0  0
    6.2370    2.8550   -0.1020 C   0  0  0  0  0  0  0  0  0  0  0  0
    1.3680   -1.6360    1.1340 C   0  0  0  0  0  0  0  0  0  0  0  0
    1.4940   -2.0830    2.4130 C   0  0  0  0  0  0  0  0  0  0  0  0
    1.8810   -3.3910    2.6750 C   0  0  0  0  0  0  0  0  0  0  0  0
    2.1370   -4.2370    1.6240 C   0  0  0  0  0  0  0  0  0  0  0  0
    2.5580   -5.6610    1.8770 C   0  0  0  0  0  0  0  0  0  0  0  0
    4.0500   -5.7100    1.9640 C   0  0  0  0  0  0  0  0  0  0  0  0
    2.0040   -3.7670    0.3390 C   0  0  0  0  0  0  0  0  0  0  0  0
    1.6160   -2.4560    0.0770 C   0  0  0  0  0  0  0  0  0  0  0  0
  1  2  1  0
  2  3  1  0
  3  4  1  0
  4  5  2  0
  4  6  1  0
  6  7  1  0
  6 16  2  3
  7  8  2  0
  7  9  1  0
  9 10  1  0
 10 11  2  0
 10 15  1  0
 11 12  1  0
 12 13  2  0
 13 14  1  0
 14 15  2  0
 16 17  1  0
 16 25  1  0
 18 17  1  1
 18 19  1  0
 18 24  1  0
 19 20  1  0
 20 21  1  6
 20 22  1  0
 22 23  1  0
 23 24  1  0
 25 26  1  0
 25 27  1  0
 28 27  1  6
 28 29  1  0
 28 39  1  0
 29 30  1  0
 30 31  2  0
 30 32  1  0
 32 33  1  0
 33 34  2  0
 33 38  1  0
 34 35  1  0
 35 36  2  0
 36 37  1  0
 37 38  2  0
 39 40  2  0
 39 46  1  0
 40 41  1  0
 41 42  2  0
 42 43  1  0
 42 45  1  0
 43 44  1  0
 45 46  2  0
M  END
