
     RDKit          3D

 38 42  0  0  0  0  0  0  0  0999 V2000
    5.3620    3.6560    3.8330 C   0  0  0  0  0  0  0  0  0  0  0  0
    5.1630    2.3260    3.0500 C   0  0  0  0  0  0  0  0  0  0  0  0
    4.3600    1.4570    3.9090 C   0  0  0  0  0  0  0  0  0  0  0  0
    4.0640    0.0460    3.4580 C   0  0  1  0  0  0  0  0  0  0  0  0
    3.2240   -0.4600    4.5510 N   0  0  0  0  0  0  0  0  0  0  0  0
    2.0830   -0.7510    4.1240 C   0  0  0  0  0  0  0  0  0  0  0  0
    2.0430   -0.4800    2.6770 C   0  0  0  0  0  0  0  0  0  0  0  0
    0.8330   -0.6650    1.8320 C   0  0  0  0  0  0  0  0  0  0  0  0
    0.4030   -2.4000    1.8270 S   0  0  1  0  0  0  0  0  0  0  0  0
    1.5590   -3.1530    1.2930 O   0  0  0  0  0  0  0  0  0  0  0  0
    0.0140   -2.7490    3.2210 O   0  0  0  0  0  0  0  0  0  0  0  0
   -1.0040   -2.5400    0.8030 N   0  0  0  0  0  0  0  0  0  0  0  0
   -2.1040   -1.7760    1.3530 C   0  0  0  0  0  0  0  0  0  0  0  0
   -3.3160   -1.8950    0.4630 C   0  0  1  0  0  0  0  0  0  0  0  0
   -4.4820   -1.1010    1.0650 C   0  0  0  0  0  0  0  0  0  0  0  0
   -5.6630   -1.3370    0.1500 C   0  0  0  0  0  0  0  0  0  0  0  0
   -5.3240   -2.0240   -1.0100 O   0  0  0  0  0  0  0  0  0  0  0  0
   -4.3020   -1.4170   -1.7170 C   0  0  1  0  0  0  0  0  0  0  0  0
   -4.0150   -2.2090   -2.9750 C   0  0  0  0  0  0  0  0  0  0  0  0
   -5.1640   -1.8960   -3.7730 O   0  0  0  0  0  0  0  0  0  0  0  0
   -5.3900   -0.5120   -3.5830 C   0  0  0  0  0  0  0  0  0  0  0  0
   -5.9720    0.3770   -4.3710 C   0  0  0  0  0  0  0  0  0  0  0  0
   -6.0690    1.6760   -3.9530 O   0  0  0  0  0  0  0  0  0  0  0  0
   -5.5730    2.1370   -2.7450 C   0  0  0  0  0  0  0  0  0  0  0  0
   -4.9470    1.1010   -1.8970 C   0  0  0  0  0  0  0  0  0  0  0  0
   -4.8530   -0.1460   -2.2900 C   0  0  0  0  0  0  0  0  0  0  0  0
   -3.0680   -1.2030   -0.8890 C   0  0  0  0  0  0  0  0  0  0  0  0
    3.2070   -0.0250    2.2850 C   0  0  0  0  0  0  0  0  0  0  0  0
    3.5690    0.2460    0.8830 C   0  0  0  0  0  0  0  0  0  0  0  0
    4.7480    0.6660    0.6040 O   0  0  0  0  0  0  0  0  0  0  0  0
    2.7450    0.0840   -0.1920 O   0  0  0  0  0  0  0  0  0  0  0  0
    3.1690    0.3470   -1.4840 C   0  0  0  0  0  0  0  0  0  0  0  0
    3.0390    1.5670   -2.0950 C   0  0  0  0  0  0  0  0  0  0  0  0
    3.4750    1.8090   -3.4020 C   0  0  0  0  0  0  0  0  0  0  0  0
    4.0660    0.7930   -4.1330 C   0  0  0  0  0  0  0  0  0  0  0  0
    4.5260    1.0140   -5.4800 N   0  0  0  0  0  0  0  0  0  0  0  0
    4.2020   -0.4360   -3.5300 C   0  0  0  0  0  0  0  0  0  0  0  0
    3.7710   -0.6660   -2.2450 C   0  0  0  0  0  0  0  0  0  0  0  0
  1  2  1  0
  2  3  1  0
  4  3  1  1
  4  5  1  0
  4 28  1  0
  5  6  2  0
  6  7  1  0
  7  8  1  0
  7 28  2  0
  9  8  1  1
  9 10  2  0
  9 11  2  0
  9 12  1  0
 12 13  1  0
 14 13  1  1
 14 15  1  0
 14 27  1  0
 15 16  1  0
 16 17  1  0
 17 18  1  0
 18 19  1  6
 18 26  1  0
 18 27  1  0
 19 20  1  0
 20 21  1  0
 21 22  2  0
 21 26  1  0
 22 23  1  0
 23 24  1  0
 24 25  1  0
 25 26  2  0
 28 29  1  0
 29 30  2  0
 29 31  1  0
 31 32  1  0
 32 33  2  0
 32 38  1  0
 33 34  1  0
 34 35  2  0
 35 36  1  0
 35 37  1  0
 37 38  2  0
M  END
