
     RDKit          3D

 38 41  0  0  0  0  0  0  0  0999 V2000
   -4.3240    2.2570   -3.9360 C   0  0  0  0  0  0  0  0  0  0  0  0
   -3.1400    2.2280   -3.2070 O   0  0  0  0  0  0  0  0  0  0  0  0
   -3.3350    2.5760   -1.8750 C   0  0  0  0  0  0  0  0  0  0  0  0
   -1.9890    2.5080   -1.1960 C   0  0  1  0  0  0  0  0  0  0  0  0
   -1.0450    3.4950   -1.8920 C   0  0  0  0  0  0  0  0  0  0  0  0
   -1.3130    4.8450   -1.2230 C   0  0  0  0  0  0  0  0  0  0  0  0
   -0.8190    4.7300    0.1880 C   0  0  0  0  0  0  0  0  0  0  0  0
   -0.8970    3.4740    0.7210 O   0  0  0  0  0  0  0  0  0  0  0  0
   -1.9700    2.7210    0.2810 C   0  0  2  0  0  0  0  0  0  0  0  0
   -1.6650    1.2520    0.4710 C   0  0  1  0  0  0  0  0  0  0  0  0
   -2.8130    0.5320    1.0860 C   0  0  0  0  0  0  0  0  0  0  0  0
   -2.5590   -0.8810    1.2840 N   0  0  0  0  0  0  0  0  0  0  0  0
   -3.5490   -1.7220    1.8600 C   0  0  0  0  0  0  0  0  0  0  0  0
   -4.6450   -1.1700    2.1830 O   0  0  0  0  0  0  0  0  0  0  0  0
   -3.3190   -3.1810    2.0780 C   0  0  1  0  0  0  0  0  0  0  0  0
   -2.1340   -3.4220    3.0020 C   0  0  0  0  0  0  0  0  0  0  0  0
   -4.5370   -3.7790    2.7480 C   0  0  0  0  0  0  0  0  0  0  0  0
   -1.4360    1.1390   -0.9850 C   0  0  1  0  0  0  0  0  0  0  0  0
   -2.0440    0.0710   -1.7000 N   0  0  0  0  0  0  0  0  0  0  0  0
   -0.8860   -0.7920   -2.6420 S   0  0  2  0  0  0  0  0  0  0  0  0
   -0.2260    0.0880   -3.6660 O   0  0  0  0  0  0  0  0  0  0  0  0
   -1.6030   -1.9470   -3.3290 O   0  0  0  0  0  0  0  0  0  0  0  0
    0.2920   -1.4730   -1.5460 C   0  0  0  0  0  0  0  0  0  0  0  0
    0.0210   -2.7060   -0.9670 C   0  0  0  0  0  0  0  0  0  0  0  0
    0.9000   -3.3110   -0.0990 C   0  0  0  0  0  0  0  0  0  0  0  0
    2.0820   -2.6690    0.2000 C   0  0  0  0  0  0  0  0  0  0  0  0
    2.3690   -1.4590   -0.3560 C   0  0  0  0  0  0  0  0  0  0  0  0
    3.6510   -0.7990   -0.0190 C   0  0  0  0  0  0  0  0  0  0  0  0
    3.7270    0.4020   -0.3430 O   0  0  0  0  0  0  0  0  0  0  0  0
    4.7250   -1.4310    0.6130 N   0  0  0  0  0  0  0  0  0  0  0  0
    5.9750   -0.8550    0.9630 C   0  0  0  0  0  0  0  0  0  0  0  0
    6.3260    0.4370    0.7290 C   0  0  0  0  0  0  0  0  0  0  0  0
    7.5870    0.9110    1.1130 C   0  0  0  0  0  0  0  0  0  0  0  0
    8.4860    0.0910    1.7270 C   0  0  0  0  0  0  0  0  0  0  0  0
    8.1650   -1.2200    1.9790 C   0  0  0  0  0  0  0  0  0  0  0  0
    6.9090   -1.6780    1.5930 C   0  0  0  0  0  0  0  0  0  0  0  0
    6.6500   -2.9830    1.8680 O   0  0  0  0  0  0  0  0  0  0  0  0
    1.4790   -0.8700   -1.2200 C   0  0  0  0  0  0  0  0  0  0  0  0
  1  2  1  0
  2  3  1  0
  4  3  1  6
  4  5  1  0
  4  9  1  0
  4 18  1  0
  5  6  1  0
  6  7  1  0
  7  8  1  0
  9  8  1  6
  9 10  1  0
 10 11  1  6
 10 18  1  0
 11 12  1  0
 12 13  1  0
 13 14  2  0
 13 15  1  0
 15 16  1  1
 15 17  1  0
 18 19  1  6
 20 19  1  1
 20 21  2  0
 20 22  2  0
 20 23  1  0
 23 24  2  0
 23 38  1  0
 24 25  1  0
 25 26  2  0
 26 27  1  0
 27 28  1  0
 27 38  2  0
 28 29  2  0
 28 30  1  0
 30 31  1  0
 31 32  2  0
 31 36  1  0
 32 33  1  0
 33 34  2  0
 34 35  1  0
 35 36  2  0
 36 37  1  0
M  END
