
     RDKit          3D

 38 40  0  0  0  0  0  0  0  0999 V2000
   -6.8150   -3.6790   -0.3830 C   0  0  0  0  0  0  0  0  0  0  0  0
   -6.2120   -2.5650    0.3600 C   0  0  0  0  0  0  0  0  0  0  0  0
   -5.0200   -2.0850    0.2400 C   0  0  0  0  0  0  0  0  0  0  0  0
   -4.0500   -2.6020   -0.6940 C   0  0  0  0  0  0  0  0  0  0  0  0
   -4.1830   -3.5500   -1.5070 N   0  0  0  0  0  0  0  0  0  0  0  0
   -4.6710   -0.9380    1.1180 C   0  0  0  0  0  0  0  0  0  0  0  0
   -4.4120    0.2720    0.3840 N   0  0  0  0  0  0  0  0  0  0  0  0
   -3.1550    0.6890   -0.0220 C   0  0  0  0  0  0  0  0  0  0  0  0
   -3.0090    1.4980   -0.9640 O   0  0  0  0  0  0  0  0  0  0  0  0
   -1.9260    0.2380    0.6650 C   0  0  0  0  0  0  0  0  0  0  0  0
   -0.7190    0.8130    0.0930 C   0  0  1  0  0  0  0  0  0  0  0  0
    0.4500    0.6170    0.9270 O   0  0  0  0  0  0  0  0  0  0  0  0
   -0.1950   -0.1680   -1.1200 C   0  0  0  0  0  0  0  0  0  0  0  0
    0.7770    0.5880   -1.6140 O   0  0  0  0  0  0  0  0  0  0  0  0
    2.0320    0.5740   -1.5650 N   0  0  0  0  0  0  0  0  0  0  0  0
    2.8920   -0.3020   -0.8580 C   0  0  0  0  0  0  0  0  0  0  0  0
    2.4180   -1.3350   -0.2890 O   0  0  0  0  0  0  0  0  0  0  0  0
    4.3380    0.0270   -0.7610 C   0  0  0  0  0  0  0  0  0  0  0  0
    4.6430    1.3810   -0.8620 C   0  0  0  0  0  0  0  0  0  0  0  0
    5.8970    1.8620   -0.6070 C   0  0  0  0  0  0  0  0  0  0  0  0
    6.8790    1.0050   -0.2480 C   0  0  0  0  0  0  0  0  0  0  0  0
    8.1450    1.4420    0.0240 O   0  0  0  0  0  0  0  0  0  0  0  0
    8.6120    2.7470   -0.0000 C   0  0  0  0  0  0  0  0  0  0  0  0
    6.6020   -0.3730   -0.1450 C   0  0  0  0  0  0  0  0  0  0  0  0
    7.6980   -1.2180    0.2800 C   0  0  2  0  0  0  0  0  0  0  0  0
    8.7950   -1.3360   -0.7310 C   0  0  0  0  0  0  0  0  0  0  0  0
    9.4420   -2.4640   -0.5020 C   0  0  0  0  0  0  0  0  0  0  0  0
    8.8520   -3.1910    0.6610 C   0  0  0  0  0  0  0  0  0  0  0  0
    7.3970   -2.6530    0.6070 C   0  0  0  0  0  0  0  0  0  0  0  0
    5.3300   -0.8490   -0.4070 C   0  0  0  0  0  0  0  0  0  0  0  0
   -5.5750    1.1860    0.3110 C   0  0  1  0  0  0  0  0  0  0  0  0
   -5.2870    2.2790    1.4050 C   0  0  0  0  0  0  0  0  0  0  0  0
   -6.7510    3.1790    1.8130 S   0  0  0  0  0  0  0  0  0  0  0  0
   -7.7190    3.6550    0.3520 C   0  0  0  0  0  0  0  0  0  0  0  0
   -8.1500    2.5970   -0.3680 O   0  0  0  0  0  0  0  0  0  0  0  0
   -7.3630    1.8860   -1.1690 C   0  0  0  0  0  0  0  0  0  0  0  0
   -5.8680    1.8710   -0.9380 C   0  0  2  0  0  0  0  0  0  0  0  0
   -5.3250    1.2880   -2.1110 O   0  0  0  0  0  0  0  0  0  0  0  0
  1  2  1  0
  2  3  2  3
  3  4  1  0
  3  6  1  0
  4  5  2  0
  6  7  1  0
  7  8  1  0
 31  7  1  6
  8  9  2  0
  8 10  1  0
 10 11  1  0
 11 12  1  1
 11 13  1  0
 13 14  1  0
 14 15  1  0
 15 16  1  0
 16 17  2  0
 16 18  1  0
 18 19  2  0
 18 30  1  0
 19 20  1  0
 20 21  2  0
 21 22  1  0
 21 24  1  0
 22 23  1  0
 25 24  1  6
 24 30  2  0
 25 26  1  0
 25 29  1  0
 26 27  2  0
 27 28  1  0
 28 29  1  0
 31 32  1  0
 31 37  1  0
 32 33  1  0
 33 34  1  0
 34 35  1  0
 35 36  1  0
 36 37  1  0
 37 38  1  6
M  END
