
     RDKit          3D

 38 41  0  0  0  0  0  0  0  0999 V2000
    1.8290   -3.0540   -0.0360 O   0  0  0  0  0  0  0  0  0  0  0  0
    2.5160   -3.8440    0.6560 C   0  0  0  0  0  0  0  0  0  0  0  0
    3.7870   -3.4500    1.2760 C   0  0  0  0  0  0  0  0  0  0  0  0
    4.2220   -2.0780    0.8560 C   0  0  0  0  0  0  0  0  0  0  0  0
    4.4790   -1.9870   -0.6110 C   0  0  0  0  0  0  0  0  0  0  0  0
    4.9160   -0.6120   -0.9890 C   0  0  0  0  0  0  0  0  0  0  0  0
    6.1570   -0.1390   -0.3720 C   0  0  0  0  0  0  0  0  0  0  0  0
    6.8790   -0.8050    0.4050 O   0  0  0  0  0  0  0  0  0  0  0  0
    6.6210    1.1910   -0.6510 N   0  0  0  0  0  0  0  0  0  0  0  0
    7.8290    1.7000   -0.0690 C   0  0  1  0  0  0  0  0  0  0  0  0
    8.9260    1.9310   -1.0930 C   0  0  0  0  0  0  0  0  0  0  0  0
    9.8800    2.8150   -0.2780 C   0  0  0  0  0  0  0  0  0  0  0  0
    9.0090    3.7150    0.5530 C   0  0  1  0  0  0  0  0  0  0  0  0
    8.8100    4.9170   -0.1380 O   0  0  0  0  0  0  0  0  0  0  0  0
    7.6620    2.9930    0.6690 C   0  0  0  0  0  0  0  0  0  0  0  0
    1.9790   -5.1620    0.8020 N   0  0  0  0  0  0  0  0  0  0  0  0
    0.7480   -5.6060    0.2260 C   0  0  0  0  0  0  0  0  0  0  0  0
   -0.3930   -4.7800    0.7520 C   0  0  0  0  0  0  0  0  0  0  0  0
   -0.9690   -4.9590    2.0000 C   0  0  0  0  0  0  0  0  0  0  0  0
   -1.9720   -4.0250    2.1150 C   0  0  0  0  0  0  0  0  0  0  0  0
   -1.9750   -3.3100    0.9390 C   0  0  0  0  0  0  0  0  0  0  0  0
   -2.9290   -2.1800    0.6490 C   0  0  0  0  0  0  0  0  0  0  0  0
   -4.4460   -2.8670   -0.1230 S   0  0  0  0  0  0  0  0  0  0  0  0
   -5.6260   -1.5620   -0.4190 C   0  0  0  0  0  0  0  0  0  0  0  0
   -6.8170   -1.7600   -0.9540 C   0  0  0  0  0  0  0  0  0  0  0  0
   -7.5140   -0.4730   -1.0470 C   0  0  0  0  0  0  0  0  0  0  0  0
   -8.6540   -0.3010   -1.5020 O   0  0  0  0  0  0  0  0  0  0  0  0
   -6.6670    0.5510   -0.5270 N   0  0  0  0  0  0  0  0  0  0  0  0
   -6.9340    1.9690   -0.4090 C   0  0  2  0  0  0  0  0  0  0  0  0
   -8.0350    2.1920    0.6160 C   0  0  0  0  0  0  0  0  0  0  0  0
   -8.2520    3.7070    0.6750 C   0  0  0  0  0  0  0  0  0  0  0  0
   -8.9520    4.0560   -0.6350 C   0  0  0  0  0  0  0  0  0  0  0  0
   -7.9860    3.8340   -1.7500 C   0  0  2  0  0  0  0  0  0  0  0  0
   -8.7390    3.8940   -2.9470 O   0  0  0  0  0  0  0  0  0  0  0  0
   -7.2910    2.5150   -1.7510 C   0  0  0  0  0  0  0  0  0  0  0  0
   -5.4850   -0.1340   -0.1340 C   0  0  0  0  0  0  0  0  0  0  0  0
   -4.4670    0.3800    0.3760 O   0  0  0  0  0  0  0  0  0  0  0  0
   -1.0340   -3.7950    0.1840 O   0  0  0  0  0  0  0  0  0  0  0  0
  1  2  2  0
  2  3  1  0
  2 16  1  0
  3  4  1  0
  4  5  1  0
  5  6  1  0
  6  7  1  0
  7  8  2  0
  7  9  1  0
 10  9  1  6
 10 11  1  0
 10 15  1  0
 11 12  1  0
 12 13  1  0
 13 14  1  6
 13 15  1  0
 16 17  1  0
 17 18  1  0
 18 19  2  0
 18 38  1  0
 19 20  1  0
 20 21  2  0
 21 22  1  0
 21 38  1  0
 22 23  1  0
 23 24  1  0
 24 25  2  0
 24 36  1  0
 25 26  1  0
 26 27  2  0
 26 28  1  0
 29 28  1  6
 28 36  1  0
 29 30  1  0
 29 35  1  0
 30 31  1  0
 31 32  1  0
 32 33  1  0
 33 34  1  6
 33 35  1  0
 36 37  2  0
M  END
