
     RDKit          3D

 46 49  0  0  0  0  0  0  0  0999 V2000
   -4.9020    0.8460   -5.0120 C   0  0  0  0  0  0  0  0  0  0  0  0
   -3.9510    0.5580   -3.9140 C   0  0  0  0  0  0  0  0  0  0  0  0
   -2.6250    0.8520   -4.1000 C   0  0  0  0  0  0  0  0  0  0  0  0
   -1.6920    0.6080   -3.1120 C   0  0  0  0  0  0  0  0  0  0  0  0
   -2.1380    0.0610   -1.9390 C   0  0  0  0  0  0  0  0  0  0  0  0
   -1.2330   -0.2580   -0.8010 C   0  0  0  0  0  0  0  0  0  0  0  0
    0.1190   -0.3800   -1.2890 N   0  0  0  0  0  0  0  0  0  0  0  0
    0.3820   -1.4010   -2.2930 C   0  0  0  0  0  0  0  0  0  0  0  0
    1.2060    0.4060   -0.8500 C   0  0  0  0  0  0  0  0  0  0  0  0
    2.2430   -0.1120   -0.0900 C   0  0  0  0  0  0  0  0  0  0  0  0
    3.3160    0.6750    0.3260 C   0  0  0  0  0  0  0  0  0  0  0  0
    3.4190    2.0030    0.0170 C   0  0  0  0  0  0  0  0  0  0  0  0
    4.4270    2.8630    0.3800 O   0  0  0  0  0  0  0  0  0  0  0  0
    5.5220    2.5090    1.1860 C   0  0  0  0  0  0  0  0  0  0  0  0
    5.1570    2.2080    2.5840 C   0  0  2  0  0  0  0  0  0  0  0  0
    4.4630    3.3630    3.1190 O   0  0  0  0  0  0  0  0  0  0  0  0
    6.2120    1.9480    3.5880 C   0  0  0  0  0  0  0  0  0  0  0  0
    7.1040    0.8810    3.3450 N   0  0  0  0  0  0  0  0  0  0  0  0
    8.1110    0.7480    2.3740 C   0  0  0  0  0  0  0  0  0  0  0  0
    8.3400    1.6650    1.5760 O   0  0  0  0  0  0  0  0  0  0  0  0
    8.9100   -0.4980    2.2970 C   0  0  1  0  0  0  0  0  0  0  0  0
    8.0760   -1.7280    2.1100 C   0  0  0  0  0  0  0  0  0  0  0  0
    7.5220   -1.9400    0.7470 C   0  0  0  0  0  0  0  0  0  0  0  0
    8.1270   -1.0950   -0.3370 C   0  0  0  0  0  0  0  0  0  0  0  0
    9.5120   -0.6780   -0.0870 C   0  0  0  0  0  0  0  0  0  0  0  0
   10.4480   -0.5750   -1.1230 C   0  0  0  0  0  0  0  0  0  0  0  0
   11.7500   -0.1870   -0.9070 C   0  0  0  0  0  0  0  0  0  0  0  0
   12.0940    0.0970    0.3950 C   0  0  0  0  0  0  0  0  0  0  0  0
   11.2070    0.0080    1.4430 C   0  0  0  0  0  0  0  0  0  0  0  0
    9.8950   -0.3840    1.2080 C   0  0  0  0  0  0  0  0  0  0  0  0
    2.3610    2.5410   -0.7600 C   0  0  0  0  0  0  0  0  0  0  0  0
    1.3240    1.7470   -1.1540 C   0  0  0  0  0  0  0  0  0  0  0  0
   -3.5000   -0.2340   -1.7650 C   0  0  0  0  0  0  0  0  0  0  0  0
   -4.4390   -0.0040   -2.7230 C   0  0  0  0  0  0  0  0  0  0  0  0
   -5.8090   -0.2830   -2.6280 N   0  0  0  0  0  0  0  0  0  0  0  0
   -6.5170   -0.8180   -1.5330 C   0  0  0  0  0  0  0  0  0  0  0  0
   -5.9030   -1.0890   -0.4900 O   0  0  0  0  0  0  0  0  0  0  0  0
   -7.9420   -1.0540   -1.6100 N   0  0  0  0  0  0  0  0  0  0  0  0
   -8.6820   -1.5980   -0.4980 C   0  0  0  0  0  0  0  0  0  0  0  0
   -8.6330   -0.7440    0.7380 C   0  0  0  0  0  0  0  0  0  0  0  0
   -9.4330   -1.3720    1.8490 C   0  0  0  0  0  0  0  0  0  0  0  0
  -10.8780   -1.5700    1.5070 C   0  0  0  0  0  0  0  0  0  0  0  0
  -11.6200   -0.3380    1.1680 C   0  0  1  0  0  0  0  0  0  0  0  0
  -13.0580   -0.7220    0.8390 C   0  0  0  0  0  0  0  0  0  0  0  0
  -11.7180    0.5550    2.3800 C   0  0  0  0  0  0  0  0  0  0  0  0
  -11.2290    1.6680    2.3470 O   0  0  0  0  0  0  0  0  0  0  0  0
  1  2  1  0
  2  3  2  0
  2 34  1  0
  3  4  1  0
  4  5  2  0
  5  6  1  0
  5 33  1  0
  6  7  1  0
  7  8  1  0
  7  9  1  0
  9 10  2  0
  9 32  1  0
 10 11  1  0
 11 12  2  0
 12 13  1  0
 12 31  1  0
 13 14  1  0
 14 15  1  0
 15 16  1  1
 15 17  1  0
 17 18  1  0
 18 19  1  0
 19 20  2  0
 21 19  1  6
 21 22  1  0
 21 30  1  0
 22 23  1  0
 23 24  1  0
 24 25  1  0
 25 26  2  0
 25 30  1  0
 26 27  1  0
 27 28  2  0
 28 29  1  0
 29 30  2  0
 31 32  2  0
 33 34  2  0
 34 35  1  0
 35 36  1  0
 36 37  2  0
 36 38  1  0
 38 39  1  0
 39 40  1  0
 40 41  1  0
 41 42  1  0
 42 43  1  0
 43 44  1  1
 43 45  1  0
 45 46  2  0
M  END
