
     RDKit          3D

 38 41  0  0  0  0  0  0  0  0999 V2000
   -9.8830   -3.2660    1.3590 O   0  0  0  0  0  0  0  0  0  0  0  0
  -10.6860   -2.3400    1.1110 C   0  0  0  0  0  0  0  0  0  0  0  0
  -10.1810   -1.0590    0.6510 C   0  0  0  0  0  0  0  0  0  0  0  0
  -11.1020   -0.0440    0.3860 C   0  0  0  0  0  0  0  0  0  0  0  0
  -10.6490    1.1800   -0.0510 C   0  0  0  0  0  0  0  0  0  0  0  0
   -9.2950    1.3730   -0.2160 C   0  0  0  0  0  0  0  0  0  0  0  0
   -8.8550    2.6150   -0.6590 O   0  0  0  0  0  0  0  0  0  0  0  0
   -8.3930    0.3600    0.0490 C   0  0  0  0  0  0  0  0  0  0  0  0
   -7.0540    0.6450   -0.1460 O   0  0  0  0  0  0  0  0  0  0  0  0
   -6.1190   -0.3620    0.1130 C   0  0  0  0  0  0  0  0  0  0  0  0
   -4.7190    0.0950   -0.1410 C   0  0  0  0  0  0  0  0  0  0  0  0
   -3.9250    0.5980    0.8680 C   0  0  0  0  0  0  0  0  0  0  0  0
   -2.6190    1.0260    0.6280 C   0  0  0  0  0  0  0  0  0  0  0  0
   -2.0720    0.9610   -0.6280 C   0  0  0  0  0  0  0  0  0  0  0  0
   -0.7150    1.3830   -0.9580 C   0  0  1  0  0  0  0  0  0  0  0  0
   -0.4840    2.8790   -0.8570 C   0  0  0  0  0  0  0  0  0  0  0  0
    1.0440    2.9270   -0.7200 C   0  0  0  0  0  0  0  0  0  0  0  0
    1.4760    1.4520   -0.6250 C   0  0  0  0  0  0  0  0  0  0  0  0
    0.2860    0.8940   -0.0200 N   0  0  2  0  0  0  0  0  0  0  0  0
    0.2690   -0.5160    0.1290 C   0  0  0  0  0  0  0  0  0  0  0  0
    1.6390   -1.0540    0.3950 C   0  0  1  0  0  0  0  0  0  0  0  0
    1.6380   -2.5920    0.3810 C   0  0  0  0  0  0  0  0  0  0  0  0
    3.1210   -2.8650    0.2880 C   0  0  0  0  0  0  0  0  0  0  0  0
    3.6350   -1.6070   -0.3330 C   0  0  2  0  0  0  0  0  0  0  0  0
    4.5320   -0.8810    0.5460 N   0  0  0  0  0  0  0  0  0  0  0  0
    5.8610   -0.6130    0.1110 C   0  0  0  0  0  0  0  0  0  0  0  0
    6.1840   -1.0230   -1.0340 O   0  0  0  0  0  0  0  0  0  0  0  0
    6.7600    0.0920    0.9610 N   0  0  0  0  0  0  0  0  0  0  0  0
    8.0990    0.3740    0.5560 C   0  0  0  0  0  0  0  0  0  0  0  0
    8.8430   -0.9110    0.2850 C   0  0  0  0  0  0  0  0  0  0  0  0
   10.2580   -0.5290   -0.1340 C   0  0  0  0  0  0  0  0  0  0  0  0
   10.8510    0.1760    0.8970 O   0  0  0  0  0  0  0  0  0  0  0  0
   12.4370    0.6280    0.4800 S   0  0  0  0  0  0  0  0  0  0  0  0
   12.8330   -0.1730   -0.7530 O   0  0  0  0  0  0  0  0  0  0  0  0
    2.5600   -0.7900   -0.6100 O   0  0  0  0  0  0  0  0  0  0  0  0
   -2.8830    0.4500   -1.6420 C   0  0  0  0  0  0  0  0  0  0  0  0
   -4.1740    0.0280   -1.4070 C   0  0  0  0  0  0  0  0  0  0  0  0
   -8.8340   -0.8570    0.4830 C   0  0  0  0  0  0  0  0  0  0  0  0
  1  2  2  0
  2  3  1  0
  3  4  2  0
  3 38  1  0
  4  5  1  0
  5  6  2  0
  6  7  1  0
  6  8  1  0
  8  9  1  0
  8 38  2  0
  9 10  1  0
 10 11  1  0
 11 12  2  0
 11 37  1  0
 12 13  1  0
 13 14  2  0
 15 14  1  1
 14 36  1  0
 15 16  1  0
 15 19  1  0
 16 17  1  0
 17 18  1  0
 18 19  1  0
 19 20  1  6
 21 20  1  6
 21 22  1  0
 21 35  1  0
 22 23  1  0
 23 24  1  0
 24 25  1  1
 24 35  1  0
 25 26  1  0
 26 27  2  0
 26 28  1  0
 28 29  1  0
 29 30  1  0
 30 31  1  0
 31 32  1  0
 32 33  1  0
 33 34  2  0
 36 37  2  0
M  CHG  1  19   1
M  END
