
     RDKit          3D

 46 48  0  0  0  0  0  0  0  0999 V2000
    8.4520    3.3540    0.2960 N   0  0  0  0  0  0  0  0  0  0  0  0
    7.5520    2.4490   -0.2760 C   0  0  0  0  0  0  0  0  0  0  0  0
    7.1680    2.5670   -1.4420 O   0  0  0  0  0  0  0  0  0  0  0  0
    7.0410    1.3110    0.5480 C   0  0  2  0  0  0  0  0  0  0  0  0
    8.2230    0.5270    0.9990 C   0  0  0  0  0  0  0  0  0  0  0  0
    7.9660   -0.6540    1.8500 C   0  0  0  0  0  0  0  0  0  0  0  0
    7.1530   -1.7100    1.2560 C   0  0  0  0  0  0  0  0  0  0  0  0
    5.9660   -1.9200    1.5570 O   0  0  0  0  0  0  0  0  0  0  0  0
    7.7580   -2.5280    0.2880 O   0  0  0  0  0  0  0  0  0  0  0  0
    6.1310    0.5020   -0.1990 N   0  0  0  0  0  0  0  0  0  0  0  0
    4.7150    0.5550    0.0690 C   0  0  0  0  0  0  0  0  0  0  0  0
    4.3590    1.3330    0.9770 O   0  0  0  0  0  0  0  0  0  0  0  0
    3.7830   -0.2840   -0.7140 C   0  0  2  0  0  0  0  0  0  0  0  0
    3.9500   -0.0380   -2.2000 C   0  0  0  0  0  0  0  0  0  0  0  0
    3.6770    1.4020   -2.5710 C   0  0  0  0  0  0  0  0  0  0  0  0
    3.8390    1.6380   -4.0180 C   0  0  0  0  0  0  0  0  0  0  0  0
    4.1510    0.7040   -4.7800 O   0  0  0  0  0  0  0  0  0  0  0  0
    3.6430    2.9010   -4.5280 O   0  0  0  0  0  0  0  0  0  0  0  0
    2.4100   -0.1000   -0.3010 N   0  0  0  0  0  0  0  0  0  0  0  0
    1.5210   -1.1240    0.0830 C   0  0  0  0  0  0  0  0  0  0  0  0
    1.9630   -2.3230    0.0650 O   0  0  0  0  0  0  0  0  0  0  0  0
    0.1180   -0.8870    0.5030 C   0  0  1  0  0  0  0  0  0  0  0  0
    0.0440   -0.1500    1.8220 C   0  0  0  0  0  0  0  0  0  0  0  0
    0.7020   -0.9050    2.9100 C   0  0  0  0  0  0  0  0  0  0  0  0
    1.2090   -2.0370    2.6000 O   0  0  0  0  0  0  0  0  0  0  0  0
    0.8110   -0.4780    4.2420 N   0  0  0  0  0  0  0  0  0  0  0  0
    1.4370   -1.2420    5.1760 O   0  0  0  0  0  0  0  0  0  0  0  0
   -0.5320   -0.0280   -0.5770 C   0  0  0  0  0  0  0  0  0  0  0  0
   -1.9430    0.2850   -0.2840 C   0  0  0  0  0  0  0  0  0  0  0  0
   -3.1100   -0.3780   -0.6210 C   0  0  0  0  0  0  0  0  0  0  0  0
   -4.1400    0.3540   -0.0910 C   0  0  0  0  0  0  0  0  0  0  0  0
   -5.5440    0.0450   -0.2030 C   0  0  0  0  0  0  0  0  0  0  0  0
   -6.5180    0.8740    0.3600 C   0  0  0  0  0  0  0  0  0  0  0  0
   -7.8550    0.6190    0.2670 C   0  0  0  0  0  0  0  0  0  0  0  0
   -8.2670   -0.5050   -0.4120 C   0  0  0  0  0  0  0  0  0  0  0  0
   -9.6970   -0.7700   -0.5160 C   0  0  0  0  0  0  0  0  0  0  0  0
  -10.1920   -2.0580   -0.5720 C   0  0  0  0  0  0  0  0  0  0  0  0
  -11.5460   -2.2780   -0.6750 C   0  0  0  0  0  0  0  0  0  0  0  0
  -12.4490   -1.2290   -0.7260 C   0  0  0  0  0  0  0  0  0  0  0  0
  -11.9600    0.0470   -0.6710 C   0  0  0  0  0  0  0  0  0  0  0  0
  -13.0890    1.3780   -0.7360 Cl  0  0  0  0  0  0  0  0  0  0  0  0
  -10.5840    0.2650   -0.5660 C   0  0  0  0  0  0  0  0  0  0  0  0
   -7.3400   -1.3500   -0.9820 C   0  0  0  0  0  0  0  0  0  0  0  0
   -5.9970   -1.0780   -0.8790 C   0  0  0  0  0  0  0  0  0  0  0  0
   -3.5960    1.4020    0.5310 N   0  0  0  0  0  0  0  0  0  0  0  0
   -2.3050    1.3520    0.4120 O   0  0  0  0  0  0  0  0  0  0  0  0
  1  2  1  0
  2  3  2  0
  2  4  1  0
  4  5  1  6
  4 10  1  0
  5  6  1  0
  6  7  1  0
  7  8  2  0
  7  9  1  0
 10 11  1  0
 11 12  2  0
 11 13  1  0
 13 14  1  6
 13 19  1  0
 14 15  1  0
 15 16  1  0
 16 17  2  0
 16 18  1  0
 19 20  1  0
 20 21  2  0
 20 22  1  0
 22 23  1  1
 22 28  1  0
 23 24  1  0
 24 25  2  0
 24 26  1  0
 26 27  1  0
 28 29  1  0
 29 30  2  0
 29 46  1  0
 30 31  1  0
 31 32  1  0
 31 45  2  0
 32 33  2  0
 32 44  1  0
 33 34  1  0
 34 35  2  0
 35 36  1  0
 35 43  1  0
 36 37  2  0
 36 42  1  0
 37 38  1  0
 38 39  2  0
 39 40  1  0
 40 41  1  0
 40 42  2  0
 43 44  2  0
 45 46  1  0
M  END
