
     RDKit          3D

 34 37  0  0  0  0  0  0  0  0999 V2000
   -5.6890   -2.6640   -0.8280 C   0  0  0  0  0  0  0  0  0  0  0  0
   -5.9950   -1.1640   -0.8730 C   0  0  0  0  0  0  0  0  0  0  0  0
   -4.7590   -0.3760   -0.4990 C   0  0  1  0  0  0  0  0  0  0  0  0
   -5.0670    1.0590   -0.5460 C   0  0  0  0  0  0  0  0  0  0  0  0
   -4.8800    1.7670    0.4680 O   0  0  0  0  0  0  0  0  0  0  0  0
   -5.5620    1.6660   -1.6850 O   0  0  0  0  0  0  0  0  0  0  0  0
   -5.8430    3.0540   -1.6780 C   0  0  0  0  0  0  0  0  0  0  0  0
   -4.2570   -0.7710    0.7950 N   0  0  2  0  0  0  0  0  0  0  0  0
   -5.0280   -0.2710    1.8960 C   0  0  0  0  0  0  0  0  0  0  0  0
   -2.8750   -0.3570    0.9860 C   0  0  0  0  0  0  0  0  0  0  0  0
   -2.0110   -1.4940    0.4720 C   0  0  0  0  0  0  0  0  0  0  0  0
   -0.6220   -1.2220    0.5980 N   0  0  0  0  0  0  0  0  0  0  0  0
    0.0570   -0.6300   -0.3550 N   0  0  0  0  0  0  0  0  0  0  0  0
    1.3550   -0.3330   -0.3320 C   0  0  0  0  0  0  0  0  0  0  0  0
    1.8410    0.2370   -1.3380 O   0  0  0  0  0  0  0  0  0  0  0  0
    2.1490   -0.6590    0.8040 C   0  0  0  0  0  0  0  0  0  0  0  0
    1.4130   -1.2740    1.7790 C   0  0  0  0  0  0  0  0  0  0  0  0
    2.6820   -1.5530    3.0600 S   0  0  0  0  0  0  0  0  0  0  0  0
    4.0610   -0.8210    2.1630 C   0  0  0  0  0  0  0  0  0  0  0  0
    5.3510   -0.6740    2.5140 C   0  0  0  0  0  0  0  0  0  0  0  0
    6.2110   -0.0690    1.6290 C   0  0  0  0  0  0  0  0  0  0  0  0
    7.5050    0.1050    1.9230 F   0  0  0  0  0  0  0  0  0  0  0  0
    5.6370    0.3360    0.4330 C   0  0  0  0  0  0  0  0  0  0  0  0
    6.5620    0.9890   -0.5200 C   0  0  0  0  0  0  0  0  0  0  0  0
    7.4490    1.9470   -0.0880 C   0  0  0  0  0  0  0  0  0  0  0  0
    8.3290    2.5770   -0.9600 C   0  0  0  0  0  0  0  0  0  0  0  0
    8.3220    2.2410   -2.2980 C   0  0  0  0  0  0  0  0  0  0  0  0
    7.4360    1.2820   -2.7380 C   0  0  0  0  0  0  0  0  0  0  0  0
    7.4330    0.8600   -4.4390 Cl  0  0  0  0  0  0  0  0  0  0  0  0
    6.5520    0.6510   -1.8530 C   0  0  0  0  0  0  0  0  0  0  0  0
    4.3550    0.1720    0.1240 N   0  0  0  0  0  0  0  0  0  0  0  0
    3.4550   -0.4380    1.0000 C   0  0  0  0  0  0  0  0  0  0  0  0
    0.0730   -1.5650    1.7210 C   0  0  0  0  0  0  0  0  0  0  0  0
   -0.4730   -2.1350    2.6940 O   0  0  0  0  0  0  0  0  0  0  0  0
  1  2  1  0
  3  2  1  1
  3  4  1  0
  3  8  1  0
  4  5  2  0
  4  6  1  0
  6  7  1  0
  8  9  1  1
  8 10  1  0
 10 11  1  0
 11 12  1  0
 12 13  1  0
 12 33  1  0
 13 14  1  0
 14 15  2  0
 14 16  1  0
 16 17  2  0
 16 32  1  0
 17 18  1  0
 17 33  1  0
 18 19  1  0
 19 20  2  0
 19 32  1  0
 20 21  1  0
 21 22  1  0
 21 23  2  0
 23 24  1  0
 23 31  1  0
 24 25  2  0
 24 30  1  0
 25 26  1  0
 26 27  2  0
 27 28  1  0
 28 29  1  0
 28 30  2  0
 31 32  2  0
 33 34  2  0
M  CHG  1   8   1
M  END
