
     RDKit          3D

 35 36  0  0  0  0  0  0  0  0999 V2000
   -7.2910   -3.3530   -0.6500 C   0  0  0  0  0  0  0  0  0  0  0  0
   -6.6100   -2.3170    0.2050 C   0  0  0  0  0  0  0  0  0  0  0  0
   -5.3300   -2.6890    0.5520 O   0  0  0  0  0  0  0  0  0  0  0  0
   -4.7760   -1.6610    1.3540 C   0  0  0  0  0  0  0  0  0  0  0  0
   -4.7680   -0.3960    0.5080 C   0  0  0  0  0  0  0  0  0  0  0  0
   -5.4680    0.6170    1.0090 C   0  0  0  0  0  0  0  0  0  0  0  0
   -5.7060    1.9520    0.5020 C   0  0  0  0  0  0  0  0  0  0  0  0
   -6.6820    2.6370    1.1020 O   0  0  0  0  0  0  0  0  0  0  0  0
   -5.1090    2.6840   -0.5190 N   0  0  0  0  0  0  0  0  0  0  0  0
   -3.8930    3.3990   -0.6880 C   0  0  0  0  0  0  0  0  0  0  0  0
   -3.3040    4.0580    0.5130 C   0  0  0  0  0  0  0  0  0  0  0  0
   -2.0850    3.5000    0.9930 N   0  0  0  0  0  0  0  0  0  0  0  0
   -1.8850    2.2380    1.6130 C   0  0  0  0  0  0  0  0  0  0  0  0
   -1.4060    2.3090    2.8220 O   0  0  0  0  0  0  0  0  0  0  0  0
   -2.1540    0.9680    1.0450 N   0  0  0  0  0  0  0  0  0  0  0  0
   -1.7380    0.5030   -0.2650 C   0  0  1  0  0  0  0  0  0  0  0  0
   -0.6080   -0.4750   -0.0220 C   0  0  1  0  0  0  0  0  0  0  0  0
    0.0070   -1.1000   -1.2120 C   0  0  0  0  0  0  0  0  0  0  0  0
   -0.8230   -1.9220   -2.0310 N   0  0  0  0  0  0  0  0  0  0  0  0
    0.3970    0.1230    0.9290 C   0  0  0  0  0  0  0  0  0  0  0  0
    1.4970   -0.8070    1.1680 N   0  0  0  0  0  0  0  0  0  0  0  0
    2.6520   -0.5560    0.3600 C   0  0  0  0  0  0  0  0  0  0  0  0
    3.8110   -0.0090    1.2360 C   0  0  0  0  0  0  0  0  0  0  0  0
    4.8540    0.2150    0.4870 O   0  0  0  0  0  0  0  0  0  0  0  0
    5.8540    0.4650   -0.2730 C   0  0  0  0  0  0  0  0  0  0  0  0
    5.7400    1.3910   -1.3230 C   0  0  0  0  0  0  0  0  0  0  0  0
    6.7860    1.6740   -2.1420 C   0  0  0  0  0  0  0  0  0  0  0  0
    7.9420    1.0560   -1.9420 N   0  0  0  0  0  0  0  0  0  0  0  0
    8.1320    0.1550   -0.9590 C   0  0  0  0  0  0  0  0  0  0  0  0
    9.4720   -0.5150   -0.7850 C   0  0  0  0  0  0  0  0  0  0  0  0
    9.3560   -1.9260   -1.3340 C   0  0  0  0  0  0  0  0  0  0  0  0
    7.0940   -0.1460   -0.1200 C   0  0  0  0  0  0  0  0  0  0  0  0
    7.3260   -1.0800    0.8830 O   0  0  0  0  0  0  0  0  0  0  0  0
   -2.8300   -0.0480   -1.0830 C   0  0  0  0  0  0  0  0  0  0  0  0
   -4.0470   -0.4090   -0.7420 C   0  0  0  0  0  0  0  0  0  0  0  0
  1  2  1  0
  2  3  1  0
  3  4  1  0
  4  5  1  0
  5  6  2  0
  5 35  1  0
  6  7  1  0
  7  8  2  0
  7  9  1  0
  9 10  1  0
 10 11  1  0
 11 12  1  0
 12 13  1  0
 13 14  2  0
 13 15  1  0
 16 15  1  1
 16 17  1  0
 16 34  1  0
 17 18  1  6
 17 20  1  0
 18 19  1  0
 20 21  1  0
 21 22  1  0
 22 23  1  0
 23 24  1  0
 24 25  1  0
 25 26  2  0
 25 32  1  0
 26 27  1  0
 27 28  2  0
 28 29  1  0
 29 30  1  0
 29 32  2  0
 30 31  1  0
 32 33  1  0
 34 35  2  0
M  CHG  2  19   1  21   1
M  END
