
     RDKit          3D

 12 12  0  0  0  0  0  0  0  0999 V2000
   -2.4660    1.2190   -0.6230 C   0  0  0  0  0  0  0  0  0  0  0  0
   -1.9280   -0.0840   -0.9070 N   0  0  0  0  0  0  0  0  0  0  0  0
   -0.8560   -0.3610    0.0300 C   0  0  1  0  0  0  0  0  0  0  0  0
   -1.3070   -0.0570    1.4190 C   0  0  0  0  0  0  0  0  0  0  0  0
   -0.4530   -1.8360   -0.0040 C   0  0  0  0  0  0  0  0  0  0  0  0
    0.4510   -2.0810    0.9800 O   0  0  0  0  0  0  0  0  0  0  0  0
    1.5280   -1.2570    1.0490 C   0  0  0  0  0  0  0  0  0  0  0  0
    1.6520   -0.2760   -0.0770 C   0  0  2  0  0  0  0  0  0  0  0  0
    2.6390    0.8200    0.2680 C   0  0  0  0  0  0  0  0  0  0  0  0
    2.6650    1.6680   -0.8590 O   0  0  0  0  0  0  0  0  0  0  0  0
    0.3480    0.4140   -0.4110 C   0  0  1  0  0  0  0  0  0  0  0  0
    0.2980    0.4710   -1.8240 O   0  0  0  0  0  0  0  0  0  0  0  0
  1  2  1  0
  2  3  1  0
  3  4  1  1
  3  5  1  0
  3 11  1  0
  5  6  1  0
  6  7  1  0
  7  8  1  0
  8  9  1  1
  8 11  1  0
  9 10  1  0
 11 12  1  6
M  CHG  1   2   1
M  END
