
     RDKit          3D

 12 12  0  0  0  0  0  0  0  0999 V2000
   -2.2660   -0.4170    0.8280 N   0  0  0  0  0  0  0  0  0  0  0  0
   -1.0820   -0.0810    0.0200 C   0  0  1  0  0  0  0  0  0  0  0  0
   -1.4040   -0.6170   -1.3800 C   0  0  0  0  0  0  0  0  0  0  0  0
   -1.6180   -1.9800   -1.3600 O   0  0  0  0  0  0  0  0  0  0  0  0
   -0.9570    1.3960    0.0140 C   0  0  0  0  0  0  0  0  0  0  0  0
    0.3860    1.9270    0.3720 C   0  0  2  0  0  0  0  0  0  0  0  0
    0.4850    3.2540    0.0250 O   0  0  0  0  0  0  0  0  0  0  0  0
    1.4280    1.0750   -0.3390 C   0  0  0  0  0  0  0  0  0  0  0  0
    1.4070   -0.2670    0.3280 C   0  0  2  0  0  0  0  0  0  0  0  0
    2.3200   -1.1830   -0.4680 C   0  0  0  0  0  0  0  0  0  0  0  0
    2.3360   -2.4610    0.1200 O   0  0  0  0  0  0  0  0  0  0  0  0
    0.0660   -0.8340    0.5670 C   0  0  0  0  0  0  0  0  0  0  0  0
  2  1  1  1
  2  3  1  0
  2  5  1  0
  2 12  1  0
  3  4  1  0
  5  6  1  0
  6  7  1  6
  6  8  1  0
  8  9  1  0
  9 10  1  6
  9 12  1  0
 10 11  1  0
M  CHG  1   1   1
M  END
