
     RDKit          3D

 12 12  0  0  0  0  0  0  0  0999 V2000
   -1.6190   -0.2870   -1.6400 C   0  0  0  0  0  0  0  0  0  0  0  0
   -1.6090   -0.2270   -0.1520 C   0  0  2  0  0  0  0  0  0  0  0  0
   -2.1830   -1.4300    0.3200 O   0  0  0  0  0  0  0  0  0  0  0  0
   -2.4260    0.8740    0.4520 C   0  0  0  0  0  0  0  0  0  0  0  0
   -2.0360    2.1550    0.0920 O   0  0  0  0  0  0  0  0  0  0  0  0
   -0.2110   -0.1850    0.4040 C   0  0  1  0  0  0  0  0  0  0  0  0
    0.5000   -1.4640   -0.0410 C   0  0  0  0  0  0  0  0  0  0  0  0
    1.8410   -1.5590    0.4290 N   0  0  0  0  0  0  0  0  0  0  0  0
    2.6440   -0.3920    0.1380 C   0  0  0  0  0  0  0  0  0  0  0  0
    1.9610    0.8550    0.6560 C   0  0  1  0  0  0  0  0  0  0  0  0
    2.7320    1.9660    0.4440 O   0  0  0  0  0  0  0  0  0  0  0  0
    0.6350    0.9440   -0.1230 C   0  0  0  0  0  0  0  0  0  0  0  0
  2  1  1  6
  2  3  1  0
  2  4  1  0
  2  6  1  0
  4  5  1  0
  6  7  1  6
  6 12  1  0
  7  8  1  0
  8  9  1  0
  9 10  1  0
 10 11  1  6
 10 12  1  0
M  CHG  1   8   1
M  END
