
     RDKit          3D

 29 32  0  0  0  0  0  0  0  0999 V2000
   -1.7140   -4.6680    1.7550 C   0  0  0  0  0  0  0  0  0  0  0  0
   -1.5040   -3.8300    0.5580 C   0  0  0  0  0  0  0  0  0  0  0  0
   -1.3850   -4.4170   -0.6870 C   0  0  0  0  0  0  0  0  0  0  0  0
   -1.1890   -3.6530   -1.8230 C   0  0  0  0  0  0  0  0  0  0  0  0
   -1.0740   -4.2760   -3.0380 F   0  0  0  0  0  0  0  0  0  0  0  0
   -1.1180   -2.3020   -1.6800 C   0  0  0  0  0  0  0  0  0  0  0  0
   -1.2290   -1.6410   -0.4650 C   0  0  0  0  0  0  0  0  0  0  0  0
   -1.1410   -0.2370   -0.4070 N   0  0  0  0  0  0  0  0  0  0  0  0
   -1.9530    0.6140    0.3660 C   0  0  0  0  0  0  0  0  0  0  0  0
   -2.6750    0.2570    1.3270 O   0  0  0  0  0  0  0  0  0  0  0  0
   -1.8110    1.9750   -0.1410 C   0  0  2  0  0  0  0  0  0  0  0  0
   -1.4870    2.9800    0.9410 C   0  0  0  0  0  0  0  0  0  0  0  0
   -2.2950    4.2520    0.8150 C   0  0  0  0  0  0  0  0  0  0  0  0
   -2.2880    4.7860   -0.6060 C   0  0  0  0  0  0  0  0  0  0  0  0
   -2.6660    3.7200   -1.5960 C   0  0  0  0  0  0  0  0  0  0  0  0
   -3.0780    2.4860   -0.8160 C   0  0  0  0  0  0  0  0  0  0  0  0
   -0.8140    1.8840   -1.1630 N   0  0  0  0  0  0  0  0  0  0  0  0
   -0.2290    0.5920   -1.1070 C   0  0  1  0  0  0  0  0  0  0  0  0
    1.1420    0.6210   -0.5250 C   0  0  0  0  0  0  0  0  0  0  0  0
    1.5920    1.7250   -0.1730 O   0  0  0  0  0  0  0  0  0  0  0  0
    1.9320   -0.5360   -0.3640 N   0  0  0  0  0  0  0  0  0  0  0  0
    3.2380   -0.5990    0.1740 C   0  0  0  0  0  0  0  0  0  0  0  0
    3.9480    0.4220    0.7290 C   0  0  0  0  0  0  0  0  0  0  0  0
    5.2440    0.2750    1.2310 C   0  0  0  0  0  0  0  0  0  0  0  0
    5.8550   -0.9570    1.1740 C   0  0  0  0  0  0  0  0  0  0  0  0
    5.1640   -2.0230    0.6170 C   0  0  0  0  0  0  0  0  0  0  0  0
    5.8060   -3.2640    0.5710 O   0  0  0  0  0  0  0  0  0  0  0  0
    3.8990   -1.8340    0.1380 C   0  0  0  0  0  0  0  0  0  0  0  0
   -1.4230   -2.4430    0.6420 C   0  0  0  0  0  0  0  0  0  0  0  0
  1  2  1  0
  2  3  2  0
  2 29  1  0
  3  4  1  0
  4  5  1  0
  4  6  2  0
  6  7  1  0
  7  8  1  0
  7 29  2  0
  8  9  1  0
  8 18  1  0
  9 10  2  0
  9 11  1  0
 11 12  1  1
 11 16  1  0
 11 17  1  0
 12 13  1  0
 13 14  1  0
 14 15  1  0
 15 16  1  0
 17 18  1  0
 18 19  1  1
 19 20  2  0
 19 21  1  0
 21 22  1  0
 22 23  2  0
 22 28  1  0
 23 24  1  0
 24 25  2  0
 25 26  1  0
 26 27  1  0
 26 28  2  0
M  END
