
     RDKit          3D

 28 30  0  0  0  0  0  0  0  0999 V2000
   -2.5880    3.4710    0.2170 C   0  0  0  0  0  0  0  0  0  0  0  0
   -1.5890    2.3340   -0.0490 C   0  0  0  0  0  0  0  0  0  0  0  0
   -1.7000    1.3720    0.9890 N   0  0  0  0  0  0  0  0  0  0  0  0
   -1.7780    0.0070    0.6460 C   0  0  2  0  0  0  0  0  0  0  0  0
   -1.0080   -0.5600   -0.4710 C   0  0  0  0  0  0  0  0  0  0  0  0
    0.3290   -0.6100   -0.4800 O   0  0  0  0  0  0  0  0  0  0  0  0
    1.0330    0.5390   -0.4490 C   0  0  0  0  0  0  0  0  0  0  0  0
    2.5180    0.2900   -0.5370 C   0  0  0  0  0  0  0  0  0  0  0  0
    2.9810   -1.0130   -0.6260 C   0  0  0  0  0  0  0  0  0  0  0  0
    4.3440   -1.2490   -0.7040 C   0  0  0  0  0  0  0  0  0  0  0  0
    4.8430   -2.6150   -0.7960 C   0  0  0  0  0  0  0  0  0  0  0  0
    5.1840   -0.1840   -0.6900 C   0  0  0  0  0  0  0  0  0  0  0  0
    6.6370   -0.3850   -0.7720 C   0  0  0  0  0  0  0  0  0  0  0  0
    7.1380   -0.8710    0.5710 C   0  0  0  0  0  0  0  0  0  0  0  0
    4.7360    1.1340   -0.6010 C   0  0  0  0  0  0  0  0  0  0  0  0
    5.6690    2.2770   -0.5870 C   0  0  0  0  0  0  0  0  0  0  0  0
    3.3780    1.3650   -0.5230 C   0  0  0  0  0  0  0  0  0  0  0  0
    2.8590    2.7660   -0.4270 C   0  0  0  0  0  0  0  0  0  0  0  0
   -3.2120   -0.4790    0.5650 C   0  0  0  0  0  0  0  0  0  0  0  0
   -4.1990    0.2060   -0.0700 C   0  0  0  0  0  0  0  0  0  0  0  0
   -5.5040   -0.2840   -0.1240 C   0  0  0  0  0  0  0  0  0  0  0  0
   -6.5620    0.4910   -0.8270 C   0  0  0  0  0  0  0  0  0  0  0  0
   -5.8060   -1.5040    0.4870 C   0  0  0  0  0  0  0  0  0  0  0  0
   -4.8230   -2.2190    1.1380 C   0  0  0  0  0  0  0  0  0  0  0  0
   -3.5490   -1.6740    1.1530 C   0  0  0  0  0  0  0  0  0  0  0  0
   -5.4480   -3.4640    1.6760 C   0  0  0  0  0  0  0  0  0  0  0  0
   -6.7670   -3.5290    0.9460 C   0  0  0  0  0  0  0  0  0  0  0  0
   -6.9880   -2.1900    0.5750 O   0  0  0  0  0  0  0  0  0  0  0  0
  1  2  1  0
  2  3  1  0
  3  4  1  0
  4  5  1  6
  4 19  1  0
  5  6  1  0
  6  7  1  0
  7  8  1  0
  8  9  2  0
  8 17  1  0
  9 10  1  0
 10 11  1  0
 10 12  2  0
 12 13  1  0
 12 15  1  0
 13 14  1  0
 15 16  1  0
 15 17  2  0
 17 18  1  0
 19 20  2  0
 19 25  1  0
 20 21  1  0
 21 22  1  0
 21 23  2  0
 23 24  1  0
 23 28  1  0
 24 25  2  0
 24 26  1  0
 26 27  1  0
 27 28  1  0
M  CHG  1   3   1
M  END
