
     RDKit          3D

 29 32  0  0  0  0  0  0  0  0999 V2000
   -6.1280    1.4990   -1.3890 O   0  0  0  0  0  0  0  0  0  0  0  0
   -5.2820    0.8680   -0.6950 C   0  0  0  0  0  0  0  0  0  0  0  0
   -4.6440    1.4130    0.5240 C   0  0  0  0  0  0  0  0  0  0  0  0
   -3.1880    1.6170    0.2550 C   0  0  2  0  0  0  0  0  0  0  0  0
   -2.8760    2.9440   -0.3730 C   0  0  0  0  0  0  0  0  0  0  0  0
   -2.7130    1.6980   -1.1190 C   0  0  0  0  0  0  0  0  0  0  0  0
   -2.3810    1.1440    1.4030 C   0  0  0  0  0  0  0  0  0  0  0  0
   -3.0030    0.7210    2.4300 O   0  0  0  0  0  0  0  0  0  0  0  0
   -0.9660    1.1180    1.4760 N   0  0  0  0  0  0  0  0  0  0  0  0
   -0.0140    0.5270    0.6150 C   0  0  0  0  0  0  0  0  0  0  0  0
    0.9560    1.4220    0.1160 C   0  0  0  0  0  0  0  0  0  0  0  0
    1.9430    0.9570   -0.7070 C   0  0  0  0  0  0  0  0  0  0  0  0
    2.0650   -0.3480   -1.0940 C   0  0  0  0  0  0  0  0  0  0  0  0
    3.1500   -0.8120   -2.0100 C   0  0  0  0  0  0  0  0  0  0  0  0
    4.2220   -1.6010   -1.3220 C   0  0  0  0  0  0  0  0  0  0  0  0
    4.9270   -0.8860   -0.2420 C   0  0  0  0  0  0  0  0  0  0  0  0
    6.2440   -0.6190   -0.2450 C   0  0  0  0  0  0  0  0  0  0  0  0
    6.6010    0.1050    0.9910 C   0  0  0  0  0  0  0  0  0  0  0  0
    5.3400    0.2260    1.7290 C   0  0  0  0  0  0  0  0  0  0  0  0
    4.3840   -0.3600    0.9860 C   0  0  0  0  0  0  0  0  0  0  0  0
    1.1230   -1.2270   -0.6100 C   0  0  0  0  0  0  0  0  0  0  0  0
    1.2850   -2.5150   -0.9940 F   0  0  0  0  0  0  0  0  0  0  0  0
    0.0820   -0.7990    0.2430 C   0  0  0  0  0  0  0  0  0  0  0  0
   -0.7590   -1.8590    0.6650 N   0  0  0  0  0  0  0  0  0  0  0  0
   -2.1680   -1.9620    0.6470 C   0  0  0  0  0  0  0  0  0  0  0  0
   -2.7720   -2.2000    1.7390 O   0  0  0  0  0  0  0  0  0  0  0  0
   -3.0200   -1.8130   -0.5820 C   0  0  0  0  0  0  0  0  0  0  0  0
   -4.3920   -1.3910   -0.1770 C   0  0  0  0  0  0  0  0  0  0  0  0
   -4.9370   -0.4280   -1.1220 N   0  0  0  0  0  0  0  0  0  0  0  0
  1  2  2  0
  2  3  1  0
  2 29  1  0
  4  3  1  6
  4  5  1  0
  4  6  1  0
  4  7  1  0
  5  6  1  0
  7  8  2  0
  7  9  1  0
  9 10  1  0
 10 11  2  0
 10 23  1  0
 11 12  1  0
 12 13  2  0
 13 14  1  0
 13 21  1  0
 14 15  1  0
 15 16  1  0
 16 17  2  0
 16 20  1  0
 17 18  1  0
 18 19  1  0
 19 20  2  0
 21 22  1  0
 21 23  2  0
 23 24  1  0
 24 25  1  0
 25 26  2  0
 25 27  1  0
 27 28  1  0
 28 29  1  0
M  END
