
     RDKit          3D

 29 31  0  0  0  0  0  0  0  0999 V2000
   -2.2030   -4.1980   -0.8830 C   0  0  0  0  0  0  0  0  0  0  0  0
   -2.1280   -2.7020   -1.1350 C   0  0  0  0  0  0  0  0  0  0  0  0
   -2.7870   -2.0050   -0.2050 C   0  0  0  0  0  0  0  0  0  0  0  0
   -2.8820   -0.5250   -0.2140 C   0  0  0  0  0  0  0  0  0  0  0  0
   -2.9090    0.1010    1.1290 C   0  0  0  0  0  0  0  0  0  0  0  0
   -3.3890    1.5250    1.0440 C   0  0  0  0  0  0  0  0  0  0  0  0
   -4.2660    1.8380    1.9300 O   0  0  0  0  0  0  0  0  0  0  0  0
   -2.9510    2.4720    0.0960 N   0  0  0  0  0  0  0  0  0  0  0  0
   -1.5920    2.8460   -0.2090 C   0  0  2  0  0  0  0  0  0  0  0  0
   -1.5750    4.3910   -0.2040 C   0  0  0  0  0  0  0  0  0  0  0  0
   -1.0930    2.3410   -1.5070 C   0  0  0  0  0  0  0  0  0  0  0  0
   -1.6200    2.8120   -2.5330 O   0  0  0  0  0  0  0  0  0  0  0  0
   -0.0690    1.3670   -1.6720 N   0  0  0  0  0  0  0  0  0  0  0  0
    0.6570    0.8370   -0.5230 C   0  0  2  0  0  0  0  0  0  0  0  0
    1.6370    1.9350   -0.1450 C   0  0  0  0  0  0  0  0  0  0  0  0
    1.9730    1.8680    1.3060 C   0  0  0  0  0  0  0  0  0  0  0  0
    1.7510    2.8200    2.0610 O   0  0  0  0  0  0  0  0  0  0  0  0
    2.5700    0.6880    1.8890 N   0  0  0  0  0  0  0  0  0  0  0  0
    3.0160   -0.4700    1.1840 C   0  0  0  0  0  0  0  0  0  0  0  0
    4.1690   -1.1720    1.7390 C   0  0  0  0  0  0  0  0  0  0  0  0
    4.9830   -1.0480    2.7430 C   0  0  0  0  0  0  0  0  0  0  0  0
    5.7300   -2.2630    2.3480 C   0  0  0  0  0  0  0  0  0  0  0  0
    4.8850   -2.3680    1.3290 C   0  0  0  0  0  0  0  0  0  0  0  0
    2.4410   -0.9460    0.0890 C   0  0  0  0  0  0  0  0  0  0  0  0
    1.2500   -0.4910   -0.7090 C   0  0  0  0  0  0  0  0  0  0  0  0
    0.8740   -1.4740   -1.4850 C   0  0  0  0  0  0  0  0  0  0  0  0
   -0.1910   -1.7110   -2.4260 C   0  0  0  0  0  0  0  0  0  0  0  0
    0.1370   -1.4060   -3.7600 F   0  0  0  0  0  0  0  0  0  0  0  0
   -1.4080   -2.2110   -2.2850 C   0  0  0  0  0  0  0  0  0  0  0  0
  1  2  1  0
  2  3  2  0
  2 29  1  0
  3  4  1  0
  4  5  1  0
  5  6  1  0
  6  7  2  0
  6  8  1  0
  8  9  1  0
  9 10  1  6
  9 11  1  0
 11 12  2  0
 11 13  1  0
 13 14  1  0
 14 15  1  6
 14 25  1  0
 15 16  1  0
 16 17  2  0
 16 18  1  0
 18 19  1  0
 19 20  1  0
 19 24  2  0
 20 21  2  0
 20 23  1  0
 21 22  1  0
 22 23  2  0
 24 25  1  0
 25 26  2  0
 26 27  1  0
 27 28  1  0
 27 29  2  0
M  END
