
     RDKit          3D

 10 10  0  0  0  0  0  0  0  0999 V2000
   -2.8550    0.6480    1.1010 O   0  0  0  0  0  0  0  0  0  0  0  0
   -2.2320    0.2350   -0.0570 C   0  0  0  0  0  0  0  0  0  0  0  0
   -0.7090    0.3230    0.0820 C   0  0  2  0  0  0  0  0  0  0  0  0
   -0.3230    1.6160    0.3390 O   0  0  0  0  0  0  0  0  0  0  0  0
   -0.1430   -0.2070   -1.2200 C   0  0  0  0  0  0  0  0  0  0  0  0
    1.3310   -0.3910   -1.1900 C   0  0  0  0  0  0  0  0  0  0  0  0
    1.9540   -0.2740    0.1610 C   0  0  1  0  0  0  0  0  0  0  0  0
    2.2650    1.0500    0.4290 O   0  0  0  0  0  0  0  0  0  0  0  0
    1.1650   -0.8500    1.2750 C   0  0  0  0  0  0  0  0  0  0  0  0
   -0.3190   -0.6530    1.1640 C   0  0  0  0  0  0  0  0  0  0  0  0
  1  2  1  0
  2  3  1  0
  3  4  1  1
  3  5  1  0
  3 10  1  0
  5  6  1  0
  6  7  1  0
  7  8  1  1
  7  9  1  0
  9 10  1  0
M  END
