
     RDKit          3D

 21 22  0  0  0  0  0  0  0  0999 V2000
   -5.0470   -1.4830    0.6860 C   0  0  0  0  0  0  0  0  0  0  0  0
   -4.4980   -0.0990    0.3220 C   0  0  1  0  0  0  0  0  0  0  0  0
   -5.6480    0.7020   -0.2420 C   0  0  0  0  0  0  0  0  0  0  0  0
   -3.9820    0.5080    1.6040 C   0  0  0  0  0  0  0  0  0  0  0  0
   -3.4170   -0.3300   -0.6880 C   0  0  0  0  0  0  0  0  0  0  0  0
   -2.6240    1.1890   -1.2600 S   0  0  0  0  0  0  0  0  0  0  0  0
   -1.3500    0.7180   -2.4740 C   0  0  0  0  0  0  0  0  0  0  0  0
   -0.2540   -0.0520   -1.8330 C   0  0  0  0  0  0  0  0  0  0  0  0
   -0.1440   -1.3800   -1.6550 N   0  0  0  0  0  0  0  0  0  0  0  0
    0.9730   -1.6470   -1.0510 O   0  0  0  0  0  0  0  0  0  0  0  0
    1.6480   -0.5550   -0.8000 C   0  0  0  0  0  0  0  0  0  0  0  0
    2.9430   -0.4160   -0.1410 C   0  0  0  0  0  0  0  0  0  0  0  0
    3.5090    0.7520    0.0430 C   0  0  0  0  0  0  0  0  0  0  0  0
    4.7740    1.0210    0.6770 C   0  0  0  0  0  0  0  0  0  0  0  0
    5.6860    1.9730    0.2100 C   0  0  0  0  0  0  0  0  0  0  0  0
    6.7770    1.9630    1.0540 C   0  0  0  0  0  0  0  0  0  0  0  0
    6.4840    1.0030    2.0040 C   0  0  0  0  0  0  0  0  0  0  0  0
    5.3070    0.4870    1.7350 O   0  0  0  0  0  0  0  0  0  0  0  0
    3.6060   -1.6530    0.3050 C   0  0  0  0  0  0  0  0  0  0  0  0
    3.8440   -2.5280   -0.7640 O   0  0  0  0  0  0  0  0  0  0  0  0
    0.8710    0.4520   -1.2950 N   0  0  0  0  0  0  0  0  0  0  0  0
  2  1  1  1
  2  3  1  0
  2  4  1  0
  2  5  1  0
  5  6  1  0
  6  7  1  0
  7  8  1  0
  8  9  2  0
  8 21  1  0
  9 10  1  0
 10 11  1  0
 11 12  1  0
 11 21  2  0
 12 13  2  3
 12 19  1  0
 13 14  1  0
 14 15  2  0
 14 18  1  0
 15 16  1  0
 16 17  2  0
 17 18  1  0
 19 20  1  0
M  END
