
     RDKit          3D

  9  9  0  0  0  0  0  0  0  0999 V2000
    2.3770    1.1380   -0.4330 O   0  0  0  0  0  0  0  0  0  0  0  0
    2.4230   -0.1050    0.1550 C   0  0  0  0  0  0  0  0  0  0  0  0
    1.0830   -0.4970    0.6730 C   0  0  0  0  0  0  0  0  0  0  0  0
   -0.0190   -0.6010   -0.3100 C   0  0  1  0  0  0  0  0  0  0  0  0
    0.2770   -1.5520   -1.2960 O   0  0  0  0  0  0  0  0  0  0  0  0
   -1.2670   -1.0370    0.4590 C   0  0  0  0  0  0  0  0  0  0  0  0
   -2.1870    0.1480    0.5100 C   0  0  0  0  0  0  0  0  0  0  0  0
   -1.2840    1.2980    0.1160 C   0  0  0  0  0  0  0  0  0  0  0  0
   -0.4510    0.6600   -0.9770 C   0  0  0  0  0  0  0  0  0  0  0  0
  1  2  1  0
  2  3  1  0
  3  4  1  0
  4  5  1  6
  4  6  1  0
  4  9  1  0
  6  7  1  0
  7  8  1  0
  8  9  1  0
M  END
