
     RDKit          3D

 22 23  0  0  0  0  0  0  0  0999 V2000
    5.5500   -0.6910   -1.2080 C   0  0  0  0  0  0  0  0  0  0  0  0
    5.3560    0.7310   -0.7190 C   0  0  0  0  0  0  0  0  0  0  0  0
    5.2100    0.7890    0.7780 C   0  0  0  0  0  0  0  0  0  0  0  0
    4.0450    0.0060    1.2780 C   0  0  0  0  0  0  0  0  0  0  0  0
    2.8070    0.4860    0.7280 O   0  0  0  0  0  0  0  0  0  0  0  0
    1.5970   -0.0900    1.0520 C   0  0  0  0  0  0  0  0  0  0  0  0
    1.6110   -1.0580    1.8510 O   0  0  0  0  0  0  0  0  0  0  0  0
    0.3290    0.3930    0.4960 C   0  0  0  0  0  0  0  0  0  0  0  0
   -0.8640   -0.1790    0.8190 C   0  0  0  0  0  0  0  0  0  0  0  0
   -2.0870    0.2290    0.3310 C   0  0  0  0  0  0  0  0  0  0  0  0
   -3.3690   -0.3780    0.8280 C   0  0  0  0  0  0  0  0  0  0  0  0
   -3.4100   -0.7910    2.0760 N   0  0  0  0  0  0  0  0  0  0  0  0
   -4.5320   -1.3550    2.5450 C   0  0  0  0  0  0  0  0  0  0  0  0
   -4.8040   -1.8230    3.6980 O   0  0  0  0  0  0  0  0  0  0  0  0
   -5.6330   -1.3160    1.1350 S   0  0  0  0  0  0  0  0  0  0  0  0
   -4.4340   -0.5230    0.0220 C   0  0  0  0  0  0  0  0  0  0  0  0
   -4.7350   -0.3390   -1.3750 C   0  0  0  0  0  0  0  0  0  0  0  0
   -6.1450   -0.5150   -1.8690 C   0  0  0  0  0  0  0  0  0  0  0  0
   -3.8930   -0.0390   -2.2140 O   0  0  0  0  0  0  0  0  0  0  0  0
   -2.0760    1.2820   -0.5320 C   0  0  0  0  0  0  0  0  0  0  0  0
   -0.8590    1.9010   -0.8920 C   0  0  0  0  0  0  0  0  0  0  0  0
    0.2790    1.4280   -0.3620 N   0  0  0  0  0  0  0  0  0  0  0  0
  1  2  1  0
  2  3  1  0
  3  4  1  0
  4  5  1  0
  5  6  1  0
  6  7  2  0
  6  8  1  0
  8  9  2  0
  8 22  1  0
  9 10  1  0
 10 11  1  0
 10 20  2  0
 11 12  1  0
 11 16  2  0
 12 13  1  0
 13 14  2  0
 13 15  1  0
 15 16  1  0
 16 17  1  0
 17 18  1  0
 17 19  2  0
 20 21  1  0
 21 22  2  0
M  END
