
     RDKit          3D

 10 10  0  0  0  0  0  0  0  0999 V2000
    3.4930    0.0510    0.1230 C   0  0  0  0  0  0  0  0  0  0  0  0
    2.2110    0.0660    0.7180 O   0  0  0  0  0  0  0  0  0  0  0  0
    1.3260   -0.2550   -0.2870 C   0  0  0  0  0  0  0  0  0  0  0  0
   -0.1110   -0.2910    0.1530 C   0  0  2  0  0  0  0  0  0  0  0  0
   -0.2470   -1.2390    1.1460 O   0  0  0  0  0  0  0  0  0  0  0  0
   -0.9190   -0.6640   -1.0730 C   0  0  0  0  0  0  0  0  0  0  0  0
   -2.4000   -0.5270   -0.8420 C   0  0  0  0  0  0  0  0  0  0  0  0
   -2.6460    0.8240   -0.5400 O   0  0  0  0  0  0  0  0  0  0  0  0
   -2.1110    1.0430    0.7240 C   0  0  0  0  0  0  0  0  0  0  0  0
   -0.5870    1.0350    0.6810 C   0  0  0  0  0  0  0  0  0  0  0  0
  1  2  1  0
  2  3  1  0
  3  4  1  0
  4  5  1  1
  4  6  1  0
  4 10  1  0
  6  7  1  0
  7  8  1  0
  8  9  1  0
  9 10  1  0
M  END
