
     RDKit          3D

 26 27  0  0  0  0  0  0  0  0999 V2000
   -3.4820   -0.2550   -3.3510 C   0  0  0  0  0  0  0  0  0  0  0  0
   -2.3430   -0.2130   -2.4080 C   0  0  0  0  0  0  0  0  0  0  0  0
   -2.6760   -0.3000   -0.9770 C   0  0  0  0  0  0  0  0  0  0  0  0
   -1.7500   -0.1800    0.0710 C   0  0  0  0  0  0  0  0  0  0  0  0
   -0.2950    0.0380   -0.0870 C   0  0  0  0  0  0  0  0  0  0  0  0
    0.1890    0.0640   -1.2420 O   0  0  0  0  0  0  0  0  0  0  0  0
    0.5510    0.2170    1.0220 N   0  0  0  0  0  0  0  0  0  0  0  0
    1.9310    0.4260    1.0550 C   0  0  0  0  0  0  0  0  0  0  0  0
    2.7310    0.3860   -0.0490 C   0  0  0  0  0  0  0  0  0  0  0  0
    4.1210    0.5860    0.0520 C   0  0  0  0  0  0  0  0  0  0  0  0
    5.1260    0.5220   -1.3670 S   0  0  1  0  0  0  0  0  0  0  0  0
    4.3860    0.9640   -2.5850 O   0  0  0  0  0  0  0  0  0  0  0  0
    6.3500    1.3750   -1.2360 O   0  0  0  0  0  0  0  0  0  0  0  0
    5.6470   -1.1250   -1.5590 N   0  0  0  0  0  0  0  0  0  0  0  0
    6.4360   -1.5210   -0.3850 C   0  0  0  0  0  0  0  0  0  0  0  0
    4.6820    0.8250    1.2800 C   0  0  0  0  0  0  0  0  0  0  0  0
    3.8440    0.8610    2.3870 C   0  0  0  0  0  0  0  0  0  0  0  0
    2.5020    0.6700    2.3010 C   0  0  0  0  0  0  0  0  0  0  0  0
    1.6860    0.7310    3.5550 C   0  0  0  0  0  0  0  0  0  0  0  0
   -2.3980   -0.3050    1.2280 N   0  0  0  0  0  0  0  0  0  0  0  0
   -3.7030   -0.5020    1.0370 C   0  0  0  0  0  0  0  0  0  0  0  0
   -4.7920   -0.6930    2.0420 C   0  0  0  0  0  0  0  0  0  0  0  0
   -3.8800   -0.4990   -0.3610 C   0  0  0  0  0  0  0  0  0  0  0  0
   -5.1860   -0.6870   -0.9760 C   0  0  0  0  0  0  0  0  0  0  0  0
   -6.1280    0.4140   -1.3050 C   0  0  0  0  0  0  0  0  0  0  0  0
   -5.5860   -1.8670   -1.2660 O   0  0  0  0  0  0  0  0  0  0  0  0
  1  2  1  0
  2  3  1  0
  3  4  2  0
  3 23  1  0
  4  5  1  0
  4 20  1  0
  5  6  2  0
  5  7  1  0
  7  8  1  0
  8  9  2  0
  8 18  1  0
  9 10  1  0
 10 11  1  0
 10 16  2  0
 11 12  2  0
 11 13  2  0
 11 14  1  6
 14 15  1  0
 16 17  1  0
 17 18  2  0
 18 19  1  0
 20 21  1  0
 21 22  1  0
 21 23  2  0
 23 24  1  0
 24 25  1  0
 24 26  2  0
M  END
