
     RDKit          3D

 21 22  0  0  0  0  0  0  0  0999 V2000
    2.1900    0.9700   -2.2360 N   0  0  0  0  0  0  0  0  0  0  0  0
    2.7040    0.7330   -1.0870 C   0  0  0  0  0  0  0  0  0  0  0  0
    3.1540    1.9050   -0.3060 C   0  0  0  0  0  0  0  0  0  0  0  0
    3.0100    3.4190   -0.8620 S   0  0  0  0  0  0  0  0  0  0  0  0
    3.7340    1.6350    0.9910 C   0  0  0  0  0  0  0  0  0  0  0  0
    3.8350    0.3900    1.4110 C   0  0  0  0  0  0  0  0  0  0  0  0
    3.3880   -0.7640    0.6330 C   0  0  0  0  0  0  0  0  0  0  0  0
    2.8480   -0.6120   -0.5580 C   0  0  0  0  0  0  0  0  0  0  0  0
    2.4130   -1.7140   -1.3190 N   0  0  0  0  0  0  0  0  0  0  0  0
    1.3630   -2.8590   -0.6280 S   0  0  1  0  0  0  0  0  0  0  0  0
    1.1550   -3.9880   -1.6090 O   0  0  0  0  0  0  0  0  0  0  0  0
    2.0070   -3.4610    0.5920 O   0  0  0  0  0  0  0  0  0  0  0  0
   -0.1570   -2.1790   -0.1460 C   0  0  0  0  0  0  0  0  0  0  0  0
   -0.6640   -0.9470   -0.2090 C   0  0  0  0  0  0  0  0  0  0  0  0
   -1.9020   -0.7010    0.2510 C   0  0  0  0  0  0  0  0  0  0  0  0
   -2.5070    0.6120    0.2120 O   0  0  0  0  0  0  0  0  0  0  0  0
   -3.7930    0.8180    0.7010 C   0  0  0  0  0  0  0  0  0  0  0  0
   -4.2060    2.2550    0.5530 C   0  0  0  0  0  0  0  0  0  0  0  0
   -5.4900    2.3930    1.0570 O   0  0  0  0  0  0  0  0  0  0  0  0
   -2.6130   -1.7570    0.7820 C   0  0  0  0  0  0  0  0  0  0  0  0
   -1.4880   -3.1970    0.6330 S   0  0  0  0  0  0  0  0  0  0  0  0
  1  2  2  0
  2  3  1  0
  2  8  1  0
  3  4  2  0
  3  5  1  0
  5  6  2  0
  6  7  1  0
  7  8  2  0
  8  9  1  0
 10  9  1  6
 10 11  2  0
 10 12  2  0
 10 13  1  0
 13 14  2  0
 13 21  1  0
 14 15  1  0
 15 16  1  0
 15 20  2  0
 16 17  1  0
 17 18  1  0
 18 19  1  0
 20 21  1  0
M  END
