
     RDKit          3D

 21 21  0  0  0  0  0  0  0  0999 V2000
    5.8820    1.0570   -1.6570 C   0  0  0  0  0  0  0  0  0  0  0  0
    5.0000    1.5410   -3.1560 S   0  0  0  0  0  0  0  0  0  0  0  0
    3.4780    0.5760   -3.3470 C   0  0  0  0  0  0  0  0  0  0  0  0
    2.5300    0.9170   -2.2570 C   0  0  0  0  0  0  0  0  0  0  0  0
    1.7400    1.8710   -2.4030 O   0  0  0  0  0  0  0  0  0  0  0  0
    2.5380    0.1390   -1.0500 N   0  0  0  0  0  0  0  0  0  0  0  0
    1.6460    0.4390    0.0140 C   0  0  0  0  0  0  0  0  0  0  0  0
    0.8510    1.4000   -0.1240 O   0  0  0  0  0  0  0  0  0  0  0  0
    1.6720   -0.3780    1.2530 C   0  0  0  0  0  0  0  0  0  0  0  0
    0.4740    0.1810    2.4780 S   0  0  0  0  0  0  0  0  0  0  0  0
   -1.1740   -0.0720    1.8620 C   0  0  0  0  0  0  0  0  0  0  0  0
   -2.2470    0.2490    2.6030 C   0  0  0  0  0  0  0  0  0  0  0  0
   -2.0930    0.8140    3.9320 C   0  0  0  0  0  0  0  0  0  0  0  0
   -3.1050    1.1020    4.5970 O   0  0  0  0  0  0  0  0  0  0  0  0
   -0.8450    1.0390    4.4730 O   0  0  0  0  0  0  0  0  0  0  0  0
   -3.5420    0.0350    2.0980 N   0  0  0  0  0  0  0  0  0  0  0  0
   -3.8510   -0.4920    0.8150 C   0  0  0  0  0  0  0  0  0  0  0  0
   -2.6480   -0.8260    0.0460 C   0  0  0  0  0  0  0  0  0  0  0  0
   -2.8410   -1.5140   -1.6220 S   0  0  0  0  0  0  0  0  0  0  0  0
   -4.6070   -1.6020   -2.0040 C   0  0  0  0  0  0  0  0  0  0  0  0
   -1.4490   -0.6250    0.5460 C   0  0  0  0  0  0  0  0  0  0  0  0
  1  2  1  0
  2  3  1  0
  3  4  1  0
  4  5  2  0
  4  6  1  0
  6  7  1  0
  7  8  2  0
  7  9  1  0
  9 10  1  0
 10 11  1  0
 11 12  2  0
 11 21  1  0
 12 13  1  0
 12 16  1  0
 13 14  2  0
 13 15  1  0
 16 17  1  0
 17 18  1  0
 18 19  1  0
 18 21  2  0
 19 20  1  0
M  END
