
     RDKit          3D

 27 29  0  0  0  0  0  0  0  0999 V2000
   -1.1760   -2.5800   -1.2460 C   0  0  0  0  0  0  0  0  0  0  0  0
   -1.8320   -1.3430   -1.8370 C   0  0  0  0  0  0  0  0  0  0  0  0
   -2.4140   -0.5530   -0.7090 C   0  0  0  0  0  0  0  0  0  0  0  0
   -1.7270    0.2490    0.2100 C   0  0  0  0  0  0  0  0  0  0  0  0
   -0.2900    0.4840    0.2070 C   0  0  0  0  0  0  0  0  0  0  0  0
    0.2190    0.6180   -0.9550 O   0  0  0  0  0  0  0  0  0  0  0  0
    0.5140    0.5640    1.3720 N   0  0  0  0  0  0  0  0  0  0  0  0
    0.0990    0.4230    2.6380 C   0  0  0  0  0  0  0  0  0  0  0  0
    1.1990    0.5870    3.4720 C   0  0  0  0  0  0  0  0  0  0  0  0
    2.2750    0.8290    2.6580 C   0  0  0  0  0  0  0  0  0  0  0  0
    3.6250    1.0700    2.8870 C   0  0  0  0  0  0  0  0  0  0  0  0
    4.5170    1.2880    1.8660 C   0  0  0  0  0  0  0  0  0  0  0  0
    4.0970    1.2750    0.5560 C   0  0  0  0  0  0  0  0  0  0  0  0
    5.2380    1.5580   -0.7640 S   0  0  1  0  0  0  0  0  0  0  0  0
    4.5100    2.1060   -1.9690 O   0  0  0  0  0  0  0  0  0  0  0  0
    6.3060    2.5160   -0.3540 O   0  0  0  0  0  0  0  0  0  0  0  0
    5.9340    0.0650   -1.2060 N   0  0  0  0  0  0  0  0  0  0  0  0
    4.9400   -0.8740   -1.6840 C   0  0  0  0  0  0  0  0  0  0  0  0
    2.7630    1.0380    0.3070 C   0  0  0  0  0  0  0  0  0  0  0  0
    1.8540    0.8160    1.3490 C   0  0  0  0  0  0  0  0  0  0  0  0
   -2.6310    0.7800    1.0620 N   0  0  0  0  0  0  0  0  0  0  0  0
   -3.8850    0.3690    0.7550 C   0  0  0  0  0  0  0  0  0  0  0  0
   -5.1530    0.7300    1.4520 C   0  0  0  0  0  0  0  0  0  0  0  0
   -3.7400   -0.4530   -0.3400 C   0  0  0  0  0  0  0  0  0  0  0  0
   -4.8320   -1.1350   -1.0320 C   0  0  0  0  0  0  0  0  0  0  0  0
   -5.5320   -0.4810   -2.1590 C   0  0  0  0  0  0  0  0  0  0  0  0
   -5.1850   -2.2760   -0.6790 O   0  0  0  0  0  0  0  0  0  0  0  0
  1  2  1  0
  2  3  1  0
  3  4  2  0
  3 24  1  0
  4  5  1  0
  4 21  1  0
  5  6  2  0
  5  7  1  0
  7  8  1  0
  7 20  1  0
  8  9  2  0
  9 10  1  0
 10 11  2  0
 10 20  1  0
 11 12  1  0
 12 13  2  0
 13 14  1  0
 13 19  1  0
 14 15  2  0
 14 16  2  0
 14 17  1  6
 17 18  1  0
 19 20  2  0
 21 22  1  0
 22 23  1  0
 22 24  2  0
 24 25  1  0
 25 26  1  0
 25 27  2  0
M  END
