
     RDKit          3D

 25 26  0  0  0  0  0  0  0  0999 V2000
   -0.9330   -1.1510    1.9530 C   0  0  0  0  0  0  0  0  0  0  0  0
   -1.8490    0.0770    1.8290 C   0  0  0  0  0  0  0  0  0  0  0  0
   -2.2570    0.2590    0.4280 C   0  0  0  0  0  0  0  0  0  0  0  0
   -1.5620    0.7690   -0.6200 C   0  0  0  0  0  0  0  0  0  0  0  0
   -0.2500    1.3040   -0.7830 C   0  0  0  0  0  0  0  0  0  0  0  0
    0.0650    1.4750   -2.1010 O   0  0  0  0  0  0  0  0  0  0  0  0
    0.8100    1.7110   -0.0180 N   0  0  0  0  0  0  0  0  0  0  0  0
    0.9070    1.7820    1.4040 C   0  0  0  0  0  0  0  0  0  0  0  0
    2.0960    2.1420   -0.7280 C   0  0  0  0  0  0  0  0  0  0  0  0
    2.9440    0.9490   -0.8880 C   0  0  0  0  0  0  0  0  0  0  0  0
    3.0310    0.3780   -2.1650 C   0  0  0  0  0  0  0  0  0  0  0  0
    3.8140   -0.7450   -2.3290 C   0  0  0  0  0  0  0  0  0  0  0  0
    4.4970   -1.3110   -1.3050 C   0  0  0  0  0  0  0  0  0  0  0  0
    4.4180   -0.7550   -0.0440 C   0  0  0  0  0  0  0  0  0  0  0  0
    5.1560   -1.3840    1.0330 C   0  0  0  0  0  0  0  0  0  0  0  0
    5.8180   -2.6110    0.8230 N   0  0  0  0  0  0  0  0  0  0  0  0
    5.2390   -0.8700    2.1940 O   0  0  0  0  0  0  0  0  0  0  0  0
    3.6400    0.3730    0.1510 C   0  0  0  0  0  0  0  0  0  0  0  0
   -2.4190    0.6210   -1.7060 N   0  0  0  0  0  0  0  0  0  0  0  0
   -3.5630    0.0580   -1.3400 C   0  0  0  0  0  0  0  0  0  0  0  0
   -4.7390   -0.2700   -2.2210 C   0  0  0  0  0  0  0  0  0  0  0  0
   -3.5320   -0.1980   -0.0050 C   0  0  0  0  0  0  0  0  0  0  0  0
   -4.5470   -0.8040    0.8450 C   0  0  0  0  0  0  0  0  0  0  0  0
   -5.5440    0.1000    1.4940 C   0  0  0  0  0  0  0  0  0  0  0  0
   -4.6440   -2.0270    1.0700 O   0  0  0  0  0  0  0  0  0  0  0  0
  1  2  1  0
  2  3  1  0
  3  4  2  0
  3 22  1  0
  4  5  1  0
  4 19  1  0
  5  6  2  0
  5  7  1  0
  7  8  1  0
  7  9  1  0
  9 10  1  0
 10 11  2  0
 10 18  1  0
 11 12  1  0
 12 13  2  0
 13 14  1  0
 14 15  1  0
 14 18  2  0
 15 16  1  0
 15 17  2  0
 19 20  1  0
 20 21  1  0
 20 22  2  0
 22 23  1  0
 23 24  1  0
 23 25  2  0
M  END
