
     RDKit          3D

 19 20  0  0  0  0  0  0  0  0999 V2000
   -4.4240    1.6160   -1.1220 C   0  0  0  0  0  0  0  0  0  0  0  0
   -3.3090    1.1630   -0.1900 C   0  0  1  0  0  0  0  0  0  0  0  0
   -3.8240    0.6320    1.0380 N   0  0  0  0  0  0  0  0  0  0  0  0
   -2.4250    0.2210   -0.9500 C   0  0  0  0  0  0  0  0  0  0  0  0
   -1.3440   -0.3350   -0.3290 N   0  0  0  0  0  0  0  0  0  0  0  0
   -1.4490   -1.2820    0.6960 C   0  0  0  0  0  0  0  0  0  0  0  0
   -0.0590   -1.9230    0.5360 C   0  0  2  0  0  0  0  0  0  0  0  0
    0.3070   -2.8170    1.6540 C   0  0  0  0  0  0  0  0  0  0  0  0
   -0.5870   -3.8490    1.7750 O   0  0  0  0  0  0  0  0  0  0  0  0
    0.7650   -0.6020    0.5350 C   0  0  1  0  0  0  0  0  0  0  0  0
    1.9970   -0.8950    0.0360 O   0  0  0  0  0  0  0  0  0  0  0  0
    3.0770   -0.0790   -0.1250 C   0  0  0  0  0  0  0  0  0  0  0  0
    2.9480    1.2260   -0.1610 C   0  0  0  0  0  0  0  0  0  0  0  0
    4.1140    2.1110   -0.3370 C   0  0  1  0  0  0  0  0  0  0  0  0
    4.1750    2.9490    0.7990 O   0  0  0  0  0  0  0  0  0  0  0  0
    5.3440    1.4680   -0.4520 O   0  0  0  0  0  0  0  0  0  0  0  0
    5.4670    0.1090   -0.4140 C   0  0  0  0  0  0  0  0  0  0  0  0
    4.4260   -0.6720   -0.2610 C   0  0  0  0  0  0  0  0  0  0  0  0
   -0.0980    0.3340   -0.2880 C   0  0  0  0  0  0  0  0  0  0  0  0
  2  1  1  6
  2  3  1  0
  2  4  1  0
  4  5  1  0
  5  6  1  0
  5 19  1  0
  6  7  1  0
  7  8  1  1
  7 10  1  0
  8  9  1  0
 10 11  1  6
 10 19  1  0
 11 12  1  0
 12 13  2  0
 12 18  1  0
 13 14  1  0
 14 15  1  1
 14 16  1  0
 16 17  1  0
 17 18  2  0
M  CHG  1   3   1
M  END
