
     RDKit          3D

 18 17  0  0  0  0  0  0  0  0999 V2000
   -1.5600   -3.0600   -0.3000 O   0  0  0  0  0  0  0  0  0  0  0  0
   -2.7870   -2.7890   -0.4080 C   0  0  0  0  0  0  0  0  0  0  0  0
   -3.6580   -3.8660   -0.1500 O   0  0  0  0  0  0  0  0  0  0  0  0
   -3.2490   -1.5040   -0.7610 N   0  0  0  0  0  0  0  0  0  0  0  0
   -2.3520   -0.4230   -1.0190 C   0  0  0  0  0  0  0  0  0  0  0  0
   -1.5220   -0.1460    0.1870 C   0  0  0  0  0  0  0  0  0  0  0  0
   -0.5860    0.9480   -0.0140 N   0  0  0  0  0  0  0  0  0  0  0  0
    0.7350    0.6930   -0.5160 C   0  0  0  0  0  0  0  0  0  0  0  0
    1.9520    0.3740    0.8450 P   0  0  0  0  0  0  0  0  0  0  0  0
    1.7060   -1.1750    1.5760 O   0  0  0  0  0  0  0  0  0  0  0  0
    3.5760    0.6150    0.3370 O   0  0  0  0  0  0  0  0  0  0  0  0
    4.4810   -0.8670    0.4480 P   0  0  0  0  0  0  0  0  0  0  0  0
    3.5280   -2.1840   -0.1430 O   0  0  0  0  0  0  0  0  0  0  0  0
    5.9460   -0.7740   -0.4710 O   0  0  0  0  0  0  0  0  0  0  0  0
   -0.9960    2.2840    0.2940 C   0  0  0  0  0  0  0  0  0  0  0  0
   -2.1560    2.5060    0.7350 O   0  0  0  0  0  0  0  0  0  0  0  0
   -0.0590    3.4150    0.0970 C   0  0  0  0  0  0  0  0  0  0  0  0
   -0.6600    4.6020    0.4550 O   0  0  0  0  0  0  0  0  0  0  0  0
  1  2  2  0
  2  3  1  0
  2  4  1  0
  4  5  1  0
  5  6  1  0
  6  7  1  0
  7  8  1  0
  7 15  1  0
  8  9  1  0
  9 10  1  0
  9 11  1  0
 11 12  1  0
 12 13  1  0
 12 14  1  0
 15 16  2  0
 15 17  1  0
 17 18  1  0
M  END
