
     RDKit          3D

 14 14  0  0  0  0  0  0  0  0999 V2000
    5.1840    1.0180   -1.4350 O   0  0  0  0  0  0  0  0  0  0  0  0
    5.1770    0.7710   -0.1390 O   0  0  0  0  0  0  0  0  0  0  0  0
    3.9410    0.9070    0.3440 O   0  0  0  0  0  0  0  0  0  0  0  0
    3.2960   -0.1800    0.0350 O   0  0  0  0  0  0  0  0  0  0  0  0
    1.9570   -0.0080    0.4180 C   0  0  0  0  0  0  0  0  0  0  0  0
    1.1870   -1.2630    0.0670 C   0  0  0  0  0  0  0  0  0  0  0  0
   -0.1170   -1.1110    0.4360 O   0  0  0  0  0  0  0  0  0  0  0  0
   -0.8190   -0.0900   -0.1380 C   0  0  0  0  0  0  0  0  0  0  0  0
   -2.2310   -0.1580    0.4380 C   0  0  1  0  0  0  0  0  0  0  0  0
   -2.2910   -0.0190    1.8150 O   0  0  0  0  0  0  0  0  0  0  0  0
   -1.8150    1.1100    2.2440 O   0  0  0  0  0  0  0  0  0  0  0  0
   -3.2160    0.6360   -0.3570 C   0  0  0  0  0  0  0  0  0  0  0  0
   -3.4360   -0.4470   -1.1820 O   0  0  0  0  0  0  0  0  0  0  0  0
   -3.0250   -1.2790   -0.1420 C   0  0  0  0  0  0  0  0  0  0  0  0
  1  2  1  0
  2  3  1  0
  3  4  1  0
  4  5  1  0
  5  6  1  0
  6  7  1  0
  7  8  1  0
  9  8  1  6
  9 10  1  0
  9 12  1  0
  9 14  1  0
 10 11  1  0
 12 13  1  0
 13 14  1  0
M  END
