
     RDKit          3D

 14 14  0  0  0  0  0  0  0  0999 V2000
    0.7430    1.1010   -0.1130 O   0  0  0  0  0  0  0  0  0  0  0  0
   -0.1420    0.2340    0.0110 C   0  0  0  0  0  0  0  0  0  0  0  0
    0.2170   -1.0940    0.3840 O   0  0  0  0  0  0  0  0  0  0  0  0
    1.6600   -1.1790    0.5730 C   0  0  0  0  0  0  0  0  0  0  0  0
    2.4740   -1.1890   -0.6770 C   0  0  0  0  0  0  0  0  0  0  0  0
    3.8490   -1.0440    0.0610 O   0  0  0  0  0  0  0  0  0  0  0  0
    4.2580    0.1130   -0.1240 O   0  0  0  0  0  0  0  0  0  0  0  0
    4.2070    1.1590   -0.6830 O   0  0  0  0  0  0  0  0  0  0  0  0
   -1.5470    0.6810   -0.2460 C   0  0  1  0  0  0  0  0  0  0  0  0
   -1.6470    1.9140   -0.8110 O   0  0  0  0  0  0  0  0  0  0  0  0
   -2.3870   -0.3140   -0.9190 C   0  0  0  0  0  0  0  0  0  0  0  0
   -3.6870    0.0220   -0.4420 O   0  0  0  0  0  0  0  0  0  0  0  0
   -3.5320    0.5460    0.8180 C   0  0  0  0  0  0  0  0  0  0  0  0
   -2.1770    0.7520    1.0660 O   0  0  0  0  0  0  0  0  0  0  0  0
  1  2  2  0
  2  3  1  0
  2  9  1  0
  3  4  1  0
  4  5  1  0
  5  6  1  0
  6  7  1  0
  7  8  1  0
  9 10  1  6
  9 11  1  0
  9 14  1  0
 11 12  1  0
 12 13  1  0
 13 14  1  0
M  END
