
     RDKit          3D

 28 28  0  0  0  0  0  0  0  0999 V2000
   -0.4470   -0.6340    2.4200 O   0  0  0  0  0  0  0  0  0  0  0  0
   -1.1020   -0.8400    1.2280 C   0  0  2  0  0  0  0  0  0  0  0  0
   -0.0930   -1.3380    0.2130 C   0  0  2  0  0  0  0  0  0  0  0  0
    0.3900   -2.5870    0.4850 O   0  0  0  0  0  0  0  0  0  0  0  0
    0.2000   -3.7340   -0.6290 P   0  0  0  0  0  0  0  0  0  0  0  0
    0.2570   -3.3570   -2.2680 O   0  0  0  0  0  0  0  0  0  0  0  0
    1.6650   -4.1530   -0.6690 O   0  0  0  0  0  0  0  0  0  0  0  0
   -0.2680   -5.2680   -0.1800 O   0  0  0  0  0  0  0  0  0  0  0  0
    1.0400   -0.3060    0.1350 C   0  0  2  0  0  0  0  0  0  0  0  0
    1.3780    0.0180    1.4220 O   0  0  0  0  0  0  0  0  0  0  0  0
    2.9470   -0.2190    1.7490 P   0  0  0  0  0  0  0  0  0  0  0  0
    3.4100   -0.7890    3.2670 O   0  0  0  0  0  0  0  0  0  0  0  0
    2.9940   -1.6390    1.2100 O   0  0  0  0  0  0  0  0  0  0  0  0
    4.1180    0.3060    0.7070 O   0  0  0  0  0  0  0  0  0  0  0  0
    0.4130    0.9250   -0.5030 C   0  0  2  0  0  0  0  0  0  0  0  0
    1.3110    1.9160   -0.7740 O   0  0  0  0  0  0  0  0  0  0  0  0
    1.3710    2.4170   -2.3220 P   0  0  0  0  0  0  0  0  0  0  0  0
    2.8540    2.7100   -3.0710 O   0  0  0  0  0  0  0  0  0  0  0  0
    0.0160    2.4390   -3.2510 O   0  0  0  0  0  0  0  0  0  0  0  0
    1.2640    3.8930   -1.9680 O   0  0  0  0  0  0  0  0  0  0  0  0
   -0.6130    1.4230    0.4800 C   0  0  1  0  0  0  0  0  0  0  0  0
   -1.0960    2.6830    0.1490 O   0  0  0  0  0  0  0  0  0  0  0  0
   -1.7380    0.4150    0.6790 C   0  0  2  0  0  0  0  0  0  0  0  0
   -2.6520    0.9930    1.5030 O   0  0  0  0  0  0  0  0  0  0  0  0
   -4.1060    1.1100    0.6720 P   0  0  0  0  0  0  0  0  0  0  0  0
   -4.1910    0.8940   -0.9120 O   0  0  0  0  0  0  0  0  0  0  0  0
   -5.5250    1.1590    1.5770 O   0  0  0  0  0  0  0  0  0  0  0  0
   -4.0080    2.6260    0.7050 O   0  0  0  0  0  0  0  0  0  0  0  0
  2  1  1  1
  2  3  1  0
  2 23  1  0
  3  4  1  1
  3  9  1  0
  4  5  1  0
  5  6  1  0
  5  7  1  0
  5  8  1  0
  9 10  1  1
  9 15  1  0
 10 11  1  0
 11 12  1  0
 11 13  1  0
 11 14  1  0
 15 16  1  1
 15 21  1  0
 16 17  1  0
 17 18  1  0
 17 19  1  0
 17 20  1  0
 21 22  1  6
 21 23  1  0
 23 24  1  1
 24 25  1  0
 25 26  1  0
 25 27  1  0
 25 28  1  0
M  END
