
     RDKit          3D

 14 14  0  0  0  0  0  0  0  0999 V2000
   -4.9620   -0.2450   -0.3010 O   0  0  0  0  0  0  0  0  0  0  0  0
   -3.7570   -0.4220   -0.4150 C   0  0  0  0  0  0  0  0  0  0  0  0
   -3.0430   -0.1610   -1.6670 C   0  0  0  0  0  0  0  0  0  0  0  0
   -1.8700   -0.9560   -1.6820 O   0  0  0  0  0  0  0  0  0  0  0  0
   -1.0860   -0.4450   -0.8320 C   0  0  2  0  0  0  0  0  0  0  0  0
    0.3230   -0.8590   -0.7070 O   0  0  0  0  0  0  0  0  0  0  0  0
    0.8990    0.1700   -0.1380 C   0  0  0  0  0  0  0  0  0  0  0  0
    1.6820   -0.1590    1.2550 C   0  0  0  0  0  0  0  0  0  0  0  0
    3.0250   -0.4620    0.8040 O   0  0  0  0  0  0  0  0  0  0  0  0
    3.4440    0.9220    0.8720 O   0  0  0  0  0  0  0  0  0  0  0  0
    4.3380    0.9420   -0.1710 O   0  0  0  0  0  0  0  0  0  0  0  0
    5.3310    0.1880    0.2280 O   0  0  0  0  0  0  0  0  0  0  0  0
   -1.5940   -0.8650    0.6730 C   0  0  0  0  0  0  0  0  0  0  0  0
   -3.0240   -0.8580    0.6670 O   0  0  0  0  0  0  0  0  0  0  0  0
  1  2  2  0
  2  3  1  0
  2 14  1  0
  3  4  1  0
  4  5  1  0
  5  6  1  6
  5 13  1  0
  6  7  1  0
  7  8  1  0
  8  9  1  0
  9 10  1  0
 10 11  1  0
 11 12  1  0
 13 14  1  0
M  END
