
     RDKit          3D

 29 33  0  0  0  0  0  0  0  0999 V2000
   -3.9520    3.8860    1.3190 O   0  0  0  0  0  0  0  0  0  0  0  0
   -3.5060    3.6930    0.1750 C   0  0  0  0  0  0  0  0  0  0  0  0
   -4.0730    4.3830   -0.8740 O   0  0  0  0  0  0  0  0  0  0  0  0
   -2.4150    2.7670   -0.0670 C   0  0  0  0  0  0  0  0  0  0  0  0
   -1.9080    2.0870    1.2010 C   0  0  0  0  0  0  0  0  0  0  0  0
   -0.8350    1.2150    0.7700 N   0  0  0  0  0  0  0  0  0  0  0  0
   -0.9520   -0.0670    0.3880 C   0  0  0  0  0  0  0  0  0  0  0  0
   -2.1930   -0.8270    0.3390 C   0  0  0  0  0  0  0  0  0  0  0  0
   -2.6910   -1.2990   -0.8710 C   0  0  0  0  0  0  0  0  0  0  0  0
   -3.8730   -2.0220   -0.8830 C   0  0  0  0  0  0  0  0  0  0  0  0
   -4.5820   -2.2960    0.2660 C   0  0  0  0  0  0  0  0  0  0  0  0
   -4.0960   -1.8340    1.4680 C   0  0  0  0  0  0  0  0  0  0  0  0
   -2.9340   -1.1240    1.4730 C   0  0  0  0  0  0  0  0  0  0  0  0
    0.2760   -0.5780    0.0420 C   0  0  0  0  0  0  0  0  0  0  0  0
    0.5140   -1.9380   -0.4190 C   0  0  0  0  0  0  0  0  0  0  0  0
    0.2690   -3.0480    0.3520 C   0  0  0  0  0  0  0  0  0  0  0  0
    0.5000   -4.3300   -0.0930 C   0  0  0  0  0  0  0  0  0  0  0  0
    0.9980   -4.4950   -1.3670 C   0  0  0  0  0  0  0  0  0  0  0  0
    1.2630   -3.4180   -2.1860 C   0  0  0  0  0  0  0  0  0  0  0  0
    1.0160   -2.1700   -1.6960 C   0  0  0  0  0  0  0  0  0  0  0  0
    1.2020    0.4310    0.2170 C   0  0  0  0  0  0  0  0  0  0  0  0
    2.5610    0.4790    0.0250 C   0  0  0  0  0  0  0  0  0  0  0  0
    3.2220    1.6550    0.2920 C   0  0  0  0  0  0  0  0  0  0  0  0
    4.6900    1.7090    0.0860 C   0  0  2  0  0  0  0  0  0  0  0  0
    5.3230    0.9520   -1.0160 C   0  0  0  0  0  0  0  0  0  0  0  0
    5.4770    0.5060    0.4370 C   0  0  0  0  0  0  0  0  0  0  0  0
    2.5030    2.7620    0.7460 C   0  0  0  0  0  0  0  0  0  0  0  0
    1.1410    2.7180    0.9390 C   0  0  0  0  0  0  0  0  0  0  0  0
    0.4880    1.5440    0.6720 C   0  0  0  0  0  0  0  0  0  0  0  0
  1  2  2  0
  2  3  1  0
  2  4  1  0
  4  5  1  0
  5  6  1  0
  6  7  1  0
  6 29  1  0
  7  8  1  0
  7 14  2  0
  8  9  2  0
  8 13  1  0
  9 10  1  0
 10 11  2  0
 11 12  1  0
 12 13  2  0
 14 15  1  0
 14 21  1  0
 15 16  2  0
 15 20  1  0
 16 17  1  0
 17 18  2  0
 18 19  1  0
 19 20  2  0
 21 22  2  0
 21 29  1  0
 22 23  1  0
 24 23  1  6
 23 27  2  0
 24 25  1  0
 24 26  1  0
 25 26  1  0
 27 28  1  0
 28 29  2  0
M  END
