
     RDKit          3D

 30 32  0  0  0  0  0  0  0  0999 V2000
    5.6860   -1.3960   -1.6940 C   0  0  0  0  0  0  0  0  0  0  0  0
    4.9970   -0.9130   -0.4600 C   0  0  2  0  0  0  0  0  0  0  0  0
    5.7680    0.2310    0.0950 C   0  0  0  0  0  0  0  0  0  0  0  0
    6.3000    0.2560    1.2860 C   0  0  0  0  0  0  0  0  0  0  0  0
    7.0570    1.3920    1.8180 C   0  0  0  0  0  0  0  0  0  0  0  0
    7.1590    2.4500    0.9190 O   0  0  0  0  0  0  0  0  0  0  0  0
    6.6130    2.4460   -0.3260 C   0  0  0  0  0  0  0  0  0  0  0  0
    5.9380    1.4000   -0.7590 C   0  0  0  0  0  0  0  0  0  0  0  0
    4.8990   -1.9760    0.4860 O   0  0  0  0  0  0  0  0  0  0  0  0
    3.7340   -1.8390    1.2150 C   0  0  0  0  0  0  0  0  0  0  0  0
    3.4910   -2.4070    2.2980 O   0  0  0  0  0  0  0  0  0  0  0  0
    2.8840   -0.9420    0.5040 N   0  0  0  0  0  0  0  0  0  0  0  0
    1.6030   -0.5450    0.9310 N   0  0  0  0  0  0  0  0  0  0  0  0
    0.4560   -0.6350    0.0630 C   0  0  0  0  0  0  0  0  0  0  0  0
    0.5790   -1.0740   -1.1030 O   0  0  0  0  0  0  0  0  0  0  0  0
   -0.8280   -0.2340    0.5020 N   0  0  0  0  0  0  0  0  0  0  0  0
   -1.9440   -0.3180   -0.3350 N   0  0  0  0  0  0  0  0  0  0  0  0
   -3.2430   -0.3360    0.2410 C   0  0  0  0  0  0  0  0  0  0  0  0
   -3.3330   -0.2760    1.4930 O   0  0  0  0  0  0  0  0  0  0  0  0
   -4.4080   -0.4240   -0.6610 C   0  0  0  0  0  0  0  0  0  0  0  0
   -5.7150   -0.4410    0.1110 C   0  0  2  0  0  0  0  0  0  0  0  0
   -5.6570   -1.5730    0.9370 O   0  0  0  0  0  0  0  0  0  0  0  0
   -6.8770   -0.5510   -0.7680 C   0  0  0  0  0  0  0  0  0  0  0  0
   -7.3990    0.8020   -1.1460 C   0  0  0  0  0  0  0  0  0  0  0  0
   -7.2350    1.6740    0.4210 S   0  0  2  0  0  0  0  0  0  0  0  0
   -8.4460    1.4520    1.2800 O   0  0  0  0  0  0  0  0  0  0  0  0
   -6.9200    3.1070    0.2070 O   0  0  0  0  0  0  0  0  0  0  0  0
   -5.8370    0.7430    1.0230 C   0  0  0  0  0  0  0  0  0  0  0  0
    3.5740   -0.5470   -0.6710 C   0  0  0  0  0  0  0  0  0  0  0  0
    3.0490    0.0090   -1.6870 O   0  0  0  0  0  0  0  0  0  0  0  0
  2  1  1  6
  2  3  1  0
  2  9  1  0
  2 29  1  0
  3  4  2  0
  3  8  1  0
  4  5  1  0
  5  6  1  0
  6  7  1  0
  7  8  2  0
  9 10  1  0
 10 11  2  0
 10 12  1  0
 12 13  1  0
 12 29  1  0
 13 14  1  0
 14 15  2  0
 14 16  1  0
 16 17  1  0
 17 18  1  0
 18 19  2  0
 18 20  1  0
 20 21  1  0
 21 22  1  1
 21 23  1  0
 21 28  1  0
 23 24  1  0
 25 24  1  6
 25 26  2  0
 25 27  2  0
 25 28  1  0
 29 30  2  0
M  END
