
     RDKit          3D

 30 33  0  0  0  0  0  0  0  0999 V2000
    7.7060   -0.7980   -0.5850 C   0  0  0  0  0  0  0  0  0  0  0  0
    6.4440   -0.3840    0.0710 C   0  0  0  0  0  0  0  0  0  0  0  0
    5.2260   -0.4620   -0.5610 C   0  0  0  0  0  0  0  0  0  0  0  0
    4.0440   -0.0700    0.0630 C   0  0  0  0  0  0  0  0  0  0  0  0
    4.0640    0.4100    1.3440 C   0  0  0  0  0  0  0  0  0  0  0  0
    5.3040    0.4970    2.0080 C   0  0  0  0  0  0  0  0  0  0  0  0
    6.4420    0.1050    1.3650 C   0  0  0  0  0  0  0  0  0  0  0  0
    7.9910    0.2080    2.1810 Cl  0  0  0  0  0  0  0  0  0  0  0  0
    2.7630    0.7310    1.7400 N   0  0  0  0  0  0  0  0  0  0  0  0
    1.8730    0.4360    0.6450 C   0  0  0  0  0  0  0  0  0  0  0  0
    0.6460    0.6080    0.6720 O   0  0  0  0  0  0  0  0  0  0  0  0
    2.6500   -0.0830   -0.4590 C   0  0  0  0  0  0  0  0  0  0  0  0
    2.3550   -0.4970   -1.6600 C   0  0  0  0  0  0  0  0  0  0  0  0
    0.8570   -0.6090   -2.4800 S   0  0  0  0  0  0  0  0  0  0  0  0
   -0.6210   -0.2260   -1.6470 C   0  0  0  0  0  0  0  0  0  0  0  0
   -1.3480   -1.1570   -0.9120 C   0  0  0  0  0  0  0  0  0  0  0  0
   -2.5340   -0.8560   -0.3080 C   0  0  0  0  0  0  0  0  0  0  0  0
   -3.1870   -1.7840    0.3840 C   0  0  0  0  0  0  0  0  0  0  0  0
   -4.4660   -1.5790    1.0730 C   0  0  1  0  0  0  0  0  0  0  0  0
   -5.0420   -2.9540    1.4350 C   0  0  0  0  0  0  0  0  0  0  0  0
   -4.3260   -0.8070    2.3490 C   0  0  0  0  0  0  0  0  0  0  0  0
   -3.0380    0.4220   -0.4280 C   0  0  0  0  0  0  0  0  0  0  0  0
   -2.3460    1.3500   -1.1420 N   0  0  0  0  0  0  0  0  0  0  0  0
   -1.1840    1.0590   -1.7350 C   0  0  0  0  0  0  0  0  0  0  0  0
   -0.5420    1.9210   -2.3970 O   0  0  0  0  0  0  0  0  0  0  0  0
   -3.0760    2.6260   -1.1280 C   0  0  1  0  0  0  0  0  0  0  0  0
   -3.4530    2.9980   -2.5370 C   0  0  0  0  0  0  0  0  0  0  0  0
   -4.2580    2.3020   -0.3210 C   0  0  0  0  0  0  0  0  0  0  0  0
   -5.1790    3.1150   -0.0420 O   0  0  0  0  0  0  0  0  0  0  0  0
   -4.1120    0.9380    0.0390 N   0  0  0  0  0  0  0  0  0  0  0  0
  1  2  1  0
  2  3  2  0
  2  7  1  0
  3  4  1  0
  4  5  2  0
  4 12  1  0
  5  6  1  0
  5  9  1  0
  6  7  2  0
  7  8  1  0
  9 10  1  0
 10 11  2  0
 10 12  1  0
 12 13  2  3
 13 14  1  0
 14 15  1  0
 15 16  2  0
 15 24  1  0
 16 17  1  0
 17 18  2  3
 17 22  1  0
 18 19  1  0
 19 20  1  1
 19 21  1  0
 22 23  1  0
 22 30  2  0
 23 24  1  0
 23 26  1  0
 24 25  2  0
 26 27  1  6
 26 28  1  0
 28 29  2  0
 28 30  1  0
M  END
