
     RDKit          3D

 29 31  0  0  0  0  0  0  0  0999 V2000
   -6.9020   -1.8360    0.3110 C   0  0  0  0  0  0  0  0  0  0  0  0
   -5.6270   -1.0820    0.3340 C   0  0  0  0  0  0  0  0  0  0  0  0
   -4.9040   -1.0880    1.4970 C   0  0  0  0  0  0  0  0  0  0  0  0
   -3.7410   -0.3900    1.5720 C   0  0  0  0  0  0  0  0  0  0  0  0
   -2.9650   -0.3650    2.7570 N   0  0  0  0  0  0  0  0  0  0  0  0
   -3.2720    0.3370    0.4550 C   0  0  0  0  0  0  0  0  0  0  0  0
   -2.0580    0.9780    0.7540 O   0  0  0  0  0  0  0  0  0  0  0  0
   -0.8940    0.0910    0.6240 C   0  0  0  0  0  0  0  0  0  0  0  0
    0.2790    0.6930    1.2610 C   0  0  1  0  0  0  0  0  0  0  0  0
    1.3950   -0.2330    1.2320 O   0  0  0  0  0  0  0  0  0  0  0  0
    0.7710    2.0340    0.8910 C   0  0  0  0  0  0  0  0  0  0  0  0
    1.3240    2.2850   -0.7810 S   0  0  0  0  0  0  0  0  0  0  0  0
    2.5120    1.1640   -1.4360 C   0  0  0  0  0  0  0  0  0  0  0  0
    3.7430    0.8910   -0.7490 C   0  0  0  0  0  0  0  0  0  0  0  0
    4.4210   -0.2930   -1.0540 C   0  0  0  0  0  0  0  0  0  0  0  0
    5.6470   -0.6130   -0.5620 C   0  0  0  0  0  0  0  0  0  0  0  0
    6.3060   -1.7660   -0.8680 C   0  0  0  0  0  0  0  0  0  0  0  0
    7.5610   -2.0920   -0.3590 C   0  0  0  0  0  0  0  0  0  0  0  0
    8.1710   -1.2000    0.5090 C   0  0  0  0  0  0  0  0  0  0  0  0
    7.5170   -0.0280    0.8250 C   0  0  0  0  0  0  0  0  0  0  0  0
    6.2610    0.2660    0.2880 C   0  0  0  0  0  0  0  0  0  0  0  0
    5.6270    1.4220    0.6070 N   0  0  0  0  0  0  0  0  0  0  0  0
    4.4040    1.7350    0.1100 C   0  0  0  0  0  0  0  0  0  0  0  0
    3.9020    2.8500    0.4860 O   0  0  0  0  0  0  0  0  0  0  0  0
   -3.9660    0.3470   -0.6910 C   0  0  0  0  0  0  0  0  0  0  0  0
   -3.4830    1.0290   -1.9510 C   0  0  0  0  0  0  0  0  0  0  0  0
   -5.1810   -0.3710   -0.7670 C   0  0  0  0  0  0  0  0  0  0  0  0
   -5.9960   -0.4560   -1.9840 C   0  0  0  0  0  0  0  0  0  0  0  0
   -6.6650    0.8170   -2.1800 O   0  0  0  0  0  0  0  0  0  0  0  0
  1  2  1  0
  2  3  2  0
  2 27  1  0
  3  4  1  0
  4  5  1  0
  4  6  2  0
  6  7  1  0
  6 25  1  0
  7  8  1  0
  8  9  1  0
  9 10  1  6
  9 11  1  0
 11 12  1  0
 12 13  1  0
 13 14  1  0
 14 15  2  0
 14 23  1  0
 15 16  1  0
 16 17  2  0
 16 21  1  0
 17 18  1  0
 18 19  2  0
 19 20  1  0
 20 21  2  0
 21 22  1  0
 22 23  1  0
 23 24  2  0
 25 26  1  0
 25 27  2  0
 27 28  1  0
 28 29  1  0
M  END
