
     RDKit          3D

 28 31  0  0  0  0  0  0  0  0999 V2000
    2.4550    0.7060   -2.4760 C   0  0  0  0  0  0  0  0  0  0  0  0
    2.4460   -0.4420   -1.5380 C   0  0  2  0  0  0  0  0  0  0  0  0
    1.1690   -0.9580   -1.1590 N   0  0  0  0  0  0  0  0  0  0  0  0
    0.0370   -0.2130   -0.6810 C   0  0  0  0  0  0  0  0  0  0  0  0
    0.0190    1.1430   -0.5550 C   0  0  0  0  0  0  0  0  0  0  0  0
   -1.1280    1.8080   -0.0730 C   0  0  0  0  0  0  0  0  0  0  0  0
   -2.2690    1.1390    0.2870 C   0  0  0  0  0  0  0  0  0  0  0  0
   -3.4630    1.8090    0.7780 C   0  0  0  0  0  0  0  0  0  0  0  0
   -4.4950    1.1810    1.4350 N   0  0  0  0  0  0  0  0  0  0  0  0
   -5.4600    2.0300    1.7430 C   0  0  0  0  0  0  0  0  0  0  0  0
   -5.0680    3.2220    1.2900 N   0  0  0  0  0  0  0  0  0  0  0  0
   -3.8560    3.0740    0.7070 N   0  0  0  0  0  0  0  0  0  0  0  0
   -3.1410    4.1840    0.0810 C   0  0  0  0  0  0  0  0  0  0  0  0
   -2.2160   -0.2400    0.1430 C   0  0  0  0  0  0  0  0  0  0  0  0
   -3.3390   -1.0500    0.4240 N   0  0  0  0  0  0  0  0  0  0  0  0
   -4.4710   -1.0880   -0.4720 C   0  0  0  0  0  0  0  0  0  0  0  0
   -4.5160   -2.6010   -0.8700 C   0  0  0  0  0  0  0  0  0  0  0  0
   -4.8660   -3.2480    0.2890 O   0  0  0  0  0  0  0  0  0  0  0  0
   -3.9720   -3.2290    1.3160 C   0  0  0  0  0  0  0  0  0  0  0  0
   -3.3360   -1.8800    1.5970 C   0  0  0  0  0  0  0  0  0  0  0  0
   -1.0840   -0.8600   -0.3270 N   0  0  0  0  0  0  0  0  0  0  0  0
    3.3960   -0.3660   -0.3740 C   0  0  2  0  0  0  0  0  0  0  0  0
    3.1960    0.7960    0.5220 C   0  0  0  0  0  0  0  0  0  0  0  0
    4.3150    0.9510    1.5210 C   0  0  0  0  0  0  0  0  0  0  0  0
    5.1620   -0.2870    1.6440 C   0  0  0  0  0  0  0  0  0  0  0  0
    5.6450   -0.7960    0.3160 C   0  0  0  0  0  0  0  0  0  0  0  0
    4.7810   -0.4240   -0.7890 N   0  0  0  0  0  0  0  0  0  0  0  0
    4.9990   -1.4700   -1.8070 C   0  0  0  0  0  0  0  0  0  0  0  0
  2  1  1  1
  2  3  1  0
  2 22  1  0
  3  4  1  0
  4  5  2  0
  4 21  1  0
  5  6  1  0
  6  7  2  0
  7  8  1  0
  7 14  1  0
  8  9  2  0
  8 12  1  0
  9 10  1  0
 10 11  2  0
 11 12  1  0
 12 13  1  0
 14 15  1  0
 14 21  2  0
 15 16  1  0
 15 20  1  0
 16 17  1  0
 17 18  1  0
 18 19  1  0
 19 20  1  0
 22 23  1  6
 22 27  1  0
 23 24  1  0
 24 25  1  0
 25 26  1  0
 26 27  1  0
 27 28  1  0
M  END
