
     RDKit          3D

 31 35  0  0  0  0  0  0  0  0999 V2000
   -1.4250   -3.9830    1.6770 C   0  0  0  0  0  0  0  0  0  0  0  0
   -0.9490   -2.8070    1.0250 O   0  0  0  0  0  0  0  0  0  0  0  0
   -0.6500   -2.9170   -0.3200 C   0  0  0  0  0  0  0  0  0  0  0  0
   -0.7830   -4.0750   -1.0490 C   0  0  0  0  0  0  0  0  0  0  0  0
   -0.4870   -4.1690   -2.3620 N   0  0  0  0  0  0  0  0  0  0  0  0
   -0.0340   -3.0830   -3.0220 C   0  0  0  0  0  0  0  0  0  0  0  0
    0.1090   -1.9230   -2.3280 C   0  0  0  0  0  0  0  0  0  0  0  0
   -0.1890   -1.7970   -0.9720 C   0  0  0  0  0  0  0  0  0  0  0  0
   -0.0110   -0.5280   -0.2990 C   0  0  0  0  0  0  0  0  0  0  0  0
   -0.9600    0.2780    0.2790 C   0  0  0  0  0  0  0  0  0  0  0  0
   -2.3840   -0.0470    0.2920 C   0  0  0  0  0  0  0  0  0  0  0  0
   -3.0640   -0.3790    1.4470 C   0  0  0  0  0  0  0  0  0  0  0  0
   -4.4080   -0.6810    1.4730 C   0  0  0  0  0  0  0  0  0  0  0  0
   -5.1440   -0.6640    0.3200 C   0  0  0  0  0  0  0  0  0  0  0  0
   -4.4830   -0.3330   -0.8580 C   0  0  0  0  0  0  0  0  0  0  0  0
   -3.1410   -0.0340   -0.8680 C   0  0  0  0  0  0  0  0  0  0  0  0
   -0.3590    1.3940    0.8070 N   0  0  0  0  0  0  0  0  0  0  0  0
   -1.1290    2.3840    1.5160 C   0  0  0  0  0  0  0  0  0  0  0  0
   -1.8360    3.3670    0.6460 C   0  0  0  0  0  0  0  0  0  0  0  0
   -1.0380    4.2190   -0.2360 C   0  0  0  0  0  0  0  0  0  0  0  0
    0.1990    4.2660   -0.3550 O   0  0  0  0  0  0  0  0  0  0  0  0
   -1.7270    5.1240   -1.0830 O   0  0  0  0  0  0  0  0  0  0  0  0
    0.9670    1.3090    0.5750 C   0  0  0  0  0  0  0  0  0  0  0  0
    2.0330    2.1030    0.8840 C   0  0  0  0  0  0  0  0  0  0  0  0
    3.3030    1.7260    0.5160 C   0  0  0  0  0  0  0  0  0  0  0  0
    3.5510    0.5590   -0.1630 C   0  0  0  0  0  0  0  0  0  0  0  0
    4.9470    0.1510   -0.5600 C   0  0  2  0  0  0  0  0  0  0  0  0
    5.9790    0.2610    0.5840 C   0  0  0  0  0  0  0  0  0  0  0  0
    6.0270    1.1330   -0.6320 C   0  0  0  0  0  0  0  0  0  0  0  0
    2.4720   -0.2310   -0.4670 C   0  0  0  0  0  0  0  0  0  0  0  0
    1.1900    0.1300   -0.1050 C   0  0  0  0  0  0  0  0  0  0  0  0
  1  2  1  0
  2  3  1  0
  3  4  2  0
  3  8  1  0
  4  5  1  0
  5  6  2  0
  6  7  1  0
  7  8  2  0
  8  9  1  0
  9 10  2  0
  9 31  1  0
 10 11  1  0
 10 17  1  0
 11 12  2  0
 11 16  1  0
 12 13  1  0
 13 14  2  0
 14 15  1  0
 15 16  2  0
 17 18  1  0
 17 23  1  0
 18 19  1  0
 19 20  1  0
 20 21  2  0
 20 22  1  0
 23 24  2  0
 23 31  1  0
 24 25  1  0
 25 26  2  0
 27 26  1  1
 26 30  1  0
 27 28  1  0
 27 29  1  0
 28 29  1  0
 30 31  2  0
M  END
