
     RDKit          3D

 29 31  0  0  0  0  0  0  0  0999 V2000
    7.3010    2.3300    0.3080 C   0  0  0  0  0  0  0  0  0  0  0  0
    6.8490    0.8840    0.4870 C   0  0  1  0  0  0  0  0  0  0  0  0
    7.4480    0.3740    1.8030 C   0  0  0  0  0  0  0  0  0  0  0  0
    5.4860    0.8710    0.6300 O   0  0  0  0  0  0  0  0  0  0  0  0
    4.6100    0.2060   -0.1960 C   0  0  0  0  0  0  0  0  0  0  0  0
    4.9840   -0.5430   -1.2870 C   0  0  0  0  0  0  0  0  0  0  0  0
    4.0360   -1.1790   -2.0640 C   0  0  0  0  0  0  0  0  0  0  0  0
    2.6830   -1.0460   -1.7210 C   0  0  0  0  0  0  0  0  0  0  0  0
    2.3250   -0.3000   -0.6350 C   0  0  0  0  0  0  0  0  0  0  0  0
    0.9570   -0.1780   -0.2710 N   0  0  0  0  0  0  0  0  0  0  0  0
   -0.1250   -0.9760   -0.6910 C   0  0  0  0  0  0  0  0  0  0  0  0
    0.1130   -1.9410   -1.4890 O   0  0  0  0  0  0  0  0  0  0  0  0
   -1.5220   -0.7480   -0.2500 C   0  0  0  0  0  0  0  0  0  0  0  0
   -1.8910    0.4000    0.3440 C   0  0  0  0  0  0  0  0  0  0  0  0
   -3.2120    0.6100    0.7660 C   0  0  0  0  0  0  0  0  0  0  0  0
   -4.0790   -0.4170    0.5330 C   0  0  0  0  0  0  0  0  0  0  0  0
   -3.7410   -1.6000   -0.0680 C   0  0  0  0  0  0  0  0  0  0  0  0
   -4.7540   -2.6860   -0.2900 C   0  0  2  0  0  0  0  0  0  0  0  0
   -5.2210   -3.1060    0.9420 O   0  0  0  0  0  0  0  0  0  0  0  0
   -4.0850   -3.8760   -0.9660 C   0  0  0  0  0  0  0  0  0  0  0  0
   -4.9880   -4.9180   -1.1400 O   0  0  0  0  0  0  0  0  0  0  0  0
   -2.4340   -1.7700   -0.4690 C   0  0  0  0  0  0  0  0  0  0  0  0
   -5.6730    0.1250    1.1470 S   0  0  0  0  0  0  0  0  0  0  0  0
   -5.2120    1.8840    1.2160 C   0  0  0  0  0  0  0  0  0  0  0  0
   -5.9860    2.9180    1.1040 C   0  0  0  0  0  0  0  0  0  0  0  0
   -5.4320    4.2530    1.1860 C   0  0  0  0  0  0  0  0  0  0  0  0
   -6.2120    5.2680    1.0740 N   0  0  0  0  0  0  0  0  0  0  0  0
   -3.7500    1.7840    1.4280 C   0  0  0  0  0  0  0  0  0  0  0  0
    3.2690    0.3380    0.1460 C   0  0  0  0  0  0  0  0  0  0  0  0
  2  1  1  1
  2  3  1  0
  2  4  1  0
  4  5  1  0
  5  6  2  0
  5 29  1  0
  6  7  1  0
  7  8  2  0
  8  9  1  0
  9 10  1  0
  9 29  2  0
 10 11  1  0
 11 12  2  0
 11 13  1  0
 13 14  2  0
 13 22  1  0
 14 15  1  0
 15 16  2  0
 15 28  1  0
 16 17  1  0
 16 23  1  0
 17 18  1  0
 17 22  2  0
 18 19  1  1
 18 20  1  0
 20 21  1  0
 23 24  1  0
 24 25  2  3
 24 28  1  0
 25 26  1  0
 26 27  2  0
M  END
