
     RDKit          3D

 28 31  0  0  0  0  0  0  0  0999 V2000
    7.3030   -1.4520    0.4520 C   0  0  0  0  0  0  0  0  0  0  0  0
    7.7250   -0.0930    0.8870 C   0  0  0  0  0  0  0  0  0  0  0  0
    7.1380    1.0440    0.1000 C   0  0  1  0  0  0  0  0  0  0  0  0
    7.4870    1.0060   -1.3700 C   0  0  0  0  0  0  0  0  0  0  0  0
    5.6750    1.1910    0.2990 C   0  0  0  0  0  0  0  0  0  0  0  0
    4.6770    0.3540   -0.1450 C   0  0  0  0  0  0  0  0  0  0  0  0
    3.4750    0.8200    0.2360 N   0  0  0  0  0  0  0  0  0  0  0  0
    2.1830    0.2270   -0.0340 C   0  0  0  0  0  0  0  0  0  0  0  0
    2.0130   -0.8800   -0.7170 C   0  0  0  0  0  0  0  0  0  0  0  0
    0.5450   -1.1540   -0.7730 C   0  0  0  0  0  0  0  0  0  0  0  0
   -0.0470   -0.0450   -0.0190 C   0  0  0  0  0  0  0  0  0  0  0  0
   -1.4630    0.1760    0.2430 C   0  0  0  0  0  0  0  0  0  0  0  0
   -2.5310   -0.5070   -0.0890 C   0  0  0  0  0  0  0  0  0  0  0  0
   -2.5620   -1.7450   -0.8570 C   0  0  0  0  0  0  0  0  0  0  0  0
   -3.6820   -2.3420   -1.1240 N   0  0  0  0  0  0  0  0  0  0  0  0
   -3.7990   -3.5570   -1.8690 C   0  0  0  0  0  0  0  0  0  0  0  0
   -3.7040    0.1440    0.4260 N   0  0  0  0  0  0  0  0  0  0  0  0
   -5.0130    0.1890   -0.0560 C   0  0  0  0  0  0  0  0  0  0  0  0
   -5.3440   -0.3770   -1.1190 O   0  0  0  0  0  0  0  0  0  0  0  0
   -6.0580    0.8820    0.6300 N   0  0  0  0  0  0  0  0  0  0  0  0
   -7.4220    0.9220    0.1170 C   0  0  1  0  0  0  0  0  0  0  0  0
   -8.4980    0.9740    1.1460 C   0  0  0  0  0  0  0  0  0  0  0  0
   -8.1630    2.2510    0.4080 C   0  0  0  0  0  0  0  0  0  0  0  0
   -3.2190    0.8320    1.6440 C   0  0  0  0  0  0  0  0  0  0  0  0
   -1.9160    1.3680    1.0300 C   0  0  0  0  0  0  0  0  0  0  0  0
    0.9390    0.7000    0.3700 N   0  0  0  0  0  0  0  0  0  0  0  0
    3.6980    1.9300    0.9080 N   0  0  0  0  0  0  0  0  0  0  0  0
    5.0160    2.1810    0.9630 N   0  0  0  0  0  0  0  0  0  0  0  0
  1  2  1  0
  2  3  1  0
  3  4  1  6
  3  5  1  0
  5  6  2  0
  5 28  1  0
  6  7  1  0
  7  8  1  0
  7 27  1  0
  8  9  2  0
  8 26  1  0
  9 10  1  0
 10 11  1  0
 11 12  1  0
 11 26  2  0
 12 13  2  0
 12 25  1  0
 13 14  1  0
 13 17  1  0
 14 15  2  3
 15 16  1  0
 17 18  1  0
 17 24  1  0
 18 19  2  0
 18 20  1  0
 21 20  1  1
 21 22  1  0
 21 23  1  0
 22 23  1  0
 24 25  1  0
 27 28  2  0
M  END
