
     RDKit          3D

 34 38  0  0  0  0  0  0  0  0999 V2000
    5.6090   -4.1460    3.4500 C   0  0  0  0  0  0  0  0  0  0  0  0
    4.6010   -3.9460    2.3520 C   0  0  0  0  0  0  0  0  0  0  0  0
    4.1390   -2.6050    2.2370 N   0  0  0  0  0  0  0  0  0  0  0  0
    3.1890   -2.2560    1.2480 C   0  0  0  0  0  0  0  0  0  0  0  0
    2.7240   -3.2410    0.4120 C   0  0  0  0  0  0  0  0  0  0  0  0
    1.8000   -2.8700   -0.5400 C   0  0  0  0  0  0  0  0  0  0  0  0
    1.3160   -1.5900   -0.7090 C   0  0  0  0  0  0  0  0  0  0  0  0
    1.7890   -0.5710    0.1420 C   0  0  0  0  0  0  0  0  0  0  0  0
    2.7140   -0.9580    1.0920 C   0  0  0  0  0  0  0  0  0  0  0  0
    1.3820    0.7390    0.0360 N   0  0  0  0  0  0  0  0  0  0  0  0
    1.2090    1.8080   -0.4820 C   0  0  0  0  0  0  0  0  0  0  0  0
    1.4880    2.4320   -1.8060 C   0  0  0  0  0  0  0  0  0  0  0  0
    2.1830    3.7560   -1.6740 C   0  0  0  0  0  0  0  0  0  0  0  0
    1.4810    4.6410   -0.8170 N   0  0  0  0  0  0  0  0  0  0  0  0
    1.4730    5.9940   -0.8200 C   0  0  0  0  0  0  0  0  0  0  0  0
    0.6530    6.3940    0.2100 C   0  0  0  0  0  0  0  0  0  0  0  0
    0.1840    5.2880    0.8100 N   0  0  0  0  0  0  0  0  0  0  0  0
    0.7060    4.1940    0.1620 C   0  0  0  0  0  0  0  0  0  0  0  0
    0.5280    2.7920    0.3850 N   0  0  0  0  0  0  0  0  0  0  0  0
   -0.3260    2.3990    1.4710 C   0  0  0  0  0  0  0  0  0  0  0  0
   -1.1950    1.2200    1.2580 C   0  0  0  0  0  0  0  0  0  0  0  0
   -2.1680    1.5350    0.1700 C   0  0  0  0  0  0  0  0  0  0  0  0
   -2.0950    2.6820   -0.3480 O   0  0  0  0  0  0  0  0  0  0  0  0
   -3.1430    0.6310   -0.2960 N   0  0  0  0  0  0  0  0  0  0  0  0
   -4.4700    1.1780   -0.5720 C   0  0  0  0  0  0  0  0  0  0  0  0
   -5.3760    0.4870    0.4080 C   0  0  0  0  0  0  0  0  0  0  0  0
   -5.2240   -0.8820    0.5260 N   0  0  0  0  0  0  0  0  0  0  0  0
   -4.1740   -1.6280    0.0010 C   0  0  0  0  0  0  0  0  0  0  0  0
   -3.0170   -0.7670   -0.5060 C   0  0  0  0  0  0  0  0  0  0  0  0
   -2.0480   -1.4110   -1.1130 C   0  0  0  0  0  0  0  0  0  0  0  0
   -2.0470   -2.8930   -1.2540 C   0  0  0  0  0  0  0  0  0  0  0  0
   -2.0420   -3.2820   -2.7280 C   0  0  0  0  0  0  0  0  0  0  0  0
   -0.8950   -0.7190   -1.7500 C   0  0  0  0  0  0  0  0  0  0  0  0
    0.3490   -1.3780   -1.7340 N   0  0  0  0  0  0  0  0  0  0  0  0
  1  2  1  0
  2  3  1  0
  3  4  1  0
  4  5  2  0
  4  9  1  0
  5  6  1  0
  6  7  2  0
  7  8  1  0
  7 34  1  0
  8  9  2  0
  8 10  1  0
 10 11  2  0
 11 12  1  0
 11 19  1  0
 12 13  1  0
 13 14  1  0
 14 15  1  0
 14 18  1  0
 15 16  2  0
 16 17  1  0
 17 18  2  0
 18 19  1  0
 19 20  1  0
 20 21  1  0
 21 22  1  0
 22 23  2  0
 22 24  1  0
 24 25  1  0
 24 29  1  0
 25 26  1  0
 26 27  1  0
 27 28  1  0
 28 29  1  0
 29 30  2  0
 30 31  1  0
 30 33  1  0
 31 32  1  0
 33 34  1  0
M  CHG  1  17   1
M  END
