
     RDKit          3D

 35 39  0  0  0  0  0  0  0  0999 V2000
   -4.7020    4.7740   -0.2900 C   0  0  0  0  0  0  0  0  0  0  0  0
   -4.8920    3.9580   -1.5540 C   0  0  1  0  0  0  0  0  0  0  0  0
   -3.8800    4.3070   -2.6090 C   0  0  0  0  0  0  0  0  0  0  0  0
   -4.9000    2.2070   -1.1150 S   0  0  0  0  0  0  0  0  0  0  0  0
   -3.2920    1.7530   -0.4930 C   0  0  0  0  0  0  0  0  0  0  0  0
   -2.2720    2.6600   -0.3770 C   0  0  0  0  0  0  0  0  0  0  0  0
   -1.0340    2.2880    0.1030 C   0  0  0  0  0  0  0  0  0  0  0  0
    0.1250    2.9220    0.3240 N   0  0  0  0  0  0  0  0  0  0  0  0
    1.0750    2.0940    0.8160 C   0  0  0  0  0  0  0  0  0  0  0  0
    0.4990    0.8570    0.9200 C   0  0  0  0  0  0  0  0  0  0  0  0
   -0.8280    0.9810    0.4710 C   0  0  0  0  0  0  0  0  0  0  0  0
   -1.8770    0.0630    0.3480 C   0  0  0  0  0  0  0  0  0  0  0  0
   -3.1080    0.4130   -0.1260 C   0  0  0  0  0  0  0  0  0  0  0  0
   -4.1640   -0.5020   -0.2600 N   0  0  0  0  0  0  0  0  0  0  0  0
   -4.1890   -1.8610    0.0590 C   0  0  0  0  0  0  0  0  0  0  0  0
   -3.1880   -2.4150    0.5360 O   0  0  0  0  0  0  0  0  0  0  0  0
   -5.3550   -2.6700   -0.1480 N   0  0  0  0  0  0  0  0  0  0  0  0
   -5.3580   -4.0850    0.1910 C   0  0  2  0  0  0  0  0  0  0  0  0
   -5.8360   -4.9400   -0.9950 C   0  0  0  0  0  0  0  0  0  0  0  0
   -7.2460   -4.6620   -0.5180 C   0  0  0  0  0  0  0  0  0  0  0  0
   -6.6540   -4.4560    0.8790 C   0  0  0  0  0  0  0  0  0  0  0  0
    1.2200   -0.3340    1.4220 C   0  0  0  0  0  0  0  0  0  0  0  0
    2.5820    0.0230    1.8220 N   0  0  0  0  0  0  0  0  0  0  0  0
    3.6220   -0.8830    1.6640 C   0  0  0  0  0  0  0  0  0  0  0  0
    3.3410   -2.0310    1.1540 O   0  0  0  0  0  0  0  0  0  0  0  0
    5.0100   -0.5840    2.0530 C   0  0  0  0  0  0  0  0  0  0  0  0
    5.7020   -0.0340    0.8000 C   0  0  2  0  0  0  0  0  0  0  0  0
    5.6620   -1.0650   -0.2900 C   0  0  0  0  0  0  0  0  0  0  0  0
    6.9070   -0.7240   -1.0790 C   0  0  0  0  0  0  0  0  0  0  0  0
    7.7680   -0.0710   -0.0520 C   0  0  2  0  0  0  0  0  0  0  0  0
    8.8160   -1.0810    0.4260 C   0  0  0  0  0  0  0  0  0  0  0  0
    9.6190   -1.4880   -0.6380 O   0  0  0  0  0  0  0  0  0  0  0  0
    7.0170    0.2860    1.0300 O   0  0  0  0  0  0  0  0  0  0  0  0
    2.7730    1.3380    2.3700 C   0  0  0  0  0  0  0  0  0  0  0  0
    2.4970    2.3060    1.2130 C   0  0  0  0  0  0  0  0  0  0  0  0
  2  1  1  1
  2  3  1  0
  2  4  1  0
  4  5  1  0
  5  6  2  0
  5 13  1  0
  6  7  1  0
  7  8  1  0
  7 11  2  0
  8  9  1  0
  9 10  2  0
  9 35  1  0
 10 11  1  0
 10 22  1  0
 11 12  1  0
 12 13  2  0
 13 14  1  0
 14 15  1  0
 15 16  2  0
 15 17  1  0
 18 17  1  6
 18 19  1  0
 18 21  1  0
 19 20  1  0
 20 21  1  0
 22 23  1  0
 23 24  1  0
 23 34  1  0
 24 25  2  0
 24 26  1  0
 27 26  1  1
 27 28  1  0
 27 33  1  0
 28 29  1  0
 29 30  1  0
 30 31  1  1
 30 33  1  0
 31 32  1  0
 34 35  1  0
M  END
