
     RDKit          3D

 35 40  0  0  0  0  0  0  0  0999 V2000
   -3.4800   -3.1650   -3.0590 C   0  0  0  0  0  0  0  0  0  0  0  0
   -3.5070   -2.2680   -1.8640 C   0  0  0  0  0  0  0  0  0  0  0  0
   -2.4010   -2.2650   -1.0900 C   0  0  0  0  0  0  0  0  0  0  0  0
   -1.2600   -3.1040   -1.4380 C   0  0  0  0  0  0  0  0  0  0  0  0
   -1.4300   -4.1270   -2.1390 O   0  0  0  0  0  0  0  0  0  0  0  0
    0.0350   -2.7190   -0.9570 N   0  0  0  0  0  0  0  0  0  0  0  0
    0.0860   -1.5400   -0.1440 C   0  0  0  0  0  0  0  0  0  0  0  0
    1.2040   -0.8390    0.2350 N   0  0  0  0  0  0  0  0  0  0  0  0
    0.8240    0.3050    0.8050 C   0  0  0  0  0  0  0  0  0  0  0  0
    1.8580    1.6090    1.4810 S   0  0  0  0  0  0  0  0  0  0  0  0
    3.6020    1.1820    1.3180 C   0  0  1  0  0  0  0  0  0  0  0  0
    4.0080   -0.0000    2.1490 C   0  0  0  0  0  0  0  0  0  0  0  0
    5.4550   -0.2880    1.9360 C   0  0  0  0  0  0  0  0  0  0  0  0
    5.8060   -0.6370    0.5100 C   0  0  2  0  0  0  0  0  0  0  0  0
    6.9720    0.1340    0.0110 C   0  0  0  0  0  0  0  0  0  0  0  0
    7.0700    1.5240   -0.0410 C   0  0  0  0  0  0  0  0  0  0  0  0
    8.3050    1.8110   -0.5670 C   0  0  0  0  0  0  0  0  0  0  0  0
    8.9080    0.5840   -0.8130 C   0  0  0  0  0  0  0  0  0  0  0  0
    8.0780   -0.3390   -0.4550 O   0  0  0  0  0  0  0  0  0  0  0  0
    4.6260   -0.3720   -0.4220 C   0  0  0  0  0  0  0  0  0  0  0  0
    3.9980    0.9280   -0.0800 C   0  0  0  0  0  0  0  0  0  0  0  0
    3.8190    1.7510   -0.9370 O   0  0  0  0  0  0  0  0  0  0  0  0
   -0.5220    0.3320    0.7920 N   0  0  0  0  0  0  0  0  0  0  0  0
   -1.0000   -0.7900    0.2210 C   0  0  0  0  0  0  0  0  0  0  0  0
   -2.3390   -1.4050    0.0760 C   0  0  1  0  0  0  0  0  0  0  0  0
   -3.4850   -0.5440    0.3330 C   0  0  0  0  0  0  0  0  0  0  0  0
   -4.5470   -0.5750   -0.4510 C   0  0  0  0  0  0  0  0  0  0  0  0
   -5.6870    0.3070   -0.1600 C   0  0  0  0  0  0  0  0  0  0  0  0
   -5.3760    1.6420    0.3950 C   0  0  1  0  0  0  0  0  0  0  0  0
   -5.1910    2.6710   -0.7140 C   0  0  0  0  0  0  0  0  0  0  0  0
   -6.6330    2.0960    1.1630 C   0  0  0  0  0  0  0  0  0  0  0  0
   -4.1630    1.7090    1.2970 C   0  0  0  0  0  0  0  0  0  0  0  0
   -3.5470    0.3770    1.4730 C   0  0  0  0  0  0  0  0  0  0  0  0
   -3.0890    0.0510    2.5800 O   0  0  0  0  0  0  0  0  0  0  0  0
   -4.6210   -1.4380   -1.5920 N   0  0  0  0  0  0  0  0  0  0  0  0
  1  2  1  0
  2  3  2  0
  2 35  1  0
  3  4  1  0
  3 25  1  0
  4  5  2  0
  4  6  1  0
  6  7  1  0
  7  8  1  0
  7 24  2  0
  8  9  2  0
  9 10  1  0
  9 23  1  0
 11 10  1  6
 11 12  1  0
 11 21  1  0
 12 13  1  0
 13 14  1  0
 14 15  1  6
 14 20  1  0
 15 16  2  0
 15 19  1  0
 16 17  1  0
 17 18  2  0
 18 19  1  0
 20 21  1  0
 21 22  2  0
 23 24  1  0
 25 24  1  6
 25 26  1  0
 26 27  2  0
 26 33  1  0
 27 28  1  0
 27 35  1  0
 28 29  1  0
 29 30  1  6
 29 31  1  0
 29 32  1  0
 32 33  1  0
 33 34  2  0
M  END
