
     RDKit          3D

  7  7  0  0  0  0  0  0  0  0999 V2000
   -0.6540    1.3020    0.4080 C   0  0  0  0  0  0  0  0  0  0  0  0
   -0.2700   -0.0270   -0.1820 C   0  0  2  0  0  0  0  0  0  0  0  0
   -1.4810   -0.7280   -0.6030 N   0  0  0  0  0  0  0  0  0  0  0  0
    0.4910   -0.9040    0.7730 C   0  0  0  0  0  0  0  0  0  0  0  0
    1.7980   -0.9170    0.2970 O   0  0  0  0  0  0  0  0  0  0  0  0
    1.8460    0.1900   -0.5430 C   0  0  0  0  0  0  0  0  0  0  0  0
    0.6250    0.1500   -1.2200 O   0  0  0  0  0  0  0  0  0  0  0  0
  2  1  1  1
  2  3  1  0
  2  4  1  0
  2  7  1  0
  4  5  1  0
  5  6  1  0
  6  7  1  0
M  CHG  1   3   1
M  END
