
     RDKit          3D

  7  7  0  0  0  0  0  0  0  0999 V2000
   -0.0480    1.5070    0.0760 N   0  0  0  0  0  0  0  0  0  0  0  0
   -0.0650    0.0910   -0.1210 C   0  0  1  0  0  0  0  0  0  0  0  0
    1.2510   -0.4360   -0.6050 C   0  0  0  0  0  0  0  0  0  0  0  0
    2.2070   -0.1120    0.3810 O   0  0  0  0  0  0  0  0  0  0  0  0
   -0.6950   -0.6880    1.0100 C   0  0  0  0  0  0  0  0  0  0  0  0
   -1.1450   -1.6030    0.0300 O   0  0  0  0  0  0  0  0  0  0  0  0
   -1.2900   -0.4720   -0.8070 C   0  0  0  0  0  0  0  0  0  0  0  0
  2  1  1  1
  2  3  1  0
  2  5  1  0
  2  7  1  0
  3  4  1  0
  5  6  1  0
  6  7  1  0
M  CHG  1   1   1
M  END
