
     RDKit          3D

  7  6  0  0  0  0  0  0  0  0999 V2000
   -1.8860   -0.7180   -0.9570 C   0  0  0  0  0  0  0  0  0  0  0  0
   -0.7840   -0.1240   -0.1460 C   0  0  0  0  0  0  0  0  0  0  0  0
   -1.0690    0.5910    0.9250 C   0  0  0  0  0  0  0  0  0  0  0  0
   -2.3810    0.7770    1.2790 O   0  0  0  0  0  0  0  0  0  0  0  0
    0.6290   -0.3210   -0.5220 C   0  0  0  0  0  0  0  0  0  0  0  0
    1.4390    0.3210    0.3750 O   0  0  0  0  0  0  0  0  0  0  0  0
    2.7430    0.2130    0.1370 N   0  0  0  0  0  0  0  0  0  0  0  0
  1  2  1  0
  2  3  2  3
  2  5  1  0
  3  4  1  0
  5  6  1  0
  6  7  1  0
M  CHG  1   7   1
M  END
