
     RDKit          3D

  7  6  0  0  0  0  0  0  0  0999 V2000
   -1.3060   -1.5790    0.2640 C   0  0  0  0  0  0  0  0  0  0  0  0
   -0.7290   -0.3960    0.2500 C   0  0  0  0  0  0  0  0  0  0  0  0
   -1.5730    0.8120    0.1360 C   0  0  0  0  0  0  0  0  0  0  0  0
   -2.9110    0.4470    0.0600 O   0  0  0  0  0  0  0  0  0  0  0  0
    0.7500   -0.3060    0.3490 C   0  0  0  0  0  0  0  0  0  0  0  0
    1.3050    0.3190   -0.7660 O   0  0  0  0  0  0  0  0  0  0  0  0
    2.6310    0.4110   -0.6990 N   0  0  0  0  0  0  0  0  0  0  0  0
  1  2  2  0
  2  3  1  0
  2  5  1  0
  3  4  1  0
  5  6  1  0
  6  7  1  0
M  CHG  1   7   1
M  END
