
     RDKit          3D

  7  6  0  0  0  0  0  0  0  0999 V2000
    2.5300    0.1500    0.3590 C   0  0  0  0  0  0  0  0  0  0  0  0
    1.1760    0.4710    0.3330 O   0  0  0  0  0  0  0  0  0  0  0  0
    0.3870   -0.5850   -0.1030 C   0  0  0  0  0  0  0  0  0  0  0  0
   -1.0250   -0.1300   -0.0900 C   0  0  0  0  0  0  0  0  0  0  0  0
   -2.0010   -1.0870   -0.5100 N   0  0  0  0  0  0  0  0  0  0  0  0
   -1.3490    1.0850    0.2880 C   0  0  0  0  0  0  0  0  0  0  0  0
   -0.3950    2.0060    0.6940 O   0  0  0  0  0  0  0  0  0  0  0  0
  1  2  1  0
  2  3  1  0
  3  4  1  0
  4  5  1  0
  4  6  2  3
  6  7  1  0
M  CHG  1   5   1
M  END
