
     RDKit          3D

  7  6  0  0  0  0  0  0  0  0999 V2000
    2.0550   -0.7550    0.0360 N   0  0  0  0  0  0  0  0  0  0  0  0
    1.7300    0.6220    0.1500 C   0  0  0  0  0  0  0  0  0  0  0  0
    0.3080    0.8950   -0.0610 C   0  0  0  0  0  0  0  0  0  0  0  0
   -0.5990    0.0170   -0.3240 C   0  0  0  0  0  0  0  0  0  0  0  0
   -0.3500   -1.3180   -0.4450 O   0  0  0  0  0  0  0  0  0  0  0  0
   -2.0190    0.4670   -0.5130 C   0  0  0  0  0  0  0  0  0  0  0  0
   -2.7560   -0.2060    0.4810 O   0  0  0  0  0  0  0  0  0  0  0  0
  1  2  1  0
  2  3  1  0
  3  4  2  3
  4  5  1  0
  4  6  1  0
  6  7  1  0
M  CHG  1   1   1
M  END
