
     RDKit          3D

  7  6  0  0  0  0  0  0  0  0999 V2000
    2.9050   -0.3700   -0.5530 C   0  0  0  0  0  0  0  0  0  0  0  0
    1.4840   -0.7370   -0.4530 C   0  0  0  0  0  0  0  0  0  0  0  0
    0.5720    0.1310   -0.0970 C   0  0  0  0  0  0  0  0  0  0  0  0
    0.9820    1.4240    0.1880 O   0  0  0  0  0  0  0  0  0  0  0  0
   -0.8650   -0.2120    0.0120 C   0  0  0  0  0  0  0  0  0  0  0  0
   -1.6490    0.5570   -0.8410 O   0  0  0  0  0  0  0  0  0  0  0  0
   -2.9420    0.2830   -0.7750 N   0  0  0  0  0  0  0  0  0  0  0  0
  1  2  1  0
  2  3  2  3
  3  4  1  0
  3  5  1  0
  5  6  1  0
  6  7  1  0
M  CHG  1   7   1
M  END
