
     RDKit          3D

 24 26  0  0  0  0  0  0  0  0999 V2000
    6.7300    1.2640    0.2600 C   0  0  0  0  0  0  0  0  0  0  0  0
    5.6310    0.3730   -0.2100 C   0  0  0  0  0  0  0  0  0  0  0  0
    5.8740   -0.6210   -1.1210 C   0  0  0  0  0  0  0  0  0  0  0  0
    4.8280   -1.4180   -1.5250 C   0  0  0  0  0  0  0  0  0  0  0  0
    3.5490   -1.2360   -1.0340 C   0  0  0  0  0  0  0  0  0  0  0  0
    3.2660   -0.2270   -0.1010 C   0  0  0  0  0  0  0  0  0  0  0  0
    1.9250   -0.1120    0.3370 N   0  0  0  0  0  0  0  0  0  0  0  0
    1.4070    0.6960    1.3540 C   0  0  0  0  0  0  0  0  0  0  0  0
    2.2780    1.4300    1.9750 O   0  0  0  0  0  0  0  0  0  0  0  0
    0.0330    0.8380    1.8250 C   0  0  0  0  0  0  0  0  0  0  0  0
   -1.0040    0.0790    1.2130 N   0  0  2  0  0  0  0  0  0  0  0  0
   -1.0000   -1.2840    1.7290 C   0  0  0  0  0  0  0  0  0  0  0  0
   -2.3500   -1.9040    1.5570 C   0  0  0  0  0  0  0  0  0  0  0  0
   -2.4200   -3.0700    1.9780 O   0  0  0  0  0  0  0  0  0  0  0  0
   -3.5430   -1.3540    0.9890 N   0  0  0  0  0  0  0  0  0  0  0  0
   -3.5870   -0.2720    0.0670 C   0  0  0  0  0  0  0  0  0  0  0  0
   -4.8810    0.0710   -0.2820 C   0  0  0  0  0  0  0  0  0  0  0  0
   -6.0160   -0.6790    0.3060 C   0  0  0  0  0  0  0  0  0  0  0  0
   -5.1150    1.1000   -1.1680 C   0  0  0  0  0  0  0  0  0  0  0  0
   -4.0590    1.8180   -1.7320 C   0  0  0  0  0  0  0  0  0  0  0  0
   -2.7550    1.4930   -1.3980 C   0  0  0  0  0  0  0  0  0  0  0  0
   -2.5650    0.4660   -0.5160 C   0  0  0  0  0  0  0  0  0  0  0  0
   -1.1090    0.1750   -0.2040 C   0  0  0  0  0  0  0  0  0  0  0  0
    4.3250    0.5420    0.2750 C   0  0  0  0  0  0  0  0  0  0  0  0
  1  2  1  0
  2  3  2  0
  2 24  1  0
  3  4  1  0
  4  5  2  0
  5  6  1  0
  6  7  1  0
  6 24  2  0
  7  8  1  0
  8  9  2  0
  8 10  1  0
 11 10  1  6
 11 12  1  0
 11 23  1  0
 12 13  1  0
 13 14  2  0
 13 15  1  0
 15 16  1  0
 16 17  2  0
 16 22  1  0
 17 18  1  0
 17 19  1  0
 19 20  2  0
 20 21  1  0
 21 22  2  0
 22 23  1  0
M  CHG  1  11   1
M  END
