
     RDKit          3D

 24 26  0  0  0  0  0  0  0  0999 V2000
    5.9710    2.0460   -0.6390 C   0  0  0  0  0  0  0  0  0  0  0  0
    5.5940    1.4280    0.6750 C   0  0  0  0  0  0  0  0  0  0  0  0
    4.1110    1.1800    0.7570 C   0  0  0  0  0  0  0  0  0  0  0  0
    3.2870    2.0050    1.5040 C   0  0  0  0  0  0  0  0  0  0  0  0
    1.9280    1.7690    1.5700 C   0  0  0  0  0  0  0  0  0  0  0  0
    1.3800    0.6970    0.8840 C   0  0  0  0  0  0  0  0  0  0  0  0
    0.0200    0.4580    0.9460 C   0  0  0  0  0  0  0  0  0  0  0  0
   -0.7540    1.1670    1.6030 O   0  0  0  0  0  0  0  0  0  0  0  0
   -0.5090   -0.6050    0.2590 C   0  0  0  0  0  0  0  0  0  0  0  0
    0.3010   -1.4560   -0.5030 C   0  0  0  0  0  0  0  0  0  0  0  0
    1.6030   -1.1970   -0.5400 N   0  0  0  0  0  0  0  0  0  0  0  0
    2.1660   -0.1460    0.1300 C   0  0  0  0  0  0  0  0  0  0  0  0
    3.5110    0.1300    0.0960 C   0  0  0  0  0  0  0  0  0  0  0  0
    4.3660   -0.7740   -0.7140 C   0  0  0  0  0  0  0  0  0  0  0  0
   -0.2940   -2.6030   -1.2280 C   0  0  0  0  0  0  0  0  0  0  0  0
   -1.5510   -3.1370   -0.6650 C   0  0  0  0  0  0  0  0  0  0  0  0
   -2.3020   -2.2720    0.2950 C   0  0  0  0  0  0  0  0  0  0  0  0
   -1.8940   -0.8920    0.2760 N   0  0  0  0  0  0  0  0  0  0  0  0
   -2.8320    0.1570    0.2450 C   0  0  0  0  0  0  0  0  0  0  0  0
   -2.5340    1.3640    0.0960 O   0  0  0  0  0  0  0  0  0  0  0  0
   -4.3080   -0.1080    0.3920 C   0  0  2  0  0  0  0  0  0  0  0  0
   -4.8480   -0.7490   -0.8460 C   0  0  0  0  0  0  0  0  0  0  0  0
   -4.9970    1.1940    0.6760 C   0  0  0  0  0  0  0  0  0  0  0  0
   -4.8470    2.1930   -0.3360 N   0  0  0  0  0  0  0  0  0  0  0  0
  1  2  1  0
  2  3  1  0
  3  4  2  0
  3 13  1  0
  4  5  1  0
  5  6  2  0
  6  7  1  0
  6 12  1  0
  7  8  2  0
  7  9  1  0
  9 10  2  0
  9 18  1  0
 10 11  1  0
 10 15  1  0
 11 12  1  0
 12 13  2  0
 13 14  1  0
 15 16  1  0
 16 17  1  0
 17 18  1  0
 18 19  1  0
 19 20  2  0
 19 21  1  0
 21 22  1  6
 21 23  1  0
 23 24  1  0
M  CHG  1  24   1
M  END
