
     RDKit          3D

 20 22  0  0  0  0  0  0  0  0999 V2000
   -3.4040   -0.7460    2.7620 O   0  0  0  0  0  0  0  0  0  0  0  0
   -2.4120    0.2030    2.4640 C   0  0  0  0  0  0  0  0  0  0  0  0
   -2.0020    0.1370    1.0340 C   0  0  0  0  0  0  0  0  0  0  0  0
   -0.6640   -0.0600    0.6780 C   0  0  0  0  0  0  0  0  0  0  0  0
   -0.2360   -0.0050   -0.6470 C   0  0  0  0  0  0  0  0  0  0  0  0
    1.0190   -0.1630   -0.9880 O   0  0  0  0  0  0  0  0  0  0  0  0
    2.2620   -0.2320   -0.6050 C   0  0  0  0  0  0  0  0  0  0  0  0
    3.0680   -1.2870   -1.0800 C   0  0  0  0  0  0  0  0  0  0  0  0
    4.3850   -1.4570   -0.7410 C   0  0  0  0  0  0  0  0  0  0  0  0
    4.9640   -0.5440    0.1070 C   0  0  0  0  0  0  0  0  0  0  0  0
    6.2920   -0.6680    0.4720 O   0  0  0  0  0  0  0  0  0  0  0  0
    4.2230    0.4930    0.5870 C   0  0  0  0  0  0  0  0  0  0  0  0
    4.8410    1.4130    1.4440 O   0  0  0  0  0  0  0  0  0  0  0  0
    2.9020    0.6440    0.2410 C   0  0  0  0  0  0  0  0  0  0  0  0
   -1.2610    0.2620   -1.5740 C   0  0  0  0  0  0  0  0  0  0  0  0
   -2.5640    0.4590   -1.2860 C   0  0  0  0  0  0  0  0  0  0  0  0
   -2.9350    0.3940    0.0590 C   0  0  0  0  0  0  0  0  0  0  0  0
   -4.3200    0.6100    0.1790 O   0  0  0  0  0  0  0  0  0  0  0  0
   -4.9350    0.2760   -1.0570 C   0  0  0  0  0  0  0  0  0  0  0  0
   -3.8370    0.6970   -2.0440 C   0  0  0  0  0  0  0  0  0  0  0  0
  1  2  1  0
  2  3  1  0
  3  4  2  0
  3 17  1  0
  4  5  1  0
  5  6  1  0
  5 15  2  0
  6  7  1  0
  7  8  2  0
  7 14  1  0
  8  9  1  0
  9 10  2  0
 10 11  1  0
 10 12  1  0
 12 13  1  0
 12 14  2  0
 15 16  1  0
 16 17  2  0
 16 20  1  0
 17 18  1  0
 18 19  1  0
 19 20  1  0
M  END
