
     RDKit          3D

 20 21  0  0  0  0  0  0  0  0999 V2000
   -2.8940    0.2140    0.2430 N   0  0  0  0  0  0  0  0  0  0  0  0
   -1.9740   -0.8970    0.2960 C   0  0  2  0  0  0  0  0  0  0  0  0
   -1.1570   -1.0240   -0.9070 C   0  0  0  0  0  0  0  0  0  0  0  0
   -0.2310    0.0160   -1.3540 C   0  0  1  0  0  0  0  0  0  0  0  0
   -0.7310    1.3630   -1.6900 C   0  0  0  0  0  0  0  0  0  0  0  0
    0.0100    2.2410   -0.6640 C   0  0  2  0  0  0  0  0  0  0  0  0
    0.1040    3.6300   -1.1040 C   0  0  0  0  0  0  0  0  0  0  0  0
   -0.9180    4.3530   -1.0910 O   0  0  0  0  0  0  0  0  0  0  0  0
    1.2880    4.1940   -1.5420 O   0  0  0  0  0  0  0  0  0  0  0  0
    1.3040    1.5900   -0.7610 N   0  0  0  0  0  0  0  0  0  0  0  0
    0.9200    0.2450   -0.5060 N   0  0  0  0  0  0  0  0  0  0  0  0
    1.6240   -0.5420    0.4250 C   0  0  0  0  0  0  0  0  0  0  0  0
    1.9280   -1.8730    0.2700 C   0  0  0  0  0  0  0  0  0  0  0  0
    2.6150   -2.5830    1.2640 C   0  0  0  0  0  0  0  0  0  0  0  0
    3.0170   -1.9850    2.4380 C   0  0  0  0  0  0  0  0  0  0  0  0
    2.7140   -0.6510    2.5950 C   0  0  0  0  0  0  0  0  0  0  0  0
    2.0390    0.0510    1.6210 C   0  0  0  0  0  0  0  0  0  0  0  0
   -2.8440   -2.1320    0.3950 C   0  0  0  0  0  0  0  0  0  0  0  0
   -4.0930   -2.0850    0.4180 O   0  0  0  0  0  0  0  0  0  0  0  0
   -2.2680   -3.4040    0.4660 O   0  0  0  0  0  0  0  0  0  0  0  0
  2  1  1  6
  2  3  1  0
  2 18  1  0
  4  3  1  1
  4  5  1  0
  4 11  1  0
  5  6  1  0
  6  7  1  6
  6 10  1  0
  7  8  2  0
  7  9  1  0
 10 11  1  0
 11 12  1  0
 12 13  2  0
 12 17  1  0
 13 14  1  0
 14 15  2  0
 15 16  1  0
 16 17  2  0
 18 19  2  0
 18 20  1  0
M  CHG  2   1   1  10   1
M  END
