
     RDKit          3D

 24 26  0  0  0  0  0  0  0  0999 V2000
    4.5800    1.5890   -1.2250 C   0  0  0  0  0  0  0  0  0  0  0  0
    3.9100    0.4130   -0.6150 C   0  0  0  0  0  0  0  0  0  0  0  0
    2.5590    0.5440   -0.2830 C   0  0  0  0  0  0  0  0  0  0  0  0
    1.8770   -0.5040    0.2840 C   0  0  0  0  0  0  0  0  0  0  0  0
    0.5000   -0.5400    0.6570 C   0  0  0  0  0  0  0  0  0  0  0  0
    0.1400   -1.6510    1.2620 O   0  0  0  0  0  0  0  0  0  0  0  0
   -0.5390    0.3500    0.5160 N   0  0  0  0  0  0  0  0  0  0  0  0
   -0.5070    1.6240   -0.1020 C   0  0  0  0  0  0  0  0  0  0  0  0
   -0.1040    2.7730    0.7980 C   0  0  2  0  0  0  0  0  0  0  0  0
   -1.0670    2.9310    1.9770 C   0  0  0  0  0  0  0  0  0  0  0  0
   -0.1940    4.0610    0.0060 C   0  0  0  0  0  0  0  0  0  0  0  0
   -1.8470   -0.0820    1.0940 C   0  0  0  0  0  0  0  0  0  0  0  0
   -2.6490   -0.8960    0.1410 C   0  0  1  0  0  0  0  0  0  0  0  0
   -3.9690   -1.3050    0.8120 C   0  0  0  0  0  0  0  0  0  0  0  0
   -4.6320   -2.3390   -0.0370 C   0  0  0  0  0  0  0  0  0  0  0  0
   -4.1150   -2.4090   -1.3810 N   0  0  0  0  0  0  0  0  0  0  0  0
   -3.9630   -1.1070   -1.9730 C   0  0  0  0  0  0  0  0  0  0  0  0
   -2.9890   -0.2490   -1.1630 C   0  0  0  0  0  0  0  0  0  0  0  0
    2.6360   -1.6840    0.4950 C   0  0  0  0  0  0  0  0  0  0  0  0
    3.9590   -1.8150    0.1720 C   0  0  0  0  0  0  0  0  0  0  0  0
    4.6150   -0.7460   -0.3960 C   0  0  0  0  0  0  0  0  0  0  0  0
    5.9180   -1.1630   -0.6120 O   0  0  0  0  0  0  0  0  0  0  0  0
    6.2100   -2.3470    0.1040 C   0  0  0  0  0  0  0  0  0  0  0  0
    4.8820   -2.8950    0.3030 N   0  0  0  0  0  0  0  0  0  0  0  0
  1  2  1  0
  2  3  2  0
  2 21  1  0
  3  4  1  0
  4  5  1  0
  4 19  2  0
  5  6  2  0
  5  7  1  0
  7  8  1  0
  7 12  1  0
  8  9  1  0
  9 10  1  1
  9 11  1  0
 13 12  1  1
 13 14  1  0
 13 18  1  0
 14 15  1  0
 15 16  1  0
 16 17  1  0
 17 18  1  0
 19 20  1  0
 20 21  2  0
 20 24  1  0
 21 22  1  0
 22 23  1  0
 23 24  1  0
M  CHG  1  16   1
M  END
