
     RDKit          3D

 24 25  0  0  0  0  0  0  0  0999 V2000
   -2.4360   -3.2280    0.4530 C   0  0  0  0  0  0  0  0  0  0  0  0
   -3.3170   -2.4900   -0.1310 C   0  0  0  0  0  0  0  0  0  0  0  0
   -3.5120   -1.0710    0.2900 C   0  0  0  0  0  0  0  0  0  0  0  0
   -4.4400   -0.4370   -0.3290 C   0  0  0  0  0  0  0  0  0  0  0  0
   -4.9730    0.9240   -0.2500 C   0  0  0  0  0  0  0  0  0  0  0  0
   -2.6180   -0.6540    1.2850 N   0  0  0  0  0  0  0  0  0  0  0  0
   -1.1730   -0.3980    1.0090 C   0  0  0  0  0  0  0  0  0  0  0  0
   -0.8730    0.9560    0.5620 C   0  0  0  0  0  0  0  0  0  0  0  0
   -1.8710    1.8620    0.6220 C   0  0  0  0  0  0  0  0  0  0  0  0
   -1.6990    3.2400    0.1960 C   0  0  0  0  0  0  0  0  0  0  0  0
   -2.6240    4.0850    0.2500 O   0  0  0  0  0  0  0  0  0  0  0  0
   -0.3950    3.6350   -0.3110 C   0  0  0  0  0  0  0  0  0  0  0  0
    0.6080    2.7900   -0.3890 C   0  0  0  0  0  0  0  0  0  0  0  0
    1.9380    3.2010   -0.9090 C   0  0  0  0  0  0  0  0  0  0  0  0
    0.4080    1.3740    0.0580 C   0  0  0  0  0  0  0  0  0  0  0  0
    1.4480    0.6110    0.0010 C   0  0  0  0  0  0  0  0  0  0  0  0
    1.7600   -0.7400    0.3490 C   0  0  0  0  0  0  0  0  0  0  0  0
    2.9750   -1.2800    0.1520 C   0  0  0  0  0  0  0  0  0  0  0  0
    3.2770   -2.6290    0.5030 N   0  0  0  0  0  0  0  0  0  0  0  0
    4.6320   -2.8830    0.1660 C   0  0  0  0  0  0  0  0  0  0  0  0
    5.2840   -3.9970    0.3300 N   0  0  0  0  0  0  0  0  0  0  0  0
    5.1530   -1.6530   -0.3990 C   0  0  0  0  0  0  0  0  0  0  0  0
    4.1650   -0.7270   -0.3970 C   0  0  0  0  0  0  0  0  0  0  0  0
    4.3770    0.5540   -0.8840 O   0  0  0  0  0  0  0  0  0  0  0  0
  1  2  2  0
  2  3  1  0
  3  4  2  3
  3  6  1  0
  4  5  1  0
  6  7  1  0
  7  8  1  0
  8  9  2  0
  8 15  1  0
  9 10  1  0
 10 11  2  0
 10 12  1  0
 12 13  2  0
 13 14  1  0
 13 15  1  0
 15 16  2  3
 16 17  1  0
 17 18  2  3
 18 19  1  0
 18 23  1  0
 19 20  1  0
 20 21  2  0
 20 22  1  0
 22 23  2  0
 23 24  1  0
M  END
