
     RDKit          3D

 34 37  0  0  0  0  0  0  0  0999 V2000
    3.3800   -2.9330   -0.2850 C   0  0  0  0  0  0  0  0  0  0  0  0
    2.6750   -2.4460    0.9310 C   0  0  0  0  0  0  0  0  0  0  0  0
    2.1050   -1.0460    0.8050 C   0  0  2  0  0  0  0  0  0  0  0  0
    1.1830   -0.9320   -0.2180 O   0  0  0  0  0  0  0  0  0  0  0  0
   -0.1410   -0.6170   -0.0840 C   0  0  0  0  0  0  0  0  0  0  0  0
   -0.7850   -0.3620    1.0620 N   0  0  0  0  0  0  0  0  0  0  0  0
   -2.0940   -0.0540    1.1600 C   0  0  0  0  0  0  0  0  0  0  0  0
   -2.8360    0.0090    0.0280 C   0  0  0  0  0  0  0  0  0  0  0  0
   -2.2580   -0.2410   -1.2170 C   0  0  0  0  0  0  0  0  0  0  0  0
   -3.1990   -0.1750   -2.7120 Cl  0  0  0  0  0  0  0  0  0  0  0  0
   -0.9240   -0.5500   -1.2590 C   0  0  0  0  0  0  0  0  0  0  0  0
   -0.1550   -0.8720   -2.8040 Cl  0  0  0  0  0  0  0  0  0  0  0  0
   -4.2520    0.3340    0.0320 C   0  0  0  0  0  0  0  0  0  0  0  0
   -5.0500   -0.1250   -0.9010 N   0  0  0  0  0  0  0  0  0  0  0  0
   -6.4340    0.1840   -0.9100 C   0  0  0  0  0  0  0  0  0  0  0  0
   -7.3800   -0.7480   -0.5390 C   0  0  0  0  0  0  0  0  0  0  0  0
   -8.7290   -0.4090   -0.5600 C   0  0  0  0  0  0  0  0  0  0  0  0
   -9.1150    0.8540   -0.9510 C   0  0  0  0  0  0  0  0  0  0  0  0
   -8.1790    1.8050   -1.3270 C   0  0  0  0  0  0  0  0  0  0  0  0
   -6.8270    1.4470   -1.3000 C   0  0  0  0  0  0  0  0  0  0  0  0
   -4.8570    1.1820    1.0610 C   0  0  0  0  0  0  0  0  0  0  0  0
   -3.8680    1.4680    2.5120 S   0  0  0  0  0  0  0  0  0  0  0  0
   -2.6100    0.1890    2.5390 C   0  0  0  0  0  0  0  0  0  0  0  0
    3.1830   -0.0220    0.6910 C   0  0  0  0  0  0  0  0  0  0  0  0
    3.1190    0.7750   -0.2690 O   0  0  0  0  0  0  0  0  0  0  0  0
    4.2620    0.0970    1.6030 N   0  0  0  0  0  0  0  0  0  0  0  0
    5.3060    1.0590    1.5240 C   0  0  0  0  0  0  0  0  0  0  0  0
    6.1640    0.9360    0.3480 C   0  0  0  0  0  0  0  0  0  0  0  0
    6.0490   -0.0420   -0.6130 C   0  0  0  0  0  0  0  0  0  0  0  0
    6.9170   -0.0980   -1.6930 C   0  0  0  0  0  0  0  0  0  0  0  0
    7.9040    0.7900   -1.8540 N   0  0  0  0  0  0  0  0  0  0  0  0
    8.0270    1.7500   -0.9230 C   0  0  0  0  0  0  0  0  0  0  0  0
    7.1950    1.8510    0.1660 C   0  0  0  0  0  0  0  0  0  0  0  0
    7.4110    3.1310    1.3470 Cl  0  0  0  0  0  0  0  0  0  0  0  0
  1  2  1  0
  3  2  1  6
  3  4  1  0
  3 24  1  0
  4  5  1  0
  5  6  2  0
  5 11  1  0
  6  7  1  0
  7  8  2  0
  7 23  1  0
  8  9  1  0
  8 13  1  0
  9 10  1  0
  9 11  2  0
 11 12  1  0
 13 14  2  3
 13 21  1  0
 14 15  1  0
 15 16  2  0
 15 20  1  0
 16 17  1  0
 17 18  2  0
 18 19  1  0
 19 20  2  0
 21 22  1  0
 22 23  1  0
 24 25  2  0
 24 26  1  0
 26 27  1  0
 27 28  1  0
 28 29  2  0
 28 33  1  0
 29 30  1  0
 30 31  2  0
 31 32  1  0
 32 33  2  0
 33 34  1  0
M  CHG  2   6   1  31   1
M  END
