
     RDKit          3D

 35 38  0  0  0  0  0  0  0  0999 V2000
    5.2660   -3.4600    2.4100 C   0  0  0  0  0  0  0  0  0  0  0  0
    4.4590   -2.8230    1.5850 C   0  0  0  0  0  0  0  0  0  0  0  0
    3.9810   -3.3250    0.4560 O   0  0  0  0  0  0  0  0  0  0  0  0
    3.2200   -2.4790   -0.1390 C   0  0  0  0  0  0  0  0  0  0  0  0
    2.5190   -2.7150   -1.4340 C   0  0  0  0  0  0  0  0  0  0  0  0
    2.8960   -4.3670   -2.0430 S   0  0  0  0  0  0  0  0  0  0  0  0
    2.1010   -4.6430   -3.5180 F   0  0  0  0  0  0  0  0  0  0  0  0
    3.1600   -1.2910    0.6350 C   0  0  0  0  0  0  0  0  0  0  0  0
    2.3940   -0.1630    0.1870 C   0  0  0  0  0  0  0  0  0  0  0  0
    2.4020    0.0720   -1.0890 O   0  0  0  0  0  0  0  0  0  0  0  0
    1.6140    0.7410    0.9230 N   0  0  0  0  0  0  0  0  0  0  0  0
    0.9150    1.8500    0.2520 C   0  0  2  0  0  0  0  0  0  0  0  0
    1.4140    3.1180    0.9130 C   0  0  0  0  0  0  0  0  0  0  0  0
    0.3770    4.2330    0.7530 C   0  0  0  0  0  0  0  0  0  0  0  0
   -0.3040    4.0110   -0.5080 N   0  0  2  0  0  0  0  0  0  0  0  0
   -1.0790    5.1700   -0.9110 C   0  0  0  0  0  0  0  0  0  0  0  0
   -1.8240    5.7310    0.2960 C   0  0  0  0  0  0  0  0  0  0  0  0
   -2.5610    6.8450   -0.1190 O   0  0  0  0  0  0  0  0  0  0  0  0
   -1.1560    2.8570   -0.4500 C   0  0  0  0  0  0  0  0  0  0  0  0
   -0.5730    1.7750    0.4820 C   0  0  1  0  0  0  0  0  0  0  0  0
   -1.1220    0.4500    0.1280 C   0  0  0  0  0  0  0  0  0  0  0  0
   -1.2650   -0.4160   -0.6180 N   0  0  0  0  0  0  0  0  0  0  0  0
   -1.9010   -1.5580   -0.5390 C   0  0  0  0  0  0  0  0  0  0  0  0
   -2.5330   -1.7880    0.6740 C   0  0  0  0  0  0  0  0  0  0  0  0
   -2.1100   -0.2580    1.5870 S   0  0  0  0  0  0  0  0  0  0  0  0
   -3.3100   -2.9700    1.0280 C   0  0  0  0  0  0  0  0  0  0  0  0
   -3.7160   -3.1300    2.2330 O   0  0  0  0  0  0  0  0  0  0  0  0
   -3.6300   -3.9970   -0.0230 C   0  0  0  0  0  0  0  0  0  0  0  0
   -3.5160   -3.2230   -1.3450 C   0  0  2  0  0  0  0  0  0  0  0  0
   -3.9090   -4.1290   -2.4930 C   0  0  0  0  0  0  0  0  0  0  0  0
   -2.1010   -2.7110   -1.5010 C   0  0  0  0  0  0  0  0  0  0  0  0
    3.9530   -1.5370    1.7140 C   0  0  0  0  0  0  0  0  0  0  0  0
    4.2390   -0.7220    2.6920 C   0  0  0  0  0  0  0  0  0  0  0  0
    5.0720   -1.0760    3.6920 F   0  0  0  0  0  0  0  0  0  0  0  0
    3.7580    0.5280    2.7320 F   0  0  0  0  0  0  0  0  0  0  0  0
  1  2  2  0
  2  3  1  0
  2 32  1  0
  3  4  1  0
  4  5  1  0
  4  8  2  0
  5  6  1  0
  6  7  1  0
  8  9  1  0
  8 32  1  0
  9 10  2  0
  9 11  1  0
 12 11  1  1
 12 13  1  0
 12 20  1  0
 13 14  1  0
 14 15  1  0
 15 16  1  1
 15 19  1  0
 16 17  1  0
 17 18  1  0
 19 20  1  0
 20 21  1  6
 21 22  2  0
 21 25  1  0
 22 23  1  0
 23 24  2  0
 23 31  1  0
 24 25  1  0
 24 26  1  0
 26 27  2  0
 26 28  1  0
 28 29  1  0
 29 30  1  6
 29 31  1  0
 32 33  2  3
 33 34  1  0
 33 35  1  0
M  CHG  1  15   1
M  END
