
     RDKit          3D

 35 37  0  0  0  0  0  0  0  0999 V2000
    0.2870    0.8220    3.1940 C   0  0  0  0  0  0  0  0  0  0  0  0
   -0.6320    1.3540    2.1070 C   0  0  0  0  0  0  0  0  0  0  0  0
   -1.1980    0.3790    1.2770 N   0  0  0  0  0  0  0  0  0  0  0  0
   -2.2050   -0.3920    2.0210 C   0  0  0  0  0  0  0  0  0  0  0  0
   -1.6650   -1.1990    3.0450 C   0  0  0  0  0  0  0  0  0  0  0  0
   -1.2110   -1.9160    3.9440 N   0  0  0  0  0  0  0  0  0  0  0  0
   -1.3330    0.3730   -0.0920 C   0  0  2  0  0  0  0  0  0  0  0  0
   -2.6970    0.1390   -0.6970 C   0  0  0  0  0  0  0  0  0  0  0  0
   -2.8650   -0.9470   -1.3960 C   0  0  0  0  0  0  0  0  0  0  0  0
   -3.9830   -1.5400   -2.1190 C   0  0  0  0  0  0  0  0  0  0  0  0
   -4.1830   -2.8210   -1.5220 F   0  0  0  0  0  0  0  0  0  0  0  0
   -3.8140    1.0620   -0.5500 C   0  0  0  0  0  0  0  0  0  0  0  0
   -5.0730    0.7770   -1.1570 O   0  0  0  0  0  0  0  0  0  0  0  0
   -5.4370    1.6360   -2.2290 C   0  0  0  0  0  0  0  0  0  0  0  0
   -3.8530    2.2040    0.0970 C   0  0  0  0  0  0  0  0  0  0  0  0
   -2.8190    2.7040    0.7450 F   0  0  0  0  0  0  0  0  0  0  0  0
   -5.0070    2.9580    0.1560 F   0  0  0  0  0  0  0  0  0  0  0  0
   -0.1630    0.0140   -0.9770 C   0  0  1  0  0  0  0  0  0  0  0  0
    0.8260    1.1330   -0.8350 C   0  0  0  0  0  0  0  0  0  0  0  0
    0.4220    2.3250   -0.8280 O   0  0  0  0  0  0  0  0  0  0  0  0
    2.2140    0.8620   -0.7160 C   0  0  0  0  0  0  0  0  0  0  0  0
    3.0320    1.6110   -0.0410 C   0  0  0  0  0  0  0  0  0  0  0  0
    4.4880    1.4940    0.1950 C   0  0  0  0  0  0  0  0  0  0  0  0
    5.0770    2.8150    0.5070 C   0  0  0  0  0  0  0  0  0  0  0  0
    4.1900    3.5860    1.4350 C   0  0  0  0  0  0  0  0  0  0  0  0
    2.5500    3.0910    0.8370 S   0  0  0  0  0  0  0  0  0  0  0  0
    2.6470   -0.3830   -1.4710 C   0  0  0  0  0  0  0  0  0  0  0  0
    1.8930   -1.4260   -0.8740 N   0  0  2  0  0  0  0  0  0  0  0  0
    2.3150   -2.6420   -1.6120 C   0  0  0  0  0  0  0  0  0  0  0  0
    2.1230   -3.8930   -0.8340 C   0  0  0  0  0  0  0  0  0  0  0  0
    0.9180   -3.7010    0.4130 S   0  0  2  0  0  0  0  0  0  0  0  0
    1.5840   -3.9170    1.7650 O   0  0  0  0  0  0  0  0  0  0  0  0
   -0.0720   -4.8530    0.2860 O   0  0  0  0  0  0  0  0  0  0  0  0
    0.0740   -2.1310    0.3650 C   0  0  0  0  0  0  0  0  0  0  0  0
    0.4500   -1.3110   -0.8590 C   0  0  1  0  0  0  0  0  0  0  0  0
  1  2  1  0
  2  3  1  0
  3  4  1  0
  7  3  1  1
  4  5  1  0
  5  6  3  0
  7  8  1  0
  7 18  1  0
  8  9  2  3
  8 12  1  0
  9 10  1  0
 10 11  1  0
 12 13  1  0
 12 15  2  3
 13 14  1  0
 15 16  1  0
 15 17  1  0
 18 19  1  1
 18 35  1  0
 19 20  2  0
 19 21  1  0
 21 22  2  3
 21 27  1  0
 22 23  1  0
 22 26  1  0
 23 24  1  0
 24 25  1  0
 25 26  1  0
 28 27  1  6
 28 29  1  0
 28 35  1  0
 29 30  1  0
 31 30  1  6
 31 32  2  0
 31 33  2  0
 31 34  1  0
 35 34  1  1
M  CHG  1  28   1
M  END
