
     RDKit          3D

 34 37  0  0  0  0  0  0  0  0999 V2000
   -2.7270    3.3390   -0.5660 C   0  0  0  0  0  0  0  0  0  0  0  0
   -3.9670    3.2320    0.2230 C   0  0  1  0  0  0  0  0  0  0  0  0
   -5.1680    3.5690   -0.6440 C   0  0  0  0  0  0  0  0  0  0  0  0
   -5.2320    2.4430   -1.9900 Cl  0  0  0  0  0  0  0  0  0  0  0  0
   -4.2090    2.0200    1.0420 C   0  0  0  0  0  0  0  0  0  0  0  0
   -4.2380    0.7650    0.3780 N   0  0  0  0  0  0  0  0  0  0  0  0
   -3.0570    0.1140   -0.0730 C   0  0  0  0  0  0  0  0  0  0  0  0
   -1.9080    0.4640    0.3540 N   0  0  0  0  0  0  0  0  0  0  0  0
   -0.6360   -0.0400    0.0070 C   0  0  0  0  0  0  0  0  0  0  0  0
    0.4850    0.3760    0.7460 C   0  0  0  0  0  0  0  0  0  0  0  0
    1.7370   -0.1690    0.5780 C   0  0  0  0  0  0  0  0  0  0  0  0
    2.8470    0.3280    1.4070 C   0  0  0  0  0  0  0  0  0  0  0  0
    3.7290    1.2320    0.7090 N   0  0  0  0  0  0  0  0  0  0  0  0
    4.4400    0.7610   -0.4150 C   0  0  0  0  0  0  0  0  0  0  0  0
    3.9570    0.9230   -1.6810 C   0  0  0  0  0  0  0  0  0  0  0  0
    2.4670    1.8070   -1.9200 Cl  0  0  0  0  0  0  0  0  0  0  0  0
    4.6960    0.3990   -2.7360 C   0  0  0  0  0  0  0  0  0  0  0  0
    5.8860   -0.2670   -2.5160 C   0  0  0  0  0  0  0  0  0  0  0  0
    6.3470   -0.4130   -1.2230 C   0  0  0  0  0  0  0  0  0  0  0  0
    5.6330    0.0990   -0.1440 C   0  0  0  0  0  0  0  0  0  0  0  0
    6.1430   -0.0730    1.1380 O   0  0  0  0  0  0  0  0  0  0  0  0
    7.5810   -0.0400    1.2280 C   0  0  0  0  0  0  0  0  0  0  0  0
    8.1090   -1.1460    0.3460 C   0  0  0  0  0  0  0  0  0  0  0  0
    7.5340   -1.0700   -0.9380 O   0  0  0  0  0  0  0  0  0  0  0  0
    1.8680   -1.1710   -0.3720 C   0  0  0  0  0  0  0  0  0  0  0  0
    0.7650   -1.5940   -1.1180 C   0  0  0  0  0  0  0  0  0  0  0  0
   -0.4220   -1.0320   -0.9160 C   0  0  0  0  0  0  0  0  0  0  0  0
   -1.8170   -1.4410   -1.9970 S   0  0  0  0  0  0  0  0  0  0  0  0
   -3.2430   -1.0770   -0.8990 C   0  0  0  0  0  0  0  0  0  0  0  0
   -4.1990   -1.9270   -0.8210 C   0  0  0  0  0  0  0  0  0  0  0  0
   -4.1450   -3.2770   -2.0040 Cl  0  0  0  0  0  0  0  0  0  0  0  0
   -5.2610   -2.0520    0.1740 C   0  0  0  0  0  0  0  0  0  0  0  0
   -5.3190   -3.5320    0.6790 C   0  0  0  0  0  0  0  0  0  0  0  0
   -4.0510   -3.8850    1.2760 N   0  0  0  0  0  0  0  0  0  0  0  0
  2  1  1  6
  2  3  1  0
  2  5  1  0
  3  4  1  0
  5  6  1  0
  6  7  1  0
  7  8  2  0
  7 29  1  0
  8  9  1  0
  9 10  2  0
  9 27  1  0
 10 11  1  0
 11 12  1  0
 11 25  2  0
 12 13  1  0
 13 14  1  0
 14 15  2  0
 14 20  1  0
 15 16  1  0
 15 17  1  0
 17 18  2  0
 18 19  1  0
 19 20  2  0
 19 24  1  0
 20 21  1  0
 21 22  1  0
 22 23  1  0
 23 24  1  0
 25 26  1  0
 26 27  2  0
 27 28  1  0
 28 29  1  0
 29 30  2  3
 30 31  1  0
 30 32  1  0
 32 33  1  0
 33 34  1  0
M  CHG  2   8   1  34   1
M  END
