
     RDKit          3D

 36 40  0  0  0  0  0  0  0  0999 V2000
   -4.2350    1.7990    3.2120 C   0  0  0  0  0  0  0  0  0  0  0  0
   -3.5570    2.6750    2.2350 C   0  0  0  0  0  0  0  0  0  0  0  0
   -2.7660    2.1230    1.1400 C   0  0  1  0  0  0  0  0  0  0  0  0
   -2.2810    3.4330    0.3610 C   0  0  0  0  0  0  0  0  0  0  0  0
   -1.4560    1.6740    1.5020 O   0  0  0  0  0  0  0  0  0  0  0  0
   -3.3560    1.1890    0.1950 C   0  0  0  0  0  0  0  0  0  0  0  0
   -3.3690   -0.1710    0.4670 C   0  0  0  0  0  0  0  0  0  0  0  0
   -2.5260   -0.7710    1.4400 N   0  0  0  0  0  0  0  0  0  0  0  0
   -3.0180   -1.2250    2.7040 C   0  0  0  0  0  0  0  0  0  0  0  0
   -1.1430   -1.0330    1.1380 C   0  0  0  0  0  0  0  0  0  0  0  0
   -0.4050   -1.4440    2.0580 O   0  0  0  0  0  0  0  0  0  0  0  0
   -0.5800   -0.8410   -0.2030 C   0  0  0  0  0  0  0  0  0  0  0  0
    0.8290   -1.1650   -0.3030 N   0  0  1  0  0  0  0  0  0  0  0  0
    1.1620   -1.1400   -1.7020 C   0  0  0  0  0  0  0  0  0  0  0  0
    1.6780    0.2440   -1.9640 C   0  0  0  0  0  0  0  0  0  0  0  0
    1.7060    0.9670   -0.6600 C   0  0  0  0  0  0  0  0  0  0  0  0
    1.6740   -0.2090    0.3200 C   0  0  2  0  0  0  0  0  0  0  0  0
    3.0500   -0.6730    0.4510 C   0  0  0  0  0  0  0  0  0  0  0  0
    3.9380   -0.7100    1.4750 C   0  0  0  0  0  0  0  0  0  0  0  0
    5.1240   -1.1970    1.2210 N   0  0  0  0  0  0  0  0  0  0  0  0
    5.5380   -1.6200    0.1930 C   0  0  0  0  0  0  0  0  0  0  0  0
    6.7440   -2.2020   -0.3880 C   0  0  0  0  0  0  0  0  0  0  0  0
    6.8130   -2.5870   -1.7200 C   0  0  0  0  0  0  0  0  0  0  0  0
    7.9350   -3.1380   -2.2940 C   0  0  0  0  0  0  0  0  0  0  0  0
    9.0360   -3.3070   -1.4860 C   0  0  0  0  0  0  0  0  0  0  0  0
    9.0280   -2.9440   -0.1580 C   0  0  0  0  0  0  0  0  0  0  0  0
    7.8780   -2.3980    0.3620 C   0  0  0  0  0  0  0  0  0  0  0  0
    4.0210   -1.3780   -0.8940 S   0  0  0  0  0  0  0  0  0  0  0  0
   -4.0790   -1.0830   -0.2940 C   0  0  0  0  0  0  0  0  0  0  0  0
   -4.8030   -0.6640   -1.3690 C   0  0  0  0  0  0  0  0  0  0  0  0
   -4.8050    0.6910   -1.6690 C   0  0  0  0  0  0  0  0  0  0  0  0
   -4.0980    1.6340   -0.9120 C   0  0  0  0  0  0  0  0  0  0  0  0
   -4.3670    2.9100   -1.5240 C   0  0  0  0  0  0  0  0  0  0  0  0
   -5.1780    2.8000   -2.5880 C   0  0  0  0  0  0  0  0  0  0  0  0
   -5.4950    1.4070   -2.7360 C   0  0  0  0  0  0  0  0  0  0  0  0
   -6.2430    0.8320   -3.6250 N   0  0  0  0  0  0  0  0  0  0  0  0
  1  2  1  0
  2  3  1  0
  3  4  1  6
  3  5  1  0
  3  6  1  0
  6  7  2  0
  6 32  1  0
  7  8  1  0
  7 29  1  0
  8  9  1  0
  8 10  1  0
 10 11  2  0
 10 12  1  0
 13 12  1  6
 13 14  1  0
 13 17  1  0
 14 15  1  0
 15 16  1  0
 16 17  1  0
 17 18  1  6
 18 19  2  0
 18 28  1  0
 19 20  1  0
 20 21  2  0
 21 22  1  0
 21 28  1  0
 22 23  2  0
 22 27  1  0
 23 24  1  0
 24 25  2  0
 25 26  1  0
 26 27  2  0
 29 30  2  0
 30 31  1  0
 31 32  2  0
 31 35  1  0
 32 33  1  0
 33 34  2  0
 34 35  1  0
 35 36  2  0
M  CHG  1  13   1
M  END
