
     RDKit          3D

 36 39  0  0  0  0  0  0  0  0999 V2000
    0.9180    0.6820    3.6900 C   0  0  0  0  0  0  0  0  0  0  0  0
    0.5820    0.7490    2.1910 C   0  0  0  0  0  0  0  0  0  0  0  0
    1.7820    0.9080    1.4670 N   0  0  1  0  0  0  0  0  0  0  0  0
    2.8570    0.1530    2.1000 C   0  0  0  0  0  0  0  0  0  0  0  0
    1.7970    0.5540    0.0840 C   0  0  2  0  0  0  0  0  0  0  0  0
    0.7600   -0.3650   -0.4250 C   0  0  0  0  0  0  0  0  0  0  0  0
   -0.5950    0.1220   -0.3030 N   0  0  0  0  0  0  0  0  0  0  0  0
   -1.7160   -0.6970   -0.7340 C   0  0  0  0  0  0  0  0  0  0  0  0
   -1.3990   -1.8060   -1.1960 O   0  0  0  0  0  0  0  0  0  0  0  0
   -3.0310   -0.2110   -0.6070 N   0  0  0  0  0  0  0  0  0  0  0  0
   -4.1640   -0.9570   -1.0190 C   0  0  0  0  0  0  0  0  0  0  0  0
   -4.0750   -1.9650   -1.9520 C   0  0  0  0  0  0  0  0  0  0  0  0
   -5.2030   -2.5820   -2.4760 C   0  0  0  0  0  0  0  0  0  0  0  0
   -5.0580   -3.6730   -3.4930 C   0  0  0  0  0  0  0  0  0  0  0  0
   -6.4230   -2.1600   -2.0380 C   0  0  0  0  0  0  0  0  0  0  0  0
   -6.5270   -1.1320   -1.0830 C   0  0  0  0  0  0  0  0  0  0  0  0
   -7.8770   -0.7580   -0.6100 C   0  0  0  0  0  0  0  0  0  0  0  0
   -5.4110   -0.5240   -0.5640 C   0  0  0  0  0  0  0  0  0  0  0  0
   -5.4940    0.4030    0.5560 C   0  0  0  0  0  0  0  0  0  0  0  0
   -4.6180    0.3750    1.5580 C   0  0  0  0  0  0  0  0  0  0  0  0
   -4.6340    1.2770    2.7130 C   0  0  0  0  0  0  0  0  0  0  0  0
   -5.6130    2.2500    2.6190 O   0  0  0  0  0  0  0  0  0  0  0  0
   -6.5050    2.2980    1.6110 N   0  0  0  0  0  0  0  0  0  0  0  0
   -6.4890    1.4610    0.6320 C   0  0  0  0  0  0  0  0  0  0  0  0
    3.1720    0.1760   -0.4000 C   0  0  0  0  0  0  0  0  0  0  0  0
    3.3310   -1.0140   -1.0760 C   0  0  0  0  0  0  0  0  0  0  0  0
    4.5860   -1.3490   -1.5050 C   0  0  0  0  0  0  0  0  0  0  0  0
    5.7040   -0.5500   -1.2950 C   0  0  0  0  0  0  0  0  0  0  0  0
    5.5170    0.6190   -0.6250 C   0  0  0  0  0  0  0  0  0  0  0  0
    4.2560    0.9940   -0.1730 C   0  0  0  0  0  0  0  0  0  0  0  0
    6.3610    1.5710   -0.2610 C   0  0  0  0  0  0  0  0  0  0  0  0
    7.7750    1.7370   -0.4260 C   0  0  0  0  0  0  0  0  0  0  0  0
    8.3460    2.9890    0.1860 C   0  0  0  0  0  0  0  0  0  0  0  0
    8.6730    0.9770   -1.0190 C   0  0  0  0  0  0  0  0  0  0  0  0
    8.4770   -0.5640   -1.8530 S   0  0  0  0  0  0  0  0  0  0  0  0
    6.7830   -1.0890   -1.8010 C   0  0  0  0  0  0  0  0  0  0  0  0
  1  2  1  0
  2  3  1  0
  3  4  1  1
  3  5  1  0
  5  6  1  1
  5 25  1  0
  6  7  1  0
  7  8  1  0
  8  9  2  0
  8 10  1  0
 10 11  1  0
 11 12  2  0
 11 18  1  0
 12 13  1  0
 13 14  1  0
 13 15  2  0
 15 16  1  0
 16 17  1  0
 16 18  2  0
 18 19  1  0
 19 20  2  0
 19 24  1  0
 20 21  1  0
 21 22  1  0
 22 23  1  0
 23 24  2  0
 25 26  1  0
 25 30  2  0
 26 27  2  0
 27 28  1  0
 28 29  1  0
 28 36  2  0
 29 30  1  0
 29 31  2  0
 31 32  1  0
 32 33  1  0
 32 34  2  0
 34 35  1  0
 35 36  1  0
M  CHG  1   3   1
M  END
