
     RDKit          3D

 36 40  0  0  0  0  0  0  0  0999 V2000
   11.6840    0.2030   -1.4580 C   0  0  0  0  0  0  0  0  0  0  0  0
   10.3900    0.1070   -0.7760 C   0  0  0  0  0  0  0  0  0  0  0  0
    9.6520    1.1930   -0.3780 C   0  0  0  0  0  0  0  0  0  0  0  0
    8.4470    1.1400    0.2580 C   0  0  0  0  0  0  0  0  0  0  0  0
    7.8660   -0.1020    0.5540 C   0  0  0  0  0  0  0  0  0  0  0  0
    6.7450   -0.3450    1.1420 N   0  0  0  0  0  0  0  0  0  0  0  0
    6.2280   -1.4500    1.4050 C   0  0  0  0  0  0  0  0  0  0  0  0
    5.0650   -2.0710    2.0080 C   0  0  1  0  0  0  0  0  0  0  0  0
    4.9130   -1.5340    3.4140 C   0  0  0  0  0  0  0  0  0  0  0  0
    3.7930   -1.7480    1.2960 C   0  0  0  0  0  0  0  0  0  0  0  0
    3.0500   -2.6180    0.8050 O   0  0  0  0  0  0  0  0  0  0  0  0
    3.4080   -0.3470    1.1720 C   0  0  0  0  0  0  0  0  0  0  0  0
    2.2770    0.0070    0.5440 C   0  0  0  0  0  0  0  0  0  0  0  0
    1.7560    1.3700    0.3380 C   0  0  0  0  0  0  0  0  0  0  0  0
    0.2820    1.1830    0.1120 C   0  0  0  0  0  0  0  0  0  0  0  0
    0.0300   -0.3060    0.2730 C   0  0  1  0  0  0  0  0  0  0  0  0
   -0.9200   -0.8690   -0.7230 C   0  0  0  0  0  0  0  0  0  0  0  0
   -2.2870   -0.5770   -0.6270 N   0  0  1  0  0  0  0  0  0  0  0  0
   -2.6890    0.6290   -0.0020 C   0  0  0  0  0  0  0  0  0  0  0  0
   -4.1860    0.8290    0.0120 C   0  0  0  0  0  0  0  0  0  0  0  0
   -4.8930    0.2180   -1.0270 N   0  0  0  0  0  0  0  0  0  0  0  0
   -6.0930    0.8120   -1.4860 C   0  0  0  0  0  0  0  0  0  0  0  0
   -7.1850    0.7540   -0.4980 C   0  0  0  0  0  0  0  0  0  0  0  0
   -8.3370    0.1450   -0.7180 C   0  0  0  0  0  0  0  0  0  0  0  0
   -9.3750    0.1130    0.2750 C   0  0  0  0  0  0  0  0  0  0  0  0
   -9.3150    0.6850    1.5280 C   0  0  0  0  0  0  0  0  0  0  0  0
  -10.5230    0.4280    2.1810 C   0  0  0  0  0  0  0  0  0  0  0  0
  -11.2930   -0.3010    1.2980 C   0  0  0  0  0  0  0  0  0  0  0  0
  -10.5880   -0.4760    0.1700 N   0  0  0  0  0  0  0  0  0  0  0  0
   -4.3560   -0.8610   -1.7370 C   0  0  0  0  0  0  0  0  0  0  0  0
   -2.8710   -0.6990   -1.9800 C   0  0  1  0  0  0  0  0  0  0  0  0
   -2.6160    0.5200   -2.8020 C   0  0  0  0  0  0  0  0  0  0  0  0
    1.3520   -0.8550   -0.0490 O   0  0  0  0  0  0  0  0  0  0  0  0
    7.5510   -2.5560    0.6990 S   0  0  0  0  0  0  0  0  0  0  0  0
    8.6220   -1.2090    0.1460 C   0  0  0  0  0  0  0  0  0  0  0  0
    9.8250   -1.1400   -0.4880 C   0  0  0  0  0  0  0  0  0  0  0  0
  1  2  1  0
  2  3  2  0
  2 36  1  0
  3  4  1  0
  4  5  2  0
  5  6  1  0
  5 35  1  0
  6  7  2  0
  7  8  1  0
  7 34  1  0
  8  9  1  1
  8 10  1  0
 10 11  2  0
 10 12  1  0
 12 13  2  3
 13 14  1  0
 13 33  1  0
 14 15  1  0
 15 16  1  0
 16 17  1  6
 16 33  1  0
 18 17  1  6
 18 19  1  0
 18 31  1  0
 19 20  1  0
 20 21  1  0
 21 22  1  0
 21 30  1  0
 22 23  1  0
 23 24  2  3
 24 25  1  0
 25 26  2  0
 25 29  1  0
 26 27  1  0
 27 28  2  0
 28 29  1  0
 30 31  1  0
 31 32  1  6
 34 35  1  0
 35 36  2  0
M  CHG  1  18   1
M  END
