
     RDKit          3D

 42 46  0  0  0  0  0  0  0  0999 V2000
   -2.6810   -1.6380   -6.4050 C   0  0  0  0  0  0  0  0  0  0  0  0
   -2.8550   -2.7110   -5.5070 O   0  0  0  0  0  0  0  0  0  0  0  0
   -2.7420   -2.4570   -4.1240 C   0  0  0  0  0  0  0  0  0  0  0  0
   -2.4710   -1.2040   -3.6640 C   0  0  0  0  0  0  0  0  0  0  0  0
   -2.3580   -0.9470   -2.3140 C   0  0  0  0  0  0  0  0  0  0  0  0
   -2.1030    0.4280   -1.8910 C   0  0  0  0  0  0  0  0  0  0  0  0
   -1.1350    0.8320   -1.1190 C   0  0  0  0  0  0  0  0  0  0  0  0
    0.0130   -0.3830   -0.5070 S   0  0  0  0  0  0  0  0  0  0  0  0
    1.2480    0.4430    0.5220 C   0  0  0  0  0  0  0  0  0  0  0  0
    2.1890   -0.6020    0.9930 C   0  0  0  0  0  0  0  0  0  0  0  0
    2.0970   -1.3310    2.1110 N   0  0  0  0  0  0  0  0  0  0  0  0
    3.1430   -2.1340    2.1300 N   0  0  0  0  0  0  0  0  0  0  0  0
    3.8900   -1.9160    1.0360 C   0  0  0  0  0  0  0  0  0  0  0  0
    5.1480   -2.6020    0.6670 C   0  0  1  0  0  0  0  0  0  0  0  0
    6.2100   -2.2160    1.7050 C   0  0  0  0  0  0  0  0  0  0  0  0
    7.2450   -3.2910    1.4550 C   0  0  0  0  0  0  0  0  0  0  0  0
    6.4360   -4.3550    0.7680 C   0  0  0  0  0  0  0  0  0  0  0  0
    5.0970   -3.9690    0.8290 O   0  0  0  0  0  0  0  0  0  0  0  0
    3.2730   -0.9740    0.3690 O   0  0  0  0  0  0  0  0  0  0  0  0
   -1.0250    2.2370   -0.7840 C   0  0  0  0  0  0  0  0  0  0  0  0
   -1.8850    3.0480   -1.2610 O   0  0  0  0  0  0  0  0  0  0  0  0
   -0.0670    2.7870    0.0140 O   0  0  0  0  0  0  0  0  0  0  0  0
    0.0280    4.1740    0.3360 C   0  0  2  0  0  0  0  0  0  0  0  0
    1.2290    4.8230   -0.2040 C   0  0  0  0  0  0  0  0  0  0  0  0
    2.3160    4.8880    0.8060 C   0  0  0  0  0  0  0  0  0  0  0  0
    1.9660    5.3410    2.0360 C   0  0  0  0  0  0  0  0  0  0  0  0
    0.4960    5.7160    2.1950 C   0  0  0  0  0  0  0  0  0  0  0  0
   -0.2470    4.4450    1.7590 C   0  0  1  0  0  0  0  0  0  0  0  0
   -1.6960    4.5170    2.1190 C   0  0  0  0  0  0  0  0  0  0  0  0
   -2.4690    5.5760    1.4130 C   0  0  0  0  0  0  0  0  0  0  0  0
   -1.9360    6.8450    1.6860 O   0  0  0  0  0  0  0  0  0  0  0  0
   -2.5140   -1.9420   -1.3650 C   0  0  0  0  0  0  0  0  0  0  0  0
   -2.4070   -1.6910   -0.0150 O   0  0  0  0  0  0  0  0  0  0  0  0
   -2.5620   -2.5730    1.0390 C   0  0  1  0  0  0  0  0  0  0  0  0
   -1.4370   -2.3820    2.0320 C   0  0  0  0  0  0  0  0  0  0  0  0
   -1.8450   -1.0920    2.6900 C   0  0  0  0  0  0  0  0  0  0  0  0
   -3.2130   -1.0030    2.6350 O   0  0  0  0  0  0  0  0  0  0  0  0
   -3.7200   -2.0540    1.9100 C   0  0  0  0  0  0  0  0  0  0  0  0
   -2.7910   -3.2210   -1.8590 C   0  0  0  0  0  0  0  0  0  0  0  0
   -2.9050   -3.4840   -3.2120 C   0  0  0  0  0  0  0  0  0  0  0  0
   -3.1770   -4.7470   -3.6680 O   0  0  0  0  0  0  0  0  0  0  0  0
   -3.3710   -5.8680   -2.8690 C   0  0  0  0  0  0  0  0  0  0  0  0
  1  2  1  0
  2  3  1  0
  3  4  2  0
  3 40  1  0
  4  5  1  0
  5  6  1  0
  5 32  2  0
  6  7  2  3
  7  8  1  0
  7 20  1  0
  8  9  1  0
  9 10  1  0
 10 11  2  0
 10 19  1  0
 11 12  1  0
 12 13  2  0
 14 13  1  1
 13 19  1  0
 14 15  1  0
 14 18  1  0
 15 16  1  0
 16 17  1  0
 17 18  1  0
 20 21  2  0
 20 22  1  0
 23 22  1  1
 23 24  1  0
 23 28  1  0
 24 25  1  0
 25 26  2  0
 26 27  1  0
 27 28  1  0
 28 29  1  6
 29 30  1  0
 30 31  1  0
 32 33  1  0
 32 39  1  0
 34 33  1  6
 34 35  1  0
 34 38  1  0
 35 36  1  0
 36 37  1  0
 37 38  1  0
 39 40  2  0
 40 41  1  0
 41 42  1  0
M  END
