
     RDKit          3D

 42 45  0  0  0  0  0  0  0  0999 V2000
    9.6300   -1.5890   -1.8130 C   0  0  0  0  0  0  0  0  0  0  0  0
    9.1300   -0.5630   -0.9670 O   0  0  0  0  0  0  0  0  0  0  0  0
    7.7730   -0.6500   -0.6220 C   0  0  0  0  0  0  0  0  0  0  0  0
    7.1980    0.3140    0.2050 C   0  0  0  0  0  0  0  0  0  0  0  0
    5.8730    0.2750    0.5720 C   0  0  0  0  0  0  0  0  0  0  0  0
    5.0610   -0.7410    0.1220 C   0  0  0  0  0  0  0  0  0  0  0  0
    3.4020   -0.8700    0.5310 S   0  0  2  0  0  0  0  0  0  0  0  0
    3.2710   -0.4980    2.0060 O   0  0  0  0  0  0  0  0  0  0  0  0
    3.0190   -2.3470    0.4950 O   0  0  0  0  0  0  0  0  0  0  0  0
    2.2980   -0.0230   -0.3800 N   0  0  0  0  0  0  0  0  0  0  0  0
    2.1220   -0.2370   -1.7290 C   0  0  0  0  0  0  0  0  0  0  0  0
    2.6850    0.6850   -2.7370 C   0  0  1  0  0  0  0  0  0  0  0  0
    4.1790    0.8520   -2.7280 C   0  0  0  0  0  0  0  0  0  0  0  0
    2.3690    0.0620   -4.1130 C   0  0  0  0  0  0  0  0  0  0  0  0
    1.3810    0.8030    0.3370 C   0  0  0  0  0  0  0  0  0  0  0  0
    0.1500    0.0510    0.6650 C   0  0  1  0  0  0  0  0  0  0  0  0
    0.2910   -1.0800    1.4360 O   0  0  0  0  0  0  0  0  0  0  0  0
   -1.0470    0.8180    1.0940 C   0  0  2  0  0  0  0  0  0  0  0  0
   -1.1540    1.1840    2.5310 C   0  0  0  0  0  0  0  0  0  0  0  0
   -0.1350    1.9970    3.1460 C   0  0  0  0  0  0  0  0  0  0  0  0
    0.9260    1.3720    3.8200 C   0  0  0  0  0  0  0  0  0  0  0  0
    1.9330    2.0640    4.4390 C   0  0  0  0  0  0  0  0  0  0  0  0
    1.9390    3.4360    4.4190 C   0  0  0  0  0  0  0  0  0  0  0  0
    0.8870    4.0640    3.7510 C   0  0  0  0  0  0  0  0  0  0  0  0
   -0.1090    3.3720    3.1390 C   0  0  0  0  0  0  0  0  0  0  0  0
   -2.1930   -0.1060    0.8040 N   0  0  0  0  0  0  0  0  0  0  0  0
   -3.2490    0.2730   -0.0420 C   0  0  0  0  0  0  0  0  0  0  0  0
   -3.2100    1.4260   -0.5490 O   0  0  0  0  0  0  0  0  0  0  0  0
   -4.3400   -0.5030   -0.3780 O   0  0  0  0  0  0  0  0  0  0  0  0
   -5.3500   -0.0050   -1.2350 C   0  0  1  0  0  0  0  0  0  0  0  0
   -5.2590   -0.7950   -2.5290 C   0  0  0  0  0  0  0  0  0  0  0  0
   -5.8980   -2.1430   -2.2830 C   0  0  0  0  0  0  0  0  0  0  0  0
   -7.2620   -2.0480   -2.0790 O   0  0  0  0  0  0  0  0  0  0  0  0
   -7.7020   -0.8400   -1.6040 C   0  0  1  0  0  0  0  0  0  0  0  0
   -8.7330   -1.1300   -0.6770 O   0  0  0  0  0  0  0  0  0  0  0  0
   -7.9910   -1.8480    0.2820 C   0  0  0  0  0  0  0  0  0  0  0  0
   -6.8320   -0.9290    0.5680 C   0  0  2  0  0  0  0  0  0  0  0  0
   -7.0070   -0.1660    1.7090 O   0  0  0  0  0  0  0  0  0  0  0  0
   -6.0400   -0.4180    2.6760 C   0  0  0  0  0  0  0  0  0  0  0  0
   -6.7230   -0.1240   -0.7010 C   0  0  1  0  0  0  0  0  0  0  0  0
    5.6300   -1.6940   -0.6930 C   0  0  0  0  0  0  0  0  0  0  0  0
    6.9560   -1.6640   -1.0670 C   0  0  0  0  0  0  0  0  0  0  0  0
  1  2  1  0
  2  3  1  0
  3  4  2  0
  3 42  1  0
  4  5  1  0
  5  6  2  0
  6  7  1  0
  6 41  1  0
  7  8  2  0
  7  9  2  0
  7 10  1  6
 10 11  1  0
 10 15  1  0
 11 12  1  0
 12 13  1  1
 12 14  1  0
 15 16  1  0
 16 17  1  1
 16 18  1  0
 18 19  1  1
 18 26  1  0
 19 20  1  0
 20 21  2  0
 20 25  1  0
 21 22  1  0
 22 23  2  0
 23 24  1  0
 24 25  2  0
 26 27  1  0
 27 28  2  0
 27 29  1  0
 30 29  1  1
 30 31  1  0
 40 30  1  6
 31 32  1  0
 32 33  1  0
 34 33  1  1
 34 35  1  0
 34 40  1  0
 35 36  1  0
 36 37  1  0
 37 38  1  1
 37 40  1  0
 38 39  1  0
 41 42  2  0
M  END
