
     RDKit          3D

 42 45  0  0  0  0  0  0  0  0999 V2000
    3.5690   -6.3610    0.0390 C   0  0  0  0  0  0  0  0  0  0  0  0
    3.2820   -4.9090    0.0810 C   0  0  0  0  0  0  0  0  0  0  0  0
    4.1060   -4.0780    0.7630 C   0  0  0  0  0  0  0  0  0  0  0  0
    5.1970   -4.5860    1.4080 F   0  0  0  0  0  0  0  0  0  0  0  0
    3.8260   -2.7400    0.7930 C   0  0  0  0  0  0  0  0  0  0  0  0
    2.7090   -2.1290    0.1510 C   0  0  0  0  0  0  0  0  0  0  0  0
    1.8810   -2.9930   -0.5310 C   0  0  0  0  0  0  0  0  0  0  0  0
    2.1990   -4.3980   -0.5540 C   0  0  0  0  0  0  0  0  0  0  0  0
    1.4360   -5.2580   -1.3170 F   0  0  0  0  0  0  0  0  0  0  0  0
    0.6420   -2.7190   -1.2620 C   0  0  0  0  0  0  0  0  0  0  0  0
    0.8610   -2.8150   -2.5540 O   0  0  0  0  0  0  0  0  0  0  0  0
   -0.6450   -2.3970   -0.7770 O   0  0  0  0  0  0  0  0  0  0  0  0
   -1.6050   -3.3280   -0.3180 C   0  0  2  0  0  0  0  0  0  0  0  0
   -2.3160   -4.0850   -1.4420 C   0  0  2  0  0  0  0  0  0  0  0  0
   -1.3920   -4.7910   -2.1960 F   0  0  0  0  0  0  0  0  0  0  0  0
   -3.1080   -3.3140   -2.2210 F   0  0  0  0  0  0  0  0  0  0  0  0
   -2.5430   -2.9270    0.7020 C   0  0  0  0  0  0  0  0  0  0  0  0
   -3.2290   -1.8140    0.7050 C   0  0  0  0  0  0  0  0  0  0  0  0
   -3.1470   -0.7830   -0.3460 C   0  0  1  0  0  0  0  0  0  0  0  0
   -4.4880   -0.4730   -0.9600 C   0  0  0  0  0  0  0  0  0  0  0  0
   -4.2960    0.9900   -1.3650 C   0  0  0  0  0  0  0  0  0  0  0  0
   -3.6620    1.5450   -0.1190 C   0  0  2  0  0  0  0  0  0  0  0  0
   -3.1030    2.9080   -0.3880 C   0  0  1  0  0  0  0  0  0  0  0  0
   -4.2710    3.7820   -0.8340 C   0  0  0  0  0  0  0  0  0  0  0  0
   -2.5510    3.5600    0.8620 C   0  0  0  0  0  0  0  0  0  0  0  0
   -2.7440    0.5200    0.3840 C   0  0  2  0  0  0  0  0  0  0  0  0
   -1.2900    0.6740    0.1450 C   0  0  0  0  0  0  0  0  0  0  0  0
   -0.5100   -0.0350    1.1390 N   0  0  0  0  0  0  0  0  0  0  0  0
    0.8250    0.2340    1.5470 C   0  0  0  0  0  0  0  0  0  0  0  0
    0.9050    0.4720    2.8420 O   0  0  0  0  0  0  0  0  0  0  0  0
    2.0670    0.2830    0.7780 C   0  0  0  0  0  0  0  0  0  0  0  0
    2.6420    1.6660    0.6650 C   0  0  0  0  0  0  0  0  0  0  0  0
    2.0900    2.7360    1.3360 C   0  0  0  0  0  0  0  0  0  0  0  0
    2.6080    4.0030    1.2190 C   0  0  0  0  0  0  0  0  0  0  0  0
    2.0440    5.0250    1.8900 F   0  0  0  0  0  0  0  0  0  0  0  0
    3.7050    4.2730    0.4270 C   0  0  0  0  0  0  0  0  0  0  0  0
    4.2780    5.6170    0.2860 C   0  0  0  0  0  0  0  0  0  0  0  0
    5.3750    5.6490   -0.5620 O   0  0  0  0  0  0  0  0  0  0  0  0
    4.2590    3.2220   -0.2430 C   0  0  0  0  0  0  0  0  0  0  0  0
    5.3330    3.4260   -1.0310 F   0  0  0  0  0  0  0  0  0  0  0  0
    3.7260    1.9190   -0.1220 C   0  0  0  0  0  0  0  0  0  0  0  0
    2.7730   -0.6780    0.2460 C   0  0  0  0  0  0  0  0  0  0  0  0
  1  2  1  0
  2  3  2  0
  2  8  1  0
  3  4  1  0
  3  5  1  0
  5  6  2  0
  6  7  1  0
  6 42  1  0
  7  8  2  0
  7 10  1  0
  8  9  1  0
 10 11  2  0
 10 12  1  0
 13 12  1  6
 13 14  1  0
 13 17  1  0
 14 15  1  6
 14 16  1  0
 17 18  2  0
 18 19  1  0
 19 20  1  1
 19 26  1  0
 20 21  1  0
 22 21  1  6
 22 23  1  0
 22 26  1  0
 23 24  1  1
 23 25  1  0
 26 27  1  6
 27 28  1  0
 28 29  1  0
 29 30  2  0
 29 31  1  0
 31 32  1  0
 31 42  2  0
 32 33  2  0
 32 41  1  0
 33 34  1  0
 34 35  1  0
 34 36  2  0
 36 37  1  0
 36 39  1  0
 37 38  1  0
 39 40  1  0
 39 41  2  0
M  END
