
     RDKit          3D

 42 46  0  0  0  0  0  0  0  0999 V2000
   -9.4850    0.3300    1.0860 C   0  0  0  0  0  0  0  0  0  0  0  0
   -8.1340    0.1170    0.9790 O   0  0  0  0  0  0  0  0  0  0  0  0
   -7.3660    0.5930    2.0200 C   0  0  2  0  0  0  0  0  0  0  0  0
   -6.4790    1.7450    1.7420 C   0  0  0  0  0  0  0  0  0  0  0  0
   -7.1950    2.8860    1.3340 O   0  0  0  0  0  0  0  0  0  0  0  0
   -6.7690   -0.4390    2.8760 C   0  0  0  0  0  0  0  0  0  0  0  0
   -5.8570   -1.4630    2.3640 C   0  0  0  0  0  0  0  0  0  0  0  0
   -4.5670   -1.1160    1.7840 C   0  0  0  0  0  0  0  0  0  0  0  0
   -3.4470   -1.1520    2.6550 C   0  0  0  0  0  0  0  0  0  0  0  0
   -2.1810   -0.8660    2.2240 C   0  0  0  0  0  0  0  0  0  0  0  0
   -0.9260   -0.8120    2.7920 C   0  0  0  0  0  0  0  0  0  0  0  0
   -0.0260   -0.4470    1.7830 C   0  0  0  0  0  0  0  0  0  0  0  0
    1.4100   -0.2690    1.9310 C   0  0  0  0  0  0  0  0  0  0  0  0
    1.9070   -0.4520    3.0800 O   0  0  0  0  0  0  0  0  0  0  0  0
    2.2130    0.0990    0.8010 N   0  0  0  0  0  0  0  0  0  0  0  0
    1.7810    0.3310   -0.5370 C   0  0  0  0  0  0  0  0  0  0  0  0
    2.9110    0.9580   -1.2590 C   0  0  0  0  0  0  0  0  0  0  0  0
    4.1160    0.4020   -0.5000 C   0  0  2  0  0  0  0  0  0  0  0  0
    4.6490   -0.8200   -1.1420 C   0  0  0  0  0  0  0  0  0  0  0  0
    6.0610   -1.5430   -0.3650 S   0  0  1  0  0  0  0  0  0  0  0  0
    5.7080   -2.0220    1.0010 O   0  0  0  0  0  0  0  0  0  0  0  0
    6.5260   -2.7460   -1.1960 O   0  0  0  0  0  0  0  0  0  0  0  0
    7.3090   -0.3760   -0.3370 N   0  0  0  0  0  0  0  0  0  0  0  0
    7.7670    0.0880   -1.5790 C   0  0  0  0  0  0  0  0  0  0  0  0
    9.1800    0.5040   -1.7040 C   0  0  2  0  0  0  0  0  0  0  0  0
    9.9010   -0.1660   -2.8650 C   0  0  0  0  0  0  0  0  0  0  0  0
    9.9620    0.3280   -0.5720 O   0  0  0  0  0  0  0  0  0  0  0  0
    9.2430    0.6560    0.5720 C   0  0  2  0  0  0  0  0  0  0  0  0
   10.1640    0.7530    1.7460 C   0  0  0  0  0  0  0  0  0  0  0  0
    8.2130   -0.4590    0.7460 C   0  0  0  0  0  0  0  0  0  0  0  0
    3.6380    0.2830    0.9070 C   0  0  0  0  0  0  0  0  0  0  0  0
   -0.7150   -0.2960    0.6880 O   0  0  0  0  0  0  0  0  0  0  0  0
   -1.9870   -0.5320    0.9010 C   0  0  0  0  0  0  0  0  0  0  0  0
   -3.0690   -0.4950    0.0530 C   0  0  0  0  0  0  0  0  0  0  0  0
   -4.3780   -0.7830    0.4610 C   0  0  0  0  0  0  0  0  0  0  0  0
   -5.3830   -0.7440   -0.3860 O   0  0  0  0  0  0  0  0  0  0  0  0
   -5.7910   -0.7020   -1.6560 C   0  0  1  0  0  0  0  0  0  0  0  0
   -6.7360    0.4340   -1.9320 C   0  0  0  0  0  0  0  0  0  0  0  0
   -6.1100    1.3140   -3.0060 C   0  0  0  0  0  0  0  0  0  0  0  0
   -4.6420    0.8900   -3.0390 C   0  0  0  0  0  0  0  0  0  0  0  0
   -4.7300   -0.5860   -2.7620 C   0  0  2  0  0  0  0  0  0  0  0  0
   -5.3690   -1.1360   -3.9240 O   0  0  0  0  0  0  0  0  0  0  0  0
  1  2  1  0
  2  3  1  0
  3  4  1  6
  3  6  1  0
  4  5  1  0
  6  7  1  0
  7  8  1  0
  8  9  2  0
  8 35  1  0
  9 10  1  0
 10 11  1  0
 10 33  2  0
 11 12  2  0
 12 13  1  0
 12 32  1  0
 13 14  2  0
 13 15  1  0
 15 16  1  0
 15 31  1  0
 16 17  1  0
 17 18  1  0
 18 19  1  6
 18 31  1  0
 20 19  1  6
 20 21  2  0
 20 22  2  0
 20 23  1  0
 23 24  1  0
 23 30  1  0
 24 25  1  0
 25 26  1  6
 25 27  1  0
 27 28  1  0
 28 29  1  1
 28 30  1  0
 32 33  1  0
 33 34  1  0
 34 35  2  0
 35 36  1  0
 37 36  1  1
 37 38  1  0
 37 41  1  0
 38 39  1  0
 39 40  1  0
 40 41  1  0
 41 42  1  6
M  END
