
     RDKit          3D

 42 44  0  0  0  0  0  0  0  0999 V2000
    0.0660    4.6320   -1.7880 C   0  0  0  0  0  0  0  0  0  0  0  0
    0.2680    3.6660   -0.6610 C   0  0  0  0  0  0  0  0  0  0  0  0
    0.9440    2.3860   -1.1570 C   0  0  0  0  0  0  0  0  0  0  0  0
    1.1460    1.4200   -0.0340 C   0  0  2  0  0  0  0  0  0  0  0  0
    1.7500    0.2280   -0.3920 O   0  0  0  0  0  0  0  0  0  0  0  0
    2.6690   -0.2310    0.5230 C   0  0  2  0  0  0  0  0  0  0  0  0
    4.0710   -0.3290    0.0080 C   0  0  0  0  0  0  0  0  0  0  0  0
    4.5840    1.0410   -0.4470 C   0  0  1  0  0  0  0  0  0  0  0  0
    4.5920    1.9610    0.5710 O   0  0  0  0  0  0  0  0  0  0  0  0
    5.9700    0.8070   -1.0130 C   0  0  0  0  0  0  0  0  0  0  0  0
    6.6060    2.0770   -1.5050 C   0  0  0  0  0  0  0  0  0  0  0  0
    2.1790   -1.4600    1.1940 C   0  0  0  0  0  0  0  0  0  0  0  0
    2.2100   -1.3970    2.6020 C   0  0  0  0  0  0  0  0  0  0  0  0
    2.6610   -0.2620    3.2240 F   0  0  0  0  0  0  0  0  0  0  0  0
    1.8030   -2.4410    3.3820 C   0  0  0  0  0  0  0  0  0  0  0  0
    1.3520   -3.5840    2.7720 C   0  0  0  0  0  0  0  0  0  0  0  0
    0.9420   -4.6360    3.5480 F   0  0  0  0  0  0  0  0  0  0  0  0
    1.3230   -3.6450    1.3970 C   0  0  0  0  0  0  0  0  0  0  0  0
    0.8690   -4.8310    0.8980 F   0  0  0  0  0  0  0  0  0  0  0  0
    1.7310   -2.5950    0.5660 C   0  0  0  0  0  0  0  0  0  0  0  0
    1.6450   -2.8240   -0.8860 C   0  0  0  0  0  0  0  0  0  0  0  0
    0.2550   -2.6970   -1.4760 C   0  0  1  0  0  0  0  0  0  0  0  0
    0.3110   -1.5820   -2.3530 O   0  0  0  0  0  0  0  0  0  0  0  0
   -0.0880   -3.8640   -2.3970 C   0  0  1  0  0  0  0  0  0  0  0  0
    0.8360   -3.9190   -3.4500 F   0  0  0  0  0  0  0  0  0  0  0  0
   -0.2460   -5.0600   -1.7590 F   0  0  0  0  0  0  0  0  0  0  0  0
   -1.3060   -3.6240   -3.0420 F   0  0  0  0  0  0  0  0  0  0  0  0
   -0.7830   -2.4240   -0.4570 C   0  0  0  0  0  0  0  0  0  0  0  0
   -1.9660   -1.5930   -0.9280 C   0  0  0  0  0  0  0  0  0  0  0  0
   -1.6970   -0.1380   -0.8730 C   0  0  1  0  0  0  0  0  0  0  0  0
   -2.8900    0.7410   -1.1130 C   0  0  0  0  0  0  0  0  0  0  0  0
   -4.0180    0.6010   -0.2190 C   0  0  0  0  0  0  0  0  0  0  0  0
   -4.0830    1.4300    0.9050 C   0  0  0  0  0  0  0  0  0  0  0  0
   -5.0920    1.3360    1.8260 C   0  0  0  0  0  0  0  0  0  0  0  0
   -5.1530    2.2210    3.0190 C   0  0  0  0  0  0  0  0  0  0  0  0
   -6.0770    0.4060    1.6550 C   0  0  0  0  0  0  0  0  0  0  0  0
   -6.0350   -0.4170    0.5600 C   0  0  0  0  0  0  0  0  0  0  0  0
   -5.0090   -0.3200   -0.3760 C   0  0  0  0  0  0  0  0  0  0  0  0
   -5.0730   -1.2250   -1.5620 C   0  0  0  0  0  0  0  0  0  0  0  0
   -1.0770    0.1830    0.3980 N   0  0  0  0  0  0  0  0  0  0  0  0
   -0.1240    1.1700    0.6470 C   0  0  0  0  0  0  0  0  0  0  0  0
   -0.4050    1.9740    1.6160 O   0  0  0  0  0  0  0  0  0  0  0  0
  1  2  1  0
  2  3  1  0
  4  3  1  6
  4  5  1  0
  4 41  1  0
  5  6  1  0
  6  7  1  6
  6 12  1  0
  7  8  1  0
  8  9  1  1
  8 10  1  0
 10 11  1  0
 12 13  2  0
 12 20  1  0
 13 14  1  0
 13 15  1  0
 15 16  2  0
 16 17  1  0
 16 18  1  0
 18 19  1  0
 18 20  2  0
 20 21  1  0
 21 22  1  0
 22 23  1  6
 22 24  1  0
 22 28  1  0
 24 25  1  6
 24 26  1  0
 24 27  1  0
 28 29  1  0
 29 30  1  0
 30 31  1  1
 30 40  1  0
 31 32  1  0
 32 33  2  0
 32 38  1  0
 33 34  1  0
 34 35  1  0
 34 36  2  0
 36 37  1  0
 37 38  2  0
 38 39  1  0
 40 41  1  0
 41 42  2  0
M  END
