
     RDKit          3D

 42 46  0  0  0  0  0  0  0  0999 V2000
    1.9730    2.3930   -5.0450 C   0  0  0  0  0  0  0  0  0  0  0  0
    1.9560    2.1960   -3.6490 O   0  0  0  0  0  0  0  0  0  0  0  0
    2.5040    0.9580   -3.4160 C   0  0  0  0  0  0  0  0  0  0  0  0
    2.5630    0.5850   -1.9630 C   0  0  2  0  0  0  0  0  0  0  0  0
    1.2290    0.5510   -1.3260 C   0  0  0  0  0  0  0  0  0  0  0  0
    0.1360    0.3940   -2.1650 O   0  0  0  0  0  0  0  0  0  0  0  0
    1.0530    0.6630   -0.0250 C   0  0  0  0  0  0  0  0  0  0  0  0
   -0.2650    0.6270    0.6000 C   0  0  0  0  0  0  0  0  0  0  0  0
   -0.3490    0.7410    1.8550 O   0  0  0  0  0  0  0  0  0  0  0  0
   -1.5210    0.4660   -0.1330 C   0  0  0  0  0  0  0  0  0  0  0  0
   -2.7300    0.4680    0.7790 C   0  0  1  0  0  0  0  0  0  0  0  0
   -3.9880    0.2970   -0.0450 C   0  0  0  0  0  0  0  0  0  0  0  0
   -4.7180   -0.6940    0.1090 O   0  0  0  0  0  0  0  0  0  0  0  0
   -4.2960    1.2880   -0.9800 N   0  0  0  0  0  0  0  0  0  0  0  0
   -5.4150    1.3610   -1.8460 C   0  0  0  0  0  0  0  0  0  0  0  0
   -6.7100    1.5300   -1.1660 C   0  0  0  0  0  0  0  0  0  0  0  0
   -7.4750    2.6490   -1.3370 C   0  0  0  0  0  0  0  0  0  0  0  0
   -8.7000    2.5460   -0.5520 C   0  0  0  0  0  0  0  0  0  0  0  0
   -8.6090    1.2460    0.0960 C   0  0  0  0  0  0  0  0  0  0  0  0
   -7.4480    0.6870   -0.2790 C   0  0  0  0  0  0  0  0  0  0  0  0
   -2.6380   -0.7070    1.6820 C   0  0  0  0  0  0  0  0  0  0  0  0
   -2.6720   -0.6240    3.0540 C   0  0  0  0  0  0  0  0  0  0  0  0
   -2.5780   -1.7870    3.7830 C   0  0  0  0  0  0  0  0  0  0  0  0
   -2.4510   -3.0340    3.1980 C   0  0  0  0  0  0  0  0  0  0  0  0
   -2.4170   -3.1210    1.8220 C   0  0  0  0  0  0  0  0  0  0  0  0
   -2.5110   -1.9500    1.0830 C   0  0  0  0  0  0  0  0  0  0  0  0
   -2.2860   -4.4590    1.4810 O   0  0  0  0  0  0  0  0  0  0  0  0
   -2.5970   -5.2560    2.6300 C   0  0  0  0  0  0  0  0  0  0  0  0
   -2.3400   -4.3430    3.6970 O   0  0  0  0  0  0  0  0  0  0  0  0
    2.2630    0.8450    0.8190 C   0  0  0  0  0  0  0  0  0  0  0  0
    2.0680    0.9470    2.0600 O   0  0  0  0  0  0  0  0  0  0  0  0
    3.5270    0.8900    0.1770 N   0  0  0  0  0  0  0  0  0  0  0  0
    4.8020    0.4920    0.6590 C   0  0  1  0  0  0  0  0  0  0  0  0
    4.6710   -0.5710    1.6940 C   0  0  0  0  0  0  0  0  0  0  0  0
    5.7560   -1.1100    2.2980 O   0  0  0  0  0  0  0  0  0  0  0  0
    6.6960   -1.9600    1.8390 C   0  0  0  0  0  0  0  0  0  0  0  0
    7.8010   -2.3490    2.7750 C   0  0  0  0  0  0  0  0  0  0  0  0
    6.7220   -2.4510    0.6910 O   0  0  0  0  0  0  0  0  0  0  0  0
    5.7430    0.2320   -0.3990 C   0  0  2  0  0  0  0  0  0  0  0  0
    7.1660    0.6020   -0.0290 C   0  0  0  0  0  0  0  0  0  0  0  0
    5.1820    1.4110   -1.7390 S   0  0  0  0  0  0  0  0  0  0  0  0
    3.4720    1.4380   -1.1540 C   0  0  1  0  0  0  0  0  0  0  0  0
  1  2  1  0
  2  3  1  0
  4  3  1  6
  4  5  1  0
  4 42  1  0
  5  6  1  0
  5  7  2  0
  7  8  1  0
  7 30  1  0
  8  9  2  0
  8 10  1  0
 11 10  1  6
 11 12  1  0
 11 21  1  0
 12 13  2  0
 12 14  1  0
 14 15  1  0
 15 16  1  0
 16 17  2  0
 16 20  1  0
 17 18  1  0
 18 19  1  0
 19 20  2  0
 21 22  2  0
 21 26  1  0
 22 23  1  0
 23 24  2  0
 24 25  1  0
 24 29  1  0
 25 26  2  0
 25 27  1  0
 27 28  1  0
 28 29  1  0
 30 31  2  0
 30 32  1  0
 32 33  1  0
 32 42  1  0
 33 34  1  6
 33 39  1  0
 34 35  1  0
 35 36  1  0
 36 37  1  0
 36 38  2  0
 39 40  1  1
 39 41  1  0
 42 41  1  6
M  END
