
     RDKit          3D

 42 45  0  0  0  0  0  0  0  0999 V2000
   -2.0470   -2.6460   -0.8530 C   0  0  0  0  0  0  0  0  0  0  0  0
   -1.0960   -1.6330   -0.1720 C   0  0  1  0  0  0  0  0  0  0  0  0
   -1.1220   -2.1910    1.1920 C   0  0  0  0  0  0  0  0  0  0  0  0
    0.3350   -1.8950   -0.5730 C   0  0  2  0  0  0  0  0  0  0  0  0
    0.7570   -3.0500   -0.0190 O   0  0  0  0  0  0  0  0  0  0  0  0
    1.0700   -0.6140   -0.2710 C   0  0  1  0  0  0  0  0  0  0  0  0
    1.6450   -0.5840    1.1570 C   0  0  0  0  0  0  0  0  0  0  0  0
    2.6070   -1.5950    1.5760 C   0  0  0  0  0  0  0  0  0  0  0  0
    2.9290   -1.4770    3.0440 C   0  0  0  0  0  0  0  0  0  0  0  0
    3.5260   -0.1910    3.5160 C   0  0  2  0  0  0  0  0  0  0  0  0
    2.6510    0.8380    3.2340 F   0  0  0  0  0  0  0  0  0  0  0  0
    4.7480    0.0100    2.9170 F   0  0  0  0  0  0  0  0  0  0  0  0
    3.6880   -0.2340    4.9130 F   0  0  0  0  0  0  0  0  0  0  0  0
    2.2970   -0.5520   -1.1080 C   0  0  0  0  0  0  0  0  0  0  0  0
    3.2760    0.4650   -1.2430 C   0  0  1  0  0  0  0  0  0  0  0  0
    4.1880    1.0790   -0.3100 C   0  0  0  0  0  0  0  0  0  0  0  0
    5.3480    1.8090   -1.0620 C   0  0  0  0  0  0  0  0  0  0  0  0
    6.3090    0.7190   -1.4670 C   0  0  0  0  0  0  0  0  0  0  0  0
    5.4820   -0.4190   -2.0210 C   0  0  0  0  0  0  0  0  0  0  0  0
    4.1450    0.1510   -2.4980 C   0  0  0  0  0  0  0  0  0  0  0  0
    0.0280    0.2850   -0.4450 N   0  0  0  0  0  0  0  0  0  0  0  0
   -1.3500   -0.2360   -0.4890 C   0  0  1  0  0  0  0  0  0  0  0  0
   -1.8870   -0.0340   -1.9140 C   0  0  2  0  0  0  0  0  0  0  0  0
   -3.0640   -0.6260   -2.4760 C   0  0  0  0  0  0  0  0  0  0  0  0
   -4.3500   -0.2200   -2.1310 O   0  0  0  0  0  0  0  0  0  0  0  0
   -0.8160   -0.3370   -2.9910 C   0  0  0  0  0  0  0  0  0  0  0  0
   -1.2390    0.5030   -4.2190 C   0  0  0  0  0  0  0  0  0  0  0  0
   -2.0150    1.5480   -3.5420 C   0  0  0  0  0  0  0  0  0  0  0  0
   -1.9280    1.2740   -2.2780 O   0  0  0  0  0  0  0  0  0  0  0  0
   -2.1000    0.6420    0.5310 C   0  0  1  0  0  0  0  0  0  0  0  0
   -2.2080    2.0170   -0.1870 C   0  0  0  0  0  0  0  0  0  0  0  0
   -3.5830    0.2850    0.6770 C   0  0  0  0  0  0  0  0  0  0  0  0
   -4.0260    0.8880    2.0340 C   0  0  2  0  0  0  0  0  0  0  0  0
   -4.4630   -0.1110    3.0020 C   0  0  0  0  0  0  0  0  0  0  0  0
   -5.2840    1.7830    1.8680 C   0  0  1  0  0  0  0  0  0  0  0  0
   -5.1230    2.8210    1.0400 F   0  0  0  0  0  0  0  0  0  0  0  0
   -6.2300    0.9200    1.2960 F   0  0  0  0  0  0  0  0  0  0  0  0
   -5.6810    2.0850    3.1320 F   0  0  0  0  0  0  0  0  0  0  0  0
   -3.0280    1.7350    2.1380 O   0  0  0  0  0  0  0  0  0  0  0  0
   -1.7760    1.0220    1.8420 C   0  0  1  0  0  0  0  0  0  0  0  0
   -1.7470    0.3250    3.1380 C   0  0  0  0  0  0  0  0  0  0  0  0
   -0.8650    2.2450    2.1120 C   0  0  0  0  0  0  0  0  0  0  0  0
  2  1  1  6
  2  3  1  0
  2  4  1  0
  2 22  1  0
  4  5  1  1
  4  6  1  0
  6  7  1  1
  6 14  1  0
  6 21  1  0
  7  8  1  0
  8  9  1  0
  9 10  1  0
 10 11  1  1
 10 12  1  0
 10 13  1  0
 15 14  1  1
 15 16  1  0
 15 20  1  0
 16 17  1  0
 17 18  1  0
 18 19  1  0
 19 20  1  0
 22 21  1  6
 22 23  1  0
 22 30  1  0
 23 24  1  6
 23 26  1  0
 23 29  1  0
 24 25  1  0
 26 27  1  0
 27 28  1  0
 28 29  1  0
 30 31  1  6
 30 32  1  0
 30 40  1  0
 32 33  1  0
 33 34  1  1
 33 35  1  0
 33 39  1  0
 35 36  1  6
 35 37  1  0
 35 38  1  0
 39 40  1  0
 40 41  1  1
 40 42  1  0
M  CHG  1  21   1
M  END
