
     RDKit          3D

 39 43  0  0  0  0  0  0  0  0999 V2000
    2.6990   -1.9150   -3.5840 C   0  0  0  0  0  0  0  0  0  0  0  0
    1.8380   -1.7030   -2.4750 O   0  0  0  0  0  0  0  0  0  0  0  0
    0.4760   -1.7030   -2.6570 C   0  0  0  0  0  0  0  0  0  0  0  0
    0.0010   -1.8880   -3.7790 O   0  0  0  0  0  0  0  0  0  0  0  0
   -0.4400   -1.4800   -1.5060 C   0  0  0  0  0  0  0  0  0  0  0  0
   -1.7050   -1.4910   -1.7700 C   0  0  0  0  0  0  0  0  0  0  0  0
   -2.2240   -1.7700   -3.5380 S   0  0  0  0  0  0  0  0  0  0  0  0
   -3.6310   -2.8220   -3.0120 C   0  0  0  0  0  0  0  0  0  0  0  0
   -3.9670   -2.1900   -1.7440 C   0  0  0  0  0  0  0  0  0  0  0  0
   -5.1210   -2.3480   -1.2670 O   0  0  0  0  0  0  0  0  0  0  0  0
   -2.9440   -1.4250   -1.1270 N   0  0  0  0  0  0  0  0  0  0  0  0
   -3.1730   -0.6510    0.0720 C   0  0  0  0  0  0  0  0  0  0  0  0
   -3.6020    0.7520   -0.1340 C   0  0  2  0  0  0  0  0  0  0  0  0
   -2.6660    1.6490   -0.8640 C   0  0  0  0  0  0  0  0  0  0  0  0
   -3.5230    2.8330   -1.3460 C   0  0  0  0  0  0  0  0  0  0  0  0
   -4.0400    3.4290   -0.0600 C   0  0  0  0  0  0  0  0  0  0  0  0
   -4.4000    4.7670   -0.1310 C   0  0  0  0  0  0  0  0  0  0  0  0
   -4.8800    5.4060    0.9790 C   0  0  0  0  0  0  0  0  0  0  0  0
   -4.9980    4.7040    2.1610 C   0  0  0  0  0  0  0  0  0  0  0  0
   -4.6370    3.3730    2.2190 C   0  0  0  0  0  0  0  0  0  0  0  0
   -4.1470    2.7010    1.1050 C   0  0  0  0  0  0  0  0  0  0  0  0
   -3.7780    1.3410    1.1680 O   0  0  0  0  0  0  0  0  0  0  0  0
    0.2680   -1.3470   -0.2290 C   0  0  1  0  0  0  0  0  0  0  0  0
    0.0530    0.0990    0.7630 S   0  0  0  0  0  0  0  0  0  0  0  0
    0.7920    1.5730    0.0010 C   0  0  0  0  0  0  0  0  0  0  0  0
    2.2960    1.4770   -0.0790 C   0  0  0  0  0  0  0  0  0  0  0  0
    2.9370    1.3360    1.1840 N   0  0  0  0  0  0  0  0  0  0  0  0
    4.1120    2.1430    1.3610 C   0  0  1  0  0  0  0  0  0  0  0  0
    5.2870    1.3410    1.8820 C   0  0  0  0  0  0  0  0  0  0  0  0
    6.4800    2.1270    1.4030 C   0  0  0  0  0  0  0  0  0  0  0  0
    6.0010    3.1110    0.4810 N   0  0  0  0  0  0  0  0  0  0  0  0
    4.6500    2.7360    0.1030 C   0  0  0  0  0  0  0  0  0  0  0  0
    0.4420   -2.6390    0.4300 C   0  0  0  0  0  0  0  0  0  0  0  0
    1.6800   -3.2000    0.6090 C   0  0  0  0  0  0  0  0  0  0  0  0
    1.8780   -4.4230    1.2280 C   0  0  0  0  0  0  0  0  0  0  0  0
    0.8140   -5.1440    1.7010 C   0  0  0  0  0  0  0  0  0  0  0  0
    1.0300   -6.4550    2.3640 C   0  0  0  0  0  0  0  0  0  0  0  0
   -0.4350   -4.5930    1.5280 C   0  0  0  0  0  0  0  0  0  0  0  0
   -0.6350   -3.3780    0.9130 C   0  0  0  0  0  0  0  0  0  0  0  0
  1  2  1  0
  2  3  1  0
  3  4  2  0
  3  5  1  0
  5  6  2  3
  5 23  1  0
  6  7  1  0
  6 11  1  0
  7  8  1  0
  8  9  1  0
  9 10  2  0
  9 11  1  0
 11 12  1  0
 13 12  1  1
 13 14  1  0
 13 22  1  0
 14 15  1  0
 15 16  1  0
 16 17  2  0
 16 21  1  0
 17 18  1  0
 18 19  2  0
 19 20  1  0
 20 21  2  0
 21 22  1  0
 23 24  1  1
 23 33  1  0
 24 25  1  0
 25 26  1  0
 26 27  1  0
 28 27  1  6
 28 29  1  0
 28 32  1  0
 29 30  1  0
 30 31  1  0
 31 32  1  0
 33 34  2  0
 33 39  1  0
 34 35  1  0
 35 36  2  0
 36 37  1  0
 36 38  1  0
 38 39  2  0
M  CHG  1  27   1
M  END
