
     RDKit          3D

 39 42  0  0  0  0  0  0  0  0999 V2000
    3.9350    5.1110    2.2700 C   0  0  0  0  0  0  0  0  0  0  0  0
    3.7060    6.0040    1.1060 C   0  0  0  0  0  0  0  0  0  0  0  0
    4.1940    5.2970   -0.4090 S   0  0  2  0  0  0  0  0  0  0  0  0
    5.6980    5.0420   -0.4470 O   0  0  0  0  0  0  0  0  0  0  0  0
    3.9770    6.2990   -1.5510 O   0  0  0  0  0  0  0  0  0  0  0  0
    3.3960    3.8240   -0.8770 C   0  0  0  0  0  0  0  0  0  0  0  0
    3.5950    2.6260   -0.0000 C   0  0  2  0  0  0  0  0  0  0  0  0
    5.0570    2.2350    0.0180 C   0  0  0  0  0  0  0  0  0  0  0  0
    2.7690    1.5660   -0.6030 N   0  0  0  0  0  0  0  0  0  0  0  0
    2.0130    0.6820    0.1710 C   0  0  0  0  0  0  0  0  0  0  0  0
    2.0600    0.7990    1.4240 O   0  0  0  0  0  0  0  0  0  0  0  0
    1.1490   -0.4000   -0.4220 C   0  0  1  0  0  0  0  0  0  0  0  0
    1.0570   -1.4330    0.6060 N   0  0  0  0  0  0  0  0  0  0  0  0
    1.4880   -2.7580    0.3630 C   0  0  0  0  0  0  0  0  0  0  0  0
    1.9500   -2.9690   -0.8030 O   0  0  0  0  0  0  0  0  0  0  0  0
    1.4490   -3.8790    1.3170 C   0  0  1  0  0  0  0  0  0  0  0  0
    0.0380   -4.1810    1.7680 C   0  0  0  0  0  0  0  0  0  0  0  0
   -0.2330   -5.6490    1.8790 C   0  0  0  0  0  0  0  0  0  0  0  0
    0.3230   -6.4590    0.7300 C   0  0  2  0  0  0  0  0  0  0  0  0
    1.4870   -7.2720    1.2670 C   0  0  0  0  0  0  0  0  0  0  0  0
    2.5180   -6.1650    1.4960 C   0  0  0  0  0  0  0  0  0  0  0  0
    2.0160   -5.0950    0.6020 C   0  0  1  0  0  0  0  0  0  0  0  0
    0.9810   -5.6260   -0.1690 O   0  0  0  0  0  0  0  0  0  0  0  0
   -0.1660    0.2380   -0.6530 C   0  0  0  0  0  0  0  0  0  0  0  0
   -0.6590    0.3450   -1.9290 C   0  0  0  0  0  0  0  0  0  0  0  0
   -1.8790    0.9330   -2.2160 C   0  0  0  0  0  0  0  0  0  0  0  0
   -2.6410    1.4350   -1.2070 C   0  0  0  0  0  0  0  0  0  0  0  0
   -3.8600    2.0270   -1.4420 O   0  0  0  0  0  0  0  0  0  0  0  0
   -5.0130    1.2320   -1.3930 C   0  0  0  0  0  0  0  0  0  0  0  0
   -4.9310   -0.1140   -1.1250 C   0  0  0  0  0  0  0  0  0  0  0  0
   -6.0520   -0.8980   -1.0740 C   0  0  0  0  0  0  0  0  0  0  0  0
   -7.2660   -0.2970   -1.2990 C   0  0  0  0  0  0  0  0  0  0  0  0
   -7.3320    1.0770   -1.5700 C   0  0  0  0  0  0  0  0  0  0  0  0
   -6.2300    1.8910   -1.6300 C   0  0  0  0  0  0  0  0  0  0  0  0
   -6.2200    3.2730   -1.9100 N   0  0  0  0  0  0  0  0  0  0  0  0
   -7.3840    4.0350   -2.1280 C   0  0  0  0  0  0  0  0  0  0  0  0
   -8.5190    3.5450   -2.0850 O   0  0  0  0  0  0  0  0  0  0  0  0
   -2.1630    1.3380    0.0820 C   0  0  0  0  0  0  0  0  0  0  0  0
   -0.9450    0.7500    0.3710 C   0  0  0  0  0  0  0  0  0  0  0  0
  1  2  1  0
  3  2  1  1
  3  4  2  0
  3  5  2  0
  3  6  1  0
  6  7  1  0
  7  8  1  6
  7  9  1  0
  9 10  1  0
 10 11  2  0
 10 12  1  0
 12 13  1  1
 12 24  1  0
 13 14  1  0
 14 15  2  0
 16 14  1  6
 16 17  1  0
 16 22  1  0
 17 18  1  0
 19 18  1  1
 19 20  1  0
 19 23  1  0
 20 21  1  0
 22 21  1  1
 22 23  1  0
 24 25  2  0
 24 39  1  0
 25 26  1  0
 26 27  2  0
 27 28  1  0
 27 38  1  0
 28 29  1  0
 29 30  2  0
 29 34  1  0
 30 31  1  0
 31 32  2  0
 32 33  1  0
 33 34  2  0
 34 35  1  0
 35 36  1  0
 36 37  2  0
 38 39  2  0
M  END
