
     RDKit          3D

 38 41  0  0  0  0  0  0  0  0999 V2000
   -3.4050    1.5720    2.3490 C   0  0  0  0  0  0  0  0  0  0  0  0
   -3.3100    0.9310    1.0010 C   0  0  2  0  0  0  0  0  0  0  0  0
   -4.0700   -0.3770    0.9970 C   0  0  1  0  0  0  0  0  0  0  0  0
   -5.4300   -0.1030    0.4430 C   0  0  0  0  0  0  0  0  0  0  0  0
   -5.7880   -0.7060   -0.5740 O   0  0  0  0  0  0  0  0  0  0  0  0
   -6.3080    0.8280    1.0570 N   0  0  0  0  0  0  0  0  0  0  0  0
   -7.6150    1.1800    0.6360 C   0  0  0  0  0  0  0  0  0  0  0  0
   -7.7370    1.7890   -0.7300 C   0  0  2  0  0  0  0  0  0  0  0  0
   -9.2100    2.0430   -0.9780 C   0  0  0  0  0  0  0  0  0  0  0  0
   -9.6320    0.6770   -1.5320 C   0  0  0  0  0  0  0  0  0  0  0  0
   -8.3630    0.2400   -2.2270 C   0  0  0  0  0  0  0  0  0  0  0  0
   -7.3350    1.0190   -1.7760 O   0  0  0  0  0  0  0  0  0  0  0  0
   -3.4510   -1.3500    0.1950 O   0  0  0  0  0  0  0  0  0  0  0  0
   -2.7180   -0.9930   -0.9260 C   0  0  0  0  0  0  0  0  0  0  0  0
   -2.7410   -1.5950   -2.0200 O   0  0  0  0  0  0  0  0  0  0  0  0
   -1.8870    0.1650   -0.7620 N   0  0  0  0  0  0  0  0  0  0  0  0
   -1.8720    0.7240    0.5780 C   0  0  2  0  0  0  0  0  0  0  0  0
   -1.1630   -0.2020    1.5220 C   0  0  0  0  0  0  0  0  0  0  0  0
    0.2770   -0.3580    1.0250 C   0  0  0  0  0  0  0  0  0  0  0  0
    1.0180   -1.2770    1.9440 C   0  0  0  0  0  0  0  0  0  0  0  0
    2.4370   -1.4330    1.4540 C   0  0  0  0  0  0  0  0  0  0  0  0
    2.7880   -0.7980    0.3840 C   0  0  0  0  0  0  0  0  0  0  0  0
    4.1130   -0.8560   -0.1790 C   0  0  0  0  0  0  0  0  0  0  0  0
    4.2600   -1.2620   -1.4930 C   0  0  0  0  0  0  0  0  0  0  0  0
    5.4670   -1.2940   -2.1130 C   0  0  0  0  0  0  0  0  0  0  0  0
    6.6460   -0.9170   -1.4560 C   0  0  0  0  0  0  0  0  0  0  0  0
    6.5010   -0.5180   -0.1640 C   0  0  0  0  0  0  0  0  0  0  0  0
    5.2860   -0.4870    0.4550 C   0  0  0  0  0  0  0  0  0  0  0  0
    8.1280   -0.1130    0.4280 S   0  0  0  0  0  0  0  0  0  0  0  0
    9.0510   -0.8690   -0.9750 C   0  0  2  0  0  0  0  0  0  0  0  0
   10.1250    0.0700   -1.3920 C   0  0  0  0  0  0  0  0  0  0  0  0
    9.4940    1.3770   -1.8180 C   0  0  0  0  0  0  0  0  0  0  0  0
   10.4680    2.2910   -2.2170 O   0  0  0  0  0  0  0  0  0  0  0  0
    7.9700   -0.8990   -1.9850 C   0  0  0  0  0  0  0  0  0  0  0  0
    8.2810   -0.9070   -3.2330 O   0  0  0  0  0  0  0  0  0  0  0  0
    3.2340   -2.3680    2.2220 C   0  0  0  0  0  0  0  0  0  0  0  0
    4.5390   -2.7390    1.8620 N   0  0  0  0  0  0  0  0  0  0  0  0
    2.7550   -2.9040    3.2900 O   0  0  0  0  0  0  0  0  0  0  0  0
  2  1  1  1
  2  3  1  0
  2 17  1  0
  3  4  1  6
  3 13  1  0
  4  5  2  0
  4  6  1  0
  6  7  1  0
  8  7  1  1
  8  9  1  0
  8 12  1  0
  9 10  1  0
 10 11  1  0
 11 12  1  0
 13 14  1  0
 14 15  2  0
 14 16  1  0
 16 17  1  0
 17 18  1  1
 18 19  1  0
 19 20  1  0
 20 21  1  0
 21 22  2  3
 21 36  1  0
 22 23  1  0
 23 24  2  0
 23 28  1  0
 24 25  1  0
 25 26  2  0
 26 27  1  0
 26 34  1  0
 27 28  2  0
 27 29  1  0
 29 30  1  0
 30 31  1  6
 30 34  1  0
 31 32  1  0
 32 33  1  0
 34 35  2  0
 36 37  1  0
 36 38  2  0
M  END
