
     RDKit          3D

 39 43  0  0  0  0  0  0  0  0999 V2000
   -7.8530    1.8650   -0.8800 C   0  0  0  0  0  0  0  0  0  0  0  0
   -7.4950    2.4860    0.4180 N   0  0  0  0  0  0  0  0  0  0  0  0
   -7.0310    1.3810    1.2720 C   0  0  0  0  0  0  0  0  0  0  0  0
   -5.9970    0.6020    0.6220 C   0  0  0  0  0  0  0  0  0  0  0  0
   -4.7760    1.1420    0.3030 C   0  0  0  0  0  0  0  0  0  0  0  0
   -3.7120    0.3250   -0.1130 C   0  0  0  0  0  0  0  0  0  0  0  0
   -2.5040    0.8390   -0.2830 N   0  0  0  0  0  0  0  0  0  0  0  0
   -1.4340    0.0170   -0.5530 C   0  0  0  0  0  0  0  0  0  0  0  0
   -0.1000    0.6420   -0.4750 C   0  0  0  0  0  0  0  0  0  0  0  0
    0.1340    1.8150   -0.9780 C   0  0  0  0  0  0  0  0  0  0  0  0
   -1.1290    2.7120   -1.8140 S   0  0  0  0  0  0  0  0  0  0  0  0
   -1.0230    4.4930   -1.5450 C   0  0  0  0  0  0  0  0  0  0  0  0
    1.3670    2.5410   -0.5520 C   0  0  0  0  0  0  0  0  0  0  0  0
    1.6890    3.5850   -1.1070 O   0  0  0  0  0  0  0  0  0  0  0  0
    2.1160    2.0570    0.4560 O   0  0  0  0  0  0  0  0  0  0  0  0
    3.2180    2.4150    1.0910 C   0  0  0  0  0  0  0  0  0  0  0  0
    4.5820    2.2060    0.4390 C   0  0  0  0  0  0  0  0  0  0  0  0
    4.7250    0.7120    0.1660 C   0  0  0  0  0  0  0  0  0  0  0  0
    6.0680    0.3400   -0.3040 C   0  0  0  0  0  0  0  0  0  0  0  0
    6.4900    0.2800   -1.6050 C   0  0  0  0  0  0  0  0  0  0  0  0
    7.7540   -0.1650   -1.9070 C   0  0  0  0  0  0  0  0  0  0  0  0
    8.6650   -0.5730   -0.9400 C   0  0  0  0  0  0  0  0  0  0  0  0
    8.2580   -0.5070    0.3510 C   0  0  0  0  0  0  0  0  0  0  0  0
    6.9950   -0.0630    0.6770 C   0  0  0  0  0  0  0  0  0  0  0  0
    9.3020   -0.9780    1.3640 C   0  0  0  0  0  0  0  0  0  0  0  0
   10.0450   -2.2050    0.2330 S   0  0  2  0  0  0  0  0  0  0  0  0
   11.6920   -2.6310    0.6480 C   0  0  0  0  0  0  0  0  0  0  0  0
    9.9580   -1.0610   -1.1280 O   0  0  0  0  0  0  0  0  0  0  0  0
   -1.6330   -1.3100   -0.6610 C   0  0  0  0  0  0  0  0  0  0  0  0
   -2.8770   -1.8900   -0.4930 N   0  0  0  0  0  0  0  0  0  0  0  0
   -3.9030   -1.0360   -0.2150 C   0  0  0  0  0  0  0  0  0  0  0  0
   -5.1510   -1.6020    0.1000 C   0  0  0  0  0  0  0  0  0  0  0  0
   -5.4170   -2.9490   -0.0550 C   0  0  0  0  0  0  0  0  0  0  0  0
   -6.6520   -3.5210    0.1860 C   0  0  0  0  0  0  0  0  0  0  0  0
   -6.8790   -4.8800    0.0190 O   0  0  0  0  0  0  0  0  0  0  0  0
   -8.1620   -5.4420    0.2290 C   0  0  0  0  0  0  0  0  0  0  0  0
   -7.6400   -2.6600    0.6010 C   0  0  0  0  0  0  0  0  0  0  0  0
   -7.4030   -1.3170    0.7600 C   0  0  0  0  0  0  0  0  0  0  0  0
   -6.1490   -0.7520    0.5130 C   0  0  0  0  0  0  0  0  0  0  0  0
  1  2  1  0
  2  3  1  0
  3  4  1  0
  4  5  2  0
  4 39  1  0
  5  6  1  0
  6  7  2  0
  6 31  1  0
  7  8  1  0
  8  9  1  0
  8 29  2  0
  9 10  2  3
 10 11  1  0
 10 13  1  0
 11 12  1  0
 13 14  2  0
 13 15  1  0
 15 16  1  0
 16 17  1  0
 17 18  1  0
 18 19  1  0
 19 20  2  0
 19 24  1  0
 20 21  1  0
 21 22  2  0
 22 23  1  0
 22 28  1  0
 23 24  2  0
 23 25  1  0
 25 26  1  0
 26 27  1  1
 26 28  1  0
 29 30  1  0
 30 31  2  0
 31 32  1  0
 32 33  2  0
 32 39  1  0
 33 34  1  0
 34 35  1  0
 34 37  2  0
 35 36  1  0
 37 38  1  0
 38 39  2  0
M  CHG  1   2   1
M  END
