
     RDKit          3D

 39 42  0  0  0  0  0  0  0  0999 V2000
   14.2640   -2.3810    0.4060 C   0  0  0  0  0  0  0  0  0  0  0  0
   12.9250   -2.2980   -0.0830 O   0  0  0  0  0  0  0  0  0  0  0  0
   11.9270   -1.6610    0.6380 C   0  0  0  0  0  0  0  0  0  0  0  0
   12.1600   -1.1340    1.7450 O   0  0  0  0  0  0  0  0  0  0  0  0
   10.5600   -1.5990    0.0930 C   0  0  0  0  0  0  0  0  0  0  0  0
   10.1250   -2.1250   -1.1090 C   0  0  0  0  0  0  0  0  0  0  0  0
    8.7860   -1.8570   -1.2500 C   0  0  0  0  0  0  0  0  0  0  0  0
    7.8290   -2.1170   -2.2020 C   0  0  0  0  0  0  0  0  0  0  0  0
    6.5210   -1.7030   -2.0520 C   0  0  0  0  0  0  0  0  0  0  0  0
    6.0920   -0.9970   -0.9300 C   0  0  0  0  0  0  0  0  0  0  0  0
    4.7390   -0.6030   -0.8460 N   0  0  0  0  0  0  0  0  0  0  0  0
    4.1040    0.0750    0.1960 C   0  0  0  0  0  0  0  0  0  0  0  0
    4.7460    0.4070    1.2100 O   0  0  0  0  0  0  0  0  0  0  0  0
    2.6510    0.4460    0.1780 C   0  0  0  0  0  0  0  0  0  0  0  0
    2.2410    1.1480    1.4280 C   0  0  0  0  0  0  0  0  0  0  0  0
    0.8220    1.5010    1.3950 C   0  0  0  0  0  0  0  0  0  0  0  0
    0.3250    2.0510    2.4240 O   0  0  0  0  0  0  0  0  0  0  0  0
    0.0470    1.2420    0.2720 O   0  0  0  0  0  0  0  0  0  0  0  0
   -1.3150    1.6080    0.3140 C   0  0  1  0  0  0  0  0  0  0  0  0
   -1.5280    2.6920   -0.7370 C   0  0  0  0  0  0  0  0  0  0  0  0
   -2.9890    2.9890   -0.8020 C   0  0  1  0  0  0  0  0  0  0  0  0
   -3.5280    2.6420   -2.1710 C   0  0  0  0  0  0  0  0  0  0  0  0
   -3.8230    2.2530    0.2210 C   0  0  0  0  0  0  0  0  0  0  0  0
   -3.6430    0.7840    0.0450 C   0  0  2  0  0  0  0  0  0  0  0  0
   -4.2400    0.0090    1.1170 N   0  0  0  0  0  0  0  0  0  0  0  0
   -5.5040   -1.0230    0.5620 S   0  0  2  0  0  0  0  0  0  0  0  0
   -6.0670   -1.8590    1.6420 O   0  0  0  0  0  0  0  0  0  0  0  0
   -4.9040   -1.9250   -0.4730 O   0  0  0  0  0  0  0  0  0  0  0  0
   -6.7930   -0.0080   -0.1280 C   0  0  2  0  0  0  0  0  0  0  0  0
   -7.2600    1.0340    0.8320 C   0  0  0  0  0  0  0  0  0  0  0  0
   -8.7060    0.8930    1.2400 C   0  0  0  0  0  0  0  0  0  0  0  0
   -9.1180   -0.5520    1.3730 C   0  0  0  0  0  0  0  0  0  0  0  0
   -8.9610   -1.3080    0.0780 C   0  0  2  0  0  0  0  0  0  0  0  0
   -8.8920   -2.8020    0.2960 C   0  0  0  0  0  0  0  0  0  0  0  0
   -7.8750   -0.7900   -0.7960 C   0  0  0  0  0  0  0  0  0  0  0  0
   -2.1870    0.4490   -0.0840 C   0  0  0  0  0  0  0  0  0  0  0  0
    7.0600   -0.7450    0.0110 C   0  0  0  0  0  0  0  0  0  0  0  0
    8.3940   -1.1630   -0.1310 C   0  0  0  0  0  0  0  0  0  0  0  0
    9.4810   -1.0300    0.6440 N   0  0  0  0  0  0  0  0  0  0  0  0
  1  2  1  0
  2  3  1  0
  3  4  2  0
  3  5  1  0
  5  6  2  0
  5 39  1  0
  6  7  1  0
  7  8  2  0
  7 38  1  0
  8  9  1  0
  9 10  2  0
 10 11  1  0
 10 37  1  0
 11 12  1  0
 12 13  2  0
 12 14  1  0
 14 15  1  0
 15 16  1  0
 16 17  2  0
 16 18  1  0
 19 18  1  6
 19 20  1  0
 19 36  1  0
 20 21  1  0
 21 22  1  6
 21 23  1  0
 23 24  1  0
 24 25  1  1
 24 36  1  0
 26 25  1  1
 26 27  2  0
 26 28  2  0
 26 29  1  0
 29 30  1  1
 29 35  1  0
 30 31  1  0
 31 32  1  0
 32 33  1  0
 33 34  1  1
 33 35  1  0
 37 38  2  0
 38 39  1  0
M  END
