
     RDKit          3D

 39 43  0  0  0  0  0  0  0  0999 V2000
   -9.9740   -1.0660    0.9400 N   0  0  0  0  0  0  0  0  0  0  0  0
  -10.0930    0.3040    0.5180 C   0  0  0  0  0  0  0  0  0  0  0  0
   -8.8530    0.6720   -0.2230 C   0  0  0  0  0  0  0  0  0  0  0  0
   -8.7320    0.5650   -1.5920 C   0  0  0  0  0  0  0  0  0  0  0  0
   -7.5540    0.9200   -2.2520 C   0  0  0  0  0  0  0  0  0  0  0  0
   -6.4730    1.3920   -1.5170 C   0  0  0  0  0  0  0  0  0  0  0  0
   -6.5920    1.4980   -0.1550 C   0  0  0  0  0  0  0  0  0  0  0  0
   -5.4330    2.0000    0.6280 C   0  0  0  0  0  0  0  0  0  0  0  0
   -4.5310    0.9050    1.0840 C   0  0  0  0  0  0  0  0  0  0  0  0
   -3.9310    0.1330    0.0250 N   0  0  0  0  0  0  0  0  0  0  0  0
   -2.9900    0.9640   -0.6520 C   0  0  0  0  0  0  0  0  0  0  0  0
   -2.1550    0.2300   -1.6950 C   0  0  0  0  0  0  0  0  0  0  0  0
   -1.5330   -0.8710   -0.9760 N   0  0  0  0  0  0  0  0  0  0  0  0
   -0.1340   -1.0260   -0.8820 C   0  0  0  0  0  0  0  0  0  0  0  0
    0.3610   -1.9980   -0.2490 O   0  0  0  0  0  0  0  0  0  0  0  0
    0.8120   -0.0690   -1.5110 C   0  0  0  0  0  0  0  0  0  0  0  0
    2.1580   -0.4200   -1.2510 O   0  0  0  0  0  0  0  0  0  0  0  0
    2.6830   -0.5080    0.0190 C   0  0  0  0  0  0  0  0  0  0  0  0
    1.9260   -0.2650    0.9880 O   0  0  0  0  0  0  0  0  0  0  0  0
    4.0660   -0.8670    0.2950 C   0  0  0  0  0  0  0  0  0  0  0  0
    4.5370   -0.9440    1.5160 C   0  0  0  0  0  0  0  0  0  0  0  0
    5.9030   -1.2850    1.8860 C   0  0  0  0  0  0  0  0  0  0  0  0
    6.1800   -1.4850    3.2510 C   0  0  0  0  0  0  0  0  0  0  0  0
    7.4110   -1.9490    3.6700 C   0  0  0  0  0  0  0  0  0  0  0  0
    8.4140   -2.2340    2.7640 C   0  0  0  0  0  0  0  0  0  0  0  0
    8.1450   -2.0360    1.4350 C   0  0  0  0  0  0  0  0  0  0  0  0
    6.9000   -1.5620    0.9920 C   0  0  0  0  0  0  0  0  0  0  0  0
    6.8330   -1.3240   -0.4730 C   0  0  2  0  0  0  0  0  0  0  0  0
    7.5080   -0.0330   -0.8450 C   0  0  0  0  0  0  0  0  0  0  0  0
    6.7950    0.8420   -1.5140 C   0  0  0  0  0  0  0  0  0  0  0  0
    7.3240    2.1230   -1.9450 C   0  0  0  0  0  0  0  0  0  0  0  0
    8.5360    2.5690   -1.7440 C   0  0  0  0  0  0  0  0  0  0  0  0
    9.6470    1.9030   -1.0520 C   0  0  0  0  0  0  0  0  0  0  0  0
    9.1680    0.3120   -0.3660 S   0  0  0  0  0  0  0  0  0  0  0  0
    9.3320    0.3750    1.1620 O   0  0  0  0  0  0  0  0  0  0  0  0
    5.1260   -1.3210   -1.0670 S   0  0  0  0  0  0  0  0  0  0  0  0
   -2.4410   -1.8040   -0.3470 C   0  0  0  0  0  0  0  0  0  0  0  0
   -3.4230   -1.0850    0.5610 C   0  0  0  0  0  0  0  0  0  0  0  0
   -7.7790    1.1410    0.5040 C   0  0  0  0  0  0  0  0  0  0  0  0
  1  2  1  0
  2  3  1  0
  3  4  2  0
  3 39  1  0
  4  5  1  0
  5  6  2  0
  6  7  1  0
  7  8  1  0
  7 39  2  0
  8  9  1  0
  9 10  1  0
 10 11  1  0
 10 38  1  0
 11 12  1  0
 12 13  1  0
 13 14  1  0
 13 37  1  0
 14 15  2  0
 14 16  1  0
 16 17  1  0
 17 18  1  0
 18 19  2  0
 18 20  1  0
 20 21  2  0
 20 36  1  0
 21 22  1  0
 22 23  2  0
 22 27  1  0
 23 24  1  0
 24 25  2  0
 25 26  1  0
 26 27  2  0
 27 28  1  0
 28 29  1  1
 28 36  1  0
 29 30  2  0
 29 34  1  0
 30 31  1  0
 31 32  2  0
 32 33  1  0
 34 33  1  6
 34 35  2  0
 37 38  1  0
M  CHG  1   1   1
M  END
