
     RDKit          3D

 39 42  0  0  0  0  0  0  0  0999 V2000
    6.0250    3.3180   -0.3830 C   0  0  0  0  0  0  0  0  0  0  0  0
    5.0860    2.6240    0.4120 O   0  0  0  0  0  0  0  0  0  0  0  0
    5.1240    1.2540    0.0830 C   0  0  2  0  0  0  0  0  0  0  0  0
    3.7470    0.7770   -0.3070 C   0  0  0  0  0  0  0  0  0  0  0  0
    3.7870   -0.6600   -0.6750 C   0  0  0  0  0  0  0  0  0  0  0  0
    2.4740   -1.1720   -1.0730 N   0  0  0  0  0  0  0  0  0  0  0  0
    1.3730   -1.1640   -0.2130 C   0  0  0  0  0  0  0  0  0  0  0  0
    1.5330   -0.6830    0.9500 O   0  0  0  0  0  0  0  0  0  0  0  0
    0.0810   -1.6580   -0.5580 C   0  0  0  0  0  0  0  0  0  0  0  0
   -1.3230   -1.5610    0.5730 S   0  0  0  0  0  0  0  0  0  0  0  0
   -2.5000   -2.3810   -0.6190 C   0  0  0  0  0  0  0  0  0  0  0  0
   -3.9500   -2.5940   -0.2000 C   0  0  2  0  0  0  0  0  0  0  0  0
   -4.7440   -2.2670   -1.2580 O   0  0  0  0  0  0  0  0  0  0  0  0
   -4.2160   -1.8750    1.0960 C   0  0  0  0  0  0  0  0  0  0  0  0
   -5.5310   -2.0560    1.5960 N   0  0  0  0  0  0  0  0  0  0  0  0
   -5.7380   -3.2690    2.3680 C   0  0  0  0  0  0  0  0  0  0  0  0
   -6.8830   -3.4630    2.8220 O   0  0  0  0  0  0  0  0  0  0  0  0
   -6.5840   -1.1540    1.4910 C   0  0  0  0  0  0  0  0  0  0  0  0
   -7.7220   -1.6320    1.9830 O   0  0  0  0  0  0  0  0  0  0  0  0
   -6.6620    0.1840    0.9620 C   0  0  1  0  0  0  0  0  0  0  0  0
   -5.8960    1.2470    1.7370 C   0  0  0  0  0  0  0  0  0  0  0  0
   -5.9530    2.3830    0.7270 C   0  0  2  0  0  0  0  0  0  0  0  0
   -6.9510    3.3850    1.2880 C   0  0  0  0  0  0  0  0  0  0  0  0
   -6.3610    1.8780   -0.4760 O   0  0  0  0  0  0  0  0  0  0  0  0
   -6.2030    0.4650   -0.4220 C   0  0  2  0  0  0  0  0  0  0  0  0
   -7.1530   -0.1740   -1.4190 C   0  0  0  0  0  0  0  0  0  0  0  0
   -1.7800   -2.5690   -1.5240 N   0  0  0  0  0  0  0  0  0  0  0  0
   -0.4980   -2.2730   -1.6430 C   0  0  0  0  0  0  0  0  0  0  0  0
    0.3250   -2.6290   -2.8750 C   0  0  1  0  0  0  0  0  0  0  0  0
   -0.4610   -2.9930   -4.1330 C   0  0  0  0  0  0  0  0  0  0  0  0
    0.3690   -1.7380   -4.0400 C   0  0  0  0  0  0  0  0  0  0  0  0
    5.5090    0.5270    1.3790 C   0  0  0  0  0  0  0  0  0  0  0  0
    6.8380    1.0150    1.8560 C   0  0  0  0  0  0  0  0  0  0  0  0
    8.0080    0.4140    1.4660 C   0  0  0  0  0  0  0  0  0  0  0  0
    9.2050    0.8920    1.9240 C   0  0  0  0  0  0  0  0  0  0  0  0
    9.3170    1.9710    2.7770 C   0  0  0  0  0  0  0  0  0  0  0  0
   10.5350    2.4530    3.2390 O   0  0  0  0  0  0  0  0  0  0  0  0
    8.1260    2.5690    3.1630 C   0  0  0  0  0  0  0  0  0  0  0  0
    6.9080    2.0960    2.7080 C   0  0  0  0  0  0  0  0  0  0  0  0
  1  2  1  0
  2  3  1  0
  3  4  1  1
  3 32  1  0
  4  5  1  0
  5  6  1  0
  6  7  1  0
  7  8  2  0
  7  9  1  0
  9 10  1  0
  9 28  2  0
 10 11  1  0
 11 12  1  0
 11 27  2  0
 12 13  1  6
 12 14  1  0
 14 15  1  0
 15 16  1  0
 15 18  1  0
 16 17  2  0
 18 19  2  0
 20 18  1  1
 20 21  1  0
 20 25  1  0
 21 22  1  0
 22 23  1  1
 22 24  1  0
 24 25  1  0
 25 26  1  6
 27 28  1  0
 29 28  1  1
 29 30  1  0
 29 31  1  0
 30 31  1  0
 32 33  1  0
 33 34  2  0
 33 39  1  0
 34 35  1  0
 35 36  2  0
 36 37  1  0
 36 38  1  0
 38 39  2  0
M  END
