
     RDKit          3D

 39 42  0  0  0  0  0  0  0  0999 V2000
  -10.6400    1.9030    0.3750 C   0  0  0  0  0  0  0  0  0  0  0  0
  -10.6330    0.6970   -0.5390 C   0  0  0  0  0  0  0  0  0  0  0  0
  -10.3530   -0.4690    0.1160 O   0  0  0  0  0  0  0  0  0  0  0  0
   -9.1600   -0.5510    0.7670 C   0  0  0  0  0  0  0  0  0  0  0  0
   -7.9410   -0.3910   -0.1570 C   0  0  0  0  0  0  0  0  0  0  0  0
   -6.6960   -0.4980    0.6250 C   0  0  0  0  0  0  0  0  0  0  0  0
   -5.4430   -0.2590   -0.2330 C   0  0  2  0  0  0  0  0  0  0  0  0
   -5.6310    1.0710   -0.7240 O   0  0  0  0  0  0  0  0  0  0  0  0
   -5.3630   -1.1220   -1.4290 C   0  0  0  0  0  0  0  0  0  0  0  0
   -6.5230   -1.0460   -2.2570 O   0  0  0  0  0  0  0  0  0  0  0  0
   -4.2670   -0.2750    0.6950 C   0  0  0  0  0  0  0  0  0  0  0  0
   -2.9570   -0.0420    0.0890 C   0  0  2  0  0  0  0  0  0  0  0  0
   -2.4110   -0.9660   -0.9180 C   0  0  0  0  0  0  0  0  0  0  0  0
   -0.9090   -1.2160   -0.5500 C   0  0  0  0  0  0  0  0  0  0  0  0
   -0.6270    0.0040    0.2780 C   0  0  2  0  0  0  0  0  0  0  0  0
    0.6250   -0.0550    1.0620 C   0  0  0  0  0  0  0  0  0  0  0  0
    0.4960    0.0450    2.3450 O   0  0  0  0  0  0  0  0  0  0  0  0
    1.9160   -0.2030    0.5930 N   0  0  0  0  0  0  0  0  0  0  0  0
    2.2260   -0.3450   -0.8130 C   0  0  0  0  0  0  0  0  0  0  0  0
    3.7350   -0.1080   -0.9880 C   0  0  0  0  0  0  0  0  0  0  0  0
    4.1880    0.9350   -0.2640 O   0  0  0  0  0  0  0  0  0  0  0  0
    3.9550    0.9270    1.0750 C   0  0  2  0  0  0  0  0  0  0  0  0
    5.2460    0.9200    1.8930 C   0  0  0  0  0  0  0  0  0  0  0  0
    6.2550    2.3580    1.5550 S   0  0  0  0  0  0  0  0  0  0  0  0
    6.9250    2.4180   -0.0960 C   0  0  0  0  0  0  0  0  0  0  0  0
    7.9390    1.4180   -0.4120 C   0  0  0  0  0  0  0  0  0  0  0  0
    8.3720    0.5130    0.5160 C   0  0  0  0  0  0  0  0  0  0  0  0
    9.3500   -0.3960    0.1390 C   0  0  0  0  0  0  0  0  0  0  0  0
    9.8030   -1.3270    1.0820 C   0  0  0  0  0  0  0  0  0  0  0  0
   10.7800   -2.2410    0.7250 C   0  0  0  0  0  0  0  0  0  0  0  0
   11.2620   -2.1860   -0.5580 C   0  0  0  0  0  0  0  0  0  0  0  0
   10.8230   -1.2850   -1.4650 N   0  0  0  0  0  0  0  0  0  0  0  0
    9.8670   -0.3790   -1.1400 C   0  0  0  0  0  0  0  0  0  0  0  0
    9.4270    0.5240   -2.0510 N   0  0  0  0  0  0  0  0  0  0  0  0
    8.4780    1.4030   -1.6790 C   0  0  0  0  0  0  0  0  0  0  0  0
    8.1110    2.2230   -2.5820 O   0  0  0  0  0  0  0  0  0  0  0  0
    3.0540   -0.2080    1.4830 C   0  0  0  0  0  0  0  0  0  0  0  0
   -1.8500    0.0030    1.1680 C   0  0  1  0  0  0  0  0  0  0  0  0
   -1.9580    1.1130    1.9660 O   0  0  0  0  0  0  0  0  0  0  0  0
  1  2  1  0
  2  3  1  0
  3  4  1  0
  4  5  1  0
  5  6  1  0
  6  7  1  0
  7  8  1  6
  7  9  1  0
  7 11  1  0
  9 10  1  0
 12 11  1  1
 12 13  1  0
 12 38  1  0
 13 14  1  0
 14 15  1  0
 15 16  1  1
 15 38  1  0
 16 17  2  0
 16 18  1  0
 18 19  1  0
 18 37  1  0
 19 20  1  0
 20 21  1  0
 21 22  1  0
 22 23  1  1
 22 37  1  0
 23 24  1  0
 24 25  1  0
 25 26  1  0
 26 27  2  0
 26 35  1  0
 27 28  1  0
 28 29  2  0
 28 33  1  0
 29 30  1  0
 30 31  2  0
 31 32  1  0
 32 33  2  0
 33 34  1  0
 34 35  1  0
 35 36  2  0
 38 39  1  6
M  END
