
     RDKit          3D

 19 21  0  0  0  0  0  0  0  0999 V2000
   -3.0130    2.3660   -1.3500 C   0  0  0  0  0  0  0  0  0  0  0  0
   -2.6610    1.7290    0.3250 S   0  0  0  0  0  0  0  0  0  0  0  0
   -2.8640   -0.0300    0.4120 C   0  0  0  0  0  0  0  0  0  0  0  0
   -4.1130   -0.5520    0.7490 C   0  0  0  0  0  0  0  0  0  0  0  0
   -4.2330   -1.9240    0.8070 C   0  0  0  0  0  0  0  0  0  0  0  0
   -3.1430   -2.7070    0.5370 C   0  0  0  0  0  0  0  0  0  0  0  0
   -3.2930   -4.4590    0.6100 Cl  0  0  0  0  0  0  0  0  0  0  0  0
   -1.9480   -2.1770    0.2140 N   0  0  0  0  0  0  0  0  0  0  0  0
   -1.7910   -0.8510    0.1470 C   0  0  0  0  0  0  0  0  0  0  0  0
   -0.5540   -0.2410   -0.1890 N   0  0  0  0  0  0  0  0  0  0  0  0
    0.5960   -1.0150   -0.4750 N   0  0  0  0  0  0  0  0  0  0  0  0
    1.7820   -0.5010   -0.2480 C   0  0  0  0  0  0  0  0  0  0  0  0
    3.0450   -1.2240   -0.5110 C   0  0  0  0  0  0  0  0  0  0  0  0
    4.0770   -0.2560   -0.1060 C   0  0  0  0  0  0  0  0  0  0  0  0
    5.3530   -0.0100    0.0160 N   0  0  0  0  0  0  0  0  0  0  0  0
    5.5550    1.2960    0.5390 C   0  0  0  0  0  0  0  0  0  0  0  0
    4.4030    1.8970    0.7570 C   0  0  0  0  0  0  0  0  0  0  0  0
    3.3820    0.9400    0.3560 C   0  0  0  0  0  0  0  0  0  0  0  0
    2.1070    0.7680    0.2640 N   0  0  0  0  0  0  0  0  0  0  0  0
  1  2  1  0
  2  3  1  0
  3  4  2  0
  3  9  1  0
  4  5  1  0
  5  6  2  0
  6  7  1  0
  6  8  1  0
  8  9  2  0
  9 10  1  0
 10 11  1  0
 11 12  2  3
 12 13  1  0
 12 19  1  0
 13 14  1  0
 14 15  2  0
 14 18  1  0
 15 16  1  0
 16 17  2  0
 17 18  1  0
 18 19  2  0
M  END
