
     RDKit          3D

 19 21  0  0  0  0  0  0  0  0999 V2000
    5.6140    1.5440   -0.7260 C   0  0  0  0  0  0  0  0  0  0  0  0
    4.2250    0.9990   -0.5480 C   0  0  0  0  0  0  0  0  0  0  0  0
    3.0990    1.3670   -0.3040 N   0  0  0  0  0  0  0  0  0  0  0  0
    2.0610    0.6510   -0.2090 N   0  0  0  0  0  0  0  0  0  0  0  0
    2.1380   -0.6630   -0.3850 C   0  0  0  0  0  0  0  0  0  0  0  0
    1.2670   -1.7710   -0.3690 N   0  0  0  0  0  0  0  0  0  0  0  0
   -0.1130   -1.6830   -0.1140 C   0  0  0  0  0  0  0  0  0  0  0  0
   -0.7610   -0.4850    0.1480 C   0  0  0  0  0  0  0  0  0  0  0  0
   -2.1100   -0.4400    0.3920 C   0  0  0  0  0  0  0  0  0  0  0  0
   -2.7470    0.8030    0.6580 N   0  0  0  0  0  0  0  0  0  0  0  0
   -2.5570    1.9850    0.0510 C   0  0  0  0  0  0  0  0  0  0  0  0
   -3.3750    2.9290    0.6140 C   0  0  0  0  0  0  0  0  0  0  0  0
   -4.0740    2.3130    1.5780 N   0  0  0  0  0  0  0  0  0  0  0  0
   -3.6980    1.0280    1.6070 C   0  0  0  0  0  0  0  0  0  0  0  0
   -2.8610   -1.5830    0.3830 C   0  0  0  0  0  0  0  0  0  0  0  0
   -2.2470   -2.7970    0.1240 C   0  0  0  0  0  0  0  0  0  0  0  0
   -0.8940   -2.8420   -0.1200 C   0  0  0  0  0  0  0  0  0  0  0  0
   -0.0930   -4.3880   -0.4520 Cl  0  0  0  0  0  0  0  0  0  0  0  0
    3.9400   -0.8100   -0.7210 S   0  0  0  0  0  0  0  0  0  0  0  0
  1  2  1  0
  2  3  2  0
  2 19  1  0
  3  4  1  0
  4  5  2  0
  5  6  1  0
  5 19  1  0
  6  7  1  0
  7  8  2  0
  7 17  1  0
  8  9  1  0
  9 10  1  0
  9 15  2  0
 10 11  1  0
 10 14  1  0
 11 12  2  0
 12 13  1  0
 13 14  2  0
 15 16  1  0
 16 17  2  0
 17 18  1  0
M  END
