
     RDKit          3D

 28 32  0  0  0  0  0  0  0  0999 V2000
   -0.8290   -3.7040    1.7750 C   0  0  0  0  0  0  0  0  0  0  0  0
   -1.4630   -2.8240    1.0130 C   0  0  0  0  0  0  0  0  0  0  0  0
   -0.9270   -1.7590    0.3810 N   0  0  0  0  0  0  0  0  0  0  0  0
   -1.8780   -1.1100   -0.2950 C   0  0  0  0  0  0  0  0  0  0  0  0
   -1.7810    0.1000   -1.1410 C   0  0  0  0  0  0  0  0  0  0  0  0
   -0.5830    0.8710   -0.9490 N   0  0  0  0  0  0  0  0  0  0  0  0
    0.6420    0.1690   -1.0980 C   0  0  0  0  0  0  0  0  0  0  0  0
    0.9250   -0.5980   -2.1800 N   0  0  0  0  0  0  0  0  0  0  0  0
    2.1160   -1.1290   -2.0110 N   0  0  0  0  0  0  0  0  0  0  0  0
    2.5940   -0.6930   -0.8090 C   0  0  0  0  0  0  0  0  0  0  0  0
    3.8370   -1.0250   -0.2230 N   0  0  0  0  0  0  0  0  0  0  0  0
    4.3200   -0.5340    1.0420 C   0  0  0  0  0  0  0  0  0  0  0  0
    5.6010   -1.2590    1.3410 C   0  0  0  0  0  0  0  0  0  0  0  0
    6.0550   -1.7220    0.0160 C   0  0  0  0  0  0  0  0  0  0  0  0
    7.2060   -1.9010   -0.3130 O   0  0  0  0  0  0  0  0  0  0  0  0
    4.8290   -1.9140   -0.7960 C   0  0  0  0  0  0  0  0  0  0  0  0
    1.6640    0.1120   -0.2570 N   0  0  0  0  0  0  0  0  0  0  0  0
   -0.5700    2.2700   -0.6540 C   0  0  1  0  0  0  0  0  0  0  0  0
   -1.9900    2.8050   -0.6190 C   0  0  0  0  0  0  0  0  0  0  0  0
   -2.0520    4.2430   -0.1970 C   0  0  0  0  0  0  0  0  0  0  0  0
   -0.7200    4.8770   -0.0180 C   0  0  0  0  0  0  0  0  0  0  0  0
    0.2840    4.0600    0.7190 C   0  0  0  0  0  0  0  0  0  0  0  0
    0.0170    2.5650    0.6920 C   0  0  0  0  0  0  0  0  0  0  0  0
   -3.0390   -1.7580   -0.0990 N   0  0  0  0  0  0  0  0  0  0  0  0
   -2.8030   -2.8120    0.7010 C   0  0  0  0  0  0  0  0  0  0  0  0
   -3.9070   -3.4910    0.9290 C   0  0  0  0  0  0  0  0  0  0  0  0
   -5.0600   -2.8850    0.2400 C   0  0  0  0  0  0  0  0  0  0  0  0
   -4.4650   -1.7080   -0.4530 C   0  0  0  0  0  0  0  0  0  0  0  0
  1  2  2  0
  2  3  1  0
  2 25  1  0
  3  4  2  0
  4  5  1  0
  4 24  1  0
  5  6  1  0
  6  7  1  0
 18  6  1  1
  7  8  2  0
  7 17  1  0
  8  9  1  0
  9 10  1  0
 10 11  1  0
 10 17  2  0
 11 12  1  0
 11 16  1  0
 12 13  1  0
 13 14  1  0
 14 15  2  0
 14 16  1  0
 18 19  1  0
 18 23  1  0
 19 20  1  0
 20 21  1  0
 21 22  1  0
 22 23  1  0
 24 25  1  0
 24 28  1  0
 25 26  2  0
 26 27  1  0
 27 28  1  0
M  END
