
     RDKit          3D

 28 32  0  0  0  0  0  0  0  0999 V2000
   -0.9300    3.1270    1.6090 C   0  0  0  0  0  0  0  0  0  0  0  0
    0.4340    2.4520    1.5620 C   0  0  1  0  0  0  0  0  0  0  0  0
    0.2640    1.1480    0.8380 C   0  0  0  0  0  0  0  0  0  0  0  0
    1.3130    0.3950    0.4540 N   0  0  0  0  0  0  0  0  0  0  0  0
    1.1810   -0.7620   -0.1900 C   0  0  0  0  0  0  0  0  0  0  0  0
    2.3210   -1.5740   -0.6040 C   0  0  0  0  0  0  0  0  0  0  0  0
    2.1350   -2.7610   -1.2680 C   0  0  0  0  0  0  0  0  0  0  0  0
    3.1600   -3.5690   -1.6840 C   0  0  0  0  0  0  0  0  0  0  0  0
    4.4500   -3.1910   -1.4350 C   0  0  0  0  0  0  0  0  0  0  0  0
    5.6680   -3.7880   -1.7290 C   0  0  0  0  0  0  0  0  0  0  0  0
    6.6030   -2.9450   -1.2340 N   0  0  0  0  0  0  0  0  0  0  0  0
    6.0210   -1.9010   -0.6740 N   0  0  0  0  0  0  0  0  0  0  0  0
    4.6770   -1.9910   -0.7650 C   0  0  0  0  0  0  0  0  0  0  0  0
    3.6230   -1.1970   -0.3570 C   0  0  0  0  0  0  0  0  0  0  0  0
   -0.0700   -1.1780   -0.4610 N   0  0  0  0  0  0  0  0  0  0  0  0
   -1.1600   -0.4810   -0.1090 C   0  0  0  0  0  0  0  0  0  0  0  0
   -2.4260   -1.0200   -0.4500 N   0  0  0  0  0  0  0  0  0  0  0  0
   -2.6220   -2.2480   -1.1460 C   0  0  0  0  0  0  0  0  0  0  0  0
   -3.6900   -3.0440   -0.4270 C   0  0  0  0  0  0  0  0  0  0  0  0
   -4.7840   -2.2770   -0.1200 O   0  0  0  0  0  0  0  0  0  0  0  0
   -4.4670   -1.2240    0.7420 C   0  0  2  0  0  0  0  0  0  0  0  0
   -5.7020   -0.5660    1.2590 C   0  0  0  0  0  0  0  0  0  0  0  0
   -3.6220   -0.2620   -0.0610 C   0  0  0  0  0  0  0  0  0  0  0  0
   -0.9830    0.6790    0.5380 N   0  0  0  0  0  0  0  0  0  0  0  0
    1.4510    3.2530    0.9590 N   0  0  0  0  0  0  0  0  0  0  0  0
    1.2510    3.6000   -0.4260 C   0  0  0  0  0  0  0  0  0  0  0  0
    1.0890    5.0680   -0.0430 C   0  0  0  0  0  0  0  0  0  0  0  0
    1.3970    4.6210    1.3680 C   0  0  0  0  0  0  0  0  0  0  0  0
  2  1  1  6
  2  3  1  0
  2 25  1  0
  3  4  2  0
  3 24  1  0
  4  5  1  0
  5  6  1  0
  5 15  2  0
  6  7  2  0
  6 14  1  0
  7  8  1  0
  8  9  2  0
  9 10  1  0
  9 13  1  0
 10 11  2  0
 11 12  1  0
 12 13  1  0
 13 14  2  0
 15 16  1  0
 16 17  1  0
 16 24  2  0
 17 18  1  0
 17 23  1  0
 18 19  1  0
 19 20  1  0
 20 21  1  0
 21 22  1  6
 21 23  1  0
 25 26  1  0
 25 28  1  0
 26 27  1  0
 27 28  1  0
M  END
