
     RDKit          3D

 28 31  0  0  0  0  0  0  0  0999 V2000
    8.7540   -0.1740   -0.0820 C   0  0  0  0  0  0  0  0  0  0  0  0
    7.5820   -1.0990    0.3160 C   0  0  2  0  0  0  0  0  0  0  0  0
    7.3320   -2.0810   -0.7460 C   0  0  0  0  0  0  0  0  0  0  0  0
    6.2400   -2.2610   -1.3860 N   0  0  0  0  0  0  0  0  0  0  0  0
    5.1530   -1.4250   -1.0340 C   0  0  0  0  0  0  0  0  0  0  0  0
    5.2200   -0.5060   -0.1100 C   0  0  0  0  0  0  0  0  0  0  0  0
    4.0230    0.2760    0.1420 N   0  0  0  0  0  0  0  0  0  0  0  0
    3.4070    0.2730    1.4330 C   0  0  0  0  0  0  0  0  0  0  0  0
    1.9250    0.0240    1.2380 C   0  0  0  0  0  0  0  0  0  0  0  0
    1.3800    0.9250    0.2730 N   0  0  0  0  0  0  0  0  0  0  0  0
   -0.0120    0.9480    0.0040 C   0  0  0  0  0  0  0  0  0  0  0  0
   -0.5420    1.7930   -0.9020 N   0  0  0  0  0  0  0  0  0  0  0  0
   -1.8620    1.8210   -1.1640 C   0  0  0  0  0  0  0  0  0  0  0  0
   -2.7000    0.9970   -0.5210 N   0  0  0  0  0  0  0  0  0  0  0  0
   -2.2120    0.1500    0.3810 C   0  0  0  0  0  0  0  0  0  0  0  0
   -3.0300   -0.8080    1.1550 C   0  0  0  0  0  0  0  0  0  0  0  0
   -4.4190   -0.7660    0.8620 N   0  0  0  0  0  0  0  0  0  0  0  0
   -4.7790   -1.0460   -0.4840 C   0  0  0  0  0  0  0  0  0  0  0  0
   -6.2220   -1.5090   -0.5130 C   0  0  0  0  0  0  0  0  0  0  0  0
   -7.1100   -0.4670    0.1290 C   0  0  2  0  0  0  0  0  0  0  0  0
   -7.3330    0.6650   -0.8530 C   0  0  0  0  0  0  0  0  0  0  0  0
   -8.1510    1.6470   -0.2890 O   0  0  0  0  0  0  0  0  0  0  0  0
   -6.5900    0.0180    1.4400 C   0  0  0  0  0  0  0  0  0  0  0  0
   -5.1110    0.3950    1.3330 C   0  0  0  0  0  0  0  0  0  0  0  0
   -0.8920    0.1440    0.6210 N   0  0  0  0  0  0  0  0  0  0  0  0
    2.2420    1.8340   -0.4500 C   0  0  0  0  0  0  0  0  0  0  0  0
    3.4370    1.0710   -0.9170 C   0  0  0  0  0  0  0  0  0  0  0  0
    6.4320   -0.2500    0.6590 C   0  0  0  0  0  0  0  0  0  0  0  0
  2  1  1  6
  2  3  1  0
  2 28  1  0
  3  4  2  0
  4  5  1  0
  5  6  2  0
  6  7  1  0
  6 28  1  0
  7  8  1  0
  7 27  1  0
  8  9  1  0
  9 10  1  0
 10 11  1  0
 10 26  1  0
 11 12  2  0
 11 25  1  0
 12 13  1  0
 13 14  2  0
 14 15  1  0
 15 16  1  0
 15 25  2  0
 16 17  1  0
 17 18  1  0
 17 24  1  0
 18 19  1  0
 19 20  1  0
 20 21  1  6
 20 23  1  0
 21 22  1  0
 23 24  1  0
 26 27  1  0
M  END
