
     RDKit          3D

 37 39  0  0  0  0  0  0  0  0999 V2000
    6.1820   -2.5180   -2.9080 C   0  0  0  0  0  0  0  0  0  0  0  0
    4.7030   -2.7430   -2.9700 C   0  0  0  0  0  0  0  0  0  0  0  0
    4.0940   -2.6620   -1.6950 O   0  0  0  0  0  0  0  0  0  0  0  0
    4.1500   -1.5170   -0.9550 C   0  0  0  0  0  0  0  0  0  0  0  0
    4.7200   -0.4820   -1.3320 O   0  0  0  0  0  0  0  0  0  0  0  0
    3.4640   -1.5270    0.4160 C   0  0  0  0  0  0  0  0  0  0  0  0
    3.6400   -0.1860    0.9480 C   0  0  0  0  0  0  0  0  0  0  0  0
    2.7920    0.7460    1.4140 C   0  0  0  0  0  0  0  0  0  0  0  0
    1.4140    0.4900    1.4510 C   0  0  0  0  0  0  0  0  0  0  0  0
    1.0270   -0.8690    1.0220 O   0  0  0  0  0  0  0  0  0  0  0  0
    0.2850    1.1210    1.7770 C   0  0  0  0  0  0  0  0  0  0  0  0
    0.1760    2.4600    2.2510 C   0  0  0  0  0  0  0  0  0  0  0  0
   -0.9540    2.9220    2.7800 C   0  0  0  0  0  0  0  0  0  0  0  0
   -2.1030    2.0550    2.8580 C   0  0  0  0  0  0  0  0  0  0  0  0
   -2.1180    0.8220    2.4080 C   0  0  0  0  0  0  0  0  0  0  0  0
   -3.3580    0.0230    2.5700 C   0  0  0  0  0  0  0  0  0  0  0  0
   -4.2570    0.5890    3.2990 O   0  0  0  0  0  0  0  0  0  0  0  0
   -3.6240   -1.1750    2.0620 O   0  0  0  0  0  0  0  0  0  0  0  0
   -4.0600   -1.7970    0.9470 C   0  0  1  0  0  0  0  0  0  0  0  0
   -4.7060   -3.1420    1.3350 C   0  0  0  0  0  0  0  0  0  0  0  0
   -5.0380   -1.0980    0.0820 C   0  0  0  0  0  0  0  0  0  0  0  0
   -6.2860   -1.2430    0.3430 O   0  0  0  0  0  0  0  0  0  0  0  0
   -4.6980   -0.3110   -0.9750 O   0  0  0  0  0  0  0  0  0  0  0  0
   -3.8010   -0.5960   -2.0170 C   0  0  1  0  0  0  0  0  0  0  0  0
   -4.6360   -1.2870   -3.1090 C   0  0  0  0  0  0  0  0  0  0  0  0
   -3.2150    0.6300   -2.6400 C   0  0  1  0  0  0  0  0  0  0  0  0
   -2.7720    0.4510   -4.0970 C   0  0  0  0  0  0  0  0  0  0  0  0
   -3.6850    1.9930   -2.3200 C   0  0  0  0  0  0  0  0  0  0  0  0
   -2.3230    1.4250   -1.8060 C   0  0  1  0  0  0  0  0  0  0  0  0
   -2.2830    1.1090   -0.3670 C   0  0  0  0  0  0  0  0  0  0  0  0
   -3.1190    1.5730    0.3630 O   0  0  0  0  0  0  0  0  0  0  0  0
   -1.2250    0.2340    0.1460 C   0  0  0  0  0  0  0  0  0  0  0  0
   -0.9930    0.3020    1.6450 C   0  0  1  0  0  0  0  0  0  0  0  0
    3.4750    1.9900    1.8720 C   0  0  2  0  0  0  0  0  0  0  0  0
    5.0170    1.8270    1.8060 C   0  0  0  0  0  0  0  0  0  0  0  0
    3.2110    2.3740    3.2810 C   0  0  0  0  0  0  0  0  0  0  0  0
    3.1800    3.0880    0.8560 C   0  0  0  0  0  0  0  0  0  0  0  0
  1  2  1  0
  2  3  1  0
  3  4  1  0
  4  5  2  0
  4  6  1  0
  6  7  1  0
  7  8  2  3
  8  9  1  0
  8 34  1  0
  9 10  1  0
  9 11  2  3
 11 12  1  0
 11 33  1  0
 12 13  2  0
 13 14  1  0
 14 15  2  0
 15 16  1  0
 15 33  1  0
 16 17  2  0
 16 18  1  0
 18 19  1  0
 19 20  1  1
 19 21  1  0
 21 22  2  0
 21 23  1  0
 23 24  1  0
 24 25  1  6
 24 26  1  0
 26 27  1  6
 26 28  1  0
 26 29  1  0
 29 28  1  1
 29 30  1  0
 30 31  2  0
 30 32  1  0
 33 32  1  6
 34 35  1  1
 34 36  1  0
 34 37  1  0
M  END
