
     RDKit          3D

 37 40  0  0  0  0  0  0  0  0999 V2000
    7.1370   -0.5300    2.4880 C   0  0  0  0  0  0  0  0  0  0  0  0
    7.0250    0.2220    1.2120 C   0  0  0  0  0  0  0  0  0  0  0  0
    6.1690   -0.3760    0.1400 C   0  0  2  0  0  0  0  0  0  0  0  0
    4.6940   -0.6280    0.3350 C   0  0  1  0  0  0  0  0  0  0  0  0
    4.3980   -1.6050    1.3960 C   0  0  0  0  0  0  0  0  0  0  0  0
    3.5130   -0.9910    2.4850 C   0  0  0  0  0  0  0  0  0  0  0  0
    2.3560   -0.5890    1.8180 O   0  0  0  0  0  0  0  0  0  0  0  0
    2.5380    0.4870    0.9740 C   0  0  2  0  0  0  0  0  0  0  0  0
    1.5260    0.3040   -0.1600 C   0  0  0  0  0  0  0  0  0  0  0  0
    0.1680    0.2930    0.4720 C   0  0  0  0  0  0  0  0  0  0  0  0
   -0.0080    0.4240    1.7060 O   0  0  0  0  0  0  0  0  0  0  0  0
   -0.9940    0.1380   -0.2390 O   0  0  0  0  0  0  0  0  0  0  0  0
   -2.2890    0.1190    0.3120 C   0  0  1  0  0  0  0  0  0  0  0  0
   -3.0730    1.3360    0.0060 C   0  0  0  0  0  0  0  0  0  0  0  0
   -2.3050    2.2870   -0.4480 O   0  0  0  0  0  0  0  0  0  0  0  0
   -4.3620    1.6020    0.1120 O   0  0  0  0  0  0  0  0  0  0  0  0
   -5.3690    1.8820    0.9680 C   0  0  0  0  0  0  0  0  0  0  0  0
   -6.4490    2.5840    0.1780 C   0  0  0  0  0  0  0  0  0  0  0  0
   -6.1350    4.0270   -0.0990 C   0  0  0  0  0  0  0  0  0  0  0  0
   -7.5570    2.0270   -0.2420 C   0  0  0  0  0  0  0  0  0  0  0  0
   -8.4030    2.9270   -0.9660 O   0  0  0  0  0  0  0  0  0  0  0  0
   -7.9860    0.6540   -0.0510 C   0  0  0  0  0  0  0  0  0  0  0  0
   -7.4510   -0.4500   -0.4920 C   0  0  0  0  0  0  0  0  0  0  0  0
   -6.2340   -0.6050   -1.3270 C   0  0  0  0  0  0  0  0  0  0  0  0
   -5.3200   -1.4800   -0.5420 C   0  0  0  0  0  0  0  0  0  0  0  0
   -3.8960   -1.5170   -0.8730 C   0  0  1  0  0  0  0  0  0  0  0  0
   -3.4060   -0.8560   -2.1070 C   0  0  0  0  0  0  0  0  0  0  0  0
   -2.0900   -1.1500   -2.3040 O   0  0  0  0  0  0  0  0  0  0  0  0
   -1.4240   -2.0270   -1.5520 C   0  0  0  0  0  0  0  0  0  0  0  0
   -1.7530   -2.1390   -0.0980 C   0  0  0  0  0  0  0  0  0  0  0  0
   -2.9480   -1.1960    0.2420 C   0  0  1  0  0  0  0  0  0  0  0  0
    3.9290    0.6730    0.4740 C   0  0  0  0  0  0  0  0  0  0  0  0
    6.9300   -1.4890   -0.5930 C   0  0  0  0  0  0  0  0  0  0  0  0
    7.3860   -2.5950   -0.6370 O   0  0  0  0  0  0  0  0  0  0  0  0
    6.6860   -0.1510   -1.2440 C   0  0  1  0  0  0  0  0  0  0  0  0
    5.7570   -0.2420   -2.4330 C   0  0  0  0  0  0  0  0  0  0  0  0
    7.8620    0.7570   -1.4380 C   0  0  0  0  0  0  0  0  0  0  0  0
  1  2  1  0
  3  2  1  1
  3  4  1  0
  3 33  1  0
  3 35  1  0
  4  5  1  1
  4 32  1  0
  5  6  1  0
  6  7  1  0
  7  8  1  0
  8  9  1  6
  8 32  1  0
  9 10  1  0
 10 11  2  0
 10 12  1  0
 13 12  1  6
 13 14  1  0
 13 31  1  0
 14 15  2  0
 14 16  1  0
 16 17  1  0
 17 18  1  0
 18 19  1  0
 18 20  2  0
 20 21  1  0
 20 22  1  0
 22 23  2  0
 23 24  1  0
 24 25  1  0
 26 25  1  1
 26 27  1  0
 26 31  1  0
 27 28  1  0
 28 29  1  0
 29 30  1  0
 31 30  1  6
 33 34  2  0
 33 35  1  0
 35 36  1  6
 35 37  1  0
M  END
