
     RDKit          3D

 37 39  0  0  0  0  0  0  0  0999 V2000
    4.8720   -0.6900   -4.7180 C   0  0  0  0  0  0  0  0  0  0  0  0
    4.7510    0.2630   -3.7060 O   0  0  0  0  0  0  0  0  0  0  0  0
    3.9090    0.0510   -2.5890 C   0  0  0  0  0  0  0  0  0  0  0  0
    3.3100   -1.0250   -2.5990 O   0  0  0  0  0  0  0  0  0  0  0  0
    3.8800    1.1300   -1.6100 C   0  0  2  0  0  0  0  0  0  0  0  0
    3.3570    2.3450   -2.4270 C   0  0  0  0  0  0  0  0  0  0  0  0
    5.3290    1.5350   -1.3710 C   0  0  0  0  0  0  0  0  0  0  0  0
    3.0370    1.0690   -0.4420 C   0  0  1  0  0  0  0  0  0  0  0  0
    3.2950    2.3390    0.2170 O   0  0  0  0  0  0  0  0  0  0  0  0
    1.5800    1.2430   -0.9200 C   0  0  0  0  0  0  0  0  0  0  0  0
    0.7200    0.4320    0.0200 C   0  0  1  0  0  0  0  0  0  0  0  0
   -0.5000    0.0570   -0.5110 O   0  0  0  0  0  0  0  0  0  0  0  0
   -1.6720    0.4450    0.1650 C   0  0  0  0  0  0  0  0  0  0  0  0
   -1.6140    1.1180    1.2270 O   0  0  0  0  0  0  0  0  0  0  0  0
   -2.9210    0.1090   -0.3020 O   0  0  0  0  0  0  0  0  0  0  0  0
   -4.1640    0.4200    0.2390 C   0  0  1  0  0  0  0  0  0  0  0  0
   -4.4050   -0.0310    1.6080 C   0  0  0  0  0  0  0  0  0  0  0  0
   -4.3570   -1.4240    2.0180 C   0  0  1  0  0  0  0  0  0  0  0  0
   -4.6640   -1.4410    3.5360 C   0  0  0  0  0  0  0  0  0  0  0  0
   -5.2210   -2.4520    1.4260 C   0  0  0  0  0  0  0  0  0  0  0  0
   -4.2740    1.9610    0.2580 C   0  0  0  0  0  0  0  0  0  0  0  0
   -4.4560    2.2400   -1.1860 C   0  0  1  0  0  0  0  0  0  0  0  0
   -5.2980    3.5090   -1.3210 C   0  0  0  0  0  0  0  0  0  0  0  0
   -3.1540    2.4470   -1.9270 C   0  0  0  0  0  0  0  0  0  0  0  0
   -5.1440    1.2020   -1.7180 O   0  0  0  0  0  0  0  0  0  0  0  0
   -5.2150    0.1410   -0.8030 C   0  0  1  0  0  0  0  0  0  0  0  0
   -4.8970   -1.0890   -1.6360 C   0  0  0  0  0  0  0  0  0  0  0  0
   -6.6190    0.1080   -0.3320 C   0  0  0  0  0  0  0  0  0  0  0  0
    1.6250   -0.7340    0.3150 C   0  0  0  0  0  0  0  0  0  0  0  0
    2.9180    0.0850    0.5820 C   0  0  1  0  0  0  0  0  0  0  0  0
    3.9650   -0.7330    1.1790 C   0  0  2  0  0  0  0  0  0  0  0  0
    4.7240   -1.7130    0.3810 C   0  0  0  0  0  0  0  0  0  0  0  0
    5.9210   -2.1700    1.2420 C   0  0  0  0  0  0  0  0  0  0  0  0
    5.5010   -2.7660    2.5410 C   0  0  0  0  0  0  0  0  0  0  0  0
    4.4190   -1.9680    3.2340 C   0  0  2  0  0  0  0  0  0  0  0  0
    3.9800   -2.6770    4.3300 O   0  0  0  0  0  0  0  0  0  0  0  0
    3.3010   -1.6160    2.2800 C   0  0  0  0  0  0  0  0  0  0  0  0
  1  2  1  0
  2  3  1  0
  3  4  2  0
  3  5  1  0
  5  6  1  6
  5  7  1  0
  5  8  1  0
  8  9  1  1
  8 10  1  0
  8 30  1  0
 10 11  1  0
 11 12  1  6
 11 29  1  0
 12 13  1  0
 13 14  2  0
 13 15  1  0
 15 16  1  0
 16 17  1  1
 16 21  1  0
 16 26  1  0
 17 18  1  0
 18 19  1  1
 18 20  1  0
 21 22  1  0
 22 23  1  1
 22 24  1  0
 22 25  1  0
 25 26  1  0
 26 27  1  6
 26 28  1  0
 30 29  1  6
 30 31  1  0
 31 32  1  6
 31 37  1  0
 32 33  1  0
 33 34  1  0
 34 35  1  0
 35 36  1  1
 35 37  1  0
M  END
