
     RDKit          3D

 37 40  0  0  0  0  0  0  0  0999 V2000
    6.8300    1.0590    0.8990 C   0  0  0  0  0  0  0  0  0  0  0  0
    6.9590   -0.0050   -0.1850 C   0  0  0  0  0  0  0  0  0  0  0  0
    5.6210   -0.6320   -0.4240 C   0  0  1  0  0  0  0  0  0  0  0  0
    5.1500   -1.2610    0.8680 C   0  0  0  0  0  0  0  0  0  0  0  0
    4.5920    0.3800   -0.9240 C   0  0  0  0  0  0  0  0  0  0  0  0
    3.3900   -0.3460   -1.1050 O   0  0  0  0  0  0  0  0  0  0  0  0
    2.2100    0.2800   -1.5660 C   0  0  0  0  0  0  0  0  0  0  0  0
    2.3320    1.4990   -1.7890 O   0  0  0  0  0  0  0  0  0  0  0  0
    1.0180   -0.5510   -1.7210 C   0  0  1  0  0  0  0  0  0  0  0  0
    0.5660   -0.4740   -3.1450 C   0  0  0  0  0  0  0  0  0  0  0  0
    1.3880   -1.8920   -1.4960 O   0  0  0  0  0  0  0  0  0  0  0  0
   -0.1170   -0.2000   -0.7250 C   0  0  2  0  0  0  0  0  0  0  0  0
   -0.5120    1.1710   -0.9440 C   0  0  0  0  0  0  0  0  0  0  0  0
   -1.6010    1.8460   -0.2080 C   0  0  1  0  0  0  0  0  0  0  0  0
   -1.4280    1.9390    1.2470 C   0  0  0  0  0  0  0  0  0  0  0  0
   -1.7570    1.0640    2.0770 O   0  0  0  0  0  0  0  0  0  0  0  0
   -0.8440    3.1100    1.7770 O   0  0  0  0  0  0  0  0  0  0  0  0
   -1.3860    4.3090    1.3810 C   0  0  1  0  0  0  0  0  0  0  0  0
   -0.3920    5.4420    1.6530 C   0  0  0  0  0  0  0  0  0  0  0  0
   -0.7190    6.4900    0.6000 C   0  0  0  0  0  0  0  0  0  0  0  0
   -1.5800    5.7950   -0.4230 C   0  0  0  0  0  0  0  0  0  0  0  0
   -2.2190    6.2630   -1.3860 O   0  0  0  0  0  0  0  0  0  0  0  0
   -1.5580    4.3500   -0.0940 C   0  0  0  0  0  0  0  0  0  0  0  0
   -1.6570    3.2520   -0.7660 C   0  0  0  0  0  0  0  0  0  0  0  0
   -1.8520    3.3580   -2.2570 C   0  0  0  0  0  0  0  0  0  0  0  0
    0.3190   -0.6640    0.6190 C   0  0  0  0  0  0  0  0  0  0  0  0
   -0.6280   -1.5500    1.1240 O   0  0  0  0  0  0  0  0  0  0  0  0
   -1.0300   -2.2430    0.0140 C   0  0  1  0  0  0  0  0  0  0  0  0
   -2.2710   -3.0740    0.2450 C   0  0  1  0  0  0  0  0  0  0  0  0
   -2.5050   -3.9010   -1.0020 C   0  0  0  0  0  0  0  0  0  0  0  0
   -1.9560   -4.0250    1.3880 C   0  0  0  0  0  0  0  0  0  0  0  0
   -3.0830   -3.7770    2.3470 C   0  0  0  0  0  0  0  0  0  0  0  0
   -4.1110   -3.0890    1.5090 C   0  0  1  0  0  0  0  0  0  0  0  0
   -4.9490   -4.1490    0.8280 C   0  0  0  0  0  0  0  0  0  0  0  0
   -5.0430   -2.2140    2.3160 C   0  0  0  0  0  0  0  0  0  0  0  0
   -3.3660   -2.3430    0.6230 O   0  0  0  0  0  0  0  0  0  0  0  0
   -1.2230   -1.1900   -1.0310 C   0  0  0  0  0  0  0  0  0  0  0  0
  1  2  1  0
  2  3  1  0
  3  4  1  1
  3  5  1  0
  5  6  1  0
  6  7  1  0
  7  8  2  0
  7  9  1  0
  9 10  1  6
  9 11  1  0
  9 12  1  0
 12 13  1  1
 12 26  1  0
 12 37  1  0
 14 13  1  6
 14 15  1  0
 14 24  1  0
 15 16  2  0
 15 17  1  0
 17 18  1  0
 18 19  1  6
 18 23  1  0
 19 20  1  0
 20 21  1  0
 21 22  2  0
 21 23  1  0
 23 24  2  0
 24 25  1  0
 26 27  1  0
 27 28  1  0
 28 29  1  0
 28 37  1  6
 29 30  1  6
 29 31  1  0
 29 36  1  0
 31 32  1  0
 32 33  1  0
 33 34  1  6
 33 35  1  0
 33 36  1  0
M  END
