
     RDKit          3D

 37 41  0  0  0  0  0  0  0  0999 V2000
   -6.9600    6.1810    0.4370 N   0  0  0  0  0  0  0  0  0  0  0  0
   -6.6680    5.0030    0.5570 N   0  0  0  0  0  0  0  0  0  0  0  0
   -6.3560    3.8610    0.2600 N   0  0  0  0  0  0  0  0  0  0  0  0
   -5.1640    3.1910    0.8020 C   0  0  0  0  0  0  0  0  0  0  0  0
   -4.9590    1.9860   -0.0570 C   0  0  1  0  0  0  0  0  0  0  0  0
   -3.8600    1.1980    0.2980 O   0  0  0  0  0  0  0  0  0  0  0  0
   -4.1710    0.0320   -0.3770 C   0  0  1  0  0  0  0  0  0  0  0  0
   -3.2350   -1.0230   -0.3040 N   0  0  0  0  0  0  0  0  0  0  0  0
   -2.0650   -1.1190   -0.9270 C   0  0  0  0  0  0  0  0  0  0  0  0
   -1.2620    0.1190   -1.9630 S   0  0  0  0  0  0  0  0  0  0  0  0
   -0.1000    1.0530   -0.8740 C   0  0  0  0  0  0  0  0  0  0  0  0
    0.9580    0.1270   -0.4240 C   0  0  0  0  0  0  0  0  0  0  0  0
    0.6060   -0.7780    0.4040 O   0  0  0  0  0  0  0  0  0  0  0  0
    2.3060    0.1480   -0.8300 N   0  0  0  0  0  0  0  0  0  0  0  0
    3.1890   -0.8500   -0.3190 C   0  0  0  0  0  0  0  0  0  0  0  0
    4.6100   -0.7850   -0.7200 C   0  0  0  0  0  0  0  0  0  0  0  0
    5.3470    0.4020   -0.2760 C   0  0  0  0  0  0  0  0  0  0  0  0
    4.9300    1.5910    0.2480 C   0  0  0  0  0  0  0  0  0  0  0  0
    6.0260    2.3330    0.5200 N   0  0  0  0  0  0  0  0  0  0  0  0
    7.1420    1.6600    0.1870 C   0  0  0  0  0  0  0  0  0  0  0  0
    8.5000    1.9600    0.2650 C   0  0  0  0  0  0  0  0  0  0  0  0
    9.4530    1.0730   -0.1500 C   0  0  0  0  0  0  0  0  0  0  0  0
    9.0710   -0.1320   -0.6520 C   0  0  0  0  0  0  0  0  0  0  0  0
    7.7130   -0.4380   -0.7310 C   0  0  0  0  0  0  0  0  0  0  0  0
    6.7420    0.4540   -0.3130 C   0  0  0  0  0  0  0  0  0  0  0  0
   -1.4530   -2.3040   -0.6300 N   0  0  0  0  0  0  0  0  0  0  0  0
   -2.2530   -2.9680    0.1970 C   0  0  0  0  0  0  0  0  0  0  0  0
   -2.1030   -4.2150    0.7950 C   0  0  0  0  0  0  0  0  0  0  0  0
   -0.9400   -4.9800    0.5560 N   0  0  0  0  0  0  0  0  0  0  0  0
   -3.1010   -4.6200    1.5930 N   0  0  0  0  0  0  0  0  0  0  0  0
   -4.1940   -3.8570    1.8050 C   0  0  0  0  0  0  0  0  0  0  0  0
   -4.3050   -2.6560    1.2120 N   0  0  0  0  0  0  0  0  0  0  0  0
   -3.3650   -2.1760    0.4050 C   0  0  0  0  0  0  0  0  0  0  0  0
   -5.5200   -0.2840    0.2820 C   0  0  2  0  0  0  0  0  0  0  0  0
   -6.2020   -1.2980   -0.3420 O   0  0  0  0  0  0  0  0  0  0  0  0
   -6.1890    1.0860    0.0810 C   0  0  2  0  0  0  0  0  0  0  0  0
   -6.8560    1.0320   -1.1580 O   0  0  0  0  0  0  0  0  0  0  0  0
  1  2  2  0
  2  3  2  0
  3  4  1  0
  5  4  1  1
  5  6  1  0
  5 36  1  0
  6  7  1  0
  7  8  1  1
  7 34  1  0
  8  9  1  0
  8 33  1  0
  9 10  1  0
  9 26  2  0
 10 11  1  0
 11 12  1  0
 12 13  2  0
 12 14  1  0
 14 15  1  0
 15 16  1  0
 16 17  1  0
 17 18  2  0
 17 25  1  0
 18 19  1  0
 19 20  1  0
 20 21  2  0
 20 25  1  0
 21 22  1  0
 22 23  2  0
 23 24  1  0
 24 25  2  0
 26 27  1  0
 27 28  2  0
 27 33  1  0
 28 29  1  0
 28 30  1  0
 30 31  2  0
 31 32  1  0
 32 33  2  0
 34 35  1  6
 34 36  1  0
 36 37  1  6
M  CHG  2   1  -1   2   1
M  END
