
     RDKit          3D

 47 51  0  0  0  0  0  0  0  0999 V2000
    2.5870    1.0820    6.1250 C   0  0  0  0  0  0  0  0  0  0  0  0
    1.8340    1.3460    4.9250 N   0  0  0  0  0  0  0  0  0  0  0  0
    2.1870    0.7340    3.6930 C   0  0  0  0  0  0  0  0  0  0  0  0
    3.1830   -0.0520    3.6740 O   0  0  0  0  0  0  0  0  0  0  0  0
    1.3920    1.0330    2.5070 C   0  0  0  0  0  0  0  0  0  0  0  0
    1.5570    0.1380    1.3290 C   0  0  1  0  0  0  0  0  0  0  0  0
    2.9290    0.0900    0.8560 N   0  0  0  0  0  0  0  0  0  0  0  0
    3.3840    0.6620   -0.3470 C   0  0  0  0  0  0  0  0  0  0  0  0
    2.5840    1.2660   -1.0840 O   0  0  0  0  0  0  0  0  0  0  0  0
    4.8040    0.5530   -0.7460 C   0  0  2  0  0  0  0  0  0  0  0  0
    5.6080    1.0320    0.4260 C   0  0  0  0  0  0  0  0  0  0  0  0
    6.8950    1.6860    0.0530 C   0  0  2  0  0  0  0  0  0  0  0  0
    6.5980    3.1170   -0.3550 C   0  0  0  0  0  0  0  0  0  0  0  0
    6.4380    3.1300   -1.8570 C   0  0  0  0  0  0  0  0  0  0  0  0
    6.3720    1.6320   -2.2230 C   0  0  1  0  0  0  0  0  0  0  0  0
    7.3800    1.0810   -1.2570 C   0  0  0  0  0  0  0  0  0  0  0  0
    5.0140    1.2200   -1.9700 N   0  0  0  0  0  0  0  0  0  0  0  0
    1.0160   -1.2280    1.4890 C   0  0  0  0  0  0  0  0  0  0  0  0
    0.7050   -1.8070    2.6990 C   0  0  0  0  0  0  0  0  0  0  0  0
    0.2390   -3.1170    2.7670 C   0  0  0  0  0  0  0  0  0  0  0  0
    0.0700   -3.8800    1.6310 C   0  0  0  0  0  0  0  0  0  0  0  0
    0.3760   -3.3110    0.4080 C   0  0  0  0  0  0  0  0  0  0  0  0
    0.2050   -4.0900   -0.8560 C   0  0  2  0  0  0  0  0  0  0  0  0
   -0.1800   -5.5270   -0.5600 C   0  0  0  0  0  0  0  0  0  0  0  0
    1.5420   -4.1110   -1.5610 C   0  0  0  0  0  0  0  0  0  0  0  0
    0.8380   -2.0030    0.3660 C   0  0  0  0  0  0  0  0  0  0  0  0
    1.1170   -1.4830   -0.9230 O   0  0  0  0  0  0  0  0  0  0  0  0
   -0.0200   -0.8530   -1.5060 C   0  0  0  0  0  0  0  0  0  0  0  0
   -1.2050   -0.7730   -0.8250 C   0  0  0  0  0  0  0  0  0  0  0  0
   -2.3690   -0.1620   -1.3550 C   0  0  0  0  0  0  0  0  0  0  0  0
   -3.4550   -0.0040   -0.3690 C   0  0  2  0  0  0  0  0  0  0  0  0
   -3.3980   -1.2610    0.4980 C   0  0  0  0  0  0  0  0  0  0  0  0
   -4.7600    0.4840   -0.7540 C   0  0  0  0  0  0  0  0  0  0  0  0
   -5.7980    0.7370    0.2800 C   0  0  1  0  0  0  0  0  0  0  0  0
   -6.2990   -0.3600    1.1180 C   0  0  0  0  0  0  0  0  0  0  0  0
   -7.6440   -0.0040    1.7780 C   0  0  0  0  0  0  0  0  0  0  0  0
   -7.7560    1.4860    1.8220 C   0  0  0  0  0  0  0  0  0  0  0  0
   -6.4670    2.1570    2.1680 C   0  0  0  0  0  0  0  0  0  0  0  0
   -5.3900    1.9520    1.1510 C   0  0  0  0  0  0  0  0  0  0  0  0
   -2.2700    0.3610   -2.6080 C   0  0  0  0  0  0  0  0  0  0  0  0
   -3.3770    0.8360   -3.3090 N   0  0  0  0  0  0  0  0  0  0  0  0
   -3.2820    1.8290   -4.3180 C   0  0  0  0  0  0  0  0  0  0  0  0
   -4.4580    2.2720   -5.0290 N   0  0  0  0  0  0  0  0  0  0  0  0
   -2.2220    2.3750   -4.6600 O   0  0  0  0  0  0  0  0  0  0  0  0
   -1.0630    0.2910   -3.3220 C   0  0  0  0  0  0  0  0  0  0  0  0
    0.0630   -0.3200   -2.7610 C   0  0  0  0  0  0  0  0  0  0  0  0
    1.3090   -0.3570   -3.5690 C   0  0  0  0  0  0  0  0  0  0  0  0
  1  2  1  0
  2  3  1  0
  3  4  2  0
  3  5  1  0
  6  5  1  1
  6  7  1  0
  6 18  1  0
  7  8  1  0
  8  9  2  0
 10  8  1  1
 10 11  1  0
 10 17  1  0
 12 11  1  6
 12 13  1  0
 12 16  1  0
 13 14  1  0
 15 14  1  1
 15 16  1  0
 15 17  1  0
 18 19  2  0
 18 26  1  0
 19 20  1  0
 20 21  2  0
 21 22  1  0
 22 23  1  0
 22 26  2  0
 23 24  1  1
 23 25  1  0
 26 27  1  0
 27 28  1  0
 28 29  2  0
 28 46  1  0
 29 30  1  0
 30 31  1  0
 30 40  2  0
 31 32  1  6
 31 33  1  0
 34 33  1  1
 34 35  1  0
 34 39  1  0
 35 36  1  0
 36 37  1  0
 37 38  1  0
 38 39  1  0
 40 41  1  0
 40 45  1  0
 41 42  1  0
 42 43  1  0
 42 44  2  0
 45 46  2  0
 46 47  1  0
M  CHG  1  17   1
M  END
