
     RDKit          3D

 47 52  0  0  0  0  0  0  0  0999 V2000
    2.6910   -1.1000   -1.3020 C   0  0  0  0  0  0  0  0  0  0  0  0
    2.2660   -0.4540   -0.0160 C   0  0  0  0  0  0  0  0  0  0  0  0
    1.1500    0.3760    0.0790 C   0  0  0  0  0  0  0  0  0  0  0  0
    0.8730    0.9670    1.2560 C   0  0  0  0  0  0  0  0  0  0  0  0
   -0.1710    2.0110    1.4170 C   0  0  2  0  0  0  0  0  0  0  0  0
   -1.4540    1.2700    1.0700 C   0  0  0  0  0  0  0  0  0  0  0  0
   -2.0570    0.4770    2.0350 C   0  0  0  0  0  0  0  0  0  0  0  0
   -3.2090   -0.2430    1.8160 C   0  0  0  0  0  0  0  0  0  0  0  0
   -3.8410   -0.1960    0.5550 C   0  0  0  0  0  0  0  0  0  0  0  0
   -4.9650   -0.9230    0.3650 O   0  0  0  0  0  0  0  0  0  0  0  0
   -5.8300   -1.1920   -0.6530 C   0  0  1  0  0  0  0  0  0  0  0  0
   -5.7170   -2.6760   -1.0860 C   0  0  0  0  0  0  0  0  0  0  0  0
   -6.1980   -3.5480    0.0620 C   0  0  0  0  0  0  0  0  0  0  0  0
   -7.6320   -3.3860    0.2330 N   0  0  2  0  0  0  0  0  0  0  0  0
   -8.3540   -4.5700   -0.2500 C   0  0  0  0  0  0  0  0  0  0  0  0
   -8.1350   -2.2500   -0.4760 C   0  0  0  0  0  0  0  0  0  0  0  0
   -7.2450   -1.0210   -0.2090 C   0  0  0  0  0  0  0  0  0  0  0  0
   -3.2370    0.5860   -0.3790 C   0  0  0  0  0  0  0  0  0  0  0  0
   -3.8220    0.6670   -1.6650 O   0  0  0  0  0  0  0  0  0  0  0  0
   -2.0600    1.3170   -0.1490 C   0  0  0  0  0  0  0  0  0  0  0  0
   -0.0570    3.2100    0.6300 C   0  0  0  0  0  0  0  0  0  0  0  0
    1.0720    3.6650    0.0300 C   0  0  0  0  0  0  0  0  0  0  0  0
    2.4140    3.0010    0.1290 C   0  0  0  0  0  0  0  0  0  0  0  0
    1.0650    4.8710   -0.6270 N   0  0  0  0  0  0  0  0  0  0  0  0
   -0.0290    5.6200   -0.6830 C   0  0  0  0  0  0  0  0  0  0  0  0
   -0.0030    6.8500   -1.3100 C   0  0  0  0  0  0  0  0  0  0  0  0
   -1.1380    7.6810   -1.3660 C   0  0  0  0  0  0  0  0  0  0  0  0
   -2.3300    7.2740   -0.7700 C   0  0  0  0  0  0  0  0  0  0  0  0
   -2.3140    6.0440   -0.1530 C   0  0  0  0  0  0  0  0  0  0  0  0
   -1.1950    5.2380   -0.1100 C   0  0  0  0  0  0  0  0  0  0  0  0
   -1.2740    3.9900    0.5960 C   0  0  0  0  0  0  0  0  0  0  0  0
   -2.3350    3.7000    1.2010 C   0  0  0  0  0  0  0  0  0  0  0  0
   -3.5330    3.3770    1.8570 N   0  0  0  0  0  0  0  0  0  0  0  0
    1.6430    0.7760    2.3690 C   0  0  0  0  0  0  0  0  0  0  0  0
    2.7580   -0.0500    2.2790 C   0  0  0  0  0  0  0  0  0  0  0  0
    3.0560   -0.6540    1.0620 C   0  0  0  0  0  0  0  0  0  0  0  0
    4.2890   -1.4920    1.0700 C   0  0  2  0  0  0  0  0  0  0  0  0
    5.2890   -0.9430    2.0870 C   0  0  0  0  0  0  0  0  0  0  0  0
    5.5750   -0.8860    0.6140 C   0  0  1  0  0  0  0  0  0  0  0  0
    6.6080   -1.9420    0.2500 C   0  0  0  0  0  0  0  0  0  0  0  0
    7.1130   -2.6100    1.1650 O   0  0  0  0  0  0  0  0  0  0  0  0
    6.9620   -2.1300   -1.0870 N   0  0  0  0  0  0  0  0  0  0  0  0
    7.9820   -3.0110   -1.5610 C   0  0  2  0  0  0  0  0  0  0  0  0
    7.3460   -4.4280   -1.4220 C   0  0  0  0  0  0  0  0  0  0  0  0
    9.1170   -3.0680   -0.5810 C   0  0  0  0  0  0  0  0  0  0  0  0
   10.4380   -2.6640   -0.9810 N   0  0  0  0  0  0  0  0  0  0  0  0
    9.0030   -3.4140    0.6120 O   0  0  0  0  0  0  0  0  0  0  0  0
  1  2  1  0
  2  3  2  0
  2 36  1  0
  3  4  1  0
  5  4  1  6
  4 34  2  0
  5  6  1  0
  5 21  1  0
  6  7  2  0
  6 20  1  0
  7  8  1  0
  8  9  2  0
  9 10  1  0
  9 18  1  0
 11 10  1  1
 11 12  1  0
 11 17  1  0
 12 13  1  0
 13 14  1  0
 14 15  1  6
 14 16  1  0
 16 17  1  0
 18 19  1  0
 18 20  2  0
 21 22  2  0
 21 31  1  0
 22 23  1  0
 22 24  1  0
 24 25  2  0
 25 26  1  0
 25 30  1  0
 26 27  2  0
 27 28  1  0
 28 29  2  0
 29 30  1  0
 30 31  2  0
 31 32  1  0
 32 33  3  0
 34 35  1  0
 35 36  2  0
 37 36  1  6
 37 38  1  0
 37 39  1  0
 38 39  1  0
 39 40  1  1
 40 41  2  0
 40 42  1  0
 42 43  1  0
 43 44  1  1
 43 45  1  0
 45 46  1  0
 45 47  2  0
M  CHG  1  14   1
M  END
