
     RDKit          3D

 49 53  0  0  0  0  0  0  0  0999 V2000
    2.5070    7.3570   -4.0150 C   0  0  0  0  0  0  0  0  0  0  0  0
    2.1010    7.5460   -2.6630 O   0  0  0  0  0  0  0  0  0  0  0  0
    2.1300    6.4220   -1.8330 C   0  0  0  0  0  0  0  0  0  0  0  0
    2.5270    5.1870   -2.2770 C   0  0  0  0  0  0  0  0  0  0  0  0
    2.5390    4.0910   -1.4050 C   0  0  0  0  0  0  0  0  0  0  0  0
    2.1550    4.2290   -0.0890 C   0  0  0  0  0  0  0  0  0  0  0  0
    2.1840    3.0320    0.7840 C   0  0  0  0  0  0  0  0  0  0  0  0
    0.8600    2.3070    0.7870 C   0  0  0  0  0  0  0  0  0  0  0  0
    0.8610    1.0950    1.6490 C   0  0  1  0  0  0  0  0  0  0  0  0
   -0.3700    0.4030    1.6750 O   0  0  0  0  0  0  0  0  0  0  0  0
   -1.1180    0.1770    2.8070 C   0  0  0  0  0  0  0  0  0  0  0  0
   -0.5860    0.6590    3.8720 O   0  0  0  0  0  0  0  0  0  0  0  0
   -2.4020   -0.5320    2.8930 C   0  0  2  0  0  0  0  0  0  0  0  0
   -2.1770   -1.8260    3.6590 C   0  0  0  0  0  0  0  0  0  0  0  0
   -1.2390   -2.7040    2.8470 C   0  0  0  0  0  0  0  0  0  0  0  0
   -1.8610   -3.0310    1.5290 C   0  0  0  0  0  0  0  0  0  0  0  0
   -2.2210   -1.7770    0.7530 C   0  0  0  0  0  0  0  0  0  0  0  0
   -2.9810   -0.9030    1.6220 N   0  0  0  0  0  0  0  0  0  0  0  0
   -4.2450   -0.3960    1.3100 C   0  0  0  0  0  0  0  0  0  0  0  0
   -4.8290    0.3480    2.1290 O   0  0  0  0  0  0  0  0  0  0  0  0
   -5.0000   -0.6710    0.0250 C   0  0  1  0  0  0  0  0  0  0  0  0
   -6.4310   -0.2670    0.1860 C   0  0  2  0  0  0  0  0  0  0  0  0
   -7.0830   -1.0200    1.3570 C   0  0  0  0  0  0  0  0  0  0  0  0
   -6.8130   -2.4910    1.2210 C   0  0  0  0  0  0  0  0  0  0  0  0
   -7.5740   -3.0060    0.0190 C   0  0  0  0  0  0  0  0  0  0  0  0
   -7.1270   -2.2290   -1.1970 C   0  0  0  0  0  0  0  0  0  0  0  0
   -7.2540   -0.7410   -0.9910 C   0  0  0  0  0  0  0  0  0  0  0  0
   -4.3110    0.2520   -0.9530 C   0  0  1  0  0  0  0  0  0  0  0  0
   -4.7650    0.2170   -2.3640 C   0  0  0  0  0  0  0  0  0  0  0  0
   -4.3410    1.5880   -0.4440 O   0  0  0  0  0  0  0  0  0  0  0  0
    1.9950    0.1790    1.3590 C   0  0  0  0  0  0  0  0  0  0  0  0
    3.1820    0.2870    2.0540 C   0  0  0  0  0  0  0  0  0  0  0  0
    4.2460   -0.5480    1.8240 C   0  0  0  0  0  0  0  0  0  0  0  0
    4.1730   -1.5380    0.8810 C   0  0  0  0  0  0  0  0  0  0  0  0
    3.0050   -1.6930    0.1510 C   0  0  0  0  0  0  0  0  0  0  0  0
    2.8630   -2.6200   -0.7700 O   0  0  0  0  0  0  0  0  0  0  0  0
    3.2200   -3.6300   -1.5270 C   0  0  0  0  0  0  0  0  0  0  0  0
    4.3410   -3.5360   -2.5050 C   0  0  0  0  0  0  0  0  0  0  0  0
    5.6070   -3.2430   -1.9330 N   0  0  2  0  0  0  0  0  0  0  0  0
    6.6550   -3.1860   -2.9800 C   0  0  0  0  0  0  0  0  0  0  0  0
    7.9490   -2.8780   -2.2600 C   0  0  0  0  0  0  0  0  0  0  0  0
    7.7820   -2.7100   -0.8940 O   0  0  0  0  0  0  0  0  0  0  0  0
    7.2900   -3.8530   -0.2830 C   0  0  0  0  0  0  0  0  0  0  0  0
    6.0010   -4.2730   -0.9870 C   0  0  0  0  0  0  0  0  0  0  0  0
    1.9260   -0.8070    0.4200 C   0  0  0  0  0  0  0  0  0  0  0  0
    1.7590    5.4570    0.3590 C   0  0  0  0  0  0  0  0  0  0  0  0
    1.7430    6.5450   -0.4920 C   0  0  0  0  0  0  0  0  0  0  0  0
    1.3410    7.7900   -0.0390 O   0  0  0  0  0  0  0  0  0  0  0  0
    0.9460    7.9240    1.3090 C   0  0  0  0  0  0  0  0  0  0  0  0
  1  2  1  0
  2  3  1  0
  3  4  2  0
  3 47  1  0
  4  5  1  0
  5  6  2  0
  6  7  1  0
  6 46  1  0
  7  8  1  0
  9  8  1  6
  9 10  1  0
  9 31  1  0
 10 11  1  0
 11 12  2  0
 13 11  1  6
 13 14  1  0
 13 18  1  0
 14 15  1  0
 15 16  1  0
 16 17  1  0
 17 18  1  0
 18 19  1  0
 19 20  2  0
 21 19  1  1
 21 22  1  0
 21 28  1  0
 22 23  1  1
 22 27  1  0
 23 24  1  0
 24 25  1  0
 25 26  1  0
 26 27  1  0
 28 29  1  6
 28 30  1  0
 31 32  2  0
 31 45  1  0
 32 33  1  0
 33 34  2  0
 34 35  1  0
 35 36  1  0
 35 45  2  0
 36 37  1  0
 37 38  1  0
 39 38  1  6
 39 40  1  0
 39 44  1  0
 40 41  1  0
 41 42  1  0
 42 43  1  0
 43 44  1  0
 46 47  2  0
 47 48  1  0
 48 49  1  0
M  CHG  1  39   1
M  END
