
     RDKit          3D

 47 50  0  0  0  0  0  0  0  0999 V2000
   -6.2360   -5.0590   -0.2450 C   0  0  0  0  0  0  0  0  0  0  0  0
   -5.1220   -4.0270   -0.2850 C   0  0  0  0  0  0  0  0  0  0  0  0
   -5.5100   -2.9490    0.6930 C   0  0  2  0  0  0  0  0  0  0  0  0
   -6.8310   -2.3930    0.2310 C   0  0  0  0  0  0  0  0  0  0  0  0
   -4.5020   -1.8110    0.7760 C   0  0  1  0  0  0  0  0  0  0  0  0
   -3.2260   -2.3130    1.1640 N   0  0  0  0  0  0  0  0  0  0  0  0
   -2.2980   -1.2030    1.3620 C   0  0  0  0  0  0  0  0  0  0  0  0
   -1.1590   -1.3070    0.4580 C   0  0  0  0  0  0  0  0  0  0  0  0
   -1.1010   -2.2840   -0.3160 O   0  0  0  0  0  0  0  0  0  0  0  0
   -0.1280   -0.3350    0.4320 N   0  0  0  0  0  0  0  0  0  0  0  0
    0.8460   -0.5110   -0.6190 C   0  0  0  0  0  0  0  0  0  0  0  0
    2.0220   -1.2760   -0.0340 C   0  0  0  0  0  0  0  0  0  0  0  0
    2.0820   -1.4230    1.1990 O   0  0  0  0  0  0  0  0  0  0  0  0
    3.0020   -1.8090   -0.8640 N   0  0  0  0  0  0  0  0  0  0  0  0
    4.1630   -2.4910   -0.4150 C   0  0  1  0  0  0  0  0  0  0  0  0
    3.9190   -3.4820    0.6490 C   0  0  0  0  0  0  0  0  0  0  0  0
    3.0110   -4.5430    0.3120 N   0  0  0  0  0  0  0  0  0  0  0  0
    4.8150   -3.1700   -1.6470 C   0  0  0  0  0  0  0  0  0  0  0  0
    4.8350   -2.1830   -2.7520 C   0  0  0  0  0  0  0  0  0  0  0  0
    5.1610   -0.7710   -2.3540 C   0  0  0  0  0  0  0  0  0  0  0  0
    5.6740   -0.6350   -0.9770 C   0  0  0  0  0  0  0  0  0  0  0  0
    6.6520    0.2990   -0.6440 C   0  0  0  0  0  0  0  0  0  0  0  0
    7.1490    0.3600    0.6440 C   0  0  0  0  0  0  0  0  0  0  0  0
    6.6680   -0.5150    1.6140 C   0  0  0  0  0  0  0  0  0  0  0  0
    5.6860   -1.4360    1.2560 C   0  0  0  0  0  0  0  0  0  0  0  0
    5.2070   -1.4980    0.0080 C   0  0  0  0  0  0  0  0  0  0  0  0
   -0.0020    0.6880    1.3950 C   0  0  0  0  0  0  0  0  0  0  0  0
    0.3150    0.2860    2.7220 C   0  0  0  0  0  0  0  0  0  0  0  0
    0.5240    1.1720    3.7290 C   0  0  0  0  0  0  0  0  0  0  0  0
    0.4230    2.5080    3.4550 C   0  0  0  0  0  0  0  0  0  0  0  0
    0.1200    2.9190    2.1800 C   0  0  0  0  0  0  0  0  0  0  0  0
   -0.0970    2.0190    1.1480 C   0  0  0  0  0  0  0  0  0  0  0  0
   -0.4380    2.5110   -0.1270 O   0  0  0  0  0  0  0  0  0  0  0  0
   -0.9730    3.7790   -0.2240 C   0  0  0  0  0  0  0  0  0  0  0  0
   -1.7470    4.3780    0.7730 C   0  0  0  0  0  0  0  0  0  0  0  0
   -2.2430    5.6520    0.6780 C   0  0  0  0  0  0  0  0  0  0  0  0
   -1.9770    6.3910   -0.4430 C   0  0  0  0  0  0  0  0  0  0  0  0
   -2.5030    7.8080   -0.4550 C   0  0  0  0  0  0  0  0  0  0  0  0
   -1.8150    8.4680    0.6510 C   0  0  0  0  0  0  0  0  0  0  0  0
   -1.2370    9.0320    1.6080 N   0  0  0  0  0  0  0  0  0  0  0  0
   -1.2250    5.8560   -1.4650 C   0  0  0  0  0  0  0  0  0  0  0  0
   -0.7380    4.5440   -1.3370 C   0  0  0  0  0  0  0  0  0  0  0  0
    0.0070    3.9440   -2.3440 O   0  0  0  0  0  0  0  0  0  0  0  0
    0.2770    4.6150   -3.5360 C   0  0  0  0  0  0  0  0  0  0  0  0
   -4.4890   -0.8810   -0.3160 C   0  0  0  0  0  0  0  0  0  0  0  0
   -3.3630   -0.3490   -1.0130 N   0  0  0  0  0  0  0  0  0  0  0  0
   -5.5960   -0.4040   -0.8040 O   0  0  0  0  0  0  0  0  0  0  0  0
  1  2  1  0
  2  3  1  0
  3  4  1  6
  3  5  1  0
  5  6  1  6
  5 45  1  0
  6  7  1  0
  7  8  1  0
  8  9  2  0
  8 10  1  0
 10 11  1  0
 10 27  1  0
 11 12  1  0
 12 13  2  0
 12 14  1  0
 14 15  1  0
 15 16  1  1
 15 18  1  0
 15 26  1  0
 16 17  1  0
 18 19  1  0
 19 20  1  0
 20 21  1  0
 21 22  2  0
 21 26  1  0
 22 23  1  0
 23 24  2  0
 24 25  1  0
 25 26  2  0
 27 28  2  0
 27 32  1  0
 28 29  1  0
 29 30  2  0
 30 31  1  0
 31 32  2  0
 32 33  1  0
 33 34  1  0
 34 35  2  0
 34 42  1  0
 35 36  1  0
 36 37  2  0
 37 38  1  0
 37 41  1  0
 38 39  1  0
 39 40  3  0
 41 42  2  0
 42 43  1  0
 43 44  1  0
 45 46  1  0
 45 47  2  0
M  CHG  2   6   1  17   1
M  END
