
     RDKit          3D

 47 50  0  0  0  0  0  0  0  0999 V2000
   -7.3850    2.3080   -2.0790 C   0  0  0  0  0  0  0  0  0  0  0  0
   -6.5430    1.3320   -1.2980 C   0  0  0  0  0  0  0  0  0  0  0  0
   -5.5770    1.7400   -0.4420 C   0  0  0  0  0  0  0  0  0  0  0  0
   -4.7790    0.8860    0.2940 C   0  0  0  0  0  0  0  0  0  0  0  0
   -5.0000   -0.4670    0.1380 C   0  0  0  0  0  0  0  0  0  0  0  0
   -5.9840   -0.9380   -0.7450 C   0  0  0  0  0  0  0  0  0  0  0  0
   -6.1820   -2.3620   -1.0270 C   0  0  2  0  0  0  0  0  0  0  0  0
   -4.9180   -2.9980   -1.6220 C   0  0  0  0  0  0  0  0  0  0  0  0
   -7.2120   -2.4870   -2.1750 C   0  0  0  0  0  0  0  0  0  0  0  0
   -6.7310   -3.2120    0.0900 C   0  0  0  0  0  0  0  0  0  0  0  0
   -6.7590   -0.0090   -1.4650 C   0  0  0  0  0  0  0  0  0  0  0  0
   -4.3430   -1.5130    1.0060 C   0  0  0  0  0  0  0  0  0  0  0  0
   -3.4290   -0.8580    2.0430 C   0  0  0  0  0  0  0  0  0  0  0  0
   -3.9130    0.4770    2.4420 C   0  0  0  0  0  0  0  0  0  0  0  0
   -3.7400    1.4080    1.1220 C   0  0  1  0  0  0  0  0  0  0  0  0
   -2.3570    1.2700    0.7690 N   0  0  0  0  0  0  0  0  0  0  0  0
   -1.8200    0.4560   -0.2560 C   0  0  0  0  0  0  0  0  0  0  0  0
   -1.6750    1.0130   -1.6370 C   0  0  1  0  0  0  0  0  0  0  0  0
   -2.9300    1.4710   -2.2770 C   0  0  0  0  0  0  0  0  0  0  0  0
   -3.3060    2.8590   -2.2860 N   0  0  0  0  0  0  0  0  0  0  0  0
   -3.7310    0.6800   -2.8410 O   0  0  0  0  0  0  0  0  0  0  0  0
   -0.5750    1.9140   -1.9400 C   0  0  0  0  0  0  0  0  0  0  0  0
   -0.3850    3.1800   -1.3910 N   0  0  0  0  0  0  0  0  0  0  0  0
    0.3070    1.5410   -2.7850 O   0  0  0  0  0  0  0  0  0  0  0  0
   -1.4320    2.1490    1.4420 C   0  0  0  0  0  0  0  0  0  0  0  0
   -1.9040    3.1050    2.1200 O   0  0  0  0  0  0  0  0  0  0  0  0
    0.0230    1.9840    1.3990 C   0  0  0  0  0  0  0  0  0  0  0  0
    0.9070    2.8860    1.9470 C   0  0  0  0  0  0  0  0  0  0  0  0
    2.1720    2.3930    1.7440 C   0  0  0  0  0  0  0  0  0  0  0  0
    2.0400    1.2000    1.0770 C   0  0  0  0  0  0  0  0  0  0  0  0
    3.1310    0.3290    0.6890 C   0  0  2  0  0  0  0  0  0  0  0  0
    3.9750    0.0970    1.8520 N   0  0  0  0  0  0  0  0  0  0  0  0
    4.6860   -0.9130    2.4830 C   0  0  0  0  0  0  0  0  0  0  0  0
    4.0610   -1.5620    3.4830 O   0  0  0  0  0  0  0  0  0  0  0  0
    5.9850   -1.4930    2.3570 N   0  0  0  0  0  0  0  0  0  0  0  0
    7.2870   -0.9470    2.4460 C   0  0  0  0  0  0  0  0  0  0  0  0
    8.3930   -1.9010    2.2250 C   0  0  0  0  0  0  0  0  0  0  0  0
    8.5960   -2.5750    0.9370 C   0  0  0  0  0  0  0  0  0  0  0  0
    9.2770   -1.7970   -0.1710 C   0  0  0  0  0  0  0  0  0  0  0  0
    8.3140   -1.7830   -1.4190 C   0  0  0  0  0  0  0  0  0  0  0  0
    7.1420   -1.0770   -1.0180 C   0  0  0  0  0  0  0  0  0  0  0  0
    6.2670   -0.5580   -0.7220 C   0  0  0  0  0  0  0  0  0  0  0  0
    5.2220    0.0530   -0.3690 C   0  0  0  0  0  0  0  0  0  0  0  0
    3.9610    0.8440   -0.5100 C   0  0  2  0  0  0  0  0  0  0  0  0
    4.1340    2.3210   -0.4890 C   0  0  0  0  0  0  0  0  0  0  0  0
    3.3170    0.4600   -1.7890 C   0  0  0  0  0  0  0  0  0  0  0  0
    0.7300    1.0270    0.9010 O   0  0  0  0  0  0  0  0  0  0  0  0
  1  2  1  0
  2  3  2  0
  2 11  1  0
  3  4  1  0
  4  5  2  0
  4 15  1  0
  5  6  1  0
  5 12  1  0
  6  7  1  0
  6 11  2  0
  7  8  1  6
  7  9  1  0
  7 10  1  0
 12 13  1  0
 13 14  1  0
 14 15  1  0
 15 16  1  6
 16 17  1  0
 16 25  1  0
 18 17  1  1
 18 19  1  0
 18 22  1  0
 19 20  1  0
 19 21  2  0
 22 23  1  0
 22 24  2  0
 25 26  2  0
 25 27  1  0
 27 28  2  0
 27 47  1  0
 28 29  1  0
 29 30  2  0
 31 30  1  1
 30 47  1  0
 31 32  1  0
 31 44  1  0
 32 33  1  0
 33 34  2  0
 33 35  1  0
 35 36  1  0
 36 37  1  0
 37 38  1  0
 38 39  1  0
 39 40  1  0
 40 41  1  0
 41 42  3  0
 42 43  1  0
 43 44  1  0
 44 45  1  1
 44 46  1  0
M  END
