
     RDKit          3D

 47 51  0  0  0  0  0  0  0  0999 V2000
    4.6690   -0.8020   -5.0900 C   0  0  0  0  0  0  0  0  0  0  0  0
    4.8840   -0.5120   -3.6410 C   0  0  0  0  0  0  0  0  0  0  0  0
    5.4190    0.6900   -3.2250 C   0  0  0  0  0  0  0  0  0  0  0  0
    5.6190    0.9800   -1.9040 C   0  0  0  0  0  0  0  0  0  0  0  0
    5.2610    0.0130   -0.9620 C   0  0  0  0  0  0  0  0  0  0  0  0
    5.4460    0.3550    0.4000 N   0  0  0  0  0  0  0  0  0  0  0  0
    6.7410    0.5630    0.9790 C   0  0  0  0  0  0  0  0  0  0  0  0
    7.3720   -0.5890    1.6850 C   0  0  1  0  0  0  0  0  0  0  0  0
    7.6030   -1.7830    0.8310 C   0  0  0  0  0  0  0  0  0  0  0  0
    8.6280   -1.5250   -0.2640 C   0  0  0  0  0  0  0  0  0  0  0  0
    9.8060   -0.7260    0.2550 C   0  0  0  0  0  0  0  0  0  0  0  0
    9.8280   -0.8320    1.7530 C   0  0  1  0  0  0  0  0  0  0  0  0
   11.1560   -0.3270    2.2850 C   0  0  0  0  0  0  0  0  0  0  0  0
   11.4290    1.0810    1.9430 C   0  0  0  0  0  0  0  0  0  0  0  0
   12.4080    1.4580    0.9820 N   0  0  0  0  0  0  0  0  0  0  0  0
   10.8050    2.0250    2.4900 O   0  0  0  0  0  0  0  0  0  0  0  0
    8.6690   -0.0990    2.3290 C   0  0  0  0  0  0  0  0  0  0  0  0
    4.2680    0.5680    1.1770 C   0  0  0  0  0  0  0  0  0  0  0  0
    4.3790    0.8120    2.3820 O   0  0  0  0  0  0  0  0  0  0  0  0
    2.9290    0.5040    0.5600 C   0  0  0  0  0  0  0  0  0  0  0  0
    1.9260    0.7630    1.5430 O   0  0  0  0  0  0  0  0  0  0  0  0
    0.5730    0.7720    1.2010 C   0  0  0  0  0  0  0  0  0  0  0  0
    0.1580    0.5320   -0.1020 C   0  0  0  0  0  0  0  0  0  0  0  0
   -1.1950    0.5620   -0.3540 C   0  0  0  0  0  0  0  0  0  0  0  0
   -2.1240    0.8160    0.6300 C   0  0  0  0  0  0  0  0  0  0  0  0
   -3.4270    0.8250    0.2700 O   0  0  0  0  0  0  0  0  0  0  0  0
   -4.5810    1.0240    1.0740 C   0  0  1  0  0  0  0  0  0  0  0  0
   -4.8860    2.4840    1.0640 C   0  0  0  0  0  0  0  0  0  0  0  0
   -4.9700    3.0980   -0.2940 C   0  0  0  0  0  0  0  0  0  0  0  0
   -5.7860    2.2600   -1.2550 C   0  0  0  0  0  0  0  0  0  0  0  0
   -6.8600    1.4890   -0.6000 C   0  0  0  0  0  0  0  0  0  0  0  0
   -6.5870    0.1270   -0.2060 N   0  0  2  0  0  0  0  0  0  0  0  0
   -7.7920   -0.5970   -0.0180 C   0  0  2  0  0  0  0  0  0  0  0  0
   -8.1140   -0.8970    1.4550 C   0  0  0  0  0  0  0  0  0  0  0  0
   -9.5730   -1.2920    1.5340 C   0  0  0  0  0  0  0  0  0  0  0  0
  -10.4650   -0.4320    0.6940 C   0  0  0  0  0  0  0  0  0  0  0  0
  -10.4270   -0.7610   -0.7660 C   0  0  0  0  0  0  0  0  0  0  0  0
   -9.5840   -1.9510   -1.1110 C   0  0  0  0  0  0  0  0  0  0  0  0
   -8.1110   -1.7770   -0.7980 C   0  0  1  0  0  0  0  0  0  0  0  0
   -7.3610   -2.0860   -2.0590 C   0  0  0  0  0  0  0  0  0  0  0  0
   -7.4310   -1.1100   -3.0850 N   0  0  0  0  0  0  0  0  0  0  0  0
   -5.5540    0.0360    0.7170 C   0  0  0  0  0  0  0  0  0  0  0  0
   -1.6670    1.0440    1.8980 C   0  0  0  0  0  0  0  0  0  0  0  0
   -0.3300    1.0290    2.2110 C   0  0  0  0  0  0  0  0  0  0  0  0
    0.1270    1.2760    3.5570 N   0  0  0  0  0  0  0  0  0  0  0  0
    4.7250   -1.1930   -1.3680 C   0  0  0  0  0  0  0  0  0  0  0  0
    4.5400   -1.4500   -2.6970 C   0  0  0  0  0  0  0  0  0  0  0  0
  1  2  1  0
  2  3  2  0
  2 47  1  0
  3  4  1  0
  4  5  2  0
  5  6  1  0
  5 46  1  0
  6  7  1  0
  6 18  1  0
  8  7  1  6
  8  9  1  0
  8 17  1  0
  9 10  1  0
 10 11  1  0
 11 12  1  0
 12 13  1  1
 12 17  1  0
 13 14  1  0
 14 15  1  0
 14 16  2  0
 18 19  2  0
 18 20  1  0
 20 21  1  0
 21 22  1  0
 22 23  2  0
 22 44  1  0
 23 24  1  0
 24 25  2  0
 25 26  1  0
 25 43  1  0
 27 26  1  6
 27 28  1  0
 27 42  1  0
 28 29  1  0
 29 30  1  0
 30 31  1  0
 32 31  1  1
 32 33  1  0
 32 42  1  0
 33 34  1  1
 33 39  1  0
 34 35  1  0
 35 36  1  0
 36 37  1  0
 37 38  1  0
 38 39  1  0
 39 40  1  6
 40 41  1  0
 43 44  2  0
 44 45  1  0
 46 47  2  0
M  CHG  2  32   1  41   1
M  END
