
     RDKit          3D

 47 51  0  0  0  0  0  0  0  0999 V2000
    5.1330    2.7980    3.7970 C   0  0  0  0  0  0  0  0  0  0  0  0
    6.3060    1.8590    3.6830 C   0  0  0  0  0  0  0  0  0  0  0  0
    7.1740    2.1300    2.4890 C   0  0  0  0  0  0  0  0  0  0  0  0
    6.5160    2.0550    1.1790 C   0  0  0  0  0  0  0  0  0  0  0  0
    5.8760    0.7560    0.8210 C   0  0  0  0  0  0  0  0  0  0  0  0
    5.7240   -0.1660    1.6360 O   0  0  0  0  0  0  0  0  0  0  0  0
    5.4290    0.5840   -0.5330 N   0  0  0  0  0  0  0  0  0  0  0  0
    4.7830   -0.5840   -1.0660 C   0  0  2  0  0  0  0  0  0  0  0  0
    5.7740   -1.4880   -1.7230 C   0  0  0  0  0  0  0  0  0  0  0  0
    6.9340   -1.0110   -2.3290 C   0  0  0  0  0  0  0  0  0  0  0  0
    7.7850   -1.9400   -2.8850 C   0  0  0  0  0  0  0  0  0  0  0  0
    8.9590   -1.4940   -3.5040 O   0  0  0  0  0  0  0  0  0  0  0  0
    9.3510   -0.1550   -3.6230 C   0  0  0  0  0  0  0  0  0  0  0  0
    7.5370   -3.2800   -2.8600 C   0  0  0  0  0  0  0  0  0  0  0  0
    6.3600   -3.7620   -2.2480 C   0  0  0  0  0  0  0  0  0  0  0  0
    5.5190   -2.8410   -1.6990 C   0  0  0  0  0  0  0  0  0  0  0  0
    6.1260   -5.1100   -2.2390 O   0  0  0  0  0  0  0  0  0  0  0  0
    7.1370   -6.0630   -2.3630 C   0  0  0  0  0  0  0  0  0  0  0  0
    8.4870   -5.4470   -2.6010 C   0  0  0  0  0  0  0  0  0  0  0  0
    8.3620   -4.2570   -3.3980 O   0  0  0  0  0  0  0  0  0  0  0  0
    3.6650   -0.2440   -1.9890 C   0  0  2  0  0  0  0  0  0  0  0  0
    4.2100    0.6190   -3.1700 C   0  0  0  0  0  0  0  0  0  0  0  0
    2.6300    0.5360   -1.3160 N   0  0  0  0  0  0  0  0  0  0  0  0
    1.5460    1.1670   -1.9700 C   0  0  0  0  0  0  0  0  0  0  0  0
    1.4380    1.1030   -3.2200 O   0  0  0  0  0  0  0  0  0  0  0  0
    0.5680    1.8840   -1.2600 N   0  0  0  0  0  0  0  0  0  0  0  0
   -0.4190    2.6610   -2.0040 C   0  0  0  0  0  0  0  0  0  0  0  0
   -1.8020    2.2560   -1.5660 C   0  0  0  0  0  0  0  0  0  0  0  0
   -2.0430    1.6150   -0.4420 C   0  0  0  0  0  0  0  0  0  0  0  0
   -3.4480    1.2680   -0.1110 C   0  0  0  0  0  0  0  0  0  0  0  0
   -4.5130    1.6900   -0.8280 C   0  0  0  0  0  0  0  0  0  0  0  0
   -5.8410    1.3170   -0.5570 C   0  0  0  0  0  0  0  0  0  0  0  0
   -6.0710    0.4760    0.4970 C   0  0  0  0  0  0  0  0  0  0  0  0
   -7.4730    0.0090    0.8250 C   0  0  1  0  0  0  0  0  0  0  0  0
   -8.4460    0.9830    0.3110 C   0  0  2  0  0  0  0  0  0  0  0  0
   -8.3110    2.3670    0.9300 C   0  0  0  0  0  0  0  0  0  0  0  0
   -9.8900    0.6500    0.2760 C   0  0  0  0  0  0  0  0  0  0  0  0
  -10.5690    0.3640    1.4950 N   0  0  0  0  0  0  0  0  0  0  0  0
   -7.5850   -1.3730    0.2410 C   0  0  0  0  0  0  0  0  0  0  0  0
   -7.9650   -2.3150    1.3730 C   0  0  0  0  0  0  0  0  0  0  0  0
   -7.6020   -1.5960    2.6590 C   0  0  2  0  0  0  0  0  0  0  0  0
   -8.6260   -1.8890    3.7590 C   0  0  0  0  0  0  0  0  0  0  0  0
   -7.5030   -0.1490    2.3340 C   0  0  0  0  0  0  0  0  0  0  0  0
   -5.0080    0.0070    1.2770 C   0  0  0  0  0  0  0  0  0  0  0  0
   -3.7110    0.4250    0.9420 C   0  0  0  0  0  0  0  0  0  0  0  0
   -0.9830    1.2600    0.5060 C   0  0  0  0  0  0  0  0  0  0  0  0
    0.3730    1.8990    0.1640 C   0  0  0  0  0  0  0  0  0  0  0  0
  1  2  1  0
  2  3  1  0
  3  4  1  0
  4  5  1  0
  5  6  2  0
  5  7  1  0
  8  7  1  6
  8  9  1  0
  8 21  1  0
  9 10  2  0
  9 16  1  0
 10 11  1  0
 11 12  1  0
 11 14  2  0
 12 13  1  0
 14 15  1  0
 14 20  1  0
 15 16  2  0
 15 17  1  0
 17 18  1  0
 18 19  1  0
 19 20  1  0
 21 22  1  6
 21 23  1  0
 23 24  1  0
 24 25  2  0
 24 26  1  0
 26 27  1  0
 26 47  1  0
 27 28  1  0
 28 29  2  0
 29 30  1  0
 29 46  1  0
 30 31  2  0
 30 45  1  0
 31 32  1  0
 32 33  2  0
 34 33  1  1
 33 44  1  0
 34 35  1  0
 34 39  1  0
 34 43  1  0
 35 36  1  1
 35 37  1  0
 37 38  1  0
 39 40  1  0
 40 41  1  0
 41 42  1  1
 41 43  1  0
 44 45  2  0
 46 47  1  0
M  CHG  1  38   1
M  END
