
     RDKit          3D

 39 42  0  0  0  0  0  0  0  0999 V2000
    3.7370    2.6860    0.4920 C   0  0  0  0  0  0  0  0  0  0  0  0
    3.7140    1.3670   -0.3070 C   0  0  1  0  0  0  0  0  0  0  0  0
    5.0040    1.3210   -1.1480 C   0  0  0  0  0  0  0  0  0  0  0  0
    6.1950    1.3670   -0.3010 C   0  0  0  0  0  0  0  0  0  0  0  0
    6.9440    2.5550   -0.1280 N   0  0  0  0  0  0  0  0  0  0  0  0
    6.5770    0.3360    0.2960 O   0  0  0  0  0  0  0  0  0  0  0  0
    3.6180    0.1970    0.5820 C   0  0  1  0  0  0  0  0  0  0  0  0
    2.4490    0.1740    1.4460 N   0  0  0  0  0  0  0  0  0  0  0  0
    2.0360   -0.9470    2.1890 C   0  0  0  0  0  0  0  0  0  0  0  0
    1.7790   -0.7700    3.4380 O   0  0  0  0  0  0  0  0  0  0  0  0
    1.8620   -2.2790    1.7230 N   0  0  0  0  0  0  0  0  0  0  0  0
    1.0640   -2.6390    0.6080 C   0  0  0  0  0  0  0  0  0  0  0  0
    1.3280   -3.7210    0.0330 O   0  0  0  0  0  0  0  0  0  0  0  0
   -0.0240   -1.8770    0.0760 N   0  0  0  0  0  0  0  0  0  0  0  0
   -0.0090   -0.5360   -0.3890 C   0  0  0  0  0  0  0  0  0  0  0  0
   -1.0940    0.6520    0.4830 S   0  0  0  0  0  0  0  0  0  0  0  0
   -2.1060   -0.0200    1.7410 C   0  0  0  0  0  0  0  0  0  0  0  0
   -3.1800   -0.9380    1.2880 C   0  0  0  0  0  0  0  0  0  0  0  0
   -3.1680   -2.1890    1.5240 O   0  0  0  0  0  0  0  0  0  0  0  0
   -4.3140   -0.4430    0.5440 N   0  0  0  0  0  0  0  0  0  0  0  0
   -5.3550   -1.3510    0.1120 C   0  0  0  0  0  0  0  0  0  0  0  0
   -6.7340   -0.7980    0.3300 C   0  0  0  0  0  0  0  0  0  0  0  0
   -6.7970    0.5340   -0.3700 C   0  0  1  0  0  0  0  0  0  0  0  0
   -8.1620    1.2100   -0.1610 C   0  0  0  0  0  0  0  0  0  0  0  0
   -7.6300    2.9480   -0.2940 S   0  0  0  0  0  0  0  0  0  0  0  0
   -7.9790    3.7280    0.9420 O   0  0  0  0  0  0  0  0  0  0  0  0
   -5.9230    2.7030   -0.3130 O   0  0  0  0  0  0  0  0  0  0  0  0
   -5.8320    1.4580    0.3380 C   0  0  2  0  0  0  0  0  0  0  0  0
   -4.4390    0.9440    0.2090 C   0  0  0  0  0  0  0  0  0  0  0  0
    0.6400   -0.1190   -1.3800 N   0  0  0  0  0  0  0  0  0  0  0  0
    1.4810   -0.4810   -2.3720 C   0  0  0  0  0  0  0  0  0  0  0  0
    2.6710   -1.0330   -2.4610 C   0  0  0  0  0  0  0  0  0  0  0  0
    3.3510   -1.3120   -3.7340 N   0  0  0  0  0  0  0  0  0  0  0  0
    4.5920   -1.9230   -3.3740 C   0  0  0  0  0  0  0  0  0  0  0  0
    5.6950   -1.8920   -3.9410 O   0  0  0  0  0  0  0  0  0  0  0  0
    4.2560   -2.6400   -2.1090 C   0  0  0  0  0  0  0  0  0  0  0  0
    3.5390   -1.4820   -1.4390 N   0  0  0  0  0  0  0  0  0  0  0  0
    3.7800   -1.0670   -0.1460 C   0  0  0  0  0  0  0  0  0  0  0  0
    4.2710   -2.0110    0.6400 O   0  0  0  0  0  0  0  0  0  0  0  0
  2  1  1  1
  2  3  1  0
  2  7  1  0
  3  4  1  0
  4  5  1  0
  4  6  2  0
  7  8  1  6
  7 38  1  0
  8  9  1  0
  9 10  2  0
  9 11  1  0
 11 12  1  0
 12 13  2  0
 12 14  1  0
 14 15  1  0
 15 16  1  0
 15 30  2  0
 16 17  1  0
 17 18  1  0
 18 19  2  0
 18 20  1  0
 20 21  1  0
 20 29  1  0
 21 22  1  0
 23 22  1  1
 23 24  1  0
 23 28  1  0
 25 24  1  1
 25 26  2  0
 25 27  1  0
 27 28  1  0
 28 29  1  6
 30 31  1  0
 31 32  2  0
 32 33  1  0
 32 37  1  0
 33 34  1  0
 34 35  2  0
 34 36  1  0
 36 37  1  0
 37 38  1  0
 38 39  2  0
M  END
