
     RDKit          3D

 31 34  0  0  0  0  0  0  0  0999 V2000
  -10.7300    0.3840   -1.6020 C   0  0  0  0  0  0  0  0  0  0  0  0
  -10.5630    1.3170   -0.6160 C   0  0  0  0  0  0  0  0  0  0  0  0
   -9.3020    1.1950   -0.1740 N   0  0  0  0  0  0  0  0  0  0  0  0
   -8.6690    0.2210   -0.8420 C   0  0  0  0  0  0  0  0  0  0  0  0
   -7.2960   -0.2300   -0.6720 C   0  0  0  0  0  0  0  0  0  0  0  0
   -6.7860   -1.2550   -1.4460 C   0  0  0  0  0  0  0  0  0  0  0  0
   -5.4970   -1.6370   -1.2460 C   0  0  0  0  0  0  0  0  0  0  0  0
   -4.6660   -1.0360   -0.2900 C   0  0  0  0  0  0  0  0  0  0  0  0
   -3.3810   -1.4840   -0.1510 O   0  0  0  0  0  0  0  0  0  0  0  0
   -2.3610   -1.0700    0.6600 C   0  0  0  0  0  0  0  0  0  0  0  0
   -1.8150    0.3050    0.4550 C   0  0  0  0  0  0  0  0  0  0  0  0
   -0.6910    0.6100    1.4450 C   0  0  0  0  0  0  0  0  0  0  0  0
    0.4650   -0.3470    1.3160 C   0  0  0  0  0  0  0  0  0  0  0  0
    1.0840   -0.3300   -0.0430 C   0  0  0  0  0  0  0  0  0  0  0  0
    1.5950    1.0650   -0.3330 C   0  0  0  0  0  0  0  0  0  0  0  0
    2.2340    1.1330   -1.6820 C   0  0  0  0  0  0  0  0  0  0  0  0
    3.3020    0.3340   -1.9360 O   0  0  0  0  0  0  0  0  0  0  0  0
    4.5570    0.2340   -1.4030 C   0  0  0  0  0  0  0  0  0  0  0  0
    5.0420    1.0310   -0.3960 C   0  0  0  0  0  0  0  0  0  0  0  0
    6.3410    0.8750    0.1090 C   0  0  0  0  0  0  0  0  0  0  0  0
    7.1940   -0.0860   -0.3840 C   0  0  0  0  0  0  0  0  0  0  0  0
    8.5480   -0.2560    0.1350 C   0  0  0  0  0  0  0  0  0  0  0  0
    9.1520    0.4430    1.1090 N   0  0  0  0  0  0  0  0  0  0  0  0
   10.4130   -0.0280    1.2920 C   0  0  0  0  0  0  0  0  0  0  0  0
   10.5950   -1.0460    0.4080 C   0  0  0  0  0  0  0  0  0  0  0  0
    9.4470   -1.1630   -0.2820 N   0  0  0  0  0  0  0  0  0  0  0  0
    6.7190   -0.8920   -1.3960 C   0  0  0  0  0  0  0  0  0  0  0  0
    5.4450   -0.7400   -1.8910 C   0  0  0  0  0  0  0  0  0  0  0  0
   -5.1810   -0.0230    0.4720 C   0  0  0  0  0  0  0  0  0  0  0  0
   -6.5040    0.3770    0.2740 C   0  0  0  0  0  0  0  0  0  0  0  0
   -9.5570   -0.2680   -1.7160 N   0  0  0  0  0  0  0  0  0  0  0  0
  1  2  2  0
  1 31  1  0
  2  3  1  0
  3  4  1  0
  4  5  1  0
  4 31  2  0
  5  6  2  0
  5 30  1  0
  6  7  1  0
  7  8  2  0
  8  9  1  0
  8 29  1  0
  9 10  1  0
 10 11  1  0
 11 12  1  0
 12 13  1  0
 13 14  1  0
 14 15  1  0
 15 16  1  0
 16 17  1  0
 17 18  1  0
 18 19  2  0
 18 28  1  0
 19 20  1  0
 20 21  2  0
 21 22  1  0
 21 27  1  0
 22 23  2  0
 22 26  1  0
 23 24  1  0
 24 25  2  0
 25 26  1  0
 27 28  2  0
 29 30  2  0
M  END
