
     RDKit          3D

 31 35  0  0  0  0  0  0  0  0999 V2000
    6.3320    2.4970    0.8970 C   0  0  0  0  0  0  0  0  0  0  0  0
    5.3600    1.6660    0.1650 N   0  0  0  0  0  0  0  0  0  0  0  0
    5.4960    0.3860   -0.1910 C   0  0  0  0  0  0  0  0  0  0  0  0
    4.3420   -0.0590   -0.8570 C   0  0  0  0  0  0  0  0  0  0  0  0
    4.1360   -1.4010   -1.3930 C   0  0  0  0  0  0  0  0  0  0  0  0
    5.0170   -2.0550   -2.1870 N   0  0  0  0  0  0  0  0  0  0  0  0
    4.6180   -3.2800   -2.4670 N   0  0  0  0  0  0  0  0  0  0  0  0
    3.4550   -3.4510   -1.8550 C   0  0  0  0  0  0  0  0  0  0  0  0
    3.1270   -2.2940   -1.1780 C   0  0  0  0  0  0  0  0  0  0  0  0
    1.8790   -2.0820   -0.4240 C   0  0  0  0  0  0  0  0  0  0  0  0
    1.7530   -2.8090    0.5850 O   0  0  0  0  0  0  0  0  0  0  0  0
    0.8850   -1.1540   -0.7790 N   0  0  0  0  0  0  0  0  0  0  0  0
   -0.3260   -0.8870   -0.0990 C   0  0  0  0  0  0  0  0  0  0  0  0
   -0.6050   -1.5310    1.0820 C   0  0  0  0  0  0  0  0  0  0  0  0
   -1.8040   -1.2920    1.7510 C   0  0  0  0  0  0  0  0  0  0  0  0
   -2.7120   -0.4180    1.2410 C   0  0  0  0  0  0  0  0  0  0  0  0
   -2.4170    0.2150    0.0650 C   0  0  0  0  0  0  0  0  0  0  0  0
   -3.4080    1.1880   -0.4420 C   0  0  0  0  0  0  0  0  0  0  0  0
   -3.1130    2.5110   -0.4500 C   0  0  0  0  0  0  0  0  0  0  0  0
   -4.0450    3.4320   -0.8540 C   0  0  0  0  0  0  0  0  0  0  0  0
   -5.2960    2.9690   -1.2530 C   0  0  0  0  0  0  0  0  0  0  0  0
   -5.6100    1.6300   -1.2510 C   0  0  0  0  0  0  0  0  0  0  0  0
   -4.6380    0.7240   -0.8340 C   0  0  0  0  0  0  0  0  0  0  0  0
   -1.2270    0.0110   -0.6430 C   0  0  0  0  0  0  0  0  0  0  0  0
   -1.0270    0.7490   -1.8600 C   0  0  0  0  0  0  0  0  0  0  0  0
   -0.0610    0.7530   -2.5960 O   0  0  0  0  0  0  0  0  0  0  0  0
   -3.9120   -0.3690    2.1320 C   0  0  0  0  0  0  0  0  0  0  0  0
   -3.4170   -0.9470    3.4270 C   0  0  0  0  0  0  0  0  0  0  0  0
   -2.2900   -1.8710    3.0280 C   0  0  0  0  0  0  0  0  0  0  0  0
    3.5160    1.0330   -0.8760 C   0  0  0  0  0  0  0  0  0  0  0  0
    4.1810    2.0360   -0.2470 N   0  0  0  0  0  0  0  0  0  0  0  0
  1  2  1  0
  2  3  1  0
  2 31  1  0
  3  4  2  0
  4  5  1  0
  4 30  1  0
  5  6  2  0
  5  9  1  0
  6  7  1  0
  7  8  1  0
  8  9  2  0
  9 10  1  0
 10 11  2  0
 10 12  1  0
 12 13  1  0
 13 14  2  0
 13 24  1  0
 14 15  1  0
 15 16  2  0
 15 29  1  0
 16 17  1  0
 16 27  1  0
 17 18  1  0
 17 24  2  0
 18 19  2  0
 18 23  1  0
 19 20  1  0
 20 21  2  0
 21 22  1  0
 22 23  2  0
 24 25  1  0
 25 26  2  0
 27 28  1  0
 28 29  1  0
 30 31  2  0
M  END
