
     RDKit          3D

 31 35  0  0  0  0  0  0  0  0999 V2000
   -3.9050    0.5930   -1.9750 C   0  0  0  0  0  0  0  0  0  0  0  0
   -2.7870    0.1960   -1.0900 C   0  0  0  0  0  0  0  0  0  0  0  0
   -1.5710    0.8340   -1.1740 C   0  0  0  0  0  0  0  0  0  0  0  0
   -0.5170    0.4870   -0.3620 C   0  0  0  0  0  0  0  0  0  0  0  0
    0.7640    1.2230   -0.4940 C   0  0  0  0  0  0  0  0  0  0  0  0
    0.7230    2.4280   -0.9060 O   0  0  0  0  0  0  0  0  0  0  0  0
    2.0010    0.6290   -0.1840 N   0  0  0  0  0  0  0  0  0  0  0  0
    3.2710    1.2620   -0.2620 C   0  0  0  0  0  0  0  0  0  0  0  0
    3.4940    2.5730   -0.5520 C   0  0  0  0  0  0  0  0  0  0  0  0
    4.7630    3.1320   -0.6610 C   0  0  0  0  0  0  0  0  0  0  0  0
    4.8960    4.3700   -0.9350 O   0  0  0  0  0  0  0  0  0  0  0  0
    5.8190    2.3350   -0.4700 N   0  0  0  0  0  0  0  0  0  0  0  0
    5.6230    1.0250   -0.1800 C   0  0  0  0  0  0  0  0  0  0  0  0
    6.5350    0.0200    0.0430 C   0  0  0  0  0  0  0  0  0  0  0  0
    8.0000    0.1750    0.0150 C   0  0  0  0  0  0  0  0  0  0  0  0
    5.8290   -1.1320    0.2850 C   0  0  0  0  0  0  0  0  0  0  0  0
    6.4260   -2.4720    0.5670 C   0  0  0  0  0  0  0  0  0  0  0  0
    4.5030   -0.8120    0.2060 N   0  0  0  0  0  0  0  0  0  0  0  0
    4.3980    0.4900   -0.0750 N   0  0  0  0  0  0  0  0  0  0  0  0
   -0.6100   -0.5020    0.5720 C   0  0  0  0  0  0  0  0  0  0  0  0
   -1.8460   -1.1490    0.6590 C   0  0  0  0  0  0  0  0  0  0  0  0
   -2.9160   -0.8000   -0.1630 C   0  0  0  0  0  0  0  0  0  0  0  0
   -4.1830   -1.5050   -0.0460 C   0  0  0  0  0  0  0  0  0  0  0  0
   -4.4100   -2.7060   -0.6780 C   0  0  0  0  0  0  0  0  0  0  0  0
   -5.6660   -3.2910   -0.4760 C   0  0  0  0  0  0  0  0  0  0  0  0
   -6.6390   -2.7170    0.3070 C   0  0  0  0  0  0  0  0  0  0  0  0
   -6.3820   -1.5460    0.9080 N   0  0  0  0  0  0  0  0  0  0  0  0
   -5.1710   -0.9370    0.7400 C   0  0  0  0  0  0  0  0  0  0  0  0
   -4.8730    0.3610    1.3920 C   0  0  2  0  0  0  0  0  0  0  0  0
   -5.9440    1.0640    2.1470 C   0  0  0  0  0  0  0  0  0  0  0  0
   -5.6010    1.5680    0.8050 C   0  0  0  0  0  0  0  0  0  0  0  0
  1  2  1  0
  2  3  2  0
  2 22  1  0
  3  4  1  0
  4  5  1  0
  4 20  2  0
  5  6  2  0
  5  7  1  0
  7  8  1  0
  8  9  2  0
  8 19  1  0
  9 10  1  0
 10 11  2  0
 10 12  1  0
 12 13  1  0
 13 14  2  0
 13 19  1  0
 14 15  1  0
 14 16  1  0
 16 17  1  0
 16 18  2  0
 18 19  1  0
 20 21  1  0
 21 22  2  0
 22 23  1  0
 23 24  2  0
 23 28  1  0
 24 25  1  0
 25 26  2  0
 26 27  1  0
 27 28  2  0
 29 28  1  6
 29 30  1  0
 29 31  1  0
 30 31  1  0
M  END
