
     RDKit          3D

 39 41  0  0  0  0  0  0  0  0999 V2000
   -1.0330    0.3210    2.6730 C   0  0  0  0  0  0  0  0  0  0  0  0
   -0.0250    0.6770    1.6420 C   0  0  0  0  0  0  0  0  0  0  0  0
    0.9720    1.5280    1.9300 N   0  0  0  0  0  0  0  0  0  0  0  0
    1.8960    1.8570    0.9900 C   0  0  0  0  0  0  0  0  0  0  0  0
    2.8100    2.6590    1.3080 O   0  0  0  0  0  0  0  0  0  0  0  0
    1.8600    1.3540   -0.2630 N   0  0  0  0  0  0  0  0  0  0  0  0
    2.8740    1.6910   -1.2570 C   0  0  0  0  0  0  0  0  0  0  0  0
    3.9500    0.6470   -1.1490 C   0  0  0  0  0  0  0  0  0  0  0  0
    3.8820   -0.3800   -1.8900 O   0  0  0  0  0  0  0  0  0  0  0  0
    5.0340    0.7670   -0.2520 N   0  0  0  0  0  0  0  0  0  0  0  0
    5.9890   -0.2770   -0.2220 N   0  0  0  0  0  0  0  0  0  0  0  0
    6.1540   -1.2600    0.7790 C   0  0  0  0  0  0  0  0  0  0  0  0
    5.4660   -1.3770    1.8380 O   0  0  0  0  0  0  0  0  0  0  0  0
    7.2250   -2.1310    0.4400 N   0  0  0  0  0  0  0  0  0  0  0  0
    7.6670   -1.7510   -0.8750 C   0  0  2  0  0  0  0  0  0  0  0  0
    9.1800   -1.5370   -0.9070 C   0  0  0  0  0  0  0  0  0  0  0  0
    9.4890   -0.4900    0.0300 N   0  0  0  0  0  0  0  0  0  0  0  0
   10.8280   -0.0850    0.2040 C   0  0  0  0  0  0  0  0  0  0  0  0
   11.7630   -0.6170   -0.4440 O   0  0  0  0  0  0  0  0  0  0  0  0
   11.1750    1.2270    1.3890 S   0  0  0  0  0  0  0  0  0  0  0  0
    6.9640   -0.5120   -1.2230 C   0  0  0  0  0  0  0  0  0  0  0  0
    7.1560    0.2420   -2.2190 O   0  0  0  0  0  0  0  0  0  0  0  0
    0.8580    0.5000   -0.5530 C   0  0  0  0  0  0  0  0  0  0  0  0
    0.8170    0.0250   -1.7260 O   0  0  0  0  0  0  0  0  0  0  0  0
   -0.0940    0.1440    0.3720 C   0  0  0  0  0  0  0  0  0  0  0  0
   -1.1450   -0.7590    0.1140 N   0  0  0  0  0  0  0  0  0  0  0  0
   -2.4030   -0.2830   -0.2930 C   0  0  0  0  0  0  0  0  0  0  0  0
   -2.5590    0.9680   -0.4230 O   0  0  0  0  0  0  0  0  0  0  0  0
   -3.5540   -1.2050   -0.5720 C   0  0  2  0  0  0  0  0  0  0  0  0
   -3.2110   -2.0340   -1.7800 C   0  0  0  0  0  0  0  0  0  0  0  0
   -4.7250   -0.3900   -0.9180 N   0  0  0  0  0  0  0  0  0  0  0  0
   -5.8300   -0.3140   -0.0310 C   0  0  0  0  0  0  0  0  0  0  0  0
   -5.7350   -0.9680    1.0400 O   0  0  0  0  0  0  0  0  0  0  0  0
   -7.0090    0.4940   -0.3720 C   0  0  2  0  0  0  0  0  0  0  0  0
   -7.9920    0.5640    0.8010 C   0  0  0  0  0  0  0  0  0  0  0  0
   -9.3030    0.9650    0.1820 C   0  0  2  0  0  0  0  0  0  0  0  0
  -10.3400    1.2050    1.2490 C   0  0  0  0  0  0  0  0  0  0  0  0
   -9.6800   -0.1590   -0.7680 C   0  0  0  0  0  0  0  0  0  0  0  0
   -8.0600   -0.3740   -1.6050 S   0  0  0  0  0  0  0  0  0  0  0  0
  1  2  1  0
  2  3  1  0
  2 25  2  0
  3  4  1  0
  4  5  2  0
  4  6  1  0
  6  7  1  0
  6 23  1  0
  7  8  1  0
  8  9  2  0
  8 10  1  0
 10 11  1  0
 11 12  1  0
 11 21  1  0
 12 13  2  0
 12 14  1  0
 14 15  1  0
 15 16  1  1
 15 21  1  0
 16 17  1  0
 17 18  1  0
 18 19  2  0
 18 20  1  0
 21 22  2  0
 23 24  2  0
 23 25  1  0
 25 26  1  0
 26 27  1  0
 27 28  2  0
 27 29  1  0
 29 30  1  6
 29 31  1  0
 31 32  1  0
 32 33  2  0
 34 32  1  1
 34 35  1  0
 34 39  1  0
 35 36  1  0
 36 37  1  1
 36 38  1  0
 38 39  1  0
M  END
