
     RDKit          3D

 35 39  0  0  0  0  0  0  0  0999 V2000
    4.3160    0.9360    2.3030 C   0  0  0  0  0  0  0  0  0  0  0  0
    3.8730    1.8650    1.2580 C   0  0  0  0  0  0  0  0  0  0  0  0
    4.0830    3.1770    1.2610 N   0  0  0  0  0  0  0  0  0  0  0  0
    3.5260    3.7560    0.2150 N   0  0  0  0  0  0  0  0  0  0  0  0
    2.9400    2.8080   -0.4900 C   0  0  0  0  0  0  0  0  0  0  0  0
    3.1230    1.5610    0.1230 C   0  0  0  0  0  0  0  0  0  0  0  0
    2.8190    0.2900   -0.4460 C   0  0  1  0  0  0  0  0  0  0  0  0
    3.9350   -0.5610   -0.1660 O   0  0  0  0  0  0  0  0  0  0  0  0
    1.6120   -0.5020   -0.3310 C   0  0  2  0  0  0  0  0  0  0  0  0
    1.8770   -1.7430   -1.2150 C   0  0  0  0  0  0  0  0  0  0  0  0
    2.0090   -1.4520   -2.6700 C   0  0  0  0  0  0  0  0  0  0  0  0
    0.8620   -0.8740   -3.2200 O   0  0  0  0  0  0  0  0  0  0  0  0
    0.2500   -0.0470   -0.3360 C   0  0  0  0  0  0  0  0  0  0  0  0
   -0.1000    1.3030   -0.2320 C   0  0  0  0  0  0  0  0  0  0  0  0
   -1.4110    1.6800   -0.1770 C   0  0  0  0  0  0  0  0  0  0  0  0
   -1.8240    3.0610   -0.0830 C   0  0  0  0  0  0  0  0  0  0  0  0
   -1.2140    4.1140   -0.6870 C   0  0  0  0  0  0  0  0  0  0  0  0
   -1.7100    5.3940   -0.4290 C   0  0  0  0  0  0  0  0  0  0  0  0
   -2.7770    5.6490    0.4010 C   0  0  0  0  0  0  0  0  0  0  0  0
   -3.2390    6.9380    0.6340 O   0  0  0  0  0  0  0  0  0  0  0  0
   -3.3920    4.5540    1.0150 C   0  0  0  0  0  0  0  0  0  0  0  0
   -2.9250    3.2820    0.7750 C   0  0  0  0  0  0  0  0  0  0  0  0
   -2.4380    0.7390   -0.2260 C   0  0  0  0  0  0  0  0  0  0  0  0
   -2.0800   -0.5800   -0.3290 C   0  0  0  0  0  0  0  0  0  0  0  0
   -0.7700   -1.0030   -0.3800 C   0  0  0  0  0  0  0  0  0  0  0  0
   -0.5670   -2.3810   -0.4460 O   0  0  0  0  0  0  0  0  0  0  0  0
   -1.5030   -3.1960    0.2150 C   0  0  0  0  0  0  0  0  0  0  0  0
   -2.3520   -2.7320    1.1980 C   0  0  0  0  0  0  0  0  0  0  0  0
   -3.2870   -3.5690    1.8220 C   0  0  0  0  0  0  0  0  0  0  0  0
   -3.3740   -4.8860    1.4640 C   0  0  0  0  0  0  0  0  0  0  0  0
   -2.5260   -5.3450    0.4900 C   0  0  0  0  0  0  0  0  0  0  0  0
   -1.6110   -4.5150   -0.1180 C   0  0  0  0  0  0  0  0  0  0  0  0
   -0.9450   -5.3490   -1.0400 O   0  0  0  0  0  0  0  0  0  0  0  0
   -1.1010   -6.6960   -0.5420 C   0  0  0  0  0  0  0  0  0  0  0  0
   -2.4350   -6.6460   -0.0280 O   0  0  0  0  0  0  0  0  0  0  0  0
  1  2  1  0
  2  3  1  0
  2  6  2  0
  3  4  1  0
  4  5  2  0
  5  6  1  0
  6  7  1  0
  7  8  1  1
  7  9  1  0
  9 10  1  6
  9 13  1  0
 10 11  1  0
 11 12  1  0
 13 14  2  0
 13 25  1  0
 14 15  1  0
 15 16  1  0
 15 23  2  0
 16 17  2  0
 16 22  1  0
 17 18  1  0
 18 19  2  0
 19 20  1  0
 19 21  1  0
 21 22  2  0
 23 24  1  0
 24 25  2  0
 25 26  1  0
 26 27  1  0
 27 28  2  0
 27 32  1  0
 28 29  1  0
 29 30  2  0
 30 31  1  0
 31 32  2  0
 31 35  1  0
 32 33  1  0
 33 34  1  0
 34 35  1  0
M  END
