
     RDKit          3D

 11 12  0  0  0  0  0  0  0  0999 V2000
    3.0310   -0.0890    0.2110 C   0  0  0  0  0  0  0  0  0  0  0  0
    2.4100   -1.2490    0.0580 C   0  0  0  0  0  0  0  0  0  0  0  0
    1.0660   -1.4970   -0.2800 O   0  0  0  0  0  0  0  0  0  0  0  0
    0.0020   -0.6070   -0.2110 C   0  0  0  0  0  0  0  0  0  0  0  0
    0.1020    0.7110   -0.1180 C   0  0  0  0  0  0  0  0  0  0  0  0
    1.2700    1.5820   -0.0620 C   0  0  0  0  0  0  0  0  0  0  0  0
    2.5270    1.2530    0.0780 N   0  0  0  0  0  0  0  0  0  0  0  0
   -1.1600    1.4650   -0.0580 C   0  0  0  0  0  0  0  0  0  0  0  0
   -2.0380    0.7980    0.7570 O   0  0  0  0  0  0  0  0  0  0  0  0
   -2.4200   -0.4400    0.3270 C   0  0  0  0  0  0  0  0  0  0  0  0
   -1.3320   -1.2800   -0.2520 C   0  0  0  0  0  0  0  0  0  0  0  0
  1  2  2  0
  1  7  1  0
  2  3  1  0
  3  4  1  0
  4  5  2  0
  4 11  1  0
  5  6  1  0
  5  8  1  0
  6  7  2  0
  8  9  1  0
  9 10  1  0
 10 11  1  0
M  END
