
     RDKit          3D

 11 12  0  0  0  0  0  0  0  0999 V2000
    2.7650   -0.4450   -0.0510 C   0  0  0  0  0  0  0  0  0  0  0  0
    1.6280    0.4190    0.3940 C   0  0  0  0  0  0  0  0  0  0  0  0
    0.4060    0.0670    0.0320 C   0  0  0  0  0  0  0  0  0  0  0  0
   -0.0190   -1.1180   -0.7920 C   0  0  0  0  0  0  0  0  0  0  0  0
   -1.4760   -0.8820   -0.9410 C   0  0  0  0  0  0  0  0  0  0  0  0
   -2.1580   -1.2100   -1.8770 O   0  0  0  0  0  0  0  0  0  0  0  0
   -1.9080   -0.1750    0.2730 C   0  0  2  0  0  0  0  0  0  0  0  0
   -3.0330    0.6360    0.1310 O   0  0  0  0  0  0  0  0  0  0  0  0
   -2.7480    1.7290    0.8860 O   0  0  0  0  0  0  0  0  0  0  0  0
   -1.3610    1.9380    0.7750 C   0  0  0  0  0  0  0  0  0  0  0  0
   -0.7750    0.8220    0.3900 C   0  0  0  0  0  0  0  0  0  0  0  0
  1  2  1  0
  2  3  2  3
  3  4  1  0
  3 11  1  0
  4  5  1  0
  5  6  2  0
  5  7  1  0
  7  8  1  6
  7 11  1  0
  8  9  1  0
  9 10  1  0
 10 11  2  0
M  END
