
     RDKit          3D

 11 12  0  0  0  0  0  0  0  0999 V2000
   -3.4970   -0.5310   -0.2020 C   0  0  0  0  0  0  0  0  0  0  0  0
   -2.1220   -0.1980    0.2610 C   0  0  0  0  0  0  0  0  0  0  0  0
   -0.9750   -0.3280   -0.3810 C   0  0  0  0  0  0  0  0  0  0  0  0
    0.1250    0.1200    0.4470 C   0  0  0  0  0  0  0  0  0  0  0  0
    1.4210    0.1350    0.1310 C   0  0  0  0  0  0  0  0  0  0  0  0
    2.5390    0.5980    0.9880 C   0  0  0  0  0  0  0  0  0  0  0  0
    3.4990    0.9350    0.0060 O   0  0  0  0  0  0  0  0  0  0  0  0
    3.3990   -0.1630   -0.8470 C   0  0  0  0  0  0  0  0  0  0  0  0
    1.9870   -0.2730   -1.0520 O   0  0  0  0  0  0  0  0  0  0  0  0
   -0.4310    0.5340    1.6410 O   0  0  0  0  0  0  0  0  0  0  0  0
   -1.8270    0.3630    1.5910 C   0  0  0  0  0  0  0  0  0  0  0  0
  1  2  1  0
  2  3  2  0
  2 11  1  0
  3  4  1  0
  4  5  2  3
  4 10  1  0
  5  6  1  0
  5  9  1  0
  6  7  1  0
  7  8  1  0
  8  9  1  0
 10 11  1  0
M  END
