
     RDKit          3D

 11 12  0  0  0  0  0  0  0  0999 V2000
    2.4180   -0.9240   -0.5190 C   0  0  0  0  0  0  0  0  0  0  0  0
    1.6040   -0.0410    0.4000 C   0  0  1  0  0  0  0  0  0  0  0  0
    1.7370    1.3100    0.1090 O   0  0  0  0  0  0  0  0  0  0  0  0
    0.5300    1.9220   -0.1420 C   0  0  0  0  0  0  0  0  0  0  0  0
    0.3200    3.1310   -0.4330 O   0  0  0  0  0  0  0  0  0  0  0  0
   -0.5160    0.9200   -0.0170 C   0  0  0  0  0  0  0  0  0  0  0  0
   -1.8340    1.0410   -0.1690 C   0  0  0  0  0  0  0  0  0  0  0  0
   -2.6680   -0.1470    0.0180 C   0  0  0  0  0  0  0  0  0  0  0  0
   -1.9610   -1.3010    0.3440 O   0  0  0  0  0  0  0  0  0  0  0  0
   -0.6030   -1.3970    0.4940 C   0  0  0  0  0  0  0  0  0  0  0  0
    0.1660   -0.3110    0.3240 C   0  0  0  0  0  0  0  0  0  0  0  0
  2  1  1  6
  2  3  1  0
  2 11  1  0
  3  4  1  0
  4  5  2  0
  4  6  1  0
  6  7  2  0
  6 11  1  0
  7  8  1  0
  8  9  1  0
  9 10  1  0
 10 11  2  0
M  END
