
     RDKit          3D

 11 12  0  0  0  0  0  0  0  0999 V2000
    2.7280    0.8340   -0.4870 C   0  0  0  0  0  0  0  0  0  0  0  0
    1.4480    1.0100   -0.7380 C   0  0  0  0  0  0  0  0  0  0  0  0
    0.4880    0.0140   -0.2600 C   0  0  0  0  0  0  0  0  0  0  0  0
   -0.9280    0.2490   -0.5730 C   0  0  1  0  0  0  0  0  0  0  0  0
   -1.8160   -0.7940    0.0220 C   0  0  0  0  0  0  0  0  0  0  0  0
   -3.0620   -0.1550   -0.0930 O   0  0  0  0  0  0  0  0  0  0  0  0
   -2.7860    1.1650    0.2470 C   0  0  0  0  0  0  0  0  0  0  0  0
   -1.4400    1.4130   -0.0040 O   0  0  0  0  0  0  0  0  0  0  0  0
    0.8870   -1.0390    0.4100 C   0  0  0  0  0  0  0  0  0  0  0  0
    2.3390   -1.2800    0.7210 C   0  0  0  0  0  0  0  0  0  0  0  0
    3.1430   -0.2720    0.2160 O   0  0  0  0  0  0  0  0  0  0  0  0
  1  2  2  0
  1 11  1  0
  2  3  1  0
  4  3  1  1
  3  9  2  0
  4  5  1  0
  4  8  1  0
  5  6  1  0
  6  7  1  0
  7  8  1  0
  9 10  1  0
 10 11  1  0
M  END
