
     RDKit          3D

 27 28  0  0  0  0  0  0  0  0999 V2000
   -1.8200    3.9960    1.2280 C   0  0  0  0  0  0  0  0  0  0  0  0
   -1.4270    2.7060    0.9300 C   0  0  0  0  0  0  0  0  0  0  0  0
   -2.1630    1.6450    1.6500 C   0  0  0  0  0  0  0  0  0  0  0  0
   -2.8050    0.6230    1.0700 C   0  0  0  0  0  0  0  0  0  0  0  0
   -3.5660   -0.4760    1.6390 C   0  0  0  0  0  0  0  0  0  0  0  0
   -2.8350   -1.5530    2.0160 C   0  0  0  0  0  0  0  0  0  0  0  0
   -1.3440   -1.5010    1.8140 C   0  0  0  0  0  0  0  0  0  0  0  0
   -0.7120   -2.8020    1.6440 C   0  0  0  0  0  0  0  0  0  0  0  0
   -1.0220   -3.6740    2.5240 O   0  0  0  0  0  0  0  0  0  0  0  0
    0.1970   -3.1770    0.6140 N   0  0  0  0  0  0  0  0  0  0  0  0
    0.9950   -2.2470   -0.1270 C   0  0  0  0  0  0  0  0  0  0  0  0
    1.9920   -1.6210    0.4730 N   0  0  0  0  0  0  0  0  0  0  0  0
    2.8600   -0.6690   -0.1920 C   0  0  0  0  0  0  0  0  0  0  0  0
    4.1740   -0.6950    0.1850 C   0  0  0  0  0  0  0  0  0  0  0  0
    4.6430   -1.6590    1.2210 C   0  0  0  0  0  0  0  0  0  0  0  0
    2.4430    0.2760   -1.2150 C   0  0  0  0  0  0  0  0  0  0  0  0
    3.0730    0.2370   -2.6170 C   0  0  0  0  0  0  0  0  0  0  0  0
    1.5460    1.2690   -1.0490 C   0  0  0  0  0  0  0  0  0  0  0  0
    0.8240    1.6080    0.1620 C   0  0  0  0  0  0  0  0  0  0  0  0
   -0.3140    2.5720   -0.0090 C   0  0  0  0  0  0  0  0  0  0  0  0
   -0.3230    3.3960   -1.0510 C   0  0  0  0  0  0  0  0  0  0  0  0
    0.7910   -1.7940   -1.8460 S   0  0  0  0  0  0  0  0  0  0  0  0
   -0.7870   -1.1270   -2.2890 C   0  0  0  0  0  0  0  0  0  0  0  0
   -1.9370   -1.6100   -1.5130 C   0  0  0  0  0  0  0  0  0  0  0  0
   -2.0230   -2.8480   -1.3100 O   0  0  0  0  0  0  0  0  0  0  0  0
   -2.9000   -0.7230   -1.0220 N   0  0  0  0  0  0  0  0  0  0  0  0
   -2.6990    0.5900   -0.4680 C   0  0  0  0  0  0  0  0  0  0  0  0
  1  2  2  0
  2  3  1  0
  2 20  1  0
  3  4  2  0
  4  5  1  0
  4 27  1  0
  5  6  2  0
  6  7  1  0
  7  8  1  0
  8  9  2  0
  8 10  1  0
 10 11  1  0
 11 12  2  0
 11 22  1  0
 12 13  1  0
 13 14  2  3
 13 16  1  0
 14 15  1  0
 16 17  1  0
 16 18  2  0
 18 19  1  0
 19 20  1  0
 20 21  2  0
 22 23  1  0
 23 24  1  0
 24 25  2  0
 24 26  1  0
 26 27  1  0
M  END
