
     RDKit          3D

 27 29  0  0  0  0  0  0  0  0999 V2000
   -5.2980   -0.6210   -2.7080 C   0  0  0  0  0  0  0  0  0  0  0  0
   -3.8380   -0.9880   -2.7750 C   0  0  0  0  0  0  0  0  0  0  0  0
   -3.0270    0.1400   -2.2830 C   0  0  0  0  0  0  0  0  0  0  0  0
   -2.1950    0.0030   -1.1990 C   0  0  0  0  0  0  0  0  0  0  0  0
   -1.4250    1.1680   -0.7720 C   0  0  0  0  0  0  0  0  0  0  0  0
   -1.0760    1.9060    0.2760 C   0  0  0  0  0  0  0  0  0  0  0  0
   -1.4990    1.6760    1.7050 C   0  0  0  0  0  0  0  0  0  0  0  0
   -0.9900    2.5900    2.4670 C   0  0  0  0  0  0  0  0  0  0  0  0
   -0.2210    3.4690    1.6600 C   0  0  0  0  0  0  0  0  0  0  0  0
   -0.2420    3.1020    0.3540 C   0  0  0  0  0  0  0  0  0  0  0  0
    0.4880    3.8550   -0.7090 C   0  0  0  0  0  0  0  0  0  0  0  0
    1.3600    3.3760   -1.5730 C   0  0  0  0  0  0  0  0  0  0  0  0
    1.8180    2.0010   -1.6950 C   0  0  0  0  0  0  0  0  0  0  0  0
    1.7750    1.4430   -2.8370 O   0  0  0  0  0  0  0  0  0  0  0  0
    2.3450    1.1610   -0.5920 C   0  0  2  0  0  0  0  0  0  0  0  0
    3.7290    1.6330   -0.1490 C   0  0  0  0  0  0  0  0  0  0  0  0
    2.5280   -0.5650   -1.0840 S   0  0  0  0  0  0  0  0  0  0  0  0
    2.9210   -1.6010    0.3190 C   0  0  0  0  0  0  0  0  0  0  0  0
    4.0840   -1.6710    1.0010 N   0  0  0  0  0  0  0  0  0  0  0  0
    3.9990   -2.5690    1.9990 C   0  0  0  0  0  0  0  0  0  0  0  0
    2.6950   -3.0680    1.9060 C   0  0  0  0  0  0  0  0  0  0  0  0
    2.2100   -4.0530    2.7990 N   0  0  0  0  0  0  0  0  0  0  0  0
    2.0740   -2.4580    0.8770 N   0  0  0  0  0  0  0  0  0  0  0  0
    0.7140   -2.6680    0.4200 C   0  0  0  0  0  0  0  0  0  0  0  0
   -0.1120   -1.4120    0.5940 C   0  0  0  0  0  0  0  0  0  0  0  0
   -1.5900   -1.7250    0.5070 C   0  0  0  0  0  0  0  0  0  0  0  0
   -2.2090   -1.2640   -0.6580 O   0  0  0  0  0  0  0  0  0  0  0  0
  1  2  1  0
  2  3  1  0
  3  4  2  3
  4  5  1  0
  4 27  1  0
  5  6  2  0
  6  7  1  0
  6 10  1  0
  7  8  2  0
  8  9  1  0
  9 10  2  0
 10 11  1  0
 11 12  2  0
 12 13  1  0
 13 14  2  0
 13 15  1  0
 15 16  1  6
 15 17  1  0
 17 18  1  0
 18 19  2  0
 18 23  1  0
 19 20  1  0
 20 21  2  0
 21 22  1  0
 21 23  1  0
 23 24  1  0
 24 25  1  0
 25 26  1  0
 26 27  1  0
M  END
