
     RDKit          3D

 27 29  0  0  0  0  0  0  0  0999 V2000
    4.2510    0.1560   -0.8260 C   0  0  0  0  0  0  0  0  0  0  0  0
    3.2220    1.0790   -0.2700 C   0  0  0  0  0  0  0  0  0  0  0  0
    2.0010    0.7210    0.1650 C   0  0  0  0  0  0  0  0  0  0  0  0
    1.2450    1.9220    0.6360 C   0  0  0  0  0  0  0  0  0  0  0  0
    1.4410    2.4440    1.9900 C   0  0  0  0  0  0  0  0  0  0  0  0
    0.7670    3.4720    2.1520 O   0  0  0  0  0  0  0  0  0  0  0  0
    0.1160    3.7700    1.1060 C   0  0  0  0  0  0  0  0  0  0  0  0
    0.3700    2.8120    0.0640 C   0  0  0  0  0  0  0  0  0  0  0  0
   -0.1520    3.0870   -1.2290 N   0  0  0  0  0  0  0  0  0  0  0  0
   -1.2770    2.7800   -2.0010 C   0  0  0  0  0  0  0  0  0  0  0  0
   -1.3280    3.1570   -3.6370 S   0  0  0  0  0  0  0  0  0  0  0  0
   -2.4960    2.2020   -1.4920 N   0  0  0  0  0  0  0  0  0  0  0  0
   -2.3360    0.9890   -0.7550 C   0  0  0  0  0  0  0  0  0  0  0  0
   -2.4950    0.9430    0.7220 C   0  0  0  0  0  0  0  0  0  0  0  0
   -2.7210   -0.5360    1.0260 C   0  0  0  0  0  0  0  0  0  0  0  0
   -3.4890   -0.7340    2.3110 C   0  0  0  0  0  0  0  0  0  0  0  0
   -2.3140   -1.5450    0.3070 C   0  0  0  0  0  0  0  0  0  0  0  0
   -1.5630   -1.6830   -0.9270 C   0  0  0  0  0  0  0  0  0  0  0  0
   -2.3980   -1.9680   -2.1870 C   0  0  0  0  0  0  0  0  0  0  0  0
   -0.2470   -1.7270   -1.1630 C   0  0  0  0  0  0  0  0  0  0  0  0
    0.9610   -1.6690   -0.3340 C   0  0  0  0  0  0  0  0  0  0  0  0
    1.2740   -3.0090   -0.0380 N   0  0  0  0  0  0  0  0  0  0  0  0
    2.2500   -3.5320    0.6260 C   0  0  0  0  0  0  0  0  0  0  0  0
    2.3870   -4.9270    0.8140 O   0  0  0  0  0  0  0  0  0  0  0  0
    3.1740   -2.6770    1.1570 C   0  0  0  0  0  0  0  0  0  0  0  0
    2.9660   -1.3720    0.9310 C   0  0  0  0  0  0  0  0  0  0  0  0
    1.8460   -0.7700    0.1700 C   0  0  0  0  0  0  0  0  0  0  0  0
  1  2  1  0
  2  3  2  3
  3  4  1  0
  3 27  1  0
  4  5  2  0
  4  8  1  0
  5  6  1  0
  6  7  1  0
  7  8  2  0
  8  9  1  0
  9 10  1  0
 10 11  2  0
 10 12  1  0
 12 13  1  0
 13 14  1  0
 14 15  1  0
 15 16  1  0
 15 17  2  0
 17 18  1  0
 18 19  1  0
 18 20  2  0
 20 21  1  0
 21 22  2  0
 21 27  1  0
 22 23  1  0
 23 24  1  0
 23 25  2  0
 25 26  1  0
 26 27  2  0
M  END
