
     RDKit          3D

 20 21  0  0  0  0  0  0  0  0999 V2000
   -2.3620    2.0840   -1.5950 O   0  0  0  0  0  0  0  0  0  0  0  0
   -3.0550    1.5780   -0.6930 C   0  0  0  0  0  0  0  0  0  0  0  0
   -4.3090    2.1920   -0.4890 O   0  0  0  0  0  0  0  0  0  0  0  0
   -2.6490    0.4450    0.1120 C   0  0  0  0  0  0  0  0  0  0  0  0
   -3.4770    0.0150    1.1280 C   0  0  0  0  0  0  0  0  0  0  0  0
   -3.1440   -0.9880    1.9740 C   0  0  0  0  0  0  0  0  0  0  0  0
   -1.9220   -1.6070    1.8130 C   0  0  0  0  0  0  0  0  0  0  0  0
   -1.0700   -1.2080    0.8120 C   0  0  0  0  0  0  0  0  0  0  0  0
   -1.4270   -0.1830   -0.0420 C   0  0  0  0  0  0  0  0  0  0  0  0
   -0.5580    0.1120   -1.1040 N   0  0  0  0  0  0  0  0  0  0  0  0
    0.8540   -0.0510   -1.1050 C   0  0  0  0  0  0  0  0  0  0  0  0
    1.5690   -0.2270   -2.2770 C   0  0  0  0  0  0  0  0  0  0  0  0
    2.9450   -0.3000   -2.2960 C   0  0  0  0  0  0  0  0  0  0  0  0
    3.6540   -0.1950   -1.1050 C   0  0  0  0  0  0  0  0  0  0  0  0
    2.9800   -0.0260    0.0760 C   0  0  0  0  0  0  0  0  0  0  0  0
    3.7130    0.0950    1.3830 C   0  0  2  0  0  0  0  0  0  0  0  0
    4.6270    1.1380    1.3000 F   0  0  0  0  0  0  0  0  0  0  0  0
    4.2770   -1.1240    1.6280 F   0  0  0  0  0  0  0  0  0  0  0  0
    2.7730    0.3220    2.3750 F   0  0  0  0  0  0  0  0  0  0  0  0
    1.6050    0.0400    0.0570 C   0  0  0  0  0  0  0  0  0  0  0  0
  1  2  2  0
  2  3  1  0
  2  4  1  0
  4  5  2  0
  4  9  1  0
  5  6  1  0
  6  7  2  0
  7  8  1  0
  8  9  2  0
  9 10  1  0
 10 11  1  0
 11 12  2  0
 11 20  1  0
 12 13  1  0
 13 14  2  0
 14 15  1  0
 15 16  1  0
 15 20  2  0
 16 17  1  6
 16 18  1  0
 16 19  1  0
M  END
