
     RDKit          3D

 16 17  0  0  0  0  0  0  0  0999 V2000
   -3.9100    0.2080   -0.5110 C   0  0  0  0  0  0  0  0  0  0  0  0
   -2.8260    0.1040    0.5850 C   0  0  1  0  0  0  0  0  0  0  0  0
   -3.4040   -0.7170    1.7500 C   0  0  0  0  0  0  0  0  0  0  0  0
   -1.6750   -0.4600    0.1140 O   0  0  0  0  0  0  0  0  0  0  0  0
   -0.3930   -0.0370    0.0030 C   0  0  0  0  0  0  0  0  0  0  0  0
    0.5810   -0.8900   -0.5430 C   0  0  0  0  0  0  0  0  0  0  0  0
    1.8900   -0.5100   -0.6760 C   0  0  0  0  0  0  0  0  0  0  0  0
    2.2270    0.7570   -0.2510 C   0  0  0  0  0  0  0  0  0  0  0  0
    1.2850    1.5790    0.2770 N   0  0  0  0  0  0  0  0  0  0  0  0
    0.0050    1.2100    0.4080 C   0  0  0  0  0  0  0  0  0  0  0  0
   -0.7900    2.0720    0.9200 O   0  0  0  0  0  0  0  0  0  0  0  0
    3.5990    1.2590   -0.3580 C   0  0  0  0  0  0  0  0  0  0  0  0
    3.7960    2.4820   -0.2840 O   0  0  0  0  0  0  0  0  0  0  0  0
    4.9310    0.1070   -0.5910 S   0  0  0  0  0  0  0  0  0  0  0  0
    4.2130   -1.5420   -0.7790 C   0  0  0  0  0  0  0  0  0  0  0  0
    2.8580   -1.3980   -1.2320 N   0  0  0  0  0  0  0  0  0  0  0  0
  2  1  1  6
  2  3  1  0
  2  4  1  0
  4  5  1  0
  5  6  2  0
  5 10  1  0
  6  7  1  0
  7  8  2  0
  7 16  1  0
  8  9  1  0
  8 12  1  0
  9 10  1  0
 10 11  2  0
 12 13  2  0
 12 14  1  0
 14 15  1  0
 15 16  1  0
M  END
