
     RDKit          3D

 16 16  0  0  0  0  0  0  0  0999 V2000
   -3.4170    1.2350   -0.6410 C   0  0  0  0  0  0  0  0  0  0  0  0
   -2.5280    0.1110   -0.1770 C   0  0  0  0  0  0  0  0  0  0  0  0
   -1.2370    0.1310   -0.4440 C   0  0  0  0  0  0  0  0  0  0  0  0
   -0.6350    1.2280   -1.1880 C   0  0  0  0  0  0  0  0  0  0  0  0
    0.5820    1.3010   -1.4920 O   0  0  0  0  0  0  0  0  0  0  0  0
   -1.4060    2.3030   -1.6220 O   0  0  0  0  0  0  0  0  0  0  0  0
   -0.4270   -0.9990   -0.0090 C   0  0  0  0  0  0  0  0  0  0  0  0
    0.9950   -1.0760   -0.2510 N   0  0  0  0  0  0  0  0  0  0  0  0
    1.9350   -0.2330    0.3930 C   0  0  0  0  0  0  0  0  0  0  0  0
    1.5450    0.6210    1.2270 O   0  0  0  0  0  0  0  0  0  0  0  0
    3.3810   -0.3940    0.0510 C   0  0  0  0  0  0  0  0  0  0  0  0
    4.2380    0.5730    0.8200 C   0  0  0  0  0  0  0  0  0  0  0  0
    3.8980    1.8980    0.5540 O   0  0  0  0  0  0  0  0  0  0  0  0
   -1.0180   -1.9960    0.6260 C   0  0  0  0  0  0  0  0  0  0  0  0
   -2.4570   -2.0830    0.9480 C   0  0  0  0  0  0  0  0  0  0  0  0
   -3.1600   -0.9230    0.5410 N   0  0  0  0  0  0  0  0  0  0  0  0
  1  2  1  0
  2  3  2  0
  2 16  1  0
  3  4  1  0
  3  7  1  0
  4  5  2  0
  4  6  1  0
  7  8  1  0
  7 14  2  0
  8  9  1  0
  9 10  2  0
  9 11  1  0
 11 12  1  0
 12 13  1  0
 14 15  1  0
 15 16  1  0
M  END
