
     RDKit          3D

 16 17  0  0  0  0  0  0  0  0999 V2000
    4.6960    1.3040    0.1220 C   0  0  0  0  0  0  0  0  0  0  0  0
    3.5220    0.4100   -0.0620 C   0  0  0  0  0  0  0  0  0  0  0  0
    2.1930    0.7330    0.2170 C   0  0  0  0  0  0  0  0  0  0  0  0
    1.3930   -0.3360   -0.0760 C   0  0  0  0  0  0  0  0  0  0  0  0
   -0.0390   -0.4620    0.0520 C   0  0  0  0  0  0  0  0  0  0  0  0
   -0.6980   -1.6210   -0.2920 C   0  0  0  0  0  0  0  0  0  0  0  0
   -2.0600   -1.7630   -0.1780 C   0  0  0  0  0  0  0  0  0  0  0  0
   -2.8120   -0.7260    0.2910 C   0  0  0  0  0  0  0  0  0  0  0  0
   -4.1960   -0.8490    0.4140 O   0  0  0  0  0  0  0  0  0  0  0  0
   -5.2240   -0.4140   -0.9090 S   0  0  0  0  0  0  0  0  0  0  0  0
   -4.4610    0.4760   -1.8870 O   0  0  0  0  0  0  0  0  0  0  0  0
   -2.1910    0.4440    0.6430 C   0  0  0  0  0  0  0  0  0  0  0  0
   -2.9860    1.4860    1.1200 O   0  0  0  0  0  0  0  0  0  0  0  0
   -0.8180    0.5810    0.5270 C   0  0  0  0  0  0  0  0  0  0  0  0
    2.2180   -1.2980   -0.5270 N   0  0  0  0  0  0  0  0  0  0  0  0
    3.4740   -0.8540   -0.5170 N   0  0  0  0  0  0  0  0  0  0  0  0
  1  2  1  0
  2  3  2  0
  2 16  1  0
  3  4  1  0
  4  5  1  0
  4 15  2  0
  5  6  2  0
  5 14  1  0
  6  7  1  0
  7  8  2  0
  8  9  1  0
  8 12  1  0
  9 10  1  0
 10 11  2  0
 12 13  1  0
 12 14  2  0
 15 16  1  0
M  END
