
     RDKit          3D

 16 17  0  0  0  0  0  0  0  0999 V2000
   -4.9610   -0.4530    0.6220 C   0  0  0  0  0  0  0  0  0  0  0  0
   -3.9120   -1.3570    0.0580 C   0  0  0  0  0  0  0  0  0  0  0  0
   -2.6710   -0.7540   -0.1530 O   0  0  0  0  0  0  0  0  0  0  0  0
   -2.4320    0.3120   -0.9720 C   0  0  0  0  0  0  0  0  0  0  0  0
   -3.4870    0.7510   -1.5720 O   0  0  0  0  0  0  0  0  0  0  0  0
   -0.9540    1.1530   -1.3240 S   0  0  0  0  0  0  0  0  0  0  0  0
    0.5150    0.6090   -0.5440 C   0  0  0  0  0  0  0  0  0  0  0  0
    1.7010    1.2960   -0.8360 C   0  0  0  0  0  0  0  0  0  0  0  0
    2.9090    0.9590   -0.2850 C   0  0  0  0  0  0  0  0  0  0  0  0
    4.1680    1.4490   -0.3990 N   0  0  0  0  0  0  0  0  0  0  0  0
    5.0180    0.7520    0.3660 C   0  0  0  0  0  0  0  0  0  0  0  0
    4.2600   -0.2220    0.9910 C   0  0  0  0  0  0  0  0  0  0  0  0
    2.9480   -0.1010    0.5940 C   0  0  0  0  0  0  0  0  0  0  0  0
    1.8280   -0.7670    0.8840 N   0  0  0  0  0  0  0  0  0  0  0  0
    0.6180   -0.4320    0.3330 C   0  0  0  0  0  0  0  0  0  0  0  0
   -0.3740   -1.1170    0.6680 O   0  0  0  0  0  0  0  0  0  0  0  0
  1  2  1  0
  2  3  1  0
  3  4  1  0
  4  5  2  0
  4  6  1  0
  6  7  1  0
  7  8  2  0
  7 15  1  0
  8  9  1  0
  9 10  1  0
  9 13  2  0
 10 11  1  0
 11 12  2  0
 12 13  1  0
 13 14  1  0
 14 15  1  0
 15 16  2  0
M  END
