
     RDKit          3D

 16 17  0  0  0  0  0  0  0  0999 V2000
    4.0640    0.4220   -0.4150 C   0  0  0  0  0  0  0  0  0  0  0  0
    3.1550   -0.6520   -0.4720 O   0  0  0  0  0  0  0  0  0  0  0  0
    1.8010   -0.5310   -0.1700 C   0  0  0  0  0  0  0  0  0  0  0  0
    1.2600    0.6780    0.2120 C   0  0  0  0  0  0  0  0  0  0  0  0
   -0.0750    0.7930    0.5090 C   0  0  0  0  0  0  0  0  0  0  0  0
   -0.8240    2.3320    1.0070 S   0  0  0  0  0  0  0  0  0  0  0  0
   -1.4350    3.2790   -0.4110 C   0  0  0  0  0  0  0  0  0  0  0  0
   -0.8630   -0.3340    0.4160 C   0  0  0  0  0  0  0  0  0  0  0  0
   -2.2280   -0.2360    0.7150 C   0  0  0  0  0  0  0  0  0  0  0  0
   -2.6730    0.8860    1.0580 O   0  0  0  0  0  0  0  0  0  0  0  0
   -2.9580   -1.3360    0.6160 N   0  0  0  0  0  0  0  0  0  0  0  0
   -2.4190   -2.5200    0.2400 C   0  0  0  0  0  0  0  0  0  0  0  0
   -3.1700   -3.5250    0.1670 O   0  0  0  0  0  0  0  0  0  0  0  0
   -1.1200   -2.6520   -0.0530 N   0  0  0  0  0  0  0  0  0  0  0  0
   -0.3260   -1.5560    0.0320 C   0  0  0  0  0  0  0  0  0  0  0  0
    1.0330   -1.6570   -0.2670 C   0  0  0  0  0  0  0  0  0  0  0  0
  1  2  1  0
  2  3  1  0
  3  4  2  0
  3 16  1  0
  4  5  1  0
  5  6  1  0
  5  8  2  0
  6  7  1  0
  8  9  1  0
  8 15  1  0
  9 10  2  0
  9 11  1  0
 11 12  1  0
 12 13  2  0
 12 14  1  0
 14 15  1  0
 15 16  2  0
M  END
