
     RDKit          3D

 13 14  0  0  0  0  0  0  0  0999 V2000
    3.2560   -0.0710    0.5000 N   0  0  0  0  0  0  0  0  0  0  0  0
    2.4420   -0.0410   -0.7070 C   0  0  0  0  0  0  0  0  0  0  0  0
    1.1000    0.5190   -0.3390 C   0  0  1  0  0  0  0  0  0  0  0  0
    0.2210    0.5750   -1.5740 C   0  0  0  0  0  0  0  0  0  0  0  0
   -1.1010    0.1150   -0.9810 C   0  0  2  0  0  0  0  0  0  0  0  0
   -1.9600   -0.4040   -1.8950 O   0  0  0  0  0  0  0  0  0  0  0  0
   -1.6420    1.2480   -0.1630 C   0  0  0  0  0  0  0  0  0  0  0  0
   -2.7930    0.7290    0.6160 C   0  0  0  0  0  0  0  0  0  0  0  0
   -3.9130    1.2860    0.6060 O   0  0  0  0  0  0  0  0  0  0  0  0
   -2.5350   -0.4270    1.3620 O   0  0  0  0  0  0  0  0  0  0  0  0
   -1.6180   -1.3950    0.9570 C   0  0  0  0  0  0  0  0  0  0  0  0
   -0.5730   -0.9240    0.0120 C   0  0  2  0  0  0  0  0  0  0  0  0
    0.4510   -0.2230    0.6070 O   0  0  0  0  0  0  0  0  0  0  0  0
  1  2  1  0
  3  2  1  6
  3  4  1  0
  3 13  1  0
  4  5  1  0
  5  6  1  6
  5  7  1  0
  5 12  1  0
  7  8  1  0
  8  9  2  0
  8 10  1  0
 10 11  1  0
 12 11  1  1
 12 13  1  0
M  CHG  1   1   1
M  END
