
     RDKit          3D

 13 14  0  0  0  0  0  0  0  0999 V2000
   -2.8940   -1.0010   -1.3960 O   0  0  0  0  0  0  0  0  0  0  0  0
   -1.6740   -0.9590   -0.7040 C   0  0  2  0  0  0  0  0  0  0  0  0
   -1.8980   -1.4630    0.7060 C   0  0  0  0  0  0  0  0  0  0  0  0
   -2.3950   -0.3800    1.3880 O   0  0  0  0  0  0  0  0  0  0  0  0
   -1.7870    0.7640    0.8860 C   0  0  2  0  0  0  0  0  0  0  0  0
   -2.8030    1.7480    0.8350 O   0  0  0  0  0  0  0  0  0  0  0  0
   -1.2480    0.4670   -0.4580 C   0  0  1  0  0  0  0  0  0  0  0  0
    0.1410    0.7020   -0.6430 N   0  0  0  0  0  0  0  0  0  0  0  0
    1.0090    0.1500    0.3270 C   0  0  2  0  0  0  0  0  0  0  0  0
    2.2310    1.0700    0.4460 C   0  0  0  0  0  0  0  0  0  0  0  0
    3.4170    0.1930    0.0560 C   0  0  0  0  0  0  0  0  0  0  0  0
    2.9800   -1.0900    0.3680 O   0  0  0  0  0  0  0  0  0  0  0  0
    1.6920   -1.1220   -0.1920 C   0  0  0  0  0  0  0  0  0  0  0  0
  2  1  1  6
  2  3  1  0
  2  7  1  0
  3  4  1  0
  4  5  1  0
  5  6  1  6
  5  7  1  0
  7  8  1  1
  9  8  1  6
  9 10  1  0
  9 13  1  0
 10 11  1  0
 11 12  1  0
 12 13  1  0
M  CHG  1   8   1
M  END
