
     RDKit          3D

 13 13  0  0  0  0  0  0  0  0999 V2000
   -2.3490   -0.8610   -1.0850 C   0  0  0  0  0  0  0  0  0  0  0  0
   -1.7780   -0.4370    0.2540 C   0  0  1  0  0  0  0  0  0  0  0  0
   -2.6390   -0.9870    1.2340 O   0  0  0  0  0  0  0  0  0  0  0  0
   -0.4480   -1.0500    0.4270 C   0  0  0  0  0  0  0  0  0  0  0  0
    0.7180   -0.2680   -0.1330 C   0  0  2  0  0  0  0  0  0  0  0  0
    0.7110   -0.4450   -1.5240 O   0  0  0  0  0  0  0  0  0  0  0  0
    1.9820   -0.8770    0.3870 C   0  0  0  0  0  0  0  0  0  0  0  0
    3.2500   -0.2490   -0.0540 C   0  0  0  0  0  0  0  0  0  0  0  0
    3.3860    1.0740    0.3220 O   0  0  0  0  0  0  0  0  0  0  0  0
    0.5980    1.1530    0.2710 C   0  0  0  0  0  0  0  0  0  0  0  0
   -0.6880    1.7470   -0.0300 N   0  0  0  0  0  0  0  0  0  0  0  0
   -1.8230    1.0460    0.4420 C   0  0  1  0  0  0  0  0  0  0  0  0
   -2.9440    1.5150   -0.2760 O   0  0  0  0  0  0  0  0  0  0  0  0
  2  1  1  6
  2  3  1  0
  2  4  1  0
  2 12  1  0
  4  5  1  0
  5  6  1  6
  5  7  1  0
  5 10  1  0
  7  8  1  0
  8  9  1  0
 10 11  1  0
 11 12  1  0
 12 13  1  6
M  CHG  1  11   1
M  END
