
     RDKit          3D

 19 20  0  0  0  0  0  0  0  0999 V2000
    3.5490   -1.4180    0.1740 C   0  0  0  0  0  0  0  0  0  0  0  0
    2.1750   -0.8210   -0.1830 C   0  0  1  0  0  0  0  0  0  0  0  0
    1.2480   -1.9980   -0.2620 C   0  0  0  0  0  0  0  0  0  0  0  0
    0.0620   -1.7440    0.4680 O   0  0  0  0  0  0  0  0  0  0  0  0
   -1.0070   -1.0790   -0.1050 C   0  0  0  0  0  0  0  0  0  0  0  0
   -2.2730   -1.0700    0.2810 C   0  0  0  0  0  0  0  0  0  0  0  0
   -2.9090   -1.8070    1.3200 N   0  0  0  0  0  0  0  0  0  0  0  0
   -3.0490   -0.1050   -0.5790 C   0  0  0  0  0  0  0  0  0  0  0  0
   -1.9230    0.8120   -1.0290 C   0  0  2  0  0  0  0  0  0  0  0  0
   -0.8530   -0.2240   -1.3210 C   0  0  0  0  0  0  0  0  0  0  0  0
   -1.4750    1.6330    0.1160 C   0  0  0  0  0  0  0  0  0  0  0  0
   -1.7960    1.2140    1.2910 O   0  0  0  0  0  0  0  0  0  0  0  0
   -0.7280    2.8380    0.0680 N   0  0  0  0  0  0  0  0  0  0  0  0
    0.5420    3.0450   -0.4530 N   0  0  0  0  0  0  0  0  0  0  0  0
    1.7990    2.5660   -0.0020 C   0  0  0  0  0  0  0  0  0  0  0  0
    2.8750    3.1410   -0.4640 O   0  0  0  0  0  0  0  0  0  0  0  0
    2.0640    1.4900    0.9340 C   0  0  0  0  0  0  0  0  0  0  0  0
    2.6870    1.8190    2.0320 O   0  0  0  0  0  0  0  0  0  0  0  0
    1.7500    0.1290    0.8430 N   0  0  0  0  0  0  0  0  0  0  0  0
  2  1  1  1
  2  3  1  0
  2 19  1  0
  3  4  1  0
  4  5  1  0
  5  6  2  0
  5 10  1  0
  6  7  1  0
  6  8  1  0
  9  8  1  1
  9 10  1  0
  9 11  1  0
 11 12  2  0
 11 13  1  0
 13 14  1  0
 14 15  1  0
 15 16  2  0
 15 17  1  0
 17 18  2  0
 17 19  1  0
M  CHG  1   7   1
M  END
