
     RDKit          3D

 18 19  0  0  0  0  0  0  0  0999 V2000
    2.0880    1.6060    1.5760 C   0  0  0  0  0  0  0  0  0  0  0  0
    2.2160    0.6420    0.5320 N   0  0  0  0  0  0  0  0  0  0  0  0
    2.9810    0.7970   -0.6490 C   0  0  0  0  0  0  0  0  0  0  0  0
    3.4610    2.0510   -1.1890 N   0  0  0  0  0  0  0  0  0  0  0  0
    3.2120   -0.3230   -1.2090 N   0  0  0  0  0  0  0  0  0  0  0  0
    2.6060   -1.3740   -0.4320 C   0  0  0  0  0  0  0  0  0  0  0  0
    1.6210   -0.6480    0.4500 C   0  0  2  0  0  0  0  0  0  0  0  0
    0.2850   -0.6670   -0.2380 C   0  0  1  0  0  0  0  0  0  0  0  0
   -0.1380   -2.0980   -0.3970 C   0  0  0  0  0  0  0  0  0  0  0  0
   -1.3680   -2.4100    0.2240 O   0  0  0  0  0  0  0  0  0  0  0  0
   -2.4350   -1.4980    0.2100 C   0  0  0  0  0  0  0  0  0  0  0  0
   -3.6870   -1.8940    0.1130 C   0  0  0  0  0  0  0  0  0  0  0  0
   -3.9850   -3.2430    0.0230 O   0  0  0  0  0  0  0  0  0  0  0  0
   -2.0460   -0.1010    0.3080 C   0  0  0  0  0  0  0  0  0  0  0  0
   -2.9350    0.8740    0.3080 C   0  0  0  0  0  0  0  0  0  0  0  0
   -2.5430    2.3070    0.4090 C   0  0  0  0  0  0  0  0  0  0  0  0
   -3.0080    2.9410   -0.7440 O   0  0  0  0  0  0  0  0  0  0  0  0
   -0.6750    0.1400    0.4040 O   0  0  0  0  0  0  0  0  0  0  0  0
  1  2  1  0
  2  3  1  0
  2  7  1  0
  3  4  1  0
  3  5  2  0
  5  6  1  0
  7  6  1  6
  7  8  1  0
  8  9  1  1
  8 18  1  0
  9 10  1  0
 10 11  1  0
 11 12  2  3
 11 14  1  0
 12 13  1  0
 14 15  2  3
 14 18  1  0
 15 16  1  0
 16 17  1  0
M  CHG  1   5   1
M  END
