
     RDKit          3D

 31 32  0  0  0  0  0  0  0  0999 V2000
   -7.5830   -1.2190    2.1380 C   0  0  0  0  0  0  0  0  0  0  0  0
   -6.2100   -0.6140    1.8860 C   0  0  1  0  0  0  0  0  0  0  0  0
   -6.1460    0.6240    2.4520 O   0  0  0  0  0  0  0  0  0  0  0  0
   -5.2050   -1.5010    2.5810 C   0  0  2  0  0  0  0  0  0  0  0  0
   -5.4130   -1.6000    3.9320 F   0  0  0  0  0  0  0  0  0  0  0  0
   -3.9480   -0.9480    2.3800 F   0  0  0  0  0  0  0  0  0  0  0  0
   -5.8850   -0.5880    0.4290 C   0  0  2  0  0  0  0  0  0  0  0  0
   -4.5050   -0.1180    0.2890 N   0  0  0  0  0  0  0  0  0  0  0  0
   -3.5400   -0.9650   -0.3120 C   0  0  0  0  0  0  0  0  0  0  0  0
   -3.9580   -2.1010   -0.6940 O   0  0  0  0  0  0  0  0  0  0  0  0
   -2.1420   -0.6090   -0.5200 C   0  0  0  0  0  0  0  0  0  0  0  0
   -1.3040   -1.3810   -1.0770 C   0  0  0  0  0  0  0  0  0  0  0  0
    0.0140   -1.1250   -1.3100 C   0  0  0  0  0  0  0  0  0  0  0  0
    0.5160    0.2400   -0.8440 C   0  0  0  0  0  0  0  0  0  0  0  0
    1.8260    0.3820   -0.9340 C   0  0  0  0  0  0  0  0  0  0  0  0
    3.1630    0.5230   -1.0290 C   0  0  0  0  0  0  0  0  0  0  0  0
    4.5010    0.6620   -1.1080 C   0  0  0  0  0  0  0  0  0  0  0  0
    5.7510    0.7770   -1.1920 C   0  0  0  0  0  0  0  0  0  0  0  0
    7.0510    0.8870   -1.2940 C   0  0  0  0  0  0  0  0  0  0  0  0
    7.8760    0.7940    0.0610 C   0  0  0  0  0  0  0  0  0  0  0  0
    9.0050    0.8680   -0.5250 C   0  0  0  0  0  0  0  0  0  0  0  0
   10.0350    0.9600   -1.3600 C   0  0  0  0  0  0  0  0  0  0  0  0
   11.3670    0.9720   -1.3730 N   0  0  0  0  0  0  0  0  0  0  0  0
    9.2050    1.0660   -2.6250 C   0  0  0  0  0  0  0  0  0  0  0  0
    7.8550    1.0200   -2.4230 C   0  0  0  0  0  0  0  0  0  0  0  0
   -0.4520    0.9680   -0.2730 C   0  0  0  0  0  0  0  0  0  0  0  0
   -1.7800    0.7250   -0.0300 C   0  0  0  0  0  0  0  0  0  0  0  0
   -6.7260    0.3310   -0.3420 C   0  0  0  0  0  0  0  0  0  0  0  0
   -6.2310    1.3660   -0.8940 O   0  0  0  0  0  0  0  0  0  0  0  0
   -8.1330    0.1920   -0.5670 N   0  0  0  0  0  0  0  0  0  0  0  0
   -8.6660    0.5830   -1.6270 O   0  0  0  0  0  0  0  0  0  0  0  0
  2  1  1  6
  2  3  1  0
  2  4  1  0
  2  7  1  0
  4  5  1  1
  4  6  1  0
  7  8  1  1
  7 28  1  0
  8  9  1  0
  9 10  2  0
  9 11  1  0
 11 12  2  0
 11 27  1  0
 12 13  1  0
 13 14  2  0
 14 15  1  0
 14 26  1  0
 15 16  3  0
 16 17  1  0
 17 18  3  0
 18 19  1  0
 19 20  2  0
 19 25  1  0
 20 21  1  0
 21 22  2  0
 22 23  1  0
 22 24  1  0
 24 25  2  0
 26 27  2  0
 28 29  2  0
 28 30  1  0
 30 31  2  0
M  END
