
     RDKit          3D

 29 30  0  0  0  0  0  0  0  0999 V2000
   -2.3310   -1.0060   -2.1470 C   0  0  0  0  0  0  0  0  0  0  0  0
   -3.0350    0.2360   -1.6310 C   0  0  0  0  0  0  0  0  0  0  0  0
   -3.8810   -0.1890   -0.4870 C   0  0  0  0  0  0  0  0  0  0  0  0
   -3.2420   -0.4440    0.7060 C   0  0  0  0  0  0  0  0  0  0  0  0
   -1.8490   -0.3060    0.8290 O   0  0  0  0  0  0  0  0  0  0  0  0
   -1.2640    0.8990    1.1930 C   0  0  0  0  0  0  0  0  0  0  0  0
   -2.0270    1.8690    1.4080 O   0  0  0  0  0  0  0  0  0  0  0  0
    0.1970    1.0970    1.3370 C   0  0  2  0  0  0  0  0  0  0  0  0
    0.6510    0.1210    2.4320 C   0  0  0  0  0  0  0  0  0  0  0  0
    0.4600    2.5120    1.7310 C   0  0  0  0  0  0  0  0  0  0  0  0
    0.8810    0.6880    0.0630 C   0  0  0  0  0  0  0  0  0  0  0  0
    2.3550    0.8350    0.0640 C   0  0  0  0  0  0  0  0  0  0  0  0
    3.0270    0.0560    1.0770 N   0  0  0  0  0  0  0  0  0  0  0  0
    4.7240    0.2520    1.0470 S   0  0  2  0  0  0  0  0  0  0  0  0
    5.3420   -0.6960    2.0640 O   0  0  0  0  0  0  0  0  0  0  0  0
    5.1970    1.6160    1.3640 O   0  0  0  0  0  0  0  0  0  0  0  0
    5.3190   -0.3070   -0.5220 C   0  0  0  0  0  0  0  0  0  0  0  0
    5.4570    0.4630   -1.6330 C   0  0  0  0  0  0  0  0  0  0  0  0
    5.1390    1.9110   -1.7500 C   0  0  0  0  0  0  0  0  0  0  0  0
    5.9330   -0.3390   -2.5890 N   0  0  0  0  0  0  0  0  0  0  0  0
    6.0830   -1.5340   -2.1130 O   0  0  0  0  0  0  0  0  0  0  0  0
    5.7240   -1.5680   -0.8570 C   0  0  0  0  0  0  0  0  0  0  0  0
    5.7490   -2.7510    0.0370 C   0  0  0  0  0  0  0  0  0  0  0  0
   -4.0210   -0.8390    1.7730 C   0  0  0  0  0  0  0  0  0  0  0  0
   -5.3960   -0.9770    1.6580 C   0  0  0  0  0  0  0  0  0  0  0  0
   -6.0390   -0.7230    0.4640 C   0  0  0  0  0  0  0  0  0  0  0  0
   -7.4480   -0.8550    0.3150 N   0  0  0  0  0  0  0  0  0  0  0  0
   -5.2540   -0.3280   -0.6000 C   0  0  0  0  0  0  0  0  0  0  0  0
   -5.9030   -0.0460   -1.8940 C   0  0  0  0  0  0  0  0  0  0  0  0
  1  2  1  0
  2  3  1  0
  3  4  2  0
  3 28  1  0
  4  5  1  0
  4 24  1  0
  5  6  1  0
  6  7  2  0
  6  8  1  0
  8  9  1  1
  8 10  1  0
  8 11  1  0
 11 12  1  0
 12 13  1  0
 14 13  1  6
 14 15  2  0
 14 16  2  0
 14 17  1  0
 17 18  1  0
 17 22  2  0
 18 19  1  0
 18 20  2  0
 20 21  1  0
 21 22  1  0
 22 23  1  0
 24 25  2  0
 25 26  1  0
 26 27  1  0
 26 28  2  0
 28 29  1  0
M  END
