
     RDKit          3D

 29 30  0  0  0  0  0  0  0  0999 V2000
    9.6200   -1.2310   -0.5420 C   0  0  0  0  0  0  0  0  0  0  0  0
    9.5420   -0.1380    0.2800 O   0  0  0  0  0  0  0  0  0  0  0  0
    8.4830    0.6950    0.0810 C   0  0  0  0  0  0  0  0  0  0  0  0
    7.1480    0.0410    0.3180 C   0  0  0  0  0  0  0  0  0  0  0  0
    7.0240   -1.1450    0.6560 O   0  0  0  0  0  0  0  0  0  0  0  0
    6.0180    0.8550    0.1340 N   0  0  0  0  0  0  0  0  0  0  0  0
    4.7060    0.3850    0.3240 N   0  0  0  0  0  0  0  0  0  0  0  0
    3.9060    0.8810    1.3740 C   0  0  0  0  0  0  0  0  0  0  0  0
    4.3520    1.7550    2.1750 O   0  0  0  0  0  0  0  0  0  0  0  0
    2.5490    0.3840    1.5440 C   0  0  0  0  0  0  0  0  0  0  0  0
    2.1250    0.1390    2.8400 C   0  0  0  0  0  0  0  0  0  0  0  0
    0.8410   -0.3080    3.0660 C   0  0  0  0  0  0  0  0  0  0  0  0
   -0.0200   -0.5090    1.9930 C   0  0  0  0  0  0  0  0  0  0  0  0
    0.3940   -0.2680    0.6910 C   0  0  0  0  0  0  0  0  0  0  0  0
   -0.5330   -0.4720   -0.4090 C   0  0  0  0  0  0  0  0  0  0  0  0
   -0.1260   -0.2750   -1.5720 O   0  0  0  0  0  0  0  0  0  0  0  0
   -1.8270   -0.8670   -0.2380 O   0  0  0  0  0  0  0  0  0  0  0  0
   -2.8160   -1.1020   -1.1880 C   0  0  0  0  0  0  0  0  0  0  0  0
   -3.1930   -0.0140   -2.0600 C   0  0  0  0  0  0  0  0  0  0  0  0
   -4.2950    0.5920   -2.2550 C   0  0  0  0  0  0  0  0  0  0  0  0
   -5.6260    0.5080   -1.7310 C   0  0  0  0  0  0  0  0  0  0  0  0
   -6.7010    1.1230   -2.3960 C   0  0  0  0  0  0  0  0  0  0  0  0
   -7.9850    1.1320   -1.9160 C   0  0  0  0  0  0  0  0  0  0  0  0
   -8.2660    0.5150   -0.7220 C   0  0  0  0  0  0  0  0  0  0  0  0
   -7.2370   -0.1080   -0.0240 C   0  0  0  0  0  0  0  0  0  0  0  0
   -7.4930   -0.7480    1.2200 N   0  0  0  0  0  0  0  0  0  0  0  0
   -9.1250   -0.7560    1.8760 S   0  0  0  0  0  0  0  0  0  0  0  0
   -5.9480   -0.0920   -0.5490 C   0  0  0  0  0  0  0  0  0  0  0  0
    1.6700    0.1730    0.4870 C   0  0  0  0  0  0  0  0  0  0  0  0
  1  2  1  0
  2  3  1  0
  3  4  1  0
  4  5  2  0
  4  6  1  0
  6  7  1  0
  7  8  1  0
  8  9  2  0
  8 10  1  0
 10 11  2  0
 10 29  1  0
 11 12  1  0
 12 13  2  0
 13 14  1  0
 14 15  1  0
 14 29  2  0
 15 16  2  0
 15 17  1  0
 17 18  1  0
 18 19  1  0
 19 20  2  3
 20 21  1  0
 21 22  2  0
 21 28  1  0
 22 23  1  0
 23 24  2  0
 24 25  1  0
 25 26  1  0
 25 28  2  0
 26 27  1  0
M  END
