
     RDKit          3D

 29 31  0  0  0  0  0  0  0  0999 V2000
    7.9010   -1.7210   -0.4780 C   0  0  0  0  0  0  0  0  0  0  0  0
    7.7060   -0.1800   -0.3430 C   0  0  2  0  0  0  0  0  0  0  0  0
    7.8810    0.1210    1.0030 O   0  0  0  0  0  0  0  0  0  0  0  0
    6.2270    0.1250   -0.7850 C   0  0  0  0  0  0  0  0  0  0  0  0
    6.0190    1.3820   -0.3410 O   0  0  0  0  0  0  0  0  0  0  0  0
    4.6710    1.7770   -0.5440 C   0  0  0  0  0  0  0  0  0  0  0  0
    3.7700    0.5830    0.0770 C   0  0  0  0  0  0  0  0  0  0  0  0
    2.4400    1.0210    0.0910 N   0  0  0  0  0  0  0  0  0  0  0  0
    1.3170    0.3200   -0.1930 C   0  0  0  0  0  0  0  0  0  0  0  0
    1.2460   -1.0330   -0.5390 C   0  0  0  0  0  0  0  0  0  0  0  0
   -0.0290   -1.6080   -0.6370 C   0  0  0  0  0  0  0  0  0  0  0  0
   -1.1560   -0.8990   -0.3730 C   0  0  0  0  0  0  0  0  0  0  0  0
   -2.3810   -1.3950    0.0390 N   0  0  0  0  0  0  0  0  0  0  0  0
   -3.6370   -0.6100   -0.2200 C   0  0  0  0  0  0  0  0  0  0  0  0
   -3.5530    0.1170   -1.1960 O   0  0  0  0  0  0  0  0  0  0  0  0
   -4.4880   -0.9280    0.7460 N   0  0  0  0  0  0  0  0  0  0  0  0
   -5.8900   -0.2620   -0.0200 C   0  0  0  0  0  0  0  0  0  0  0  0
   -5.7030    0.1310   -1.1400 O   0  0  0  0  0  0  0  0  0  0  0  0
   -7.0770   -0.3480    0.8000 C   0  0  2  0  0  0  0  0  0  0  0  0
   -7.5790   -1.6790    0.3530 N   0  0  0  0  0  0  0  0  0  0  0  0
   -8.8640   -1.5700   -0.2160 C   0  0  0  0  0  0  0  0  0  0  0  0
   -9.5750   -2.5140   -0.5780 O   0  0  0  0  0  0  0  0  0  0  0  0
   -9.2080   -0.2040   -0.3190 N   0  0  0  0  0  0  0  0  0  0  0  0
   -8.1210    0.5350    0.1660 C   0  0  0  0  0  0  0  0  0  0  0  0
   -8.0290    1.8790   -0.0790 N   0  0  0  0  0  0  0  0  0  0  0  0
   -1.0480    0.4940   -0.0410 C   0  0  0  0  0  0  0  0  0  0  0  0
    0.2350    1.0440    0.0090 C   0  0  0  0  0  0  0  0  0  0  0  0
    0.5730    2.2780    0.5280 C   0  0  0  0  0  0  0  0  0  0  0  0
    1.9860    2.2830    0.6490 C   0  0  0  0  0  0  0  0  0  0  0  0
  2  1  1  1
  2  3  1  0
  2  4  1  0
  4  5  1  0
  5  6  1  0
  6  7  1  0
  7  8  1  0
  8  9  2  0
  8 29  1  0
  9 10  1  0
  9 27  1  0
 10 11  2  0
 11 12  1  0
 12 13  1  0
 12 26  2  0
 13 14  1  0
 14 15  2  0
 14 16  1  0
 16 17  1  0
 17 18  2  0
 19 17  1  6
 19 20  1  0
 19 24  1  0
 20 21  1  0
 21 22  2  0
 21 23  1  0
 23 24  1  0
 24 25  2  0
 26 27  1  0
 27 28  2  0
 28 29  1  0
M  CHG  1   8   1
M  END
