
     RDKit          3D

 29 30  0  0  0  0  0  0  0  0999 V2000
    6.3800   -4.3080    1.1210 C   0  0  0  0  0  0  0  0  0  0  0  0
    6.7510   -3.1030    0.4850 O   0  0  0  0  0  0  0  0  0  0  0  0
    5.8210   -2.0910    0.3650 C   0  0  0  0  0  0  0  0  0  0  0  0
    4.5480   -2.2510    0.8570 C   0  0  0  0  0  0  0  0  0  0  0  0
    3.6180   -1.2030    0.7220 C   0  0  0  0  0  0  0  0  0  0  0  0
    3.9480   -0.0330    0.1140 C   0  0  0  0  0  0  0  0  0  0  0  0
    3.0560    1.0280   -0.0600 N   0  0  0  0  0  0  0  0  0  0  0  0
    1.6570    0.9870    0.1130 C   0  0  0  0  0  0  0  0  0  0  0  0
    1.1090   -0.0610    0.4450 O   0  0  0  0  0  0  0  0  0  0  0  0
    0.8340    2.1320   -0.0840 N   0  0  0  0  0  0  0  0  0  0  0  0
   -0.5560    2.2200    0.0500 C   0  0  0  0  0  0  0  0  0  0  0  0
   -1.1100    3.5020   -0.0380 C   0  0  0  0  0  0  0  0  0  0  0  0
   -2.4620    3.7090    0.0680 C   0  0  0  0  0  0  0  0  0  0  0  0
   -2.9650    5.1130   -0.0380 C   0  0  0  0  0  0  0  0  0  0  0  0
   -3.2980    2.6410    0.2660 C   0  0  0  0  0  0  0  0  0  0  0  0
   -2.7910    1.3490    0.3600 C   0  0  0  0  0  0  0  0  0  0  0  0
   -3.7780    0.2280    0.5520 C   0  0  2  0  0  0  0  0  0  0  0  0
   -3.1250   -1.0590    0.9230 C   0  0  0  0  0  0  0  0  0  0  0  0
   -4.7000    0.2390   -0.5080 N   0  0  0  0  0  0  0  0  0  0  0  0
   -5.8860   -0.4980   -0.4200 C   0  0  0  0  0  0  0  0  0  0  0  0
   -5.8070   -1.9830   -0.4840 C   0  0  0  0  0  0  0  0  0  0  0  0
   -7.4580   -2.6770   -0.3830 S   0  0  2  0  0  0  0  0  0  0  0  0
   -7.5640   -3.6870    0.7220 O   0  0  0  0  0  0  0  0  0  0  0  0
   -7.7040   -3.4070   -1.6720 O   0  0  0  0  0  0  0  0  0  0  0  0
   -1.4360    1.1850    0.2480 C   0  0  0  0  0  0  0  0  0  0  0  0
    5.2570    0.0600   -0.3630 C   0  0  0  0  0  0  0  0  0  0  0  0
    6.1990   -0.9070   -0.2650 C   0  0  0  0  0  0  0  0  0  0  0  0
    7.4960   -0.7950   -0.7460 O   0  0  0  0  0  0  0  0  0  0  0  0
    7.9810    0.3500   -1.3970 C   0  0  0  0  0  0  0  0  0  0  0  0
  1  2  1  0
  2  3  1  0
  3  4  2  0
  3 27  1  0
  4  5  1  0
  5  6  2  0
  6  7  1  0
  6 26  1  0
  7  8  1  0
  8  9  2  0
  8 10  1  0
 10 11  1  0
 11 12  2  0
 11 25  1  0
 12 13  1  0
 13 14  1  0
 13 15  2  0
 15 16  1  0
 16 17  1  0
 16 25  2  0
 17 18  1  6
 17 19  1  0
 19 20  1  0
 20 21  1  0
 22 21  1  6
 22 23  2  0
 22 24  2  0
 26 27  2  0
 27 28  1  0
 28 29  1  0
M  END
