
     RDKit          3D

 29 31  0  0  0  0  0  0  0  0999 V2000
   -4.5830    2.9030    2.4960 C   0  0  0  0  0  0  0  0  0  0  0  0
   -3.4760    1.8650    2.3840 C   0  0  0  0  0  0  0  0  0  0  0  0
   -3.1040    1.6490    0.9490 C   0  0  2  0  0  0  0  0  0  0  0  0
   -4.2250    1.1670    0.0940 C   0  0  0  0  0  0  0  0  0  0  0  0
   -4.8220   -0.1340    0.5070 C   0  0  1  0  0  0  0  0  0  0  0  0
   -5.9450   -0.4480   -0.4890 C   0  0  0  0  0  0  0  0  0  0  0  0
   -5.9270   -1.9330   -0.6890 C   0  0  0  0  0  0  0  0  0  0  0  0
   -4.7990   -2.3510    0.2640 C   0  0  0  0  0  0  0  0  0  0  0  0
   -3.9790   -1.2210    0.2920 O   0  0  0  0  0  0  0  0  0  0  0  0
   -1.9570    0.7490    0.9250 N   0  0  0  0  0  0  0  0  0  0  0  0
   -0.6880    1.1050    0.4630 C   0  0  0  0  0  0  0  0  0  0  0  0
   -0.4790    2.2560    0.0360 O   0  0  0  0  0  0  0  0  0  0  0  0
    0.4500    0.1460    0.4610 C   0  0  0  0  0  0  0  0  0  0  0  0
    0.2710   -1.0180    0.8840 O   0  0  0  0  0  0  0  0  0  0  0  0
    1.7190    0.5250   -0.0080 N   0  0  0  0  0  0  0  0  0  0  0  0
    2.8820   -0.2800   -0.0680 C   0  0  0  0  0  0  0  0  0  0  0  0
    4.0680    0.1740   -0.5380 C   0  0  0  0  0  0  0  0  0  0  0  0
    4.5030    1.4390   -1.0640 C   0  0  0  0  0  0  0  0  0  0  0  0
    3.6850    2.3940   -1.1470 O   0  0  0  0  0  0  0  0  0  0  0  0
    5.8580    1.5810   -1.4800 N   0  0  0  0  0  0  0  0  0  0  0  0
    6.8160    0.5340   -1.4050 C   0  0  0  0  0  0  0  0  0  0  0  0
    6.3100   -0.7380   -0.8580 C   0  0  0  0  0  0  0  0  0  0  0  0
    7.2280   -1.8620   -0.7470 C   0  0  0  0  0  0  0  0  0  0  0  0
    8.5770   -1.7380   -1.1560 N   0  0  0  0  0  0  0  0  0  0  0  0
    6.8680   -2.9870   -0.2870 O   0  0  0  0  0  0  0  0  0  0  0  0
    5.0460   -0.8980   -0.4610 C   0  0  0  0  0  0  0  0  0  0  0  0
    4.3570   -2.0090    0.0850 N   0  0  0  0  0  0  0  0  0  0  0  0
    3.1130   -1.6540    0.3110 C   0  0  0  0  0  0  0  0  0  0  0  0
    2.2170   -2.6110    0.8640 N   0  0  0  0  0  0  0  0  0  0  0  0
  1  2  1  0
  3  2  1  1
  3  4  1  0
  3 10  1  0
  5  4  1  6
  5  6  1  0
  5  9  1  0
  6  7  1  0
  7  8  1  0
  8  9  1  0
 10 11  1  0
 11 12  2  0
 11 13  1  0
 13 14  2  0
 13 15  1  0
 15 16  1  0
 16 17  2  0
 16 28  1  0
 17 18  1  0
 17 26  1  0
 18 19  2  0
 18 20  1  0
 20 21  1  0
 21 22  1  0
 22 23  1  0
 22 26  2  0
 23 24  1  0
 23 25  2  0
 26 27  1  0
 27 28  2  0
 28 29  1  0
M  END
