
     RDKit          3D

 24 26  0  0  0  0  0  0  0  0999 V2000
    5.5330    1.3210   -0.5370 C   0  0  0  0  0  0  0  0  0  0  0  0
    5.1470   -0.1060   -0.3200 C   0  0  0  0  0  0  0  0  0  0  0  0
    3.6750   -0.2780   -0.1370 C   0  0  0  0  0  0  0  0  0  0  0  0
    2.8420   -0.5030   -1.2120 C   0  0  0  0  0  0  0  0  0  0  0  0
    1.4850   -0.6590   -1.0210 C   0  0  0  0  0  0  0  0  0  0  0  0
    0.8970   -0.5990    0.2350 C   0  0  0  0  0  0  0  0  0  0  0  0
   -0.5580   -0.7800    0.3020 C   0  0  1  0  0  0  0  0  0  0  0  0
   -1.1780   -0.4150    1.6140 C   0  0  0  0  0  0  0  0  0  0  0  0
   -2.6180   -0.9470    1.5830 C   0  0  1  0  0  0  0  0  0  0  0  0
   -3.3080   -0.7190    2.8970 C   0  0  2  0  0  0  0  0  0  0  0  0
   -2.5880   -1.3870    3.8670 F   0  0  0  0  0  0  0  0  0  0  0  0
   -4.5550   -1.2680    2.8290 F   0  0  0  0  0  0  0  0  0  0  0  0
   -3.4030    0.6030    3.2320 F   0  0  0  0  0  0  0  0  0  0  0  0
   -3.3200   -0.3370    0.4710 N   0  0  0  0  0  0  0  0  0  0  0  0
   -4.5940   -0.1100    0.2980 N   0  0  0  0  0  0  0  0  0  0  0  0
   -4.8220    0.4830   -0.8930 C   0  0  0  0  0  0  0  0  0  0  0  0
   -3.5950    0.6340   -1.5050 C   0  0  0  0  0  0  0  0  0  0  0  0
   -3.3380    1.2210   -2.8020 C   0  0  0  0  0  0  0  0  0  0  0  0
   -4.2720    1.6590   -3.4990 O   0  0  0  0  0  0  0  0  0  0  0  0
   -2.0450    1.2940   -3.2660 O   0  0  0  0  0  0  0  0  0  0  0  0
   -2.6590    0.1030   -0.6150 C   0  0  0  0  0  0  0  0  0  0  0  0
   -1.2460   -0.0030   -0.7310 N   0  0  0  0  0  0  0  0  0  0  0  0
    1.7240   -0.3750    1.3080 C   0  0  0  0  0  0  0  0  0  0  0  0
    3.1020   -0.2170    1.1130 C   0  0  0  0  0  0  0  0  0  0  0  0
  1  2  1  0
  2  3  1  0
  3  4  2  0
  3 24  1  0
  4  5  1  0
  5  6  2  0
  7  6  1  1
  6 23  1  0
  7  8  1  0
  7 22  1  0
  9  8  1  1
  9 10  1  0
  9 14  1  0
 10 11  1  1
 10 12  1  0
 10 13  1  0
 14 15  1  0
 14 21  1  0
 15 16  2  0
 16 17  1  0
 17 18  1  0
 17 21  2  0
 18 19  2  0
 18 20  1  0
 21 22  1  0
 23 24  2  0
M  END
