
     RDKit          3D

 10 11  0  0  0  0  0  0  0  0999 V2000
   -1.9600   -1.5390   -0.1580 N   0  0  0  0  0  0  0  0  0  0  0  0
   -1.2700   -0.3020   -0.1270 C   0  0  0  0  0  0  0  0  0  0  0  0
   -1.9410    0.9040   -0.2420 C   0  0  0  0  0  0  0  0  0  0  0  0
   -1.2400    2.0530   -0.2070 N   0  0  0  0  0  0  0  0  0  0  0  0
    0.0970    2.0780   -0.0640 C   0  0  0  0  0  0  0  0  0  0  0  0
    0.7850    0.8840    0.0530 C   0  0  0  0  0  0  0  0  0  0  0  0
    2.0850    0.6300    0.2030 N   0  0  0  0  0  0  0  0  0  0  0  0
    2.2620   -0.7000    0.2690 C   0  0  0  0  0  0  0  0  0  0  0  0
    1.0330   -1.3350    0.1590 C   0  0  0  0  0  0  0  0  0  0  0  0
    0.1120   -0.3310    0.0230 C   0  0  0  0  0  0  0  0  0  0  0  0
  1  2  1  0
  2  3  2  0
  2 10  1  0
  3  4  1  0
  4  5  2  0
  5  6  1  0
  6  7  1  0
  6 10  2  0
  7  8  1  0
  8  9  2  0
  9 10  1  0
M  END
