
     RDKit          3D

 36 37  0  0  0  0  0  0  0  0999 V2000
   -7.5620    0.9120   -0.5720 C   0  0  0  0  0  0  0  0  0  0  0  0
   -6.3420    0.4240   -1.1020 O   0  0  0  0  0  0  0  0  0  0  0  0
   -5.1780    0.7510   -0.4050 C   0  0  0  0  0  0  0  0  0  0  0  0
   -4.0980   -0.0360   -0.5440 C   0  0  0  0  0  0  0  0  0  0  0  0
   -2.8900    0.5680   -0.2700 O   0  0  0  0  0  0  0  0  0  0  0  0
   -2.7170    1.5700    0.6820 C   0  0  2  0  0  0  0  0  0  0  0  0
   -1.5930    1.2570    1.6450 C   0  0  0  0  0  0  0  0  0  0  0  0
   -1.2760   -0.2180    1.5390 C   0  0  0  0  0  0  0  0  0  0  0  0
   -1.1500   -0.5610    0.2230 O   0  0  0  0  0  0  0  0  0  0  0  0
    0.0700   -0.1650   -0.3510 C   0  0  0  0  0  0  0  0  0  0  0  0
    0.8360   -1.3590   -0.8580 C   0  0  2  0  0  0  0  0  0  0  0  0
    2.1880   -0.9470   -1.3370 C   0  0  0  0  0  0  0  0  0  0  0  0
    3.0860   -0.3350   -0.4210 N   0  0  0  0  0  0  0  0  0  0  0  0
    3.0670    1.0630   -0.2850 C   0  0  0  0  0  0  0  0  0  0  0  0
    2.2810    1.7320   -1.0450 O   0  0  0  0  0  0  0  0  0  0  0  0
    3.8250    1.8430    0.6100 N   0  0  0  0  0  0  0  0  0  0  0  0
    3.6520    3.3000    0.5840 C   0  0  0  0  0  0  0  0  0  0  0  0
    3.9780    3.7980   -0.6790 O   0  0  0  0  0  0  0  0  0  0  0  0
    3.8430    5.0830   -0.7580 O   0  0  0  0  0  0  0  0  0  0  0  0
    4.7720    5.7360   -0.0880 O   0  0  0  0  0  0  0  0  0  0  0  0
    4.0520   -1.1120    0.2610 C   0  0  0  0  0  0  0  0  0  0  0  0
    4.8690   -0.6150    1.1090 O   0  0  0  0  0  0  0  0  0  0  0  0
    4.2430   -2.5930    0.0670 C   0  0  2  0  0  0  0  0  0  0  0  0
    3.1920   -3.3160    0.9130 C   0  0  0  0  0  0  0  0  0  0  0  0
    5.4620   -2.9780    0.6740 O   0  0  0  0  0  0  0  0  0  0  0  0
    6.2520   -3.5880   -0.1830 O   0  0  0  0  0  0  0  0  0  0  0  0
    6.7850   -2.8080   -1.0690 O   0  0  0  0  0  0  0  0  0  0  0  0
    0.1410   -2.0220   -1.9470 N   0  0  0  0  0  0  0  0  0  0  0  0
   -0.9560   -2.9220   -1.8270 C   0  0  0  0  0  0  0  0  0  0  0  0
   -0.7940   -4.0700   -2.4240 O   0  0  0  0  0  0  0  0  0  0  0  0
   -2.1010   -2.6040   -1.1320 O   0  0  0  0  0  0  0  0  0  0  0  0
   -3.1920   -1.9710   -1.6380 O   0  0  0  0  0  0  0  0  0  0  0  0
   -4.2450   -1.4380   -0.9620 C   0  0  0  0  0  0  0  0  0  0  0  0
   -5.3470   -2.0150   -0.6480 N   0  0  0  0  0  0  0  0  0  0  0  0
   -4.0000    1.8780    1.4330 C   0  0  0  0  0  0  0  0  0  0  0  0
   -5.0860    1.8960    0.4560 N   0  0  0  0  0  0  0  0  0  0  0  0
  1  2  1  0
  2  3  1  0
  3  4  2  0
  3 36  1  0
  4  5  1  0
  4 33  1  0
  5  6  1  0
  6  7  1  1
  6 35  1  0
  7  8  1  0
  8  9  1  0
  9 10  1  0
 10 11  1  0
 11 12  1  6
 11 28  1  0
 12 13  1  0
 13 14  1  0
 13 21  1  0
 14 15  2  0
 14 16  1  0
 16 17  1  0
 17 18  1  0
 18 19  1  0
 19 20  1  0
 21 22  2  0
 21 23  1  0
 23 24  1  1
 23 25  1  0
 25 26  1  0
 26 27  1  0
 28 29  1  0
 29 30  2  0
 29 31  1  0
 31 32  1  0
 32 33  1  0
 33 34  2  0
 35 36  1  0
M  END
