
     RDKit          3D

 33 34  0  0  0  0  0  0  0  0999 V2000
   -5.8320   -0.1080   -2.4760 O   0  0  0  0  0  0  0  0  0  0  0  0
   -4.2980   -0.2910   -2.7110 P   0  0  0  0  0  0  0  0  0  0  0  0
   -3.3970   -1.1130   -1.4980 O   0  0  0  0  0  0  0  0  0  0  0  0
   -2.2160   -0.6750   -1.2960 O   0  0  0  0  0  0  0  0  0  0  0  0
   -2.0460    0.6860   -1.2680 C   0  0  1  0  0  0  0  0  0  0  0  0
   -1.5970    1.2200   -0.0870 O   0  0  0  0  0  0  0  0  0  0  0  0
   -1.0630    0.2840    0.8200 C   0  0  1  0  0  0  0  0  0  0  0  0
   -0.6500    1.0950    2.0310 C   0  0  0  0  0  0  0  0  0  0  0  0
   -1.5930    1.1510    3.0240 O   0  0  0  0  0  0  0  0  0  0  0  0
   -2.7640    0.9150    2.5250 O   0  0  0  0  0  0  0  0  0  0  0  0
   -2.8040   -0.4250    2.1310 C   0  0  1  0  0  0  0  0  0  0  0  0
   -2.3670   -1.1540    3.2620 O   0  0  0  0  0  0  0  0  0  0  0  0
   -4.1340   -0.7590    1.9570 O   0  0  0  0  0  0  0  0  0  0  0  0
   -4.7620   -0.0560    1.0630 O   0  0  0  0  0  0  0  0  0  0  0  0
   -1.9770   -0.7000    1.0770 O   0  0  0  0  0  0  0  0  0  0  0  0
    0.2060   -0.2040    0.2020 C   0  0  0  0  0  0  0  0  0  0  0  0
    0.9140   -1.1440    0.9520 O   0  0  0  0  0  0  0  0  0  0  0  0
    2.3320   -1.4170   -0.0600 P   0  0  0  0  0  0  0  0  0  0  0  0
    3.6680   -1.9520    0.8640 O   0  0  0  0  0  0  0  0  0  0  0  0
    4.8410   -0.7220    1.1480 P   0  0  0  0  0  0  0  0  0  0  0  0
    4.4460    0.3010    2.4630 O   0  0  0  0  0  0  0  0  0  0  0  0
    5.5310    0.8460    2.9560 O   0  0  0  0  0  0  0  0  0  0  0  0
    6.6090    0.2510    2.5090 O   0  0  0  0  0  0  0  0  0  0  0  0
    5.3770    0.3730   -0.6610 P   0  0  0  0  0  0  0  0  0  0  0  0
    6.5990   -0.0560   -1.5250 O   0  0  0  0  0  0  0  0  0  0  0  0
    2.7060    0.0250   -0.9890 O   0  0  0  0  0  0  0  0  0  0  0  0
    1.9460    0.1160   -2.4700 P   0  0  0  0  0  0  0  0  0  0  0  0
    2.3150   -1.0500   -3.6320 O   0  0  0  0  0  0  0  0  0  0  0  0
    0.9760    1.3860   -2.8760 O   0  0  0  0  0  0  0  0  0  0  0  0
   -0.0340    1.7140   -2.1620 O   0  0  0  0  0  0  0  0  0  0  0  0
   -1.2450    1.1740   -2.4860 C   0  0  1  0  0  0  0  0  0  0  0  0
   -1.0200   -0.2370   -3.7060 P   0  0  0  0  0  0  0  0  0  0  0  0
   -1.0670   -1.6940   -3.1700 O   0  0  0  0  0  0  0  0  0  0  0  0
  1  2  2  0
  2  3  1  0
  3  4  1  0
  5  4  1  1
  5  6  1  0
  5 31  1  0
  6  7  1  0
  7  8  1  1
  7 15  1  0
  7 16  1  0
  8  9  1  0
  9 10  1  0
 10 11  1  0
 11 12  1  1
 11 13  1  0
 11 15  1  0
 13 14  1  0
 16 17  1  0
 17 18  1  0
 18 19  1  0
 18 26  1  0
 19 20  1  0
 20 21  1  0
 20 24  1  0
 21 22  1  0
 22 23  1  0
 24 25  2  0
 26 27  1  0
 27 28  1  0
 27 29  1  0
 29 30  1  0
 30 31  1  0
 31 32  1  6
 32 33  2  0
M  END
