
     RDKit          3D

 33 35  0  0  0  0  0  0  0  0999 V2000
   -6.4110    1.4280    0.7980 O   0  0  0  0  0  0  0  0  0  0  0  0
   -6.0950    0.2100    0.6730 C   0  0  0  0  0  0  0  0  0  0  0  0
   -6.9680   -0.8150    1.0400 O   0  0  0  0  0  0  0  0  0  0  0  0
   -4.8290   -0.0560    0.1500 O   0  0  0  0  0  0  0  0  0  0  0  0
   -3.9600    0.9950   -0.2150 C   0  0  1  0  0  0  0  0  0  0  0  0
   -2.7810    0.8420    0.4840 O   0  0  0  0  0  0  0  0  0  0  0  0
   -1.8650    0.1890   -0.3110 C   0  0  2  0  0  0  0  0  0  0  0  0
   -2.4200    0.0420   -1.6010 O   0  0  0  0  0  0  0  0  0  0  0  0
   -3.5270    0.9120   -1.6230 C   0  0  0  0  0  0  0  0  0  0  0  0
   -4.0100    1.4770   -2.6530 O   0  0  0  0  0  0  0  0  0  0  0  0
   -1.6310   -1.0630    0.2620 O   0  0  0  0  0  0  0  0  0  0  0  0
   -1.1260   -2.2420   -0.8730 P   0  0  0  0  0  0  0  0  0  0  0  0
   -2.2630   -3.5780   -0.8640 O   0  0  0  0  0  0  0  0  0  0  0  0
    0.8550   -3.0660   -0.4350 P   0  0  0  0  0  0  0  0  0  0  0  0
    0.7620   -4.4800    0.5710 O   0  0  0  0  0  0  0  0  0  0  0  0
    1.9070   -1.8730    0.2490 O   0  0  0  0  0  0  0  0  0  0  0  0
    3.5160   -2.1530   -0.2750 P   0  0  0  0  0  0  0  0  0  0  0  0
    4.0110   -3.8060   -0.0650 O   0  0  0  0  0  0  0  0  0  0  0  0
    3.7880   -1.7170   -1.9180 O   0  0  0  0  0  0  0  0  0  0  0  0
    4.2330   -0.0480   -2.0370 P   0  0  0  0  0  0  0  0  0  0  0  0
    5.6370    0.2480   -1.0610 O   0  0  0  0  0  0  0  0  0  0  0  0
    5.3320    1.6650   -0.1020 P   0  0  0  0  0  0  0  0  0  0  0  0
    5.7830    1.4230    1.5570 O   0  0  0  0  0  0  0  0  0  0  0  0
    6.0910    3.0660   -0.7680 O   0  0  0  0  0  0  0  0  0  0  0  0
    2.5250    1.1630   -1.3530 P   0  0  0  0  0  0  0  0  0  0  0  0
    2.7680    1.5100    0.3290 O   0  0  0  0  0  0  0  0  0  0  0  0
    1.0760    0.2390   -1.5950 O   0  0  0  0  0  0  0  0  0  0  0  0
    0.0330    1.0070   -1.5450 O   0  0  0  0  0  0  0  0  0  0  0  0
   -0.6040    1.0290   -0.3330 C   0  0  1  0  0  0  0  0  0  0  0  0
   -0.8830    2.3740   -0.0290 O   0  0  0  0  0  0  0  0  0  0  0  0
   -0.8610    2.3870    1.3680 C   0  0  0  0  0  0  0  0  0  0  0  0
   -0.5240    1.0880    1.7660 O   0  0  0  0  0  0  0  0  0  0  0  0
    0.1720    0.6480    0.7400 O   0  0  0  0  0  0  0  0  0  0  0  0
  1  2  2  0
  2  3  1  0
  2  4  1  0
  5  4  1  1
  5  6  1  0
  5  9  1  0
  7  6  1  1
  7  8  1  0
  7 11  1  0
  7 29  1  0
  8  9  1  0
  9 10  2  0
 11 12  1  0
 12 13  1  0
 12 14  1  0
 14 15  1  0
 14 16  1  0
 16 17  1  0
 17 18  1  0
 17 19  1  0
 19 20  1  0
 20 21  1  0
 20 25  1  0
 21 22  1  0
 22 23  1  0
 22 24  1  0
 25 26  1  0
 25 27  1  0
 27 28  1  0
 29 28  1  6
 29 30  1  0
 29 33  1  0
 30 31  1  0
 31 32  1  0
 32 33  1  0
M  END
