
     RDKit          3D

 24 26  0  0  0  0  0  0  0  0999 V2000
    7.6300   -1.1540   -1.4850 C   0  0  0  0  0  0  0  0  0  0  0  0
    6.3960   -1.2220   -0.6810 C   0  0  0  0  0  0  0  0  0  0  0  0
    5.4680   -0.3150   -0.8340 C   0  0  0  0  0  0  0  0  0  0  0  0
    4.2260   -0.3760   -0.0310 C   0  0  0  0  0  0  0  0  0  0  0  0
    4.0970   -1.3970    0.8400 F   0  0  0  0  0  0  0  0  0  0  0  0
    3.2870    0.5280   -0.1770 C   0  0  0  0  0  0  0  0  0  0  0  0
    2.0630    0.5120    0.5820 C   0  0  0  0  0  0  0  0  0  0  0  0
    0.8610    0.7550   -0.0800 C   0  0  0  0  0  0  0  0  0  0  0  0
   -0.3250    0.7640    0.6010 C   0  0  0  0  0  0  0  0  0  0  0  0
   -1.5480    1.0430   -0.2080 C   0  0  0  0  0  0  0  0  0  0  0  0
   -1.8460   -0.0320   -1.0960 N   0  0  0  0  0  0  0  0  0  0  0  0
   -2.0920   -1.2780   -0.4580 C   0  0  0  0  0  0  0  0  0  0  0  0
   -3.5320   -1.6120   -0.2060 C   0  0  0  0  0  0  0  0  0  0  0  0
   -4.4590   -0.5070   -0.6010 C   0  0  0  0  0  0  0  0  0  0  0  0
   -5.6580   -0.2520   -0.1720 C   0  0  0  0  0  0  0  0  0  0  0  0
   -6.1720    0.9470   -0.8610 C   0  0  0  0  0  0  0  0  0  0  0  0
   -5.0720    1.3460   -1.7590 C   0  0  0  0  0  0  0  0  0  0  0  0
   -4.0860    0.4870   -1.5930 C   0  0  0  0  0  0  0  0  0  0  0  0
   -2.7110    0.3160   -2.1760 C   0  0  0  0  0  0  0  0  0  0  0  0
   -0.3510    0.5350    1.9420 C   0  0  0  0  0  0  0  0  0  0  0  0
    0.7920    0.2980    2.6080 N   0  0  0  0  0  0  0  0  0  0  0  0
    0.8350    0.0510    4.0410 C   0  0  0  0  0  0  0  0  0  0  0  0
    1.9820    0.2880    1.9360 C   0  0  0  0  0  0  0  0  0  0  0  0
    3.0440    0.0630    2.5930 O   0  0  0  0  0  0  0  0  0  0  0  0
  1  2  1  0
  2  3  2  3
  3  4  1  0
  4  5  1  0
  4  6  2  3
  6  7  1  0
  7  8  2  0
  7 23  1  0
  8  9  1  0
  9 10  1  0
  9 20  2  0
 10 11  1  0
 11 12  1  0
 11 19  1  0
 12 13  1  0
 13 14  1  0
 14 15  2  0
 14 18  1  0
 15 16  1  0
 16 17  1  0
 17 18  2  0
 18 19  1  0
 20 21  1  0
 21 22  1  0
 21 23  1  0
 23 24  2  0
M  END
