
     RDKit          3D

 27 28  0  0  0  0  0  0  0  0999 V2000
    0.3420   -1.7820   -1.6810 O   0  0  0  0  0  0  0  0  0  0  0  0
    0.8060   -1.0070   -2.7140 C   0  0  0  0  0  0  0  0  0  0  0  0
    1.6270    0.1350   -2.2180 C   0  0  1  0  0  0  0  0  0  0  0  0
    0.9780    1.0190   -1.4280 O   0  0  0  0  0  0  0  0  0  0  0  0
    0.4970    0.5150   -0.2540 C   0  0  1  0  0  0  0  0  0  0  0  0
   -0.7890    0.0820   -0.4050 O   0  0  0  0  0  0  0  0  0  0  0  0
   -1.7900    0.8000    0.1450 C   0  0  2  0  0  0  0  0  0  0  0  0
   -2.5150   -0.0590    1.1620 C   0  0  1  0  0  0  0  0  0  0  0  0
   -1.6900   -0.1780    2.4280 C   0  0  0  0  0  0  0  0  0  0  0  0
   -1.4400    1.0620    3.0030 O   0  0  0  0  0  0  0  0  0  0  0  0
   -3.7210    0.5480    1.5640 O   0  0  0  0  0  0  0  0  0  0  0  0
   -4.6020    0.4140    0.4980 C   0  0  1  0  0  0  0  0  0  0  0  0
   -5.8820    0.8030    0.8880 O   0  0  0  0  0  0  0  0  0  0  0  0
   -4.1400    1.3830   -0.5610 C   0  0  2  0  0  0  0  0  0  0  0  0
   -4.9680    1.2660   -1.6810 O   0  0  0  0  0  0  0  0  0  0  0  0
   -2.7360    1.1880   -0.9890 C   0  0  1  0  0  0  0  0  0  0  0  0
   -2.3110    2.3720   -1.6080 O   0  0  0  0  0  0  0  0  0  0  0  0
    1.4340   -0.3090    0.5300 C   0  0  2  0  0  0  0  0  0  0  0  0
    1.6580    0.3310    1.7800 O   0  0  0  0  0  0  0  0  0  0  0  0
    2.7840   -0.4440   -0.0980 C   0  0  1  0  0  0  0  0  0  0  0  0
    3.3490   -1.6940    0.2690 O   0  0  0  0  0  0  0  0  0  0  0  0
    4.7250   -1.5580    1.1540 S   0  0  1  0  0  0  0  0  0  0  0  0
    4.1780   -0.3940    2.4060 O   0  0  0  0  0  0  0  0  0  0  0  0
    5.1520   -2.8110    1.9180 O   0  0  0  0  0  0  0  0  0  0  0  0
    5.8770   -0.8180    0.3680 O   0  0  0  0  0  0  0  0  0  0  0  0
    2.8820   -0.3510   -1.5550 C   0  0  1  0  0  0  0  0  0  0  0  0
    3.1470   -1.6160   -2.1560 O   0  0  0  0  0  0  0  0  0  0  0  0
  1  2  1  0
  3  2  1  1
  3  4  1  0
  3 26  1  0
  4  5  1  0
  5  6  1  6
  5 18  1  0
  7  6  1  6
  7  8  1  0
  7 16  1  0
  8  9  1  1
  8 11  1  0
  9 10  1  0
 11 12  1  0
 12 13  1  1
 12 14  1  0
 14 15  1  6
 14 16  1  0
 16 17  1  1
 18 19  1  1
 18 20  1  0
 20 21  1  6
 20 26  1  0
 21 22  1  0
 22 23  1  1
 22 24  1  0
 22 25  1  0
 26 27  1  6
M  END
