
     RDKit          3D

 20 21  0  0  0  0  0  0  0  0999 V2000
    5.8660    0.1270    0.0990 C   0  0  0  0  0  0  0  0  0  0  0  0
    4.4630   -0.1500    0.4020 N   0  0  0  0  0  0  0  0  0  0  0  0
    3.4550   -0.0540   -0.6030 C   0  0  0  0  0  0  0  0  0  0  0  0
    3.7920   -0.1440   -1.8480 N   0  0  0  0  0  0  0  0  0  0  0  0
    2.1010    0.1380   -0.2640 N   0  0  0  0  0  0  0  0  0  0  0  0
    1.3770   -0.6550    0.7260 C   0  0  0  0  0  0  0  0  0  0  0  0
    0.3150    0.2780    1.2730 C   0  0  0  0  0  0  0  0  0  0  0  0
   -0.7240    0.5560    0.3240 N   0  0  0  0  0  0  0  0  0  0  0  0
   -1.6870   -0.5290    0.2910 C   0  0  1  0  0  0  0  0  0  0  0  0
   -2.2990   -0.6050    1.6650 C   0  0  0  0  0  0  0  0  0  0  0  0
   -3.6930   -1.6910    1.3140 S   0  0  2  0  0  0  0  0  0  0  0  0
   -4.8030   -1.4730    2.2850 O   0  0  0  0  0  0  0  0  0  0  0  0
   -3.2480   -3.1190    1.2350 O   0  0  0  0  0  0  0  0  0  0  0  0
   -4.0340   -1.0160   -0.2920 C   0  0  0  0  0  0  0  0  0  0  0  0
   -2.6970   -0.5030   -0.7440 C   0  0  1  0  0  0  0  0  0  0  0  0
   -2.9520    0.7920   -1.4290 C   0  0  0  0  0  0  0  0  0  0  0  0
   -3.3440    1.9170   -0.6760 N   0  0  0  0  0  0  0  0  0  0  0  0
   -2.8410    0.9650   -2.6780 O   0  0  0  0  0  0  0  0  0  0  0  0
   -0.1250    0.8390   -0.9580 C   0  0  0  0  0  0  0  0  0  0  0  0
    1.3360    1.1790   -0.9070 C   0  0  0  0  0  0  0  0  0  0  0  0
  1  2  1  0
  2  3  1  0
  3  4  2  0
  3  5  1  0
  5  6  1  0
  5 20  1  0
  6  7  1  0
  7  8  1  0
  9  8  1  1
  8 19  1  0
  9 10  1  0
  9 15  1  0
 11 10  1  1
 11 12  2  0
 11 13  2  0
 11 14  1  0
 14 15  1  0
 15 16  1  1
 16 17  1  0
 16 18  2  0
 19 20  1  0
M  END
