
     RDKit          3D

 20 21  0  0  0  0  0  0  0  0999 V2000
   -1.2740   -0.5020    2.2790 C   0  0  0  0  0  0  0  0  0  0  0  0
   -2.0510    0.0700    1.1170 C   0  0  0  0  0  0  0  0  0  0  0  0
   -3.3140   -0.0670    1.2140 N   0  0  0  0  0  0  0  0  0  0  0  0
   -4.2880    0.3660    0.2870 C   0  0  0  0  0  0  0  0  0  0  0  0
   -5.8860    0.1630    0.4660 S   0  0  0  0  0  0  0  0  0  0  0  0
   -3.7880    1.0190   -0.8690 N   0  0  0  0  0  0  0  0  0  0  0  0
   -2.3990    1.1880   -1.0140 C   0  0  0  0  0  0  0  0  0  0  0  0
   -1.9630    1.7860   -2.0870 O   0  0  0  0  0  0  0  0  0  0  0  0
   -1.4500    0.7200   -0.0090 C   0  0  2  0  0  0  0  0  0  0  0  0
   -0.2750    0.0170   -0.6320 C   0  0  1  0  0  0  0  0  0  0  0  0
   -0.5280   -1.3600   -1.1140 C   0  0  0  0  0  0  0  0  0  0  0  0
    0.0370    0.8180   -1.8450 N   0  0  0  0  0  0  0  0  0  0  0  0
    1.1110    0.2820   -2.5230 N   0  0  0  0  0  0  0  0  0  0  0  0
    2.2890   -0.0730   -1.8330 C   0  0  0  0  0  0  0  0  0  0  0  0
    3.3870   -0.3360   -2.4160 O   0  0  0  0  0  0  0  0  0  0  0  0
    2.1960   -0.1290   -0.3520 C   0  0  0  0  0  0  0  0  0  0  0  0
    3.2580   -0.4510    0.3310 C   0  0  0  0  0  0  0  0  0  0  0  0
    3.2310   -0.5260    1.8070 C   0  0  0  0  0  0  0  0  0  0  0  0
    4.1720    0.4010    2.3040 O   0  0  0  0  0  0  0  0  0  0  0  0
    0.9060    0.1890    0.1890 N   0  0  0  0  0  0  0  0  0  0  0  0
  1  2  1  0
  2  3  2  0
  9  2  1  1
  3  4  1  0
  4  5  2  0
  4  6  1  0
  6  7  1  0
  7  8  2  0
  7  9  1  0
  9 10  1  0
 10 11  1  6
 10 12  1  0
 10 20  1  0
 12 13  1  0
 13 14  1  0
 14 15  2  0
 14 16  1  0
 16 17  2  3
 16 20  1  0
 17 18  1  0
 18 19  1  0
M  END
