
     RDKit          3D

 20 21  0  0  0  0  0  0  0  0999 V2000
   -4.4770    1.4390    0.6630 C   0  0  0  0  0  0  0  0  0  0  0  0
   -3.8910    0.0860    0.2960 C   0  0  2  0  0  0  0  0  0  0  0  0
   -3.6090   -0.8700    1.4450 C   0  0  0  0  0  0  0  0  0  0  0  0
   -2.4940   -0.2190    0.7050 C   0  0  1  0  0  0  0  0  0  0  0  0
   -1.6650   -1.0850   -0.0920 N   0  0  0  0  0  0  0  0  0  0  0  0
   -1.3310   -0.8010   -1.4520 C   0  0  0  0  0  0  0  0  0  0  0  0
   -2.2770   -0.9900   -2.4940 N   0  0  0  0  0  0  0  0  0  0  0  0
   -0.1320   -0.3590   -1.7440 C   0  0  0  0  0  0  0  0  0  0  0  0
    0.8890   -0.1440   -0.7070 C   0  0  0  0  0  0  0  0  0  0  0  0
    0.5150   -0.4200    0.4860 N   0  0  0  0  0  0  0  0  0  0  0  0
    1.6030   -0.2160    1.7900 S   0  0  1  0  0  0  0  0  0  0  0  0
    1.0350    0.7220    2.8140 O   0  0  0  0  0  0  0  0  0  0  0  0
    1.8530   -1.5750    2.4060 O   0  0  0  0  0  0  0  0  0  0  0  0
    3.1130    0.3760    1.1390 C   0  0  0  0  0  0  0  0  0  0  0  0
    4.2350    0.6460    2.0130 C   0  0  0  0  0  0  0  0  0  0  0  0
    5.4640    1.1280    1.4860 N   0  0  0  0  0  0  0  0  0  0  0  0
    4.1450    0.4620    3.2400 O   0  0  0  0  0  0  0  0  0  0  0  0
    3.2150    0.5740   -0.1640 C   0  0  0  0  0  0  0  0  0  0  0  0
    2.1650    0.3350   -1.0880 N   0  0  0  0  0  0  0  0  0  0  0  0
    2.3990    0.5940   -2.5200 C   0  0  0  0  0  0  0  0  0  0  0  0
  2  1  1  1
  2  3  1  0
  2  4  1  0
  3  4  1  0
  4  5  1  6
  5  6  1  0
  6  7  1  0
  6  8  2  3
  8  9  1  0
  9 10  2  0
  9 19  1  0
 11 10  1  6
 11 12  2  0
 11 13  2  0
 11 14  1  0
 14 15  1  0
 14 18  2  0
 15 16  1  0
 15 17  2  0
 18 19  1  0
 19 20  1  0
M  END
