
     RDKit          3D

 24 26  0  0  0  0  0  0  0  0999 V2000
   -1.4420    1.1680   -2.3730 C   0  0  0  0  0  0  0  0  0  0  0  0
   -2.4690    0.8420   -1.3510 C   0  0  0  0  0  0  0  0  0  0  0  0
   -3.6790    1.3020   -1.6850 C   0  0  0  0  0  0  0  0  0  0  0  0
   -4.9800    1.2270   -1.0080 C   0  0  0  0  0  0  0  0  0  0  0  0
   -5.3860    1.0380    0.2470 C   0  0  0  0  0  0  0  0  0  0  0  0
   -4.6580    0.8250    1.4740 C   0  0  0  0  0  0  0  0  0  0  0  0
   -5.3910    1.1530    2.5620 F   0  0  0  0  0  0  0  0  0  0  0  0
   -3.4520    0.3900    1.8400 C   0  0  0  0  0  0  0  0  0  0  0  0
   -2.3310   -0.0690    1.0410 C   0  0  0  0  0  0  0  0  0  0  0  0
   -1.9260    0.0970   -0.2170 C   0  0  0  0  0  0  0  0  0  0  0  0
   -0.6930   -0.6030   -0.5320 C   0  0  0  0  0  0  0  0  0  0  0  0
   -0.1290   -1.2910    0.4000 N   0  0  0  0  0  0  0  0  0  0  0  0
    1.0760   -1.9730    0.0850 C   0  0  0  0  0  0  0  0  0  0  0  0
    0.9800   -3.2550   -0.4080 C   0  0  0  0  0  0  0  0  0  0  0  0
    2.0900   -3.9760   -0.7360 C   0  0  0  0  0  0  0  0  0  0  0  0
    3.3270   -3.3740   -0.5570 C   0  0  0  0  0  0  0  0  0  0  0  0
    3.4160   -2.0970   -0.0650 C   0  0  0  0  0  0  0  0  0  0  0  0
    2.2930   -1.3520    0.2730 C   0  0  0  0  0  0  0  0  0  0  0  0
    2.3650   -0.0400    0.7810 N   0  0  0  0  0  0  0  0  0  0  0  0
    1.8520    0.2660    2.0960 C   0  0  0  0  0  0  0  0  0  0  0  0
    2.1210    1.6970    2.4890 C   0  0  0  0  0  0  0  0  0  0  0  0
    3.3310    2.1910    2.1240 O   0  0  0  0  0  0  0  0  0  0  0  0
    3.8920    1.7590    0.9650 C   0  0  0  0  0  0  0  0  0  0  0  0
    2.9440    1.0630    0.0440 C   0  0  0  0  0  0  0  0  0  0  0  0
  1  2  1  0
  2  3  2  0
  2 10  1  0
  3  4  1  0
  4  5  2  0
  5  6  1  0
  6  7  1  0
  6  8  2  0
  8  9  1  0
  9 10  2  0
 10 11  1  0
 11 12  2  3
 12 13  1  0
 13 14  2  0
 13 18  1  0
 14 15  1  0
 15 16  2  0
 16 17  1  0
 17 18  2  0
 18 19  1  0
 19 20  1  0
 19 24  1  0
 20 21  1  0
 21 22  1  0
 22 23  1  0
 23 24  1  0
M  END
