
     RDKit          3D

 32 35  0  0  0  0  0  0  0  0999 V2000
    7.7730   -1.9830   -0.9990 C   0  0  0  0  0  0  0  0  0  0  0  0
    7.3310   -0.5420   -0.9080 C   0  0  0  0  0  0  0  0  0  0  0  0
    8.1980    0.4010   -0.3690 C   0  0  0  0  0  0  0  0  0  0  0  0
    7.7330    1.7070   -0.3050 C   0  0  0  0  0  0  0  0  0  0  0  0
    8.5730    2.6660    0.2250 O   0  0  0  0  0  0  0  0  0  0  0  0
    6.4780    2.0880   -0.7440 C   0  0  0  0  0  0  0  0  0  0  0  0
    5.6650    1.1190   -1.2650 C   0  0  0  0  0  0  0  0  0  0  0  0
    4.2780    1.4670   -1.7210 C   0  0  0  0  0  0  0  0  0  0  0  0
    3.4030    0.5670   -0.9630 N   0  0  0  0  0  0  0  0  0  0  0  0
    2.0360    0.8490   -0.7680 C   0  0  0  0  0  0  0  0  0  0  0  0
    1.4920    1.8780   -1.2330 O   0  0  0  0  0  0  0  0  0  0  0  0
    1.2340   -0.1180    0.0220 C   0  0  0  0  0  0  0  0  0  0  0  0
    1.5970   -1.4450   -0.0470 C   0  0  0  0  0  0  0  0  0  0  0  0
    0.9050   -2.3710    0.7320 C   0  0  0  0  0  0  0  0  0  0  0  0
    1.3250   -3.8090    0.6050 C   0  0  0  0  0  0  0  0  0  0  0  0
   -0.0930   -1.9690    1.5290 N   0  0  0  0  0  0  0  0  0  0  0  0
   -0.4830   -0.6780    1.6260 C   0  0  0  0  0  0  0  0  0  0  0  0
   -1.5510   -0.2460    2.5490 C   0  0  0  0  0  0  0  0  0  0  0  0
   -3.2050   -0.4160    1.9440 S   0  0  0  0  0  0  0  0  0  0  0  0
   -3.6010    0.6290    0.5270 C   0  0  0  0  0  0  0  0  0  0  0  0
   -5.0340    0.5850    0.2050 C   0  0  0  0  0  0  0  0  0  0  0  0
   -5.6720   -0.2440   -0.6060 N   0  0  0  0  0  0  0  0  0  0  0  0
   -7.0150    0.0350   -0.6240 C   0  0  0  0  0  0  0  0  0  0  0  0
   -7.1580    1.0830    0.2240 C   0  0  0  0  0  0  0  0  0  0  0  0
   -5.9520    1.4210    0.7290 N   0  0  0  0  0  0  0  0  0  0  0  0
   -8.5090    1.5810    0.4450 C   0  0  0  0  0  0  0  0  0  0  0  0
   -8.6990    2.9470    1.5450 Cl  0  0  0  0  0  0  0  0  0  0  0  0
   -9.5270    1.0270   -0.1500 C   0  0  0  0  0  0  0  0  0  0  0  0
   -9.4120   -0.0570   -1.0180 N   0  0  0  0  0  0  0  0  0  0  0  0
   -8.1340   -0.5440   -1.3560 C   0  0  0  0  0  0  0  0  0  0  0  0
    0.2050    0.2410    0.8510 C   0  0  0  0  0  0  0  0  0  0  0  0
    6.0790   -0.1930   -1.3510 C   0  0  0  0  0  0  0  0  0  0  0  0
  1  2  1  0
  2  3  2  0
  2 32  1  0
  3  4  1  0
  4  5  1  0
  4  6  2  0
  6  7  1  0
  7  8  1  0
  7 32  2  0
  8  9  1  0
  9 10  1  0
 10 11  2  0
 10 12  1  0
 12 13  2  0
 12 31  1  0
 13 14  1  0
 14 15  1  0
 14 16  2  0
 16 17  1  0
 17 18  1  0
 17 31  2  0
 18 19  1  0
 19 20  1  0
 20 21  1  0
 21 22  2  0
 21 25  1  0
 22 23  1  0
 23 24  2  0
 23 30  1  0
 24 25  1  0
 24 26  1  0
 26 27  1  0
 26 28  2  0
 28 29  1  0
 29 30  1  0
M  CHG  1  29   1
M  END
