
     RDKit          3D

 32 35  0  0  0  0  0  0  0  0999 V2000
    1.7490   -1.9950    2.9170 C   0  0  0  0  0  0  0  0  0  0  0  0
    3.0810   -0.9820    2.6180 S   0  0  0  0  0  0  0  0  0  0  0  0
    3.8730   -0.6680    3.9030 O   0  0  0  0  0  0  0  0  0  0  0  0
    2.9710    0.5130    1.7050 C   0  0  0  0  0  0  0  0  0  0  0  0
    2.4480    0.3900    0.3220 C   0  0  0  0  0  0  0  0  0  0  0  0
    1.1850   -0.0720    0.0710 C   0  0  0  0  0  0  0  0  0  0  0  0
    0.5580   -0.0830   -1.1730 C   0  0  0  0  0  0  0  0  0  0  0  0
   -0.6770   -0.2840   -1.4150 N   0  0  0  0  0  0  0  0  0  0  0  0
   -1.7290   -0.5320   -0.4790 C   0  0  0  0  0  0  0  0  0  0  0  0
   -2.2390    0.6500   -0.0650 C   0  0  0  0  0  0  0  0  0  0  0  0
   -3.3020    0.7270    0.9050 C   0  0  0  0  0  0  0  0  0  0  0  0
   -3.1720    1.1760    2.1980 C   0  0  0  0  0  0  0  0  0  0  0  0
   -4.2400    1.3780    3.0160 C   0  0  0  0  0  0  0  0  0  0  0  0
   -5.5470    1.1350    2.5750 C   0  0  0  0  0  0  0  0  0  0  0  0
   -6.9530    1.3630    3.5770 Cl  0  0  0  0  0  0  0  0  0  0  0  0
   -5.6950    0.6830    1.2870 C   0  0  0  0  0  0  0  0  0  0  0  0
   -4.6010    0.4740    0.4500 C   0  0  0  0  0  0  0  0  0  0  0  0
   -2.1940   -1.7960   -0.1450 N   0  0  0  0  0  0  0  0  0  0  0  0
   -3.1430   -2.4620   -0.9970 C   0  0  0  0  0  0  0  0  0  0  0  0
   -3.7120   -1.9210   -2.1230 N   0  0  0  0  0  0  0  0  0  0  0  0
   -4.4990   -2.8370   -2.6600 C   0  0  0  0  0  0  0  0  0  0  0  0
   -4.4560   -3.9730   -1.9080 C   0  0  0  0  0  0  0  0  0  0  0  0
   -3.6040   -3.6980   -0.8880 N   0  0  0  0  0  0  0  0  0  0  0  0
    1.3120    0.4170   -2.2050 N   0  0  0  0  0  0  0  0  0  0  0  0
    2.5360    0.8790   -1.9910 C   0  0  0  0  0  0  0  0  0  0  0  0
    3.2630    1.4060   -3.0850 C   0  0  0  0  0  0  0  0  0  0  0  0
    4.5500    1.9120   -2.8360 C   0  0  0  0  0  0  0  0  0  0  0  0
    5.1530    1.9350   -1.6410 C   0  0  0  0  0  0  0  0  0  0  0  0
    6.4770    2.5350   -1.3510 C   0  0  0  0  0  0  0  0  0  0  0  0
    6.9780    2.0780   -0.1270 O   0  0  0  0  0  0  0  0  0  0  0  0
    4.4240    1.3990   -0.5380 C   0  0  0  0  0  0  0  0  0  0  0  0
    3.1680    0.9050   -0.7780 C   0  0  0  0  0  0  0  0  0  0  0  0
  2  1  1  1
  2  3  2  0
  2  4  1  0
  4  5  1  0
  5  6  2  0
  5 32  1  0
  6  7  1  0
  7  8  2  3
  7 24  1  0
  8  9  1  0
  9 10  2  3
  9 18  1  0
 10 11  1  0
 11 12  2  0
 11 17  1  0
 12 13  1  0
 13 14  2  0
 14 15  1  0
 14 16  1  0
 16 17  2  0
 18 19  1  0
 19 20  1  0
 19 23  2  0
 20 21  1  0
 21 22  2  0
 22 23  1  0
 24 25  1  0
 25 26  2  0
 25 32  1  0
 26 27  1  0
 27 28  2  0
 28 29  1  0
 28 31  1  0
 29 30  1  0
 31 32  2  0
M  CHG  1  23   1
M  END
