
     RDKit          3D

 32 35  0  0  0  0  0  0  0  0999 V2000
    2.9620   -2.0310    1.3290 O   0  0  0  0  0  0  0  0  0  0  0  0
    3.7560   -1.1140    0.9950 C   0  0  0  0  0  0  0  0  0  0  0  0
    3.2730    0.1520    0.5930 N   0  0  0  0  0  0  0  0  0  0  0  0
    1.8820    0.4180    0.5520 N   0  0  0  0  0  0  0  0  0  0  0  0
    1.0580   -0.3550   -0.2800 C   0  0  0  0  0  0  0  0  0  0  0  0
    1.6030   -1.2880   -0.9550 O   0  0  0  0  0  0  0  0  0  0  0  0
   -0.3800   -0.2000   -0.4470 C   0  0  0  0  0  0  0  0  0  0  0  0
   -1.1660   -1.3690   -0.5540 C   0  0  0  0  0  0  0  0  0  0  0  0
   -2.5370   -1.3000   -0.6090 C   0  0  0  0  0  0  0  0  0  0  0  0
   -3.3220   -2.4960   -0.7450 N   0  0  0  0  0  0  0  0  0  0  0  0
   -4.6300   -2.5230   -0.2060 C   0  0  0  0  0  0  0  0  0  0  0  0
   -5.0260   -1.7360    0.8760 C   0  0  0  0  0  0  0  0  0  0  0  0
   -6.3200   -1.8220    1.2890 C   0  0  0  0  0  0  0  0  0  0  0  0
   -7.2320   -2.6390    0.6940 C   0  0  0  0  0  0  0  0  0  0  0  0
   -8.9110   -2.7510    1.2280 S   0  0  0  0  0  0  0  0  0  0  0  0
   -6.8200   -3.4160   -0.3820 C   0  0  0  0  0  0  0  0  0  0  0  0
   -5.5400   -3.3550   -0.8200 C   0  0  0  0  0  0  0  0  0  0  0  0
   -3.1200   -0.0540   -0.5560 C   0  0  0  0  0  0  0  0  0  0  0  0
   -2.3540    1.0910   -0.4530 C   0  0  0  0  0  0  0  0  0  0  0  0
   -0.9550    1.0310   -0.3980 C   0  0  0  0  0  0  0  0  0  0  0  0
   -0.2040    2.2600   -0.3970 N   0  0  0  0  0  0  0  0  0  0  0  0
    0.8430    2.5410   -1.0660 C   0  0  0  0  0  0  0  0  0  0  0  0
    1.3120    3.9220   -0.7800 C   0  0  0  0  0  0  0  0  0  0  0  0
    2.5120    4.3090   -1.0290 C   0  0  0  0  0  0  0  0  0  0  0  0
    3.0910    5.6280   -0.8020 C   0  0  0  0  0  0  0  0  0  0  0  0
    1.9580    6.7880   -0.1560 Cl  0  0  0  0  0  0  0  0  0  0  0  0
    0.1400    4.5610   -0.2040 C   0  0  0  0  0  0  0  0  0  0  0  0
   -0.6220    3.3830    0.3800 C   0  0  0  0  0  0  0  0  0  0  0  0
    5.1600   -1.4190    1.0420 N   0  0  0  0  0  0  0  0  0  0  0  0
    5.5820   -2.7320    1.4620 C   0  0  2  0  0  0  0  0  0  0  0  0
    6.8990   -2.8820    2.1720 C   0  0  0  0  0  0  0  0  0  0  0  0
    6.7020   -3.4080    0.7540 C   0  0  0  0  0  0  0  0  0  0  0  0
  1  2  2  0
  2  3  1  0
  2 29  1  0
  3  4  1  0
  4  5  1  0
  5  6  2  0
  5  7  1  0
  7  8  2  0
  7 20  1  0
  8  9  1  0
  9 10  1  0
  9 18  2  0
 10 11  1  0
 11 12  2  0
 11 17  1  0
 12 13  1  0
 13 14  2  0
 14 15  1  0
 14 16  1  0
 16 17  2  0
 18 19  1  0
 19 20  2  0
 20 21  1  0
 21 22  2  0
 21 28  1  0
 22 23  1  0
 23 24  2  3
 23 27  1  0
 24 25  1  0
 25 26  1  0
 27 28  1  0
 30 29  1  6
 30 31  1  0
 30 32  1  0
 31 32  1  0
M  CHG  1  21   1
M  END
