
     RDKit          3D

 32 35  0  0  0  0  0  0  0  0999 V2000
    5.6720    3.3630    1.7020 O   0  0  0  0  0  0  0  0  0  0  0  0
    5.5690    2.0140    1.0130 S   0  0  2  0  0  0  0  0  0  0  0  0
    5.9070    2.1920   -0.4400 O   0  0  0  0  0  0  0  0  0  0  0  0
    3.9610    1.4570    1.1490 N   0  0  0  0  0  0  0  0  0  0  0  0
    3.5670    0.6240    0.0280 C   0  0  0  0  0  0  0  0  0  0  0  0
    2.1720    0.1490    0.1600 C   0  0  0  0  0  0  0  0  0  0  0  0
    1.9160   -1.0420    0.8100 C   0  0  0  0  0  0  0  0  0  0  0  0
    0.6260   -1.4930    0.9400 C   0  0  0  0  0  0  0  0  0  0  0  0
   -0.3900   -0.7230    0.4040 C   0  0  0  0  0  0  0  0  0  0  0  0
   -0.1390    0.4650   -0.2450 C   0  0  0  0  0  0  0  0  0  0  0  0
   -1.1740    1.2660   -0.7990 N   0  0  0  0  0  0  0  0  0  0  0  0
   -2.5580    0.8550   -0.7010 C   0  0  0  0  0  0  0  0  0  0  0  0
   -2.9730   -0.2710   -1.2030 C   0  0  0  0  0  0  0  0  0  0  0  0
   -4.4080   -0.7250   -1.1160 C   0  0  0  0  0  0  0  0  0  0  0  0
   -4.6890   -1.8750   -1.6400 C   0  0  0  0  0  0  0  0  0  0  0  0
   -5.8830   -2.6640   -1.7750 C   0  0  0  0  0  0  0  0  0  0  0  0
   -5.5150   -4.2360   -0.8940 Cl  0  0  0  0  0  0  0  0  0  0  0  0
   -5.3510    0.1570   -0.4330 C   0  0  0  0  0  0  0  0  0  0  0  0
   -4.8770    1.3060    0.0710 C   0  0  0  0  0  0  0  0  0  0  0  0
   -5.7110    2.3060    0.7950 C   0  0  0  0  0  0  0  0  0  0  0  0
   -6.9300    1.5930    1.3850 C   0  0  0  0  0  0  0  0  0  0  0  0
   -7.6230    0.8490    0.2690 C   0  0  0  0  0  0  0  0  0  0  0  0
   -6.7690   -0.2340   -0.3480 C   0  0  0  0  0  0  0  0  0  0  0  0
   -3.5080    1.6700   -0.0490 N   0  0  0  0  0  0  0  0  0  0  0  0
    1.1400    0.8630   -0.3450 N   0  0  0  0  0  0  0  0  0  0  0  0
    6.7070    0.9620    1.7290 N   0  0  0  0  0  0  0  0  0  0  0  0
    7.3670   -0.1060    1.0680 C   0  0  0  0  0  0  0  0  0  0  0  0
    7.9270    0.0100   -0.1820 C   0  0  0  0  0  0  0  0  0  0  0  0
    8.5520   -1.0770   -0.7540 C   0  0  0  0  0  0  0  0  0  0  0  0
    8.6540   -2.3050   -0.1370 C   0  0  0  0  0  0  0  0  0  0  0  0
    8.0710   -2.3720    1.1270 C   0  0  0  0  0  0  0  0  0  0  0  0
    7.4450   -1.3110    1.7200 C   0  0  0  0  0  0  0  0  0  0  0  0
  1  2  2  0
  2  3  2  0
  2  4  1  6
  2 26  1  0
  4  5  1  0
  5  6  1  0
  6  7  2  0
  6 25  1  0
  7  8  1  0
  8  9  2  0
  9 10  1  0
 10 11  1  0
 10 25  2  0
 11 12  1  0
 12 13  2  0
 12 24  1  0
 13 14  1  0
 14 15  2  3
 14 18  1  0
 15 16  1  0
 16 17  1  0
 18 19  2  0
 18 23  1  0
 19 20  1  0
 19 24  1  0
 20 21  1  0
 21 22  1  0
 22 23  1  0
 26 27  1  0
 27 28  2  0
 27 32  1  0
 28 29  1  0
 29 30  2  0
 30 31  1  0
 31 32  2  0
M  CHG  1  25   1
M  END
