
     RDKit          3D

 32 35  0  0  0  0  0  0  0  0999 V2000
    9.7530    1.4940    0.5370 C   0  0  0  0  0  0  0  0  0  0  0  0
    8.3800    1.0220    0.1300 C   0  0  0  0  0  0  0  0  0  0  0  0
    8.0880    0.8180   -1.2020 C   0  0  0  0  0  0  0  0  0  0  0  0
    6.8710    0.3930   -1.6290 C   0  0  0  0  0  0  0  0  0  0  0  0
    5.8750    0.1530   -0.6800 C   0  0  0  0  0  0  0  0  0  0  0  0
    6.1380    0.3470    0.6480 C   0  0  0  0  0  0  0  0  0  0  0  0
    7.4040    0.7860    1.0500 C   0  0  0  0  0  0  0  0  0  0  0  0
    4.9480    0.0310    1.4620 C   0  0  0  0  0  0  0  0  0  0  0  0
    3.9170   -0.2550    0.4950 N   0  0  0  0  0  0  0  0  0  0  0  0
    2.5360   -0.4500    0.8570 C   0  0  0  0  0  0  0  0  0  0  0  0
    2.1770   -0.2960    2.1690 N   0  0  0  0  0  0  0  0  0  0  0  0
    0.9070   -0.4650    2.5440 C   0  0  0  0  0  0  0  0  0  0  0  0
    0.4870   -0.3030    3.9720 C   0  0  0  0  0  0  0  0  0  0  0  0
   -0.0360   -0.7910    1.6200 C   0  0  0  0  0  0  0  0  0  0  0  0
    0.2620   -0.9590    0.2940 C   0  0  0  0  0  0  0  0  0  0  0  0
   -0.6790   -1.3040   -0.7500 C   0  0  0  0  0  0  0  0  0  0  0  0
   -2.0310   -1.4870   -0.3560 N   0  0  0  0  0  0  0  0  0  0  0  0
   -3.0570   -1.8920   -1.6760 S   0  0  1  0  0  0  0  0  0  0  0  0
   -2.2670   -2.5700   -2.7630 O   0  0  0  0  0  0  0  0  0  0  0  0
   -4.1070   -2.8310   -1.2310 O   0  0  0  0  0  0  0  0  0  0  0  0
   -3.6950   -0.4270   -2.3100 N   0  0  0  0  0  0  0  0  0  0  0  0
   -4.9480    0.0510   -1.8460 C   0  0  0  0  0  0  0  0  0  0  0  0
   -5.1140    1.3850   -1.4630 C   0  0  0  0  0  0  0  0  0  0  0  0
   -6.3270    1.8510   -1.0070 C   0  0  0  0  0  0  0  0  0  0  0  0
   -7.4340    1.0370   -0.9040 C   0  0  0  0  0  0  0  0  0  0  0  0
   -8.7470    1.5420   -0.4130 C   0  0  0  0  0  0  0  0  0  0  0  0
   -8.9060    1.4180    1.0120 N   0  0  0  0  0  0  0  0  0  0  0  0
   -7.2880   -0.2810   -1.2770 C   0  0  0  0  0  0  0  0  0  0  0  0
   -6.0560   -0.7580   -1.7410 C   0  0  0  0  0  0  0  0  0  0  0  0
    1.6060   -0.7770   -0.0820 C   0  0  0  0  0  0  0  0  0  0  0  0
    2.0210   -0.9930   -1.7660 Cl  0  0  0  0  0  0  0  0  0  0  0  0
    4.4720   -0.3050   -0.8050 C   0  0  0  0  0  0  0  0  0  0  0  0
  1  2  1  0
  2  3  2  0
  2  7  1  0
  3  4  1  0
  4  5  2  0
  5  6  1  0
  5 32  1  0
  6  7  2  0
  6  8  1  0
  8  9  1  0
  9 10  1  0
  9 32  1  0
 10 11  2  0
 10 30  1  0
 11 12  1  0
 12 13  1  0
 12 14  2  0
 14 15  1  0
 15 16  1  0
 15 30  2  0
 16 17  1  0
 18 17  1  1
 18 19  2  0
 18 20  2  0
 18 21  1  0
 21 22  1  0
 22 23  2  0
 22 29  1  0
 23 24  1  0
 24 25  2  0
 25 26  1  0
 25 28  1  0
 26 27  1  0
 28 29  2  0
 30 31  1  0
M  CHG  1  27   1
M  END
