
     RDKit          3D

 32 35  0  0  0  0  0  0  0  0999 V2000
   -6.4270   -1.4790   -1.0150 C   0  0  0  0  0  0  0  0  0  0  0  0
   -6.2640   -0.4170   -1.9420 N   0  0  0  0  0  0  0  0  0  0  0  0
   -5.7650    0.8620   -1.3900 C   0  0  0  0  0  0  0  0  0  0  0  0
   -5.4700    0.6630    0.0290 C   0  0  0  0  0  0  0  0  0  0  0  0
   -6.2300    1.4330    0.9250 C   0  0  0  0  0  0  0  0  0  0  0  0
   -7.3970    2.5430    0.2520 Cl  0  0  0  0  0  0  0  0  0  0  0  0
   -6.0890    1.3390    2.2920 C   0  0  0  0  0  0  0  0  0  0  0  0
   -5.1650    0.4510    2.7770 C   0  0  0  0  0  0  0  0  0  0  0  0
   -4.4040   -0.3120    1.9540 C   0  0  0  0  0  0  0  0  0  0  0  0
   -4.5390   -0.2110    0.5450 C   0  0  0  0  0  0  0  0  0  0  0  0
   -3.5840   -0.8280   -0.2480 N   0  0  0  0  0  0  0  0  0  0  0  0
   -2.3740   -0.7250   -0.4350 C   0  0  0  0  0  0  0  0  0  0  0  0
   -1.2280    0.0250   -0.0010 C   0  0  0  0  0  0  0  0  0  0  0  0
    0.0860   -0.3800   -0.4140 C   0  0  0  0  0  0  0  0  0  0  0  0
    1.2310    0.2290    0.0150 C   0  0  0  0  0  0  0  0  0  0  0  0
    2.5680    0.0670   -0.5160 C   0  0  0  0  0  0  0  0  0  0  0  0
    2.6870    1.0330   -1.5190 O   0  0  0  0  0  0  0  0  0  0  0  0
    3.7170   -0.6420   -0.3780 N   0  0  0  0  0  0  0  0  0  0  0  0
    3.9290   -1.7560    0.5410 C   0  0  0  0  0  0  0  0  0  0  0  0
    5.1270   -2.6050    0.0150 C   0  0  0  0  0  0  0  0  0  0  0  0
    6.2650   -1.6190    0.1160 C   0  0  0  0  0  0  0  0  0  0  0  0
    7.8260   -1.6300    0.8690 S   0  0  0  0  0  0  0  0  0  0  0  0
    8.2750    0.0710    0.3250 C   0  0  0  0  0  0  0  0  0  0  0  0
    9.5820    0.6880    0.6730 C   0  0  0  0  0  0  0  0  0  0  0  0
    7.2120    0.4470   -0.3560 C   0  0  0  0  0  0  0  0  0  0  0  0
    6.1440   -0.3860   -0.5010 C   0  0  0  0  0  0  0  0  0  0  0  0
    4.8420   -0.1980   -1.2260 C   0  0  0  0  0  0  0  0  0  0  0  0
    1.0570    1.3000    0.9300 C   0  0  0  0  0  0  0  0  0  0  0  0
    2.0900    1.8820    1.3620 O   0  0  0  0  0  0  0  0  0  0  0  0
   -0.1500    1.6510    1.2960 N   0  0  0  0  0  0  0  0  0  0  0  0
   -1.2870    1.0500    0.8500 C   0  0  0  0  0  0  0  0  0  0  0  0
   -2.4990    1.7580    1.2340 N   0  0  0  0  0  0  0  0  0  0  0  0
  1  2  1  0
  2  3  1  0
  3  4  1  0
  4  5  2  0
  4 10  1  0
  5  6  1  0
  5  7  1  0
  7  8  2  0
  8  9  1  0
  9 10  2  0
 10 11  1  0
 11 12  2  3
 12 13  1  0
 13 14  1  0
 13 31  2  0
 14 15  2  0
 15 16  1  0
 15 28  1  0
 16 17  2  0
 16 18  1  0
 18 19  1  0
 18 27  1  0
 19 20  1  0
 20 21  1  0
 21 22  1  0
 21 26  2  0
 22 23  1  0
 23 24  1  0
 23 25  2  0
 25 26  1  0
 26 27  1  0
 28 29  2  0
 28 30  1  0
 30 31  1  0
 31 32  1  0
M  CHG  1   2   1
M  END
