
     RDKit          3D

 31 34  0  0  0  0  0  0  0  0999 V2000
    5.6870    2.7720   -1.4320 C   0  0  0  0  0  0  0  0  0  0  0  0
    5.5230    1.3360   -0.9340 C   0  0  0  0  0  0  0  0  0  0  0  0
    4.1710    1.1610   -0.3680 N   0  0  0  0  0  0  0  0  0  0  0  0
    4.3050    0.3670    0.8020 C   0  0  2  0  0  0  0  0  0  0  0  0
    5.2380   -0.8140    0.4590 C   0  0  0  0  0  0  0  0  0  0  0  0
    3.0530   -0.1620    1.4330 C   0  0  0  0  0  0  0  0  0  0  0  0
    2.1000    0.8020    1.8620 N   0  0  0  0  0  0  0  0  0  0  0  0
    1.1540    0.1760    2.8240 C   0  0  0  0  0  0  0  0  0  0  0  0
    0.4830   -1.0250    2.2510 C   0  0  0  0  0  0  0  0  0  0  0  0
   -0.4170   -0.6360    1.0820 C   0  0  2  0  0  0  0  0  0  0  0  0
   -0.8050   -1.8490    0.3840 N   0  0  0  0  0  0  0  0  0  0  0  0
   -1.8540   -1.8680   -0.5770 C   0  0  0  0  0  0  0  0  0  0  0  0
   -2.6670   -0.7650   -0.7900 C   0  0  0  0  0  0  0  0  0  0  0  0
   -3.7140   -0.8200   -1.7180 C   0  0  0  0  0  0  0  0  0  0  0  0
   -4.5950    0.3200   -1.9280 C   0  0  0  0  0  0  0  0  0  0  0  0
   -5.2160    0.3950   -3.0290 O   0  0  0  0  0  0  0  0  0  0  0  0
   -4.7850    1.3670   -0.9160 C   0  0  0  0  0  0  0  0  0  0  0  0
   -5.5090    2.5220   -1.1030 C   0  0  0  0  0  0  0  0  0  0  0  0
   -5.4480    3.2360    0.0730 C   0  0  0  0  0  0  0  0  0  0  0  0
   -4.6820    2.4860    0.9400 C   0  0  0  0  0  0  0  0  0  0  0  0
   -4.3180    2.8200    2.3320 C   0  0  0  0  0  0  0  0  0  0  0  0
   -4.3250    1.4080    0.3070 O   0  0  0  0  0  0  0  0  0  0  0  0
   -3.8760   -2.0110   -2.3880 C   0  0  0  0  0  0  0  0  0  0  0  0
   -3.0730   -3.1080   -2.1790 C   0  0  0  0  0  0  0  0  0  0  0  0
   -3.0440   -4.3580   -2.7060 N   0  0  0  0  0  0  0  0  0  0  0  0
   -2.0330   -5.0410   -2.1340 C   0  0  0  0  0  0  0  0  0  0  0  0
   -1.5660   -6.5970   -2.4170 S   0  0  0  0  0  0  0  0  0  0  0  0
   -1.4190   -4.2450   -1.2520 N   0  0  0  0  0  0  0  0  0  0  0  0
   -2.0490   -3.0640   -1.2750 C   0  0  0  0  0  0  0  0  0  0  0  0
    0.4370    0.1920    0.1230 C   0  0  0  0  0  0  0  0  0  0  0  0
    1.1990    1.2780    0.8130 C   0  0  0  0  0  0  0  0  0  0  0  0
  1  2  1  0
  2  3  1  0
  3  4  1  0
  4  5  1  6
  4  6  1  0
  6  7  1  0
  7  8  1  0
  7 31  1  0
  8  9  1  0
  9 10  1  0
 10 11  1  6
 10 30  1  0
 11 12  1  0
 12 13  2  0
 12 29  1  0
 13 14  1  0
 14 15  1  0
 14 23  2  0
 15 16  2  0
 15 17  1  0
 17 18  2  0
 17 22  1  0
 18 19  1  0
 19 20  2  0
 20 21  1  0
 20 22  1  0
 23 24  1  0
 24 25  1  0
 24 29  2  0
 25 26  1  0
 26 27  2  0
 26 28  1  0
 28 29  1  0
 30 31  1  0
M  CHG  1   3   1
M  END
