
     RDKit          3D

 33 35  0  0  0  0  0  0  0  0999 V2000
    3.2240   -3.3590    1.0150 C   0  0  0  0  0  0  0  0  0  0  0  0
    2.6050   -2.5610   -0.0860 C   0  0  1  0  0  0  0  0  0  0  0  0
    1.8800   -1.5250    0.4690 O   0  0  0  0  0  0  0  0  0  0  0  0
    2.2080   -0.2800   -0.0000 C   0  0  1  0  0  0  0  0  0  0  0  0
    1.4670    0.6550    0.7140 O   0  0  0  0  0  0  0  0  0  0  0  0
    0.6860    1.4700   -0.0690 C   0  0  1  0  0  0  0  0  0  0  0  0
   -0.7600    1.4190    0.3700 C   0  0  1  0  0  0  0  0  0  0  0  0
   -1.1200    0.1310    0.7550 O   0  0  0  0  0  0  0  0  0  0  0  0
   -2.1080   -0.4010   -0.0650 C   0  0  1  0  0  0  0  0  0  0  0  0
   -1.7080   -1.6480   -0.7720 C   0  0  2  0  0  0  0  0  0  0  0  0
   -1.3720   -1.3380   -2.2370 C   0  0  0  0  0  0  0  0  0  0  0  0
   -0.7540   -2.3930   -2.8540 O   0  0  0  0  0  0  0  0  0  0  0  0
   -2.5250   -2.7020   -0.7290 O   0  0  0  0  0  0  0  0  0  0  0  0
   -3.8260   -2.6010   -0.4380 C   0  0  2  0  0  0  0  0  0  0  0  0
   -4.6760   -3.1740   -1.4150 O   0  0  0  0  0  0  0  0  0  0  0  0
   -4.3740   -1.2420   -0.1460 C   0  0  1  0  0  0  0  0  0  0  0  0
   -5.5880   -1.4260    0.5500 O   0  0  0  0  0  0  0  0  0  0  0  0
   -3.3560   -0.5580    0.7730 C   0  0  1  0  0  0  0  0  0  0  0  0
   -3.1230   -1.4510    1.8190 O   0  0  0  0  0  0  0  0  0  0  0  0
   -1.0460    2.3550    1.3480 O   0  0  0  0  0  0  0  0  0  0  0  0
   -0.9280    3.6620    0.9900 C   0  0  2  0  0  0  0  0  0  0  0  0
   -2.2650    4.2100    0.5500 C   0  0  0  0  0  0  0  0  0  0  0  0
   -2.7850    3.5360   -0.5280 O   0  0  0  0  0  0  0  0  0  0  0  0
    0.0370    3.7940   -0.1630 C   0  0  1  0  0  0  0  0  0  0  0  0
    0.4370    5.1150   -0.3560 O   0  0  0  0  0  0  0  0  0  0  0  0
    1.2170    2.8980    0.1490 C   0  0  1  0  0  0  0  0  0  0  0  0
    1.5270    3.0790    1.4960 O   0  0  0  0  0  0  0  0  0  0  0  0
    3.6840    0.0390    0.1750 C   0  0  1  0  0  0  0  0  0  0  0  0
    4.0450    0.1520    1.5040 O   0  0  0  0  0  0  0  0  0  0  0  0
    4.5060   -1.0670   -0.4480 C   0  0  2  0  0  0  0  0  0  0  0  0
    5.3350   -0.5730   -1.4800 O   0  0  0  0  0  0  0  0  0  0  0  0
    3.6240   -2.1240   -1.0880 C   0  0  1  0  0  0  0  0  0  0  0  0
    4.4220   -3.2160   -1.4160 O   0  0  0  0  0  0  0  0  0  0  0  0
  2  1  1  1
  2  3  1  0
  2 32  1  0
  3  4  1  0
  4  5  1  1
  4 28  1  0
  6  5  1  1
  6  7  1  0
  6 26  1  0
  7  8  1  1
  7 20  1  0
  9  8  1  1
  9 10  1  0
  9 18  1  0
 10 11  1  6
 10 13  1  0
 11 12  1  0
 13 14  1  0
 14 15  1  6
 14 16  1  0
 16 17  1  1
 16 18  1  0
 18 19  1  1
 20 21  1  0
 21 22  1  6
 21 24  1  0
 22 23  1  0
 24 25  1  1
 24 26  1  0
 26 27  1  1
 28 29  1  1
 28 30  1  0
 30 31  1  6
 30 32  1  0
 32 33  1  1
M  END
