
     RDKit          3D

 32 35  0  0  0  0  0  0  0  0999 V2000
    9.8520    0.5620   -1.5300 C   0  0  0  0  0  0  0  0  0  0  0  0
    8.4140    0.6980   -1.1120 C   0  0  0  0  0  0  0  0  0  0  0  0
    7.7810   -0.3010   -0.5150 C   0  0  0  0  0  0  0  0  0  0  0  0
    8.5350   -1.5180   -0.2870 C   0  0  0  0  0  0  0  0  0  0  0  0
    8.0420   -2.5760    0.3130 C   0  0  0  0  0  0  0  0  0  0  0  0
    9.0480   -4.0240    0.5430 Cl  0  0  0  0  0  0  0  0  0  0  0  0
    6.3680   -0.1220   -0.1150 C   0  0  2  0  0  0  0  0  0  0  0  0
    5.4310   -1.1560   -0.6220 C   0  0  0  0  0  0  0  0  0  0  0  0
    4.3070   -0.5970   -1.4290 C   0  0  0  0  0  0  0  0  0  0  0  0
    3.6050    0.4640   -0.6280 C   0  0  0  0  0  0  0  0  0  0  0  0
    2.3640    0.6700   -0.3070 N   0  0  0  0  0  0  0  0  0  0  0  0
    1.9030    1.5500    0.3340 C   0  0  0  0  0  0  0  0  0  0  0  0
    0.6790    2.0880    0.8680 N   0  0  0  0  0  0  0  0  0  0  0  0
   -0.5060    1.3640    0.5760 C   0  0  0  0  0  0  0  0  0  0  0  0
   -0.3960    0.3420   -0.1040 O   0  0  0  0  0  0  0  0  0  0  0  0
   -1.7740    1.7640    1.0280 N   0  0  0  0  0  0  0  0  0  0  0  0
   -3.0130    1.1570    0.8200 C   0  0  0  0  0  0  0  0  0  0  0  0
   -3.1940    0.0170    0.1050 C   0  0  0  0  0  0  0  0  0  0  0  0
   -4.4260   -0.5700   -0.0920 C   0  0  0  0  0  0  0  0  0  0  0  0
   -5.5570   -0.0140    0.4420 C   0  0  0  0  0  0  0  0  0  0  0  0
   -6.8400   -0.6060    0.2500 N   0  0  0  0  0  0  0  0  0  0  0  0
   -6.8880   -1.8270   -0.5530 C   0  0  0  0  0  0  0  0  0  0  0  0
   -8.3330   -2.1880   -0.7610 C   0  0  0  0  0  0  0  0  0  0  0  0
   -9.1170   -1.0690   -1.2450 N   0  0  0  0  0  0  0  0  0  0  0  0
   -9.0040    0.0930   -0.4160 C   0  0  0  0  0  0  0  0  0  0  0  0
   -8.0720   -0.1240    0.7620 C   0  0  0  0  0  0  0  0  0  0  0  0
   -5.4240    1.1440    1.1770 C   0  0  0  0  0  0  0  0  0  0  0  0
   -4.1820    1.7130    1.3590 C   0  0  0  0  0  0  0  0  0  0  0  0
   -4.0480    2.8730    2.0960 O   0  0  0  0  0  0  0  0  0  0  0  0
    3.4910    2.5040    0.7140 S   0  0  0  0  0  0  0  0  0  0  0  0
    4.5110    1.4090   -0.1510 C   0  0  0  0  0  0  0  0  0  0  0  0
    5.9280    1.2930   -0.4340 C   0  0  0  0  0  0  0  0  0  0  0  0
  1  2  1  0
  2  3  2  3
  3  4  1  0
  7  3  1  6
  4  5  2  3
  5  6  1  0
  7  8  1  0
  7 32  1  0
  8  9  1  0
  9 10  1  0
 10 11  1  0
 10 31  2  0
 11 12  2  0
 12 13  1  0
 12 30  1  0
 13 14  1  0
 14 15  2  0
 14 16  1  0
 16 17  1  0
 17 18  2  0
 17 28  1  0
 18 19  1  0
 19 20  2  0
 20 21  1  0
 20 27  1  0
 21 22  1  0
 21 26  1  0
 22 23  1  0
 23 24  1  0
 24 25  1  0
 25 26  1  0
 27 28  2  0
 28 29  1  0
 30 31  1  0
 31 32  1  0
M  CHG  1  24   1
M  END
