
     RDKit          3D

 15 15  0  0  0  0  0  0  0  0999 V2000
   -0.0390    0.3380   -1.7310 C   0  0  0  0  0  0  0  0  0  0  0  0
   -0.1540    0.6060   -0.2590 C   0  0  2  0  0  0  0  0  0  0  0  0
   -0.8220    1.7920   -0.0030 O   0  0  0  0  0  0  0  0  0  0  0  0
    1.2020    0.6590    0.4170 C   0  0  2  0  0  0  0  0  0  0  0  0
    1.9110    1.7460   -0.1130 O   0  0  0  0  0  0  0  0  0  0  0  0
    2.1620   -0.8900    0.1360 P   0  0  0  0  0  0  0  0  0  0  0  0
    3.8710   -0.5200    0.0190 O   0  0  0  0  0  0  0  0  0  0  0  0
    1.9620   -1.9280    1.5310 O   0  0  0  0  0  0  0  0  0  0  0  0
   -0.9040   -0.5560    0.3640 C   0  0  2  0  0  0  0  0  0  0  0  0
   -0.2580   -1.7650    0.1230 O   0  0  0  0  0  0  0  0  0  0  0  0
   -2.3200   -0.5250   -0.1170 C   0  0  0  0  0  0  0  0  0  0  0  0
   -3.0960   -0.0780    1.0020 O   0  0  0  0  0  0  0  0  0  0  0  0
   -2.1820    0.4560    1.9280 C   0  0  0  0  0  0  0  0  0  0  0  0
   -2.3830    1.4240    2.7330 O   0  0  0  0  0  0  0  0  0  0  0  0
   -1.0390   -0.3090    1.7540 O   0  0  0  0  0  0  0  0  0  0  0  0
  2  1  1  6
  2  3  1  0
  2  4  1  0
  2  9  1  0
  4  5  1  6
  4  6  1  0
  6  7  1  0
  6  8  1  0
  9 10  1  1
  9 11  1  0
  9 15  1  0
 11 12  1  0
 12 13  1  0
 13 14  2  0
 13 15  1  0
M  END
