
     RDKit          3D

 24 23  0  0  0  0  0  0  0  0999 V2000
   -1.7750    5.2580    0.2720 C   0  0  0  0  0  0  0  0  0  0  0  0
   -0.9930    4.2630   -0.0630 C   0  0  0  0  0  0  0  0  0  0  0  0
    0.4060    4.5160   -0.4250 C   0  0  0  0  0  0  0  0  0  0  0  0
   -1.5080    2.9060   -0.0780 C   0  0  0  0  0  0  0  0  0  0  0  0
   -0.7770    1.8610   -0.4050 C   0  0  0  0  0  0  0  0  0  0  0  0
   -1.3500    0.5460   -0.3990 C   0  0  0  0  0  0  0  0  0  0  0  0
   -0.6270   -0.4970   -0.7240 C   0  0  0  0  0  0  0  0  0  0  0  0
    0.7070   -0.3980   -1.0860 O   0  0  0  0  0  0  0  0  0  0  0  0
    1.9880   -1.0270   -0.0850 P   0  0  0  0  0  0  0  0  0  0  0  0
    2.9890   -2.0410   -1.1080 O   0  0  0  0  0  0  0  0  0  0  0  0
    3.8200   -1.1490   -1.8170 C   0  0  0  0  0  0  0  0  0  0  0  0
    4.7040   -1.9590   -2.7140 C   0  0  0  0  0  0  0  0  0  0  0  0
    2.9550    0.2020    0.6090 O   0  0  0  0  0  0  0  0  0  0  0  0
    3.2980   -0.0580    1.9320 C   0  0  0  0  0  0  0  0  0  0  0  0
    4.1420    1.0140    2.5370 C   0  0  0  0  0  0  0  0  0  0  0  0
    5.3430    1.1560    1.8140 O   0  0  0  0  0  0  0  0  0  0  0  0
   -2.6690    0.3810   -0.0500 O   0  0  0  0  0  0  0  0  0  0  0  0
   -3.3920   -1.0650    0.5480 P   0  0  0  0  0  0  0  0  0  0  0  0
   -3.2670   -2.3050   -0.6370 O   0  0  0  0  0  0  0  0  0  0  0  0
   -4.4590   -2.5460   -1.3060 C   0  0  0  0  0  0  0  0  0  0  0  0
   -4.1870   -3.6550   -2.3080 C   0  0  0  0  0  0  0  0  0  0  0  0
   -2.8200   -1.5650    2.1890 C   0  0  0  0  0  0  0  0  0  0  0  0
   -3.6820   -2.2720    3.1770 C   0  0  0  0  0  0  0  0  0  0  0  0
   -1.6730   -1.3210    2.5230 O   0  0  0  0  0  0  0  0  0  0  0  0
  1  2  2  0
  2  3  1  0
  2  4  1  0
  4  5  2  3
  5  6  1  0
  6  7  2  3
  6 17  1  0
  7  8  1  0
  8  9  1  0
  9 10  1  0
  9 13  1  0
 10 11  1  0
 11 12  1  0
 13 14  1  0
 14 15  1  0
 15 16  1  0
 17 18  1  0
 18 19  1  0
 18 22  1  0
 19 20  1  0
 20 21  1  0
 22 23  1  0
 22 24  2  0
M  END
