
     RDKit          3D

 23 22  0  0  0  0  0  0  0  0999 V2000
   -6.8010   -2.0920    0.5660 C   0  0  0  0  0  0  0  0  0  0  0  0
   -5.5970   -1.3810   -0.0770 C   0  0  0  0  0  0  0  0  0  0  0  0
   -4.7230   -0.7940    0.9760 C   0  0  0  0  0  0  0  0  0  0  0  0
   -3.5050   -0.0490    0.4160 C   0  0  1  0  0  0  0  0  0  0  0  0
   -2.7480    0.4720    1.6040 C   0  0  0  0  0  0  0  0  0  0  0  0
   -2.7090   -0.9350   -0.4680 C   0  0  0  0  0  0  0  0  0  0  0  0
   -1.5860   -0.4520   -1.0810 O   0  0  0  0  0  0  0  0  0  0  0  0
   -0.3790   -0.0580   -0.6380 C   0  0  0  0  0  0  0  0  0  0  0  0
   -0.1150   -0.1170    0.5710 O   0  0  0  0  0  0  0  0  0  0  0  0
    0.6320    0.4310   -1.4860 O   0  0  0  0  0  0  0  0  0  0  0  0
    1.8810    0.8280   -0.9930 C   0  0  0  0  0  0  0  0  0  0  0  0
    2.6250   -0.3070   -0.3360 C   0  0  0  0  0  0  0  0  0  0  0  0
    4.2710    0.3840    0.2590 P   0  0  0  0  0  0  0  0  0  0  0  0
    4.9410    1.2740   -1.0620 O   0  0  0  0  0  0  0  0  0  0  0  0
    5.9510    0.5680   -1.7110 C   0  0  0  0  0  0  0  0  0  0  0  0
    6.4650    1.4320   -2.8430 C   0  0  0  0  0  0  0  0  0  0  0  0
    5.2360   -0.9370    0.7440 O   0  0  0  0  0  0  0  0  0  0  0  0
    5.8380   -0.7620    1.9850 C   0  0  0  0  0  0  0  0  0  0  0  0
    6.6690   -1.9530    2.3530 C   0  0  0  0  0  0  0  0  0  0  0  0
   -4.0270    1.1420   -0.3510 C   0  0  0  0  0  0  0  0  0  0  0  0
   -3.7510    1.2170   -1.5700 O   0  0  0  0  0  0  0  0  0  0  0  0
   -4.7790    2.1210    0.2400 O   0  0  0  0  0  0  0  0  0  0  0  0
   -5.2790    3.2510   -0.4690 C   0  0  0  0  0  0  0  0  0  0  0  0
  1  2  1  0
  2  3  1  0
  3  4  1  0
  4  5  1  1
  4  6  1  0
  4 20  1  0
  6  7  1  0
  7  8  1  0
  8  9  2  0
  8 10  1  0
 10 11  1  0
 11 12  1  0
 12 13  1  0
 13 14  1  0
 13 17  1  0
 14 15  1  0
 15 16  1  0
 17 18  1  0
 18 19  1  0
 20 21  2  0
 20 22  1  0
 22 23  1  0
M  END
