
     RDKit          3D

 21 22  0  0  0  0  0  0  0  0999 V2000
    6.1120   -1.3160   -0.2250 N   0  0  0  0  0  0  0  0  0  0  0  0
    4.7400   -0.9590   -0.0330 C   0  0  0  0  0  0  0  0  0  0  0  0
    4.3960   -0.3520    1.1510 C   0  0  0  0  0  0  0  0  0  0  0  0
    3.0680   -0.0140    1.3200 C   0  0  0  0  0  0  0  0  0  0  0  0
    2.1220   -0.2520    0.3920 N   0  0  0  0  0  0  0  0  0  0  0  0
    0.7820    0.1390    0.6710 C   0  0  2  0  0  0  0  0  0  0  0  0
   -0.1770   -0.7770    0.2350 O   0  0  0  0  0  0  0  0  0  0  0  0
   -1.3480   -0.1130    0.5890 C   0  0  2  0  0  0  0  0  0  0  0  0
   -2.5630   -0.6800   -0.1020 C   0  0  0  0  0  0  0  0  0  0  0  0
   -3.6560    0.0650    0.3340 O   0  0  0  0  0  0  0  0  0  0  0  0
   -5.1000   -0.4400   -0.3460 P   0  0  2  0  0  0  0  0  0  0  0  0
   -4.9810   -0.7780   -1.8090 O   0  0  0  0  0  0  0  0  0  0  0  0
   -6.2210    0.8350   -0.2060 O   0  0  0  0  0  0  0  0  0  0  0  0
   -5.7040   -1.7330    0.5630 O   0  0  0  0  0  0  0  0  0  0  0  0
   -1.1740    1.3310    0.1690 C   0  0  1  0  0  0  0  0  0  0  0  0
   -1.4410    2.1510    1.2650 O   0  0  0  0  0  0  0  0  0  0  0  0
    0.3420    1.3850   -0.0670 C   0  0  1  0  0  0  0  0  0  0  0  0
    0.9040    2.5370    0.4180 O   0  0  0  0  0  0  0  0  0  0  0  0
    2.5180   -0.8480   -0.7470 C   0  0  0  0  0  0  0  0  0  0  0  0
    1.6220   -1.0730   -1.6240 O   0  0  0  0  0  0  0  0  0  0  0  0
    3.8010   -1.1970   -0.9580 N   0  0  0  0  0  0  0  0  0  0  0  0
  1  2  1  0
  2  3  1  0
  2 21  2  0
  3  4  2  0
  4  5  1  0
  6  5  1  6
  5 19  1  0
  6  7  1  0
  6 17  1  0
  7  8  1  0
  8  9  1  6
  8 15  1  0
  9 10  1  0
 10 11  1  0
 11 12  2  0
 11 13  1  6
 11 14  1  0
 15 16  1  1
 15 17  1  0
 17 18  1  1
 19 20  2  0
 19 21  1  0
M  END
