
     RDKit          3D

 24 23  0  0  0  0  0  0  0  0999 V2000
    2.6510    4.0230    0.7030 C   0  0  0  0  0  0  0  0  0  0  0  0
    3.3420    3.7670   -0.5910 C   0  0  0  0  0  0  0  0  0  0  0  0
    3.4360    2.5910   -1.1420 C   0  0  0  0  0  0  0  0  0  0  0  0
    2.8770    1.3750   -0.5620 C   0  0  0  0  0  0  0  0  0  0  0  0
    2.9740    0.1940   -1.1190 C   0  0  0  0  0  0  0  0  0  0  0  0
    2.3970   -0.9830   -0.4970 C   0  0  0  0  0  0  0  0  0  0  0  0
    2.5290   -2.1390   -1.1070 C   0  0  0  0  0  0  0  0  0  0  0  0
    2.0290   -3.3330   -0.6230 O   0  0  0  0  0  0  0  0  0  0  0  0
    2.8170   -4.3920   -0.1570 C   0  0  0  0  0  0  0  0  0  0  0  0
    1.5070   -0.9560    1.0710 P   0  0  0  0  0  0  0  0  0  0  0  0
    1.6980   -2.4860    1.8520 O   0  0  0  0  0  0  0  0  0  0  0  0
    0.5310   -2.9660    2.4060 C   0  0  0  0  0  0  0  0  0  0  0  0
   -0.5380   -0.3790    0.9970 P   0  0  0  0  0  0  0  0  0  0  0  0
   -1.6220   -1.5540    0.3830 O   0  0  0  0  0  0  0  0  0  0  0  0
   -1.4040   -1.6700   -0.9880 C   0  0  0  0  0  0  0  0  0  0  0  0
   -2.3530   -2.7010   -1.5400 C   0  0  0  0  0  0  0  0  0  0  0  0
   -3.1630   -3.2920   -0.7870 O   0  0  0  0  0  0  0  0  0  0  0  0
   -2.2610   -2.9360   -2.9060 O   0  0  0  0  0  0  0  0  0  0  0  0
   -0.8820    1.2260    0.5650 O   0  0  0  0  0  0  0  0  0  0  0  0
   -2.2870    1.3970    0.5900 C   0  0  0  0  0  0  0  0  0  0  0  0
   -2.6530    2.7800    0.2210 C   0  0  0  0  0  0  0  0  0  0  0  0
   -1.7890    3.5740   -0.0400 O   0  0  0  0  0  0  0  0  0  0  0  0
   -4.0620    3.1830    0.1730 C   0  0  0  0  0  0  0  0  0  0  0  0
   -5.0330    2.0850    0.5120 C   0  0  0  0  0  0  0  0  0  0  0  0
  1  2  1  0
  2  3  2  3
  3  4  1  0
  4  5  2  3
  5  6  1  0
  6  7  2  3
  6 10  1  0
  7  8  1  0
  8  9  1  0
 10 11  1  0
 10 13  1  0
 11 12  1  0
 13 14  1  0
 13 19  1  0
 14 15  1  0
 15 16  1  0
 16 17  2  0
 16 18  1  0
 19 20  1  0
 20 21  1  0
 21 22  2  0
 21 23  1  0
 23 24  1  0
M  END
