
     RDKit          3D

 18 19  0  0  0  0  0  0  0  0999 V2000
    2.9590   -0.7330   -3.0280 O   0  0  0  0  0  0  0  0  0  0  0  0
    2.8970   -1.0710   -1.5800 S   0  0  2  0  0  0  0  0  0  0  0  0
    3.4540   -2.4520   -1.3950 O   0  0  0  0  0  0  0  0  0  0  0  0
    1.2510   -1.0340   -1.0860 N   0  0  0  0  0  0  0  0  0  0  0  0
    0.7650    0.3180   -1.2840 C   0  0  0  0  0  0  0  0  0  0  0  0
   -0.6430    0.4760   -0.8960 C   0  0  0  0  0  0  0  0  0  0  0  0
   -1.3090   -0.5620   -0.4290 C   0  0  0  0  0  0  0  0  0  0  0  0
   -2.6930   -0.5170   -0.0190 C   0  0  0  0  0  0  0  0  0  0  0  0
   -3.2970   -1.5980    0.4410 C   0  0  0  0  0  0  0  0  0  0  0  0
   -4.7180   -1.5600    0.8630 C   0  0  0  0  0  0  0  0  0  0  0  0
   -5.1450   -0.2870    1.5060 C   0  0  0  0  0  0  0  0  0  0  0  0
   -4.1660    0.8230    1.3120 C   0  0  0  0  0  0  0  0  0  0  0  0
   -3.5240    0.7100   -0.0780 C   0  0  0  0  0  0  0  0  0  0  0  0
    3.8770    0.0190   -0.6010 C   0  0  0  0  0  0  0  0  0  0  0  0
    4.4920   -0.2600    0.5410 C   0  0  0  0  0  0  0  0  0  0  0  0
    5.2050    0.9940    0.9970 C   0  0  0  0  0  0  0  0  0  0  0  0
    5.4440    1.6680   -0.2970 N   0  0  0  0  0  0  0  0  0  0  0  0
    4.1530    1.4390   -0.9150 C   0  0  0  0  0  0  0  0  0  0  0  0
  1  2  2  0
  2  3  2  0
  2  4  1  1
  2 14  1  0
  4  5  1  0
  5  6  1  0
  6  7  2  3
  7  8  1  0
  8  9  2  0
  8 13  1  0
  9 10  1  0
 10 11  1  0
 11 12  1  0
 12 13  1  0
 14 15  2  0
 14 18  1  0
 15 16  1  0
 16 17  1  0
 17 18  1  0
M  END
