
     RDKit          3D

 17 19  0  0  0  0  0  0  0  0999 V2000
    1.1380    0.9560    0.8110 O   0  0  0  0  0  0  0  0  0  0  0  0
    0.7090   -0.1910    0.5440 C   0  0  0  0  0  0  0  0  0  0  0  0
    1.5630   -1.3900    0.4180 C   0  0  0  0  0  0  0  0  0  0  0  0
    3.0070   -1.0950    0.4720 C   0  0  0  0  0  0  0  0  0  0  0  0
    3.5800   -0.2430   -0.6080 C   0  0  2  0  0  0  0  0  0  0  0  0
    5.0870   -0.0590   -0.3900 C   0  0  0  0  0  0  0  0  0  0  0  0
    5.3690    1.1370   -1.0640 O   0  0  0  0  0  0  0  0  0  0  0  0
    4.1650    1.7580   -1.3140 C   0  0  0  0  0  0  0  0  0  0  0  0
    3.1760    1.0730   -0.6210 O   0  0  0  0  0  0  0  0  0  0  0  0
   -0.7240   -0.3000    0.3550 N   0  0  0  0  0  0  0  0  0  0  0  0
   -1.5270    0.8700    0.4810 C   0  0  1  0  0  0  0  0  0  0  0  0
   -2.7780    1.0600   -0.2870 C   0  0  1  0  0  0  0  0  0  0  0  0
   -3.4640   -0.0790   -0.9800 C   0  0  0  0  0  0  0  0  0  0  0  0
   -4.8190   -0.2560   -0.2830 C   0  0  0  0  0  0  0  0  0  0  0  0
   -4.5280   -0.8270    1.0750 C   0  0  0  0  0  0  0  0  0  0  0  0
   -3.2480   -0.5280    1.4700 O   0  0  0  0  0  0  0  0  0  0  0  0
   -2.8600    0.7750    1.2150 C   0  0  1  0  0  0  0  0  0  0  0  0
  1  2  2  0
  2  3  1  0
  2 10  1  0
  3  4  1  0
  5  4  1  1
  5  6  1  0
  5  9  1  0
  6  7  1  0
  7  8  1  0
  8  9  1  0
 11 10  1  6
 11 12  1  0
 11 17  1  0
 12 13  1  6
 12 17  1  0
 13 14  1  0
 14 15  1  0
 15 16  1  0
 17 16  1  6
M  END
