
     RDKit          3D

 18 19  0  0  0  0  0  0  0  0999 V2000
    5.1600   -1.8970   -0.7370 C   0  0  0  0  0  0  0  0  0  0  0  0
    4.6900   -0.8460   -0.0890 C   0  0  0  0  0  0  0  0  0  0  0  0
    3.2240   -0.6140    0.0120 C   0  0  0  0  0  0  0  0  0  0  0  0
    2.8760    0.6540   -0.5870 N   0  0  0  0  0  0  0  0  0  0  0  0
    1.5160    1.0660   -0.5940 C   0  0  0  0  0  0  0  0  0  0  0  0
    1.2130    2.2690   -1.1680 C   0  0  0  0  0  0  0  0  0  0  0  0
   -0.0930    2.6560   -1.1700 C   0  0  0  0  0  0  0  0  0  0  0  0
   -1.0820    1.8640   -0.6140 C   0  0  0  0  0  0  0  0  0  0  0  0
   -2.4330    2.3560   -0.6460 N   0  0  0  0  0  0  0  0  0  0  0  0
   -0.8050    0.6580   -0.0350 C   0  0  0  0  0  0  0  0  0  0  0  0
   -1.8250   -0.2240    0.5510 C   0  0  0  0  0  0  0  0  0  0  0  0
   -1.5130   -1.3520    1.1550 C   0  0  0  0  0  0  0  0  0  0  0  0
   -2.9500   -2.1600    1.7390 S   0  0  2  0  0  0  0  0  0  0  0  0
   -3.1850   -1.8970    3.1940 O   0  0  0  0  0  0  0  0  0  0  0  0
   -2.9790   -3.6020    1.3910 O   0  0  0  0  0  0  0  0  0  0  0  0
   -4.0620   -1.2050    0.7370 C   0  0  0  0  0  0  0  0  0  0  0  0
   -3.2550    0.0470    0.5140 C   0  0  0  0  0  0  0  0  0  0  0  0
    0.5420    0.2720   -0.0400 C   0  0  0  0  0  0  0  0  0  0  0  0
  1  2  2  0
  2  3  1  0
  3  4  1  0
  4  5  1  0
  5  6  2  0
  5 18  1  0
  6  7  1  0
  7  8  2  0
  8  9  1  0
  8 10  1  0
 10 11  1  0
 10 18  2  0
 11 12  2  0
 11 17  1  0
 12 13  1  0
 13 14  2  0
 13 15  2  0
 13 16  1  6
 16 17  1  0
M  END
