
     RDKit          3D

 33 35  0  0  0  0  0  0  0  0999 V2000
    8.6320    2.7730    0.3320 N   0  0  0  0  0  0  0  0  0  0  0  0
    7.6610    1.7610    0.0910 C   0  0  0  0  0  0  0  0  0  0  0  0
    6.3870    2.0720   -0.3210 C   0  0  0  0  0  0  0  0  0  0  0  0
    5.4490    1.0970   -0.5550 C   0  0  0  0  0  0  0  0  0  0  0  0
    5.7180   -0.2730   -0.3910 C   0  0  0  0  0  0  0  0  0  0  0  0
    4.6700   -1.1830   -0.6640 N   0  0  0  0  0  0  0  0  0  0  0  0
    4.7430   -2.5730   -0.5210 C   0  0  0  0  0  0  0  0  0  0  0  0
    5.8050   -3.1150   -0.1300 O   0  0  0  0  0  0  0  0  0  0  0  0
    3.5960   -3.5130   -0.8150 C   0  0  0  0  0  0  0  0  0  0  0  0
    2.3970   -2.8230   -1.1890 N   0  0  0  0  0  0  0  0  0  0  0  0
    1.6860   -1.9490   -0.3380 C   0  0  0  0  0  0  0  0  0  0  0  0
    2.1410   -1.7760    0.8370 O   0  0  0  0  0  0  0  0  0  0  0  0
    0.4490   -1.2390   -0.7600 C   0  0  0  0  0  0  0  0  0  0  0  0
   -0.0190   -0.4240    0.3680 N   0  0  0  0  0  0  0  0  0  0  0  0
   -1.2160    0.3730    0.2350 C   0  0  0  0  0  0  0  0  0  0  0  0
   -1.7670    0.2730   -0.9150 O   0  0  0  0  0  0  0  0  0  0  0  0
   -1.7170    1.1760    1.2790 N   0  0  0  0  0  0  0  0  0  0  0  0
   -1.0130    1.2490    2.5540 C   0  0  0  0  0  0  0  0  0  0  0  0
   -1.6660    0.3850    3.5990 C   0  0  0  0  0  0  0  0  0  0  0  0
   -3.4770    0.6940    3.4940 S   0  0  0  0  0  0  0  0  0  0  0  0
   -3.6670    2.1340    2.4240 C   0  0  0  0  0  0  0  0  0  0  0  0
   -2.9310    1.9280    1.1150 C   0  0  2  0  0  0  0  0  0  0  0  0
   -3.8290    1.5110    0.0100 C   0  0  0  0  0  0  0  0  0  0  0  0
   -4.3130    0.1190    0.0930 C   0  0  0  0  0  0  0  0  0  0  0  0
   -3.9770   -0.6290    1.0410 O   0  0  0  0  0  0  0  0  0  0  0  0
   -5.1830   -0.4240   -0.9050 N   0  0  0  0  0  0  0  0  0  0  0  0
   -5.6590   -1.7900   -0.8270 C   0  0  0  0  0  0  0  0  0  0  0  0
   -7.1370   -1.8000   -1.0890 C   0  0  0  0  0  0  0  0  0  0  0  0
   -7.3700   -1.1410   -2.2900 O   0  0  0  0  0  0  0  0  0  0  0  0
   -7.1190    0.2150   -2.1550 C   0  0  0  0  0  0  0  0  0  0  0  0
   -5.6170    0.3950   -2.0410 C   0  0  0  0  0  0  0  0  0  0  0  0
    6.9830   -0.5760    0.0180 C   0  0  0  0  0  0  0  0  0  0  0  0
    7.9420    0.4280    0.2560 C   0  0  0  0  0  0  0  0  0  0  0  0
  1  2  1  0
  2  3  2  0
  2 33  1  0
  3  4  1  0
  4  5  2  0
  5  6  1  0
  5 32  1  0
  6  7  1  0
  7  8  2  0
  7  9  1  0
  9 10  1  0
 10 11  1  0
 11 12  2  0
 11 13  1  0
 13 14  1  0
 14 15  1  0
 15 16  2  0
 15 17  1  0
 17 18  1  0
 17 22  1  0
 18 19  1  0
 19 20  1  0
 20 21  1  0
 21 22  1  0
 22 23  1  6
 23 24  1  0
 24 25  2  0
 24 26  1  0
 26 27  1  0
 26 31  1  0
 27 28  1  0
 28 29  1  0
 29 30  1  0
 30 31  1  0
 32 33  2  0
M  CHG  1   1   1
M  END
