
     RDKit          3D

 33 35  0  0  0  0  0  0  0  0999 V2000
    2.0180    3.4380   -0.4610 O   0  0  0  0  0  0  0  0  0  0  0  0
    2.6110    2.4190   -0.8950 C   0  0  0  0  0  0  0  0  0  0  0  0
    1.7770    1.3390   -1.4800 C   0  0  0  0  0  0  0  0  0  0  0  0
    1.2090    0.5310   -0.3380 C   0  0  1  0  0  0  0  0  0  0  0  0
   -0.1360    1.0250    0.0690 C   0  0  0  0  0  0  0  0  0  0  0  0
   -0.2200    2.2270    0.3360 O   0  0  0  0  0  0  0  0  0  0  0  0
   -1.2580    0.1760    0.1480 N   0  0  0  0  0  0  0  0  0  0  0  0
   -2.5750    0.5590    0.5190 C   0  0  0  0  0  0  0  0  0  0  0  0
   -2.9340    1.8880    0.6320 C   0  0  0  0  0  0  0  0  0  0  0  0
   -4.2400    2.2980    0.9460 C   0  0  0  0  0  0  0  0  0  0  0  0
   -4.5670    3.6880    1.0530 N   0  0  0  0  0  0  0  0  0  0  0  0
   -3.6120    4.7320    0.8550 C   0  0  0  0  0  0  0  0  0  0  0  0
   -4.2320    5.9530    1.0260 F   0  0  0  0  0  0  0  0  0  0  0  0
   -5.1470    1.2940    1.1340 C   0  0  0  0  0  0  0  0  0  0  0  0
   -4.8450   -0.0360    1.0350 C   0  0  0  0  0  0  0  0  0  0  0  0
   -3.5550   -0.4210    0.7260 C   0  0  0  0  0  0  0  0  0  0  0  0
   -3.2440   -1.8020    0.6930 N   0  0  0  0  0  0  0  0  0  0  0  0
   -4.2170   -2.8700    0.6610 C   0  0  0  0  0  0  0  0  0  0  0  0
   -4.9350   -2.9860   -0.6610 C   0  0  1  0  0  0  0  0  0  0  0  0
   -5.9380   -4.0990   -0.7710 C   0  0  0  0  0  0  0  0  0  0  0  0
   -6.3610   -2.6920   -0.7830 C   0  0  0  0  0  0  0  0  0  0  0  0
    1.1960   -0.8820   -0.6390 N   0  0  0  0  0  0  0  0  0  0  0  0
    1.1290   -1.7060    0.5580 C   0  0  0  0  0  0  0  0  0  0  0  0
    2.4790   -2.2180    0.9670 C   0  0  0  0  0  0  0  0  0  0  0  0
    3.5140   -1.6400    0.1400 N   0  0  0  0  0  0  0  0  0  0  0  0
    4.9180   -1.2940    1.0820 S   0  0  1  0  0  0  0  0  0  0  0  0
    4.5680   -0.2490    2.0820 O   0  0  0  0  0  0  0  0  0  0  0  0
    5.3380   -2.5380    1.8340 O   0  0  0  0  0  0  0  0  0  0  0  0
    6.2290   -0.7150    0.0630 C   0  0  0  0  0  0  0  0  0  0  0  0
    6.4280    0.7690    0.1200 C   0  0  0  0  0  0  0  0  0  0  0  0
    6.2140    1.4410   -1.2150 C   0  0  0  0  0  0  0  0  0  0  0  0
    4.7670    1.4400   -1.6290 C   0  0  0  0  0  0  0  0  0  0  0  0
    4.0270    2.3760   -0.7960 N   0  0  0  0  0  0  0  0  0  0  0  0
  1  2  2  0
  2  3  1  0
  2 33  1  0
  3  4  1  0
  4  5  1  6
  4 22  1  0
  5  6  2  0
  5  7  1  0
  7  8  1  0
  8  9  2  0
  8 16  1  0
  9 10  1  0
 10 11  1  0
 10 14  2  0
 11 12  1  0
 12 13  1  0
 14 15  1  0
 15 16  2  0
 16 17  1  0
 17 18  1  0
 19 18  1  1
 19 20  1  0
 19 21  1  0
 20 21  1  0
 22 23  1  0
 23 24  1  0
 24 25  1  0
 25 26  1  0
 26 27  2  0
 26 28  2  0
 26 29  1  6
 29 30  1  0
 30 31  1  0
 31 32  1  0
 32 33  1  0
M  CHG  1  22   1
M  END
