
     RDKit          3D

 33 34  0  0  0  0  0  0  0  0999 V2000
   -1.4110   -0.9550   -3.7310 C   0  0  0  0  0  0  0  0  0  0  0  0
   -1.4350   -1.9840   -2.6210 C   0  0  0  0  0  0  0  0  0  0  0  0
   -2.0400   -1.4180   -1.3810 C   0  0  0  0  0  0  0  0  0  0  0  0
   -3.3320   -1.7330   -1.0080 N   0  0  0  0  0  0  0  0  0  0  0  0
   -3.6500   -1.1070    0.1020 N   0  0  0  0  0  0  0  0  0  0  0  0
   -4.9620   -1.3320    0.7400 C   0  0  0  0  0  0  0  0  0  0  0  0
   -4.7230   -2.5980    1.5940 C   0  0  0  0  0  0  0  0  0  0  0  0
   -2.6250   -0.3610    0.5230 C   0  0  0  0  0  0  0  0  0  0  0  0
   -2.6180    0.5350    1.6650 C   0  0  0  0  0  0  0  0  0  0  0  0
   -1.7230    0.5270    2.5280 O   0  0  0  0  0  0  0  0  0  0  0  0
   -3.6640    1.4860    1.8350 N   0  0  0  0  0  0  0  0  0  0  0  0
   -3.7990    2.4020    2.8810 C   0  0  0  0  0  0  0  0  0  0  0  0
   -4.9580    3.2810    2.8450 N   0  0  0  0  0  0  0  0  0  0  0  0
   -2.9570    2.4670    3.8160 N   0  0  0  0  0  0  0  0  0  0  0  0
   -1.5970   -0.5600   -0.4220 C   0  0  0  0  0  0  0  0  0  0  0  0
   -0.2920    0.0850   -0.3230 C   0  0  0  0  0  0  0  0  0  0  0  0
   -0.1920    0.9700    0.5970 O   0  0  0  0  0  0  0  0  0  0  0  0
    0.8220   -0.1760   -1.1250 N   0  0  0  0  0  0  0  0  0  0  0  0
    2.1630    0.3360   -1.0180 C   0  0  0  0  0  0  0  0  0  0  0  0
    2.9430    0.0240   -2.0850 C   0  0  0  0  0  0  0  0  0  0  0  0
    2.4730   -0.7590   -3.2350 C   0  0  2  0  0  0  0  0  0  0  0  0
    3.2300   -2.0910   -3.3470 C   0  0  0  0  0  0  0  0  0  0  0  0
    2.9600   -0.0310   -4.3800 F   0  0  0  0  0  0  0  0  0  0  0  0
    4.3560    0.4960   -2.2040 C   0  0  0  0  0  0  0  0  0  0  0  0
    4.7670    1.4580   -1.1840 C   0  0  0  0  0  0  0  0  0  0  0  0
    4.0810    1.7560   -0.1200 C   0  0  0  0  0  0  0  0  0  0  0  0
    4.5180    2.7240    0.9080 C   0  0  0  0  0  0  0  0  0  0  0  0
    2.6730    1.1560    0.0060 C   0  0  0  0  0  0  0  0  0  0  0  0
    2.4450    0.9370    1.3090 C   0  0  0  0  0  0  0  0  0  0  0  0
    1.7240   -0.1270    1.9670 C   0  0  0  0  0  0  0  0  0  0  0  0
    2.9240   -0.9690    3.1120 S   0  0  2  0  0  0  0  0  0  0  0  0
    4.1490   -1.3250    2.3730 O   0  0  0  0  0  0  0  0  0  0  0  0
    2.2850   -2.2030    3.6530 O   0  0  0  0  0  0  0  0  0  0  0  0
  1  2  1  0
  2  3  1  0
  3  4  2  0
  3 15  1  0
  4  5  1  0
  5  6  1  0
  5  8  1  0
  6  7  1  0
  8  9  1  0
  8 15  2  0
  9 10  2  0
  9 11  1  0
 11 12  1  0
 12 13  1  0
 12 14  2  0
 15 16  1  0
 16 17  2  0
 16 18  1  0
 18 19  1  0
 19 20  2  0
 19 28  1  0
 20 21  1  0
 20 24  1  0
 21 22  1  1
 21 23  1  0
 24 25  1  0
 25 26  2  0
 26 27  1  0
 26 28  1  0
 28 29  2  3
 29 30  1  0
 31 30  1  6
 31 32  2  0
 31 33  2  0
M  CHG  1  14   1
M  END
