
     RDKit          3D

 33 34  0  0  0  0  0  0  0  0999 V2000
   -7.4460   -0.7650    1.9660 C   0  0  0  0  0  0  0  0  0  0  0  0
   -6.1490   -0.4720    1.3320 C   0  0  0  0  0  0  0  0  0  0  0  0
   -6.0590    0.3180    0.2950 C   0  0  0  0  0  0  0  0  0  0  0  0
   -7.3250    0.8930   -0.1800 C   0  0  0  0  0  0  0  0  0  0  0  0
   -8.4260    0.0840   -0.2190 O   0  0  0  0  0  0  0  0  0  0  0  0
   -7.4210    2.1820   -0.5690 C   0  0  0  0  0  0  0  0  0  0  0  0
   -6.4060    3.2440   -0.6180 C   0  0  0  0  0  0  0  0  0  0  0  0
   -5.0850    3.0610   -0.6680 C   0  0  0  0  0  0  0  0  0  0  0  0
   -4.3310    1.7810   -0.6880 C   0  0  0  0  0  0  0  0  0  0  0  0
   -4.7300    0.5660   -0.2770 C   0  0  0  0  0  0  0  0  0  0  0  0
   -3.8100   -0.5350   -0.3590 C   0  0  0  0  0  0  0  0  0  0  0  0
   -4.0350   -1.7840   -0.0900 C   0  0  0  0  0  0  0  0  0  0  0  0
   -2.9740   -2.7490   -0.2270 N   0  0  0  0  0  0  0  0  0  0  0  0
   -3.2400   -4.0550   -0.7890 C   0  0  0  0  0  0  0  0  0  0  0  0
   -2.4510   -0.2510   -0.7730 N   0  0  0  0  0  0  0  0  0  0  0  0
   -1.6160    0.5650    0.0270 C   0  0  0  0  0  0  0  0  0  0  0  0
   -1.9810    1.0730    1.1170 O   0  0  0  0  0  0  0  0  0  0  0  0
   -0.2610    0.8540   -0.3980 N   0  0  0  0  0  0  0  0  0  0  0  0
    0.5510    1.6830    0.4400 C   0  0  0  0  0  0  0  0  0  0  0  0
    1.9130    1.9280   -0.0620 C   0  0  0  0  0  0  0  0  0  0  0  0
    2.6770    2.6580    0.6430 O   0  0  0  0  0  0  0  0  0  0  0  0
    2.4640    1.4360   -1.2510 N   0  0  0  0  0  0  0  0  0  0  0  0
    3.8100    1.7120   -1.6910 C   0  0  0  0  0  0  0  0  0  0  0  0
    4.8660    1.2490   -0.7450 C   0  0  0  0  0  0  0  0  0  0  0  0
    4.8660   -0.1600   -0.4860 N   0  0  1  0  0  0  0  0  0  0  0  0
    4.5770   -0.9760   -1.6180 C   0  0  0  0  0  0  0  0  0  0  0  0
    6.1320   -0.5320    0.0590 C   0  0  2  0  0  0  0  0  0  0  0  0
    6.1430   -1.8510    0.7660 C   0  0  0  0  0  0  0  0  0  0  0  0
    7.6330   -2.0770    1.0430 C   0  0  0  0  0  0  0  0  0  0  0  0
    8.0840   -0.4540    1.6720 S   0  0  1  0  0  0  0  0  0  0  0  0
    8.1300   -0.4540    3.1590 O   0  0  0  0  0  0  0  0  0  0  0  0
    9.3230    0.0560    1.0300 O   0  0  0  0  0  0  0  0  0  0  0  0
    6.6710    0.4800    1.0610 C   0  0  0  0  0  0  0  0  0  0  0  0
  1  2  1  0
  2  3  2  3
  3  4  1  0
  3 10  1  0
  4  5  1  0
  4  6  2  0
  6  7  1  0
  7  8  2  0
  8  9  1  0
  9 10  2  0
 10 11  1  0
 11 12  2  3
 11 15  1  0
 12 13  1  0
 13 14  1  0
 15 16  1  0
 16 17  2  0
 16 18  1  0
 18 19  1  0
 19 20  1  0
 20 21  2  0
 20 22  1  0
 22 23  1  0
 23 24  1  0
 24 25  1  0
 25 26  1  6
 25 27  1  0
 27 28  1  1
 27 33  1  0
 28 29  1  0
 30 29  1  6
 30 31  2  0
 30 32  2  0
 30 33  1  0
M  CHG  1  25   1
M  END
