
     RDKit          3D

 32 34  0  0  0  0  0  0  0  0999 V2000
    9.7390    2.3490   -0.8390 C   0  0  0  0  0  0  0  0  0  0  0  0
    8.6310    1.3280   -0.9670 C   0  0  0  0  0  0  0  0  0  0  0  0
    7.7330    1.5220    0.2320 C   0  0  2  0  0  0  0  0  0  0  0  0
    8.4890    1.3060    1.4930 C   0  0  0  0  0  0  0  0  0  0  0  0
    8.9380   -0.0070    1.6040 O   0  0  0  0  0  0  0  0  0  0  0  0
    6.5830    0.6650    0.1810 N   0  0  0  0  0  0  0  0  0  0  0  0
    5.3120    1.1370    0.1180 C   0  0  0  0  0  0  0  0  0  0  0  0
    5.1440    2.4360    0.1050 O   0  0  0  0  0  0  0  0  0  0  0  0
    4.1330    0.4970    0.0610 N   0  0  0  0  0  0  0  0  0  0  0  0
    2.9360   -0.0940    0.0020 C   0  0  0  0  0  0  0  0  0  0  0  0
    2.0100    0.8230   -0.0510 O   0  0  0  0  0  0  0  0  0  0  0  0
    2.5690   -1.3970   -0.0100 N   0  0  0  0  0  0  0  0  0  0  0  0
    1.1500   -1.6890   -0.0910 C   0  0  0  0  0  0  0  0  0  0  0  0
    0.6170   -1.1760   -1.3450 C   0  0  0  0  0  0  0  0  0  0  0  0
    1.5700   -0.2990   -2.5970 S   0  0  0  0  0  0  0  0  0  0  0  0
    0.1810   -0.0520   -3.7560 C   0  0  0  0  0  0  0  0  0  0  0  0
   -0.8520   -0.6520   -3.0830 C   0  0  0  0  0  0  0  0  0  0  0  0
   -0.6670   -1.2110   -1.8990 C   0  0  0  0  0  0  0  0  0  0  0  0
   -1.7380   -1.8920   -1.0960 C   0  0  0  0  0  0  0  0  0  0  0  0
   -2.4090   -2.8960   -1.5510 N   0  0  0  0  0  0  0  0  0  0  0  0
   -3.3680   -3.3620   -0.5940 C   0  0  0  0  0  0  0  0  0  0  0  0
   -3.5110   -2.1770    0.3500 C   0  0  2  0  0  0  0  0  0  0  0  0
   -4.5070   -1.2250   -0.2750 C   0  0  0  0  0  0  0  0  0  0  0  0
   -4.7580   -0.0200    0.5330 C   0  0  0  0  0  0  0  0  0  0  0  0
   -3.8150    0.8430    0.5600 O   0  0  0  0  0  0  0  0  0  0  0  0
   -5.9210    0.2600    1.2630 N   0  0  0  0  0  0  0  0  0  0  0  0
   -6.0340    1.4910    2.0130 C   0  0  0  0  0  0  0  0  0  0  0  0
   -7.4700    1.9800    1.8300 C   0  0  0  0  0  0  0  0  0  0  0  0
   -7.9550    1.5260    0.4620 C   0  0  0  0  0  0  0  0  0  0  0  0
   -8.1420    0.0230    0.4580 C   0  0  0  0  0  0  0  0  0  0  0  0
   -7.0530   -0.6350    1.3160 C   0  0  0  0  0  0  0  0  0  0  0  0
   -2.1870   -1.5600    0.2020 N   0  0  0  0  0  0  0  0  0  0  0  0
  1  2  1  0
  3  2  1  6
  3  4  1  0
  3  6  1  0
  4  5  1  0
  6  7  1  0
  7  8  2  0
  7  9  1  0
  9 10  1  0
 10 11  2  0
 10 12  1  0
 12 13  1  0
 13 14  1  0
 14 15  1  0
 14 18  2  0
 15 16  1  0
 16 17  2  0
 17 18  1  0
 18 19  1  0
 19 20  2  0
 19 32  1  0
 20 21  1  0
 21 22  1  0
 22 23  1  6
 22 32  1  0
 23 24  1  0
 24 25  2  0
 24 26  1  0
 26 27  1  0
 26 31  1  0
 27 28  1  0
 28 29  1  0
 29 30  1  0
 30 31  1  0
M  CHG  1  20   1
M  END
