
     RDKit          3D

 28 32  0  0  0  0  0  0  0  0999 V2000
   -6.3670   -2.4540    0.2940 C   0  0  0  0  0  0  0  0  0  0  0  0
   -4.8690   -2.4900    0.3170 C   0  0  0  0  0  0  0  0  0  0  0  0
   -4.2730   -1.1300   -0.0480 C   0  0  1  0  0  0  0  0  0  0  0  0
   -4.7080   -0.0500    0.9100 C   0  0  0  0  0  0  0  0  0  0  0  0
   -4.2160    1.2630    0.4050 C   0  0  1  0  0  0  0  0  0  0  0  0
   -4.1750    2.2750    1.3370 O   0  0  0  0  0  0  0  0  0  0  0  0
   -3.4110    3.2370    0.6350 C   0  0  0  0  0  0  0  0  0  0  0  0
   -2.1620    2.3890    0.3510 C   0  0  0  0  0  0  0  0  0  0  0  0
   -2.7930    1.1140   -0.1440 C   0  0  1  0  0  0  0  0  0  0  0  0
   -2.1600   -0.0720    0.4150 N   0  0  2  0  0  0  0  0  0  0  0  0
   -0.7640    0.0590    0.3840 C   0  0  0  0  0  0  0  0  0  0  0  0
    0.0470   -0.8400   -0.4710 C   0  0  1  0  0  0  0  0  0  0  0  0
   -0.2650   -0.7190   -1.9410 C   0  0  0  0  0  0  0  0  0  0  0  0
    1.0400   -0.2160   -2.5760 C   0  0  0  0  0  0  0  0  0  0  0  0
    2.0780   -0.7910   -1.6790 C   0  0  0  0  0  0  0  0  0  0  0  0
    1.4810   -0.6620   -0.3350 N   0  0  0  0  0  0  0  0  0  0  0  0
    2.2860   -0.4110    0.7970 C   0  0  0  0  0  0  0  0  0  0  0  0
    1.8320   -0.2950    1.9620 O   0  0  0  0  0  0  0  0  0  0  0  0
    3.7540   -0.2650    0.6900 C   0  0  0  0  0  0  0  0  0  0  0  0
    4.6850   -1.2790    0.7880 C   0  0  0  0  0  0  0  0  0  0  0  0
    4.4370   -2.7330    1.0190 C   0  0  0  0  0  0  0  0  0  0  0  0
    5.9240   -0.7580    0.6380 N   0  0  0  0  0  0  0  0  0  0  0  0
    5.8340    0.5710    0.4450 C   0  0  0  0  0  0  0  0  0  0  0  0
    4.4850    0.8850    0.4760 C   0  0  0  0  0  0  0  0  0  0  0  0
    4.3950    2.3470    0.2630 C   0  0  0  0  0  0  0  0  0  0  0  0
    5.5990    2.6250   -0.5080 N   0  0  0  0  0  0  0  0  0  0  0  0
    6.5940    1.8250    0.2140 C   0  0  0  0  0  0  0  0  0  0  0  0
   -2.7520   -1.2310   -0.1680 C   0  0  0  0  0  0  0  0  0  0  0  0
  1  2  1  0
  3  2  1  1
  3  4  1  0
  3 28  1  0
  5  4  1  1
  5  6  1  0
  5  9  1  0
  6  7  1  0
  7  8  1  0
  9  8  1  1
  9 10  1  0
 10 11  1  6
 10 28  1  0
 12 11  1  1
 12 13  1  0
 12 16  1  0
 13 14  1  0
 14 15  1  0
 15 16  1  0
 16 17  1  0
 17 18  2  0
 17 19  1  0
 19 20  2  0
 19 24  1  0
 20 21  1  0
 20 22  1  0
 22 23  1  0
 23 24  2  0
 23 27  1  0
 24 25  1  0
 25 26  1  0
 26 27  1  0
M  CHG  2  10   1  26   1
M  END
