
     RDKit          3D

 28 32  0  0  0  0  0  0  0  0999 V2000
   -1.0410   -0.4430    1.5860 O   0  0  0  0  0  0  0  0  0  0  0  0
   -0.8480    0.3470    0.6340 C   0  0  0  0  0  0  0  0  0  0  0  0
   -1.7450    0.3650   -0.4560 N   0  0  0  0  0  0  0  0  0  0  0  0
   -2.9170   -0.4020   -0.6290 C   0  0  0  0  0  0  0  0  0  0  0  0
   -4.1070   -0.1130    0.2390 C   0  0  2  0  0  0  0  0  0  0  0  0
   -3.9790   -0.2260    1.7000 C   0  0  0  0  0  0  0  0  0  0  0  0
   -3.9590   -1.6370    2.2150 C   0  0  0  0  0  0  0  0  0  0  0  0
   -5.3120   -2.2490    1.8840 C   0  0  0  0  0  0  0  0  0  0  0  0
   -6.0390   -1.3620    0.9150 C   0  0  0  0  0  0  0  0  0  0  0  0
   -5.2010   -1.0050   -0.1930 N   0  0  1  0  0  0  0  0  0  0  0  0
   -5.9900   -0.2880   -1.1620 C   0  0  0  0  0  0  0  0  0  0  0  0
   -6.0030    1.1390   -0.6570 C   0  0  0  0  0  0  0  0  0  0  0  0
   -4.6510    1.2880   -0.0460 C   0  0  0  0  0  0  0  0  0  0  0  0
    0.3380    1.2780    0.6450 C   0  0  1  0  0  0  0  0  0  0  0  0
    1.5930    0.4810    0.5140 C   0  0  0  0  0  0  0  0  0  0  0  0
    2.4360    1.2970   -0.3840 C   0  0  0  0  0  0  0  0  0  0  0  0
    3.8790    1.0970   -0.5860 C   0  0  0  0  0  0  0  0  0  0  0  0
    4.6180    1.8880   -1.4380 C   0  0  0  0  0  0  0  0  0  0  0  0
    5.9720    1.6900   -1.6200 C   0  0  0  0  0  0  0  0  0  0  0  0
    6.6510    0.6800   -0.9490 C   0  0  0  0  0  0  0  0  0  0  0  0
    5.9100   -0.1040   -0.1030 C   0  0  0  0  0  0  0  0  0  0  0  0
    4.5430    0.0950    0.0820 C   0  0  0  0  0  0  0  0  0  0  0  0
    6.6190   -1.1590    0.5990 C   0  0  0  0  0  0  0  0  0  0  0  0
    7.8870   -1.3280    0.4160 C   0  0  0  0  0  0  0  0  0  0  0  0
    8.6800   -0.5610   -0.4300 N   0  0  0  0  0  0  0  0  0  0  0  0
    8.1050    0.4930   -1.1660 C   0  0  0  0  0  0  0  0  0  0  0  0
    1.6790    2.1800   -0.9280 N   0  0  0  0  0  0  0  0  0  0  0  0
    0.3750    2.0790   -0.5100 O   0  0  0  0  0  0  0  0  0  0  0  0
  1  2  2  0
  2  3  1  0
 14  2  1  6
  3  4  1  0
  5  4  1  6
  5  6  1  0
  5 10  1  0
  5 13  1  0
  6  7  1  0
  7  8  1  0
  8  9  1  0
 10  9  1  1
 10 11  1  0
 11 12  1  0
 12 13  1  0
 14 15  1  0
 14 28  1  0
 15 16  1  0
 16 17  1  0
 16 27  2  0
 17 18  2  0
 17 22  1  0
 18 19  1  0
 19 20  2  0
 20 21  1  0
 20 26  1  0
 21 22  2  0
 21 23  1  0
 23 24  2  0
 24 25  1  0
 25 26  1  0
 27 28  1  0
M  CHG  2  10   1  25   1
M  END
