
     RDKit          3D

 28 31  0  0  0  0  0  0  0  0999 V2000
    8.0170    2.3220   -0.0760 C   0  0  0  0  0  0  0  0  0  0  0  0
    6.7770    1.8130    0.0000 C   0  0  0  0  0  0  0  0  0  0  0  0
    6.5610    0.4940   -0.5600 C   0  0  0  0  0  0  0  0  0  0  0  0
    5.3740   -0.0480   -0.5120 C   0  0  0  0  0  0  0  0  0  0  0  0
    4.1970    0.5450    0.0620 C   0  0  0  0  0  0  0  0  0  0  0  0
    3.0100   -0.0850    0.0680 C   0  0  0  0  0  0  0  0  0  0  0  0
    2.7550   -1.3780   -0.4690 N   0  0  0  0  0  0  0  0  0  0  0  0
    1.3720   -1.7030   -0.2720 C   0  0  0  0  0  0  0  0  0  0  0  0
    0.8280   -2.8180   -0.3560 O   0  0  0  0  0  0  0  0  0  0  0  0
    0.6950   -0.4440    0.0580 C   0  0  1  0  0  0  0  0  0  0  0  0
    0.1360    0.1390   -1.2160 C   0  0  0  0  0  0  0  0  0  0  0  0
   -1.0150    1.0330   -0.8500 C   0  0  0  0  0  0  0  0  0  0  0  0
   -2.2170    0.2410   -0.3650 C   0  0  2  0  0  0  0  0  0  0  0  0
   -3.1110    1.1810    0.2580 N   0  0  0  0  0  0  0  0  0  0  0  0
   -4.4630    1.1160   -0.3170 C   0  0  2  0  0  0  0  0  0  0  0  0
   -5.2920    2.0390    0.5400 C   0  0  0  0  0  0  0  0  0  0  0  0
   -5.6280    1.1030    1.6610 C   0  0  0  0  0  0  0  0  0  0  0  0
   -5.7880    1.4830    2.8450 O   0  0  0  0  0  0  0  0  0  0  0  0
   -5.7200   -0.1940    1.1440 N   0  0  0  0  0  0  0  0  0  0  0  0
   -6.2510   -1.4990    1.3150 C   0  0  0  0  0  0  0  0  0  0  0  0
   -6.6600   -1.8470   -0.1250 C   0  0  0  0  0  0  0  0  0  0  0  0
   -6.0700   -0.7280   -1.0010 C   0  0  0  0  0  0  0  0  0  0  0  0
   -4.9730   -0.2300   -0.0820 C   0  0  1  0  0  0  0  0  0  0  0  0
   -1.7360   -0.8260    0.5690 C   0  0  0  0  0  0  0  0  0  0  0  0
   -0.3510   -0.5620    1.1070 C   0  0  0  0  0  0  0  0  0  0  0  0
    1.7840    0.3630    0.5870 N   0  0  0  0  0  0  0  0  0  0  0  0
    7.7180   -0.2260   -1.1880 C   0  0  0  0  0  0  0  0  0  0  0  0
    7.2940   -1.5690   -1.7060 C   0  0  0  0  0  0  0  0  0  0  0  0
  1  2  2  0
  2  3  1  0
  3  4  2  3
  3 27  1  0
  4  5  1  0
  5  6  2  3
  6  7  1  0
  6 26  1  0
  7  8  1  0
  8  9  2  0
  8 10  1  0
 10 11  1  6
 10 25  1  0
 10 26  1  0
 11 12  1  0
 12 13  1  0
 13 14  1  1
 13 24  1  0
 15 14  1  1
 15 16  1  0
 15 23  1  0
 16 17  1  0
 17 18  2  0
 17 19  1  0
 19 20  1  0
 19 23  1  0
 20 21  1  0
 21 22  1  0
 23 22  1  6
 24 25  1  0
 27 28  1  0
M  CHG  1  14   1
M  END
