
     RDKit          3D

 28 32  0  0  0  0  0  0  0  0999 V2000
    3.0750    0.1150    3.6290 C   0  0  0  0  0  0  0  0  0  0  0  0
    2.9390   -0.0130    2.1210 C   0  0  0  0  0  0  0  0  0  0  0  0
    3.6670   -1.0170    1.5680 C   0  0  0  0  0  0  0  0  0  0  0  0
    3.5580   -1.1530    0.2150 C   0  0  0  0  0  0  0  0  0  0  0  0
    2.7440   -0.3180   -0.6050 C   0  0  0  0  0  0  0  0  0  0  0  0
    2.0230    0.6950    0.0150 C   0  0  0  0  0  0  0  0  0  0  0  0
    2.0930    0.8800    1.3910 C   0  0  0  0  0  0  0  0  0  0  0  0
    1.4280    1.8390    2.2770 C   0  0  0  0  0  0  0  0  0  0  0  0
    2.1530    2.3740    3.2070 O   0  0  0  0  0  0  0  0  0  0  0  0
    0.0540    2.3130    2.3050 N   0  0  0  0  0  0  0  0  0  0  0  0
   -1.0520    1.8550    1.4550 C   0  0  0  0  0  0  0  0  0  0  0  0
   -1.6250    3.0450    0.8990 C   0  0  0  0  0  0  0  0  0  0  0  0
   -2.6450    3.1160   -0.0060 C   0  0  0  0  0  0  0  0  0  0  0  0
   -3.1450    1.9180   -0.4010 C   0  0  0  0  0  0  0  0  0  0  0  0
   -2.6260    0.7610    0.1080 C   0  0  0  0  0  0  0  0  0  0  0  0
   -1.5630    0.6910    1.0580 C   0  0  0  0  0  0  0  0  0  0  0  0
   -1.2120   -0.6910    1.5350 C   0  0  0  0  0  0  0  0  0  0  0  0
   -2.0260   -1.7690    1.1340 N   0  0  0  0  0  0  0  0  0  0  0  0
   -1.9450   -2.2270   -0.2110 C   0  0  0  0  0  0  0  0  0  0  0  0
   -2.3630   -1.2690   -1.1910 N   0  0  0  0  0  0  0  0  0  0  0  0
   -3.3450   -0.3680   -0.6010 C   0  0  0  0  0  0  0  0  0  0  0  0
   -1.2240   -0.5680   -1.6990 C   0  0  0  0  0  0  0  0  0  0  0  0
   -0.4750   -1.1840   -2.8100 C   0  0  1  0  0  0  0  0  0  0  0  0
   -0.3620   -0.5890   -4.1530 C   0  0  0  0  0  0  0  0  0  0  0  0
    0.6630   -0.2030   -3.1590 C   0  0  2  0  0  0  0  0  0  0  0  0
    1.9260   -0.9260   -3.0230 C   0  0  0  0  0  0  0  0  0  0  0  0
    2.1200   -1.7720   -3.9830 O   0  0  0  0  0  0  0  0  0  0  0  0
    2.8440   -0.7320   -1.9660 N   0  0  0  0  0  0  0  0  0  0  0  0
  1  2  1  0
  2  3  2  0
  2  7  1  0
  3  4  1  0
  4  5  2  0
  5  6  1  0
  5 28  1  0
  6  7  2  0
  7  8  1  0
  8  9  2  0
  8 10  1  0
 10 11  1  0
 11 12  1  0
 11 16  2  0
 12 13  2  0
 13 14  1  0
 14 15  2  0
 15 16  1  0
 15 21  1  0
 16 17  1  0
 17 18  1  0
 18 19  1  0
 19 20  1  0
 20 21  1  0
 20 22  1  0
 23 22  1  1
 23 24  1  0
 23 25  1  0
 25 24  1  6
 25 26  1  0
 26 27  2  0
 26 28  1  0
M  CHG  1  18   1
M  END
