
     RDKit          3D

 24 26  0  0  0  0  0  0  0  0999 V2000
   -6.7190   -0.8440   -0.3180 N   0  0  0  0  0  0  0  0  0  0  0  0
   -5.3180   -0.8770   -0.0870 C   0  0  0  0  0  0  0  0  0  0  0  0
   -4.7190   -2.0940    0.1240 C   0  0  0  0  0  0  0  0  0  0  0  0
   -3.3690   -2.2010    0.3540 C   0  0  0  0  0  0  0  0  0  0  0  0
   -2.6020   -1.0320    0.3710 C   0  0  0  0  0  0  0  0  0  0  0  0
   -3.1410    0.2060    0.1680 C   0  0  0  0  0  0  0  0  0  0  0  0
   -2.4100    1.4150    0.1910 N   0  0  0  0  0  0  0  0  0  0  0  0
   -1.0880    1.5920    0.6390 C   0  0  0  0  0  0  0  0  0  0  0  0
   -0.4830    0.5990    1.0670 O   0  0  0  0  0  0  0  0  0  0  0  0
   -0.4780    2.8960    0.5920 C   0  0  0  0  0  0  0  0  0  0  0  0
   -1.2150    3.8350    0.1270 O   0  0  0  0  0  0  0  0  0  0  0  0
    0.8560    3.2020    1.0170 C   0  0  0  0  0  0  0  0  0  0  0  0
    1.8290    2.5360    1.5120 C   0  0  0  0  0  0  0  0  0  0  0  0
    1.9430    1.1930    1.8330 N   0  0  0  0  0  0  0  0  0  0  0  0
    2.6400    0.2640    0.9680 C   0  0  0  0  0  0  0  0  0  0  0  0
    2.7380   -1.0640    1.3130 C   0  0  0  0  0  0  0  0  0  0  0  0
    3.4180   -1.9400    0.4580 C   0  0  0  0  0  0  0  0  0  0  0  0
    3.9840   -1.4900   -0.7100 C   0  0  0  0  0  0  0  0  0  0  0  0
    4.6910   -2.1400   -1.6990 C   0  0  0  0  0  0  0  0  0  0  0  0
    5.0280   -1.1820   -2.6620 C   0  0  0  0  0  0  0  0  0  0  0  0
    4.5270   -0.0080   -2.2400 N   0  0  0  0  0  0  0  0  0  0  0  0
    3.8930   -0.1630   -1.0660 C   0  0  0  0  0  0  0  0  0  0  0  0
    3.2090    0.6880   -0.1950 C   0  0  0  0  0  0  0  0  0  0  0  0
   -4.5260    0.2300   -0.0600 C   0  0  0  0  0  0  0  0  0  0  0  0
  1  2  1  0
  2  3  2  0
  2 24  1  0
  3  4  1  0
  4  5  2  0
  5  6  1  0
  6  7  1  0
  6 24  2  0
  7  8  1  0
  8  9  2  0
  8 10  1  0
 10 11  2  0
 10 12  1  0
 12 13  2  3
 13 14  1  0
 14 15  1  0
 15 16  2  0
 15 23  1  0
 16 17  1  0
 17 18  2  0
 18 19  1  0
 18 22  1  0
 19 20  2  0
 20 21  1  0
 21 22  1  0
 22 23  2  0
M  END
