
     RDKit          3D

 24 26  0  0  0  0  0  0  0  0999 V2000
    2.6130   -0.7810    2.0890 O   0  0  0  0  0  0  0  0  0  0  0  0
    2.5220   -0.9970    0.8850 C   0  0  0  0  0  0  0  0  0  0  0  0
    3.4990   -1.8780    0.1230 C   0  0  0  0  0  0  0  0  0  0  0  0
    4.6820   -0.8950   -0.0300 C   0  0  0  0  0  0  0  0  0  0  0  0
    5.6140   -0.8980   -1.0480 C   0  0  0  0  0  0  0  0  0  0  0  0
    6.4260    0.2280   -0.9400 C   0  0  0  0  0  0  0  0  0  0  0  0
    5.9630    0.8980    0.1610 C   0  0  0  0  0  0  0  0  0  0  0  0
    4.9060    0.2050    0.7090 N   0  0  0  0  0  0  0  0  0  0  0  0
    1.4590   -0.3940    0.1050 N   0  0  0  0  0  0  0  0  0  0  0  0
    0.6530    0.5390    0.8640 C   0  0  0  0  0  0  0  0  0  0  0  0
   -0.2790    1.3750    0.1320 C   0  0  0  0  0  0  0  0  0  0  0  0
    0.0450    2.7700    0.0830 C   0  0  0  0  0  0  0  0  0  0  0  0
    1.2970    3.0890    0.5770 O   0  0  0  0  0  0  0  0  0  0  0  0
   -0.7680    3.7380   -0.3990 C   0  0  0  0  0  0  0  0  0  0  0  0
   -2.0260    3.3290   -0.8850 C   0  0  0  0  0  0  0  0  0  0  0  0
   -2.3630    2.0370   -0.8510 C   0  0  0  0  0  0  0  0  0  0  0  0
   -1.4840    1.0100   -0.3270 C   0  0  0  0  0  0  0  0  0  0  0  0
   -2.0560   -0.3390   -0.2510 N   0  0  0  0  0  0  0  0  0  0  0  0
   -3.4220   -0.3650    0.1280 C   0  0  0  0  0  0  0  0  0  0  0  0
   -4.2800   -1.5210    0.0660 C   0  0  0  0  0  0  0  0  0  0  0  0
   -4.1640   -2.7150   -0.4250 C   0  0  0  0  0  0  0  0  0  0  0  0
   -5.4750   -3.4600   -0.1370 C   0  0  0  0  0  0  0  0  0  0  0  0
   -6.2410   -2.4810    0.5640 N   0  0  0  0  0  0  0  0  0  0  0  0
   -5.6660   -1.4100    0.7140 C   0  0  0  0  0  0  0  0  0  0  0  0
  1  2  2  0
  2  3  1  0
  2  9  1  0
  3  4  1  0
  4  5  2  0
  4  8  1  0
  5  6  1  0
  6  7  2  0
  7  8  1  0
  9 10  1  0
 10 11  1  0
 11 12  2  0
 11 17  1  0
 12 13  1  0
 12 14  1  0
 14 15  2  0
 15 16  1  0
 16 17  2  0
 17 18  1  0
 18 19  1  0
 19 20  1  0
 20 21  2  0
 20 24  1  0
 21 22  1  0
 22 23  1  0
 23 24  2  0
M  END
