
     RDKit          3D

 24 26  0  0  0  0  0  0  0  0999 V2000
   -5.7430   -0.8160   -0.7000 C   0  0  0  0  0  0  0  0  0  0  0  0
   -4.2170   -0.5030   -0.7380 C   0  0  1  0  0  0  0  0  0  0  0  0
   -3.6130   -1.5280   -1.6180 C   0  0  0  0  0  0  0  0  0  0  0  0
   -4.0640    0.8170   -1.1290 O   0  0  0  0  0  0  0  0  0  0  0  0
   -3.7430    1.6190   -0.1070 C   0  0  0  0  0  0  0  0  0  0  0  0
   -2.4800    1.4850    0.6140 C   0  0  0  0  0  0  0  0  0  0  0  0
   -1.5100    0.6450    0.4110 C   0  0  0  0  0  0  0  0  0  0  0  0
   -0.2510    0.5840    1.2080 C   0  0  0  0  0  0  0  0  0  0  0  0
    0.7320   -0.3900    0.8780 C   0  0  0  0  0  0  0  0  0  0  0  0
    0.4250   -1.1900   -0.1140 O   0  0  0  0  0  0  0  0  0  0  0  0
    2.0450   -0.6870    1.4300 C   0  0  0  0  0  0  0  0  0  0  0  0
    3.1210   -0.2600    0.5060 N   0  0  0  0  0  0  0  0  0  0  0  0
    3.7540    0.9080    0.4580 C   0  0  0  0  0  0  0  0  0  0  0  0
    4.6730    0.8490   -0.5610 C   0  0  0  0  0  0  0  0  0  0  0  0
    4.6020   -0.3880   -1.1520 C   0  0  0  0  0  0  0  0  0  0  0  0
    5.2750   -0.9990   -2.2080 C   0  0  0  0  0  0  0  0  0  0  0  0
    4.9840   -2.2900   -2.5950 C   0  0  0  0  0  0  0  0  0  0  0  0
    3.9930   -2.9840   -1.9060 C   0  0  0  0  0  0  0  0  0  0  0  0
    3.3350   -2.3610   -0.8590 C   0  0  0  0  0  0  0  0  0  0  0  0
    3.6240   -1.0550   -0.4620 C   0  0  0  0  0  0  0  0  0  0  0  0
   -0.1260    1.4430    2.1810 C   0  0  0  0  0  0  0  0  0  0  0  0
    1.0360    1.4540    2.9890 N   0  0  0  0  0  0  0  0  0  0  0  0
   -1.1600    2.4210    2.4850 N   0  0  0  0  0  0  0  0  0  0  0  0
   -2.3000    2.4220    1.7050 N   0  0  0  0  0  0  0  0  0  0  0  0
  2  1  1  6
  2  3  1  0
  2  4  1  0
  4  5  1  0
  5  6  1  0
  6  7  2  0
  6 24  1  0
  7  8  1  0
  8  9  1  0
  8 21  2  0
  9 10  2  0
  9 11  1  0
 11 12  1  0
 12 13  1  0
 12 20  1  0
 13 14  2  0
 14 15  1  0
 15 16  2  0
 15 20  1  0
 16 17  1  0
 17 18  2  0
 18 19  1  0
 19 20  2  0
 21 22  1  0
 21 23  1  0
 23 24  1  0
M  END
