
     RDKit          3D

 24 26  0  0  0  0  0  0  0  0999 V2000
    0.1910   -2.1230   -0.8780 O   0  0  0  0  0  0  0  0  0  0  0  0
    0.2830   -1.1480   -0.1120 C   0  0  0  0  0  0  0  0  0  0  0  0
    1.6130   -0.8010    0.5170 C   0  0  0  0  0  0  0  0  0  0  0  0
    2.6140   -1.7870    0.0240 C   0  0  0  0  0  0  0  0  0  0  0  0
    3.9980   -1.6410    0.4950 C   0  0  0  0  0  0  0  0  0  0  0  0
    4.7340   -0.4380    0.1400 C   0  0  0  0  0  0  0  0  0  0  0  0
    4.3470    0.5300   -0.7290 C   0  0  0  0  0  0  0  0  0  0  0  0
    5.1330    1.6470   -0.9630 C   0  0  0  0  0  0  0  0  0  0  0  0
    4.7290    2.5220   -1.7800 O   0  0  0  0  0  0  0  0  0  0  0  0
    6.3390    1.7910   -0.3070 C   0  0  0  0  0  0  0  0  0  0  0  0
    6.7180    0.7960    0.5730 C   0  0  0  0  0  0  0  0  0  0  0  0
    5.9340   -0.2720    0.7760 N   0  0  0  0  0  0  0  0  0  0  0  0
   -0.8400   -0.3700    0.1710 N   0  0  0  0  0  0  0  0  0  0  0  0
   -2.1640   -0.5380   -0.3250 C   0  0  0  0  0  0  0  0  0  0  0  0
   -2.5060   -1.4760   -1.2580 C   0  0  0  0  0  0  0  0  0  0  0  0
   -3.8380   -1.5830   -1.6890 C   0  0  0  0  0  0  0  0  0  0  0  0
   -4.7910   -0.7460   -1.1710 C   0  0  0  0  0  0  0  0  0  0  0  0
   -4.4770    0.2210   -0.2180 C   0  0  0  0  0  0  0  0  0  0  0  0
   -5.5200    1.0840    0.3000 C   0  0  0  0  0  0  0  0  0  0  0  0
   -6.8400    0.7500    0.4690 C   0  0  0  0  0  0  0  0  0  0  0  0
   -7.4940    1.8390    0.9790 N   0  0  0  0  0  0  0  0  0  0  0  0
   -6.6310    2.8260    1.1310 N   0  0  0  0  0  0  0  0  0  0  0  0
   -5.4060    2.3870    0.7190 C   0  0  0  0  0  0  0  0  0  0  0  0
   -3.1710    0.2980    0.1790 C   0  0  0  0  0  0  0  0  0  0  0  0
  1  2  2  0
  2  3  1  0
  2 13  1  0
  3  4  1  0
  4  5  1  0
  5  6  1  0
  6  7  2  0
  6 12  1  0
  7  8  1  0
  8  9  2  0
  8 10  1  0
 10 11  2  0
 11 12  1  0
 13 14  1  0
 14 15  2  0
 14 24  1  0
 15 16  1  0
 16 17  2  0
 17 18  1  0
 18 19  1  0
 18 24  2  0
 19 20  1  0
 19 23  2  0
 20 21  2  0
 21 22  1  0
 22 23  1  0
M  END
