
     RDKit          3D

 24 26  0  0  0  0  0  0  0  0999 V2000
   -6.0600    1.8440    1.5670 C   0  0  0  0  0  0  0  0  0  0  0  0
   -5.9240    0.6550    0.6940 C   0  0  0  0  0  0  0  0  0  0  0  0
   -7.0300   -0.0340    0.3190 N   0  0  0  0  0  0  0  0  0  0  0  0
   -6.9800   -1.1210   -0.4690 C   0  0  0  0  0  0  0  0  0  0  0  0
   -5.7360   -1.5240   -0.8970 C   0  0  0  0  0  0  0  0  0  0  0  0
   -4.5770   -0.8240   -0.5210 C   0  0  0  0  0  0  0  0  0  0  0  0
   -4.6520    0.2860    0.2880 C   0  0  0  0  0  0  0  0  0  0  0  0
   -3.5560    1.0600    0.6820 N   0  0  0  0  0  0  0  0  0  0  0  0
   -2.1890    0.7940    0.5460 C   0  0  0  0  0  0  0  0  0  0  0  0
   -1.6560   -0.4580    0.6450 C   0  0  0  0  0  0  0  0  0  0  0  0
   -0.2800   -0.7120    0.4710 C   0  0  0  0  0  0  0  0  0  0  0  0
    0.5780    0.3100    0.1930 C   0  0  0  0  0  0  0  0  0  0  0  0
    1.9740    0.1880    0.0000 N   0  0  0  0  0  0  0  0  0  0  0  0
    2.7410   -0.9890    0.0840 C   0  0  0  0  0  0  0  0  0  0  0  0
    2.2070   -2.0720    0.3530 O   0  0  0  0  0  0  0  0  0  0  0  0
    4.2400   -0.9820   -0.1480 C   0  0  2  0  0  0  0  0  0  0  0  0
    4.8610    0.3270   -0.4690 C   0  0  0  0  0  0  0  0  0  0  0  0
    6.2990    0.3580   -0.7020 C   0  0  0  0  0  0  0  0  0  0  0  0
    6.9690    1.5970   -1.0040 N   0  0  0  0  0  0  0  0  0  0  0  0
    7.0110   -0.6540   -0.6560 O   0  0  0  0  0  0  0  0  0  0  0  0
    4.7390   -2.2290   -0.9010 C   0  0  0  0  0  0  0  0  0  0  0  0
    4.9990   -2.0190    0.5450 C   0  0  0  0  0  0  0  0  0  0  0  0
    0.0230    1.5910    0.0940 C   0  0  0  0  0  0  0  0  0  0  0  0
   -1.3190    1.8220    0.2660 C   0  0  0  0  0  0  0  0  0  0  0  0
  1  2  1  0
  2  3  2  0
  2  7  1  0
  3  4  1  0
  4  5  2  0
  5  6  1  0
  6  7  2  0
  7  8  1  0
  8  9  1  0
  9 10  2  0
  9 24  1  0
 10 11  1  0
 11 12  2  0
 12 13  1  0
 12 23  1  0
 13 14  1  0
 14 15  2  0
 14 16  1  0
 16 17  1  6
 16 21  1  0
 16 22  1  0
 17 18  1  0
 18 19  1  0
 18 20  2  0
 21 22  1  0
 23 24  2  0
M  END
