
     RDKit          3D

 24 25  0  0  0  0  0  0  0  0999 V2000
   -7.9060    0.4300    1.5750 C   0  0  0  0  0  0  0  0  0  0  0  0
   -7.5530   -0.1560    0.2320 C   0  0  0  0  0  0  0  0  0  0  0  0
   -6.1050   -0.5490    0.1290 C   0  0  0  0  0  0  0  0  0  0  0  0
   -5.2510    0.6960    0.3470 C   0  0  0  0  0  0  0  0  0  0  0  0
   -3.7920    0.3380    0.2520 C   0  0  0  0  0  0  0  0  0  0  0  0
   -3.1040    0.6480   -0.8350 N   0  0  0  0  0  0  0  0  0  0  0  0
   -1.8060    0.3330   -0.9220 C   0  0  0  0  0  0  0  0  0  0  0  0
   -1.1250   -0.3110    0.0760 C   0  0  0  0  0  0  0  0  0  0  0  0
    0.2870   -0.6630    0.0120 C   0  0  0  0  0  0  0  0  0  0  0  0
    0.8210   -1.2610    0.9980 O   0  0  0  0  0  0  0  0  0  0  0  0
    1.1200   -0.3880   -1.0770 N   0  0  0  0  0  0  0  0  0  0  0  0
    2.5000   -0.7120   -1.1760 C   0  0  0  0  0  0  0  0  0  0  0  0
    2.7980   -1.5170   -2.1880 C   0  0  0  0  0  0  0  0  0  0  0  0
    4.1220   -2.0220   -2.5450 C   0  0  0  0  0  0  0  0  0  0  0  0
    5.2820   -1.4790   -2.2420 C   0  0  0  0  0  0  0  0  0  0  0  0
    5.6910   -0.2760   -1.5050 C   0  0  0  0  0  0  0  0  0  0  0  0
    4.8170    0.0540   -0.3560 C   0  0  0  0  0  0  0  0  0  0  0  0
    5.4060    0.6260    0.6610 C   0  0  0  0  0  0  0  0  0  0  0  0
    4.6230    0.9930    1.8540 C   0  0  0  0  0  0  0  0  0  0  0  0
    6.8500    0.9120    0.6180 C   0  0  0  0  0  0  0  0  0  0  0  0
    3.4120   -0.1700   -0.2260 N   0  0  0  0  0  0  0  0  0  0  0  0
   -1.8500   -0.6230    1.1890 N   0  0  0  0  0  0  0  0  0  0  0  0
   -3.1510   -0.3110    1.2840 C   0  0  0  0  0  0  0  0  0  0  0  0
   -3.8430   -0.5920    2.3070 O   0  0  0  0  0  0  0  0  0  0  0  0
  1  2  1  0
  2  3  1  0
  3  4  1  0
  4  5  1  0
  5  6  2  0
  5 23  1  0
  6  7  1  0
  7  8  2  0
  8  9  1  0
  8 22  1  0
  9 10  2  0
  9 11  1  0
 11 12  1  0
 12 13  2  0
 12 21  1  0
 13 14  1  0
 14 15  2  0
 15 16  1  0
 16 17  1  0
 17 18  2  3
 17 21  1  0
 18 19  1  0
 18 20  1  0
 22 23  1  0
 23 24  2  0
M  END
