
     RDKit          3D

 39 42  0  0  0  0  0  0  0  0999 V2000
   -6.9010    3.6170   -1.6380 C   0  0  0  0  0  0  0  0  0  0  0  0
   -5.5680    2.9380   -1.8980 C   0  0  0  0  0  0  0  0  0  0  0  0
   -5.1340    2.1690   -0.7630 N   0  0  0  0  0  0  0  0  0  0  0  0
   -4.3860    2.7800    0.1690 C   0  0  0  0  0  0  0  0  0  0  0  0
   -4.0970    3.9930    0.0140 O   0  0  0  0  0  0  0  0  0  0  0  0
   -3.9370    2.1200    1.2650 N   0  0  0  0  0  0  0  0  0  0  0  0
   -4.2180    0.8140    1.4830 C   0  0  0  0  0  0  0  0  0  0  0  0
   -3.5840    0.0550    2.9510 S   0  0  0  0  0  0  0  0  0  0  0  0
   -1.8920   -0.5160    2.7420 C   0  0  2  0  0  0  0  0  0  0  0  0
   -0.9110    0.6010    2.5330 C   0  0  0  0  0  0  0  0  0  0  0  0
    0.3560    0.1910    1.8970 C   0  0  0  0  0  0  0  0  0  0  0  0
    0.6560   -0.9810    1.4130 C   0  0  0  0  0  0  0  0  0  0  0  0
    1.9060   -1.3970    0.7770 C   0  0  0  0  0  0  0  0  0  0  0  0
    2.8590   -0.3370    0.3760 C   0  0  2  0  0  0  0  0  0  0  0  0
    2.2800    0.5650   -0.6560 C   0  0  0  0  0  0  0  0  0  0  0  0
    3.2570    1.6490   -1.0510 C   0  0  0  0  0  0  0  0  0  0  0  0
    3.2040    2.8340   -0.3090 C   0  0  0  0  0  0  0  0  0  0  0  0
    4.4530    3.8230   -1.0530 S   0  0  0  0  0  0  0  0  0  0  0  0
    4.9810    2.5930   -2.3220 C   0  0  0  0  0  0  0  0  0  0  0  0
    6.0480    2.8190   -3.3190 C   0  0  0  0  0  0  0  0  0  0  0  0
    4.1400    1.5590   -2.0330 C   0  0  0  0  0  0  0  0  0  0  0  0
    4.0900   -1.0250   -0.1530 C   0  0  0  0  0  0  0  0  0  0  0  0
    5.3300   -0.7510    0.4030 C   0  0  0  0  0  0  0  0  0  0  0  0
    6.4580   -1.3750   -0.0740 C   0  0  0  0  0  0  0  0  0  0  0  0
    6.4080   -2.2920   -1.1120 C   0  0  0  0  0  0  0  0  0  0  0  0
    7.6570   -2.9520   -1.6010 C   0  0  0  0  0  0  0  0  0  0  0  0
    5.1710   -2.5580   -1.6580 C   0  0  0  0  0  0  0  0  0  0  0  0
    4.0200   -1.9310   -1.1850 C   0  0  0  0  0  0  0  0  0  0  0  0
   -0.3800   -1.9940    1.5180 N   0  0  0  0  0  0  0  0  0  0  0  0
   -1.7790   -1.6090    1.7440 C   0  0  0  0  0  0  0  0  0  0  0  0
   -4.9840    0.1670    0.5440 C   0  0  0  0  0  0  0  0  0  0  0  0
   -5.3490   -1.2150    0.7480 C   0  0  0  0  0  0  0  0  0  0  0  0
   -6.0350   -1.8070   -0.1140 O   0  0  0  0  0  0  0  0  0  0  0  0
   -4.9600   -1.9000    1.8740 O   0  0  0  0  0  0  0  0  0  0  0  0
   -5.2860   -3.2460    2.1320 C   0  0  0  0  0  0  0  0  0  0  0  0
   -6.7500   -3.4580    2.2030 C   0  0  0  0  0  0  0  0  0  0  0  0
   -7.1690   -4.5800    2.4180 O   0  0  0  0  0  0  0  0  0  0  0  0
   -5.4350    0.8660   -0.5800 C   0  0  0  0  0  0  0  0  0  0  0  0
   -6.1260    0.3140   -1.4430 O   0  0  0  0  0  0  0  0  0  0  0  0
  1  2  1  0
  2  3  1  0
  3  4  1  0
  3 38  1  0
  4  5  2  0
  4  6  1  0
  6  7  1  0
  7  8  1  0
  7 31  2  0
  9  8  1  6
  9 10  1  0
  9 30  1  0
 10 11  1  0
 11 12  2  0
 12 13  1  0
 12 29  1  0
 14 13  1  6
 14 15  1  0
 14 22  1  0
 15 16  1  0
 16 17  2  0
 16 21  1  0
 17 18  1  0
 18 19  1  0
 19 20  1  0
 19 21  2  0
 22 23  2  0
 22 28  1  0
 23 24  1  0
 24 25  2  0
 25 26  1  0
 25 27  1  0
 27 28  2  0
 29 30  1  0
 31 32  1  0
 31 38  1  0
 32 33  2  0
 32 34  1  0
 34 35  1  0
 35 36  1  0
 36 37  2  0
 38 39  2  0
M  END
