
     RDKit          3D

 39 40  0  0  0  0  0  0  0  0999 V2000
   -3.2570    1.5390   -1.8020 C   0  0  0  0  0  0  0  0  0  0  0  0
   -3.8900    0.4110   -1.2010 O   0  0  0  0  0  0  0  0  0  0  0  0
   -4.2320    0.4420    0.1710 C   0  0  0  0  0  0  0  0  0  0  0  0
   -3.3900   -0.0480    1.1530 C   0  0  0  0  0  0  0  0  0  0  0  0
   -2.2120   -0.6240    0.9490 O   0  0  0  0  0  0  0  0  0  0  0  0
   -0.9250   -0.3350    0.5040 C   0  0  0  0  0  0  0  0  0  0  0  0
   -0.0690   -1.6080    0.7980 C   0  0  0  0  0  0  0  0  0  0  0  0
    1.2970   -1.6110    0.4010 N   0  0  2  0  0  0  0  0  0  0  0  0
    1.6850   -0.2720    0.1770 C   0  0  0  0  0  0  0  0  0  0  0  0
    2.9640    0.2810    0.6030 C   0  0  0  0  0  0  0  0  0  0  0  0
    3.8630   -0.3820    1.1450 O   0  0  0  0  0  0  0  0  0  0  0  0
    3.1900    1.6610    0.3820 N   0  0  0  0  0  0  0  0  0  0  0  0
    4.2510    2.5140    0.6540 C   0  0  0  0  0  0  0  0  0  0  0  0
    5.5830    2.3680    0.0130 C   0  0  1  0  0  0  0  0  0  0  0  0
    5.4660    2.4250   -1.3790 O   0  0  0  0  0  0  0  0  0  0  0  0
    6.3900    3.6910    0.3430 C   0  0  0  0  0  0  0  0  0  0  0  0
    7.7570    3.2020    0.0310 C   0  0  0  0  0  0  0  0  0  0  0  0
    7.8320    1.8840    0.4040 O   0  0  0  0  0  0  0  0  0  0  0  0
    6.5370    1.3780    0.5230 C   0  0  0  0  0  0  0  0  0  0  0  0
    1.5550   -2.4700   -0.7450 C   0  0  2  0  0  0  0  0  0  0  0  0
    1.7480   -1.9300   -2.0800 C   0  0  0  0  0  0  0  0  0  0  0  0
    2.8840   -1.1190   -2.2600 O   0  0  0  0  0  0  0  0  0  0  0  0
    0.3970   -3.5280   -0.8040 C   0  0  0  0  0  0  0  0  0  0  0  0
    0.3990   -4.3920    0.4020 C   0  0  0  0  0  0  0  0  0  0  0  0
   -0.9990   -5.5070    0.4340 Cl  0  0  0  0  0  0  0  0  0  0  0  0
    2.7000   -3.4190   -0.4780 C   0  0  0  0  0  0  0  0  0  0  0  0
    3.9020   -3.1380    0.1620 N   0  0  0  0  0  0  0  0  0  0  0  0
    2.5590   -4.6620   -0.8660 O   0  0  0  0  0  0  0  0  0  0  0  0
   -3.8430    0.0570    2.4900 C   0  0  0  0  0  0  0  0  0  0  0  0
   -3.0780   -0.4000    3.5610 O   0  0  0  0  0  0  0  0  0  0  0  0
   -5.0440    0.6140    2.7830 C   0  0  0  0  0  0  0  0  0  0  0  0
   -5.6230    0.7480    4.4480 Cl  0  0  0  0  0  0  0  0  0  0  0  0
   -5.8800    1.0990    1.7680 C   0  0  0  0  0  0  0  0  0  0  0  0
   -7.0930    1.6690    2.1110 O   0  0  0  0  0  0  0  0  0  0  0  0
   -5.4570    0.9990    0.4700 C   0  0  0  0  0  0  0  0  0  0  0  0
   -6.4920    1.6760   -0.8470 S   0  0  0  0  0  0  0  0  0  0  0  0
   -8.2320    1.7560   -0.3540 C   0  0  0  0  0  0  0  0  0  0  0  0
   -8.8270    0.3610   -0.4020 C   0  0  0  0  0  0  0  0  0  0  0  0
   -8.0730   -0.5000    0.3680 O   0  0  0  0  0  0  0  0  0  0  0  0
  1  2  1  0
  2  3  1  0
  3  4  2  0
  3 35  1  0
  4  5  1  0
  4 29  1  0
  5  6  1  0
  6  7  1  0
  8  7  1  6
  8  9  1  0
  8 20  1  0
  9 10  1  0
 10 11  2  0
 10 12  1  0
 12 13  1  0
 13 14  1  0
 14 15  1  6
 14 16  1  0
 14 19  1  0
 16 17  1  0
 17 18  1  0
 18 19  1  0
 20 21  1  6
 20 23  1  0
 20 26  1  0
 21 22  1  0
 23 24  1  0
 24 25  1  0
 26 27  1  0
 26 28  2  0
 29 30  1  0
 29 31  2  0
 31 32  1  0
 31 33  1  0
 33 34  1  0
 33 35  2  0
 35 36  1  0
 36 37  1  0
 37 38  1  0
 38 39  1  0
M  CHG  1   8   1
M  END
