
     RDKit          3D

 25 27  0  0  0  0  0  0  0  0999 V2000
   -4.4340    1.9620   -1.8810 C   0  0  0  0  0  0  0  0  0  0  0  0
   -3.2850    1.0450   -1.9520 C   0  0  0  0  0  0  0  0  0  0  0  0
   -3.1190    0.1620   -0.9530 C   0  0  0  0  0  0  0  0  0  0  0  0
   -4.0910    0.1770    0.1280 C   0  0  0  0  0  0  0  0  0  0  0  0
   -4.6940   -0.7720    0.8340 C   0  0  0  0  0  0  0  0  0  0  0  0
   -4.5120   -2.2360    0.6870 C   0  0  0  0  0  0  0  0  0  0  0  0
   -3.6570   -2.5260   -0.5540 C   0  0  0  0  0  0  0  0  0  0  0  0
   -2.2580   -2.0270   -0.3630 C   0  0  0  0  0  0  0  0  0  0  0  0
   -1.9470   -0.7430   -1.0480 C   0  0  2  0  0  0  0  0  0  0  0  0
   -0.6850   -0.0900   -0.5450 C   0  0  0  0  0  0  0  0  0  0  0  0
    0.3960   -0.9940   -0.6590 O   0  0  0  0  0  0  0  0  0  0  0  0
    1.6740   -0.6440   -0.2650 C   0  0  0  0  0  0  0  0  0  0  0  0
    2.7370   -1.5050   -0.3670 C   0  0  0  0  0  0  0  0  0  0  0  0
    4.0090   -1.0960    0.0480 C   0  0  0  0  0  0  0  0  0  0  0  0
    4.1970    0.1590    0.5560 C   0  0  0  0  0  0  0  0  0  0  0  0
    5.4440    0.6200    0.9860 C   0  0  0  0  0  0  0  0  0  0  0  0
    6.4890   -0.2560    0.8740 O   0  0  0  0  0  0  0  0  0  0  0  0
    5.5570    1.8760    1.4790 C   0  0  0  0  0  0  0  0  0  0  0  0
    6.8150    2.4280    1.9450 C   0  0  0  0  0  0  0  0  0  0  0  0
    7.8670    1.7740    1.9170 O   0  0  0  0  0  0  0  0  0  0  0  0
    4.4910    2.6780    1.5590 O   0  0  0  0  0  0  0  0  0  0  0  0
    3.3100    2.2960    1.1720 C   0  0  0  0  0  0  0  0  0  0  0  0
    2.3420    3.0650    1.2600 O   0  0  0  0  0  0  0  0  0  0  0  0
    3.1320    1.0150    0.6570 C   0  0  0  0  0  0  0  0  0  0  0  0
    1.8760    0.6150    0.2480 C   0  0  0  0  0  0  0  0  0  0  0  0
  1  2  1  0
  2  3  2  3
  3  4  1  0
  3  9  1  0
  4  5  2  0
  5  6  1  0
  6  7  1  0
  7  8  1  0
  8  9  1  0
  9 10  1  1
 10 11  1  0
 11 12  1  0
 12 13  2  0
 12 25  1  0
 13 14  1  0
 14 15  2  0
 15 16  1  0
 15 24  1  0
 16 17  1  0
 16 18  2  0
 18 19  1  0
 18 21  1  0
 19 20  2  0
 21 22  1  0
 22 23  2  0
 22 24  1  0
 24 25  2  0
M  END
