
     RDKit          3D

 25 28  0  0  0  0  0  0  0  0999 V2000
    6.1740    2.5120   -0.9820 O   0  0  0  0  0  0  0  0  0  0  0  0
    5.5040    1.4710   -1.2010 C   0  0  0  0  0  0  0  0  0  0  0  0
    5.7260    0.8460   -2.4290 O   0  0  0  0  0  0  0  0  0  0  0  0
    4.5520    0.9290   -0.2530 C   0  0  0  0  0  0  0  0  0  0  0  0
    4.3400    1.5510    0.9550 C   0  0  0  0  0  0  0  0  0  0  0  0
    3.4280    1.0430    1.8780 C   0  0  0  0  0  0  0  0  0  0  0  0
    2.7020   -0.1030    1.6150 C   0  0  0  0  0  0  0  0  0  0  0  0
    2.9030   -0.7350    0.4140 C   0  0  0  0  0  0  0  0  0  0  0  0
    3.8260   -0.2100   -0.5060 C   0  0  0  0  0  0  0  0  0  0  0  0
    2.0170   -1.9140    0.3710 C   0  0  2  0  0  0  0  0  0  0  0  0
    0.7080   -1.4690   -0.2260 C   0  0  0  0  0  0  0  0  0  0  0  0
    0.2700   -1.9930   -1.2930 O   0  0  0  0  0  0  0  0  0  0  0  0
   -0.0630   -0.4900    0.3480 O   0  0  0  0  0  0  0  0  0  0  0  0
   -1.2710   -0.0380   -0.1500 C   0  0  0  0  0  0  0  0  0  0  0  0
   -1.3990    1.0030   -1.0390 C   0  0  0  0  0  0  0  0  0  0  0  0
   -2.6310    1.4120   -1.5020 C   0  0  0  0  0  0  0  0  0  0  0  0
   -3.7850    0.7770   -1.0800 C   0  0  0  0  0  0  0  0  0  0  0  0
   -3.6790   -0.2570   -0.1990 C   0  0  0  0  0  0  0  0  0  0  0  0
   -2.4220   -0.6660    0.2670 C   0  0  0  0  0  0  0  0  0  0  0  0
   -5.0530   -0.7670    0.0970 C   0  0  0  0  0  0  0  0  0  0  0  0
   -5.9460    0.4040   -0.2440 C   0  0  0  0  0  0  0  0  0  0  0  0
   -5.2150    1.0170   -1.4200 C   0  0  0  0  0  0  0  0  0  0  0  0
    1.7770   -2.2430    1.8250 C   0  0  0  0  0  0  0  0  0  0  0  0
    1.6970   -0.8550    2.3940 C   0  0  0  0  0  0  0  0  0  0  0  0
    0.9910   -0.3780    3.2930 O   0  0  0  0  0  0  0  0  0  0  0  0
  1  2  2  0
  2  3  1  0
  2  4  1  0
  4  5  2  0
  4  9  1  0
  5  6  1  0
  6  7  2  0
  7  8  1  0
  7 24  1  0
  8  9  2  0
  8 10  1  0
 10 11  1  1
 10 23  1  0
 11 12  2  0
 11 13  1  0
 13 14  1  0
 14 15  2  0
 14 19  1  0
 15 16  1  0
 16 17  2  0
 17 18  1  0
 17 22  1  0
 18 19  2  0
 18 20  1  0
 20 21  1  0
 21 22  1  0
 23 24  1  0
 24 25  2  0
M  END
