
     RDKit          3D

 25 27  0  0  0  0  0  0  0  0999 V2000
   -2.6520    1.7500    2.1800 C   0  0  0  0  0  0  0  0  0  0  0  0
   -3.1540    0.7440    1.2180 C   0  0  0  0  0  0  0  0  0  0  0  0
   -4.4430    0.6380    0.9850 C   0  0  0  0  0  0  0  0  0  0  0  0
   -5.0210   -0.3280    0.0520 C   0  0  2  0  0  0  0  0  0  0  0  0
   -5.7970    0.3580   -1.0490 C   0  0  0  0  0  0  0  0  0  0  0  0
   -5.9310   -1.2500    0.8360 C   0  0  0  0  0  0  0  0  0  0  0  0
   -4.0370   -1.1250   -0.5630 O   0  0  0  0  0  0  0  0  0  0  0  0
   -2.6850   -1.0480   -0.3510 C   0  0  0  0  0  0  0  0  0  0  0  0
   -1.7730   -1.8770   -1.0030 C   0  0  0  0  0  0  0  0  0  0  0  0
   -0.4200   -1.7690   -0.7620 C   0  0  0  0  0  0  0  0  0  0  0  0
    0.0740   -0.8360    0.1330 C   0  0  0  0  0  0  0  0  0  0  0  0
    1.5040   -0.7200    0.3890 C   0  0  0  0  0  0  0  0  0  0  0  0
    1.8860    0.1470    1.2130 O   0  0  0  0  0  0  0  0  0  0  0  0
    2.4190   -1.5210   -0.2370 O   0  0  0  0  0  0  0  0  0  0  0  0
    3.7930   -1.4860   -0.0730 C   0  0  0  0  0  0  0  0  0  0  0  0
    4.4600   -0.2290   -0.4850 C   0  0  0  0  0  0  0  0  0  0  0  0
    3.7660    0.8220   -1.0660 C   0  0  0  0  0  0  0  0  0  0  0  0
    4.4120    1.9920   -1.4720 C   0  0  0  0  0  0  0  0  0  0  0  0
    5.7690    2.1150   -1.2960 C   0  0  0  0  0  0  0  0  0  0  0  0
    6.4420    1.0580   -0.7160 C   0  0  0  0  0  0  0  0  0  0  0  0
    7.8040    1.1580   -0.5290 O   0  0  0  0  0  0  0  0  0  0  0  0
    5.8190   -0.0900   -0.3160 C   0  0  0  0  0  0  0  0  0  0  0  0
    6.5370   -1.1130    0.2570 O   0  0  0  0  0  0  0  0  0  0  0  0
   -0.8460   -0.0270    0.7660 C   0  0  0  0  0  0  0  0  0  0  0  0
   -2.1980   -0.1180    0.5410 C   0  0  0  0  0  0  0  0  0  0  0  0
  1  2  1  0
  2  3  2  0
  2 25  1  0
  3  4  1  0
  4  5  1  6
  4  6  1  0
  4  7  1  0
  7  8  1  0
  8  9  2  0
  8 25  1  0
  9 10  1  0
 10 11  2  0
 11 12  1  0
 11 24  1  0
 12 13  2  0
 12 14  1  0
 14 15  1  0
 15 16  1  0
 16 17  2  0
 16 22  1  0
 17 18  1  0
 18 19  2  0
 19 20  1  0
 20 21  1  0
 20 22  2  0
 22 23  1  0
 24 25  2  0
M  END
