
     RDKit          3D

 33 36  0  0  0  0  0  0  0  0999 V2000
    9.0780   -0.1080   -1.9240 C   0  0  0  0  0  0  0  0  0  0  0  0
    9.8350   -0.4880   -0.7000 C   0  0  0  0  0  0  0  0  0  0  0  0
    9.0400   -0.6040    0.4910 N   0  0  0  0  0  0  0  0  0  0  0  0
    9.6400   -1.0140    1.7230 C   0  0  0  0  0  0  0  0  0  0  0  0
    7.6580   -0.2990    0.4570 C   0  0  0  0  0  0  0  0  0  0  0  0
    6.6970   -1.2910    0.6300 C   0  0  0  0  0  0  0  0  0  0  0  0
    5.3470   -1.0430    0.5960 C   0  0  0  0  0  0  0  0  0  0  0  0
    4.9300    0.2630    0.3800 C   0  0  0  0  0  0  0  0  0  0  0  0
    3.5380    0.5770    0.3340 N   0  0  0  0  0  0  0  0  0  0  0  0
    2.5980   -0.5090    0.5060 C   0  0  0  0  0  0  0  0  0  0  0  0
    1.2280    0.0340    0.4300 C   0  0  0  0  0  0  0  0  0  0  0  0
    0.1490   -0.8080    0.4350 N   0  0  0  0  0  0  0  0  0  0  0  0
   -0.9750   -0.0720    0.3590 C   0  0  0  0  0  0  0  0  0  0  0  0
   -2.6650   -0.3400    0.3130 S   0  0  0  0  0  0  0  0  0  0  0  0
   -3.5880    1.0980    0.2080 C   0  0  0  0  0  0  0  0  0  0  0  0
   -4.8760    1.1630    0.1580 N   0  0  0  0  0  0  0  0  0  0  0  0
   -5.7360    0.0700    0.1810 C   0  0  0  0  0  0  0  0  0  0  0  0
   -5.5780   -0.8460    1.0170 O   0  0  0  0  0  0  0  0  0  0  0  0
   -6.8040   -0.0180   -0.7470 N   0  0  0  0  0  0  0  0  0  0  0  0
   -7.0250    1.0370   -1.7470 C   0  0  0  0  0  0  0  0  0  0  0  0
   -7.7460   -1.1190   -0.7960 C   0  0  0  0  0  0  0  0  0  0  0  0
   -8.9530   -0.8330    0.1080 C   0  0  1  0  0  0  0  0  0  0  0  0
   -9.7770    0.3810   -0.1880 C   0  0  0  0  0  0  0  0  0  0  0  0
   -9.7870   -2.0970    0.3760 C   0  0  0  0  0  0  0  0  0  0  0  0
   -8.9830   -1.3920    1.4790 C   0  0  0  0  0  0  0  0  0  0  0  0
   -2.8280    2.2070    0.1780 N   0  0  0  0  0  0  0  0  0  0  0  0
   -1.5170    2.2920    0.2200 C   0  0  0  0  0  0  0  0  0  0  0  0
   -1.0230    3.4740    0.1770 O   0  0  0  0  0  0  0  0  0  0  0  0
   -0.6190    1.2580    0.3040 C   0  0  0  0  0  0  0  0  0  0  0  0
    0.7490    1.2780    0.3500 N   0  0  0  0  0  0  0  0  0  0  0  0
    5.8320    1.2780    0.2040 C   0  0  0  0  0  0  0  0  0  0  0  0
    7.1770    0.9870    0.2450 C   0  0  0  0  0  0  0  0  0  0  0  0
    8.3300    2.2990    0.0290 Cl  0  0  0  0  0  0  0  0  0  0  0  0
  1  2  1  0
  2  3  1  0
  3  4  1  0
  3  5  1  0
  5  6  2  0
  5 32  1  0
  6  7  1  0
  7  8  2  0
  8  9  1  0
  8 31  1  0
  9 10  1  0
 10 11  1  0
 11 12  2  0
 11 30  1  0
 12 13  1  0
 13 14  1  0
 13 29  2  0
 14 15  1  0
 15 16  2  3
 15 26  1  0
 16 17  1  0
 17 18  2  0
 17 19  1  0
 19 20  1  0
 19 21  1  0
 21 22  1  0
 22 23  1  1
 22 24  1  0
 22 25  1  0
 24 25  1  0
 26 27  1  0
 27 28  2  0
 27 29  1  0
 29 30  1  0
 31 32  2  0
 32 33  1  0
M  END
