
     RDKit          3D

 32 36  0  0  0  0  0  0  0  0999 V2000
    7.7870    1.1940    1.4480 N   0  0  0  0  0  0  0  0  0  0  0  0
    6.8780    0.9260    0.6070 C   0  0  0  0  0  0  0  0  0  0  0  0
    6.9670   -0.1890   -0.1820 C   0  0  0  0  0  0  0  0  0  0  0  0
    5.9490   -0.4280   -1.0770 C   0  0  0  0  0  0  0  0  0  0  0  0
    4.9150    0.4410   -1.1380 N   0  0  0  0  0  0  0  0  0  0  0  0
    3.8420    0.1940   -2.0770 C   0  0  0  0  0  0  0  0  0  0  0  0
    2.7620   -0.6220   -1.5040 C   0  0  0  0  0  0  0  0  0  0  0  0
    1.6610   -0.1070   -0.8460 C   0  0  0  0  0  0  0  0  0  0  0  0
    0.8640   -1.1080   -0.4450 N   0  0  0  0  0  0  0  0  0  0  0  0
   -0.3840   -1.0710    0.2710 C   0  0  2  0  0  0  0  0  0  0  0  0
   -1.1010   -2.3720    0.2170 C   0  0  1  0  0  0  0  0  0  0  0  0
   -1.2330   -3.0190    1.5860 C   0  0  0  0  0  0  0  0  0  0  0  0
   -2.0370   -2.2090    2.3950 O   0  0  0  0  0  0  0  0  0  0  0  0
   -2.3000   -2.2080   -0.4090 O   0  0  0  0  0  0  0  0  0  0  0  0
   -2.4460   -0.9250   -0.8520 C   0  0  1  0  0  0  0  0  0  0  0  0
   -3.7630   -0.3990   -0.5610 N   0  0  0  0  0  0  0  0  0  0  0  0
   -4.8670   -1.1350   -0.4290 C   0  0  0  0  0  0  0  0  0  0  0  0
   -5.8950   -0.3080   -0.1620 N   0  0  0  0  0  0  0  0  0  0  0  0
   -5.4780    0.9590   -0.1180 C   0  0  0  0  0  0  0  0  0  0  0  0
   -6.0840    2.1750    0.1080 C   0  0  0  0  0  0  0  0  0  0  0  0
   -7.4770    2.2700    0.3720 N   0  0  0  0  0  0  0  0  0  0  0  0
   -5.3010    3.2760    0.0690 N   0  0  0  0  0  0  0  0  0  0  0  0
   -3.9750    3.2160   -0.1790 C   0  0  0  0  0  0  0  0  0  0  0  0
   -3.4000    2.0210   -0.3980 N   0  0  0  0  0  0  0  0  0  0  0  0
   -4.1060    0.8860   -0.3760 C   0  0  0  0  0  0  0  0  0  0  0  0
   -1.3570   -0.0750   -0.2170 C   0  0  2  0  0  0  0  0  0  0  0  0
   -0.8970    0.8000   -1.1610 O   0  0  0  0  0  0  0  0  0  0  0  0
    1.4400   -2.2330   -0.8360 N   0  0  0  0  0  0  0  0  0  0  0  0
    2.5870   -1.9580   -1.4770 N   0  0  0  0  0  0  0  0  0  0  0  0
    4.8460    1.5250   -0.3590 C   0  0  0  0  0  0  0  0  0  0  0  0
    3.8440    2.3070   -0.4630 O   0  0  0  0  0  0  0  0  0  0  0  0
    5.8300    1.7860    0.5290 N   0  0  0  0  0  0  0  0  0  0  0  0
  1  2  2  0
  2  3  1  0
  2 32  1  0
  3  4  2  0
  4  5  1  0
  5  6  1  0
  5 30  1  0
  6  7  1  0
  7  8  2  0
  7 29  1  0
  8  9  1  0
 10  9  1  6
  9 28  1  0
 10 11  1  0
 10 26  1  0
 11 12  1  1
 11 14  1  0
 12 13  1  0
 14 15  1  0
 15 16  1  1
 15 26  1  0
 16 17  1  0
 16 25  1  0
 17 18  2  0
 18 19  1  0
 19 20  2  0
 19 25  1  0
 20 21  1  0
 20 22  1  0
 22 23  2  0
 23 24  1  0
 24 25  2  0
 26 27  1  6
 28 29  2  0
 30 31  2  0
 30 32  1  0
M  END
