
     RDKit          3D

 33 36  0  0  0  0  0  0  0  0999 V2000
   -1.3730   -3.3810    0.8080 C   0  0  0  0  0  0  0  0  0  0  0  0
   -1.4790   -2.5350   -0.4240 C   0  0  0  0  0  0  0  0  0  0  0  0
   -1.5730   -1.1120   -0.0630 N   0  0  0  0  0  0  0  0  0  0  0  0
   -2.7200   -0.5450    0.1400 N   0  0  0  0  0  0  0  0  0  0  0  0
   -2.8100    0.7550    0.4700 C   0  0  0  0  0  0  0  0  0  0  0  0
   -4.1050    1.2670    0.6670 N   0  0  0  0  0  0  0  0  0  0  0  0
   -5.2710    0.4790    0.5280 C   0  0  0  0  0  0  0  0  0  0  0  0
   -5.1360   -0.7250    0.2160 O   0  0  0  0  0  0  0  0  0  0  0  0
   -6.5780    1.0100    0.7300 N   0  0  0  0  0  0  0  0  0  0  0  0
   -7.7720    0.2430    0.5940 C   0  0  0  0  0  0  0  0  0  0  0  0
   -7.9950   -0.3230   -0.7410 C   0  0  0  0  0  0  0  0  0  0  0  0
   -8.9970   -1.1190   -1.0900 N   0  0  0  0  0  0  0  0  0  0  0  0
   -8.8910   -1.4460   -2.3990 C   0  0  0  0  0  0  0  0  0  0  0  0
   -9.9480   -2.4680   -3.3640 Cl  0  0  0  0  0  0  0  0  0  0  0  0
   -7.7640   -0.8140   -2.8680 C   0  0  0  0  0  0  0  0  0  0  0  0
   -7.2410   -0.1340   -1.8200 N   0  0  0  0  0  0  0  0  0  0  0  0
   -1.6700    1.5750    0.6160 C   0  0  0  0  0  0  0  0  0  0  0  0
   -1.7400    2.9030    0.9510 C   0  0  0  0  0  0  0  0  0  0  0  0
    0.0230    3.3720    0.9740 S   0  0  0  0  0  0  0  0  0  0  0  0
    0.6240    1.8150    0.5540 C   0  0  0  0  0  0  0  0  0  0  0  0
    2.0580    1.4710    0.3920 C   0  0  0  0  0  0  0  0  0  0  0  0
    2.9710    2.4030    0.5680 C   0  0  0  0  0  0  0  0  0  0  0  0
    4.3970    2.1060    0.4210 C   0  0  0  0  0  0  0  0  0  0  0  0
    4.6380    0.7390    0.1540 N   0  0  0  0  0  0  0  0  0  0  0  0
    4.4200   -0.1650    1.2140 C   0  0  0  0  0  0  0  0  0  0  0  0
    5.7220   -0.4540    1.9420 C   0  0  0  0  0  0  0  0  0  0  0  0
    6.8100   -0.8770    1.0130 C   0  0  0  0  0  0  0  0  0  0  0  0
    7.0120    0.1020   -0.1240 C   0  0  1  0  0  0  0  0  0  0  0  0
    7.8630   -0.5760   -1.1740 C   0  0  0  0  0  0  0  0  0  0  0  0
    5.7110    0.5330   -0.7330 C   0  0  0  0  0  0  0  0  0  0  0  0
   -0.4950    1.0040    0.4110 C   0  0  0  0  0  0  0  0  0  0  0  0
   -0.4650   -0.3650    0.0660 C   0  0  0  0  0  0  0  0  0  0  0  0
    0.6350   -0.9340   -0.1340 O   0  0  0  0  0  0  0  0  0  0  0  0
  1  2  1  0
  2  3  1  0
  3  4  1  0
  3 32  1  0
  4  5  2  0
  5  6  1  0
  5 17  1  0
  6  7  1  0
  7  8  2  0
  7  9  1  0
  9 10  1  0
 10 11  1  0
 11 12  2  0
 11 16  1  0
 12 13  1  0
 13 14  1  0
 13 15  2  0
 15 16  1  0
 17 18  2  0
 17 31  1  0
 18 19  1  0
 19 20  1  0
 20 21  1  0
 20 31  2  0
 21 22  2  3
 22 23  1  0
 23 24  1  0
 24 25  1  0
 24 30  1  0
 25 26  1  0
 26 27  1  0
 27 28  1  0
 28 29  1  6
 28 30  1  0
 31 32  1  0
 32 33  2  0
M  END
