
     RDKit          3D

 39 44  0  0  0  0  0  0  0  0999 V2000
    9.0430   -0.1230    0.5190 C   0  0  0  0  0  0  0  0  0  0  0  0
    8.3180   -0.1050   -0.6600 O   0  0  0  0  0  0  0  0  0  0  0  0
    8.4240   -1.2940   -1.3670 C   0  0  0  0  0  0  0  0  0  0  0  0
    7.6390   -1.2640   -2.6350 C   0  0  0  0  0  0  0  0  0  0  0  0
    6.2390   -1.0540   -2.4780 N   0  0  2  0  0  0  0  0  0  0  0  0
    5.8350    0.3160   -2.4520 C   0  0  0  0  0  0  0  0  0  0  0  0
    5.0930    0.7140   -1.1940 C   0  0  0  0  0  0  0  0  0  0  0  0
    3.8790   -0.0390   -1.0300 N   0  0  2  0  0  0  0  0  0  0  0  0
    3.4560   -0.0680    0.3690 C   0  0  0  0  0  0  0  0  0  0  0  0
    2.9210    1.2490    0.8330 C   0  0  0  0  0  0  0  0  0  0  0  0
    1.7600    1.6480    0.0480 N   0  0  0  0  0  0  0  0  0  0  0  0
    1.7740    2.3730   -1.0810 C   0  0  0  0  0  0  0  0  0  0  0  0
    0.4670    2.5170   -1.4800 C   0  0  0  0  0  0  0  0  0  0  0  0
   -0.3150    1.8500   -0.5440 C   0  0  0  0  0  0  0  0  0  0  0  0
   -1.7270    1.7320   -0.5380 N   0  0  0  0  0  0  0  0  0  0  0  0
   -2.3410    0.9850    0.5340 C   0  0  0  0  0  0  0  0  0  0  0  0
   -1.5720    0.4240    1.4830 N   0  0  0  0  0  0  0  0  0  0  0  0
   -2.0590   -0.2750    2.5040 C   0  0  0  0  0  0  0  0  0  0  0  0
   -3.4540   -0.4380    2.5960 C   0  0  0  0  0  0  0  0  0  0  0  0
   -4.2080    0.1350    1.6290 C   0  0  0  0  0  0  0  0  0  0  0  0
   -3.6610    0.8380    0.6110 N   0  0  0  0  0  0  0  0  0  0  0  0
   -5.6700   -0.0530    1.6160 C   0  0  0  0  0  0  0  0  0  0  0  0
   -6.2080   -0.8350    2.6160 C   0  0  0  0  0  0  0  0  0  0  0  0
   -7.5440   -0.8960    2.3280 N   0  0  0  0  0  0  0  0  0  0  0  0
   -7.7960   -0.2080    1.2480 N   0  0  0  0  0  0  0  0  0  0  0  0
   -9.1090   -0.0360    0.6810 C   0  0  0  0  0  0  0  0  0  0  0  0
   -6.6530    0.3500    0.7530 C   0  0  0  0  0  0  0  0  0  0  0  0
   -6.5960    1.3050   -0.3260 C   0  0  0  0  0  0  0  0  0  0  0  0
   -5.7950    2.4160   -0.3870 C   0  0  0  0  0  0  0  0  0  0  0  0
   -5.7100    3.2260   -1.5210 C   0  0  0  0  0  0  0  0  0  0  0  0
   -6.4350    2.9580   -2.6570 C   0  0  0  0  0  0  0  0  0  0  0  0
   -7.2480    1.8510   -2.6200 C   0  0  0  0  0  0  0  0  0  0  0  0
   -7.3290    1.0510   -1.5010 C   0  0  0  0  0  0  0  0  0  0  0  0
   -5.4540   -1.4430    3.7330 C   0  0  0  0  0  0  0  0  0  0  0  0
   -4.0070   -1.2020    3.7150 C   0  0  1  0  0  0  0  0  0  0  0  0
   -3.2130   -2.5110    3.8070 C   0  0  0  0  0  0  0  0  0  0  0  0
    0.5200    1.3350    0.3700 N   0  0  0  0  0  0  0  0  0  0  0  0
    4.1710   -1.4310   -1.3780 C   0  0  0  0  0  0  0  0  0  0  0  0
    5.6730   -1.7020   -1.3110 C   0  0  0  0  0  0  0  0  0  0  0  0
  1  2  1  0
  2  3  1  0
  3  4  1  0
  5  4  1  1
  5  6  1  0
  5 39  1  0
  6  7  1  0
  7  8  1  0
  8  9  1  1
  8 38  1  0
  9 10  1  0
 10 11  1  0
 11 12  1  0
 11 37  1  0
 12 13  2  0
 13 14  1  0
 14 15  1  0
 14 37  2  0
 15 16  1  0
 16 17  2  0
 16 21  1  0
 17 18  1  0
 18 19  2  0
 19 20  1  0
 19 35  1  0
 20 21  2  0
 20 22  1  0
 22 23  1  0
 22 27  2  0
 23 24  2  0
 23 34  1  0
 24 25  1  0
 25 26  1  0
 25 27  1  0
 27 28  1  0
 28 29  2  0
 28 33  1  0
 29 30  1  0
 30 31  2  0
 31 32  1  0
 32 33  2  0
 34 35  1  0
 35 36  1  6
 38 39  1  0
M  CHG  2   5   1   8   1
M  END
