
     RDKit          3D

 39 41  0  0  0  0  0  0  0  0999 V2000
    5.9210    1.3200    4.5110 C   0  0  0  0  0  0  0  0  0  0  0  0
    5.3250    1.1000    3.3110 C   0  0  0  0  0  0  0  0  0  0  0  0
    5.6410    2.0250    2.3610 O   0  0  0  0  0  0  0  0  0  0  0  0
    4.4560   -0.0010    3.1150 C   0  0  0  0  0  0  0  0  0  0  0  0
    3.7810   -0.4920    2.1790 C   0  0  0  0  0  0  0  0  0  0  0  0
    3.5370   -0.2040    0.7990 C   0  0  0  0  0  0  0  0  0  0  0  0
    4.3510    0.5840    0.0220 C   0  0  0  0  0  0  0  0  0  0  0  0
    4.0360    0.9260   -1.2860 C   0  0  0  0  0  0  0  0  0  0  0  0
    4.9410    1.7810   -2.0870 C   0  0  0  0  0  0  0  0  0  0  0  0
    6.1830    2.2460   -1.4250 C   0  0  0  0  0  0  0  0  0  0  0  0
    4.6840    2.1040   -3.2650 O   0  0  0  0  0  0  0  0  0  0  0  0
    2.8670    0.4550   -1.8250 C   0  0  0  0  0  0  0  0  0  0  0  0
    2.5050    0.8020   -3.2120 C   0  0  0  0  0  0  0  0  0  0  0  0
    2.0520   -0.3310   -1.0610 C   0  0  0  0  0  0  0  0  0  0  0  0
    2.3290   -0.6870    0.2320 C   0  0  0  0  0  0  0  0  0  0  0  0
    1.4660   -1.5580    1.0380 C   0  0  0  0  0  0  0  0  0  0  0  0
    0.2240   -1.9310    0.3730 N   0  0  0  0  0  0  0  0  0  0  0  0
   -0.7220   -0.9450    0.0900 C   0  0  0  0  0  0  0  0  0  0  0  0
   -0.3810    0.2880    0.4490 O   0  0  0  0  0  0  0  0  0  0  0  0
   -2.0190   -1.0200   -0.5330 C   0  0  0  0  0  0  0  0  0  0  0  0
   -2.6080   -2.1240   -0.9760 C   0  0  0  0  0  0  0  0  0  0  0  0
   -2.0210   -3.4500   -0.8480 C   0  0  0  0  0  0  0  0  0  0  0  0
   -1.6730   -4.2160   -1.8670 O   0  0  0  0  0  0  0  0  0  0  0  0
   -2.5350   -4.5820   -2.8140 C   0  0  0  0  0  0  0  0  0  0  0  0
   -3.8410   -2.0630   -1.7530 N   0  0  0  0  0  0  0  0  0  0  0  0
   -4.4350   -0.8110   -2.0510 C   0  0  0  0  0  0  0  0  0  0  0  0
   -5.6500   -0.6080   -2.8670 C   0  0  0  0  0  0  0  0  0  0  0  0
   -3.8430    0.3060   -1.5780 C   0  0  0  0  0  0  0  0  0  0  0  0
   -4.4050    1.6260   -1.8620 C   0  0  0  0  0  0  0  0  0  0  0  0
   -4.8570    1.8670   -2.9950 O   0  0  0  0  0  0  0  0  0  0  0  0
   -4.3830    2.5460   -0.7530 N   0  0  0  0  0  0  0  0  0  0  0  0
   -3.7990    2.0720    0.4630 C   0  0  0  0  0  0  0  0  0  0  0  0
   -3.8610    3.0260    1.6440 C   0  0  0  0  0  0  0  0  0  0  0  0
   -3.2360    0.8910    0.6340 C   0  0  0  0  0  0  0  0  0  0  0  0
   -2.7280    0.4690    1.8970 C   0  0  0  0  0  0  0  0  0  0  0  0
   -2.2440   -0.6680    2.1880 O   0  0  0  0  0  0  0  0  0  0  0  0
   -2.7160    1.3380    3.0210 O   0  0  0  0  0  0  0  0  0  0  0  0
   -2.2140    0.9220    4.2700 C   0  0  0  0  0  0  0  0  0  0  0  0
   -2.7650    0.2340   -0.6420 C   0  0  1  0  0  0  0  0  0  0  0  0
  1  2  2  0
  2  3  1  0
  2  4  1  0
  4  5  2  3
  5  6  1  0
  6  7  2  0
  6 15  1  0
  7  8  1  0
  8  9  1  0
  8 12  2  0
  9 10  1  0
  9 11  2  0
 12 13  1  0
 12 14  1  0
 14 15  2  0
 15 16  1  0
 16 17  1  0
 17 18  1  0
 18 19  2  0
 18 20  1  0
 20 21  2  0
 39 20  1  1
 21 22  1  0
 21 25  1  0
 22 23  1  0
 23 24  1  0
 25 26  1  0
 26 27  1  0
 26 28  2  0
 28 29  1  0
 28 39  1  0
 29 30  2  0
 29 31  1  0
 31 32  1  0
 32 33  1  0
 32 34  2  0
 34 35  1  0
 34 39  1  0
 35 36  2  0
 35 37  1  0
 37 38  1  0
M  END
