
     RDKit          3D

 39 41  0  0  0  0  0  0  0  0999 V2000
   -4.6190   -3.8140    2.6020 C   0  0  0  0  0  0  0  0  0  0  0  0
   -4.9760   -3.4050    1.1880 C   0  0  0  0  0  0  0  0  0  0  0  0
   -3.8630   -2.9280    0.4920 O   0  0  0  0  0  0  0  0  0  0  0  0
   -3.1890   -1.8120    0.9830 C   0  0  0  0  0  0  0  0  0  0  0  0
   -3.5910   -1.2620    2.0300 O   0  0  0  0  0  0  0  0  0  0  0  0
   -2.0220   -1.2740    0.2960 C   0  0  0  0  0  0  0  0  0  0  0  0
   -1.6160   -1.9110   -0.7800 C   0  0  0  0  0  0  0  0  0  0  0  0
   -2.3000   -3.0630   -1.2240 N   0  0  0  0  0  0  0  0  0  0  0  0
   -0.5030   -1.4450   -1.5030 N   0  0  0  0  0  0  0  0  0  0  0  0
   -1.3230   -0.0220    0.6870 C   0  0  1  0  0  0  0  0  0  0  0  0
    0.1590   -0.1350    0.6760 C   0  0  0  0  0  0  0  0  0  0  0  0
    0.6630   -1.4610    1.1120 C   0  0  0  0  0  0  0  0  0  0  0  0
    1.8270   -1.8310    1.1520 O   0  0  0  0  0  0  0  0  0  0  0  0
   -0.2910   -2.4010    1.5270 O   0  0  0  0  0  0  0  0  0  0  0  0
    0.1150   -3.6990    1.9630 C   0  0  0  0  0  0  0  0  0  0  0  0
    0.9300    0.8500    0.2870 C   0  0  0  0  0  0  0  0  0  0  0  0
    2.3840    0.7370    0.2890 C   0  0  0  0  0  0  0  0  0  0  0  0
    3.0930    0.7270   -1.0100 C   0  0  1  0  0  0  0  0  0  0  0  0
    2.7180   -0.4020   -1.9440 C   0  0  0  0  0  0  0  0  0  0  0  0
    2.9880    2.0300   -1.7960 C   0  0  0  0  0  0  0  0  0  0  0  0
    4.5740    0.5510   -0.7380 C   0  0  0  0  0  0  0  0  0  0  0  0
    4.9430   -0.7020   -0.0320 C   0  0  0  0  0  0  0  0  0  0  0  0
    6.4460   -0.6740    0.1160 C   0  0  0  0  0  0  0  0  0  0  0  0
    7.1750   -1.6830    0.7320 C   0  0  0  0  0  0  0  0  0  0  0  0
    8.4930   -1.2930    0.6680 C   0  0  0  0  0  0  0  0  0  0  0  0
    8.5210   -0.0770    0.0250 C   0  0  0  0  0  0  0  0  0  0  0  0
    7.2910    0.2210   -0.2670 O   0  0  0  0  0  0  0  0  0  0  0  0
    0.2930    2.0610   -0.1680 N   0  0  0  0  0  0  0  0  0  0  0  0
   -1.0920    2.2720   -0.2340 C   0  0  0  0  0  0  0  0  0  0  0  0
   -1.6150    3.4660   -0.7160 C   0  0  0  0  0  0  0  0  0  0  0  0
   -0.7080    4.5420   -1.1310 C   0  0  0  0  0  0  0  0  0  0  0  0
   -2.9750    3.6020   -0.7900 C   0  0  0  0  0  0  0  0  0  0  0  0
   -3.8150    2.5880   -0.3990 C   0  0  0  0  0  0  0  0  0  0  0  0
   -5.2630    2.7570   -0.4890 C   0  0  0  0  0  0  0  0  0  0  0  0
   -5.9930    1.7960   -0.1170 O   0  0  0  0  0  0  0  0  0  0  0  0
   -5.8530    3.9020   -0.9540 O   0  0  0  0  0  0  0  0  0  0  0  0
   -7.2590    3.9690   -1.0030 C   0  0  0  0  0  0  0  0  0  0  0  0
   -3.2670    1.4180    0.0750 C   0  0  0  0  0  0  0  0  0  0  0  0
   -1.9110    1.2150    0.1770 C   0  0  0  0  0  0  0  0  0  0  0  0
  1  2  1  0
  2  3  1  0
  3  4  1  0
  4  5  2  0
  4  6  1  0
  6  7  2  3
 10  6  1  6
  7  8  1  0
  7  9  1  0
 10 11  1  0
 10 39  1  0
 11 12  1  0
 11 16  2  0
 12 13  2  0
 12 14  1  0
 14 15  1  0
 16 17  1  0
 16 28  1  0
 17 18  1  0
 18 19  1  6
 18 20  1  0
 18 21  1  0
 21 22  1  0
 22 23  1  0
 23 24  2  0
 23 27  1  0
 24 25  1  0
 25 26  2  0
 26 27  1  0
 28 29  1  0
 29 30  2  0
 29 39  1  0
 30 31  1  0
 30 32  1  0
 32 33  2  0
 33 34  1  0
 33 38  1  0
 34 35  2  0
 34 36  1  0
 36 37  1  0
 38 39  2  0
M  END
