
     RDKit          3D

 39 41  0  0  0  0  0  0  0  0999 V2000
   -4.6750   -4.4510   -1.3100 C   0  0  0  0  0  0  0  0  0  0  0  0
   -4.6600   -3.3010   -0.3910 C   0  0  0  0  0  0  0  0  0  0  0  0
   -4.5730   -2.0210   -0.7980 C   0  0  0  0  0  0  0  0  0  0  0  0
   -4.4930   -1.8600   -2.2280 C   0  0  0  0  0  0  0  0  0  0  0  0
   -5.1680   -1.0200   -3.0350 C   0  0  0  0  0  0  0  0  0  0  0  0
   -6.1770   -0.0450   -2.6090 C   0  0  0  0  0  0  0  0  0  0  0  0
   -5.8620    0.5140   -1.2570 C   0  0  0  0  0  0  0  0  0  0  0  0
   -5.5850    1.6890   -1.3390 O   0  0  0  0  0  0  0  0  0  0  0  0
   -5.8680   -0.2020    0.0320 C   0  0  0  0  0  0  0  0  0  0  0  0
   -4.5980   -1.0300    0.2720 C   0  0  2  0  0  0  0  0  0  0  0  0
   -3.4230   -0.1970    0.4940 C   0  0  0  0  0  0  0  0  0  0  0  0
   -3.6370    1.1450    0.8610 C   0  0  0  0  0  0  0  0  0  0  0  0
   -2.6380    2.0440    1.0990 C   0  0  0  0  0  0  0  0  0  0  0  0
   -2.8360    3.3930    1.4510 N   0  0  0  0  0  0  0  0  0  0  0  0
   -4.0400    4.0860    1.4050 C   0  0  0  0  0  0  0  0  0  0  0  0
   -5.0890    3.5710    1.0370 O   0  0  0  0  0  0  0  0  0  0  0  0
   -4.1270    5.5420    1.8130 C   0  0  0  0  0  0  0  0  0  0  0  0
   -5.4370    5.9690    1.6680 O   0  0  0  0  0  0  0  0  0  0  0  0
   -1.3090    1.5840    0.9670 C   0  0  0  0  0  0  0  0  0  0  0  0
   -1.0430    0.2860    0.6140 C   0  0  0  0  0  0  0  0  0  0  0  0
    0.2850   -0.1580    0.3900 N   0  0  0  0  0  0  0  0  0  0  0  0
    1.4850    0.4760    0.7990 C   0  0  0  0  0  0  0  0  0  0  0  0
    1.3870    1.5350    1.4390 O   0  0  0  0  0  0  0  0  0  0  0  0
    2.7570   -0.0730    0.4950 N   0  0  0  0  0  0  0  0  0  0  0  0
    3.9800    0.4870    0.8730 C   0  0  0  0  0  0  0  0  0  0  0  0
    4.1120    1.5630    1.6910 C   0  0  0  0  0  0  0  0  0  0  0  0
    5.3990    2.0170    2.0210 C   0  0  0  0  0  0  0  0  0  0  0  0
    6.5260    1.4090    1.5440 C   0  0  0  0  0  0  0  0  0  0  0  0
    7.8240    1.8240    1.8450 O   0  0  0  0  0  0  0  0  0  0  0  0
    7.9580    2.9460    2.7040 C   0  0  0  0  0  0  0  0  0  0  0  0
    6.3730    0.3220    0.7170 C   0  0  0  0  0  0  0  0  0  0  0  0
    5.1380   -0.1280    0.3890 C   0  0  0  0  0  0  0  0  0  0  0  0
    4.9970   -1.2160   -0.4380 O   0  0  0  0  0  0  0  0  0  0  0  0
    6.1290   -1.8710   -0.9560 C   0  0  0  0  0  0  0  0  0  0  0  0
    5.6930   -3.0530   -1.8320 C   0  0  0  0  0  0  0  0  0  0  0  0
    6.9600   -3.6950   -2.3560 C   0  0  0  0  0  0  0  0  0  0  0  0
    7.6890   -2.7680   -3.1170 O   0  0  0  0  0  0  0  0  0  0  0  0
   -2.1220   -0.5820    0.3860 C   0  0  0  0  0  0  0  0  0  0  0  0
   -1.8120   -1.9970    0.1040 C   0  0  0  0  0  0  0  0  0  0  0  0
  1  2  1  0
  2  3  2  3
  3  4  1  0
  3 10  1  0
  4  5  2  0
  5  6  1  0
  6  7  1  0
  7  8  2  0
  7  9  1  0
  9 10  1  0
 10 11  1  6
 11 12  2  0
 11 38  1  0
 12 13  1  0
 13 14  1  0
 13 19  2  0
 14 15  1  0
 15 16  2  0
 15 17  1  0
 17 18  1  0
 19 20  1  0
 20 21  1  0
 20 38  2  0
 21 22  1  0
 22 23  2  0
 22 24  1  0
 24 25  1  0
 25 26  2  0
 25 32  1  0
 26 27  1  0
 27 28  2  0
 28 29  1  0
 28 31  1  0
 29 30  1  0
 31 32  2  0
 32 33  1  0
 33 34  1  0
 34 35  1  0
 35 36  1  0
 36 37  1  0
 38 39  1  0
M  END
