
     RDKit          3D

 39 41  0  0  0  0  0  0  0  0999 V2000
    7.7220   -1.2870   -3.8530 C   0  0  0  0  0  0  0  0  0  0  0  0
    7.0660    0.0710   -3.7930 C   0  0  0  0  0  0  0  0  0  0  0  0
    6.0140    0.1320   -2.8620 O   0  0  0  0  0  0  0  0  0  0  0  0
    4.8710   -0.6310   -2.8920 C   0  0  0  0  0  0  0  0  0  0  0  0
    4.7360   -1.4670   -3.8350 O   0  0  0  0  0  0  0  0  0  0  0  0
    3.7760   -0.5420   -1.8890 C   0  0  0  0  0  0  0  0  0  0  0  0
    4.1070    0.4450   -0.7980 C   0  0  0  0  0  0  0  0  0  0  0  0
    3.0280    0.5350    0.2250 C   0  0  0  0  0  0  0  0  0  0  0  0
    2.1020    1.5740    0.1670 C   0  0  0  0  0  0  0  0  0  0  0  0
    1.0460    1.6970    1.0720 C   0  0  0  0  0  0  0  0  0  0  0  0
    0.8960    0.7700    2.0670 C   0  0  0  0  0  0  0  0  0  0  0  0
   -0.1180    0.8050    3.0370 N   0  0  0  0  0  0  0  0  0  0  0  0
   -1.0580    1.8170    3.2630 C   0  0  0  0  0  0  0  0  0  0  0  0
   -1.0470    2.8460    2.5460 O   0  0  0  0  0  0  0  0  0  0  0  0
   -2.0580    1.7110    4.3160 N   0  0  0  0  0  0  0  0  0  0  0  0
   -2.9590    2.8140    4.4250 C   0  0  0  0  0  0  0  0  0  0  0  0
   -3.8130    2.9490    3.2200 C   0  0  0  0  0  0  0  0  0  0  0  0
   -4.6040    3.9330    3.1150 O   0  0  0  0  0  0  0  0  0  0  0  0
   -3.7830    2.0180    2.1890 N   0  0  0  0  0  0  0  0  0  0  0  0
   -4.5210    2.0190    0.9740 C   0  0  0  0  0  0  0  0  0  0  0  0
   -5.2250    3.0970    0.5310 C   0  0  0  0  0  0  0  0  0  0  0  0
   -5.9160    3.1430   -0.6890 C   0  0  0  0  0  0  0  0  0  0  0  0
   -5.8590    2.0060   -1.4700 C   0  0  0  0  0  0  0  0  0  0  0  0
   -5.1650    0.9070   -1.0640 C   0  0  0  0  0  0  0  0  0  0  0  0
   -4.5030    0.8920    0.1320 C   0  0  0  0  0  0  0  0  0  0  0  0
   -3.7570   -0.2850    0.6350 C   0  0  0  0  0  0  0  0  0  0  0  0
   -4.1400   -1.5870   -0.0140 C   0  0  0  0  0  0  0  0  0  0  0  0
   -5.2480   -1.5040   -1.0050 C   0  0  0  0  0  0  0  0  0  0  0  0
   -5.0890   -0.3350   -1.9230 C   0  0  1  0  0  0  0  0  0  0  0  0
   -6.2070   -0.3180   -2.9500 C   0  0  0  0  0  0  0  0  0  0  0  0
   -3.7730   -0.3220   -2.6220 C   0  0  0  0  0  0  0  0  0  0  0  0
    1.8190   -0.2470    2.1100 C   0  0  0  0  0  0  0  0  0  0  0  0
    2.8800   -0.3930    1.2200 C   0  0  0  0  0  0  0  0  0  0  0  0
    3.8280   -1.4880    1.3900 C   0  0  0  0  0  0  0  0  0  0  0  0
    3.5570   -2.3670    2.2450 O   0  0  0  0  0  0  0  0  0  0  0  0
    4.9960   -1.6370    0.6930 O   0  0  0  0  0  0  0  0  0  0  0  0
    5.8430   -2.7170    0.9270 C   0  0  0  0  0  0  0  0  0  0  0  0
    5.2430   -4.0690    0.6830 C   0  0  0  0  0  0  0  0  0  0  0  0
    4.8090   -4.2660   -0.6040 O   0  0  0  0  0  0  0  0  0  0  0  0
  1  2  1  0
  2  3  1  0
  3  4  1  0
  4  5  2  0
  4  6  1  0
  6  7  1  0
  7  8  1  0
  8  9  2  0
  8 33  1  0
  9 10  1  0
 10 11  2  0
 11 12  1  0
 11 32  1  0
 12 13  1  0
 13 14  2  0
 13 15  1  0
 15 16  1  0
 16 17  1  0
 17 18  2  0
 17 19  1  0
 19 20  1  0
 20 21  2  0
 20 25  1  0
 21 22  1  0
 22 23  2  0
 23 24  1  0
 24 25  2  0
 24 29  1  0
 25 26  1  0
 26 27  1  0
 27 28  1  0
 28 29  1  0
 29 30  1  6
 29 31  1  0
 32 33  2  0
 33 34  1  0
 34 35  2  0
 34 36  1  0
 36 37  1  0
 37 38  1  0
 38 39  1  0
M  END
