
     RDKit          3D

 38 40  0  0  0  0  0  0  0  0999 V2000
   -0.1970   -3.9900    1.1370 C   0  0  0  0  0  0  0  0  0  0  0  0
   -0.5610   -4.1580   -0.2830 C   0  0  0  0  0  0  0  0  0  0  0  0
   -0.8780   -2.8580   -0.9690 C   0  0  0  0  0  0  0  0  0  0  0  0
    0.2500   -1.9220   -0.9130 C   0  0  0  0  0  0  0  0  0  0  0  0
    1.2580   -2.1900   -1.8630 C   0  0  0  0  0  0  0  0  0  0  0  0
    2.4160   -1.4700   -1.8420 C   0  0  0  0  0  0  0  0  0  0  0  0
    3.3350   -1.7080   -2.7020 O   0  0  0  0  0  0  0  0  0  0  0  0
    2.6100   -0.5040   -0.9220 N   0  0  0  0  0  0  0  0  0  0  0  0
    3.8530    0.2230   -0.9510 C   0  0  0  0  0  0  0  0  0  0  0  0
    4.9040   -0.3810   -0.0610 C   0  0  0  0  0  0  0  0  0  0  0  0
    4.6200   -1.3870    0.6230 O   0  0  0  0  0  0  0  0  0  0  0  0
    6.1960    0.1740    0.0060 N   0  0  0  0  0  0  0  0  0  0  0  0
    7.2240   -0.3690    0.8390 C   0  0  0  0  0  0  0  0  0  0  0  0
    8.4970    0.3650    0.7080 C   0  0  0  0  0  0  0  0  0  0  0  0
    8.8160    1.4820   -0.0240 C   0  0  0  0  0  0  0  0  0  0  0  0
   10.1370    1.7580    0.2020 C   0  0  0  0  0  0  0  0  0  0  0  0
   10.5780    0.7780    1.0810 C   0  0  0  0  0  0  0  0  0  0  0  0
    9.5820   -0.0200    1.3520 O   0  0  0  0  0  0  0  0  0  0  0  0
    1.6360   -0.2410   -0.0010 C   0  0  0  0  0  0  0  0  0  0  0  0
    0.4230   -0.9380    0.0330 C   0  0  0  0  0  0  0  0  0  0  0  0
   -0.6620   -0.5760    0.9450 C   0  0  2  0  0  0  0  0  0  0  0  0
   -1.7710    0.1060    0.2310 N   0  0  0  0  0  0  0  0  0  0  0  0
   -3.1030   -0.2170    0.6010 C   0  0  0  0  0  0  0  0  0  0  0  0
   -3.3290   -1.0510    1.5050 O   0  0  0  0  0  0  0  0  0  0  0  0
   -4.2730    0.4370   -0.0800 C   0  0  0  0  0  0  0  0  0  0  0  0
   -5.4470    0.0740    0.3300 C   0  0  0  0  0  0  0  0  0  0  0  0
   -6.7950    0.4480   -0.0480 C   0  0  1  0  0  0  0  0  0  0  0  0
   -7.0530    0.1990   -1.4930 C   0  0  0  0  0  0  0  0  0  0  0  0
   -7.7640   -0.5320    0.7140 C   0  0  0  0  0  0  0  0  0  0  0  0
   -7.2680    1.8000    0.4060 C   0  0  0  0  0  0  0  0  0  0  0  0
   -8.5900    1.9440   -0.0800 O   0  0  0  0  0  0  0  0  0  0  0  0
   -3.8910    1.4010   -1.1170 C   0  0  0  0  0  0  0  0  0  0  0  0
   -4.8870    2.0430   -1.7830 O   0  0  0  0  0  0  0  0  0  0  0  0
   -0.2270    0.4490    1.9830 C   0  0  0  0  0  0  0  0  0  0  0  0
    0.7080    1.4670    1.4670 C   0  0  1  0  0  0  0  0  0  0  0  0
    0.1980    2.3850    0.4010 C   0  0  0  0  0  0  0  0  0  0  0  0
    1.0310    2.3870    2.6650 C   0  0  0  0  0  0  0  0  0  0  0  0
    1.9610    0.7860    0.9910 C   0  0  0  0  0  0  0  0  0  0  0  0
  1  2  1  0
  2  3  1  0
  3  4  1  0
  4  5  2  0
  4 20  1  0
  5  6  1  0
  6  7  2  0
  6  8  1  0
  8  9  1  0
  8 19  1  0
  9 10  1  0
 10 11  2  0
 10 12  1  0
 12 13  1  0
 13 14  1  0
 14 15  2  0
 14 18  1  0
 15 16  1  0
 16 17  2  0
 17 18  1  0
 19 20  2  0
 19 38  1  0
 20 21  1  0
 21 22  1  6
 21 34  1  0
 22 23  1  0
 23 24  2  0
 23 25  1  0
 25 26  2  3
 25 32  1  0
 26 27  1  0
 27 28  1  6
 27 29  1  0
 27 30  1  0
 30 31  1  0
 32 33  1  0
 34 35  1  0
 35 36  1  6
 35 37  1  0
 35 38  1  0
M  END
