
     RDKit          3D

 39 41  0  0  0  0  0  0  0  0999 V2000
   -6.8540   -5.6050   -0.6510 C   0  0  0  0  0  0  0  0  0  0  0  0
   -5.8350   -4.9470    0.0840 O   0  0  0  0  0  0  0  0  0  0  0  0
   -5.3980   -3.7290   -0.4180 C   0  0  0  0  0  0  0  0  0  0  0  0
   -6.0540   -3.1940   -1.6080 C   0  0  0  0  0  0  0  0  0  0  0  0
   -5.4550   -2.0550   -1.9950 C   0  0  0  0  0  0  0  0  0  0  0  0
   -4.3950   -1.3060   -1.5420 C   0  0  0  0  0  0  0  0  0  0  0  0
   -3.9680   -0.2910   -2.0720 O   0  0  0  0  0  0  0  0  0  0  0  0
   -3.5050    0.8400   -2.6780 C   0  0  0  0  0  0  0  0  0  0  0  0
   -2.3590    1.4420   -1.7990 C   0  0  0  0  0  0  0  0  0  0  0  0
   -2.6690    1.6120   -0.4980 O   0  0  0  0  0  0  0  0  0  0  0  0
   -3.6070    2.5030   -0.0270 C   0  0  1  0  0  0  0  0  0  0  0  0
   -4.7250    1.5170    0.2130 C   0  0  0  0  0  0  0  0  0  0  0  0
   -5.8100    0.5600    0.4710 N   0  0  0  0  0  0  0  0  0  0  0  0
   -3.3370    3.0240    1.3680 C   0  0  0  0  0  0  0  0  0  0  0  0
   -3.6710    2.1940    2.3940 O   0  0  0  0  0  0  0  0  0  0  0  0
   -3.7590   -1.8320   -0.3310 C   0  0  0  0  0  0  0  0  0  0  0  0
   -2.5530   -1.5210    0.1050 N   0  0  0  0  0  0  0  0  0  0  0  0
   -1.8270   -0.9810    1.2160 C   0  0  0  0  0  0  0  0  0  0  0  0
   -2.4250   -0.5020    2.1020 O   0  0  0  0  0  0  0  0  0  0  0  0
   -0.3300   -1.1090    1.1570 C   0  0  0  0  0  0  0  0  0  0  0  0
    0.0470   -2.4710    1.1150 C   0  0  0  0  0  0  0  0  0  0  0  0
    1.3630   -2.6870    0.8540 C   0  0  0  0  0  0  0  0  0  0  0  0
    2.3430   -1.7760    0.6240 C   0  0  0  0  0  0  0  0  0  0  0  0
    3.5990   -2.1330    0.2750 O   0  0  0  0  0  0  0  0  0  0  0  0
    1.9060   -0.4180    0.7180 C   0  0  0  0  0  0  0  0  0  0  0  0
    2.8920    0.5450    0.5690 C   0  0  0  0  0  0  0  0  0  0  0  0
    4.1370   -0.0280    0.4090 O   0  0  0  0  0  0  0  0  0  0  0  0
    3.1110    1.9770    0.5100 N   0  0  0  0  0  0  0  0  0  0  0  0
    4.5500    2.1310    0.3160 C   0  0  0  0  0  0  0  0  0  0  0  0
    5.1000    1.9130   -0.8970 C   0  0  0  0  0  0  0  0  0  0  0  0
    4.3660    1.8500   -2.1620 C   0  0  0  0  0  0  0  0  0  0  0  0
    6.5020    1.7810   -0.9160 C   0  0  0  0  0  0  0  0  0  0  0  0
    7.2400    1.8740    0.2290 C   0  0  0  0  0  0  0  0  0  0  0  0
    8.7000    1.6320    0.2620 C   0  0  0  0  0  0  0  0  0  0  0  0
    6.6300    2.1090    1.4440 C   0  0  0  0  0  0  0  0  0  0  0  0
    5.2870    2.2400    1.4680 C   0  0  0  0  0  0  0  0  0  0  0  0
    4.5460    2.6410    2.7180 C   0  0  0  0  0  0  0  0  0  0  0  0
    0.5560   -0.1460    0.9810 C   0  0  0  0  0  0  0  0  0  0  0  0
   -4.3750   -3.0580    0.1040 C   0  0  0  0  0  0  0  0  0  0  0  0
  1  2  1  0
  2  3  1  0
  3  4  2  0
  3 39  1  0
  4  5  1  0
  5  6  2  0
  6  7  1  0
  6 16  1  0
  7  8  1  0
  8  9  1  0
  9 10  1  0
 10 11  1  0
 11 12  1  1
 11 14  1  0
 12 13  3  0
 14 15  1  0
 16 17  1  0
 16 39  2  0
 17 18  1  0
 18 19  2  0
 18 20  1  0
 20 21  2  0
 20 38  1  0
 21 22  1  0
 22 23  2  0
 23 24  1  0
 23 25  1  0
 25 26  1  0
 25 38  2  0
 26 27  2  0
 26 28  1  0
 28 29  1  0
 29 30  2  0
 29 36  1  0
 30 31  1  0
 30 32  1  0
 32 33  2  0
 33 34  1  0
 33 35  1  0
 35 36  2  0
 36 37  1  0
M  END
