
     RDKit          3D

 23 23  0  0  0  0  0  0  0  0999 V2000
    6.3520   -0.4990    0.7770 N   0  0  0  0  0  0  0  0  0  0  0  0
    5.7900    0.6720    1.3480 C   0  0  0  0  0  0  0  0  0  0  0  0
    5.8200    0.8080    2.5970 O   0  0  0  0  0  0  0  0  0  0  0  0
    5.2200    1.6360    0.4880 N   0  0  0  0  0  0  0  0  0  0  0  0
    3.7880    1.4210    0.4450 C   0  0  0  0  0  0  0  0  0  0  0  0
    3.5000   -0.0410    0.7100 C   0  0  0  0  0  0  0  0  0  0  0  0
    2.1600   -0.3340    0.6870 O   0  0  0  0  0  0  0  0  0  0  0  0
    1.5170   -0.0720   -0.4940 C   0  0  2  0  0  0  0  0  0  0  0  0
    0.3740    0.8170   -0.2250 C   0  0  0  0  0  0  0  0  0  0  0  0
    0.4540    2.0650    0.0150 O   0  0  0  0  0  0  0  0  0  0  0  0
   -0.8670    0.1010   -0.2640 N   0  0  0  0  0  0  0  0  0  0  0  0
   -2.1990    0.6580   -0.1880 C   0  0  1  0  0  0  0  0  0  0  0  0
   -3.0160    0.5150   -1.4200 C   0  0  0  0  0  0  0  0  0  0  0  0
   -3.2940   -0.8460   -1.9160 C   0  0  0  0  0  0  0  0  0  0  0  0
   -3.9630   -1.6790   -1.0700 O   0  0  0  0  0  0  0  0  0  0  0  0
   -2.8300    0.1950    1.0750 C   0  0  0  0  0  0  0  0  0  0  0  0
   -4.2350    0.7140    1.2720 C   0  0  0  0  0  0  0  0  0  0  0  0
   -4.7760    0.1780    2.5900 C   0  0  0  0  0  0  0  0  0  0  0  0
   -4.8050   -1.2130    2.5980 O   0  0  0  0  0  0  0  0  0  0  0  0
   -0.4720   -1.2590   -0.3820 C   0  0  0  0  0  0  0  0  0  0  0  0
   -1.1100   -2.2720   -0.0210 O   0  0  0  0  0  0  0  0  0  0  0  0
    0.8600   -1.3230   -1.0210 C   0  0  1  0  0  0  0  0  0  0  0  0
    0.6570   -1.2600   -2.4610 N   0  0  0  0  0  0  0  0  0  0  0  0
  1  2  1  0
  2  3  2  0
  2  4  1  0
  4  5  1  0
  5  6  1  0
  6  7  1  0
  8  7  1  1
  8  9  1  0
  8 22  1  0
  9 10  2  0
  9 11  1  0
 11 12  1  0
 11 20  1  0
 12 13  1  6
 12 16  1  0
 13 14  1  0
 14 15  1  0
 16 17  1  0
 17 18  1  0
 18 19  1  0
 20 21  2  0
 20 22  1  0
 22 23  1  6
M  CHG  2   4   1  23   1
M  END
