
     RDKit          3D

 22 22  0  0  0  0  0  0  0  0999 V2000
   -0.3920    4.8050    0.1800 C   0  0  0  0  0  0  0  0  0  0  0  0
   -0.3890    3.7040   -0.7410 N   0  0  0  0  0  0  0  0  0  0  0  0
   -0.5010    2.4150   -0.0240 C   0  0  0  0  0  0  0  0  0  0  0  0
   -0.2150    1.3520   -1.0070 C   0  0  0  0  0  0  0  0  0  0  0  0
   -0.2430   -0.0590   -0.5630 C   0  0  1  0  0  0  0  0  0  0  0  0
    0.7030   -0.2720    0.4780 O   0  0  0  0  0  0  0  0  0  0  0  0
    2.0490   -0.0400    0.2700 C   0  0  0  0  0  0  0  0  0  0  0  0
    2.6870    0.8020    1.0580 C   0  0  0  0  0  0  0  0  0  0  0  0
    4.1340    1.0110    0.7840 C   0  0  0  0  0  0  0  0  0  0  0  0
    4.8330   -0.2000    0.2750 C   0  0  0  0  0  0  0  0  0  0  0  0
    4.0440   -1.1490   -0.3130 O   0  0  0  0  0  0  0  0  0  0  0  0
    2.8340   -0.6910   -0.8030 C   0  0  0  0  0  0  0  0  0  0  0  0
   -1.5290   -0.7300   -0.3600 C   0  0  2  0  0  0  0  0  0  0  0  0
   -2.2510   -0.3800    0.8160 N   0  0  0  0  0  0  0  0  0  0  0  0
   -2.3820   -1.1720    1.9760 C   0  0  0  0  0  0  0  0  0  0  0  0
   -1.8560   -2.2970    2.1200 O   0  0  0  0  0  0  0  0  0  0  0  0
   -3.1470   -0.6910    3.0570 O   0  0  0  0  0  0  0  0  0  0  0  0
   -3.2500   -1.4660    4.1370 O   0  0  0  0  0  0  0  0  0  0  0  0
   -1.3480   -2.2600   -0.4980 C   0  0  2  0  0  0  0  0  0  0  0  0
   -0.8050   -2.4760   -1.8590 N   0  0  0  0  0  0  0  0  0  0  0  0
   -2.7620   -2.8390   -0.6080 C   0  0  0  0  0  0  0  0  0  0  0  0
   -2.7010   -4.2800   -0.7280 N   0  0  0  0  0  0  0  0  0  0  0  0
  1  2  1  0
  2  3  1  0
  3  4  1  0
  5  4  1  1
  5  6  1  0
  5 13  1  0
  6  7  1  0
  7  8  2  0
  7 12  1  0
  8  9  1  0
  9 10  1  0
 10 11  1  0
 11 12  1  0
 13 14  1  1
 13 19  1  0
 14 15  1  0
 15 16  2  0
 15 17  1  0
 17 18  1  0
 19 20  1  6
 19 21  1  0
 21 22  1  0
M  CHG  2   2   1  20   1
M  END
