
     RDKit          3D

  9  9  0  0  0  0  0  0  0  0999 V2000
    3.2060   -0.7130    1.4750 O   0  0  0  0  0  0  0  0  0  0  0  0
    3.2310    0.2590    0.3400 S   0  0  0  0  0  0  0  0  0  0  0  0
    1.7930    1.1840    0.2270 N   0  0  0  0  0  0  0  0  0  0  0  0
    0.6520    0.4280   -0.2610 C   0  0  2  0  0  0  0  0  0  0  0  0
   -0.5380    1.3350   -0.3170 C   0  0  0  0  0  0  0  0  0  0  0  0
   -1.8630    0.7150   -0.2790 C   0  0  0  0  0  0  0  0  0  0  0  0
   -2.0210   -0.6520    0.2340 C   0  0  0  0  0  0  0  0  0  0  0  0
   -0.8140   -1.4960    0.3650 C   0  0  0  0  0  0  0  0  0  0  0  0
    0.4620   -0.7690    0.6170 C   0  0  0  0  0  0  0  0  0  0  0  0
  1  2  2  0
  2  3  1  0
  4  3  1  1
  4  5  1  0
  4  9  1  0
  5  6  1  0
  6  7  1  0
  7  8  1  0
  8  9  1  0
M  END
