
     RDKit          3D

 17 18  0  0  0  0  0  0  0  0999 V2000
   -4.2150   -2.1860    0.0520 N   0  0  0  0  0  0  0  0  0  0  0  0
   -3.5570   -0.9290    0.0280 C   0  0  0  0  0  0  0  0  0  0  0  0
   -4.3060    0.2340   -0.0550 C   0  0  0  0  0  0  0  0  0  0  0  0
   -3.6490    1.4370   -0.1280 C   0  0  0  0  0  0  0  0  0  0  0  0
   -2.2700    1.4820   -0.1220 C   0  0  0  0  0  0  0  0  0  0  0  0
   -1.4830    0.3570   -0.0360 C   0  0  0  0  0  0  0  0  0  0  0  0
   -0.0380    0.3860   -0.0950 C   0  0  0  0  0  0  0  0  0  0  0  0
    0.6530   -0.7910   -0.2940 C   0  0  0  0  0  0  0  0  0  0  0  0
    2.0400   -0.7310   -0.4230 C   0  0  0  0  0  0  0  0  0  0  0  0
    2.7660    0.4370   -0.3640 C   0  0  0  0  0  0  0  0  0  0  0  0
    4.5130    0.4460   -0.4500 S   0  0  2  0  0  0  0  0  0  0  0  0
    5.1340   -0.9550   -1.2390 N   0  0  0  0  0  0  0  0  0  0  0  0
    5.0280    0.5070    0.9510 O   0  0  0  0  0  0  0  0  0  0  0  0
    5.0380    1.6390   -1.1950 O   0  0  0  0  0  0  0  0  0  0  0  0
    2.0610    1.5880   -0.1700 C   0  0  0  0  0  0  0  0  0  0  0  0
    0.6780    1.5560   -0.0360 C   0  0  0  0  0  0  0  0  0  0  0  0
   -2.1720   -0.8440    0.0390 C   0  0  0  0  0  0  0  0  0  0  0  0
  1  2  1  0
  2  3  2  0
  2 17  1  0
  3  4  1  0
  4  5  2  0
  5  6  1  0
  6  7  1  0
  6 17  2  0
  7  8  2  0
  7 16  1  0
  8  9  1  0
  9 10  2  0
 10 11  1  0
 10 15  1  0
 11 12  1  6
 11 13  2  0
 11 14  2  0
 15 16  2  0
M  END
