
     RDKit          3D

 25 27  0  0  0  0  0  0  0  0999 V2000
    3.7420    4.0630    2.8290 C   0  0  0  0  0  0  0  0  0  0  0  0
    3.6580    3.7790    1.6200 C   0  0  0  0  0  0  0  0  0  0  0  0
    2.8750    2.9190    0.7560 C   0  0  0  0  0  0  0  0  0  0  0  0
    3.2150    3.0080   -0.5340 C   0  0  0  0  0  0  0  0  0  0  0  0
    2.8120    2.4350   -1.7380 C   0  0  0  0  0  0  0  0  0  0  0  0
    1.7970    2.0190    1.2030 C   0  0  0  0  0  0  0  0  0  0  0  0
    1.4700    1.9390    2.4930 C   0  0  0  0  0  0  0  0  0  0  0  0
    0.4050    1.0690    3.0530 C   0  0  0  0  0  0  0  0  0  0  0  0
   -0.2680    0.3030    2.0620 N   0  0  0  0  0  0  0  0  0  0  0  0
   -1.3430   -0.6590    2.1150 C   0  0  0  0  0  0  0  0  0  0  0  0
   -1.9350   -1.0300    3.1650 O   0  0  0  0  0  0  0  0  0  0  0  0
   -1.6120   -1.1120    0.7710 C   0  0  0  0  0  0  0  0  0  0  0  0
   -2.5850   -2.0550    0.3410 N   0  0  0  0  0  0  0  0  0  0  0  0
   -2.3500   -3.2150   -0.1220 C   0  0  0  0  0  0  0  0  0  0  0  0
   -3.4020   -4.1620   -0.5570 C   0  0  0  0  0  0  0  0  0  0  0  0
   -2.7030   -5.0590   -1.5810 C   0  0  0  0  0  0  0  0  0  0  0  0
   -1.3180   -5.1180   -1.0110 C   0  0  0  0  0  0  0  0  0  0  0  0
   -0.5040   -6.0730   -1.1110 O   0  0  0  0  0  0  0  0  0  0  0  0
   -1.1120   -3.8730   -0.3340 N   0  0  0  0  0  0  0  0  0  0  0  0
   -0.7930   -0.5040   -0.0870 C   0  0  0  0  0  0  0  0  0  0  0  0
   -0.7280   -0.6740   -1.5480 C   0  0  0  0  0  0  0  0  0  0  0  0
   -1.0670    0.5310   -2.3520 C   0  0  0  0  0  0  0  0  0  0  0  0
   -2.4910    0.9540   -2.0230 C   0  0  0  0  0  0  0  0  0  0  0  0
    0.0710    0.3960    0.6990 C   0  0  0  0  0  0  0  0  0  0  0  0
    1.0350    1.1980    0.3510 N   0  0  0  0  0  0  0  0  0  0  0  0
  1  2  2  0
  2  3  1  0
  3  4  2  3
  3  6  1  0
  4  5  1  0
  6  7  2  0
  6 25  1  0
  7  8  1  0
  8  9  1  0
  9 10  1  0
  9 24  1  0
 10 11  2  0
 10 12  1  0
 12 13  1  0
 12 20  2  0
 13 14  2  3
 14 15  1  0
 14 19  1  0
 15 16  1  0
 16 17  1  0
 17 18  2  0
 17 19  1  0
 20 21  1  0
 20 24  1  0
 21 22  1  0
 22 23  1  0
 24 25  2  0
M  CHG  1  25   1
M  END
