
     RDKit          3D

  9  9  0  0  0  0  0  0  0  0999 V2000
   -2.0390    1.0630    0.9680 C   0  0  0  0  0  0  0  0  0  0  0  0
   -1.1030   -0.0580    0.7830 N   0  0  0  0  0  0  0  0  0  0  0  0
   -1.5860   -1.0060   -0.1440 C   0  0  0  0  0  0  0  0  0  0  0  0
   -0.5790   -1.6690   -1.0030 C   0  0  0  0  0  0  0  0  0  0  0  0
    0.4990   -0.8960   -1.3530 O   0  0  0  0  0  0  0  0  0  0  0  0
    1.1170   -0.3030   -0.2620 C   0  0  1  0  0  0  0  0  0  0  0  0
    2.1630    0.6550   -0.8190 C   0  0  0  0  0  0  0  0  0  0  0  0
    3.0510    1.5020    0.5120 S   0  0  0  0  0  0  0  0  0  0  0  0
    0.1850    0.4730    0.5860 C   0  0  0  0  0  0  0  0  0  0  0  0
  1  2  1  0
  2  3  1  0
  2  9  1  0
  3  4  1  0
  4  5  1  0
  5  6  1  0
  6  7  1  6
  6  9  1  0
  7  8  1  0
M  END
