
     RDKit          3D

  9  9  0  0  0  0  0  0  0  0999 V2000
    3.1790   -0.3200   -0.1320 C   0  0  0  0  0  0  0  0  0  0  0  0
    1.7250   -0.2740   -0.4060 C   0  0  0  0  0  0  0  0  0  0  0  0
    1.2920   -0.5010   -1.5570 O   0  0  0  0  0  0  0  0  0  0  0  0
    0.7580    0.0260    0.5990 N   0  0  0  0  0  0  0  0  0  0  0  0
   -0.6550    0.0600    0.2830 C   0  0  0  0  0  0  0  0  0  0  0  0
   -1.3970    1.0880    0.4280 C   0  0  0  0  0  0  0  0  0  0  0  0
   -2.8140    0.9890    0.0700 C   0  0  0  0  0  0  0  0  0  0  0  0
   -3.0550   -0.8110    0.0300 S   0  0  0  0  0  0  0  0  0  0  0  0
   -1.2720   -1.1670   -0.2340 C   0  0  0  0  0  0  0  0  0  0  0  0
  1  2  1  0
  2  3  2  0
  2  4  1  0
  4  5  1  0
  5  6  2  0
  5  9  1  0
  6  7  1  0
  7  8  1  0
  8  9  1  0
M  END
