
     RDKit          3D

 11 12  0  0  0  0  0  0  0  0999 V2000
   -2.8870    0.6140   -0.2400 O   0  0  0  0  0  0  0  0  0  0  0  0
   -1.8350    0.0820   -0.0860 C   0  0  0  0  0  0  0  0  0  0  0  0
   -1.2610   -1.2720    0.0010 C   0  0  0  0  0  0  0  0  0  0  0  0
   -0.2020   -0.6850    0.8390 N   0  0  0  0  0  0  0  0  0  0  0  0
    1.0710   -1.1190    0.5070 N   0  0  0  0  0  0  0  0  0  0  0  0
    1.5830   -0.2440   -0.5230 C   0  0  0  0  0  0  0  0  0  0  0  0
    0.4210    0.4220   -1.0040 N   0  0  0  0  0  0  0  0  0  0  0  0
    0.7320    1.8780   -1.8600 Cl  0  0  0  0  0  0  0  0  0  0  0  0
   -0.4230    0.5520    0.1190 C   0  0  1  0  0  0  0  0  0  0  0  0
   -0.3390    1.7600    0.9030 N   0  0  0  0  0  0  0  0  0  0  0  0
    1.2270    2.3660    1.1770 Cl  0  0  0  0  0  0  0  0  0  0  0  0
  1  2  2  0
  2  3  1  0
  2  9  1  0
  3  4  1  0
  4  5  1  0
  4  9  1  0
  5  6  1  0
  6  7  1  0
  7  8  1  0
  7  9  1  0
  9 10  1  1
 10 11  1  0
M  END
