
     RDKit          3D

 16 15  0  0  0  0  0  0  0  0999 V2000
   -2.4620   -2.0050    1.0420 C   0  0  0  0  0  0  0  0  0  0  0  0
   -2.2330   -1.2790   -0.2490 C   0  0  0  0  0  0  0  0  0  0  0  0
   -2.1640    0.2070   -0.0710 C   0  0  2  0  0  0  0  0  0  0  0  0
   -1.9440    0.9140   -1.3640 C   0  0  0  0  0  0  0  0  0  0  0  0
   -2.9870    0.6710   -2.2790 O   0  0  0  0  0  0  0  0  0  0  0  0
   -1.3820    0.6810    1.0760 C   0  0  0  0  0  0  0  0  0  0  0  0
    0.0240    0.3670    1.2880 C   0  0  0  0  0  0  0  0  0  0  0  0
    0.9710    0.8130    0.2470 C   0  0  1  0  0  0  0  0  0  0  0  0
    0.8700    2.1890    0.1170 O   0  0  0  0  0  0  0  0  0  0  0  0
    2.2980    0.4460    0.5400 O   0  0  0  0  0  0  0  0  0  0  0  0
    2.8540   -0.3560   -0.4410 C   0  0  0  0  0  0  0  0  0  0  0  0
    4.2710   -0.7500   -0.1340 C   0  0  0  0  0  0  0  0  0  0  0  0
    5.0580    0.3990   -0.0220 O   0  0  0  0  0  0  0  0  0  0  0  0
    6.3710    0.0910    0.2610 C   0  0  0  0  0  0  0  0  0  0  0  0
   -3.9470    0.6290    0.3830 S   0  0  0  0  0  0  0  0  0  0  0  0
   -5.0500    0.2690   -0.9720 C   0  0  0  0  0  0  0  0  0  0  0  0
  1  2  1  0
  3  2  1  6
  3  4  1  0
  3  6  1  0
  3 15  1  0
  4  5  1  0
  6  7  1  0
  7  8  1  0
  8  9  1  1
  8 10  1  0
 10 11  1  0
 11 12  1  0
 12 13  1  0
 13 14  1  0
 15 16  1  0
M  END
