
     RDKit          3D

 11 11  0  0  0  0  0  0  0  0999 V2000
   -2.1730   -0.8340    2.1110 N   0  0  0  0  0  0  0  0  0  0  0  0
   -1.7990   -0.3510    1.0010 N   0  0  0  0  0  0  0  0  0  0  0  0
   -2.1860    1.2760    0.5560 Cl  0  0  0  0  0  0  0  0  0  0  0  0
   -1.0550   -1.1870    0.1340 C   0  0  0  0  0  0  0  0  0  0  0  0
   -0.7590   -2.3740    0.4310 O   0  0  0  0  0  0  0  0  0  0  0  0
   -0.6120   -0.6960   -1.1230 N   0  0  0  0  0  0  0  0  0  0  0  0
    0.6220   -0.3890   -1.1990 C   0  0  0  0  0  0  0  0  0  0  0  0
    1.7840    0.2300   -1.2090 C   0  0  0  0  0  0  0  0  0  0  0  0
    3.1420    0.1190   -1.3050 N   0  0  0  0  0  0  0  0  0  0  0  0
    2.5730    1.4360   -1.1370 C   0  0  0  0  0  0  0  0  0  0  0  0
    3.1770    3.0140   -1.0160 Cl  0  0  0  0  0  0  0  0  0  0  0  0
  1  2  2  0
  2  3  1  0
  2  4  1  0
  4  5  2  0
  4  6  1  0
  6  7  2  0
  7  8  2  0
  8  9  1  0
  8 10  1  0
  9 10  2  0
 10 11  1  0
M  CHG  1   2   1
M  END
