
     RDKit          3D

 16 15  0  0  0  0  0  0  0  0999 V2000
   -3.6280    1.2260    0.9910 C   0  0  0  0  0  0  0  0  0  0  0  0
   -3.4920   -0.0350    0.6170 C   0  0  0  0  0  0  0  0  0  0  0  0
   -4.2790   -0.9770    1.2610 O   0  0  0  0  0  0  0  0  0  0  0  0
   -2.5470   -0.3940   -0.4330 C   0  0  0  0  0  0  0  0  0  0  0  0
   -2.4300   -1.6560   -0.7870 C   0  0  0  0  0  0  0  0  0  0  0  0
   -1.4840   -2.1030   -1.8530 C   0  0  0  0  0  0  0  0  0  0  0  0
   -1.7080    0.6140   -1.1220 C   0  0  1  0  0  0  0  0  0  0  0  0
   -2.5230    1.5510   -1.7850 O   0  0  0  0  0  0  0  0  0  0  0  0
   -0.8550    1.2810   -0.2480 O   0  0  0  0  0  0  0  0  0  0  0  0
    0.4340    1.1150   -0.6740 C   0  0  0  0  0  0  0  0  0  0  0  0
    1.4700    1.7910    0.1750 C   0  0  0  0  0  0  0  0  0  0  0  0
    1.5060    1.3420    1.5890 C   0  0  0  0  0  0  0  0  0  0  0  0
    1.7960   -0.3850    1.8680 S   0  0  0  0  0  0  0  0  0  0  0  0
    3.3940   -1.0170    1.4680 C   0  0  0  0  0  0  0  0  0  0  0  0
    3.7430   -1.0880    0.0110 C   0  0  0  0  0  0  0  0  0  0  0  0
    5.0330   -1.6370   -0.1070 O   0  0  0  0  0  0  0  0  0  0  0  0
  1  2  2  0
  2  3  1  0
  2  4  1  0
  4  5  2  3
  4  7  1  0
  5  6  1  0
  7  8  1  1
  7  9  1  0
  9 10  1  0
 10 11  1  0
 11 12  1  0
 12 13  1  0
 13 14  1  0
 14 15  1  0
 15 16  1  0
M  END
