
     RDKit          3D

 12 12  0  0  0  0  0  0  0  0999 V2000
   -1.8980   -1.2290   -0.3390 N   0  0  0  0  0  0  0  0  0  0  0  0
   -1.8650    0.2010   -0.4190 C   0  0  2  0  0  0  0  0  0  0  0  0
   -0.6800    0.7260   -1.1830 C   0  0  0  0  0  0  0  0  0  0  0  0
    0.6140    0.3500   -0.6130 C   0  0  0  0  0  0  0  0  0  0  0  0
    1.2680   -0.8050   -0.9820 C   0  0  0  0  0  0  0  0  0  0  0  0
    2.4880   -1.1670   -0.4500 C   0  0  0  0  0  0  0  0  0  0  0  0
    3.1080   -0.3710    0.4890 C   0  0  0  0  0  0  0  0  0  0  0  0
    2.4670    0.7860    0.8680 C   0  0  0  0  0  0  0  0  0  0  0  0
    1.2370    1.1430    0.3250 C   0  0  0  0  0  0  0  0  0  0  0  0
   -1.9970    0.7950    0.9150 C   0  0  0  0  0  0  0  0  0  0  0  0
   -1.9930    2.0370    1.0720 O   0  0  0  0  0  0  0  0  0  0  0  0
   -2.1270   -0.0200    2.0230 O   0  0  0  0  0  0  0  0  0  0  0  0
  2  1  1  1
  2  3  1  0
  2 10  1  0
  3  4  1  0
  4  5  2  0
  4  9  1  0
  5  6  1  0
  6  7  2  0
  7  8  1  0
  8  9  2  0
 10 11  2  0
 10 12  1  0
M  CHG  1   1   1
M  END
