
     RDKit          3D

 37 41  0  0  0  0  0  0  0  0999 V2000
   -2.1390    6.0820    2.4340 C   0  0  0  0  0  0  0  0  0  0  0  0
   -1.7680    5.0350    3.1570 C   0  0  0  0  0  0  0  0  0  0  0  0
   -0.3320    4.6700    3.3710 C   0  0  0  0  0  0  0  0  0  0  0  0
   -0.0520    3.3410    2.8620 N   0  0  0  0  0  0  0  0  0  0  0  0
   -0.2100    3.0600    1.4780 C   0  0  0  0  0  0  0  0  0  0  0  0
    0.0420    1.7930    0.9830 C   0  0  0  0  0  0  0  0  0  0  0  0
   -0.1110    1.5490   -0.3660 C   0  0  0  0  0  0  0  0  0  0  0  0
    0.1270    0.2300   -0.9850 C   0  0  1  0  0  0  0  0  0  0  0  0
    1.3280   -0.3880   -0.4270 N   0  0  0  0  0  0  0  0  0  0  0  0
    2.4760   -0.6010   -1.2280 C   0  0  0  0  0  0  0  0  0  0  0  0
    2.4930   -0.2580   -2.4460 O   0  0  0  0  0  0  0  0  0  0  0  0
    3.6850   -1.2120   -0.7160 C   0  0  0  0  0  0  0  0  0  0  0  0
    4.8710   -1.1550   -1.4140 C   0  0  0  0  0  0  0  0  0  0  0  0
    6.0460   -1.7340   -0.9550 C   0  0  0  0  0  0  0  0  0  0  0  0
    5.9920   -2.3890    0.2590 C   0  0  0  0  0  0  0  0  0  0  0  0
    7.1520   -3.0150    0.8140 N   0  0  0  0  0  0  0  0  0  0  0  0
    7.8020   -2.5860    1.8990 C   0  0  0  0  0  0  0  0  0  0  0  0
    8.8420   -3.3810    2.1660 N   0  0  0  0  0  0  0  0  0  0  0  0
    8.8320   -4.3410    1.2040 C   0  0  0  0  0  0  0  0  0  0  0  0
    7.7940   -4.0880    0.4020 N   0  0  0  0  0  0  0  0  0  0  0  0
    4.8340   -2.4740    0.9940 C   0  0  0  0  0  0  0  0  0  0  0  0
    3.6750   -1.8740    0.4890 C   0  0  0  0  0  0  0  0  0  0  0  0
   -1.0440   -0.6760   -0.8720 C   0  0  0  0  0  0  0  0  0  0  0  0
   -0.8750   -1.7880   -0.3490 O   0  0  0  0  0  0  0  0  0  0  0  0
   -2.3080   -0.2730   -1.3510 N   0  0  0  0  0  0  0  0  0  0  0  0
   -3.4920   -1.0180   -1.3090 C   0  0  0  0  0  0  0  0  0  0  0  0
   -3.6430   -2.2050   -0.6650 C   0  0  0  0  0  0  0  0  0  0  0  0
   -4.8810   -2.8440   -0.7170 C   0  0  0  0  0  0  0  0  0  0  0  0
   -5.9630   -2.3340   -1.3860 C   0  0  0  0  0  0  0  0  0  0  0  0
   -5.8170   -1.1310   -2.0400 C   0  0  0  0  0  0  0  0  0  0  0  0
   -4.5990   -0.5040   -1.9890 C   0  0  0  0  0  0  0  0  0  0  0  0
   -7.1350   -0.8420   -2.6610 C   0  0  0  0  0  0  0  0  0  0  0  0
   -7.7950   -2.0490   -2.6860 O   0  0  0  0  0  0  0  0  0  0  0  0
   -7.3690   -2.7860   -1.6040 C   0  0  0  0  0  0  0  0  0  0  0  0
   -0.5130    2.5920   -1.1710 C   0  0  0  0  0  0  0  0  0  0  0  0
   -0.7660    3.8540   -0.6850 C   0  0  0  0  0  0  0  0  0  0  0  0
   -0.6010    4.0380    0.6410 N   0  0  0  0  0  0  0  0  0  0  0  0
  1  2  2  0
  2  3  1  0
  3  4  1  0
  4  5  1  0
  5  6  2  0
  5 37  1  0
  6  7  1  0
  7  8  1  0
  7 35  2  0
  8  9  1  1
  8 23  1  0
  9 10  1  0
 10 11  2  0
 10 12  1  0
 12 13  2  0
 12 22  1  0
 13 14  1  0
 14 15  2  0
 15 16  1  0
 15 21  1  0
 16 17  1  0
 16 20  1  0
 17 18  2  0
 18 19  1  0
 19 20  2  0
 21 22  2  0
 23 24  2  0
 23 25  1  0
 25 26  1  0
 26 27  2  0
 26 31  1  0
 27 28  1  0
 28 29  2  0
 29 30  1  0
 29 34  1  0
 30 31  2  0
 30 32  1  0
 32 33  1  0
 33 34  1  0
 35 36  1  0
 36 37  2  0
M  END
