
     RDKit          3D

 37 41  0  0  0  0  0  0  0  0999 V2000
    6.5660    0.3070   -3.1740 C   0  0  0  0  0  0  0  0  0  0  0  0
    6.3290    1.5180   -2.3370 C   0  0  0  0  0  0  0  0  0  0  0  0
    5.6330    1.2510   -1.0880 N   0  0  0  0  0  0  0  0  0  0  0  0
    4.3240    0.7080   -1.0490 C   0  0  0  0  0  0  0  0  0  0  0  0
    3.6830    0.5460   -2.2650 C   0  0  0  0  0  0  0  0  0  0  0  0
    2.3870    0.0730   -2.3330 C   0  0  0  0  0  0  0  0  0  0  0  0
    1.7690   -0.2270   -1.1470 C   0  0  0  0  0  0  0  0  0  0  0  0
    0.3590   -0.7220   -1.1040 C   0  0  0  0  0  0  0  0  0  0  0  0
   -0.1890   -0.8680   -2.3680 O   0  0  0  0  0  0  0  0  0  0  0  0
   -1.4570   -1.2640   -2.7110 C   0  0  0  0  0  0  0  0  0  0  0  0
   -1.7520   -1.3150   -4.0520 C   0  0  0  0  0  0  0  0  0  0  0  0
   -3.0060   -1.7010   -4.4710 C   0  0  0  0  0  0  0  0  0  0  0  0
   -3.9400   -2.0280   -3.5320 C   0  0  0  0  0  0  0  0  0  0  0  0
   -3.6880   -1.9920   -2.1780 C   0  0  0  0  0  0  0  0  0  0  0  0
   -4.7420   -2.3460   -1.2430 C   0  0  0  0  0  0  0  0  0  0  0  0
   -5.7000   -3.3400   -1.4390 C   0  0  0  0  0  0  0  0  0  0  0  0
   -6.4940   -3.3380   -0.3710 N   0  0  0  0  0  0  0  0  0  0  0  0
   -6.0950   -2.4080    0.4800 N   0  0  0  0  0  0  0  0  0  0  0  0
   -6.3670   -1.8770    1.6500 O   0  0  0  0  0  0  0  0  0  0  0  0
   -5.5190   -0.9220    1.9450 C   0  0  0  0  0  0  0  0  0  0  0  0
   -5.5100   -0.0990    3.1810 C   0  0  0  0  0  0  0  0  0  0  0  0
   -5.8030    1.2930    2.9620 N   0  0  0  0  0  0  0  0  0  0  0  0
   -7.0150    1.7640    2.3980 C   0  0  0  0  0  0  0  0  0  0  0  0
   -7.2650    3.2300    2.1970 C   0  0  0  0  0  0  0  0  0  0  0  0
   -7.8850    0.9340    2.0670 O   0  0  0  0  0  0  0  0  0  0  0  0
   -4.6680   -0.8470    0.9070 N   0  0  0  0  0  0  0  0  0  0  0  0
   -5.0180   -1.7760   -0.0210 C   0  0  0  0  0  0  0  0  0  0  0  0
   -2.4270   -1.6030   -1.7890 C   0  0  0  0  0  0  0  0  0  0  0  0
    2.4120   -0.0630    0.0190 N   0  0  0  0  0  0  0  0  0  0  0  0
    3.6750    0.3960    0.1140 C   0  0  0  0  0  0  0  0  0  0  0  0
    4.3240    0.5640    1.4120 C   0  0  0  0  0  0  0  0  0  0  0  0
    3.6540    1.2750    2.4140 C   0  0  0  0  0  0  0  0  0  0  0  0
    4.2160    1.4330    3.6670 C   0  0  0  0  0  0  0  0  0  0  0  0
    5.4570    0.8990    3.9790 C   0  0  0  0  0  0  0  0  0  0  0  0
    5.9780    1.0980    5.3010 N   0  0  0  0  0  0  0  0  0  0  0  0
    6.1190    0.2010    3.0030 C   0  0  0  0  0  0  0  0  0  0  0  0
    5.5500    0.0430    1.7420 C   0  0  0  0  0  0  0  0  0  0  0  0
  1  2  1  0
  2  3  1  0
  3  4  1  0
  4  5  2  0
  4 30  1  0
  5  6  1  0
  6  7  2  0
  7  8  1  0
  7 29  1  0
  8  9  1  0
  9 10  1  0
 10 11  2  0
 10 28  1  0
 11 12  1  0
 12 13  2  0
 13 14  1  0
 14 15  1  0
 14 28  2  0
 15 16  1  0
 15 27  2  0
 16 17  2  0
 17 18  1  0
 18 19  1  0
 18 27  1  0
 19 20  1  0
 20 21  1  0
 20 26  2  0
 21 22  1  0
 22 23  1  0
 23 24  1  0
 23 25  2  0
 26 27  1  0
 29 30  2  0
 30 31  1  0
 31 32  2  0
 31 37  1  0
 32 33  1  0
 33 34  2  0
 34 35  1  0
 34 36  1  0
 36 37  2  0
M  END
