
     RDKit          3D

 37 41  0  0  0  0  0  0  0  0999 V2000
    6.5810   -2.4790   -1.0490 C   0  0  0  0  0  0  0  0  0  0  0  0
    6.3780   -1.3180   -0.2150 N   0  0  0  0  0  0  0  0  0  0  0  0
    5.0570   -0.9800    0.2240 C   0  0  0  0  0  0  0  0  0  0  0  0
    4.9260    0.0900    0.8640 O   0  0  0  0  0  0  0  0  0  0  0  0
    3.9420   -1.8200   -0.0490 N   0  0  0  0  0  0  0  0  0  0  0  0
    2.6230   -1.4430    0.4160 C   0  0  0  0  0  0  0  0  0  0  0  0
    2.1300   -0.1420   -0.2010 C   0  0  0  0  0  0  0  0  0  0  0  0
    0.8840    0.2070    0.2750 O   0  0  0  0  0  0  0  0  0  0  0  0
    0.4140    1.3470   -0.3500 C   0  0  0  0  0  0  0  0  0  0  0  0
    0.1430    1.0250   -1.8080 C   0  0  0  0  0  0  0  0  0  0  0  0
   -0.8240   -0.0180   -1.7950 O   0  0  0  0  0  0  0  0  0  0  0  0
   -2.1050    0.1320   -1.2710 C   0  0  0  0  0  0  0  0  0  0  0  0
   -2.9510   -0.9590   -1.2840 C   0  0  0  0  0  0  0  0  0  0  0  0
   -4.2500   -0.8540   -0.7680 C   0  0  0  0  0  0  0  0  0  0  0  0
   -5.0830   -2.0400   -0.7520 C   0  0  0  0  0  0  0  0  0  0  0  0
   -5.6180   -2.5080    0.4480 C   0  0  0  0  0  0  0  0  0  0  0  0
   -6.4200   -3.6260    0.4630 C   0  0  0  0  0  0  0  0  0  0  0  0
   -6.7070   -4.3040   -0.7220 C   0  0  0  0  0  0  0  0  0  0  0  0
   -6.1760   -3.8310   -1.8610 N   0  0  0  0  0  0  0  0  0  0  0  0
   -5.3880   -2.7360   -1.8910 C   0  0  0  0  0  0  0  0  0  0  0  0
   -4.6840    0.3670   -0.2450 C   0  0  0  0  0  0  0  0  0  0  0  0
   -5.9640    0.4780    0.2490 C   0  0  0  0  0  0  0  0  0  0  0  0
   -6.3810    1.6950    0.7520 C   0  0  0  0  0  0  0  0  0  0  0  0
   -5.5570    2.7860    0.7720 C   0  0  0  0  0  0  0  0  0  0  0  0
   -4.2750    2.6220    0.2620 C   0  0  0  0  0  0  0  0  0  0  0  0
   -3.8090    1.4290   -0.2530 C   0  0  0  0  0  0  0  0  0  0  0  0
   -2.5890    1.2680   -0.7530 N   0  0  0  0  0  0  0  0  0  0  0  0
   -6.2900    3.9200    1.3690 C   0  0  0  0  0  0  0  0  0  0  0  0
   -7.6750    3.5360    1.2620 N   0  0  0  0  0  0  0  0  0  0  0  0
   -7.7060    2.0940    1.3180 C   0  0  0  0  0  0  0  0  0  0  0  0
    7.4700   -0.4960    0.1700 C   0  0  0  0  0  0  0  0  0  0  0  0
    8.5720   -1.1300    0.6950 C   0  0  0  0  0  0  0  0  0  0  0  0
    9.6680   -0.4260    1.1130 C   0  0  0  0  0  0  0  0  0  0  0  0
    9.6670    0.9460    1.0050 C   0  0  0  0  0  0  0  0  0  0  0  0
    8.5460    1.5490    0.4740 C   0  0  0  0  0  0  0  0  0  0  0  0
    8.4990    2.9800    0.3430 N   0  0  0  0  0  0  0  0  0  0  0  0
    7.4810    0.8370    0.0690 N   0  0  0  0  0  0  0  0  0  0  0  0
  1  2  1  0
  2  3  1  0
  2 31  1  0
  3  4  2  0
  3  5  1  0
  5  6  1  0
  6  7  1  0
  7  8  1  0
  8  9  1  0
  9 10  1  0
 10 11  1  0
 11 12  1  0
 12 13  2  0
 12 27  1  0
 13 14  1  0
 14 15  1  0
 14 21  2  0
 15 16  2  0
 15 20  1  0
 16 17  1  0
 17 18  2  0
 18 19  1  0
 19 20  2  0
 21 22  1  0
 21 26  1  0
 22 23  2  0
 23 24  1  0
 23 30  1  0
 24 25  2  0
 24 28  1  0
 25 26  1  0
 26 27  2  0
 28 29  1  0
 29 30  1  0
 31 32  2  0
 31 37  1  0
 32 33  1  0
 33 34  2  0
 34 35  1  0
 35 36  1  0
 35 37  2  0
M  END
