
     RDKit          3D

 37 41  0  0  0  0  0  0  0  0999 V2000
    8.8320   -1.0680    0.5760 C   0  0  0  0  0  0  0  0  0  0  0  0
    7.5560   -1.0650    1.3260 C   0  0  0  0  0  0  0  0  0  0  0  0
    7.4580   -1.1890    2.6530 N   0  0  0  0  0  0  0  0  0  0  0  0
    6.1870   -1.1420    2.9820 N   0  0  0  0  0  0  0  0  0  0  0  0
    5.4220   -0.9860    1.8860 C   0  0  0  0  0  0  0  0  0  0  0  0
    6.2930   -0.9370    0.8270 C   0  0  0  0  0  0  0  0  0  0  0  0
    5.9100   -0.7780   -0.5870 C   0  0  0  0  0  0  0  0  0  0  0  0
    6.1480    0.5690   -1.1600 C   0  0  0  0  0  0  0  0  0  0  0  0
    5.5250    1.6500   -0.6240 O   0  0  0  0  0  0  0  0  0  0  0  0
    4.2280    2.0380   -0.4800 C   0  0  0  0  0  0  0  0  0  0  0  0
    4.0370    3.2590    0.1670 C   0  0  0  0  0  0  0  0  0  0  0  0
    2.7530    3.7020    0.3370 C   0  0  0  0  0  0  0  0  0  0  0  0
    1.6520    2.9600   -0.1180 C   0  0  0  0  0  0  0  0  0  0  0  0
    1.8050    1.7570   -0.7570 C   0  0  0  0  0  0  0  0  0  0  0  0
    0.7680    0.9600   -1.2700 N   0  0  0  0  0  0  0  0  0  0  0  0
   -0.5590    1.3860   -1.4840 C   0  0  0  0  0  0  0  0  0  0  0  0
   -1.0240    2.6150   -1.2390 N   0  0  0  0  0  0  0  0  0  0  0  0
   -2.2740    3.0400   -1.4500 C   0  0  0  0  0  0  0  0  0  0  0  0
   -3.1460    2.1780   -1.9470 N   0  0  0  0  0  0  0  0  0  0  0  0
   -2.7700    0.9230   -2.2240 C   0  0  0  0  0  0  0  0  0  0  0  0
   -3.7640   -0.0080   -2.7980 C   0  0  0  0  0  0  0  0  0  0  0  0
   -4.2100   -1.0260   -1.9830 O   0  0  0  0  0  0  0  0  0  0  0  0
   -4.8690   -1.0640   -0.8070 C   0  0  0  0  0  0  0  0  0  0  0  0
   -5.2760    0.0450   -0.1040 C   0  0  0  0  0  0  0  0  0  0  0  0
   -5.9590   -0.0490    1.1130 C   0  0  0  0  0  0  0  0  0  0  0  0
   -6.3690    1.0590    1.8200 C   0  0  0  0  0  0  0  0  0  0  0  0
   -7.0420    0.9770    3.0190 C   0  0  0  0  0  0  0  0  0  0  0  0
   -7.3250   -0.2840    3.5430 C   0  0  0  0  0  0  0  0  0  0  0  0
   -6.9120   -1.4030    2.8300 C   0  0  0  0  0  0  0  0  0  0  0  0
   -6.2350   -1.2970    1.6250 C   0  0  0  0  0  0  0  0  0  0  0  0
   -5.8190   -2.3970    0.9060 C   0  0  0  0  0  0  0  0  0  0  0  0
   -5.1550   -2.3250   -0.2780 C   0  0  0  0  0  0  0  0  0  0  0  0
   -4.7450   -3.5380   -0.9880 C   0  0  0  0  0  0  0  0  0  0  0  0
   -5.0730   -4.8040   -0.4460 N   0  0  0  0  0  0  0  0  0  0  0  0
   -4.1120   -3.5020   -2.0680 O   0  0  0  0  0  0  0  0  0  0  0  0
   -1.4870    0.5190   -1.9970 N   0  0  0  0  0  0  0  0  0  0  0  0
    3.1410    1.3330   -0.9160 C   0  0  0  0  0  0  0  0  0  0  0  0
  1  2  1  0
  2  3  1  0
  2  6  2  0
  3  4  1  0
  4  5  2  0
  5  6  1  0
  6  7  1  0
  7  8  1  0
  8  9  1  0
  9 10  1  0
 10 11  2  0
 10 37  1  0
 11 12  1  0
 12 13  2  0
 13 14  1  0
 14 15  1  0
 14 37  2  0
 15 16  1  0
 16 17  2  0
 16 36  1  0
 17 18  1  0
 18 19  2  0
 19 20  1  0
 20 21  1  0
 20 36  2  0
 21 22  1  0
 22 23  1  0
 23 24  2  0
 23 32  1  0
 24 25  1  0
 25 26  2  0
 25 30  1  0
 26 27  1  0
 27 28  2  0
 28 29  1  0
 29 30  2  0
 30 31  1  0
 31 32  2  0
 32 33  1  0
 33 34  1  0
 33 35  2  0
M  END
