
     RDKit          3D

 40 43  0  0  0  0  0  0  0  0999 V2000
   -3.5160   -3.8130    0.7420 C   0  0  0  0  0  0  0  0  0  0  0  0
   -3.9350   -2.5850    1.5070 C   0  0  0  0  0  0  0  0  0  0  0  0
   -5.2580   -2.0760    1.1170 C   0  0  0  0  0  0  0  0  0  0  0  0
   -5.5260   -1.5860   -0.2290 C   0  0  1  0  0  0  0  0  0  0  0  0
   -6.9030   -1.2150   -0.2730 O   0  0  0  0  0  0  0  0  0  0  0  0
   -4.7270   -0.4130   -0.7450 C   0  0  2  0  0  0  0  0  0  0  0  0
   -3.2990   -0.6520   -0.8430 C   0  0  0  0  0  0  0  0  0  0  0  0
   -2.8210   -1.6950   -1.4230 O   0  0  0  0  0  0  0  0  0  0  0  0
   -2.2910    0.2460   -0.3100 C   0  0  0  0  0  0  0  0  0  0  0  0
   -0.9410   -0.0620   -0.3990 C   0  0  0  0  0  0  0  0  0  0  0  0
   -0.0060    0.8250    0.1160 C   0  0  0  0  0  0  0  0  0  0  0  0
    1.3910    0.5090   -0.0010 N   0  0  0  0  0  0  0  0  0  0  0  0
    2.4570    1.0620    0.6880 C   0  0  0  0  0  0  0  0  0  0  0  0
    2.1840    1.9620    1.5390 O   0  0  0  0  0  0  0  0  0  0  0  0
    3.9160    0.7230    0.5480 C   0  0  1  0  0  0  0  0  0  0  0  0
    4.5790    1.6800    1.4510 N   0  0  0  0  0  0  0  0  0  0  0  0
    5.8140    1.4420    2.0400 C   0  0  0  0  0  0  0  0  0  0  0  0
    6.4220    2.2970    2.7490 O   0  0  0  0  0  0  0  0  0  0  0  0
    6.4300    0.1610    1.8310 N   0  0  0  0  0  0  0  0  0  0  0  0
    5.7520   -0.7960    1.0390 C   0  0  0  0  0  0  0  0  0  0  0  0
    6.3680   -1.6930    0.4500 O   0  0  0  0  0  0  0  0  0  0  0  0
    4.2640   -0.6470    0.9670 C   0  0  1  0  0  0  0  0  0  0  0  0
    3.7800   -0.9630    2.3840 C   0  0  0  0  0  0  0  0  0  0  0  0
    4.1920   -2.3850    2.7000 C   0  0  0  0  0  0  0  0  0  0  0  0
    3.8120   -1.6860   -0.0040 C   0  0  0  0  0  0  0  0  0  0  0  0
    4.1900   -1.2890   -1.3960 C   0  0  0  0  0  0  0  0  0  0  0  0
    4.1270    0.1620   -1.7140 C   0  0  2  0  0  0  0  0  0  0  0  0
    5.1380    0.4020   -2.8500 C   0  0  0  0  0  0  0  0  0  0  0  0
    6.8200   -0.0260   -2.4040 S   0  0  0  0  0  0  0  0  0  0  0  0
    7.5390    1.0700   -1.1560 C   0  0  0  0  0  0  0  0  0  0  0  0
    4.4240    1.0080   -0.6990 O   0  0  0  0  0  0  0  0  0  0  0  0
   -0.4550    1.9800    0.6970 C   0  0  0  0  0  0  0  0  0  0  0  0
   -1.7990    2.3100    0.7990 C   0  0  0  0  0  0  0  0  0  0  0  0
   -2.7100    1.4150    0.2810 C   0  0  0  0  0  0  0  0  0  0  0  0
   -4.1440    1.6480    0.3290 C   0  0  0  0  0  0  0  0  0  0  0  0
   -5.0790    0.8520   -0.1250 C   0  0  0  0  0  0  0  0  0  0  0  0
   -6.4830    1.3390    0.0330 C   0  0  0  0  0  0  0  0  0  0  0  0
   -7.1460    1.4700   -1.1840 O   0  0  0  0  0  0  0  0  0  0  0  0
   -6.4690    2.3920   -1.9680 C   0  0  0  0  0  0  0  0  0  0  0  0
   -6.3910    3.7690   -1.3470 C   0  0  0  0  0  0  0  0  0  0  0  0
  1  2  1  0
  2  3  1  0
  3  4  1  0
  4  5  1  1
  4  6  1  0
  6  7  1  1
  6 36  1  0
  7  8  2  0
  7  9  1  0
  9 10  2  0
  9 34  1  0
 10 11  1  0
 11 12  1  0
 11 32  2  0
 12 13  1  0
 13 14  2  0
 15 13  1  6
 15 16  1  0
 15 22  1  0
 15 31  1  0
 16 17  1  0
 17 18  2  0
 17 19  1  0
 19 20  1  0
 20 21  2  0
 20 22  1  0
 22 23  1  1
 22 25  1  0
 23 24  1  0
 25 26  1  0
 26 27  1  0
 27 28  1  6
 27 31  1  0
 28 29  1  0
 29 30  1  0
 32 33  1  0
 33 34  2  0
 34 35  1  0
 35 36  2  0
 36 37  1  0
 37 38  1  0
 38 39  1  0
 39 40  1  0
M  END
