
     RDKit          3D

 40 43  0  0  0  0  0  0  0  0999 V2000
   -3.2310   -0.7460    1.9840 C   0  0  0  0  0  0  0  0  0  0  0  0
   -2.7600    0.2680    0.9970 C   0  0  2  0  0  0  0  0  0  0  0  0
   -3.3270    0.2960   -0.3220 C   0  0  0  0  0  0  0  0  0  0  0  0
   -4.6430    0.4220   -0.8770 C   0  0  2  0  0  0  0  0  0  0  0  0
   -5.6150    1.4860   -0.7380 C   0  0  0  0  0  0  0  0  0  0  0  0
   -6.3330    2.0030    0.3800 C   0  0  0  0  0  0  0  0  0  0  0  0
   -5.5930    2.5380    1.5640 C   0  0  0  0  0  0  0  0  0  0  0  0
   -6.5570    3.0600    2.4950 O   0  0  0  0  0  0  0  0  0  0  0  0
   -5.3230   -0.9770   -1.0310 C   0  0  0  0  0  0  0  0  0  0  0  0
   -6.6780   -0.8790   -1.6340 C   0  0  0  0  0  0  0  0  0  0  0  0
   -7.0350   -0.8810   -2.9470 C   0  0  0  0  0  0  0  0  0  0  0  0
   -8.3170   -0.8200   -3.2790 C   0  0  0  0  0  0  0  0  0  0  0  0
   -9.2490   -0.7510   -2.2630 C   0  0  0  0  0  0  0  0  0  0  0  0
   -8.2270   -0.7840   -0.8180 S   0  0  0  0  0  0  0  0  0  0  0  0
   -1.2470   -0.1650    0.8420 C   0  0  0  0  0  0  0  0  0  0  0  0
   -0.3440    0.8720    1.3960 C   0  0  2  0  0  0  0  0  0  0  0  0
   -0.4880    2.0730    0.7540 O   0  0  0  0  0  0  0  0  0  0  0  0
    1.0820    0.4540    1.3310 C   0  0  0  0  0  0  0  0  0  0  0  0
    1.8810    1.2510    0.8040 O   0  0  0  0  0  0  0  0  0  0  0  0
    1.5770   -0.7020    1.7890 O   0  0  0  0  0  0  0  0  0  0  0  0
    2.8100   -1.3090    1.8360 C   0  0  1  0  0  0  0  0  0  0  0  0
    3.8690   -0.4820    2.5530 C   0  0  0  0  0  0  0  0  0  0  0  0
    2.5920   -2.4880    2.7760 C   0  0  0  0  0  0  0  0  0  0  0  0
    1.2540   -2.7780    3.2190 N   0  0  0  0  0  0  0  0  0  0  0  0
    3.4750   -3.2220    3.1940 O   0  0  0  0  0  0  0  0  0  0  0  0
    3.3580   -1.8250    0.5610 C   0  0  1  0  0  0  0  0  0  0  0  0
    3.5620   -0.7430   -0.5030 C   0  0  0  0  0  0  0  0  0  0  0  0
    4.5860   -1.2630   -1.5360 C   0  0  0  0  0  0  0  0  0  0  0  0
    5.8560   -1.1510   -0.8350 N   0  0  0  0  0  0  0  0  0  0  0  0
    6.9620   -0.4020   -1.2810 C   0  0  0  0  0  0  0  0  0  0  0  0
    8.0050   -0.4050   -0.5740 O   0  0  0  0  0  0  0  0  0  0  0  0
    7.0180    0.3720   -2.4690 N   0  0  0  0  0  0  0  0  0  0  0  0
    8.2310    1.1240   -2.8320 C   0  0  2  0  0  0  0  0  0  0  0  0
    7.9430    2.4800   -3.3960 C   0  0  0  0  0  0  0  0  0  0  0  0
    8.4200    1.4140   -4.2770 C   0  0  0  0  0  0  0  0  0  0  0  0
    5.8970   -1.8920    0.4260 C   0  0  0  0  0  0  0  0  0  0  0  0
    4.6120   -2.6360    0.6050 C   0  0  0  0  0  0  0  0  0  0  0  0
   -0.7080    1.1280    2.8660 C   0  0  0  0  0  0  0  0  0  0  0  0
   -2.1690    1.5020    2.8760 C   0  0  0  0  0  0  0  0  0  0  0  0
   -2.6250    1.5110    1.5740 O   0  0  0  0  0  0  0  0  0  0  0  0
  2  1  1  1
  2  3  1  0
  2 15  1  0
  2 40  1  0
  4  3  1  1
  4  5  1  0
  4  9  1  0
  5  6  1  0
  6  7  1  0
  7  8  1  0
  9 10  1  0
 10 11  2  0
 10 14  1  0
 11 12  1  0
 12 13  2  0
 13 14  1  0
 15 16  1  0
 16 17  1  6
 16 18  1  0
 16 38  1  0
 18 19  2  0
 18 20  1  0
 20 21  1  0
 21 22  1  1
 21 23  1  0
 21 26  1  0
 23 24  1  0
 23 25  2  0
 26 27  1  6
 26 37  1  0
 27 28  1  0
 28 29  1  0
 29 30  1  0
 29 36  1  0
 30 31  2  0
 30 32  1  0
 33 32  1  6
 33 34  1  0
 33 35  1  0
 34 35  1  0
 36 37  1  0
 38 39  1  0
 39 40  1  0
M  END
