
     RDKit          3D

 40 42  0  0  0  0  0  0  0  0999 V2000
   -8.7210   -2.6430   -0.8950 C   0  0  0  0  0  0  0  0  0  0  0  0
   -9.0730   -1.1850   -0.7790 C   0  0  0  0  0  0  0  0  0  0  0  0
   -8.0390   -0.4350    0.0280 C   0  0  2  0  0  0  0  0  0  0  0  0
   -7.9870   -1.0490    1.4100 C   0  0  0  0  0  0  0  0  0  0  0  0
   -8.4810    1.0090    0.1250 C   0  0  0  0  0  0  0  0  0  0  0  0
   -6.8000   -0.5620   -0.6450 O   0  0  0  0  0  0  0  0  0  0  0  0
   -5.6380    0.0160   -0.1680 C   0  0  0  0  0  0  0  0  0  0  0  0
   -5.6850    0.6690    0.8880 O   0  0  0  0  0  0  0  0  0  0  0  0
   -4.4000   -0.1700   -0.9340 C   0  0  0  0  0  0  0  0  0  0  0  0
   -3.2100    0.5260   -0.3030 C   0  0  2  0  0  0  0  0  0  0  0  0
   -3.0620   -0.0830    1.0670 C   0  0  0  0  0  0  0  0  0  0  0  0
   -2.8310   -1.4810    1.1950 N   0  0  0  0  0  0  0  0  0  0  0  0
   -3.1350    0.5960    2.1150 O   0  0  0  0  0  0  0  0  0  0  0  0
   -3.4850    1.9700   -0.2350 C   0  0  0  0  0  0  0  0  0  0  0  0
   -2.3600    2.9100   -0.4190 C   0  0  0  0  0  0  0  0  0  0  0  0
   -1.3510    2.4690   -1.4560 C   0  0  0  0  0  0  0  0  0  0  0  0
   -0.9570    1.1250   -1.0830 N   0  0  0  0  0  0  0  0  0  0  0  0
    0.3900    0.8130   -0.7320 C   0  0  0  0  0  0  0  0  0  0  0  0
    1.2760    1.7040   -0.7360 O   0  0  0  0  0  0  0  0  0  0  0  0
    0.7940   -0.5630   -0.3530 C   0  0  0  0  0  0  0  0  0  0  0  0
    2.1660   -0.6190   -0.0250 O   0  0  0  0  0  0  0  0  0  0  0  0
    2.7450    0.0890    1.0020 C   0  0  0  0  0  0  0  0  0  0  0  0
    1.9040    0.8110    1.6410 O   0  0  0  0  0  0  0  0  0  0  0  0
    4.1680    0.0670    1.3720 C   0  0  0  0  0  0  0  0  0  0  0  0
    5.0470   -0.6580    0.7840 C   0  0  0  0  0  0  0  0  0  0  0  0
    4.5080   -1.5100   -0.3000 C   0  0  2  0  0  0  0  0  0  0  0  0
    5.3900   -2.6630   -0.3780 O   0  0  0  0  0  0  0  0  0  0  0  0
    4.6330   -0.8040   -1.6140 C   0  0  0  0  0  0  0  0  0  0  0  0
    5.7290   -0.1830   -2.0520 C   0  0  0  0  0  0  0  0  0  0  0  0
    7.0550   -0.0030   -1.4450 C   0  0  2  0  0  0  0  0  0  0  0  0
    8.0460   -1.0970   -1.7660 C   0  0  0  0  0  0  0  0  0  0  0  0
    9.3130   -0.7560   -1.0790 C   0  0  0  0  0  0  0  0  0  0  0  0
    9.9120    0.3320   -1.3530 N   0  0  0  0  0  0  0  0  0  0  0  0
    7.0510    0.4190   -0.0240 C   0  0  0  0  0  0  0  0  0  0  0  0
    6.5460   -0.6120    0.9730 C   0  0  1  0  0  0  0  0  0  0  0  0
    6.9920   -0.0030    2.6000 S   0  0  0  0  0  0  0  0  0  0  0  0
    5.5880    0.9180    3.1710 C   0  0  0  0  0  0  0  0  0  0  0  0
    5.8290    1.7560    4.3950 C   0  0  0  0  0  0  0  0  0  0  0  0
    4.4480    0.8690    2.5790 C   0  0  0  0  0  0  0  0  0  0  0  0
   -1.9950    0.1250   -1.0840 C   0  0  0  0  0  0  0  0  0  0  0  0
  1  2  1  0
  2  3  1  0
  3  4  1  1
  3  5  1  0
  3  6  1  0
  6  7  1  0
  7  8  2  0
  7  9  1  0
 10  9  1  6
 10 11  1  0
 10 14  1  0
 10 40  1  0
 11 12  1  0
 11 13  2  0
 14 15  1  0
 15 16  1  0
 16 17  1  0
 17 18  1  0
 17 40  1  0
 18 19  2  0
 18 20  1  0
 20 21  1  0
 21 22  1  0
 22 23  2  0
 22 24  1  0
 24 25  2  0
 24 39  1  0
 25 26  1  0
 25 35  1  0
 26 27  1  6
 26 28  1  0
 28 29  2  0
 29 30  1  0
 30 31  1  1
 30 34  1  0
 31 32  1  0
 32 33  2  0
 35 34  1  6
 35 36  1  0
 36 37  1  0
 37 38  1  0
 37 39  2  0
M  END
