
     RDKit          3D

 40 43  0  0  0  0  0  0  0  0999 V2000
   -6.9460   -2.8310    5.4550 C   0  0  0  0  0  0  0  0  0  0  0  0
   -6.1580   -2.5160    4.3610 O   0  0  0  0  0  0  0  0  0  0  0  0
   -6.5660   -2.0780    3.1210 C   0  0  0  0  0  0  0  0  0  0  0  0
   -7.9080   -1.9070    2.8850 C   0  0  0  0  0  0  0  0  0  0  0  0
   -8.3700   -1.4790    1.6590 C   0  0  0  0  0  0  0  0  0  0  0  0
   -9.8400   -1.3390    1.4490 C   0  0  0  0  0  0  0  0  0  0  0  0
   -7.4330   -1.2200    0.6500 C   0  0  0  0  0  0  0  0  0  0  0  0
   -6.1090   -1.3700    0.8300 C   0  0  0  0  0  0  0  0  0  0  0  0
   -5.1650   -1.2210   -0.1930 N   0  0  0  0  0  0  0  0  0  0  0  0
   -5.3210   -0.5830   -1.4180 C   0  0  0  0  0  0  0  0  0  0  0  0
   -6.4140   -0.0210   -1.7070 O   0  0  0  0  0  0  0  0  0  0  0  0
   -4.2040   -0.5510   -2.4110 C   0  0  0  0  0  0  0  0  0  0  0  0
   -4.3740    0.3880   -3.5580 C   0  0  0  0  0  0  0  0  0  0  0  0
   -3.1640    0.2090   -4.4860 C   0  0  0  0  0  0  0  0  0  0  0  0
   -1.9120    0.4560   -3.6560 C   0  0  0  0  0  0  0  0  0  0  0  0
   -1.4510    0.8580   -2.6860 N   0  0  0  0  0  0  0  0  0  0  0  0
   -0.2340    0.8100   -2.2100 C   0  0  0  0  0  0  0  0  0  0  0  0
    0.6840    0.1900   -2.9510 C   0  0  0  0  0  0  0  0  0  0  0  0
    2.0960   -0.1810   -2.8240 C   0  0  0  0  0  0  0  0  0  0  0  0
    2.6710   -0.7800   -3.7810 O   0  0  0  0  0  0  0  0  0  0  0  0
    2.8460    0.0690   -1.7240 O   0  0  0  0  0  0  0  0  0  0  0  0
    4.1360   -0.2160   -1.3920 C   0  0  2  0  0  0  0  0  0  0  0  0
    4.3480   -1.0570   -0.1800 C   0  0  0  0  0  0  0  0  0  0  0  0
    5.0890    0.9500   -1.3410 C   0  0  0  0  0  0  0  0  0  0  0  0
    4.8490    2.0670   -1.8280 O   0  0  0  0  0  0  0  0  0  0  0  0
    6.2990    0.7040   -0.6990 N   0  0  0  0  0  0  0  0  0  0  0  0
    7.4550    1.4900   -0.4670 C   0  0  2  0  0  0  0  0  0  0  0  0
    7.6380    2.4860    0.5740 C   0  0  1  0  0  0  0  0  0  0  0  0
    8.9650    2.7140    1.1670 C   0  0  0  0  0  0  0  0  0  0  0  0
    9.8930    3.5670    0.3970 C   0  0  0  0  0  0  0  0  0  0  0  0
    9.8310    3.2640   -1.0650 C   0  0  0  0  0  0  0  0  0  0  0  0
    8.4650    3.5770   -1.5700 C   0  0  1  0  0  0  0  0  0  0  0  0
    8.3170    3.0490   -2.8810 O   0  0  0  0  0  0  0  0  0  0  0  0
    7.3370    3.0110   -0.7600 C   0  0  1  0  0  0  0  0  0  0  0  0
   -0.3260   -0.3410   -4.4310 S   0  0  0  0  0  0  0  0  0  0  0  0
   -5.6380   -1.8130    2.1060 C   0  0  0  0  0  0  0  0  0  0  0  0
   -4.3860   -1.9610    2.3170 O   0  0  0  0  0  0  0  0  0  0  0  0
   -3.1250   -2.2300    2.4870 C   0  0  2  0  0  0  0  0  0  0  0  0
   -2.6480   -2.3190    3.9450 C   0  0  0  0  0  0  0  0  0  0  0  0
   -2.1610   -1.2040    1.8520 C   0  0  0  0  0  0  0  0  0  0  0  0
  1  2  1  0
  2  3  1  0
  3  4  2  0
  3 36  1  0
  4  5  1  0
  5  6  1  0
  5  7  2  0
  7  8  1  0
  8  9  1  0
  8 36  2  0
  9 10  1  0
 10 11  2  0
 10 12  1  0
 12 13  1  0
 13 14  1  0
 14 15  1  0
 15 16  2  0
 15 35  1  0
 16 17  1  0
 17 18  2  0
 18 19  1  0
 18 35  1  0
 19 20  2  0
 19 21  1  0
 21 22  1  0
 22 23  1  1
 22 24  1  0
 24 25  2  0
 24 26  1  0
 27 26  1  1
 27 28  1  0
 27 34  1  0
 28 29  1  6
 28 34  1  0
 29 30  1  0
 30 31  1  0
 31 32  1  0
 32 33  1  6
 34 32  1  6
 36 37  1  0
 37 38  1  0
 38 39  1  1
 38 40  1  0
M  END
