
     RDKit          3D

 25 27  0  0  0  0  0  0  0  0999 V2000
    8.7020    0.5580    1.3290 C   0  0  0  0  0  0  0  0  0  0  0  0
    7.2450    0.6360    1.4340 C   0  0  0  0  0  0  0  0  0  0  0  0
    6.4180    0.3310    0.4160 C   0  0  0  0  0  0  0  0  0  0  0  0
    4.9920    0.3940    0.4790 C   0  0  0  0  0  0  0  0  0  0  0  0
    4.3300   -0.3300   -0.3780 C   0  0  0  0  0  0  0  0  0  0  0  0
    2.8920   -0.4410   -0.5190 C   0  0  0  0  0  0  0  0  0  0  0  0
    2.4730   -1.2000   -1.4150 O   0  0  0  0  0  0  0  0  0  0  0  0
    2.0020    0.2730    0.3160 N   0  0  0  0  0  0  0  0  0  0  0  0
    0.5980    0.1850    0.2130 C   0  0  0  0  0  0  0  0  0  0  0  0
   -0.1250   -0.7420   -0.4790 C   0  0  0  0  0  0  0  0  0  0  0  0
   -1.5310   -0.7250   -0.5270 C   0  0  0  0  0  0  0  0  0  0  0  0
   -2.2490    0.2320    0.1220 C   0  0  0  0  0  0  0  0  0  0  0  0
   -3.6620    0.3290    0.1150 N   0  0  0  0  0  0  0  0  0  0  0  0
   -4.5490   -0.4180   -0.6800 C   0  0  0  0  0  0  0  0  0  0  0  0
   -4.1150   -1.2600   -1.4750 O   0  0  0  0  0  0  0  0  0  0  0  0
   -6.0190   -0.2650   -0.6320 C   0  0  0  0  0  0  0  0  0  0  0  0
   -6.6390    0.5840    0.1590 C   0  0  0  0  0  0  0  0  0  0  0  0
   -8.1050    0.7550    0.2250 C   0  0  0  0  0  0  0  0  0  0  0  0
   -8.8290   -0.0710   -0.6360 O   0  0  0  0  0  0  0  0  0  0  0  0
   -8.1830   -0.9750   -1.4790 C   0  0  0  0  0  0  0  0  0  0  0  0
   -6.8690   -1.0820   -1.4920 C   0  0  0  0  0  0  0  0  0  0  0  0
   -1.5360    1.1990    0.8430 C   0  0  0  0  0  0  0  0  0  0  0  0
   -0.1780    1.1580    0.8730 C   0  0  0  0  0  0  0  0  0  0  0  0
    5.5280   -1.1680   -1.3860 S   0  0  0  0  0  0  0  0  0  0  0  0
    6.9630   -0.1100   -0.8950 C   0  0  0  0  0  0  0  0  0  0  0  0
  1  2  1  0
  2  3  2  3
  3  4  1  0
  3 25  1  0
  4  5  2  0
  5  6  1  0
  5 24  1  0
  6  7  2  0
  6  8  1  0
  8  9  1  0
  9 10  2  0
  9 23  1  0
 10 11  1  0
 11 12  2  0
 12 13  1  0
 12 22  1  0
 13 14  1  0
 14 15  2  0
 14 16  1  0
 16 17  2  0
 16 21  1  0
 17 18  1  0
 18 19  1  0
 19 20  1  0
 20 21  2  0
 22 23  2  0
 24 25  1  0
M  END
