
     RDKit          3D

 25 27  0  0  0  0  0  0  0  0999 V2000
   -6.9950   -2.3500   -0.9480 C   0  0  0  0  0  0  0  0  0  0  0  0
   -6.5020   -1.4440    0.1410 C   0  0  2  0  0  0  0  0  0  0  0  0
   -7.4210   -0.2660    0.2330 C   0  0  0  0  0  0  0  0  0  0  0  0
   -5.1030   -1.0120   -0.2350 C   0  0  0  0  0  0  0  0  0  0  0  0
   -4.6790   -0.2960   -1.2990 C   0  0  0  0  0  0  0  0  0  0  0  0
   -3.3660   -0.0420   -1.4100 C   0  0  0  0  0  0  0  0  0  0  0  0
   -2.5600   -0.5100   -0.4650 C   0  0  0  0  0  0  0  0  0  0  0  0
   -1.0790   -0.3740   -0.2910 C   0  0  0  0  0  0  0  0  0  0  0  0
   -0.4490    0.7720   -0.3280 C   0  0  0  0  0  0  0  0  0  0  0  0
   -0.9810    2.1030   -0.5250 C   0  0  0  0  0  0  0  0  0  0  0  0
   -2.1930    2.4650   -0.6900 O   0  0  0  0  0  0  0  0  0  0  0  0
    0.1250    3.0140   -0.5030 N   0  0  0  0  0  0  0  0  0  0  0  0
    1.3310    2.2950   -0.2980 C   0  0  0  0  0  0  0  0  0  0  0  0
    2.6630    2.7110   -0.1990 C   0  0  0  0  0  0  0  0  0  0  0  0
    3.6660    1.7640    0.0100 C   0  0  0  0  0  0  0  0  0  0  0  0
    3.3540    0.4430    0.1170 C   0  0  0  0  0  0  0  0  0  0  0  0
    4.3420   -0.5390    0.3450 N   0  0  0  0  0  0  0  0  0  0  0  0
    5.6780   -0.3590    0.7230 C   0  0  0  0  0  0  0  0  0  0  0  0
    6.1300    0.7870    0.9060 O   0  0  0  0  0  0  0  0  0  0  0  0
    6.6250   -1.4940    0.9280 C   0  0  0  0  0  0  0  0  0  0  0  0
    7.9830   -1.0420    1.3320 C   0  0  0  0  0  0  0  0  0  0  0  0
    7.9150   -0.3270    2.5350 O   0  0  0  0  0  0  0  0  0  0  0  0
    2.0120    0.0710    0.0110 C   0  0  0  0  0  0  0  0  0  0  0  0
    1.0010    0.9720   -0.1930 C   0  0  0  0  0  0  0  0  0  0  0  0
   -3.6440   -1.3380    0.6280 S   0  0  0  0  0  0  0  0  0  0  0  0
  2  1  1  6
  2  3  1  0
  2  4  1  0
  4  5  2  0
  4 25  1  0
  5  6  1  0
  6  7  2  0
  7  8  1  0
  7 25  1  0
  8  9  2  3
  9 10  1  0
  9 24  1  0
 10 11  2  0
 10 12  1  0
 12 13  1  0
 13 14  2  0
 13 24  1  0
 14 15  1  0
 15 16  2  0
 16 17  1  0
 16 23  1  0
 17 18  1  0
 18 19  2  0
 18 20  1  0
 20 21  1  0
 21 22  1  0
 23 24  2  0
M  END
