
     RDKit          3D

 25 27  0  0  0  0  0  0  0  0999 V2000
    7.4130    0.8970   -1.0970 C   0  0  0  0  0  0  0  0  0  0  0  0
    6.0180    1.0630   -2.2360 S   0  0  0  0  0  0  0  0  0  0  0  0
    4.6140    0.0960   -1.6770 C   0  0  0  0  0  0  0  0  0  0  0  0
    4.4860   -1.2220   -2.0940 C   0  0  0  0  0  0  0  0  0  0  0  0
    3.4210   -1.9950   -1.6870 C   0  0  0  0  0  0  0  0  0  0  0  0
    2.4640   -1.4240   -0.8400 C   0  0  0  0  0  0  0  0  0  0  0  0
    2.5500   -0.1330   -0.4060 C   0  0  0  0  0  0  0  0  0  0  0  0
    1.6210    0.5220    0.4410 N   0  0  0  0  0  0  0  0  0  0  0  0
    0.3880    0.0030    0.8780 C   0  0  0  0  0  0  0  0  0  0  0  0
    0.0120   -1.1170    0.5320 O   0  0  0  0  0  0  0  0  0  0  0  0
   -0.4630    0.8290    1.7680 C   0  0  0  0  0  0  0  0  0  0  0  0
   -1.7200    0.1540    2.1360 C   0  0  0  0  0  0  0  0  0  0  0  0
   -1.9370   -0.4170    3.3640 C   0  0  0  0  0  0  0  0  0  0  0  0
   -3.1060   -1.0340    3.6800 N   0  0  0  0  0  0  0  0  0  0  0  0
   -4.0770   -1.0800    2.7460 C   0  0  0  0  0  0  0  0  0  0  0  0
   -5.1900   -1.6470    2.9920 O   0  0  0  0  0  0  0  0  0  0  0  0
   -3.9490   -0.5330    1.4830 C   0  0  0  0  0  0  0  0  0  0  0  0
   -4.9580   -0.5940    0.5460 C   0  0  0  0  0  0  0  0  0  0  0  0
   -4.7240   -0.0150   -0.6850 C   0  0  0  0  0  0  0  0  0  0  0  0
   -5.7580   -0.0910   -1.6110 O   0  0  0  0  0  0  0  0  0  0  0  0
   -3.5460    0.6080   -1.0060 C   0  0  0  0  0  0  0  0  0  0  0  0
   -3.3120    1.2270   -2.3410 C   0  0  0  0  0  0  0  0  0  0  0  0
   -2.5360    0.6610   -0.0470 C   0  0  0  0  0  0  0  0  0  0  0  0
   -2.7310    0.0930    1.1980 C   0  0  0  0  0  0  0  0  0  0  0  0
    3.6550    0.6050   -0.8520 C   0  0  0  0  0  0  0  0  0  0  0  0
  1  2  1  0
  2  3  1  0
  3  4  2  0
  3 25  1  0
  4  5  1  0
  5  6  2  0
  6  7  1  0
  7  8  1  0
  7 25  2  0
  8  9  1  0
  9 10  2  0
  9 11  1  0
 11 12  1  0
 12 13  2  0
 12 24  1  0
 13 14  1  0
 14 15  1  0
 15 16  2  0
 15 17  1  0
 17 18  2  0
 17 24  1  0
 18 19  1  0
 19 20  1  0
 19 21  2  0
 21 22  1  0
 21 23  1  0
 23 24  2  0
M  END
