
     RDKit          3D

 25 27  0  0  0  0  0  0  0  0999 V2000
   -2.3700   -1.7210   -0.6470 C   0  0  0  0  0  0  0  0  0  0  0  0
   -3.2240   -0.8010    0.1910 C   0  0  0  0  0  0  0  0  0  0  0  0
   -4.6080   -0.8070   -0.0580 C   0  0  0  0  0  0  0  0  0  0  0  0
   -5.4640   -0.0190    0.6490 C   0  0  0  0  0  0  0  0  0  0  0  0
   -6.8510   -0.0700    0.3510 N   0  0  0  0  0  0  0  0  0  0  0  0
   -4.9440    0.8020    1.6320 C   0  0  0  0  0  0  0  0  0  0  0  0
   -3.6030    0.8260    1.8930 C   0  0  0  0  0  0  0  0  0  0  0  0
   -2.7390    0.0190    1.1660 C   0  0  0  0  0  0  0  0  0  0  0  0
   -1.2850    0.0500    1.4400 C   0  0  0  0  0  0  0  0  0  0  0  0
   -0.4760    0.8130    0.5010 C   0  0  0  0  0  0  0  0  0  0  0  0
   -0.4770    2.2130    0.5320 C   0  0  0  0  0  0  0  0  0  0  0  0
    0.3240    2.8770   -0.3650 C   0  0  0  0  0  0  0  0  0  0  0  0
    1.1100    2.1990   -1.2730 C   0  0  0  0  0  0  0  0  0  0  0  0
    1.1340    0.8220   -1.3280 C   0  0  0  0  0  0  0  0  0  0  0  0
    1.9440    0.1190   -2.2630 N   0  0  0  0  0  0  0  0  0  0  0  0
    2.9010   -1.2310   -1.8610 S   0  0  1  0  0  0  0  0  0  0  0  0
    2.0100   -2.3420   -1.3820 O   0  0  0  0  0  0  0  0  0  0  0  0
    3.6120   -1.7220   -3.0810 O   0  0  0  0  0  0  0  0  0  0  0  0
    4.1260   -0.8470   -0.6760 C   0  0  0  0  0  0  0  0  0  0  0  0
    3.9110   -0.9510    0.6220 C   0  0  0  0  0  0  0  0  0  0  0  0
    4.9150   -0.6380    1.6630 C   0  0  0  0  0  0  0  0  0  0  0  0
    6.1500   -0.2170    1.1660 O   0  0  0  0  0  0  0  0  0  0  0  0
    6.3780   -0.1060   -0.1780 C   0  0  0  0  0  0  0  0  0  0  0  0
    5.4450   -0.3950   -1.1030 C   0  0  0  0  0  0  0  0  0  0  0  0
    0.3130    0.1550   -0.4090 C   0  0  0  0  0  0  0  0  0  0  0  0
  1  2  1  0
  2  3  2  0
  2  8  1  0
  3  4  1  0
  4  5  1  0
  4  6  2  0
  6  7  1  0
  7  8  2  0
  8  9  1  0
  9 10  1  0
 10 11  2  0
 10 25  1  0
 11 12  1  0
 12 13  2  0
 13 14  1  0
 14 15  1  0
 14 25  2  0
 16 15  1  6
 16 17  2  0
 16 18  2  0
 16 19  1  0
 19 20  2  0
 19 24  1  0
 20 21  1  0
 21 22  1  0
 22 23  1  0
 23 24  2  0
M  END
