
     RDKit          3D

 14 14  0  0  0  0  0  0  0  0999 V2000
    2.8950   -0.7660    1.2000 O   0  0  0  0  0  0  0  0  0  0  0  0
    2.7050   -0.0200    0.2020 C   0  0  0  0  0  0  0  0  0  0  0  0
    1.3690    0.3020   -0.3080 C   0  0  0  0  0  0  0  0  0  0  0  0
    0.3780   -0.3500    0.4890 O   0  0  0  0  0  0  0  0  0  0  0  0
   -0.9650   -0.2040    0.2110 C   0  0  0  0  0  0  0  0  0  0  0  0
   -1.5560    0.9800    0.1980 C   0  0  0  0  0  0  0  0  0  0  0  0
   -3.0000    1.1680   -0.0990 C   0  0  0  0  0  0  0  0  0  0  0  0
   -3.8480    0.0040    0.2870 C   0  0  0  0  0  0  0  0  0  0  0  0
   -3.0830   -1.1810    0.8030 C   0  0  0  0  0  0  0  0  0  0  0  0
   -1.8590   -1.3750   -0.1000 C   0  0  0  0  0  0  0  0  0  0  0  0
    3.8540    0.5240   -0.4430 N   0  0  0  0  0  0  0  0  0  0  0  0
    5.1680    0.2540   -0.0020 C   0  0  0  0  0  0  0  0  0  0  0  0
    5.3870   -0.5580    1.0840 O   0  0  0  0  0  0  0  0  0  0  0  0
    6.4360    0.9030   -0.7790 S   0  0  0  0  0  0  0  0  0  0  0  0
  1  2  2  0
  2  3  1  0
  2 11  1  0
  3  4  1  0
  4  5  1  0
  5  6  2  0
  5 10  1  0
  6  7  1  0
  7  8  1  0
  8  9  1  0
  9 10  1  0
 11 12  1  0
 12 13  1  0
 12 14  2  0
M  END
