
     RDKit          3D

 25 27  0  0  0  0  0  0  0  0999 V2000
    7.0170    1.5730    1.9120 N   0  0  0  0  0  0  0  0  0  0  0  0
    6.0520    0.8850    1.1460 C   0  0  0  0  0  0  0  0  0  0  0  0
    6.2750    0.4950   -0.1590 C   0  0  0  0  0  0  0  0  0  0  0  0
    5.3080   -0.1780   -0.8860 C   0  0  0  0  0  0  0  0  0  0  0  0
    4.0800   -0.4760   -0.3050 C   0  0  0  0  0  0  0  0  0  0  0  0
    3.0990   -1.1940   -1.0900 C   0  0  0  0  0  0  0  0  0  0  0  0
    3.4360   -2.0090   -2.0110 O   0  0  0  0  0  0  0  0  0  0  0  0
    1.6930   -1.0140   -0.8590 C   0  0  0  0  0  0  0  0  0  0  0  0
    0.7560   -2.0210   -1.1100 C   0  0  0  0  0  0  0  0  0  0  0  0
   -0.5860   -1.8100   -0.8920 C   0  0  0  0  0  0  0  0  0  0  0  0
   -1.0570   -0.6000   -0.4190 C   0  0  0  0  0  0  0  0  0  0  0  0
   -2.4940   -0.3900   -0.1920 C   0  0  0  0  0  0  0  0  0  0  0  0
   -2.9100    0.4640    0.8110 C   0  0  0  0  0  0  0  0  0  0  0  0
   -4.2480    0.6930    1.0650 C   0  0  0  0  0  0  0  0  0  0  0  0
   -5.2170    0.0650    0.3090 C   0  0  0  0  0  0  0  0  0  0  0  0
   -6.9210    0.3360    0.6070 S   0  0  2  0  0  0  0  0  0  0  0  0
   -7.4640    1.6870   -0.3580 N   0  0  0  0  0  0  0  0  0  0  0  0
   -7.2070    0.6470    2.0360 O   0  0  0  0  0  0  0  0  0  0  0  0
   -7.7020   -0.8760    0.1360 O   0  0  0  0  0  0  0  0  0  0  0  0
   -4.7750   -0.7830   -0.6860 C   0  0  0  0  0  0  0  0  0  0  0  0
   -3.4510   -1.0220   -0.9510 C   0  0  0  0  0  0  0  0  0  0  0  0
   -0.1180    0.3770   -0.1790 C   0  0  0  0  0  0  0  0  0  0  0  0
    1.2380    0.1990   -0.3870 C   0  0  0  0  0  0  0  0  0  0  0  0
    3.8450   -0.0940    0.9930 C   0  0  0  0  0  0  0  0  0  0  0  0
    4.8310    0.5860    1.7150 C   0  0  0  0  0  0  0  0  0  0  0  0
  1  2  1  0
  2  3  2  0
  2 25  1  0
  3  4  1  0
  4  5  2  0
  5  6  1  0
  5 24  1  0
  6  7  2  0
  6  8  1  0
  8  9  2  0
  8 23  1  0
  9 10  1  0
 10 11  2  0
 11 12  1  0
 11 22  1  0
 12 13  2  0
 12 21  1  0
 13 14  1  0
 14 15  2  0
 15 16  1  0
 15 20  1  0
 16 17  1  6
 16 18  2  0
 16 19  2  0
 20 21  2  0
 22 23  2  0
 24 25  2  0
M  END
