
     RDKit          3D

 24 26  0  0  0  0  0  0  0  0999 V2000
   -1.6880   -4.0370    0.3610 C   0  0  0  0  0  0  0  0  0  0  0  0
   -1.1860   -2.8090   -0.0770 O   0  0  0  0  0  0  0  0  0  0  0  0
   -1.9400   -1.6240   -0.0400 C   0  0  0  0  0  0  0  0  0  0  0  0
   -3.2310   -1.6370    0.4410 C   0  0  0  0  0  0  0  0  0  0  0  0
   -4.0290   -0.5170    0.5070 C   0  0  0  0  0  0  0  0  0  0  0  0
   -5.4220   -0.5330    1.0270 C   0  0  0  0  0  0  0  0  0  0  0  0
   -3.4560    0.6780    0.0490 C   0  0  0  0  0  0  0  0  0  0  0  0
   -2.1680    0.7150   -0.4360 C   0  0  0  0  0  0  0  0  0  0  0  0
   -1.3900   -0.4460   -0.4860 C   0  0  0  0  0  0  0  0  0  0  0  0
   -0.0660   -0.3570   -0.9950 N   0  0  0  0  0  0  0  0  0  0  0  0
    1.0300   -0.0860   -0.1650 C   0  0  0  0  0  0  0  0  0  0  0  0
    0.8200    0.0810    1.0630 O   0  0  0  0  0  0  0  0  0  0  0  0
    2.3720    0.0140   -0.6190 N   0  0  0  0  0  0  0  0  0  0  0  0
    3.4950    0.2950    0.2540 C   0  0  1  0  0  0  0  0  0  0  0  0
    4.4860   -0.8410    0.0670 C   0  0  0  0  0  0  0  0  0  0  0  0
    5.7260   -0.4590    0.8450 C   0  0  0  0  0  0  0  0  0  0  0  0
    5.8390    1.2930    0.4630 S   0  0  2  0  0  0  0  0  0  0  0  0
    6.9180    1.5550   -0.5210 O   0  0  0  0  0  0  0  0  0  0  0  0
    6.0050    2.0880    1.7050 O   0  0  0  0  0  0  0  0  0  0  0  0
    4.2150    1.5440   -0.2700 C   0  0  0  0  0  0  0  0  0  0  0  0
   -1.8480    2.0820   -0.8350 C   0  0  0  0  0  0  0  0  0  0  0  0
   -2.9000    2.8420   -0.6010 C   0  0  0  0  0  0  0  0  0  0  0  0
   -3.0110    4.2320   -0.8450 O   0  0  0  0  0  0  0  0  0  0  0  0
   -3.9960    2.0380   -0.0290 C   0  0  0  0  0  0  0  0  0  0  0  0
  1  2  1  0
  2  3  1  0
  3  4  2  0
  3  9  1  0
  4  5  1  0
  5  6  1  0
  5  7  2  0
  7  8  1  0
  7 24  1  0
  8  9  2  0
  8 21  1  0
  9 10  1  0
 10 11  1  0
 11 12  2  0
 11 13  1  0
 14 13  1  6
 14 15  1  0
 14 20  1  0
 15 16  1  0
 17 16  1  1
 17 18  2  0
 17 19  2  0
 17 20  1  0
 21 22  2  0
 22 23  1  0
 22 24  1  0
M  END
