
     RDKit          3D

 24 26  0  0  0  0  0  0  0  0999 V2000
    6.0290   -2.0600    0.8280 N   0  0  0  0  0  0  0  0  0  0  0  0
    4.8960   -1.2640    0.4650 C   0  0  0  0  0  0  0  0  0  0  0  0
    3.6230   -1.7370    0.5850 C   0  0  0  0  0  0  0  0  0  0  0  0
    2.5400   -0.9460    0.2270 C   0  0  0  0  0  0  0  0  0  0  0  0
    2.7080    0.3230   -0.2540 C   0  0  0  0  0  0  0  0  0  0  0  0
    1.5510    1.1180   -0.6120 C   0  0  0  0  0  0  0  0  0  0  0  0
    1.7660    2.2150   -1.2350 O   0  0  0  0  0  0  0  0  0  0  0  0
    0.2230    0.7510   -0.3140 N   0  0  0  0  0  0  0  0  0  0  0  0
   -0.8870    1.5560   -0.6850 C   0  0  0  0  0  0  0  0  0  0  0  0
   -0.6590    2.6230   -1.2970 O   0  0  0  0  0  0  0  0  0  0  0  0
   -2.2020    1.1350   -0.3580 C   0  0  0  0  0  0  0  0  0  0  0  0
   -2.7130    0.0550    0.2810 C   0  0  0  0  0  0  0  0  0  0  0  0
   -3.9940   -0.1130    0.4640 C   0  0  0  0  0  0  0  0  0  0  0  0
   -4.8500    0.9500   -0.0680 C   0  0  0  0  0  0  0  0  0  0  0  0
   -3.7230    2.0460   -0.7590 S   0  0  0  0  0  0  0  0  0  0  0  0
   -6.3270    0.8060    0.1140 C   0  0  0  0  0  0  0  0  0  0  0  0
   -6.7830   -0.6200   -0.0520 C   0  0  0  0  0  0  0  0  0  0  0  0
   -5.8590   -1.5690    0.2830 O   0  0  0  0  0  0  0  0  0  0  0  0
   -4.8480   -1.1670    1.1120 C   0  0  0  0  0  0  0  0  0  0  0  0
    3.9960    0.8170   -0.3810 C   0  0  0  0  0  0  0  0  0  0  0  0
    5.0480    0.0210   -0.0230 C   0  0  0  0  0  0  0  0  0  0  0  0
    6.4070    0.5570   -0.1630 C   0  0  0  0  0  0  0  0  0  0  0  0
    7.4110   -0.1290    0.1510 O   0  0  0  0  0  0  0  0  0  0  0  0
    6.6350    1.8340   -0.6440 O   0  0  0  0  0  0  0  0  0  0  0  0
  1  2  1  0
  2  3  2  0
  2 21  1  0
  3  4  1  0
  4  5  2  0
  5  6  1  0
  5 20  1  0
  6  7  2  0
  6  8  1  0
  8  9  1  0
  9 10  2  0
  9 11  1  0
 11 12  2  0
 11 15  1  0
 12 13  1  0
 13 14  2  0
 13 19  1  0
 14 15  1  0
 14 16  1  0
 16 17  1  0
 17 18  1  0
 18 19  1  0
 20 21  2  0
 21 22  1  0
 22 23  2  0
 22 24  1  0
M  END
