
     RDKit          3D

 24 26  0  0  0  0  0  0  0  0999 V2000
   -2.3940    1.3390    0.7630 N   0  0  0  0  0  0  0  0  0  0  0  0
   -2.5980    1.0260   -0.5770 C   0  0  0  0  0  0  0  0  0  0  0  0
   -2.3860    1.8290   -1.4850 O   0  0  0  0  0  0  0  0  0  0  0  0
   -3.1020   -0.3420   -0.9500 C   0  0  2  0  0  0  0  0  0  0  0  0
   -4.4870   -0.1480   -1.5690 C   0  0  0  0  0  0  0  0  0  0  0  0
   -5.4730   -0.7230   -0.1210 S   0  0  0  0  0  0  0  0  0  0  0  0
   -4.2750   -2.0360    0.2660 C   0  0  0  0  0  0  0  0  0  0  0  0
   -3.0210   -1.2470    0.1130 N   0  0  0  0  0  0  0  0  0  0  0  0
   -1.9490   -1.4560    1.0690 C   0  0  0  0  0  0  0  0  0  0  0  0
   -2.2260   -2.2670    2.0220 O   0  0  0  0  0  0  0  0  0  0  0  0
   -0.6490   -0.8640    1.0650 C   0  0  0  0  0  0  0  0  0  0  0  0
    0.0100   -0.5600   -0.1210 C   0  0  0  0  0  0  0  0  0  0  0  0
    1.3120   -0.0990   -0.1540 C   0  0  0  0  0  0  0  0  0  0  0  0
    1.9490    0.2000   -1.3590 O   0  0  0  0  0  0  0  0  0  0  0  0
    3.2500    0.6570   -1.3330 C   0  0  0  0  0  0  0  0  0  0  0  0
    4.3450   -0.0010   -0.9990 C   0  0  0  0  0  0  0  0  0  0  0  0
    5.5320    0.8770   -1.1130 C   0  0  0  0  0  0  0  0  0  0  0  0
    4.9530    2.1630   -1.5700 C   0  0  0  0  0  0  0  0  0  0  0  0
    3.6460    2.0070   -1.6870 C   0  0  0  0  0  0  0  0  0  0  0  0
    1.9510    0.0510    1.0500 C   0  0  0  0  0  0  0  0  0  0  0  0
    1.3410   -0.2360    2.2350 C   0  0  0  0  0  0  0  0  0  0  0  0
    2.0630   -0.0570    3.4290 O   0  0  0  0  0  0  0  0  0  0  0  0
    0.0290   -0.7000    2.2870 C   0  0  0  0  0  0  0  0  0  0  0  0
   -0.5340   -0.9660    3.5080 O   0  0  0  0  0  0  0  0  0  0  0  0
  1  2  1  0
  2  3  2  0
  4  2  1  1
  4  5  1  0
  4  8  1  0
  5  6  1  0
  6  7  1  0
  7  8  1  0
  8  9  1  0
  9 10  2  0
  9 11  1  0
 11 12  2  0
 11 23  1  0
 12 13  1  0
 13 14  1  0
 13 20  2  0
 14 15  1  0
 15 16  2  0
 15 19  1  0
 16 17  1  0
 17 18  1  0
 18 19  2  0
 20 21  1  0
 21 22  1  0
 21 23  2  0
 23 24  1  0
M  END
