
     RDKit          3D

 24 26  0  0  0  0  0  0  0  0999 V2000
   -8.1520    0.1580   -0.8970 O   0  0  0  0  0  0  0  0  0  0  0  0
   -7.0510    0.1210   -0.2540 C   0  0  0  0  0  0  0  0  0  0  0  0
   -7.0740   -0.6160    1.0420 C   0  0  0  0  0  0  0  0  0  0  0  0
   -5.5680   -1.6440    1.1660 S   0  0  0  0  0  0  0  0  0  0  0  0
   -4.2460   -0.7120    0.3890 C   0  0  0  0  0  0  0  0  0  0  0  0
   -2.9300   -1.0440    0.6300 C   0  0  0  0  0  0  0  0  0  0  0  0
   -1.9060   -0.3340    0.0490 C   0  0  0  0  0  0  0  0  0  0  0  0
   -0.6030   -0.6740    0.2960 C   0  0  0  0  0  0  0  0  0  0  0  0
    0.4690    0.0340   -0.2840 C   0  0  0  0  0  0  0  0  0  0  0  0
    1.7750   -0.3640    0.0290 N   0  0  0  0  0  0  0  0  0  0  0  0
    2.9370    0.0210   -0.6640 C   0  0  0  0  0  0  0  0  0  0  0  0
    2.9300    0.7730   -1.6620 O   0  0  0  0  0  0  0  0  0  0  0  0
    4.2750   -0.4580   -0.2350 C   0  0  0  0  0  0  0  0  0  0  0  0
    4.3640   -1.2170    0.7600 O   0  0  0  0  0  0  0  0  0  0  0  0
    5.4140   -0.0980   -0.8920 O   0  0  0  0  0  0  0  0  0  0  0  0
    6.7330   -0.4750   -0.5900 C   0  0  0  0  0  0  0  0  0  0  0  0
    7.0820    0.0240    0.7820 C   0  0  0  0  0  0  0  0  0  0  0  0
    8.3950   -0.3230    1.1410 O   0  0  0  0  0  0  0  0  0  0  0  0
    0.2210    1.0890   -1.1170 C   0  0  0  0  0  0  0  0  0  0  0  0
   -1.1170    1.4220   -1.3590 C   0  0  0  0  0  0  0  0  0  0  0  0
   -2.1670    0.7360   -0.7970 C   0  0  0  0  0  0  0  0  0  0  0  0
   -3.4830    1.0360   -1.0130 C   0  0  0  0  0  0  0  0  0  0  0  0
   -4.5540    0.3340   -0.4380 C   0  0  0  0  0  0  0  0  0  0  0  0
   -5.8890    0.7440   -0.7540 N   0  0  0  0  0  0  0  0  0  0  0  0
  1  2  2  0
  2  3  1  0
  2 24  1  0
  3  4  1  0
  4  5  1  0
  5  6  2  0
  5 23  1  0
  6  7  1  0
  7  8  2  0
  7 21  1  0
  8  9  1  0
  9 10  1  0
  9 19  2  0
 10 11  1  0
 11 12  2  0
 11 13  1  0
 13 14  2  0
 13 15  1  0
 15 16  1  0
 16 17  1  0
 17 18  1  0
 19 20  1  0
 20 21  2  0
 21 22  1  0
 22 23  2  0
 23 24  1  0
M  END
