
     RDKit          3D

 12 13  0  0  0  0  0  0  0  0999 V2000
    0.4260   -1.5930   -1.5930 O   0  0  0  0  0  0  0  0  0  0  0  0
    0.2830   -0.7060   -0.6530 C   0  0  0  0  0  0  0  0  0  0  0  0
   -1.0180   -0.1030   -0.5920 C   0  0  0  0  0  0  0  0  0  0  0  0
   -1.4860    0.8040    0.2140 C   0  0  0  0  0  0  0  0  0  0  0  0
   -2.9320    1.1440   -0.0920 C   0  0  0  0  0  0  0  0  0  0  0  0
   -3.2080    0.2570   -1.2300 C   0  0  0  0  0  0  0  0  0  0  0  0
   -2.1260   -0.4280   -1.4900 C   0  0  0  0  0  0  0  0  0  0  0  0
    1.4480   -0.4850    0.1550 C   0  0  0  0  0  0  0  0  0  0  0  0
    2.6700   -1.1420   -0.0070 C   0  0  0  0  0  0  0  0  0  0  0  0
    3.5410   -0.6730    0.9420 C   0  0  0  0  0  0  0  0  0  0  0  0
    2.8820    0.2460    1.6710 C   0  0  0  0  0  0  0  0  0  0  0  0
    1.6110    0.3500    1.1810 N   0  0  0  0  0  0  0  0  0  0  0  0
  1  2  2  0
  2  3  1  0
  2  8  1  0
  3  4  2  0
  3  7  1  0
  4  5  1  0
  5  6  1  0
  6  7  2  0
  8  9  2  0
  8 12  1  0
  9 10  1  0
 10 11  2  0
 11 12  1  0
M  END
