
     RDKit          3D

 12 12  0  0  0  0  0  0  0  0999 V2000
   -2.4630    1.8350    0.4350 C   0  0  0  0  0  0  0  0  0  0  0  0
   -1.6150    0.7830    0.2720 C   0  0  0  0  0  0  0  0  0  0  0  0
   -0.2340    1.0170    0.4260 C   0  0  0  0  0  0  0  0  0  0  0  0
    0.8520    0.3040    0.3540 C   0  0  0  0  0  0  0  0  0  0  0  0
    2.1860    0.9340    0.5900 C   0  0  0  0  0  0  0  0  0  0  0  0
    3.3120    0.2530    0.5280 C   0  0  0  0  0  0  0  0  0  0  0  0
    3.3700   -1.1620    0.2270 C   0  0  0  0  0  0  0  0  0  0  0  0
    2.2450   -1.7890    0.0070 C   0  0  0  0  0  0  0  0  0  0  0  0
    0.9220   -1.1020    0.0560 C   0  0  0  0  0  0  0  0  0  0  0  0
   -0.0890   -1.7780   -0.1660 O   0  0  0  0  0  0  0  0  0  0  0  0
   -2.2590   -0.4070   -0.0330 N   0  0  0  0  0  0  0  0  0  0  0  0
   -2.7040   -0.6040   -1.4120 C   0  0  0  0  0  0  0  0  0  0  0  0
  1  2  2  0
  2  3  1  0
  2 11  1  0
  3  4  2  3
  4  5  1  0
  4  9  1  0
  5  6  2  0
  6  7  1  0
  7  8  2  0
  8  9  1  0
  9 10  2  0
 11 12  1  0
M  END
