
     RDKit          3D

 12 13  0  0  0  0  0  0  0  0999 V2000
   -3.9470    1.6160   -0.6980 O   0  0  0  0  0  0  0  0  0  0  0  0
   -3.0660    0.7710   -0.4400 C   0  0  0  0  0  0  0  0  0  0  0  0
   -3.1330   -0.5570    0.1930 C   0  0  0  0  0  0  0  0  0  0  0  0
   -1.8220   -0.6220    0.9470 C   0  0  0  0  0  0  0  0  0  0  0  0
   -0.8800    0.1340    0.1010 C   0  0  0  0  0  0  0  0  0  0  0  0
    0.4420    0.0960    0.0780 C   0  0  0  0  0  0  0  0  0  0  0  0
    1.2520    0.8930   -0.8060 C   0  0  0  0  0  0  0  0  0  0  0  0
    2.5830    0.8410   -0.8150 C   0  0  0  0  0  0  0  0  0  0  0  0
    3.3040   -0.0580    0.1070 C   0  0  0  0  0  0  0  0  0  0  0  0
    2.4290   -0.8530    0.9920 C   0  0  0  0  0  0  0  0  0  0  0  0
    1.1180   -0.7990    0.9970 C   0  0  0  0  0  0  0  0  0  0  0  0
   -1.6760    0.9720   -0.7520 N   0  0  0  0  0  0  0  0  0  0  0  0
  1  2  2  0
  2  3  1  0
  2 12  1  0
  3  4  1  0
  4  5  1  0
  5  6  2  3
  5 12  1  0
  6  7  1  0
  6 11  1  0
  7  8  2  0
  8  9  1  0
  9 10  1  0
 10 11  2  0
M  END
