
     RDKit          3D

 12 13  0  0  0  0  0  0  0  0999 V2000
   -3.4750    0.5080    0.6220 C   0  0  0  0  0  0  0  0  0  0  0  0
   -2.3030   -0.0350    0.2850 C   0  0  0  0  0  0  0  0  0  0  0  0
   -2.0850   -1.2250   -0.2900 N   0  0  0  0  0  0  0  0  0  0  0  0
   -0.7590   -1.4320   -0.4810 C   0  0  0  0  0  0  0  0  0  0  0  0
   -0.1030   -0.3190   -0.0030 C   0  0  0  0  0  0  0  0  0  0  0  0
    1.3500   -0.1450   -0.0220 C   0  0  0  0  0  0  0  0  0  0  0  0
    2.2850   -1.0300   -0.5040 C   0  0  0  0  0  0  0  0  0  0  0  0
    3.5320   -0.4810   -0.3330 C   0  0  0  0  0  0  0  0  0  0  0  0
    3.3130    0.7450    0.2580 C   0  0  0  0  0  0  0  0  0  0  0  0
    2.0310    0.8990    0.4200 O   0  0  0  0  0  0  0  0  0  0  0  0
   -1.0530    0.5530    0.4740 C   0  0  0  0  0  0  0  0  0  0  0  0
   -0.8390    1.7340    1.0140 C   0  0  0  0  0  0  0  0  0  0  0  0
  1  2  2  0
  2  3  1  0
  2 11  1  0
  3  4  1  0
  4  5  2  0
  5  6  1  0
  5 11  1  0
  6  7  2  0
  6 10  1  0
  7  8  1  0
  8  9  2  0
  9 10  1  0
 11 12  2  0
M  END
