
     RDKit          3D

 12 12  0  0  0  0  0  0  0  0999 V2000
   -1.2590    2.0340   -0.0860 C   0  0  0  0  0  0  0  0  0  0  0  0
   -1.8530    0.8660   -0.1730 C   0  0  0  0  0  0  0  0  0  0  0  0
   -3.2510    0.8200   -0.3350 O   0  0  0  0  0  0  0  0  0  0  0  0
   -1.0910   -0.3760   -0.1050 C   0  0  0  0  0  0  0  0  0  0  0  0
   -1.6360   -1.5630   -0.1870 C   0  0  0  0  0  0  0  0  0  0  0  0
   -3.1060   -1.7190   -0.3590 C   0  0  0  0  0  0  0  0  0  0  0  0
    0.3160   -0.2800    0.0590 N   0  0  0  0  0  0  0  0  0  0  0  0
    1.1110    0.0060   -1.0960 C   0  0  0  0  0  0  0  0  0  0  0  0
    2.4210    0.6530   -0.8150 C   0  0  0  0  0  0  0  0  0  0  0  0
    3.0080    0.0740    0.4400 C   0  0  0  0  0  0  0  0  0  0  0  0
    2.0350    0.4320    1.5710 C   0  0  0  0  0  0  0  0  0  0  0  0
    0.8390   -0.4810    1.3940 C   0  0  0  0  0  0  0  0  0  0  0  0
  1  2  2  0
  2  3  1  0
  2  4  1  0
  4  5  2  3
  4  7  1  0
  5  6  1  0
  7  8  1  0
  7 12  1  0
  8  9  1  0
  9 10  1  0
 10 11  1  0
 11 12  1  0
M  END
