
     RDKit          3D

 24 26  0  0  0  0  0  0  0  0999 V2000
    2.3570   -2.8820    0.4790 C   0  0  0  0  0  0  0  0  0  0  0  0
    1.0290   -2.2310    0.5760 C   0  0  0  0  0  0  0  0  0  0  0  0
    0.0020   -2.9260    0.7780 O   0  0  0  0  0  0  0  0  0  0  0  0
    0.8640   -0.8240    0.4460 N   0  0  0  0  0  0  0  0  0  0  0  0
    1.9990   -0.0250    0.2500 C   0  0  0  0  0  0  0  0  0  0  0  0
    2.9260    0.0620    1.2720 C   0  0  0  0  0  0  0  0  0  0  0  0
    4.0610    0.8350    1.1220 C   0  0  0  0  0  0  0  0  0  0  0  0
    4.9970    0.9130    2.1730 O   0  0  0  0  0  0  0  0  0  0  0  0
    4.2940    1.5340   -0.0430 C   0  0  0  0  0  0  0  0  0  0  0  0
    3.3730    1.4510   -1.0650 C   0  0  0  0  0  0  0  0  0  0  0  0
    2.2240    0.6640   -0.9050 C   0  0  0  0  0  0  0  0  0  0  0  0
    1.2430    0.5920   -2.0130 C   0  0  0  0  0  0  0  0  0  0  0  0
   -0.4580   -0.2720    0.5250 C   0  0  0  0  0  0  0  0  0  0  0  0
   -0.9310    0.6360    1.4360 C   0  0  0  0  0  0  0  0  0  0  0  0
   -2.2490    0.8440    1.1150 N   0  0  0  0  0  0  0  0  0  0  0  0
   -3.0790    1.7210    1.8350 C   0  0  0  0  0  0  0  0  0  0  0  0
   -4.4970    2.0210    1.5880 C   0  0  0  0  0  0  0  0  0  0  0  0
   -2.5610    2.3450    2.8300 O   0  0  0  0  0  0  0  0  0  0  0  0
   -2.5830    0.0970    0.0470 C   0  0  0  0  0  0  0  0  0  0  0  0
   -3.7370   -0.0870   -0.6900 C   0  0  0  0  0  0  0  0  0  0  0  0
   -3.7470   -0.9530   -1.7650 C   0  0  0  0  0  0  0  0  0  0  0  0
   -2.6420   -1.6650   -2.1600 C   0  0  0  0  0  0  0  0  0  0  0  0
   -1.4770   -1.4960   -1.4350 C   0  0  0  0  0  0  0  0  0  0  0  0
   -1.4510   -0.6340   -0.3570 C   0  0  0  0  0  0  0  0  0  0  0  0
  1  2  1  0
  2  3  2  0
  2  4  1  0
  4  5  1  0
  4 13  1  0
  5  6  2  0
  5 11  1  0
  6  7  1  0
  7  8  1  0
  7  9  2  0
  9 10  1  0
 10 11  2  0
 11 12  1  0
 13 14  2  0
 13 24  1  0
 14 15  1  0
 15 16  1  0
 15 19  1  0
 16 17  1  0
 16 18  2  0
 19 20  2  0
 19 24  1  0
 20 21  1  0
 21 22  2  0
 22 23  1  0
 23 24  2  0
M  END
