
     RDKit          3D

 12 13  0  0  0  0  0  0  0  0999 V2000
    4.0790    0.2380    0.1480 C   0  0  0  0  0  0  0  0  0  0  0  0
    2.9750    0.8100    0.5610 C   0  0  0  0  0  0  0  0  0  0  0  0
    1.6530    0.2430    0.2760 C   0  0  0  0  0  0  0  0  0  0  0  0
    1.4650   -0.9080   -0.4300 C   0  0  0  0  0  0  0  0  0  0  0  0
    0.1960   -1.4260   -0.6870 C   0  0  0  0  0  0  0  0  0  0  0  0
   -0.8670   -0.7170   -0.1910 C   0  0  0  0  0  0  0  0  0  0  0  0
   -0.7080    0.4560    0.5300 C   0  0  0  0  0  0  0  0  0  0  0  0
    0.5410    0.9210    0.7550 C   0  0  0  0  0  0  0  0  0  0  0  0
   -1.9490    1.1210    1.0080 C   0  0  0  0  0  0  0  0  0  0  0  0
   -2.8990    1.0180    0.0120 O   0  0  0  0  0  0  0  0  0  0  0  0
   -3.2930   -0.2760   -0.2420 C   0  0  0  0  0  0  0  0  0  0  0  0
   -2.1890   -1.1710   -0.4060 N   0  0  0  0  0  0  0  0  0  0  0  0
  1  2  2  0
  2  3  1  0
  3  4  2  0
  3  8  1  0
  4  5  1  0
  5  6  2  0
  6  7  1  0
  6 12  1  0
  7  8  2  0
  7  9  1  0
  9 10  1  0
 10 11  1  0
 11 12  1  0
M  END
