
     RDKit          3D

 12 13  0  0  0  0  0  0  0  0999 V2000
   -3.7210    0.2280   -0.6130 C   0  0  0  0  0  0  0  0  0  0  0  0
   -3.0560   -0.2570    0.6600 C   0  0  0  0  0  0  0  0  0  0  0  0
   -1.6070   -0.5470    0.3900 C   0  0  0  0  0  0  0  0  0  0  0  0
   -1.1080   -1.7680   -0.0210 C   0  0  0  0  0  0  0  0  0  0  0  0
    0.2580   -1.5750   -0.1420 C   0  0  0  0  0  0  0  0  0  0  0  0
    0.5300   -0.2650    0.1950 C   0  0  0  0  0  0  0  0  0  0  0  0
    1.8670    0.3410    0.1950 C   0  0  0  0  0  0  0  0  0  0  0  0
    3.0480   -0.2770   -0.1330 C   0  0  0  0  0  0  0  0  0  0  0  0
    4.0840    0.6500   -0.0040 C   0  0  0  0  0  0  0  0  0  0  0  0
    3.4950    1.8160    0.4040 C   0  0  0  0  0  0  0  0  0  0  0  0
    2.1700    1.6090    0.5160 N   0  0  0  0  0  0  0  0  0  0  0  0
   -0.6100    0.2970    0.5020 O   0  0  0  0  0  0  0  0  0  0  0  0
  1  2  1  0
  2  3  1  0
  3  4  2  0
  3 12  1  0
  4  5  1  0
  5  6  2  0
  6  7  1  0
  6 12  1  0
  7  8  2  0
  7 11  1  0
  8  9  1  0
  9 10  2  0
 10 11  1  0
M  END
