
     RDKit          3D

 32 34  0  0  0  0  0  0  0  0999 V2000
   -9.0250    3.2440   -1.6030 C   0  0  0  0  0  0  0  0  0  0  0  0
   -7.7170    3.1480   -1.5600 C   0  0  0  0  0  0  0  0  0  0  0  0
   -7.0230    2.0180   -0.9440 C   0  0  0  0  0  0  0  0  0  0  0  0
   -5.7180    1.9250   -0.9030 C   0  0  0  0  0  0  0  0  0  0  0  0
   -5.0790    0.7880   -0.2830 C   0  0  0  0  0  0  0  0  0  0  0  0
   -5.7090   -0.2720    0.3040 C   0  0  0  0  0  0  0  0  0  0  0  0
   -5.0100   -1.3080    0.8690 C   0  0  0  0  0  0  0  0  0  0  0  0
   -5.6190   -2.3970    1.4720 O   0  0  0  0  0  0  0  0  0  0  0  0
   -4.9320   -3.4600    2.0510 C   0  0  0  0  0  0  0  0  0  0  0  0
   -3.6690   -1.2580    0.8310 N   0  0  0  0  0  0  0  0  0  0  0  0
   -3.0030   -0.2300    0.2610 C   0  0  0  0  0  0  0  0  0  0  0  0
   -1.5850   -0.1830    0.2240 N   0  0  0  0  0  0  0  0  0  0  0  0
   -0.9330   -1.3130    0.8400 C   0  0  0  0  0  0  0  0  0  0  0  0
   -0.0690   -0.8950    2.0140 C   0  0  0  0  0  0  0  0  0  0  0  0
    0.8970    0.1950    1.6440 C   0  0  0  0  0  0  0  0  0  0  0  0
    1.1840    0.1540    0.2280 N   0  0  0  0  0  0  0  0  0  0  0  0
    2.3760   -0.4960   -0.1750 C   0  0  0  0  0  0  0  0  0  0  0  0
    3.1360   -1.0080    0.6840 O   0  0  0  0  0  0  0  0  0  0  0  0
    2.7540   -0.5880   -1.6050 C   0  0  0  0  0  0  0  0  0  0  0  0
    3.9740   -1.2500   -1.8000 O   0  0  0  0  0  0  0  0  0  0  0  0
    5.2000   -0.7520   -1.2390 C   0  0  0  0  0  0  0  0  0  0  0  0
    5.0080    0.2980   -0.5950 O   0  0  0  0  0  0  0  0  0  0  0  0
    6.4270   -1.4570   -1.4590 C   0  0  0  0  0  0  0  0  0  0  0  0
    7.6250   -1.3050   -1.1280 C   0  0  0  0  0  0  0  0  0  0  0  0
    8.3160   -0.3260   -0.3590 C   0  0  0  0  0  0  0  0  0  0  0  0
    8.0580    0.8000    0.3220 C   0  0  0  0  0  0  0  0  0  0  0  0
    9.0470    1.4730    0.9500 C   0  0  0  0  0  0  0  0  0  0  0  0
   10.2940    1.0200    0.8970 C   0  0  0  0  0  0  0  0  0  0  0  0
   10.1040   -0.4730   -0.1080 S   0  0  0  0  0  0  0  0  0  0  0  0
    0.4050    0.6970   -0.8560 C   0  0  0  0  0  0  0  0  0  0  0  0
   -1.0200    0.9720   -0.4150 C   0  0  0  0  0  0  0  0  0  0  0  0
   -3.7230    0.7590   -0.2770 N   0  0  0  0  0  0  0  0  0  0  0  0
  1  2  2  0
  2  3  1  0
  3  4  2  3
  4  5  1  0
  5  6  2  0
  5 32  1  0
  6  7  1  0
  7  8  1  0
  7 10  2  0
  8  9  1  0
 10 11  1  0
 11 12  1  0
 11 32  2  0
 12 13  1  0
 12 31  1  0
 13 14  1  0
 14 15  1  0
 15 16  1  0
 16 17  1  0
 16 30  1  0
 17 18  2  0
 17 19  1  0
 19 20  1  0
 20 21  1  0
 21 22  2  0
 21 23  1  0
 23 24  2  3
 24 25  1  0
 25 26  2  0
 25 29  1  0
 26 27  1  0
 27 28  2  0
 28 29  1  0
 30 31  1  0
M  END
