
     RDKit          3D

 31 32  0  0  0  0  0  0  0  0999 V2000
   -4.3220    3.0590    1.5200 C   0  0  0  0  0  0  0  0  0  0  0  0
   -3.8500    1.7870    1.8420 O   0  0  0  0  0  0  0  0  0  0  0  0
   -3.4030    1.0960    0.7150 C   0  0  1  0  0  0  0  0  0  0  0  0
   -1.9580    0.8150    0.9400 C   0  0  0  0  0  0  0  0  0  0  0  0
   -1.2920   -0.0020   -0.1540 C   0  0  1  0  0  0  0  0  0  0  0  0
   -1.1180    0.9410   -1.3440 C   0  0  0  0  0  0  0  0  0  0  0  0
   -0.0920    1.9970   -1.1000 C   0  0  0  0  0  0  0  0  0  0  0  0
    1.2550    1.4730   -0.9250 N   0  0  0  0  0  0  0  0  0  0  0  0
    1.1560    0.0640   -0.7410 C   0  0  1  0  0  0  0  0  0  0  0  0
    2.4430   -0.4980   -0.1970 C   0  0  0  0  0  0  0  0  0  0  0  0
    3.6260   -0.3170   -1.0360 C   0  0  0  0  0  0  0  0  0  0  0  0
    3.5390    0.2360   -2.1560 O   0  0  0  0  0  0  0  0  0  0  0  0
    4.8440   -0.7700   -0.5670 O   0  0  0  0  0  0  0  0  0  0  0  0
    6.0030   -0.6100   -1.3430 C   0  0  0  0  0  0  0  0  0  0  0  0
    6.2970    0.8480   -1.5770 C   0  0  0  0  0  0  0  0  0  0  0  0
    6.4850    1.4910   -0.3340 O   0  0  0  0  0  0  0  0  0  0  0  0
    7.4760    1.1600    0.5710 C   0  0  0  0  0  0  0  0  0  0  0  0
    8.2720    0.2290    0.2880 O   0  0  0  0  0  0  0  0  0  0  0  0
    7.6180    1.8270    1.7910 O   0  0  0  0  0  0  0  0  0  0  0  0
    8.6010    1.4570    2.6270 O   0  0  0  0  0  0  0  0  0  0  0  0
    0.0890   -0.3010    0.3140 C   0  0  2  0  0  0  0  0  0  0  0  0
    0.3700   -1.5850    0.6660 O   0  0  0  0  0  0  0  0  0  0  0  0
   -2.1600   -1.1360   -0.5060 C   0  0  2  0  0  0  0  0  0  0  0  0
   -1.4700   -2.4530   -0.7670 C   0  0  0  0  0  0  0  0  0  0  0  0
   -2.7490   -0.8360   -1.7660 O   0  0  0  0  0  0  0  0  0  0  0  0
   -3.3440   -1.3790    0.4000 C   0  0  2  0  0  0  0  0  0  0  0  0
   -3.0300   -1.9300    1.7420 C   0  0  0  0  0  0  0  0  0  0  0  0
   -4.2410   -2.4150   -0.2960 C   0  0  0  0  0  0  0  0  0  0  0  0
   -5.3230   -2.5920    0.6000 O   0  0  0  0  0  0  0  0  0  0  0  0
   -4.2240   -0.1580    0.5630 C   0  0  1  0  0  0  0  0  0  0  0  0
   -5.0420   -0.3260    1.6880 O   0  0  0  0  0  0  0  0  0  0  0  0
  1  2  1  0
  3  2  1  1
  3  4  1  0
  3 30  1  0
  5  4  1  1
  5  6  1  0
  5 21  1  0
  5 23  1  0
  6  7  1  0
  7  8  1  0
  8  9  1  0
  9 10  1  1
  9 21  1  0
 10 11  1  0
 11 12  2  0
 11 13  1  0
 13 14  1  0
 14 15  1  0
 15 16  1  0
 16 17  1  0
 17 18  2  0
 17 19  1  0
 19 20  1  0
 21 22  1  6
 23 24  1  6
 23 25  1  0
 23 26  1  0
 26 27  1  1
 26 28  1  0
 26 30  1  0
 28 29  1  0
 30 31  1  1
M  CHG  1   8   1
M  END
