
     RDKit          3D

 32 33  0  0  0  0  0  0  0  0999 V2000
    5.4020    4.6060   -0.4720 C   0  0  0  0  0  0  0  0  0  0  0  0
    4.4200    3.7640   -0.8130 C   0  0  0  0  0  0  0  0  0  0  0  0
    4.6060    2.3270   -0.6990 C   0  0  0  0  0  0  0  0  0  0  0  0
    3.6030    1.5340   -1.0490 C   0  0  0  0  0  0  0  0  0  0  0  0
    2.3570    2.0170   -1.5300 N   0  0  0  0  0  0  0  0  0  0  0  0
    1.3010    1.0760   -1.8970 C   0  0  0  0  0  0  0  0  0  0  0  0
    0.8370    0.4260   -0.5640 C   0  0  0  0  0  0  0  0  0  0  0  0
   -0.1890   -0.5180   -0.8160 N   0  0  0  0  0  0  0  0  0  0  0  0
   -1.4920   -0.2630   -1.2610 C   0  0  0  0  0  0  0  0  0  0  0  0
   -2.4890    0.3280   -0.3460 C   0  0  0  0  0  0  0  0  0  0  0  0
   -2.1700    1.6560    0.2080 C   0  0  0  0  0  0  0  0  0  0  0  0
   -3.3770    2.1180    1.0320 C   0  0  0  0  0  0  0  0  0  0  0  0
   -4.3730    1.3990    1.1200 O   0  0  0  0  0  0  0  0  0  0  0  0
   -3.3420    3.3430    1.6760 O   0  0  0  0  0  0  0  0  0  0  0  0
   -4.4160    3.8420    2.4520 C   0  0  0  0  0  0  0  0  0  0  0  0
   -5.6660    3.9970    1.6290 C   0  0  0  0  0  0  0  0  0  0  0  0
    0.1670   -1.9030   -0.5990 C   0  0  0  0  0  0  0  0  0  0  0  0
    0.4330   -2.5760   -1.6390 N   0  0  0  0  0  0  0  0  0  0  0  0
    0.8850   -4.1950   -1.8040 S   0  0  1  0  0  0  0  0  0  0  0  0
    1.2580   -4.6170   -3.5000 C   0  0  0  0  0  0  0  0  0  0  0  0
    2.1810   -4.4290   -1.0400 O   0  0  0  0  0  0  0  0  0  0  0  0
   -0.1120   -5.1640   -1.2750 O   0  0  0  0  0  0  0  0  0  0  0  0
    0.2090   -2.4390    0.6870 N   0  0  0  0  0  0  0  0  0  0  0  0
   -0.9500   -3.0280    1.2860 C   0  0  0  0  0  0  0  0  0  0  0  0
   -0.8360   -4.0870    2.0660 C   0  0  0  0  0  0  0  0  0  0  0  0
   -2.0370   -4.6750    2.6720 C   0  0  0  0  0  0  0  0  0  0  0  0
    0.5390   -4.6160    2.2710 C   0  0  0  0  0  0  0  0  0  0  0  0
    1.4110   -3.4390    2.6080 C   0  0  0  0  0  0  0  0  0  0  0  0
    1.4250   -2.4320    1.5110 C   0  0  0  0  0  0  0  0  0  0  0  0
    2.1900    3.4240   -1.6360 C   0  0  0  0  0  0  0  0  0  0  0  0
    0.8740    3.9580   -2.1410 C   0  0  0  0  0  0  0  0  0  0  0  0
    3.1440    4.2500   -1.3040 C   0  0  0  0  0  0  0  0  0  0  0  0
  1  2  2  0
  2  3  1  0
  2 32  1  0
  3  4  2  0
  4  5  1  0
  5  6  1  0
  5 30  1  0
  6  7  1  0
  7  8  1  0
  8  9  1  0
  8 17  1  0
  9 10  1  0
 10 11  1  0
 11 12  1  0
 12 13  2  0
 12 14  1  0
 14 15  1  0
 15 16  1  0
 17 18  2  3
 17 23  1  0
 18 19  1  0
 19 20  1  6
 19 21  2  0
 19 22  2  0
 23 24  1  0
 23 29  1  0
 24 25  2  0
 25 26  1  0
 25 27  1  0
 27 28  1  0
 28 29  1  0
 30 31  1  0
 30 32  2  0
M  END
