
     RDKit          3D

 32 34  0  0  0  0  0  0  0  0999 V2000
    4.1710   -5.4970    1.6910 C   0  0  0  0  0  0  0  0  0  0  0  0
    4.7870   -4.6050    0.9020 C   0  0  0  0  0  0  0  0  0  0  0  0
    4.2650   -3.2170    0.7930 C   0  0  0  0  0  0  0  0  0  0  0  0
    3.9160   -2.9880   -0.6610 C   0  0  0  0  0  0  0  0  0  0  0  0
    3.3950   -1.6680   -0.8940 N   0  0  0  0  0  0  0  0  0  0  0  0
    2.0840   -1.4060   -0.8140 C   0  0  0  0  0  0  0  0  0  0  0  0
    1.3000   -2.3680   -0.5230 O   0  0  0  0  0  0  0  0  0  0  0  0
    1.5600   -0.1360   -1.0340 C   0  0  0  0  0  0  0  0  0  0  0  0
    0.1280    0.1010   -0.9370 C   0  0  0  0  0  0  0  0  0  0  0  0
   -0.6560   -0.8740   -0.6440 N   0  0  0  0  0  0  0  0  0  0  0  0
   -2.0510   -0.6010   -0.5580 C   0  0  0  0  0  0  0  0  0  0  0  0
   -2.9110    0.0890   -1.0890 N   0  0  0  0  0  0  0  0  0  0  0  0
   -4.1670    0.1490   -0.8030 C   0  0  0  0  0  0  0  0  0  0  0  0
   -4.5950   -0.6750    0.2400 C   0  0  0  0  0  0  0  0  0  0  0  0
   -3.0920   -1.4820    0.7230 S   0  0  0  0  0  0  0  0  0  0  0  0
   -5.8640   -0.9190    0.8710 C   0  0  0  0  0  0  0  0  0  0  0  0
   -6.8090    0.2360    0.8490 C   0  0  2  0  0  0  0  0  0  0  0  0
   -6.2340    1.5020    1.3930 C   0  0  0  0  0  0  0  0  0  0  0  0
   -8.0060   -0.1450    1.7290 C   0  0  0  0  0  0  0  0  0  0  0  0
   -7.3760    0.4030   -0.5570 C   0  0  0  0  0  0  0  0  0  0  0  0
   -6.4330    1.1410   -1.4280 C   0  0  0  0  0  0  0  0  0  0  0  0
   -5.1230    1.0280   -1.5200 C   0  0  0  0  0  0  0  0  0  0  0  0
    2.4530    0.8660   -1.3450 C   0  0  0  0  0  0  0  0  0  0  0  0
    3.7640    0.5950   -1.4230 N   0  0  0  0  0  0  0  0  0  0  0  0
    4.7470    1.6100   -1.7450 C   0  0  0  0  0  0  0  0  0  0  0  0
    5.2080    2.2330   -0.4890 C   0  0  0  0  0  0  0  0  0  0  0  0
    4.7870    1.9030    0.6330 O   0  0  0  0  0  0  0  0  0  0  0  0
    6.1710    3.2520   -0.5580 O   0  0  0  0  0  0  0  0  0  0  0  0
    6.6180    3.8550    0.6400 C   0  0  0  0  0  0  0  0  0  0  0  0
    5.4420    4.4840    1.3430 C   0  0  0  0  0  0  0  0  0  0  0  0
    4.2330   -0.6600   -1.1990 C   0  0  0  0  0  0  0  0  0  0  0  0
    5.4750   -0.8890   -1.2790 O   0  0  0  0  0  0  0  0  0  0  0  0
  1  2  2  0
  2  3  1  0
  3  4  1  0
  4  5  1  0
  5  6  1  0
  5 31  1  0
  6  7  2  0
  6  8  1  0
  8  9  1  0
  8 23  2  0
  9 10  2  3
 10 11  1  0
 11 12  2  0
 11 15  1  0
 12 13  1  0
 13 14  2  0
 13 22  1  0
 14 15  1  0
 14 16  1  0
 16 17  1  0
 17 18  1  1
 17 19  1  0
 17 20  1  0
 20 21  1  0
 21 22  2  0
 23 24  1  0
 24 25  1  0
 24 31  1  0
 25 26  1  0
 26 27  2  0
 26 28  1  0
 28 29  1  0
 29 30  1  0
 31 32  2  0
M  END
