
     RDKit          3D

 32 34  0  0  0  0  0  0  0  0999 V2000
   -2.8900    4.2960    0.5230 C   0  0  0  0  0  0  0  0  0  0  0  0
   -2.7230    3.1660   -0.1170 C   0  0  0  0  0  0  0  0  0  0  0  0
   -3.7340    2.0710   -0.1450 C   0  0  0  0  0  0  0  0  0  0  0  0
   -3.1530    0.8710    0.4210 N   0  0  0  0  0  0  0  0  0  0  0  0
   -2.8630    0.8760    1.8390 C   0  0  0  0  0  0  0  0  0  0  0  0
   -2.8610   -0.2970   -0.3400 C   0  0  0  0  0  0  0  0  0  0  0  0
   -1.6570   -0.7420   -0.6510 C   0  0  0  0  0  0  0  0  0  0  0  0
   -0.3770   -0.1130   -0.2650 C   0  0  0  0  0  0  0  0  0  0  0  0
   -0.3290    0.9380    0.4180 O   0  0  0  0  0  0  0  0  0  0  0  0
    0.8460   -0.6530   -0.6400 O   0  0  0  0  0  0  0  0  0  0  0  0
    2.0560   -0.0830   -0.2880 C   0  0  0  0  0  0  0  0  0  0  0  0
    2.6760    0.8990   -1.0290 C   0  0  0  0  0  0  0  0  0  0  0  0
    3.8860    1.4530   -0.6550 C   0  0  0  0  0  0  0  0  0  0  0  0
    4.5120    1.0170    0.5030 C   0  0  0  0  0  0  0  0  0  0  0  0
    5.7860    1.5890    0.9140 C   0  0  0  0  0  0  0  0  0  0  0  0
    6.6150    2.4920    0.4970 N   0  0  0  0  0  0  0  0  0  0  0  0
    7.6920    2.7410    1.1470 N   0  0  0  0  0  0  0  0  0  0  0  0
    8.0710    2.2300    2.1470 C   0  0  0  0  0  0  0  0  0  0  0  0
    9.1850    2.2260    3.1530 C   0  0  0  0  0  0  0  0  0  0  0  0
    6.6800    1.0290    2.4420 S   0  0  0  0  0  0  0  0  0  0  0  0
    3.9020    0.0340    1.2560 C   0  0  0  0  0  0  0  0  0  0  0  0
    2.7020   -0.4940    0.8560 C   0  0  0  0  0  0  0  0  0  0  0  0
   -1.8030   -1.9590   -1.4340 C   0  0  0  0  0  0  0  0  0  0  0  0
   -0.8640   -2.6550   -1.9020 O   0  0  0  0  0  0  0  0  0  0  0  0
   -3.1810   -2.2530   -1.5990 N   0  0  0  0  0  0  0  0  0  0  0  0
   -3.7870   -3.3370   -2.2660 C   0  0  0  0  0  0  0  0  0  0  0  0
   -4.6350   -3.0980   -3.4170 C   0  0  0  0  0  0  0  0  0  0  0  0
   -4.8740   -1.8910   -3.8870 C   0  0  0  0  0  0  0  0  0  0  0  0
   -3.5660   -4.5600   -1.8320 C   0  0  0  0  0  0  0  0  0  0  0  0
   -2.6950   -4.8470   -0.6560 C   0  0  0  0  0  0  0  0  0  0  0  0
   -3.8690   -1.2160   -0.9160 C   0  0  0  0  0  0  0  0  0  0  0  0
   -5.1070   -1.0610   -0.7910 O   0  0  0  0  0  0  0  0  0  0  0  0
  1  2  2  0
  2  3  1  0
  3  4  1  0
  4  5  1  0
  4  6  1  0
  6  7  2  0
  6 31  1  0
  7  8  1  0
  7 23  1  0
  8  9  2  0
  8 10  1  0
 10 11  1  0
 11 12  2  0
 11 22  1  0
 12 13  1  0
 13 14  2  0
 14 15  1  0
 14 21  1  0
 15 16  2  0
 15 20  1  0
 16 17  1  0
 17 18  2  0
 18 19  1  0
 18 20  1  0
 21 22  2  0
 23 24  2  0
 23 25  1  0
 25 26  1  0
 25 31  1  0
 26 27  1  0
 26 29  2  3
 27 28  2  0
 29 30  1  0
 31 32  2  0
M  END
