
     RDKit          3D

 31 34  0  0  0  0  0  0  0  0999 V2000
   -4.5970   -2.1980    0.7200 C   0  0  0  0  0  0  0  0  0  0  0  0
   -3.5680   -3.0970    0.1710 C   0  0  0  0  0  0  0  0  0  0  0  0
   -2.4340   -2.5330   -0.2730 C   0  0  0  0  0  0  0  0  0  0  0  0
   -2.2760   -1.0830   -0.1960 C   0  0  0  0  0  0  0  0  0  0  0  0
   -1.2150   -0.4310   -0.5810 C   0  0  0  0  0  0  0  0  0  0  0  0
   -0.0690   -1.1630   -1.1320 C   0  0  0  0  0  0  0  0  0  0  0  0
   -0.1320   -2.1580   -1.8610 O   0  0  0  0  0  0  0  0  0  0  0  0
    1.2590   -0.6600   -0.7690 N   0  0  0  0  0  0  0  0  0  0  0  0
    2.3420   -1.5520   -0.6160 C   0  0  0  0  0  0  0  0  0  0  0  0
    2.2180   -2.7170    0.1460 C   0  0  0  0  0  0  0  0  0  0  0  0
    3.2230   -3.6240    0.3200 C   0  0  0  0  0  0  0  0  0  0  0  0
    4.4430   -3.3720   -0.2950 C   0  0  0  0  0  0  0  0  0  0  0  0
    5.7360   -4.5210   -0.0740 Cl  0  0  0  0  0  0  0  0  0  0  0  0
    4.5760   -2.2220   -1.0500 C   0  0  0  0  0  0  0  0  0  0  0  0
    3.5470   -1.3210   -1.2150 C   0  0  0  0  0  0  0  0  0  0  0  0
    1.3450    0.7720   -0.5830 C   0  0  2  0  0  0  0  0  0  0  0  0
    1.2340    1.4930   -1.9280 C   0  0  0  0  0  0  0  0  0  0  0  0
    2.5500    1.2370    0.1220 C   0  0  0  0  0  0  0  0  0  0  0  0
    3.3130    0.6030    1.0630 C   0  0  0  0  0  0  0  0  0  0  0  0
    4.3570    1.4720    1.4270 C   0  0  0  0  0  0  0  0  0  0  0  0
    4.1320    2.5810    0.6570 C   0  0  0  0  0  0  0  0  0  0  0  0
    3.0830    2.4110   -0.0810 O   0  0  0  0  0  0  0  0  0  0  0  0
    0.2010    1.2680    0.2210 N   0  0  0  0  0  0  0  0  0  0  0  0
   -1.0230    1.0470   -0.4920 C   0  0  2  0  0  0  0  0  0  0  0  0
   -2.1760    1.7700    0.0770 C   0  0  0  0  0  0  0  0  0  0  0  0
   -3.4150    1.6170   -0.5310 C   0  0  0  0  0  0  0  0  0  0  0  0
   -4.5290    2.3150   -0.0360 C   0  0  0  0  0  0  0  0  0  0  0  0
   -4.3980    3.1450    1.0400 C   0  0  0  0  0  0  0  0  0  0  0  0
   -3.1780    3.3060    1.6480 C   0  0  0  0  0  0  0  0  0  0  0  0
   -2.0810    2.6060    1.1440 C   0  0  0  0  0  0  0  0  0  0  0  0
   -0.8780    2.8080    1.7930 O   0  0  0  0  0  0  0  0  0  0  0  0
  1  2  1  0
  2  3  2  3
  3  4  1  0
  4  5  2  3
  5  6  1  0
  5 24  1  0
  6  7  2  0
  6  8  1  0
  8  9  1  0
  8 16  1  0
  9 10  2  0
  9 15  1  0
 10 11  1  0
 11 12  2  0
 12 13  1  0
 12 14  1  0
 14 15  2  0
 16 17  1  6
 16 18  1  0
 16 23  1  0
 18 19  2  0
 18 22  1  0
 19 20  1  0
 20 21  2  0
 21 22  1  0
 23 24  1  0
 24 25  1  1
 25 26  2  0
 25 30  1  0
 26 27  1  0
 27 28  2  0
 28 29  1  0
 29 30  2  0
 30 31  1  0
M  END
