
     RDKit          3D

 31 34  0  0  0  0  0  0  0  0999 V2000
   -6.7600   -0.7300    0.3430 C   0  0  0  0  0  0  0  0  0  0  0  0
   -5.4660   -0.7890   -0.4010 C   0  0  1  0  0  0  0  0  0  0  0  0
   -5.0810    0.6830   -0.7230 C   0  0  0  0  0  0  0  0  0  0  0  0
   -3.7680    0.5030   -1.4000 C   0  0  0  0  0  0  0  0  0  0  0  0
   -3.6070    0.6870   -2.6150 O   0  0  0  0  0  0  0  0  0  0  0  0
   -2.6060    0.0680   -0.5950 C   0  0  0  0  0  0  0  0  0  0  0  0
   -1.4400    0.6080   -0.6570 C   0  0  0  0  0  0  0  0  0  0  0  0
   -0.2050    0.2740    0.0070 C   0  0  0  0  0  0  0  0  0  0  0  0
    0.8600    1.0470    0.0610 C   0  0  0  0  0  0  0  0  0  0  0  0
    2.0920    0.6320    0.7650 C   0  0  0  0  0  0  0  0  0  0  0  0
    3.1860    0.6110   -0.2140 N   0  0  0  0  0  0  0  0  0  0  0  0
    4.4960    0.2530    0.1510 C   0  0  0  0  0  0  0  0  0  0  0  0
    4.6740   -0.0770    1.5000 C   0  0  0  0  0  0  0  0  0  0  0  0
    5.9220   -0.4430    1.9630 C   0  0  0  0  0  0  0  0  0  0  0  0
    7.0060   -0.4920    1.1190 C   0  0  0  0  0  0  0  0  0  0  0  0
    6.8000   -0.1590   -0.2170 C   0  0  0  0  0  0  0  0  0  0  0  0
    5.5790    0.2100   -0.7220 C   0  0  0  0  0  0  0  0  0  0  0  0
    5.4060    0.5370   -2.0650 N   0  0  0  0  0  0  0  0  0  0  0  0
    6.3580    0.5570   -3.0980 C   0  0  0  0  0  0  0  0  0  0  0  0
    7.5410    0.2550   -2.8680 O   0  0  0  0  0  0  0  0  0  0  0  0
    0.8840    2.3560   -0.5820 C   0  0  0  0  0  0  0  0  0  0  0  0
    1.8860    3.1060   -0.5490 O   0  0  0  0  0  0  0  0  0  0  0  0
   -0.3310    2.7490   -1.2730 C   0  0  0  0  0  0  0  0  0  0  0  0
   -1.3950    1.9640   -1.3110 C   0  0  0  0  0  0  0  0  0  0  0  0
   -2.8350    2.6830   -2.0410 Cl  0  0  0  0  0  0  0  0  0  0  0  0
   -3.0580   -0.9250    0.4220 C   0  0  0  0  0  0  0  0  0  0  0  0
   -2.2220   -1.4580    1.3490 C   0  0  0  0  0  0  0  0  0  0  0  0
   -2.6500   -2.3560    2.3390 C   0  0  0  0  0  0  0  0  0  0  0  0
   -3.9570   -2.7350    2.4090 C   0  0  0  0  0  0  0  0  0  0  0  0
   -4.8090   -2.2070    1.4890 C   0  0  0  0  0  0  0  0  0  0  0  0
   -4.4020   -1.3060    0.4880 C   0  0  0  0  0  0  0  0  0  0  0  0
  2  1  1  1
  2  3  1  0
  2 31  1  0
  3  4  1  0
  4  5  2  0
  4  6  1  0
  6  7  2  3
  6 26  1  0
  7  8  1  0
  7 24  1  0
  8  9  2  0
  9 10  1  0
  9 21  1  0
 10 11  1  0
 11 12  1  0
 12 13  2  0
 12 17  1  0
 13 14  1  0
 14 15  2  0
 15 16  1  0
 16 17  2  0
 17 18  1  0
 18 19  1  0
 19 20  2  0
 21 22  2  0
 21 23  1  0
 23 24  2  0
 24 25  1  0
 26 27  2  0
 26 31  1  0
 27 28  1  0
 28 29  2  0
 29 30  1  0
 30 31  2  0
M  END
