
     RDKit          3D

 29 28  0  0  0  0  0  0  0  0999 V2000
   -1.0010   -3.4330    1.2790 C   0  0  0  0  0  0  0  0  0  0  0  0
   -1.2340   -1.9690    1.5870 C   0  0  0  0  0  0  0  0  0  0  0  0
   -1.7020   -1.2040    0.3780 C   0  0  1  0  0  0  0  0  0  0  0  0
   -3.0190   -1.8590   -0.0730 C   0  0  0  0  0  0  0  0  0  0  0  0
   -2.8590   -3.1810   -0.4010 O   0  0  0  0  0  0  0  0  0  0  0  0
   -2.0190    0.2240    0.5970 C   0  0  2  0  0  0  0  0  0  0  0  0
   -3.1210    0.4570    1.6130 C   0  0  0  0  0  0  0  0  0  0  0  0
   -2.5470    0.6960   -0.6190 F   0  0  0  0  0  0  0  0  0  0  0  0
   -0.8880    1.1390    0.9280 C   0  0  2  0  0  0  0  0  0  0  0  0
   -0.2990    0.6890    2.1020 F   0  0  0  0  0  0  0  0  0  0  0  0
   -1.5100    2.4040    1.3000 N   0  0  0  0  0  0  0  0  0  0  0  0
   -1.4850    3.4550    0.6160 C   0  0  0  0  0  0  0  0  0  0  0  0
   -2.1950    4.6410    1.1960 C   0  0  0  0  0  0  0  0  0  0  0  0
   -0.8260    3.6380   -0.7010 C   0  0  0  0  0  0  0  0  0  0  0  0
    0.0080    1.4080   -0.0610 O   0  0  0  0  0  0  0  0  0  0  0  0
    0.6620    0.3790   -0.5790 N   0  0  0  0  0  0  0  0  0  0  0  0
    0.4520    0.4890   -2.3520 S   0  0  0  0  0  0  0  0  0  0  0  0
    1.9590    0.6110   -3.1670 O   0  0  0  0  0  0  0  0  0  0  0  0
    2.1920    1.3840   -4.2710 N   0  0  0  0  0  0  0  0  0  0  0  0
    3.1810    1.0740   -4.9890 O   0  0  0  0  0  0  0  0  0  0  0  0
    2.0610    0.3280   -0.3440 C   0  0  2  0  0  0  0  0  0  0  0  0
    2.4350    0.2630    1.1240 C   0  0  0  0  0  0  0  0  0  0  0  0
    2.7120    1.4480   -0.8570 O   0  0  0  0  0  0  0  0  0  0  0  0
    2.5880   -0.9310   -0.9570 C   0  0  0  0  0  0  0  0  0  0  0  0
    1.7540   -1.6990   -1.5320 N   0  0  0  0  0  0  0  0  0  0  0  0
    3.9520   -1.2750   -0.9130 N   0  0  0  0  0  0  0  0  0  0  0  0
    4.5440   -2.8880   -0.9670 S   0  0  1  0  0  0  0  0  0  0  0  0
    3.7370   -3.7950   -1.8340 O   0  0  0  0  0  0  0  0  0  0  0  0
    5.9700   -2.9230   -1.4670 O   0  0  0  0  0  0  0  0  0  0  0  0
  1  2  1  0
  3  2  1  1
  3  4  1  0
  3  6  1  0
  4  5  1  0
  6  7  1  1
  6  8  1  0
  6  9  1  0
  9 10  1  1
  9 11  1  0
  9 15  1  0
 11 12  2  3
 12 13  1  0
 12 14  1  0
 15 16  1  0
 16 17  1  0
 16 21  1  0
 17 18  1  0
 18 19  1  0
 19 20  2  0
 21 22  1  1
 21 23  1  0
 21 24  1  0
 24 25  2  0
 24 26  1  0
 27 26  1  6
 27 28  2  0
 27 29  2  0
M  END
