
     RDKit          3D

 28 28  0  0  0  0  0  0  0  0999 V2000
    7.1360   -0.4150   -1.6840 C   0  0  0  0  0  0  0  0  0  0  0  0
    6.0580    0.3540   -1.0140 C   0  0  0  0  0  0  0  0  0  0  0  0
    5.3510    1.0720   -1.6930 O   0  0  0  0  0  0  0  0  0  0  0  0
    5.8270    0.2660    0.4540 C   0  0  2  0  0  0  0  0  0  0  0  0
    5.8980    1.5020    1.0250 F   0  0  0  0  0  0  0  0  0  0  0  0
    6.7620   -0.6210    1.0410 O   0  0  0  0  0  0  0  0  0  0  0  0
    6.6330   -1.8200    0.5180 F   0  0  0  0  0  0  0  0  0  0  0  0
    4.2100   -0.4450    0.7360 S   0  0  0  0  0  0  0  0  0  0  0  0
    2.8470    0.6180    0.1670 C   0  0  2  0  0  0  0  0  0  0  0  0
    2.7590    1.8780    0.9870 C   0  0  0  0  0  0  0  0  0  0  0  0
    1.5780   -0.1750    0.3030 C   0  0  0  0  0  0  0  0  0  0  0  0
    0.3860    0.4740   -0.1090 N   0  0  0  0  0  0  0  0  0  0  0  0
    0.1900    1.5780    0.6310 O   0  0  0  0  0  0  0  0  0  0  0  0
   -0.3610    2.6000   -0.0630 N   0  0  0  0  0  0  0  0  0  0  0  0
   -0.7320   -0.2720   -0.1340 N   0  0  0  0  0  0  0  0  0  0  0  0
   -0.7010   -1.5780   -0.3960 N   0  0  0  0  0  0  0  0  0  0  0  0
   -0.3430   -2.4960    0.6230 C   0  0  0  0  0  0  0  0  0  0  0  0
   -0.4660   -2.0480   -1.7040 C   0  0  0  0  0  0  0  0  0  0  0  0
   -1.9600    0.3590    0.1370 C   0  0  1  0  0  0  0  0  0  0  0  0
   -2.0190    1.1520    1.7900 S   0  0  0  0  0  0  0  0  0  0  0  0
   -1.9420   -0.0800    2.9660 O   0  0  0  0  0  0  0  0  0  0  0  0
   -2.5510    1.1620   -1.0250 C   0  0  0  0  0  0  0  0  0  0  0  0
   -3.2420   -0.0650   -0.4800 C   0  0  1  0  0  0  0  0  0  0  0  0
   -3.2270   -1.2320   -1.2040 O   0  0  0  0  0  0  0  0  0  0  0  0
   -4.5280    0.2140    0.2420 C   0  0  2  0  0  0  0  0  0  0  0  0
   -4.9460   -0.9050    1.1440 C   0  0  0  0  0  0  0  0  0  0  0  0
   -5.6020    0.4130   -0.8180 C   0  0  0  0  0  0  0  0  0  0  0  0
   -4.4630    1.4730    0.9880 N   0  0  0  0  0  0  0  0  0  0  0  0
  1  2  1  0
  2  3  2  0
  2  4  1  0
  4  5  1  1
  4  6  1  0
  4  8  1  0
  6  7  1  0
  8  9  1  0
  9 10  1  1
  9 11  1  0
 11 12  1  0
 12 13  1  0
 12 15  1  0
 13 14  1  0
 15 16  1  0
 15 19  1  0
 16 17  1  0
 16 18  1  0
 19 20  1  1
 19 22  1  0
 19 23  1  0
 20 21  1  0
 22 23  1  0
 23 24  1  6
 23 25  1  0
 25 26  1  1
 25 27  1  0
 25 28  1  0
M  END
