
     RDKit          3D

 39 43  0  0  0  0  0  0  0  0999 V2000
   12.6030    2.4240   -0.4260 C   0  0  0  0  0  0  0  0  0  0  0  0
   11.9630    2.7240    0.9340 C   0  0  0  0  0  0  0  0  0  0  0  0
   11.6090    1.3760    1.5380 C   0  0  0  0  0  0  0  0  0  0  0  0
   10.6420    0.6320    0.6600 C   0  0  0  0  0  0  0  0  0  0  0  0
   11.0010   -0.1290   -0.4390 C   0  0  0  0  0  0  0  0  0  0  0  0
    9.8370   -0.6260   -0.9460 C   0  0  0  0  0  0  0  0  0  0  0  0
    8.7680   -0.1530   -0.1290 C   0  0  0  0  0  0  0  0  0  0  0  0
    7.3800   -0.5020   -0.3990 C   0  0  0  0  0  0  0  0  0  0  0  0
    7.0260   -1.1440   -1.5510 N   0  0  0  0  0  0  0  0  0  0  0  0
    5.7180   -1.3560   -1.5790 C   0  0  0  0  0  0  0  0  0  0  0  0
    5.2290   -0.8070   -0.3610 C   0  0  0  0  0  0  0  0  0  0  0  0
    3.8020   -0.8830   -0.0740 C   0  0  0  0  0  0  0  0  0  0  0  0
    2.9840   -0.4490    0.8180 N   0  0  0  0  0  0  0  0  0  0  0  0
    1.8000   -0.5470    0.9910 C   0  0  0  0  0  0  0  0  0  0  0  0
    0.3560   -0.6680    1.2030 C   0  0  0  0  0  0  0  0  0  0  0  0
   -0.0700    0.2840    2.0010 O   0  0  0  0  0  0  0  0  0  0  0  0
   -0.6330   -1.5430    0.7830 C   0  0  0  0  0  0  0  0  0  0  0  0
   -1.4780   -2.3160    0.4110 C   0  0  0  0  0  0  0  0  0  0  0  0
   -2.5000   -3.2390   -0.0520 C   0  0  0  0  0  0  0  0  0  0  0  0
   -3.5870   -2.7200   -0.7770 N   0  0  0  0  0  0  0  0  0  0  0  0
   -4.5570   -1.8520   -0.2280 C   0  0  0  0  0  0  0  0  0  0  0  0
   -4.4920   -1.4990    0.9720 O   0  0  0  0  0  0  0  0  0  0  0  0
   -5.6800   -1.3350   -1.0690 C   0  0  0  0  0  0  0  0  0  0  0  0
   -6.5060   -0.4960   -0.1950 N   0  0  0  0  0  0  0  0  0  0  0  0
   -7.4000    0.3450   -1.0150 C   0  0  0  0  0  0  0  0  0  0  0  0
   -8.3950    0.9190   -0.0140 C   0  0  1  0  0  0  0  0  0  0  0  0
   -9.0280    2.1410   -0.4880 C   0  0  0  0  0  0  0  0  0  0  0  0
   -8.9480    3.4210   -0.0400 C   0  0  0  0  0  0  0  0  0  0  0  0
   -9.6070    4.3970   -0.6530 C   0  0  0  0  0  0  0  0  0  0  0  0
  -10.3830    4.0840   -1.7670 C   0  0  0  0  0  0  0  0  0  0  0  0
  -10.1010    2.2800   -1.8720 S   0  0  0  0  0  0  0  0  0  0  0  0
   -9.3310   -0.1000    0.2480 O   0  0  0  0  0  0  0  0  0  0  0  0
   -8.7320   -1.3560    0.1670 C   0  0  0  0  0  0  0  0  0  0  0  0
   -7.3140   -1.3610    0.6530 C   0  0  2  0  0  0  0  0  0  0  0  0
   -7.2730   -1.0010    2.1140 C   0  0  0  0  0  0  0  0  0  0  0  0
    1.7920   -1.4550   -0.3970 C   0  0  0  0  0  0  0  0  0  0  0  0
    2.9340   -1.5480   -0.8530 O   0  0  0  0  0  0  0  0  0  0  0  0
    6.2660   -0.3370    0.2550 O   0  0  0  0  0  0  0  0  0  0  0  0
    9.3530    0.5570    0.7590 O   0  0  0  0  0  0  0  0  0  0  0  0
  1  2  1  0
  2  3  1  0
  3  4  1  0
  4  5  2  0
  4 39  1  0
  5  6  1  0
  6  7  2  0
  7  8  1  0
  7 39  1  0
  8  9  2  0
  8 38  1  0
  9 10  1  0
 10 11  2  0
 11 12  1  0
 11 38  1  0
 12 13  2  0
 12 37  1  0
 13 14  1  0
 14 15  1  0
 14 36  2  0
 15 16  2  0
 15 17  1  0
 17 18  3  0
 18 19  1  0
 19 20  1  0
 20 21  1  0
 21 22  2  0
 21 23  1  0
 23 24  1  0
 24 25  1  0
 24 34  1  0
 25 26  1  0
 26 27  1  6
 26 32  1  0
 27 28  2  0
 27 31  1  0
 28 29  1  0
 29 30  2  0
 30 31  1  0
 32 33  1  0
 33 34  1  0
 34 35  1  1
 36 37  1  0
M  END
