
     RDKit          3D

 39 43  0  0  0  0  0  0  0  0999 V2000
   -1.8620   -0.4180    3.1590 C   0  0  0  0  0  0  0  0  0  0  0  0
   -1.5910   -0.4950    1.6820 C   0  0  1  0  0  0  0  0  0  0  0  0
   -2.6230    0.2260    0.8490 C   0  0  0  0  0  0  0  0  0  0  0  0
   -3.9310   -0.4080    1.1330 C   0  0  0  0  0  0  0  0  0  0  0  0
   -4.3920   -0.4770    2.3190 O   0  0  0  0  0  0  0  0  0  0  0  0
   -4.7520   -0.9760    0.1120 N   0  0  0  0  0  0  0  0  0  0  0  0
   -4.1590   -0.8830   -1.2050 C   0  0  0  0  0  0  0  0  0  0  0  0
   -5.0480   -1.6170   -2.1780 C   0  0  0  0  0  0  0  0  0  0  0  0
   -6.1480   -0.7890   -2.4210 O   0  0  0  0  0  0  0  0  0  0  0  0
   -7.2120   -1.2970   -1.7180 C   0  0  0  0  0  0  0  0  0  0  0  0
   -7.1950   -1.0220   -0.2520 C   0  0  2  0  0  0  0  0  0  0  0  0
   -7.4670    0.4410    0.0420 C   0  0  0  0  0  0  0  0  0  0  0  0
   -6.0090   -1.5470    0.4770 C   0  0  0  0  0  0  0  0  0  0  0  0
   -0.2600    0.0030    1.4580 N   0  0  0  0  0  0  0  0  0  0  0  0
    0.7950   -0.7920    0.8990 C   0  0  0  0  0  0  0  0  0  0  0  0
    0.6840   -1.9840    0.5390 O   0  0  0  0  0  0  0  0  0  0  0  0
    1.9780    0.0460    0.8410 C   0  0  0  0  0  0  0  0  0  0  0  0
    3.1730   -0.2620    0.3970 C   0  0  0  0  0  0  0  0  0  0  0  0
    3.5610   -1.5490   -0.1460 C   0  0  0  0  0  0  0  0  0  0  0  0
    4.7570   -1.8230   -0.5780 C   0  0  0  0  0  0  0  0  0  0  0  0
    5.8600   -0.9280   -0.5910 N   0  0  0  0  0  0  0  0  0  0  0  0
    7.1050   -1.3860   -1.1030 C   0  0  0  0  0  0  0  0  0  0  0  0
    8.1810   -0.5180   -1.1170 C   0  0  0  0  0  0  0  0  0  0  0  0
    9.4000   -0.9300   -1.6060 C   0  0  0  0  0  0  0  0  0  0  0  0
    9.6060   -2.2130   -2.1000 C   0  0  0  0  0  0  0  0  0  0  0  0
    8.5320   -3.0720   -2.0830 C   0  0  0  0  0  0  0  0  0  0  0  0
    7.3150   -2.6550   -1.5940 C   0  0  0  0  0  0  0  0  0  0  0  0
    6.2620   -3.5530   -1.5960 O   0  0  0  0  0  0  0  0  0  0  0  0
    5.0460   -3.1640   -1.1160 C   0  0  0  0  0  0  0  0  0  0  0  0
    4.1150   -3.9990   -1.1320 O   0  0  0  0  0  0  0  0  0  0  0  0
    1.5390    1.3090    1.3800 N   0  0  0  0  0  0  0  0  0  0  0  0
    0.3080    1.2670    1.7130 C   0  0  0  0  0  0  0  0  0  0  0  0
   -0.6600    2.5990    2.4240 S   0  0  0  0  0  0  0  0  0  0  0  0
    0.3450    4.0760    2.6620 C   0  0  0  0  0  0  0  0  0  0  0  0
    0.8120    4.7030    1.4210 C   0  0  0  0  0  0  0  0  0  0  0  0
    1.9860    4.4610    0.7800 C   0  0  0  0  0  0  0  0  0  0  0  0
    2.0000    5.2810   -0.3510 C   0  0  0  0  0  0  0  0  0  0  0  0
    0.8040    5.9630   -0.2930 C   0  0  0  0  0  0  0  0  0  0  0  0
    0.1190    5.6040    0.7630 O   0  0  0  0  0  0  0  0  0  0  0  0
  2  1  1  1
  2  3  1  0
  2 14  1  0
  3  4  1  0
  4  5  2  0
  4  6  1  0
  6  7  1  0
  6 13  1  0
  7  8  1  0
  8  9  1  0
  9 10  1  0
 10 11  1  0
 11 12  1  6
 11 13  1  0
 14 15  1  0
 14 32  1  0
 15 16  2  0
 15 17  1  0
 17 18  2  3
 17 31  1  0
 18 19  1  0
 19 20  2  3
 20 21  1  0
 20 29  1  0
 21 22  1  0
 22 23  2  0
 22 27  1  0
 23 24  1  0
 24 25  2  0
 25 26  1  0
 26 27  2  0
 27 28  1  0
 28 29  1  0
 29 30  2  0
 31 32  2  0
 32 33  1  0
 33 34  1  0
 34 35  1  0
 35 36  2  0
 35 39  1  0
 36 37  1  0
 37 38  2  0
 38 39  1  0
M  END
