
     RDKit          3D

 39 43  0  0  0  0  0  0  0  0999 V2000
   -8.4290   -1.1440   -0.2200 C   0  0  0  0  0  0  0  0  0  0  0  0
   -7.7730   -0.2410   -0.9180 C   0  0  0  0  0  0  0  0  0  0  0  0
   -6.4450   -0.5940   -1.4770 C   0  0  0  0  0  0  0  0  0  0  0  0
   -5.4650    0.5430   -1.4700 C   0  0  2  0  0  0  0  0  0  0  0  0
   -4.6540    0.4270   -0.1690 C   0  0  1  0  0  0  0  0  0  0  0  0
   -3.9400   -0.8840   -0.1690 C   0  0  0  0  0  0  0  0  0  0  0  0
   -2.6340   -0.5110    0.4260 N   0  0  0  0  0  0  0  0  0  0  0  0
   -1.9230   -1.2890    1.3750 C   0  0  0  0  0  0  0  0  0  0  0  0
   -0.8900   -1.0400    2.1400 C   0  0  0  0  0  0  0  0  0  0  0  0
   -0.1540    0.2450    2.2090 C   0  0  0  0  0  0  0  0  0  0  0  0
    1.2240    0.0270    1.6220 C   0  0  0  0  0  0  0  0  0  0  0  0
    1.4510   -1.1270    1.2240 O   0  0  0  0  0  0  0  0  0  0  0  0
    2.1360    1.0740    1.5540 N   0  0  0  0  0  0  0  0  0  0  0  0
    3.4600    0.9790    1.0220 C   0  0  0  0  0  0  0  0  0  0  0  0
    3.9560   -0.1040    0.5540 C   0  0  0  0  0  0  0  0  0  0  0  0
    5.3020   -0.2680   -0.0130 C   0  0  0  0  0  0  0  0  0  0  0  0
    5.8390    0.4630   -0.9540 N   0  0  0  0  0  0  0  0  0  0  0  0
    7.0640    0.3120   -1.4540 C   0  0  0  0  0  0  0  0  0  0  0  0
    7.9040   -0.7300   -0.9470 C   0  0  0  0  0  0  0  0  0  0  0  0
    9.1350   -0.9900   -1.3480 C   0  0  0  0  0  0  0  0  0  0  0  0
    9.9090   -0.2190   -2.4550 C   0  0  0  0  0  0  0  0  0  0  0  0
    9.8380   -2.0720   -0.7310 C   0  0  0  0  0  0  0  0  0  0  0  0
    8.5600   -2.6540    0.4600 S   0  0  0  0  0  0  0  0  0  0  0  0
    7.2740   -1.4490    0.0320 C   0  0  0  0  0  0  0  0  0  0  0  0
    6.0590   -1.2800    0.5110 N   0  0  0  0  0  0  0  0  0  0  0  0
    4.2800    2.2070    1.0670 C   0  0  0  0  0  0  0  0  0  0  0  0
    5.4310    2.2260    0.6540 O   0  0  0  0  0  0  0  0  0  0  0  0
    3.7400    3.3950    1.5960 O   0  0  0  0  0  0  0  0  0  0  0  0
    4.5490    4.5530    1.6260 C   0  0  0  0  0  0  0  0  0  0  0  0
   -0.4920   -2.2510    2.9740 C   0  0  0  0  0  0  0  0  0  0  0  0
   -1.7090   -3.1010    2.9260 C   0  0  0  0  0  0  0  0  0  0  0  0
   -2.3560   -2.7290    1.6330 C   0  0  0  0  0  0  0  0  0  0  0  0
   -2.4020    0.7660   -0.1550 C   0  0  0  0  0  0  0  0  0  0  0  0
   -1.3030    1.1470   -0.6000 O   0  0  0  0  0  0  0  0  0  0  0  0
   -3.6530    1.4040   -0.0910 O   0  0  0  0  0  0  0  0  0  0  0  0
   -6.0560    1.9070   -1.4790 C   0  0  0  0  0  0  0  0  0  0  0  0
   -7.4250    1.9830   -1.7630 O   0  0  0  0  0  0  0  0  0  0  0  0
   -8.3170    1.0890   -1.1550 C   0  0  0  0  0  0  0  0  0  0  0  0
   -9.5450    1.4160   -0.8230 C   0  0  0  0  0  0  0  0  0  0  0  0
  1  2  2  0
  2  3  1  0
  2 38  1  0
  4  3  1  1
  4  5  1  0
  4 36  1  0
  5  6  1  6
  5 35  1  0
  6  7  1  0
  7  8  1  0
  7 33  1  0
  8  9  2  0
  8 32  1  0
  9 10  1  0
  9 30  1  0
 10 11  1  0
 11 12  2  0
 11 13  1  0
 13 14  1  0
 14 15  2  3
 14 26  1  0
 15 16  1  0
 16 17  2  0
 16 25  1  0
 17 18  1  0
 18 19  2  0
 19 20  1  0
 19 24  1  0
 20 21  1  0
 20 22  2  0
 22 23  1  0
 23 24  1  0
 24 25  2  0
 26 27  2  0
 26 28  1  0
 28 29  1  0
 30 31  1  0
 31 32  1  0
 33 34  2  0
 33 35  1  0
 36 37  1  0
 37 38  1  0
 38 39  2  0
M  END
