
     RDKit          3D

 39 43  0  0  0  0  0  0  0  0999 V2000
    9.5830    1.8740    0.6760 C   0  0  0  0  0  0  0  0  0  0  0  0
    8.3630    1.1530    0.1960 C   0  0  0  0  0  0  0  0  0  0  0  0
    8.0660    1.0270   -1.1370 C   0  0  0  0  0  0  0  0  0  0  0  0
    6.9170    0.3450   -1.5500 C   0  0  0  0  0  0  0  0  0  0  0  0
    6.0540   -0.2170   -0.6370 C   0  0  0  0  0  0  0  0  0  0  0  0
    4.8550   -0.9220   -1.1460 C   0  0  0  0  0  0  0  0  0  0  0  0
    3.6640   -0.2170   -1.0310 O   0  0  0  0  0  0  0  0  0  0  0  0
    3.4290    1.0070   -1.6220 C   0  0  0  0  0  0  0  0  0  0  0  0
    4.3220    1.5340   -2.3050 O   0  0  0  0  0  0  0  0  0  0  0  0
    2.1110    1.6840   -1.4370 C   0  0  2  0  0  0  0  0  0  0  0  0
    2.3200    3.0710   -0.8380 C   0  0  0  0  0  0  0  0  0  0  0  0
    1.2220    0.8940   -0.6200 N   0  0  0  0  0  0  0  0  0  0  0  0
    1.5880    0.5190    0.7310 C   0  0  0  0  0  0  0  0  0  0  0  0
   -0.0340    0.4660   -1.1270 C   0  0  0  0  0  0  0  0  0  0  0  0
   -0.3670    0.7850   -2.2920 O   0  0  0  0  0  0  0  0  0  0  0  0
   -0.8880   -0.2890   -0.3640 O   0  0  0  0  0  0  0  0  0  0  0  0
   -2.1470   -0.7760   -0.7470 C   0  0  0  0  0  0  0  0  0  0  0  0
   -2.0000   -1.6920   -1.9160 C   0  0  1  0  0  0  0  0  0  0  0  0
   -1.1660   -2.7420   -1.5120 O   0  0  0  0  0  0  0  0  0  0  0  0
   -3.3320   -2.2300   -2.4220 C   0  0  0  0  0  0  0  0  0  0  0  0
   -3.9820   -2.9730   -1.3520 N   0  0  0  0  0  0  0  0  0  0  0  0
   -3.8660   -4.2570   -1.0650 N   0  0  0  0  0  0  0  0  0  0  0  0
   -4.6150   -4.5970   -0.0050 C   0  0  0  0  0  0  0  0  0  0  0  0
   -5.2580   -3.4470    0.4190 C   0  0  0  0  0  0  0  0  0  0  0  0
   -6.1500   -3.1780    1.4530 C   0  0  0  0  0  0  0  0  0  0  0  0
   -6.5880   -1.8750    1.5660 C   0  0  0  0  0  0  0  0  0  0  0  0
   -7.4090   -1.3350    2.4190 O   0  0  0  0  0  0  0  0  0  0  0  0
   -7.5640   -0.0610    2.1850 C   0  0  0  0  0  0  0  0  0  0  0  0
   -6.7930    0.2860    1.0950 C   0  0  0  0  0  0  0  0  0  0  0  0
   -6.1640   -0.8960    0.7010 C   0  0  0  0  0  0  0  0  0  0  0  0
   -5.3000   -1.1790   -0.2940 N   0  0  0  0  0  0  0  0  0  0  0  0
   -4.8470   -2.4500   -0.4360 C   0  0  0  0  0  0  0  0  0  0  0  0
   -6.7260    1.6500    0.5560 C   0  0  0  0  0  0  0  0  0  0  0  0
   -8.0320    2.3340    0.3610 C   0  0  0  0  0  0  0  0  0  0  0  0
   -9.2570    1.8800    1.5820 S   0  0  0  0  0  0  0  0  0  0  0  0
   -8.4000    0.9640    2.8920 C   0  0  0  0  0  0  0  0  0  0  0  0
    6.3640   -0.0840    0.6990 C   0  0  0  0  0  0  0  0  0  0  0  0
    7.5070    0.5940    1.1150 C   0  0  0  0  0  0  0  0  0  0  0  0
    7.8100    0.7190    2.5610 C   0  0  0  0  0  0  0  0  0  0  0  0
  1  2  1  0
  2  3  2  0
  2 38  1  0
  3  4  1  0
  4  5  2  0
  5  6  1  0
  5 37  1  0
  6  7  1  0
  7  8  1  0
  8  9  2  0
  8 10  1  0
 10 11  1  1
 10 12  1  0
 12 13  1  0
 12 14  1  0
 14 15  2  0
 14 16  1  0
 16 17  1  0
 17 18  1  0
 18 19  1  1
 18 20  1  0
 20 21  1  0
 21 22  1  0
 21 32  1  0
 22 23  2  0
 23 24  1  0
 24 25  2  0
 24 32  1  0
 25 26  1  0
 26 27  1  0
 26 30  2  0
 27 28  1  0
 28 29  2  0
 28 36  1  0
 29 30  1  0
 29 33  1  0
 30 31  1  0
 31 32  2  0
 33 34  1  0
 34 35  1  0
 35 36  1  0
 37 38  2  0
 38 39  1  0
M  END
