
     RDKit          3D

 39 43  0  0  0  0  0  0  0  0999 V2000
  -10.1970   -1.0230   -0.1700 C   0  0  0  0  0  0  0  0  0  0  0  0
   -8.9540   -0.6430   -0.0180 C   0  0  0  0  0  0  0  0  0  0  0  0
   -8.1890    0.3190   -0.8000 C   0  0  0  0  0  0  0  0  0  0  0  0
   -8.5030    1.0040   -1.8660 C   0  0  0  0  0  0  0  0  0  0  0  0
   -9.8040    0.9330   -2.5460 C   0  0  0  0  0  0  0  0  0  0  0  0
   -6.8730    0.4210   -0.1150 C   0  0  0  0  0  0  0  0  0  0  0  0
   -5.7840    1.2330   -0.4160 C   0  0  0  0  0  0  0  0  0  0  0  0
   -4.6770    1.1960    0.4000 C   0  0  0  0  0  0  0  0  0  0  0  0
   -4.6450    0.3810    1.4840 C   0  0  0  0  0  0  0  0  0  0  0  0
   -3.4640    0.3300    2.3800 C   0  0  0  0  0  0  0  0  0  0  0  0
   -2.2910    1.0610    1.8280 C   0  0  0  0  0  0  0  0  0  0  0  0
   -1.7280    0.4510    0.5930 C   0  0  0  0  0  0  0  0  0  0  0  0
   -1.4520   -0.8020    0.5790 O   0  0  0  0  0  0  0  0  0  0  0  0
   -1.4780    1.1570   -0.5370 O   0  0  0  0  0  0  0  0  0  0  0  0
   -0.9120    0.6930   -1.7350 C   0  0  0  0  0  0  0  0  0  0  0  0
    0.5130    0.3080   -1.4220 C   0  0  0  0  0  0  0  0  0  0  0  0
    1.4480    0.3910   -2.3950 N   0  0  0  0  0  0  0  0  0  0  0  0
    2.7370    0.1120   -2.1150 C   0  0  0  0  0  0  0  0  0  0  0  0
    3.1500   -0.2610   -0.8510 C   0  0  0  0  0  0  0  0  0  0  0  0
    4.4620   -0.5200   -0.6240 O   0  0  0  0  0  0  0  0  0  0  0  0
    5.1910   -1.6540   -0.7340 C   0  0  0  0  0  0  0  0  0  0  0  0
    4.6170   -2.6940   -1.1160 O   0  0  0  0  0  0  0  0  0  0  0  0
    6.6410   -1.6960   -0.4170 C   0  0  0  0  0  0  0  0  0  0  0  0
    7.3780   -2.8500   -0.4770 C   0  0  0  0  0  0  0  0  0  0  0  0
    8.7000   -2.7710   -0.1540 C   0  0  0  0  0  0  0  0  0  0  0  0
    9.2180   -1.5540    0.2090 C   0  0  0  0  0  0  0  0  0  0  0  0
    8.5240   -0.4260    0.2740 N   0  0  0  0  0  0  0  0  0  0  0  0
    7.1930   -0.5130   -0.0520 C   0  0  0  0  0  0  0  0  0  0  0  0
    6.4880    0.5360   -0.0060 O   0  0  0  0  0  0  0  0  0  0  0  0
    9.2130    0.7570    0.6840 C   0  0  0  0  0  0  0  0  0  0  0  0
   10.6680    0.6850    0.2780 C   0  0  1  0  0  0  0  0  0  0  0  0
   11.4680    1.5180    1.2220 C   0  0  0  0  0  0  0  0  0  0  0  0
   10.9110   -1.1100    0.6650 S   0  0  0  0  0  0  0  0  0  0  0  0
    2.1780   -0.3450    0.1390 C   0  0  0  0  0  0  0  0  0  0  0  0
    0.9210   -0.0510   -0.2210 N   0  0  0  0  0  0  0  0  0  0  0  0
   -5.7290   -0.4010    1.7480 N   0  0  0  0  0  0  0  0  0  0  0  0
   -6.8280   -0.3960    0.9770 C   0  0  0  0  0  0  0  0  0  0  0  0
   -8.0770   -1.1770    1.0720 C   0  0  1  0  0  0  0  0  0  0  0  0
   -8.7210   -1.0390    2.2760 O   0  0  0  0  0  0  0  0  0  0  0  0
  1  2  2  0
  2  3  1  0
  2 38  1  0
  3  4  2  3
  3  6  1  0
  4  5  1  0
  6  7  2  0
  6 37  1  0
  7  8  1  0
  8  9  2  0
  9 10  1  0
  9 36  1  0
 10 11  1  0
 11 12  1  0
 12 13  2  0
 12 14  1  0
 14 15  1  0
 15 16  1  0
 16 17  2  0
 16 35  1  0
 17 18  1  0
 18 19  2  0
 19 20  1  0
 19 34  1  0
 20 21  1  0
 21 22  2  0
 21 23  1  0
 23 24  2  0
 23 28  1  0
 24 25  1  0
 25 26  2  0
 26 27  1  0
 26 33  1  0
 27 28  1  0
 27 30  1  0
 28 29  2  0
 30 31  1  0
 31 32  1  1
 31 33  1  0
 34 35  2  0
 36 37  2  0
 37 38  1  0
 38 39  1  1
M  END
