
     RDKit          3D

 39 43  0  0  0  0  0  0  0  0999 V2000
   -0.9670   -4.3790    4.1030 C   0  0  0  0  0  0  0  0  0  0  0  0
    0.3310   -3.8040    4.0530 O   0  0  0  0  0  0  0  0  0  0  0  0
    0.5680   -2.8510    2.9470 C   0  0  0  0  0  0  0  0  0  0  0  0
    0.0260   -1.5770    3.2480 C   0  0  0  0  0  0  0  0  0  0  0  0
   -0.4690   -1.5650    4.5130 O   0  0  0  0  0  0  0  0  0  0  0  0
   -0.1490   -0.3560    2.6320 N   0  0  0  0  0  0  0  0  0  0  0  0
   -0.7010    0.7260    3.5360 C   0  0  0  0  0  0  0  0  0  0  0  0
   -1.6550    1.5210    2.7180 C   0  0  0  0  0  0  0  0  0  0  0  0
   -2.3710    0.7290    1.6440 C   0  0  0  0  0  0  0  0  0  0  0  0
   -1.3920    0.1880    0.6250 C   0  0  1  0  0  0  0  0  0  0  0  0
   -1.7680   -1.0690    0.2630 O   0  0  0  0  0  0  0  0  0  0  0  0
   -1.3520    1.1180   -0.5480 C   0  0  0  0  0  0  0  0  0  0  0  0
   -2.6110    1.2380   -1.1760 N   0  0  0  0  0  0  0  0  0  0  0  0
   -3.1240    0.1250   -1.8890 C   0  0  0  0  0  0  0  0  0  0  0  0
   -4.5850   -0.0450   -1.4420 C   0  0  0  0  0  0  0  0  0  0  0  0
   -5.3720    1.0180   -2.2120 C   0  0  0  0  0  0  0  0  0  0  0  0
   -5.2500    2.2790   -1.4790 N   0  0  0  0  0  0  0  0  0  0  0  0
   -6.4280    2.7570   -0.8670 C   0  0  0  0  0  0  0  0  0  0  0  0
   -7.4950    2.1150   -0.9700 O   0  0  0  0  0  0  0  0  0  0  0  0
   -4.0950    3.1100   -1.2890 C   0  0  0  0  0  0  0  0  0  0  0  0
   -2.8390    2.4950   -1.8600 C   0  0  0  0  0  0  0  0  0  0  0  0
    0.0080    0.1270    1.3010 C   0  0  0  0  0  0  0  0  0  0  0  0
    1.2040   -3.4290    2.0030 C   0  0  0  0  0  0  0  0  0  0  0  0
    1.5540   -4.9190    2.2040 C   0  0  0  0  0  0  0  0  0  0  0  0
    1.7940   -2.8700    0.7580 C   0  0  0  0  0  0  0  0  0  0  0  0
    1.4380   -3.4560   -0.5110 C   0  0  0  0  0  0  0  0  0  0  0  0
    2.5130   -2.4560   -1.5900 S   0  0  0  0  0  0  0  0  0  0  0  0
    3.2340   -1.4610   -0.2360 C   0  0  0  0  0  0  0  0  0  0  0  0
    4.2370   -0.4130   -0.5230 C   0  0  0  0  0  0  0  0  0  0  0  0
    4.8080    0.3600    0.4580 C   0  0  0  0  0  0  0  0  0  0  0  0
    5.7020    1.2340   -0.1730 C   0  0  0  0  0  0  0  0  0  0  0  0
    5.6040    0.9200   -1.5120 C   0  0  0  0  0  0  0  0  0  0  0  0
    6.3680    1.5890   -2.5570 C   0  0  0  0  0  0  0  0  0  0  0  0
    7.2840    2.6030   -2.4160 C   0  0  0  0  0  0  0  0  0  0  0  0
    7.7510    2.9170   -3.6700 C   0  0  0  0  0  0  0  0  0  0  0  0
    7.0960    2.0750   -4.5320 C   0  0  0  0  0  0  0  0  0  0  0  0
    6.2850    1.3010   -3.8490 O   0  0  0  0  0  0  0  0  0  0  0  0
    4.7290   -0.0580   -1.6760 O   0  0  0  0  0  0  0  0  0  0  0  0
    2.6660   -1.9300    0.7060 N   0  0  0  0  0  0  0  0  0  0  0  0
  1  2  1  0
  2  3  1  0
  3  4  1  0
  3 23  2  3
  4  5  2  0
  4  6  1  0
  6  7  1  0
  6 22  1  0
  7  8  1  0
  8  9  1  0
  9 10  1  0
 10 11  1  6
 10 12  1  0
 10 22  1  0
 12 13  1  0
 13 14  1  0
 13 21  1  0
 14 15  1  0
 15 16  1  0
 16 17  1  0
 17 18  1  0
 17 20  1  0
 18 19  2  0
 20 21  1  0
 23 24  1  0
 23 25  1  0
 25 26  2  0
 25 39  1  0
 26 27  1  0
 27 28  1  0
 28 29  1  0
 28 39  2  0
 29 30  2  0
 29 38  1  0
 30 31  1  0
 31 32  2  0
 32 33  1  0
 32 38  1  0
 33 34  2  0
 33 37  1  0
 34 35  1  0
 35 36  2  0
 36 37  1  0
M  END
