
     RDKit          3D

 45 50  0  0  0  0  0  0  0  0999 V2000
    4.3530   -2.1060   -0.5510 O   0  0  0  0  0  0  0  0  0  0  0  0
    3.1510   -2.4080   -1.1720 C   0  0  0  0  0  0  0  0  0  0  0  0
    2.0960   -1.3270   -0.9670 C   0  0  1  0  0  0  0  0  0  0  0  0
    1.8990   -1.2210    0.3940 O   0  0  0  0  0  0  0  0  0  0  0  0
    1.2270   -0.0250    0.6340 C   0  0  1  0  0  0  0  0  0  0  0  0
    0.2030   -0.0660    2.0970 S   0  0  0  0  0  0  0  0  0  0  0  0
   -1.1760   -1.2300    1.8450 C   0  0  2  0  0  0  0  0  0  0  0  0
   -1.0460   -1.8290    0.6350 O   0  0  0  0  0  0  0  0  0  0  0  0
   -2.1310   -2.4950    0.1510 C   0  0  2  0  0  0  0  0  0  0  0  0
   -1.7710   -2.9920   -1.2560 C   0  0  0  0  0  0  0  0  0  0  0  0
   -2.8290   -3.6760   -1.8000 O   0  0  0  0  0  0  0  0  0  0  0  0
   -3.2550   -1.4980   -0.0460 C   0  0  2  0  0  0  0  0  0  0  0  0
   -2.7590   -0.4000   -0.7310 O   0  0  0  0  0  0  0  0  0  0  0  0
   -3.6320   -1.0370    1.3670 C   0  0  2  0  0  0  0  0  0  0  0  0
   -4.7150   -0.1050    1.3070 N   0  0  0  0  0  0  0  0  0  0  0  0
   -5.6760    0.0000    0.3790 C   0  0  0  0  0  0  0  0  0  0  0  0
   -6.5200    1.0510    0.7260 C   0  0  0  0  0  0  0  0  0  0  0  0
   -7.7050    1.5010   -0.0300 C   0  0  0  0  0  0  0  0  0  0  0  0
   -8.4730    2.5490    0.3850 C   0  0  0  0  0  0  0  0  0  0  0  0
   -9.5660    2.9120   -0.3750 C   0  0  0  0  0  0  0  0  0  0  0  0
   -9.8950    2.2360   -1.5430 C   0  0  0  0  0  0  0  0  0  0  0  0
   -9.1240    1.1810   -1.9640 C   0  0  0  0  0  0  0  0  0  0  0  0
   -9.4650    0.5420   -3.1020 F   0  0  0  0  0  0  0  0  0  0  0  0
   -8.0400    0.8380   -1.1910 C   0  0  0  0  0  0  0  0  0  0  0  0
   -6.0210    1.5430    1.8690 N   0  0  0  0  0  0  0  0  0  0  0  0
   -4.9570    0.8430    2.1890 N   0  0  0  0  0  0  0  0  0  0  0  0
   -2.4460   -0.4780    2.0810 C   0  0  1  0  0  0  0  0  0  0  0  0
   -2.7190   -0.5900    3.4670 O   0  0  0  0  0  0  0  0  0  0  0  0
    2.2290    1.0720    0.5740 C   0  0  2  0  0  0  0  0  0  0  0  0
    1.6230    2.2810    0.9500 O   0  0  0  0  0  0  0  0  0  0  0  0
    2.7560    1.1120   -0.8430 C   0  0  1  0  0  0  0  0  0  0  0  0
    4.1890    1.3110   -0.9090 N   0  0  0  0  0  0  0  0  0  0  0  0
    5.1400    0.9920   -0.0440 C   0  0  0  0  0  0  0  0  0  0  0  0
    6.3440    1.3900   -0.5700 C   0  0  0  0  0  0  0  0  0  0  0  0
    7.6840    1.2640   -0.0070 C   0  0  0  0  0  0  0  0  0  0  0  0
    7.8550    0.6670    1.2290 C   0  0  0  0  0  0  0  0  0  0  0  0
    9.1250    0.5460    1.7620 C   0  0  0  0  0  0  0  0  0  0  0  0
   10.2050    1.0170    1.0650 C   0  0  0  0  0  0  0  0  0  0  0  0
   10.0840    1.6180   -0.1680 C   0  0  0  0  0  0  0  0  0  0  0  0
   11.1400    2.0870   -0.8690 F   0  0  0  0  0  0  0  0  0  0  0  0
    8.8040    1.7260   -0.6790 C   0  0  0  0  0  0  0  0  0  0  0  0
    6.0670    1.9460   -1.7580 N   0  0  0  0  0  0  0  0  0  0  0  0
    4.7770    1.8880   -1.9400 N   0  0  0  0  0  0  0  0  0  0  0  0
    2.3800   -0.0570   -1.6820 C   0  0  1  0  0  0  0  0  0  0  0  0
    3.3500   -0.1940   -2.6790 O   0  0  0  0  0  0  0  0  0  0  0  0
  1  2  1  0
  3  2  1  1
  3  4  1  0
  3 44  1  0
  4  5  1  0
  5  6  1  1
  5 29  1  0
  7  6  1  6
  7  8  1  0
  7 27  1  0
  8  9  1  0
  9 10  1  6
  9 12  1  0
 10 11  1  0
 12 13  1  6
 12 14  1  0
 14 15  1  6
 14 27  1  0
 15 16  1  0
 15 26  1  0
 16 17  2  0
 17 18  1  0
 17 25  1  0
 18 19  2  0
 18 24  1  0
 19 20  1  0
 20 21  2  0
 21 22  1  0
 22 23  1  0
 22 24  2  0
 25 26  2  0
 27 28  1  1
 29 30  1  6
 29 31  1  0
 31 32  1  1
 31 44  1  0
 32 33  1  0
 32 43  1  0
 33 34  2  0
 34 35  1  0
 34 42  1  0
 35 36  2  0
 35 41  1  0
 36 37  1  0
 37 38  2  0
 38 39  1  0
 39 40  1  0
 39 41  2  0
 42 43  2  0
 44 45  1  6
M  END
