
     RDKit          3D

 39 43  0  0  0  0  0  0  0  0999 V2000
    0.9590   -1.3480   -3.8430 C   0  0  0  0  0  0  0  0  0  0  0  0
    1.5370   -0.6870   -2.7430 O   0  0  0  0  0  0  0  0  0  0  0  0
    0.7770   -0.1590   -1.7220 C   0  0  0  0  0  0  0  0  0  0  0  0
   -0.4750   -0.3470   -1.8910 O   0  0  0  0  0  0  0  0  0  0  0  0
    1.2190    0.5350   -0.5480 C   0  0  0  0  0  0  0  0  0  0  0  0
    0.3210    0.9130    0.4150 C   0  0  0  0  0  0  0  0  0  0  0  0
   -1.3660    0.5020    0.4740 S   0  0  1  0  0  0  0  0  0  0  0  0
   -2.0050    1.4170    1.5730 O   0  0  0  0  0  0  0  0  0  0  0  0
   -2.1200    0.9130   -0.7450 O   0  0  0  0  0  0  0  0  0  0  0  0
   -1.7370   -1.0450    0.9400 N   0  0  0  0  0  0  0  0  0  0  0  0
   -1.3360   -2.1870    0.2680 C   0  0  0  0  0  0  0  0  0  0  0  0
   -2.7350   -1.2100    1.9490 C   0  0  0  0  0  0  0  0  0  0  0  0
   -4.0250   -1.7650    1.5110 C   0  0  0  0  0  0  0  0  0  0  0  0
   -4.8510   -1.0920    0.5180 C   0  0  0  0  0  0  0  0  0  0  0  0
   -5.3510    0.3010    0.8300 C   0  0  2  0  0  0  0  0  0  0  0  0
   -6.1660    0.3100    2.1150 C   0  0  0  0  0  0  0  0  0  0  0  0
   -7.6280    0.4850    1.6500 C   0  0  0  0  0  0  0  0  0  0  0  0
   -7.3960    1.3960    0.5170 C   0  0  0  0  0  0  0  0  0  0  0  0
   -7.6240    2.4790   -0.1440 C   0  0  0  0  0  0  0  0  0  0  0  0
   -6.7780    2.5530   -1.3370 C   0  0  0  0  0  0  0  0  0  0  0  0
   -6.0170    1.4330   -1.3770 C   0  0  0  0  0  0  0  0  0  0  0  0
   -6.3400    0.6140   -0.2620 C   0  0  1  0  0  0  0  0  0  0  0  0
    0.8630    1.5680    1.5360 C   0  0  0  0  0  0  0  0  0  0  0  0
    2.1980    1.8070    1.6600 C   0  0  0  0  0  0  0  0  0  0  0  0
    2.6370    2.4000    2.6900 O   0  0  0  0  0  0  0  0  0  0  0  0
    3.0730    1.4130    0.6770 N   0  0  0  0  0  0  0  0  0  0  0  0
    4.4470    1.7810    0.9220 C   0  0  0  0  0  0  0  0  0  0  0  0
    2.6190    0.7860   -0.4150 C   0  0  0  0  0  0  0  0  0  0  0  0
    3.4810    0.4690   -1.4790 N   0  0  0  0  0  0  0  0  0  0  0  0
    4.8950    0.2580   -1.3710 C   0  0  0  0  0  0  0  0  0  0  0  0
    5.2900   -0.5460   -0.4070 N   0  0  0  0  0  0  0  0  0  0  0  0
    6.6270   -0.8770   -0.1440 C   0  0  0  0  0  0  0  0  0  0  0  0
    7.0220   -1.7190    0.8740 C   0  0  0  0  0  0  0  0  0  0  0  0
    8.3180   -2.0570    1.1510 C   0  0  0  0  0  0  0  0  0  0  0  0
    9.2850   -1.4920    0.3260 C   0  0  0  0  0  0  0  0  0  0  0  0
    8.9390   -0.6470   -0.7010 C   0  0  0  0  0  0  0  0  0  0  0  0
    7.6120   -0.3270   -0.9530 C   0  0  0  0  0  0  0  0  0  0  0  0
    7.1960    0.5040   -1.9550 O   0  0  0  0  0  0  0  0  0  0  0  0
    5.8790    0.8520   -2.2800 C   0  0  0  0  0  0  0  0  0  0  0  0
  1  2  1  0
  2  3  1  0
  3  4  2  0
  3  5  1  0
  5  6  1  0
  5 28  2  0
  6  7  1  0
  6 23  2  0
  7  8  2  0
  7  9  2  0
  7 10  1  1
 10 11  1  0
 10 12  1  0
 12 13  1  0
 13 14  1  0
 15 14  1  6
 15 16  1  0
 15 22  1  0
 16 17  1  0
 17 18  1  0
 18 19  2  0
 18 22  1  0
 19 20  1  0
 20 21  2  0
 22 21  1  6
 23 24  1  0
 24 25  2  0
 24 26  1  0
 26 27  1  0
 26 28  1  0
 28 29  1  0
 29 30  1  0
 30 31  2  0
 30 39  1  0
 31 32  1  0
 32 33  2  0
 32 37  1  0
 33 34  1  0
 34 35  2  0
 35 36  1  0
 36 37  2  0
 37 38  1  0
 38 39  1  0
M  END
