
     RDKit          3D

 20 20  0  0  0  0  0  0  0  0999 V2000
   -4.3930   -1.3550    0.6590 C   0  0  0  0  0  0  0  0  0  0  0  0
   -3.5720   -0.3610    0.8500 C   0  0  0  0  0  0  0  0  0  0  0  0
   -2.0890   -0.5270    0.9950 C   0  0  2  0  0  0  0  0  0  0  0  0
   -1.6990    0.1540    2.2450 C   0  0  0  0  0  0  0  0  0  0  0  0
   -1.2960   -0.4860    3.1900 O   0  0  0  0  0  0  0  0  0  0  0  0
   -1.3130    0.2430   -0.4870 P   0  0  0  0  0  0  0  0  0  0  0  0
   -2.0380   -0.5790   -1.9990 C   0  0  0  0  0  0  0  0  0  0  0  0
    0.5000    0.0930   -0.5530 C   0  0  2  0  0  0  0  0  0  0  0  0
    0.9900    1.1530   -1.5480 C   0  0  0  0  0  0  0  0  0  0  0  0
    0.4390    2.7810   -0.8670 P   0  0  0  0  0  0  0  0  0  0  0  0
    0.4180    4.0080   -2.0640 O   0  0  0  0  0  0  0  0  0  0  0  0
    1.0030   -1.2580   -0.9630 C   0  0  0  0  0  0  0  0  0  0  0  0
    2.2810   -1.2850   -0.4290 O   0  0  0  0  0  0  0  0  0  0  0  0
    2.3720   -0.3070    0.5280 C   0  0  2  0  0  0  0  0  0  0  0  0
    3.3800    0.5990    0.1260 O   0  0  0  0  0  0  0  0  0  0  0  0
    4.8360   -0.2970    0.0030 S   0  0  0  0  0  0  0  0  0  0  0  0
    2.8240   -0.8320    1.8550 C   0  0  0  0  0  0  0  0  0  0  0  0
    3.0810   -2.0510    2.0260 O   0  0  0  0  0  0  0  0  0  0  0  0
    2.9420    0.0950    2.8800 O   0  0  0  0  0  0  0  0  0  0  0  0
    1.1460    0.3160    0.6420 O   0  0  0  0  0  0  0  0  0  0  0  0
  1  2  2  0
  2  3  1  0
  3  4  1  0
  3  6  1  6
  4  5  2  0
  6  7  1  0
  6  8  1  0
  8  9  1  6
  8 12  1  0
  8 20  1  0
  9 10  1  0
 10 11  1  0
 12 13  1  0
 13 14  1  0
 14 15  1  6
 14 17  1  0
 14 20  1  0
 15 16  1  0
 17 18  2  0
 17 19  1  0
M  END
