
     RDKit          3D

 20 19  0  0  0  0  0  0  0  0999 V2000
   -5.1350    0.5540    1.2280 C   0  0  0  0  0  0  0  0  0  0  0  0
   -4.3240    0.6530   -0.0800 C   0  0  0  0  0  0  0  0  0  0  0  0
   -3.0860   -0.6010   -0.1800 S   0  0  0  0  0  0  0  0  0  0  0  0
   -1.6920   -0.5530    0.8590 C   0  0  0  0  0  0  0  0  0  0  0  0
   -0.4600    0.1910    0.5330 C   0  0  2  0  0  0  0  0  0  0  0  0
   -0.5390    1.6300    0.2650 C   0  0  0  0  0  0  0  0  0  0  0  0
   -1.4700    2.1250   -1.2390 P   0  0  0  0  0  0  0  0  0  0  0  0
    0.2170   -0.4600   -0.5420 O   0  0  0  0  0  0  0  0  0  0  0  0
    1.4260   -1.0050   -0.1420 C   0  0  2  0  0  0  0  0  0  0  0  0
    1.2520   -1.9260    0.8790 O   0  0  0  0  0  0  0  0  0  0  0  0
    2.4040   -0.1010    0.1840 O   0  0  0  0  0  0  0  0  0  0  0  0
    2.7530    0.7190   -0.8890 C   0  0  0  0  0  0  0  0  0  0  0  0
    3.7820    1.6960   -0.4520 C   0  0  0  0  0  0  0  0  0  0  0  0
    4.1970    2.5040   -1.2680 O   0  0  0  0  0  0  0  0  0  0  0  0
    4.4590    1.7510    1.2450 P   0  0  0  0  0  0  0  0  0  0  0  0
    6.0350    1.0150    1.2860 O   0  0  0  0  0  0  0  0  0  0  0  0
    1.8810   -1.7970   -1.2450 O   0  0  0  0  0  0  0  0  0  0  0  0
    0.9320   -2.7770   -1.5110 C   0  0  2  0  0  0  0  0  0  0  0  0
    1.4850   -4.0350   -1.4890 O   0  0  0  0  0  0  0  0  0  0  0  0
    0.4500   -2.4980   -2.7960 O   0  0  0  0  0  0  0  0  0  0  0  0
  1  2  1  0
  2  3  1  0
  3  4  1  0
  5  4  1  6
  5  6  1  0
  5  8  1  0
  6  7  1  0
  8  9  1  0
  9 10  1  1
  9 11  1  0
  9 17  1  0
 11 12  1  0
 12 13  1  0
 13 14  2  0
 13 15  1  0
 15 16  1  0
 17 18  1  0
 18 19  1  6
 18 20  1  0
M  END
