
     RDKit          3D

 20 21  0  0  0  0  0  0  0  0999 V2000
   -3.6370    1.9990   -0.7570 C   0  0  0  0  0  0  0  0  0  0  0  0
   -3.4110    1.4280    0.5170 O   0  0  0  0  0  0  0  0  0  0  0  0
   -2.2260    0.6970    0.7600 C   0  0  0  0  0  0  0  0  0  0  0  0
   -2.2930   -0.6070    0.9350 C   0  0  0  0  0  0  0  0  0  0  0  0
   -3.6610   -1.2300    0.8600 C   0  0  0  0  0  0  0  0  0  0  0  0
   -3.6540   -2.1650   -0.1760 O   0  0  0  0  0  0  0  0  0  0  0  0
   -1.1990   -1.4420    1.1830 O   0  0  0  0  0  0  0  0  0  0  0  0
    0.1920   -0.5840    1.7460 P   0  0  0  0  0  0  0  0  0  0  0  0
    1.7490   -1.0210    1.2040 O   0  0  0  0  0  0  0  0  0  0  0  0
    2.3540    0.1620    0.7300 C   0  0  0  0  0  0  0  0  0  0  0  0
    3.5910    0.1510    0.2380 C   0  0  0  0  0  0  0  0  0  0  0  0
    4.2770    1.7070   -0.3420 S   0  0  0  0  0  0  0  0  0  0  0  0
    4.4220   -1.0460    0.1410 C   0  0  0  0  0  0  0  0  0  0  0  0
    5.6210   -0.9270    0.8770 O   0  0  0  0  0  0  0  0  0  0  0  0
    1.4500    1.3490    0.8570 C   0  0  0  0  0  0  0  0  0  0  0  0
    0.1290    0.8800    0.5000 C   0  0  1  0  0  0  0  0  0  0  0  0
    0.2140    0.0900   -1.1930 P   0  0  0  0  0  0  0  0  0  0  0  0
   -1.3160   -0.5650   -1.6560 O   0  0  0  0  0  0  0  0  0  0  0  0
    1.3540   -1.2330   -1.0380 O   0  0  0  0  0  0  0  0  0  0  0  0
   -1.0450    1.4650    0.7920 O   0  0  0  0  0  0  0  0  0  0  0  0
  1  2  1  0
  2  3  1  0
  3  4  2  0
  3 20  1  0
  4  5  1  0
  4  7  1  0
  5  6  1  0
  7  8  1  0
  8  9  1  0
  8 16  1  0
  9 10  1  0
 10 11  2  3
 10 15  1  0
 11 12  1  0
 11 13  1  0
 13 14  1  0
 15 16  1  0
 16 17  1  6
 16 20  1  0
 17 18  1  0
 17 19  1  0
M  END
