
     RDKit          3D

 12 12  0  0  0  0  0  0  0  0999 V2000
   -3.0280   -1.3690   -0.1360 C   0  0  0  0  0  0  0  0  0  0  0  0
   -1.5880   -1.0220    0.0720 C   0  0  0  0  0  0  0  0  0  0  0  0
   -0.7270   -1.9030    0.6130 N   0  0  0  0  0  0  0  0  0  0  0  0
    0.5800   -1.6040    0.8070 C   0  0  0  0  0  0  0  0  0  0  0  0
    1.1130   -0.3790    0.4650 C   0  0  0  0  0  0  0  0  0  0  0  0
    2.5590   -0.0600    0.6850 C   0  0  0  0  0  0  0  0  0  0  0  0
    3.2300   -1.1260    1.2510 O   0  0  0  0  0  0  0  0  0  0  0  0
    0.2580    0.5490   -0.0920 C   0  0  0  0  0  0  0  0  0  0  0  0
    0.7950    1.8860   -0.4750 C   0  0  0  0  0  0  0  0  0  0  0  0
   -0.2630    2.6170   -1.0050 O   0  0  0  0  0  0  0  0  0  0  0  0
   -1.0700    0.2080   -0.2750 C   0  0  0  0  0  0  0  0  0  0  0  0
   -1.9150    1.1580   -0.8380 O   0  0  0  0  0  0  0  0  0  0  0  0
  1  2  1  0
  2  3  2  0
  2 11  1  0
  3  4  1  0
  4  5  2  0
  5  6  1  0
  5  8  1  0
  6  7  1  0
  8  9  1  0
  8 11  2  0
  9 10  1  0
 11 12  1  0
M  END
