
     RDKit          3D

 12 12  0  0  0  0  0  0  0  0999 V2000
    2.0590    1.6720   -0.0600 O   0  0  0  0  0  0  0  0  0  0  0  0
    2.2430    0.4560   -0.1140 C   0  0  0  0  0  0  0  0  0  0  0  0
    3.6560   -0.0700   -0.1790 C   0  0  0  0  0  0  0  0  0  0  0  0
    4.5530    0.9760   -0.1650 O   0  0  0  0  0  0  0  0  0  0  0  0
    1.1770   -0.4580   -0.1180 N   0  0  0  0  0  0  0  0  0  0  0  0
   -0.2000   -0.1440   -0.0620 C   0  0  0  0  0  0  0  0  0  0  0  0
   -0.7060    1.0490    0.0020 C   0  0  0  0  0  0  0  0  0  0  0  0
   -2.1390    1.3400    0.0580 C   0  0  0  0  0  0  0  0  0  0  0  0
   -3.0680    0.2090    0.0340 C   0  0  0  0  0  0  0  0  0  0  0  0
   -2.4470   -1.1030   -0.0380 C   0  0  0  0  0  0  0  0  0  0  0  0
   -1.1610   -1.2820   -0.0820 C   0  0  0  0  0  0  0  0  0  0  0  0
   -0.6770   -2.5680   -0.1490 O   0  0  0  0  0  0  0  0  0  0  0  0
  1  2  2  0
  2  3  1  0
  2  5  1  0
  3  4  1  0
  5  6  1  0
  6  7  2  0
  6 11  1  0
  7  8  1  0
  8  9  1  0
  9 10  1  0
 10 11  2  0
 11 12  1  0
M  END
