
     RDKit          3D

 11 11  0  0  0  0  0  0  0  0999 V2000
   -1.6680    2.1420   -0.2640 C   0  0  0  0  0  0  0  0  0  0  0  0
   -1.5980    0.8430   -0.1910 C   0  0  0  0  0  0  0  0  0  0  0  0
   -2.7240    0.0810    0.1690 N   0  0  0  0  0  0  0  0  0  0  0  0
   -2.5990   -1.3330    0.2360 C   0  0  0  0  0  0  0  0  0  0  0  0
   -1.4260   -1.9060   -0.0420 C   0  0  0  0  0  0  0  0  0  0  0  0
   -0.2580   -1.1060   -0.4160 C   0  0  0  0  0  0  0  0  0  0  0  0
   -0.3230    0.2100   -0.4920 C   0  0  0  0  0  0  0  0  0  0  0  0
    0.8090    0.9410   -0.8510 O   0  0  0  0  0  0  0  0  0  0  0  0
    2.0760    0.4110   -0.6030 C   0  0  0  0  0  0  0  0  0  0  0  0
    2.3020    0.1470    0.8900 C   0  0  0  0  0  0  0  0  0  0  0  0
    3.5940   -0.3770    1.0080 O   0  0  0  0  0  0  0  0  0  0  0  0
  1  2  2  0
  2  3  1  0
  2  7  1  0
  3  4  1  0
  4  5  2  0
  5  6  1  0
  6  7  2  0
  7  8  1  0
  8  9  1  0
  9 10  1  0
 10 11  1  0
M  END
