
     RDKit          3D

 23 25  0  0  0  0  0  0  0  0999 V2000
   -5.8770    0.9270    0.2120 C   0  0  0  0  0  0  0  0  0  0  0  0
   -5.4080   -0.4800    0.2050 C   0  0  0  0  0  0  0  0  0  0  0  0
   -4.2180   -0.6400   -0.6890 N   0  0  0  0  0  0  0  0  0  0  0  0
   -2.9730   -0.4870   -0.3280 C   0  0  0  0  0  0  0  0  0  0  0  0
   -2.6370   -0.0460    1.1000 C   0  0  0  0  0  0  0  0  0  0  0  0
   -1.9680   -0.6780   -1.1990 C   0  0  0  0  0  0  0  0  0  0  0  0
   -0.5260   -0.6240   -1.2290 C   0  0  0  0  0  0  0  0  0  0  0  0
    0.0470   -0.8660   -2.3340 O   0  0  0  0  0  0  0  0  0  0  0  0
    0.2830   -0.3300   -0.1390 N   0  0  0  0  0  0  0  0  0  0  0  0
    1.7220   -0.2810   -0.1720 C   0  0  0  0  0  0  0  0  0  0  0  0
    2.5230   -0.7880   -1.1450 C   0  0  0  0  0  0  0  0  0  0  0  0
    3.9110   -0.6680   -1.0900 C   0  0  0  0  0  0  0  0  0  0  0  0
    4.5240   -0.0380   -0.0580 C   0  0  0  0  0  0  0  0  0  0  0  0
    5.8560    0.0680   -0.0200 N   0  0  0  0  0  0  0  0  0  0  0  0
    6.4690    0.7010    1.0160 C   0  0  0  0  0  0  0  0  0  0  0  0
    5.7370    1.2370    2.0340 C   0  0  0  0  0  0  0  0  0  0  0  0
    4.3480    1.1320    2.0040 C   0  0  0  0  0  0  0  0  0  0  0  0
    3.6810    1.6290    2.9450 O   0  0  0  0  0  0  0  0  0  0  0  0
    3.7470    0.4920    0.9530 C   0  0  0  0  0  0  0  0  0  0  0  0
    2.3750    0.3640    0.8820 C   0  0  0  0  0  0  0  0  0  0  0  0
   -2.8530   -1.1140   -2.6830 S   0  0  0  0  0  0  0  0  0  0  0  0
   -4.4980   -0.9920   -1.9580 C   0  0  0  0  0  0  0  0  0  0  0  0
   -5.5670   -1.1990   -2.5540 O   0  0  0  0  0  0  0  0  0  0  0  0
  1  2  1  0
  2  3  1  0
  3  4  1  0
  3 22  1  0
  4  5  1  0
  4  6  2  0
  6  7  1  0
  6 21  1  0
  7  8  2  0
  7  9  1  0
  9 10  1  0
 10 11  2  0
 10 20  1  0
 11 12  1  0
 12 13  2  0
 13 14  1  0
 13 19  1  0
 14 15  1  0
 15 16  2  0
 16 17  1  0
 17 18  2  0
 17 19  1  0
 19 20  2  0
 21 22  1  0
 22 23  2  0
M  END
