
     RDKit          3D

  9  8  0  0  0  0  0  0  0  0999 V2000
    2.1530    0.4830    1.4810 O   0  0  0  0  0  0  0  0  0  0  0  0
    2.6890    0.2710    0.3870 C   0  0  0  0  0  0  0  0  0  0  0  0
    2.1330   -0.5550   -0.6370 N   0  0  0  0  0  0  0  0  0  0  0  0
    0.8540   -1.1830   -0.3640 C   0  0  0  0  0  0  0  0  0  0  0  0
   -0.0560   -0.1370   -0.1290 O   0  0  0  0  0  0  0  0  0  0  0  0
   -1.2570   -0.6000    0.1300 O   0  0  0  0  0  0  0  0  0  0  0  0
   -2.1650    0.6910    0.8410 P   0  0  0  0  0  0  0  0  0  0  0  0
   -1.8580    2.1270   -0.0600 O   0  0  0  0  0  0  0  0  0  0  0  0
   -3.8650    0.2960    0.8090 O   0  0  0  0  0  0  0  0  0  0  0  0
  1  2  2  0
  2  3  1  0
  3  4  1  0
  4  5  1  0
  5  6  1  0
  6  7  1  0
  7  8  1  0
  7  9  1  0
M  END
