
     RDKit          3D

  8  7  0  0  0  0  0  0  0  0999 V2000
   -1.3030   -0.4820    1.0060 C   0  0  0  0  0  0  0  0  0  0  0  0
   -0.8930    0.0770   -0.3490 C   0  0  2  0  0  0  0  0  0  0  0  0
   -2.0590    0.6670   -1.0160 N   0  0  0  0  0  0  0  0  0  0  0  0
   -0.2910   -0.8720   -1.1330 O   0  0  0  0  0  0  0  0  0  0  0  0
    0.9330   -0.4760   -1.4170 O   0  0  0  0  0  0  0  0  0  0  0  0
    1.7600   -0.0600    0.0370 P   0  0  0  0  0  0  0  0  0  0  0  0
    2.8780   -1.3030    0.5240 O   0  0  0  0  0  0  0  0  0  0  0  0
    2.6010    1.4400   -0.2470 O   0  0  0  0  0  0  0  0  0  0  0  0
  2  1  1  1
  2  3  1  0
  2  4  1  0
  4  5  1  0
  5  6  1  0
  6  7  1  0
  6  8  1  0
M  END
