
     RDKit          3D

 21 23  0  0  0  0  0  0  0  0999 V2000
    0.9370    3.2400    0.5940 C   0  0  0  0  0  0  0  0  0  0  0  0
   -0.1890    2.3220    0.2840 C   0  0  0  0  0  0  0  0  0  0  0  0
   -1.3120    2.8670   -0.3530 C   0  0  0  0  0  0  0  0  0  0  0  0
   -2.3910    2.0800   -0.6700 C   0  0  0  0  0  0  0  0  0  0  0  0
   -3.8190    2.7240   -1.4700 Cl  0  0  0  0  0  0  0  0  0  0  0  0
   -2.3810    0.7220   -0.3600 C   0  0  0  0  0  0  0  0  0  0  0  0
   -3.4460   -0.0370   -0.6770 N   0  0  0  0  0  0  0  0  0  0  0  0
   -3.4740   -1.3580   -0.3930 C   0  0  0  0  0  0  0  0  0  0  0  0
   -4.4790   -2.0440   -0.6990 O   0  0  0  0  0  0  0  0  0  0  0  0
   -2.3730   -1.8780    0.2290 C   0  0  0  0  0  0  0  0  0  0  0  0
   -2.4060   -3.3370    0.5420 C   0  0  0  0  0  0  0  0  0  0  0  0
   -1.2600   -1.1440    0.5740 C   0  0  0  0  0  0  0  0  0  0  0  0
   -1.2550    0.1980    0.2740 C   0  0  0  0  0  0  0  0  0  0  0  0
   -0.1740    0.9830    0.5920 C   0  0  0  0  0  0  0  0  0  0  0  0
    0.9290    0.4510    1.2180 O   0  0  0  0  0  0  0  0  0  0  0  0
    2.0180   -0.0790    0.5690 C   0  0  0  0  0  0  0  0  0  0  0  0
    3.0720   -0.5870    1.3000 C   0  0  0  0  0  0  0  0  0  0  0  0
    4.1940   -1.1330    0.7070 C   0  0  0  0  0  0  0  0  0  0  0  0
    4.2680   -1.1730   -0.6680 C   0  0  0  0  0  0  0  0  0  0  0  0
    3.2280   -0.6710   -1.4300 C   0  0  0  0  0  0  0  0  0  0  0  0
    2.1040   -0.1250   -0.8060 C   0  0  0  0  0  0  0  0  0  0  0  0
  1  2  1  0
  2  3  2  0
  2 14  1  0
  3  4  1  0
  4  5  1  0
  4  6  2  0
  6  7  1  0
  6 13  1  0
  7  8  1  0
  8  9  2  0
  8 10  1  0
 10 11  1  0
 10 12  2  0
 12 13  1  0
 13 14  2  0
 14 15  1  0
 15 16  1  0
 16 17  2  0
 16 21  1  0
 17 18  1  0
 18 19  2  0
 19 20  1  0
 20 21  2  0
M  END
