
     RDKit          3D

 25 27  0  0  0  0  0  0  0  0999 V2000
   -3.3610   -2.5550   -1.0150 O   0  0  0  0  0  0  0  0  0  0  0  0
   -2.7400   -2.3530    0.0550 C   0  0  0  0  0  0  0  0  0  0  0  0
   -2.5960   -1.0670    0.6010 N   0  0  0  0  0  0  0  0  0  0  0  0
   -3.1280    0.1040    0.0050 C   0  0  0  0  0  0  0  0  0  0  0  0
   -4.0900    0.1150   -0.9520 C   0  0  0  0  0  0  0  0  0  0  0  0
   -4.5590    1.2940   -1.5150 C   0  0  0  0  0  0  0  0  0  0  0  0
   -4.0100    2.4730   -1.0660 C   0  0  0  0  0  0  0  0  0  0  0  0
   -4.6690    4.0960   -1.8560 Br  0  0  0  0  0  0  0  0  0  0  0  0
   -3.0380    2.4980   -0.1020 C   0  0  0  0  0  0  0  0  0  0  0  0
   -2.5860    1.3280    0.4440 C   0  0  0  0  0  0  0  0  0  0  0  0
   -2.0070   -3.7640    0.9140 S   0  0  0  0  0  0  0  0  0  0  0  0
   -0.9200   -3.1890    2.2170 C   0  0  0  0  0  0  0  0  0  0  0  0
    0.2950   -2.5920    1.6440 C   0  0  0  0  0  0  0  0  0  0  0  0
    1.4330   -3.3210    1.3390 C   0  0  0  0  0  0  0  0  0  0  0  0
    2.3370   -2.4190    0.8300 C   0  0  0  0  0  0  0  0  0  0  0  0
    1.7340   -1.1770    0.8380 C   0  0  0  0  0  0  0  0  0  0  0  0
    2.2810    0.1000    0.4000 C   0  0  0  0  0  0  0  0  0  0  0  0
    1.5810    1.1350    0.4840 O   0  0  0  0  0  0  0  0  0  0  0  0
    3.5950    0.2010   -0.1230 N   0  0  0  0  0  0  0  0  0  0  0  0
    4.1420    1.4570   -0.5570 C   0  0  0  0  0  0  0  0  0  0  0  0
    3.4960    2.6220   -0.5170 N   0  0  0  0  0  0  0  0  0  0  0  0
    4.3160    3.5730   -1.0010 C   0  0  0  0  0  0  0  0  0  0  0  0
    5.4940    2.9460   -1.3410 C   0  0  0  0  0  0  0  0  0  0  0  0
    5.3290    1.6760   -1.0510 O   0  0  0  0  0  0  0  0  0  0  0  0
    0.5440   -1.3740    1.3290 O   0  0  0  0  0  0  0  0  0  0  0  0
  1  2  2  0
  2  3  1  0
  2 11  1  0
  3  4  1  0
  4  5  2  0
  4 10  1  0
  5  6  1  0
  6  7  2  0
  7  8  1  0
  7  9  1  0
  9 10  2  0
 11 12  1  0
 12 13  1  0
 13 14  2  0
 13 25  1  0
 14 15  1  0
 15 16  2  0
 16 17  1  0
 16 25  1  0
 17 18  2  0
 17 19  1  0
 19 20  1  0
 20 21  2  0
 20 24  1  0
 21 22  1  0
 22 23  2  0
 23 24  1  0
M  END
