
     RDKit          3D

 25 27  0  0  0  0  0  0  0  0999 V2000
   -6.4080    1.9790   -1.2920 C   0  0  0  0  0  0  0  0  0  0  0  0
   -5.1720    1.2600   -0.8450 C   0  0  0  0  0  0  0  0  0  0  0  0
   -4.9540   -0.0930   -0.9830 C   0  0  0  0  0  0  0  0  0  0  0  0
   -3.7080   -0.3450   -0.4450 C   0  0  0  0  0  0  0  0  0  0  0  0
   -3.2210    0.8510   -0.0040 C   0  0  0  0  0  0  0  0  0  0  0  0
   -1.9100    1.1060    0.6610 C   0  0  0  0  0  0  0  0  0  0  0  0
   -1.2100   -0.0760    0.9890 N   0  0  0  0  0  0  0  0  0  0  0  0
   -0.5980   -0.9890    0.0940 C   0  0  0  0  0  0  0  0  0  0  0  0
   -0.6330   -0.7810   -1.1230 O   0  0  0  0  0  0  0  0  0  0  0  0
    0.0620   -2.1560    0.7130 C   0  0  0  0  0  0  0  0  0  0  0  0
   -0.4620   -3.2500    1.1370 O   0  0  0  0  0  0  0  0  0  0  0  0
    0.4370   -4.0560    1.6380 C   0  0  0  0  0  0  0  0  0  0  0  0
    1.6490   -3.4240    1.5240 C   0  0  0  0  0  0  0  0  0  0  0  0
    1.4340   -2.1680    0.9160 C   0  0  0  0  0  0  0  0  0  0  0  0
    2.4490   -1.2020    0.5870 C   0  0  0  0  0  0  0  0  0  0  0  0
    3.0840   -0.6900    1.5620 O   0  0  0  0  0  0  0  0  0  0  0  0
    2.8350   -0.7470   -0.7060 N   0  0  0  0  0  0  0  0  0  0  0  0
    3.8480    0.2410   -0.8780 C   0  0  0  0  0  0  0  0  0  0  0  0
    4.9750   -0.0690   -1.4700 C   0  0  0  0  0  0  0  0  0  0  0  0
    6.2410    1.1690   -1.6820 S   0  0  0  0  0  0  0  0  0  0  0  0
    5.6230    2.7250   -1.0090 C   0  0  2  0  0  0  0  0  0  0  0  0
    6.7880    3.2030    0.5180 Br  0  0  0  0  0  0  0  0  0  0  0  0
    4.3260    2.5590   -0.4730 N   0  0  0  0  0  0  0  0  0  0  0  0
    3.5600    1.5770   -0.3920 C   0  0  0  0  0  0  0  0  0  0  0  0
   -4.1230    1.7630   -0.2640 O   0  0  0  0  0  0  0  0  0  0  0  0
  1  2  1  0
  2  3  2  0
  2 25  1  0
  3  4  1  0
  4  5  2  0
  5  6  1  0
  5 25  1  0
  6  7  1  0
  7  8  1  0
  8  9  2  0
  8 10  1  0
 10 11  1  0
 10 14  2  0
 11 12  1  0
 12 13  2  0
 13 14  1  0
 14 15  1  0
 15 16  2  0
 15 17  1  0
 17 18  1  0
 18 19  2  0
 18 24  1  0
 19 20  1  0
 20 21  1  0
 21 22  1  1
 21 23  1  0
 23 24  2  0
M  END
