
     RDKit          3D

 25 27  0  0  0  0  0  0  0  0999 V2000
    2.7430    2.0910   -0.0960 O   0  0  0  0  0  0  0  0  0  0  0  0
    1.6280    1.5410    0.0910 C   0  0  0  0  0  0  0  0  0  0  0  0
    1.5920    0.4430    0.9130 O   0  0  0  0  0  0  0  0  0  0  0  0
    2.6610   -0.1440    1.5760 C   0  0  0  0  0  0  0  0  0  0  0  0
    3.7390   -0.6410    0.6780 C   0  0  0  0  0  0  0  0  0  0  0  0
    4.1360   -1.9120    0.6100 C   0  0  0  0  0  0  0  0  0  0  0  0
    5.2270   -2.0190   -0.3930 C   0  0  0  0  0  0  0  0  0  0  0  0
    5.3590   -0.6250   -0.8530 C   0  0  0  0  0  0  0  0  0  0  0  0
    4.5120    0.0910   -0.2270 N   0  0  0  0  0  0  0  0  0  0  0  0
    0.4240    2.0790   -0.5640 C   0  0  0  0  0  0  0  0  0  0  0  0
    0.5460    3.1380   -1.3390 N   0  0  0  0  0  0  0  0  0  0  0  0
   -0.3540    3.8050   -2.0270 C   0  0  0  0  0  0  0  0  0  0  0  0
   -1.6880    3.4720   -2.0500 C   0  0  0  0  0  0  0  0  0  0  0  0
   -2.9340    4.4950   -3.0790 Br  0  0  0  0  0  0  0  0  0  0  0  0
   -2.1090    2.1150   -1.1110 S   0  0  0  0  0  0  0  0  0  0  0  0
   -0.7810    1.4140   -0.3090 C   0  0  0  0  0  0  0  0  0  0  0  0
   -0.8510    0.3830    0.4560 N   0  0  0  0  0  0  0  0  0  0  0  0
   -2.1380   -0.1970    0.6300 C   0  0  0  0  0  0  0  0  0  0  0  0
   -2.9880    0.1680    1.6530 C   0  0  0  0  0  0  0  0  0  0  0  0
   -4.2450   -0.4120    1.8070 C   0  0  0  0  0  0  0  0  0  0  0  0
   -4.6430   -1.3780    0.9060 C   0  0  0  0  0  0  0  0  0  0  0  0
   -5.9010   -1.9610    1.0570 O   0  0  0  0  0  0  0  0  0  0  0  0
   -3.8190   -1.7680   -0.1290 C   0  0  0  0  0  0  0  0  0  0  0  0
   -4.2750   -2.7450   -1.0030 O   0  0  0  0  0  0  0  0  0  0  0  0
   -2.5870   -1.1650   -0.2370 C   0  0  0  0  0  0  0  0  0  0  0  0
  1  2  2  0
  2  3  1  0
  2 10  1  0
  3  4  1  0
  4  5  1  0
  5  6  2  0
  5  9  1  0
  6  7  1  0
  7  8  1  0
  8  9  2  0
 10 11  2  0
 10 16  1  0
 11 12  1  0
 12 13  2  0
 13 14  1  0
 13 15  1  0
 15 16  1  0
 16 17  2  3
 17 18  1  0
 18 19  2  0
 18 25  1  0
 19 20  1  0
 20 21  2  0
 21 22  1  0
 21 23  1  0
 23 24  1  0
 23 25  2  0
M  END
