
     RDKit          3D

 25 27  0  0  0  0  0  0  0  0999 V2000
   -3.8400   -1.2250    2.4670 C   0  0  0  0  0  0  0  0  0  0  0  0
   -3.0910   -0.2220    1.6110 N   0  0  0  0  0  0  0  0  0  0  0  0
   -3.9230    0.8530    1.1890 C   0  0  0  0  0  0  0  0  0  0  0  0
   -4.5700    0.6500   -0.1350 C   0  0  0  0  0  0  0  0  0  0  0  0
   -4.4140   -0.4650   -0.9290 C   0  0  0  0  0  0  0  0  0  0  0  0
   -5.1460   -0.3190   -2.0660 N   0  0  0  0  0  0  0  0  0  0  0  0
   -5.7500    0.8790   -1.9720 C   0  0  0  0  0  0  0  0  0  0  0  0
   -6.5150    1.3580   -2.8490 O   0  0  0  0  0  0  0  0  0  0  0  0
   -5.4000    1.4550   -0.8110 N   0  0  0  0  0  0  0  0  0  0  0  0
   -1.7630   -0.5210    1.4370 C   0  0  0  0  0  0  0  0  0  0  0  0
   -1.3640   -1.5800    2.1050 O   0  0  0  0  0  0  0  0  0  0  0  0
   -0.6850    0.0870    0.6640 C   0  0  0  0  0  0  0  0  0  0  0  0
   -0.9570    1.1440   -0.0860 C   0  0  0  0  0  0  0  0  0  0  0  0
    0.3480    1.9070   -1.0390 S   0  0  0  0  0  0  0  0  0  0  0  0
    1.8050    0.9490   -0.6960 C   0  0  0  0  0  0  0  0  0  0  0  0
    3.0030    1.2250   -1.2430 C   0  0  0  0  0  0  0  0  0  0  0  0
    4.1360    0.4720   -0.9690 C   0  0  0  0  0  0  0  0  0  0  0  0
    4.1010   -0.6080   -0.1160 C   0  0  0  0  0  0  0  0  0  0  0  0
    5.1740   -1.3900    0.2020 O   0  0  0  0  0  0  0  0  0  0  0  0
    6.4740   -1.2730   -0.2020 C   0  0  0  0  0  0  0  0  0  0  0  0
    7.2370   -0.0650    0.2180 C   0  0  0  0  0  0  0  0  0  0  0  0
    7.2970    0.0110    2.1540 Br  0  0  0  0  0  0  0  0  0  0  0  0
    2.8620   -0.8940    0.4490 C   0  0  0  0  0  0  0  0  0  0  0  0
    1.7330   -0.1230    0.1600 C   0  0  0  0  0  0  0  0  0  0  0  0
    0.5550   -0.4760    0.7610 O   0  0  0  0  0  0  0  0  0  0  0  0
  1  2  1  0
  2  3  1  0
  2 10  1  0
  3  4  1  0
  4  5  2  0
  4  9  1  0
  5  6  1  0
  6  7  1  0
  7  8  2  0
  7  9  1  0
 10 11  2  0
 10 12  1  0
 12 13  2  0
 12 25  1  0
 13 14  1  0
 14 15  1  0
 15 16  2  0
 15 24  1  0
 16 17  1  0
 17 18  2  0
 18 19  1  0
 18 23  1  0
 19 20  1  0
 20 21  1  0
 21 22  1  0
 23 24  2  0
 24 25  1  0
M  END
