
     RDKit          3D

 25 27  0  0  0  0  0  0  0  0999 V2000
    4.6030   -2.7810    1.3960 C   0  0  0  0  0  0  0  0  0  0  0  0
    4.2300   -2.4710   -0.0290 C   0  0  0  0  0  0  0  0  0  0  0  0
    3.9040   -1.0340   -0.2070 C   0  0  0  0  0  0  0  0  0  0  0  0
    2.6140   -0.5520   -0.0470 C   0  0  0  0  0  0  0  0  0  0  0  0
    2.2830    0.7700   -0.2040 C   0  0  0  0  0  0  0  0  0  0  0  0
    1.0150    1.3470   -0.0650 N   0  0  0  0  0  0  0  0  0  0  0  0
   -0.1900    0.6860    0.2690 C   0  0  0  0  0  0  0  0  0  0  0  0
   -0.1810   -0.5410    0.4710 O   0  0  0  0  0  0  0  0  0  0  0  0
   -1.4600    1.4090    0.3850 C   0  0  0  0  0  0  0  0  0  0  0  0
   -1.4900    2.6650    0.1820 O   0  0  0  0  0  0  0  0  0  0  0  0
   -2.6540    0.7450    0.7170 N   0  0  0  0  0  0  0  0  0  0  0  0
   -3.8920    1.4780    0.8260 C   0  0  0  0  0  0  0  0  0  0  0  0
   -5.0350    0.5460    1.1930 C   0  0  0  0  0  0  0  0  0  0  0  0
   -5.1890   -0.5010    0.1430 C   0  0  0  0  0  0  0  0  0  0  0  0
   -5.9240   -0.5270   -0.9820 C   0  0  0  0  0  0  0  0  0  0  0  0
   -5.8990   -1.6010   -1.7830 C   0  0  0  0  0  0  0  0  0  0  0  0
   -5.1210   -2.6260   -1.4150 C   0  0  0  0  0  0  0  0  0  0  0  0
   -4.7710   -4.3770   -2.2570 Br  0  0  0  0  0  0  0  0  0  0  0  0
   -4.3560   -2.0880    0.1540 S   0  0  0  0  0  0  0  0  0  0  0  0
    3.3540    1.6060   -0.5420 C   0  0  0  0  0  0  0  0  0  0  0  0
    4.6390    1.1420   -0.7040 C   0  0  0  0  0  0  0  0  0  0  0  0
    4.8850   -0.1790   -0.5310 N   0  0  0  0  0  0  0  0  0  0  0  0
    5.4540    2.2250   -1.0350 O   0  0  0  0  0  0  0  0  0  0  0  0
    4.7740    3.3870   -0.5540 C   0  0  0  0  0  0  0  0  0  0  0  0
    3.4270    2.9820   -0.7840 O   0  0  0  0  0  0  0  0  0  0  0  0
  1  2  1  0
  2  3  1  0
  3  4  2  0
  3 22  1  0
  4  5  1  0
  5  6  1  0
  5 20  2  0
  6  7  1  0
  7  8  2  0
  7  9  1  0
  9 10  2  0
  9 11  1  0
 11 12  1  0
 12 13  1  0
 13 14  1  0
 14 15  2  0
 14 19  1  0
 15 16  1  0
 16 17  2  0
 17 18  1  0
 17 19  1  0
 20 21  1  0
 20 25  1  0
 21 22  2  0
 21 23  1  0
 23 24  1  0
 24 25  1  0
M  END
