
     RDKit          3D

  8  7  0  0  0  0  0  0  0  0999 V2000
    3.4180    0.1990    0.1790 N   0  0  0  0  0  0  0  0  0  0  0  0
    2.0210    0.4290    0.4480 C   0  0  0  0  0  0  0  0  0  0  0  0
    1.2970   -0.7610    0.3590 O   0  0  0  0  0  0  0  0  0  0  0  0
    0.0400   -0.5690    0.5990 O   0  0  0  0  0  0  0  0  0  0  0  0
   -0.7080   -0.3380   -0.5550 C   0  0  0  0  0  0  0  0  0  0  0  0
   -2.4880   -0.0740   -0.1120 P   0  0  0  0  0  0  0  0  0  0  0  0
   -3.3540    0.2210   -1.5860 O   0  0  0  0  0  0  0  0  0  0  0  0
   -3.1480   -1.3670    0.7960 O   0  0  0  0  0  0  0  0  0  0  0  0
  1  2  1  0
  2  3  1  0
  3  4  1  0
  4  5  1  0
  5  6  1  0
  6  7  1  0
  6  8  1  0
M  END
