
     RDKit          3D

  9  8  0  0  0  0  0  0  0  0999 V2000
   -3.6560   -0.5810   -0.3490 O   0  0  0  0  0  0  0  0  0  0  0  0
   -2.9830    0.4860   -0.3330 C   0  0  0  0  0  0  0  0  0  0  0  0
   -1.6230    0.4010    0.0800 N   0  0  0  0  0  0  0  0  0  0  0  0
   -1.0750   -0.8810    0.4590 C   0  0  0  0  0  0  0  0  0  0  0  0
    0.2520   -0.6910    0.8150 O   0  0  0  0  0  0  0  0  0  0  0  0
    0.8830   -0.1970   -0.2340 O   0  0  0  0  0  0  0  0  0  0  0  0
    2.4880    0.1650    0.2520 P   0  0  0  0  0  0  0  0  0  0  0  0
    3.6600   -0.8460   -0.4910 O   0  0  0  0  0  0  0  0  0  0  0  0
    2.8760    1.8330    0.1650 O   0  0  0  0  0  0  0  0  0  0  0  0
  1  2  2  0
  2  3  1  0
  3  4  1  0
  4  5  1  0
  5  6  1  0
  6  7  1  0
  7  8  1  0
  7  9  1  0
M  END
