
     RDKit          3D

  9  8  0  0  0  0  0  0  0  0999 V2000
   -2.6620    0.6360   -0.7490 C   0  0  0  0  0  0  0  0  0  0  0  0
   -1.6930    0.1430    0.3120 C   0  0  2  0  0  0  0  0  0  0  0  0
   -1.7440    1.0910    1.3510 O   0  0  0  0  0  0  0  0  0  0  0  0
   -0.4220    0.1190   -0.2120 O   0  0  0  0  0  0  0  0  0  0  0  0
    0.1110   -1.1780   -0.1380 C   0  0  0  0  0  0  0  0  0  0  0  0
    1.5150   -1.0790   -0.7450 C   0  0  1  0  0  0  0  0  0  0  0  0
    1.4340   -0.6480   -2.0470 O   0  0  0  0  0  0  0  0  0  0  0  0
    2.2420   -0.0160    0.0560 C   0  0  0  0  0  0  0  0  0  0  0  0
    1.5250    1.1870   -0.0140 O   0  0  0  0  0  0  0  0  0  0  0  0
  2  1  1  6
  2  3  1  0
  2  4  1  0
  4  5  1  0
  5  6  1  0
  6  7  1  6
  6  8  1  0
  8  9  1  0
M  END
