
     RDKit          3D

 19 19  0  0  0  0  0  0  0  0999 V2000
    0.8220   -2.1970   -1.4020 O   0  0  0  0  0  0  0  0  0  0  0  0
    0.3780   -0.7790   -1.6060 S   0  0  2  0  0  0  0  0  0  0  0  0
   -0.0320   -0.5720   -3.0350 O   0  0  0  0  0  0  0  0  0  0  0  0
    1.7640    0.2410   -1.2690 N   0  0  0  0  0  0  0  0  0  0  0  0
    2.1760   -0.0630    0.0720 C   0  0  0  0  0  0  0  0  0  0  0  0
    3.3580    0.7280    0.5320 C   0  0  0  0  0  0  0  0  0  0  0  0
    4.6110    0.5610   -0.2470 C   0  0  1  0  0  0  0  0  0  0  0  0
    4.5380    0.9060   -1.5560 F   0  0  0  0  0  0  0  0  0  0  0  0
    5.5870    1.3860    0.3310 F   0  0  0  0  0  0  0  0  0  0  0  0
    5.1300   -0.7280   -0.1210 F   0  0  0  0  0  0  0  0  0  0  0  0
   -0.9220   -0.3980   -0.4940 C   0  0  0  0  0  0  0  0  0  0  0  0
   -1.8870    0.4890   -0.6400 C   0  0  0  0  0  0  0  0  0  0  0  0
   -2.7350    0.4480    0.5510 C   0  0  1  0  0  0  0  0  0  0  0  0
   -4.4160    0.0120    0.1770 S   0  0  1  0  0  0  0  0  0  0  0  0
   -5.0350    1.1320   -0.6080 O   0  0  0  0  0  0  0  0  0  0  0  0
   -4.4360   -1.2490   -0.6230 O   0  0  0  0  0  0  0  0  0  0  0  0
   -5.2290   -0.1490    1.6410 O   0  0  0  0  0  0  0  0  0  0  0  0
   -2.1380   -0.5810    1.4140 C   0  0  0  0  0  0  0  0  0  0  0  0
   -1.0830   -1.0640    0.7900 C   0  0  0  0  0  0  0  0  0  0  0  0
  1  2  2  0
  2  3  2  0
  2  4  1  1
  2 11  1  0
  4  5  1  0
  5  6  1  0
  6  7  1  0
  7  8  1  6
  7  9  1  0
  7 10  1  0
 11 12  2  0
 11 19  1  0
 13 12  1  6
 13 14  1  0
 13 18  1  0
 14 15  2  0
 14 16  2  0
 14 17  1  1
 18 19  2  0
M  END
