
     RDKit          3D

 41 44  0  0  0  0  0  0  0  0999 V2000
    8.7010    2.1480    1.0330 C   0  0  0  0  0  0  0  0  0  0  0  0
    7.4820    1.6580    0.9350 C   0  0  0  0  0  0  0  0  0  0  0  0
    6.3350    2.3990    1.5170 C   0  0  0  0  0  0  0  0  0  0  0  0
    5.2050    2.2700    0.5710 C   0  0  0  0  0  0  0  0  0  0  0  0
    4.4790    3.2630    0.3330 O   0  0  0  0  0  0  0  0  0  0  0  0
    4.9060    1.0150   -0.0970 C   0  0  0  0  0  0  0  0  0  0  0  0
    3.5370    0.6940   -0.6350 C   0  0  0  0  0  0  0  0  0  0  0  0
    2.5650    0.7190    0.4900 C   0  0  0  0  0  0  0  0  0  0  0  0
    1.1470    0.4200    0.1780 C   0  0  1  0  0  0  0  0  0  0  0  0
    0.4270    1.5130   -1.0460 S   0  0  0  0  0  0  0  0  0  0  0  0
    0.7990    3.2550   -0.7140 C   0  0  0  0  0  0  0  0  0  0  0  0
   -0.0890    3.8000    0.4020 C   0  0  0  0  0  0  0  0  0  0  0  0
    0.6230    4.2870    1.3540 O   0  0  0  0  0  0  0  0  0  0  0  0
   -1.4450    3.6790    0.2060 N   0  0  0  0  0  0  0  0  0  0  0  0
   -2.4330    4.6440   -0.2070 C   0  0  0  0  0  0  0  0  0  0  0  0
   -3.8690    4.1440    0.0410 C   0  0  0  0  0  0  0  0  0  0  0  0
   -4.2020    2.9090   -0.7680 C   0  0  1  0  0  0  0  0  0  0  0  0
   -2.8590    2.2470   -1.0180 C   0  0  0  0  0  0  0  0  0  0  0  0
   -2.1590    2.3760    0.3520 C   0  0  0  0  0  0  0  0  0  0  0  0
   -4.9800    1.9260    0.0360 C   0  0  0  0  0  0  0  0  0  0  0  0
   -5.1130    2.1630    1.3000 O   0  0  0  0  0  0  0  0  0  0  0  0
   -5.5330    0.8370   -0.4890 O   0  0  0  0  0  0  0  0  0  0  0  0
   -5.3240   -0.0690   -1.4520 C   0  0  0  0  0  0  0  0  0  0  0  0
   -4.4990   -1.1030   -1.4850 C   0  0  0  0  0  0  0  0  0  0  0  0
   -3.5740   -1.5060   -0.3990 C   0  0  1  0  0  0  0  0  0  0  0  0
   -4.4650   -2.0950    0.6840 C   0  0  0  0  0  0  0  0  0  0  0  0
   -2.6270   -2.5380   -0.9560 C   0  0  0  0  0  0  0  0  0  0  0  0
   -1.2270   -2.4930   -0.4790 C   0  0  2  0  0  0  0  0  0  0  0  0
   -1.0380   -3.6450    0.4620 C   0  0  0  0  0  0  0  0  0  0  0  0
   -0.7970   -3.4420    1.7290 C   0  0  0  0  0  0  0  0  0  0  0  0
   -0.5970   -4.5030    2.7160 C   0  0  0  0  0  0  0  0  0  0  0  0
   -1.1630   -4.9900   -0.0750 C   0  0  0  0  0  0  0  0  0  0  0  0
   -1.4080   -5.3020   -1.3270 C   0  0  0  0  0  0  0  0  0  0  0  0
   -0.9850   -6.4250    0.9790 Cl  0  0  0  0  0  0  0  0  0  0  0  0
   -0.7290   -1.1870    0.0240 C   0  0  0  0  0  0  0  0  0  0  0  0
    0.7600   -1.0210    0.0830 C   0  0  1  0  0  0  0  0  0  0  0  0
    1.5450   -1.7410   -0.9420 C   0  0  0  0  0  0  0  0  0  0  0  0
    0.8520   -3.1030   -1.1780 C   0  0  0  0  0  0  0  0  0  0  0  0
   -0.4130   -2.8100   -1.6020 O   0  0  0  0  0  0  0  0  0  0  0  0
    5.8930    0.1350   -0.2250 C   0  0  0  0  0  0  0  0  0  0  0  0
    7.2080    0.4260    0.2850 N   0  0  0  0  0  0  0  0  0  0  0  0
  1  2  2  0
  2  3  1  0
  2 41  1  0
  3  4  1  0
  4  5  2  0
  4  6  1  0
  6  7  1  0
  6 40  2  0
  7  8  1  0
  9  8  1  6
  9 10  1  0
  9 36  1  0
 10 11  1  0
 11 12  1  0
 12 13  2  0
 12 14  1  0
 14 15  1  0
 14 19  1  0
 15 16  1  0
 16 17  1  0
 17 18  1  1
 17 20  1  0
 18 19  1  0
 20 21  2  0
 20 22  1  0
 22 23  1  0
 23 24  2  0
 24 25  1  0
 25 26  1  1
 25 27  1  0
 27 28  1  0
 28 29  1  1
 28 35  1  0
 28 39  1  0
 29 30  2  3
 29 32  1  0
 30 31  1  0
 32 33  2  0
 32 34  1  0
 35 36  1  0
 36 37  1  6
 37 38  1  0
 38 39  1  0
 40 41  1  0
M  END
