
     RDKit          3D

 41 45  0  0  0  0  0  0  0  0999 V2000
   -7.0450   -6.4310    0.3880 C   0  0  0  0  0  0  0  0  0  0  0  0
   -7.1940   -5.1110    0.8620 O   0  0  0  0  0  0  0  0  0  0  0  0
   -6.1960   -4.1920    0.5920 C   0  0  0  0  0  0  0  0  0  0  0  0
   -5.0900   -4.5690   -0.1230 C   0  0  0  0  0  0  0  0  0  0  0  0
   -4.0860   -3.6730   -0.4030 C   0  0  0  0  0  0  0  0  0  0  0  0
   -4.2290   -2.3690    0.0630 C   0  0  0  0  0  0  0  0  0  0  0  0
   -3.2230   -1.4310   -0.2050 C   0  0  0  0  0  0  0  0  0  0  0  0
   -3.2650   -0.1290    0.2060 C   0  0  0  0  0  0  0  0  0  0  0  0
   -2.2210    0.8630   -0.0130 C   0  0  0  0  0  0  0  0  0  0  0  0
   -2.3970    2.2250    0.2940 C   0  0  0  0  0  0  0  0  0  0  0  0
   -1.2250    2.8800    0.0030 C   0  0  0  0  0  0  0  0  0  0  0  0
   -1.0260    4.3100    0.1910 C   0  0  0  0  0  0  0  0  0  0  0  0
   -2.0190    5.1280    0.6850 C   0  0  0  0  0  0  0  0  0  0  0  0
   -1.7900    6.4800    0.8480 C   0  0  0  0  0  0  0  0  0  0  0  0
   -3.0220    7.5280    1.4660 Cl  0  0  0  0  0  0  0  0  0  0  0  0
   -0.5660    7.0030    0.5150 C   0  0  0  0  0  0  0  0  0  0  0  0
    0.4300    6.1790    0.0190 C   0  0  0  0  0  0  0  0  0  0  0  0
    1.9890    6.8510   -0.4040 Cl  0  0  0  0  0  0  0  0  0  0  0  0
    0.2080    4.8300   -0.1460 C   0  0  0  0  0  0  0  0  0  0  0  0
   -0.4060    1.9550   -0.4490 N   0  0  0  0  0  0  0  0  0  0  0  0
   -0.9750    0.7730   -0.4620 N   0  0  0  0  0  0  0  0  0  0  0  0
   -0.2360   -0.3940   -0.9030 C   0  0  1  0  0  0  0  0  0  0  0  0
   -0.4490   -0.6730   -2.3730 C   0  0  0  0  0  0  0  0  0  0  0  0
    1.2490   -0.1250   -0.7880 C   0  0  0  0  0  0  0  0  0  0  0  0
    1.9420   -0.6590    0.2610 C   0  0  0  0  0  0  0  0  0  0  0  0
    3.3030   -0.4520    0.4430 C   0  0  0  0  0  0  0  0  0  0  0  0
    3.9970    0.3070   -0.4410 C   0  0  0  0  0  0  0  0  0  0  0  0
    5.4190    0.5770   -0.3330 C   0  0  0  0  0  0  0  0  0  0  0  0
    6.0260    1.3040   -1.1870 O   0  0  0  0  0  0  0  0  0  0  0  0
    6.2240    0.0610    0.7140 N   0  0  0  0  0  0  0  0  0  0  0  0
    7.6470    0.3450    0.8020 C   0  0  0  0  0  0  0  0  0  0  0  0
    8.4010   -0.1340   -0.3970 C   0  0  0  0  0  0  0  0  0  0  0  0
    8.2130   -1.6030   -0.5000 C   0  0  0  0  0  0  0  0  0  0  0  0
    7.5150   -2.2530    0.3340 O   0  0  0  0  0  0  0  0  0  0  0  0
    8.8050   -2.3150   -1.5250 O   0  0  0  0  0  0  0  0  0  0  0  0
    3.3130    0.8610   -1.5160 C   0  0  0  0  0  0  0  0  0  0  0  0
    1.9490    0.6420   -1.6810 C   0  0  0  0  0  0  0  0  0  0  0  0
   -4.4010    0.2240    0.9300 C   0  0  0  0  0  0  0  0  0  0  0  0
   -5.4000   -0.6840    1.2030 C   0  0  0  0  0  0  0  0  0  0  0  0
   -5.3360   -1.9900    0.7790 C   0  0  0  0  0  0  0  0  0  0  0  0
   -6.3500   -2.8960    1.0620 C   0  0  0  0  0  0  0  0  0  0  0  0
  1  2  1  0
  2  3  1  0
  3  4  2  0
  3 41  1  0
  4  5  1  0
  5  6  2  0
  6  7  1  0
  6 40  1  0
  7  8  2  0
  8  9  1  0
  8 38  1  0
  9 10  2  0
  9 21  1  0
 10 11  1  0
 11 12  1  0
 11 20  2  0
 12 13  2  0
 12 19  1  0
 13 14  1  0
 14 15  1  0
 14 16  2  0
 16 17  1  0
 17 18  1  0
 17 19  2  0
 20 21  1  0
 21 22  1  0
 22 23  1  6
 22 24  1  0
 24 25  2  0
 24 37  1  0
 25 26  1  0
 26 27  2  0
 27 28  1  0
 27 36  1  0
 28 29  2  0
 28 30  1  0
 30 31  1  0
 31 32  1  0
 32 33  1  0
 33 34  2  0
 33 35  1  0
 36 37  2  0
 38 39  2  0
 39 40  1  0
 40 41  2  0
M  END
