
     RDKit          3D

 41 44  0  0  0  0  0  0  0  0999 V2000
   -4.1820    3.1740   -1.4020 C   0  0  0  0  0  0  0  0  0  0  0  0
   -3.1730    2.2520   -0.7450 C   0  0  2  0  0  0  0  0  0  0  0  0
   -2.0290    2.0740   -1.6830 C   0  0  0  0  0  0  0  0  0  0  0  0
   -1.4040    3.4640   -1.8840 C   0  0  0  0  0  0  0  0  0  0  0  0
   -0.0390    3.3910   -2.0130 O   0  0  0  0  0  0  0  0  0  0  0  0
    0.5850    4.1210   -0.9750 C   0  0  0  0  0  0  0  0  0  0  0  0
    1.5420    3.3070   -0.1200 C   0  0  0  0  0  0  0  0  0  0  0  0
    2.8760    3.6050   -0.0450 C   0  0  0  0  0  0  0  0  0  0  0  0
    3.7580    2.8390    0.7570 C   0  0  0  0  0  0  0  0  0  0  0  0
    3.3500    1.7600    1.5080 C   0  0  0  0  0  0  0  0  0  0  0  0
    2.0060    1.4850    1.4110 C   0  0  0  0  0  0  0  0  0  0  0  0
    1.1080    2.2370    0.6160 C   0  0  0  0  0  0  0  0  0  0  0  0
    4.2960    0.9490    2.3590 C   0  0  0  0  0  0  0  0  0  0  0  0
    4.9180   -0.1160    1.7970 C   0  0  0  0  0  0  0  0  0  0  0  0
    5.4960   -0.0380    0.4160 C   0  0  1  0  0  0  0  0  0  0  0  0
    6.9980   -0.0690    0.5460 C   0  0  0  0  0  0  0  0  0  0  0  0
    7.5620    1.0350    1.3350 C   0  0  0  0  0  0  0  0  0  0  0  0
    6.8320    1.8680    1.8140 O   0  0  0  0  0  0  0  0  0  0  0  0
    5.0180   -1.4500   -0.5610 S   0  0  1  0  0  0  0  0  0  0  0  0
    5.2330   -1.0750   -2.0010 O   0  0  0  0  0  0  0  0  0  0  0  0
    5.9130   -2.6080   -0.2400 O   0  0  0  0  0  0  0  0  0  0  0  0
    3.3480   -1.8440   -0.3510 N   0  0  0  0  0  0  0  0  0  0  0  0
    3.2630   -2.9650    0.5310 C   0  0  0  0  0  0  0  0  0  0  0  0
    2.4210   -4.1150   -0.0170 C   0  0  0  0  0  0  0  0  0  0  0  0
    0.9590   -3.7810   -0.0590 C   0  0  0  0  0  0  0  0  0  0  0  0
    0.4020   -3.1810   -1.1550 C   0  0  0  0  0  0  0  0  0  0  0  0
   -0.9860   -2.8590   -1.2070 C   0  0  0  0  0  0  0  0  0  0  0  0
   -1.9130   -3.1040   -0.1960 C   0  0  0  0  0  0  0  0  0  0  0  0
   -1.3240   -3.7040    0.8940 C   0  0  0  0  0  0  0  0  0  0  0  0
   -1.9820   -4.2130    2.5340 Cl  0  0  0  0  0  0  0  0  0  0  0  0
    0.0670   -4.0330    0.9620 C   0  0  0  0  0  0  0  0  0  0  0  0
   -3.3280   -2.7090   -0.3770 C   0  0  0  0  0  0  0  0  0  0  0  0
   -4.3610   -3.3870   -0.8460 O   0  0  0  0  0  0  0  0  0  0  0  0
   -3.8080   -1.3730   -0.0240 N   0  0  0  0  0  0  0  0  0  0  0  0
   -5.1460   -1.1420    0.4540 C   0  0  2  0  0  0  0  0  0  0  0  0
   -5.8980   -2.3790    0.8470 C   0  0  0  0  0  0  0  0  0  0  0  0
   -5.8850   -0.4320   -0.6610 C   0  0  0  0  0  0  0  0  0  0  0  0
   -5.0880    0.7520   -1.1070 C   0  0  0  0  0  0  0  0  0  0  0  0
   -3.8620    1.0290   -0.2840 C   0  0  1  0  0  0  0  0  0  0  0  0
   -2.9760   -0.1900   -0.1260 C   0  0  1  0  0  0  0  0  0  0  0  0
   -2.2050    0.0350    1.1820 C   0  0  0  0  0  0  0  0  0  0  0  0
  2  1  1  6
  2  3  1  0
  2 39  1  0
  3  4  1  0
  4  5  1  0
  5  6  1  0
  6  7  1  0
  7  8  2  0
  7 12  1  0
  8  9  1  0
  9 10  2  0
 10 11  1  0
 10 13  1  0
 11 12  2  0
 13 14  2  0
 14 15  1  0
 15 16  1  1
 15 19  1  0
 16 17  1  0
 17 18  2  0
 19 20  2  0
 19 21  2  0
 19 22  1  6
 22 23  1  0
 23 24  1  0
 24 25  1  0
 25 26  2  0
 25 31  1  0
 26 27  1  0
 27 28  2  0
 28 29  1  0
 28 32  1  0
 29 30  1  0
 29 31  2  0
 32 33  2  0
 32 34  1  0
 34 35  1  0
 34 40  1  0
 35 36  1  6
 35 37  1  0
 37 38  1  0
 39 38  1  6
 39 40  1  0
 40 41  1  1
M  END
