
     RDKit          3D

 41 44  0  0  0  0  0  0  0  0999 V2000
   -2.3420   -2.1740   -1.9880 C   0  0  0  0  0  0  0  0  0  0  0  0
   -3.5120   -1.2270   -2.1710 C   0  0  1  0  0  0  0  0  0  0  0  0
   -3.1390   -0.2790   -3.2800 C   0  0  0  0  0  0  0  0  0  0  0  0
   -4.7070   -2.0700   -2.4770 C   0  0  0  0  0  0  0  0  0  0  0  0
   -5.8480   -1.8860   -1.5330 C   0  0  2  0  0  0  0  0  0  0  0  0
   -6.7810   -0.7880   -2.0040 C   0  0  0  0  0  0  0  0  0  0  0  0
   -7.3380   -1.1080   -3.3190 C   0  0  0  0  0  0  0  0  0  0  0  0
   -8.1100    0.0230   -3.9070 N   0  0  0  0  0  0  0  0  0  0  0  0
   -7.2860   -2.0870   -3.9940 O   0  0  0  0  0  0  0  0  0  0  0  0
   -5.5660   -1.7530   -0.0980 C   0  0  0  0  0  0  0  0  0  0  0  0
   -4.2590   -1.1470    0.2380 C   0  0  2  0  0  0  0  0  0  0  0  0
   -3.3520   -2.1720    0.6880 O   0  0  0  0  0  0  0  0  0  0  0  0
   -4.3960   -0.2400    1.4570 C   0  0  2  0  0  0  0  0  0  0  0  0
   -4.7970   -1.0780    2.6230 C   0  0  0  0  0  0  0  0  0  0  0  0
   -5.6260    0.6980    1.1970 C   0  0  0  0  0  0  0  0  0  0  0  0
   -3.2850    0.6680    1.7060 C   0  0  0  0  0  0  0  0  0  0  0  0
   -1.9060    0.0950    1.9520 C   0  0  0  0  0  0  0  0  0  0  0  0
   -1.7850   -0.7500    2.7720 O   0  0  0  0  0  0  0  0  0  0  0  0
   -0.7840    0.6170    1.1490 C   0  0  0  0  0  0  0  0  0  0  0  0
    0.2710    1.1790    1.9520 C   0  0  0  0  0  0  0  0  0  0  0  0
    1.6100    1.1240    1.6980 C   0  0  0  0  0  0  0  0  0  0  0  0
    2.5260    1.6700    2.4710 C   0  0  0  0  0  0  0  0  0  0  0  0
    3.9870    1.6810    2.1650 C   0  0  0  0  0  0  0  0  0  0  0  0
    4.6950    2.5340    2.6730 O   0  0  0  0  0  0  0  0  0  0  0  0
    4.5260    0.7070    1.2850 N   0  0  0  0  0  0  0  0  0  0  0  0
    5.8510    0.5890    0.8710 C   0  0  0  0  0  0  0  0  0  0  0  0
    6.0720   -0.2750   -0.2160 C   0  0  0  0  0  0  0  0  0  0  0  0
    7.3650   -0.4330   -0.6640 C   0  0  0  0  0  0  0  0  0  0  0  0
    8.4050    0.2150   -0.0840 C   0  0  0  0  0  0  0  0  0  0  0  0
    8.2100    1.0720    1.0010 C   0  0  0  0  0  0  0  0  0  0  0  0
    6.9110    1.2400    1.4570 C   0  0  0  0  0  0  0  0  0  0  0  0
    9.3800    1.6790    1.5820 C   0  0  0  0  0  0  0  0  0  0  0  0
    9.2550    2.0800    2.7950 O   0  0  0  0  0  0  0  0  0  0  0  0
   10.6470    1.8470    0.8660 C   0  0  0  0  0  0  0  0  0  0  0  0
   10.6030    1.2650   -0.5030 C   0  0  2  0  0  0  0  0  0  0  0  0
    9.9220    2.3270   -1.3540 C   0  0  0  0  0  0  0  0  0  0  0  0
    9.3580    3.1890   -2.0470 N   0  0  0  0  0  0  0  0  0  0  0  0
    9.7730    0.0330   -0.6160 C   0  0  0  0  0  0  0  0  0  0  0  0
    2.0460    2.3510    3.6400 C   0  0  0  0  0  0  0  0  0  0  0  0
    0.2620    2.0990    3.4490 S   0  0  0  0  0  0  0  0  0  0  0  0
   -3.6690   -0.4340   -0.8990 C   0  0  0  0  0  0  0  0  0  0  0  0
  2  1  1  1
  2  3  1  0
  2  4  1  0
  2 41  1  0
  4  5  1  0
  5  6  1  6
  5 10  1  0
  6  7  1  0
  7  8  1  0
  7  9  2  0
 10 11  1  0
 11 12  1  1
 11 13  1  0
 11 41  1  0
 13 14  1  1
 13 15  1  0
 13 16  1  0
 16 17  1  0
 17 18  2  0
 17 19  1  0
 19 20  1  0
 20 21  2  0
 20 40  1  0
 21 22  1  0
 22 23  1  0
 22 39  2  0
 23 24  2  0
 23 25  1  0
 25 26  1  0
 26 27  2  0
 26 31  1  0
 27 28  1  0
 28 29  2  0
 29 30  1  0
 29 38  1  0
 30 31  2  0
 30 32  1  0
 32 33  2  0
 32 34  1  0
 34 35  1  0
 35 36  1  6
 35 38  1  0
 36 37  3  0
 39 40  1  0
M  END
