
     RDKit          3D

 41 44  0  0  0  0  0  0  0  0999 V2000
    1.7600   -4.2740   -3.1490 C   0  0  0  0  0  0  0  0  0  0  0  0
    1.8430   -4.5080   -1.8650 C   0  0  0  0  0  0  0  0  0  0  0  0
    2.2630   -5.8380   -1.3900 C   0  0  0  0  0  0  0  0  0  0  0  0
    1.5290   -3.4760   -0.8390 C   0  0  0  0  0  0  0  0  0  0  0  0
    1.6620   -3.8410    0.4310 C   0  0  0  0  0  0  0  0  0  0  0  0
    1.4160   -2.9870    1.5900 C   0  0  0  0  0  0  0  0  0  0  0  0
    2.2060   -1.9730    1.9530 C   0  0  0  0  0  0  0  0  0  0  0  0
    3.6750   -1.5160    1.0730 S   0  0  0  0  0  0  0  0  0  0  0  0
    4.6180   -0.1960    1.8030 C   0  0  0  0  0  0  0  0  0  0  0  0
    3.8450    1.0410    2.1430 C   0  0  0  0  0  0  0  0  0  0  0  0
    4.5650    2.3300    1.8800 C   0  0  2  0  0  0  0  0  0  0  0  0
    3.7740    3.3650    2.4460 O   0  0  0  0  0  0  0  0  0  0  0  0
    4.6110    2.5950    0.3860 C   0  0  0  0  0  0  0  0  0  0  0  0
    3.5820    1.8910   -0.4360 C   0  0  0  0  0  0  0  0  0  0  0  0
    3.8920    0.8790   -1.3180 C   0  0  0  0  0  0  0  0  0  0  0  0
    2.8550    0.2210   -2.0550 C   0  0  0  0  0  0  0  0  0  0  0  0
    3.5480   -1.0320   -3.1790 Cl  0  0  0  0  0  0  0  0  0  0  0  0
    1.5620    0.5460   -1.9280 C   0  0  0  0  0  0  0  0  0  0  0  0
    1.2890    1.5620   -1.0390 C   0  0  0  0  0  0  0  0  0  0  0  0
    2.2670    2.2480   -0.2850 C   0  0  0  0  0  0  0  0  0  0  0  0
   -0.1220    2.0350   -0.7910 C   0  0  0  0  0  0  0  0  0  0  0  0
   -0.1490    3.4440   -1.1900 N   0  0  0  0  0  0  0  0  0  0  0  0
   -1.3640    4.2020   -1.0380 C   0  0  0  0  0  0  0  0  0  0  0  0
   -1.3300    5.3790   -0.6400 O   0  0  0  0  0  0  0  0  0  0  0  0
   -2.6970    3.6180   -1.3450 C   0  0  0  0  0  0  0  0  0  0  0  0
   -3.6190    3.6980   -0.1470 C   0  0  0  0  0  0  0  0  0  0  0  0
   -3.9200    4.9230    0.1100 O   0  0  0  0  0  0  0  0  0  0  0  0
   -3.9640    2.4930    0.4380 N   0  0  0  0  0  0  0  0  0  0  0  0
   -5.0560    1.5910    0.0050 C   0  0  0  0  0  0  0  0  0  0  0  0
   -4.5250    0.2660   -0.4830 C   0  0  0  0  0  0  0  0  0  0  0  0
   -3.9810   -0.4680    0.7480 C   0  0  1  0  0  0  0  0  0  0  0  0
   -3.3670   -1.7410    0.2240 C   0  0  0  0  0  0  0  0  0  0  0  0
   -2.0050   -2.0560    0.7150 C   0  0  0  0  0  0  0  0  0  0  0  0
   -1.1860   -2.5450   -0.4650 C   0  0  0  0  0  0  0  0  0  0  0  0
   -0.1000   -1.5790   -0.8830 C   0  0  2  0  0  0  0  0  0  0  0  0
   -0.5530   -0.8150   -2.1420 C   0  0  0  0  0  0  0  0  0  0  0  0
    0.4090    0.0770   -2.5010 O   0  0  0  0  0  0  0  0  0  0  0  0
    1.1150   -2.2150   -1.2380 O   0  0  0  0  0  0  0  0  0  0  0  0
   -2.9130    0.4090    1.2950 C   0  0  0  0  0  0  0  0  0  0  0  0
   -3.3220    1.8370    1.5890 C   0  0  2  0  0  0  0  0  0  0  0  0
   -4.3000    1.8390    2.7650 C   0  0  0  0  0  0  0  0  0  0  0  0
  1  2  2  0
  2  3  1  0
  2  4  1  0
  4  5  2  0
  4 38  1  0
  5  6  1  0
  6  7  2  0
  7  8  1  0
  8  9  1  0
  9 10  1  0
 10 11  1  0
 11 12  1  1
 11 13  1  0
 13 14  1  0
 14 15  2  0
 14 20  1  0
 15 16  1  0
 16 17  1  0
 16 18  2  0
 18 19  1  0
 18 37  1  0
 19 20  2  0
 19 21  1  0
 21 22  1  0
 22 23  1  0
 23 24  2  0
 23 25  1  0
 25 26  1  0
 26 27  2  0
 26 28  1  0
 28 29  1  0
 28 40  1  0
 29 30  1  0
 30 31  1  0
 31 32  1  6
 31 39  1  0
 32 33  1  0
 33 34  1  0
 35 34  1  6
 35 36  1  0
 35 38  1  0
 36 37  1  0
 39 40  1  0
 40 41  1  1
M  END
