
     RDKit          3D

 27 29  0  0  0  0  0  0  0  0999 V2000
    6.1770    1.2950    1.3000 C   0  0  0  0  0  0  0  0  0  0  0  0
    5.6760    1.1290   -0.1160 C   0  0  0  0  0  0  0  0  0  0  0  0
    4.3250    0.5590   -0.1780 C   0  0  0  0  0  0  0  0  0  0  0  0
    3.2100    1.3190    0.0940 C   0  0  0  0  0  0  0  0  0  0  0  0
    3.3690    2.7480    0.4550 C   0  0  0  0  0  0  0  0  0  0  0  0
    1.9460    0.7190    0.0200 C   0  0  0  0  0  0  0  0  0  0  0  0
    1.7610   -0.5960   -0.3110 C   0  0  0  0  0  0  0  0  0  0  0  0
    0.4900   -1.3110   -0.4150 C   0  0  0  0  0  0  0  0  0  0  0  0
   -0.6690   -0.5020   -0.1340 N   0  0  0  0  0  0  0  0  0  0  0  0
   -1.9640   -1.1470   -0.2180 C   0  0  0  0  0  0  0  0  0  0  0  0
   -2.0130   -2.3570   -0.5250 O   0  0  0  0  0  0  0  0  0  0  0  0
   -3.1580   -0.4430    0.0370 N   0  0  0  0  0  0  0  0  0  0  0  0
   -4.4760   -0.9260   -0.0030 C   0  0  0  0  0  0  0  0  0  0  0  0
   -4.7810   -2.1920   -0.3010 N   0  0  0  0  0  0  0  0  0  0  0  0
   -6.0750   -2.6370   -0.3310 C   0  0  0  0  0  0  0  0  0  0  0  0
   -7.0880   -1.7550   -0.0460 C   0  0  0  0  0  0  0  0  0  0  0  0
   -6.7850   -0.4500    0.2620 C   0  0  0  0  0  0  0  0  0  0  0  0
   -5.4880   -0.0020    0.2920 C   0  0  0  0  0  0  0  0  0  0  0  0
   -5.2160    1.3580    0.6140 N   0  0  0  0  0  0  0  0  0  0  0  0
   -4.6970    1.8400    1.7590 C   0  0  0  0  0  0  0  0  0  0  0  0
   -4.5850    3.2090    1.6870 C   0  0  0  0  0  0  0  0  0  0  0  0
   -5.0590    3.5500    0.4420 C   0  0  0  0  0  0  0  0  0  0  0  0
   -5.4220    2.4150   -0.1580 N   0  0  0  0  0  0  0  0  0  0  0  0
    2.9260   -1.3270   -0.5790 C   0  0  0  0  0  0  0  0  0  0  0  0
    2.8200   -2.7800   -0.9510 C   0  0  0  0  0  0  0  0  0  0  0  0
    4.1870   -0.7870   -0.5200 C   0  0  0  0  0  0  0  0  0  0  0  0
    5.3750   -1.6200   -0.8150 C   0  0  0  0  0  0  0  0  0  0  0  0
  1  2  1  0
  2  3  1  0
  3  4  2  0
  3 26  1  0
  4  5  1  0
  4  6  1  0
  6  7  2  0
  7  8  1  0
  7 24  1  0
  8  9  1  0
  9 10  1  0
 10 11  2  0
 10 12  1  0
 12 13  1  0
 13 14  2  0
 13 18  1  0
 14 15  1  0
 15 16  2  0
 16 17  1  0
 17 18  2  0
 18 19  1  0
 19 20  1  0
 19 23  1  0
 20 21  2  0
 21 22  1  0
 22 23  2  0
 24 25  1  0
 24 26  2  0
 26 27  1  0
M  CHG  1  14   1
M  END
