
     RDKit          3D

 27 30  0  0  0  0  0  0  0  0999 V2000
   -5.8930   -1.0670    1.1610 C   0  0  0  0  0  0  0  0  0  0  0  0
   -4.7040   -0.1490    1.2120 C   0  0  0  0  0  0  0  0  0  0  0  0
   -4.1780    0.3030    0.0850 C   0  0  0  0  0  0  0  0  0  0  0  0
   -4.7940   -0.1220   -1.2030 C   0  0  0  0  0  0  0  0  0  0  0  0
   -3.8570   -0.9320   -2.0180 C   0  0  0  0  0  0  0  0  0  0  0  0
   -2.5430   -1.1030   -1.9600 C   0  0  0  0  0  0  0  0  0  0  0  0
   -1.5970   -0.5070   -1.0240 C   0  0  0  0  0  0  0  0  0  0  0  0
   -1.7770    0.4760   -0.0770 C   0  0  0  0  0  0  0  0  0  0  0  0
   -0.7190    0.8400    0.6560 N   0  0  0  0  0  0  0  0  0  0  0  0
    0.5210    0.2800    0.5020 C   0  0  0  0  0  0  0  0  0  0  0  0
    0.7100   -0.6800   -0.4170 C   0  0  0  0  0  0  0  0  0  0  0  0
   -0.3670   -1.1030   -1.2170 C   0  0  0  0  0  0  0  0  0  0  0  0
   -0.1800   -2.1070   -2.1840 N   0  0  0  0  0  0  0  0  0  0  0  0
    2.0290   -1.3430   -0.6460 C   0  0  0  0  0  0  0  0  0  0  0  0
    2.8220   -1.1190    0.6270 C   0  0  0  0  0  0  0  0  0  0  0  0
    2.8620    0.2670    0.9630 N   0  0  0  0  0  0  0  0  0  0  0  0
    3.9080    1.1400    0.8580 C   0  0  0  0  0  0  0  0  0  0  0  0
    3.6880    2.3520    1.3340 O   0  0  0  0  0  0  0  0  0  0  0  0
    5.2190    0.9390    0.3060 C   0  0  0  0  0  0  0  0  0  0  0  0
    6.2430    1.8650    0.5960 C   0  0  0  0  0  0  0  0  0  0  0  0
    7.4540    1.7580    0.0570 N   0  0  0  0  0  0  0  0  0  0  0  0
    7.7630    0.7690   -0.7860 C   0  0  0  0  0  0  0  0  0  0  0  0
    6.8230   -0.1180   -1.0800 N   0  0  0  0  0  0  0  0  0  0  0  0
    5.5640   -0.0540   -0.5560 C   0  0  0  0  0  0  0  0  0  0  0  0
    1.5460    0.8470    1.4290 C   0  0  0  0  0  0  0  0  0  0  0  0
   -3.0180    1.1940    0.2380 C   0  0  2  0  0  0  0  0  0  0  0  0
   -2.9860    1.8880    1.5760 C   0  0  0  0  0  0  0  0  0  0  0  0
  1  2  1  0
  2  3  2  3
  3  4  1  0
  3 26  1  0
  4  5  1  0
  5  6  2  0
  6  7  1  0
  7  8  2  0
  7 12  1  0
  8  9  1  0
  8 26  1  0
  9 10  2  0
 10 11  1  0
 10 25  1  0
 11 12  2  0
 11 14  1  0
 12 13  1  0
 14 15  1  0
 15 16  1  0
 16 17  1  0
 16 25  1  0
 17 18  2  0
 17 19  1  0
 19 20  2  0
 19 24  1  0
 20 21  1  0
 21 22  2  0
 22 23  1  0
 23 24  2  0
 26 27  1  1
M  CHG  1   9   1
M  END
