
     RDKit          3D

 27 29  0  0  0  0  0  0  0  0999 V2000
   -0.5940   -3.5340   -1.7330 C   0  0  0  0  0  0  0  0  0  0  0  0
   -0.9120   -2.0570   -1.6870 C   0  0  0  0  0  0  0  0  0  0  0  0
   -1.1450   -1.6490   -0.2510 C   0  0  1  0  0  0  0  0  0  0  0  0
   -2.3080   -2.4540    0.2820 C   0  0  0  0  0  0  0  0  0  0  0  0
    0.0640   -2.0990    0.5570 C   0  0  0  0  0  0  0  0  0  0  0  0
    1.2110   -1.3600    0.2710 N   0  0  0  0  0  0  0  0  0  0  0  0
    2.4710   -1.9550    0.4200 C   0  0  0  0  0  0  0  0  0  0  0  0
    3.3510   -1.0170    1.2550 C   0  0  0  0  0  0  0  0  0  0  0  0
    3.5530    0.3070    0.5930 C   0  0  1  0  0  0  0  0  0  0  0  0
    4.7510    0.3560   -0.2200 N   0  0  0  0  0  0  0  0  0  0  0  0
    4.8130    1.6710   -0.8270 C   0  0  0  0  0  0  0  0  0  0  0  0
    6.2350    2.2080   -0.8320 C   0  0  0  0  0  0  0  0  0  0  0  0
    6.6600    2.2810    0.5530 N   0  0  0  0  0  0  0  0  0  0  0  0
    2.3590    0.6560   -0.2670 C   0  0  0  0  0  0  0  0  0  0  0  0
    1.1380    0.0530    0.4040 C   0  0  1  0  0  0  0  0  0  0  0  0
   -0.1210    0.6620   -0.1080 C   0  0  0  0  0  0  0  0  0  0  0  0
   -1.2630   -0.2350   -0.0670 N   0  0  0  0  0  0  0  0  0  0  0  0
   -2.5170    0.3480    0.1860 C   0  0  0  0  0  0  0  0  0  0  0  0
   -2.6210    1.3360    1.1320 C   0  0  0  0  0  0  0  0  0  0  0  0
   -3.8040    1.9710    1.4130 C   0  0  0  0  0  0  0  0  0  0  0  0
   -4.9400    1.6170    0.7330 C   0  0  0  0  0  0  0  0  0  0  0  0
   -6.1260    2.2730    1.0360 O   0  0  0  0  0  0  0  0  0  0  0  0
   -6.2290    3.2800    2.0000 C   0  0  0  0  0  0  0  0  0  0  0  0
   -4.8610    0.6280   -0.2200 C   0  0  0  0  0  0  0  0  0  0  0  0
   -6.0240    0.2870   -0.8950 O   0  0  0  0  0  0  0  0  0  0  0  0
   -6.0320   -0.7230   -1.8950 C   0  0  0  0  0  0  0  0  0  0  0  0
   -3.6530   -0.0060   -0.4940 C   0  0  0  0  0  0  0  0  0  0  0  0
  1  2  1  0
  2  3  1  0
  3  4  1  1
  3  5  1  0
  3 17  1  0
  5  6  1  0
  6  7  1  0
  6 15  1  0
  7  8  1  0
  8  9  1  0
  9 10  1  6
  9 14  1  0
 10 11  1  0
 11 12  1  0
 12 13  1  0
 15 14  1  6
 15 16  1  0
 16 17  1  0
 17 18  1  0
 18 19  2  0
 18 27  1  0
 19 20  1  0
 20 21  2  0
 21 22  1  0
 21 24  1  0
 22 23  1  0
 24 25  1  0
 24 27  2  0
 25 26  1  0
M  CHG  2  10   1  13   1
M  END
