
     RDKit          3D

 27 30  0  0  0  0  0  0  0  0999 V2000
    5.2000    3.7300    0.6960 C   0  0  0  0  0  0  0  0  0  0  0  0
    4.1510    2.8570    0.1250 N   0  0  0  0  0  0  0  0  0  0  0  0
    3.7720    1.7460    0.9000 C   0  0  0  0  0  0  0  0  0  0  0  0
    4.3510    1.5870    2.0390 O   0  0  0  0  0  0  0  0  0  0  0  0
    2.7720    0.7710    0.5130 C   0  0  0  0  0  0  0  0  0  0  0  0
    2.0940    0.1220    1.5790 C   0  0  0  0  0  0  0  0  0  0  0  0
    1.1170   -0.7620    1.3500 N   0  0  0  0  0  0  0  0  0  0  0  0
    0.7120   -1.0940    0.1090 C   0  0  0  0  0  0  0  0  0  0  0  0
   -0.3290   -2.0510   -0.0070 N   0  0  0  0  0  0  0  0  0  0  0  0
    0.1730   -3.4000   -0.1830 C   0  0  0  0  0  0  0  0  0  0  0  0
   -0.7610   -4.3160   -0.9020 C   0  0  0  0  0  0  0  0  0  0  0  0
   -2.0980   -4.4730   -0.2220 C   0  0  0  0  0  0  0  0  0  0  0  0
   -3.0550   -3.5340   -0.8950 C   0  0  0  0  0  0  0  0  0  0  0  0
   -2.4010   -2.2160   -1.1880 C   0  0  0  0  0  0  0  0  0  0  0  0
   -1.6970   -1.6750    0.0560 C   0  0  2  0  0  0  0  0  0  0  0  0
   -1.9480   -0.2240    0.2060 C   0  0  0  0  0  0  0  0  0  0  0  0
   -1.3600    0.7930   -0.4440 N   0  0  0  0  0  0  0  0  0  0  0  0
   -1.8670    1.9640   -0.0250 C   0  0  0  0  0  0  0  0  0  0  0  0
   -1.6400    3.2780   -0.3410 C   0  0  0  0  0  0  0  0  0  0  0  0
   -2.3370    4.3220    0.2730 C   0  0  0  0  0  0  0  0  0  0  0  0
   -3.2920    4.0150    1.2340 C   0  0  0  0  0  0  0  0  0  0  0  0
   -3.5280    2.6980    1.5600 C   0  0  0  0  0  0  0  0  0  0  0  0
   -2.8260    1.6840    0.9390 C   0  0  0  0  0  0  0  0  0  0  0  0
   -2.8390    0.3310    1.0460 N   0  0  0  0  0  0  0  0  0  0  0  0
    1.3540   -0.4810   -0.9220 C   0  0  0  0  0  0  0  0  0  0  0  0
    2.3800    0.4480   -0.7530 C   0  0  0  0  0  0  0  0  0  0  0  0
    3.0680    1.0310   -1.9260 C   0  0  0  0  0  0  0  0  0  0  0  0
  1  2  1  0
  2  3  1  0
  3  4  2  0
  3  5  1  0
  5  6  2  0
  5 26  1  0
  6  7  1  0
  7  8  2  0
  8  9  1  0
  8 25  1  0
  9 10  1  0
  9 15  1  0
 10 11  1  0
 11 12  1  0
 12 13  1  0
 13 14  1  0
 14 15  1  0
 15 16  1  6
 16 17  2  0
 16 24  1  0
 17 18  1  0
 18 19  2  0
 18 23  1  0
 19 20  1  0
 20 21  2  0
 21 22  1  0
 22 23  2  0
 23 24  1  0
 25 26  2  0
 26 27  1  0
M  CHG  1   7   1
M  END
