
     RDKit          3D

 27 31  0  0  0  0  0  0  0  0999 V2000
   -8.3230   -0.5230   -0.5510 C   0  0  0  0  0  0  0  0  0  0  0  0
   -7.2020    0.0930   -0.8960 C   0  0  0  0  0  0  0  0  0  0  0  0
   -6.8990    1.0250   -1.8910 C   0  0  0  0  0  0  0  0  0  0  0  0
   -5.6310    1.5300   -2.0560 C   0  0  0  0  0  0  0  0  0  0  0  0
   -4.5970    1.1320   -1.2350 C   0  0  0  0  0  0  0  0  0  0  0  0
   -3.3160    1.6260   -1.3820 C   0  0  0  0  0  0  0  0  0  0  0  0
   -2.3060    1.2320   -0.5750 N   0  0  0  0  0  0  0  0  0  0  0  0
   -2.5710    0.3280    0.3990 C   0  0  0  0  0  0  0  0  0  0  0  0
   -1.5770   -0.1080    1.2930 N   0  0  0  0  0  0  0  0  0  0  0  0
   -0.2230    0.3650    1.1900 C   0  0  0  0  0  0  0  0  0  0  0  0
    0.4890   -0.3070    0.0620 C   0  0  0  0  0  0  0  0  0  0  0  0
    1.8980    0.1900   -0.0720 C   0  0  0  0  0  0  0  0  0  0  0  0
    2.3620    1.2190   -0.8010 N   0  0  0  0  0  0  0  0  0  0  0  0
    3.6760    1.2700   -0.5980 N   0  0  0  0  0  0  0  0  0  0  0  0
    4.0270    0.2910    0.2430 C   0  0  0  0  0  0  0  0  0  0  0  0
    5.3590   -0.0800    0.7840 C   0  0  0  0  0  0  0  0  0  0  0  0
    5.9750   -1.0810   -0.0800 N   0  0  0  0  0  0  0  0  0  0  0  0
    7.2810   -1.4630    0.4380 C   0  0  0  0  0  0  0  0  0  0  0  0
    8.1770   -0.2760    0.1820 C   0  0  0  0  0  0  0  0  0  0  0  0
    7.5850    0.3310   -1.0770 C   0  0  0  0  0  0  0  0  0  0  0  0
    6.3220   -0.4830   -1.3550 C   0  0  0  0  0  0  0  0  0  0  0  0
    2.9150   -0.3350    0.5330 O   0  0  0  0  0  0  0  0  0  0  0  0
   -3.8500   -0.1760    0.5590 C   0  0  0  0  0  0  0  0  0  0  0  0
   -4.8840    0.2130   -0.2500 C   0  0  0  0  0  0  0  0  0  0  0  0
   -6.1740   -0.3080   -0.0750 C   0  0  0  0  0  0  0  0  0  0  0  0
   -6.6020   -1.1910    0.8200 C   0  0  0  0  0  0  0  0  0  0  0  0
   -8.0480   -1.4100    0.5870 C   0  0  0  0  0  0  0  0  0  0  0  0
  1  2  2  0
  1 27  1  0
  2  3  1  0
  2 25  1  0
  3  4  2  0
  4  5  1  0
  5  6  2  0
  5 24  1  0
  6  7  1  0
  7  8  2  0
  8  9  1  0
  8 23  1  0
  9 10  1  0
 10 11  1  0
 11 12  1  0
 12 13  2  0
 12 22  1  0
 13 14  1  0
 14 15  2  0
 15 16  1  0
 15 22  1  0
 16 17  1  0
 17 18  1  0
 17 21  1  0
 18 19  1  0
 19 20  1  0
 20 21  1  0
 23 24  2  0
 24 25  1  0
 25 26  2  0
 26 27  1  0
M  CHG  1   7   1
M  END
