
     RDKit          3D

 27 30  0  0  0  0  0  0  0  0999 V2000
   -2.8670    1.1920   -2.5100 C   0  0  0  0  0  0  0  0  0  0  0  0
   -3.2480    1.7080   -1.3540 C   0  0  0  0  0  0  0  0  0  0  0  0
   -2.3770    1.8790   -0.2100 C   0  0  0  0  0  0  0  0  0  0  0  0
   -2.8920    2.4120    0.8940 C   0  0  0  0  0  0  0  0  0  0  0  0
   -4.3030    2.8210    0.9640 C   0  0  0  0  0  0  0  0  0  0  0  0
   -1.0090    1.4900   -0.2590 N   0  0  0  0  0  0  0  0  0  0  0  0
   -0.1570    1.9990   -1.2520 C   0  0  0  0  0  0  0  0  0  0  0  0
    1.0940    1.6840   -1.3560 N   0  0  0  0  0  0  0  0  0  0  0  0
    1.6920    0.7760   -0.4380 C   0  0  0  0  0  0  0  0  0  0  0  0
    0.9010    0.2470    0.5600 C   0  0  0  0  0  0  0  0  0  0  0  0
    1.6970   -0.5680    1.2710 N   0  0  0  0  0  0  0  0  0  0  0  0
    2.9440   -0.5650    0.7580 C   0  0  0  0  0  0  0  0  0  0  0  0
    4.1340   -1.2120    1.0950 C   0  0  0  0  0  0  0  0  0  0  0  0
    5.2820   -1.0200    0.3790 C   0  0  0  0  0  0  0  0  0  0  0  0
    5.2990   -0.1720   -0.7060 C   0  0  0  0  0  0  0  0  0  0  0  0
    6.5150    0.0640   -1.5050 C   0  0  0  0  0  0  0  0  0  0  0  0
    4.1190    0.4870   -1.0630 C   0  0  0  0  0  0  0  0  0  0  0  0
    2.9730    0.2780   -0.3290 C   0  0  0  0  0  0  0  0  0  0  0  0
   -0.5280    0.5540    0.7600 C   0  0  2  0  0  0  0  0  0  0  0  0
   -1.2590   -0.7260    0.7090 C   0  0  0  0  0  0  0  0  0  0  0  0
   -1.7420   -1.2870    1.8200 N   0  0  0  0  0  0  0  0  0  0  0  0
   -2.4120   -2.4600    1.8220 C   0  0  0  0  0  0  0  0  0  0  0  0
   -2.9480   -3.0860    3.0430 C   0  0  0  0  0  0  0  0  0  0  0  0
   -2.5800   -3.0700    0.5920 C   0  0  0  0  0  0  0  0  0  0  0  0
   -2.0930   -2.5140   -0.5660 C   0  0  0  0  0  0  0  0  0  0  0  0
   -2.2410   -3.0610   -1.6870 O   0  0  0  0  0  0  0  0  0  0  0  0
   -1.4360   -1.3370   -0.4640 N   0  0  0  0  0  0  0  0  0  0  0  0
  1  2  2  0
  2  3  1  0
  3  4  2  3
  3  6  1  0
  4  5  1  0
  6  7  1  0
  6 19  1  0
  7  8  2  0
  8  9  1  0
  9 10  2  0
  9 18  1  0
 10 11  1  0
 10 19  1  0
 11 12  1  0
 12 13  2  0
 12 18  1  0
 13 14  1  0
 14 15  2  0
 15 16  1  0
 15 17  1  0
 17 18  2  0
 19 20  1  6
 20 21  2  0
 20 27  1  0
 21 22  1  0
 22 23  1  0
 22 24  2  0
 24 25  1  0
 25 26  2  0
 25 27  1  0
M  CHG  1   8   1
M  END
