
     RDKit          3D

 27 31  0  0  0  0  0  0  0  0999 V2000
    6.4650   -1.4920   -1.6900 C   0  0  0  0  0  0  0  0  0  0  0  0
    6.7600   -1.6450   -0.4100 C   0  0  0  0  0  0  0  0  0  0  0  0
    5.6990   -1.5020    0.6440 C   0  0  0  0  0  0  0  0  0  0  0  0
    4.4300   -1.1980    0.0470 N   0  0  0  0  0  0  0  0  0  0  0  0
    3.4150   -1.0140    1.0580 C   0  0  0  0  0  0  0  0  0  0  0  0
    2.5560    0.1520    0.7540 C   0  0  0  0  0  0  0  0  0  0  0  0
    2.9280    1.3840    1.2440 C   0  0  0  0  0  0  0  0  0  0  0  0
    2.1550    2.4970    0.9840 C   0  0  0  0  0  0  0  0  0  0  0  0
    2.6140    3.7960    1.5430 C   0  0  0  0  0  0  0  0  0  0  0  0
    1.0520    2.3470    0.2540 N   0  0  0  0  0  0  0  0  0  0  0  0
    0.6560    1.1430   -0.2440 C   0  0  0  0  0  0  0  0  0  0  0  0
   -0.5370    1.0570   -1.0180 N   0  0  0  0  0  0  0  0  0  0  0  0
   -0.7040    1.4760   -2.2900 C   0  0  0  0  0  0  0  0  0  0  0  0
   -1.9950    1.2250   -2.7030 C   0  0  0  0  0  0  0  0  0  0  0  0
   -2.6280    0.6390   -1.6560 C   0  0  0  0  0  0  0  0  0  0  0  0
   -3.9200    0.1550   -1.4400 C   0  0  0  0  0  0  0  0  0  0  0  0
   -4.1450   -0.3670   -0.2230 C   0  0  0  0  0  0  0  0  0  0  0  0
   -5.3740   -0.8460    0.0310 C   0  0  0  0  0  0  0  0  0  0  0  0
   -5.2620   -1.2990    1.3510 C   0  0  0  0  0  0  0  0  0  0  0  0
   -6.3260   -1.9230    2.1360 C   0  0  0  0  0  0  0  0  0  0  0  0
   -4.0150   -1.0660    1.7720 O   0  0  0  0  0  0  0  0  0  0  0  0
   -3.3020   -0.4940    0.8310 C   0  0  0  0  0  0  0  0  0  0  0  0
   -2.0470   -0.0180    0.6060 N   0  0  0  0  0  0  0  0  0  0  0  0
   -1.7260    0.5370   -0.6190 C   0  0  0  0  0  0  0  0  0  0  0  0
   -6.1530   -0.6290   -1.2130 C   0  0  0  0  0  0  0  0  0  0  0  0
   -5.1710    0.0440   -2.1980 C   0  0  0  0  0  0  0  0  0  0  0  0
    1.4320    0.0770    0.0270 N   0  0  0  0  0  0  0  0  0  0  0  0
  1  2  2  0
  2  3  1  0
  3  4  1  0
  4  5  1  0
  5  6  1  0
  6  7  2  0
  6 27  1  0
  7  8  1  0
  8  9  1  0
  8 10  2  0
 10 11  1  0
 11 12  1  0
 11 27  2  0
 12 13  1  0
 12 24  1  0
 13 14  2  0
 14 15  1  0
 15 16  2  0
 15 24  1  0
 16 17  1  0
 16 26  1  0
 17 18  1  0
 17 22  2  0
 18 19  2  0
 18 25  1  0
 19 20  1  0
 19 21  1  0
 21 22  1  0
 22 23  1  0
 23 24  2  0
 25 26  1  0
M  CHG  1   4   1
M  END
