
     RDKit          3D

 19 19  0  0  0  0  0  0  0  0999 V2000
    3.8400    1.9330    1.5910 O   0  0  0  0  0  0  0  0  0  0  0  0
    3.9170    2.3510    0.4230 C   0  0  0  0  0  0  0  0  0  0  0  0
    3.5330    1.5090   -0.7360 C   0  0  0  0  0  0  0  0  0  0  0  0
    3.0780    0.1690   -0.1970 C   0  0  0  0  0  0  0  0  0  0  0  0
    2.6850   -0.6960   -1.3770 C   0  0  0  0  0  0  0  0  0  0  0  0
    2.2300   -2.0350   -0.8890 C   0  0  0  0  0  0  0  0  0  0  0  0
    1.0370   -1.9680    0.0360 C   0  0  0  0  0  0  0  0  0  0  0  0
   -0.0980   -1.3270   -0.7220 C   0  0  0  0  0  0  0  0  0  0  0  0
   -1.3220   -1.2270    0.1380 C   0  0  0  0  0  0  0  0  0  0  0  0
   -1.3120   -1.6470    1.3160 O   0  0  0  0  0  0  0  0  0  0  0  0
   -2.5240   -0.6660   -0.3310 N   0  0  0  0  0  0  0  0  0  0  0  0
   -3.7300   -0.5020    0.3290 C   0  0  0  0  0  0  0  0  0  0  0  0
   -4.0440   -0.8520    1.6110 C   0  0  0  0  0  0  0  0  0  0  0  0
   -5.2720   -0.6540    2.1940 C   0  0  0  0  0  0  0  0  0  0  0  0
   -6.2860   -0.0690    1.4850 C   0  0  0  0  0  0  0  0  0  0  0  0
   -6.0290    0.3070    0.1840 C   0  0  0  0  0  0  0  0  0  0  0  0
   -4.7900    0.0970   -0.3760 C   0  0  0  0  0  0  0  0  0  0  0  0
    4.3950    3.6900    0.2430 N   0  0  0  0  0  0  0  0  0  0  0  0
    4.7490    4.4730    1.2850 O   0  0  0  0  0  0  0  0  0  0  0  0
  1  2  2  0
  2  3  1  0
  2 18  1  0
  3  4  1  0
  4  5  1  0
  5  6  1  0
  6  7  1  0
  7  8  1  0
  8  9  1  0
  9 10  2  0
  9 11  1  0
 11 12  1  0
 12 13  2  0
 12 17  1  0
 13 14  1  0
 14 15  2  0
 15 16  1  0
 16 17  2  0
 18 19  1  0
M  END
