
     RDKit          3D

 16 17  0  0  0  0  0  0  0  0999 V2000
   -4.9250    0.9780    0.6830 C   0  0  0  0  0  0  0  0  0  0  0  0
   -3.8370   -0.0520    0.5220 C   0  0  0  0  0  0  0  0  0  0  0  0
   -4.1760   -1.3270    0.3970 N   0  0  0  0  0  0  0  0  0  0  0  0
   -3.2030   -2.1990    0.1000 C   0  0  0  0  0  0  0  0  0  0  0  0
   -3.5690   -3.4070   -0.0220 O   0  0  0  0  0  0  0  0  0  0  0  0
   -1.8710   -1.8030   -0.0540 C   0  0  0  0  0  0  0  0  0  0  0  0
   -1.4830   -0.4810    0.1050 C   0  0  0  0  0  0  0  0  0  0  0  0
   -0.1570    0.0350    0.3230 C   0  0  0  0  0  0  0  0  0  0  0  0
    0.8510   -0.0260   -0.6890 N   0  0  0  0  0  0  0  0  0  0  0  0
    2.0950    0.3690    0.0070 C   0  0  1  0  0  0  0  0  0  0  0  0
    2.8900   -0.8550    0.3410 C   0  0  0  0  0  0  0  0  0  0  0  0
    4.2710   -0.2980    0.4760 C   0  0  0  0  0  0  0  0  0  0  0  0
    4.3480    0.9530   -0.3760 C   0  0  0  0  0  0  0  0  0  0  0  0
    2.9360    1.3110   -0.7810 C   0  0  0  0  0  0  0  0  0  0  0  0
   -2.5440    0.3840    0.3960 C   0  0  0  0  0  0  0  0  0  0  0  0
   -2.2480    1.7380    0.5680 O   0  0  0  0  0  0  0  0  0  0  0  0
  1  2  1  0
  2  3  1  0
  2 15  2  0
  3  4  1  0
  4  5  2  0
  4  6  1  0
  6  7  2  0
  7  8  1  0
  7 15  1  0
  8  9  1  0
 10  9  1  6
 10 11  1  0
 10 14  1  0
 11 12  1  0
 12 13  1  0
 13 14  1  0
 15 16  1  0
M  CHG  1   9   1
M  END
