
     RDKit          3D

 26 28  0  0  0  0  0  0  0  0999 V2000
    9.4660    0.0240   -0.4290 N   0  0  0  0  0  0  0  0  0  0  0  0
    8.8750    1.1710    0.1590 C   0  0  0  0  0  0  0  0  0  0  0  0
    7.6840    1.1030    0.7180 C   0  0  0  0  0  0  0  0  0  0  0  0
    6.9720   -0.1590    0.7290 C   0  0  0  0  0  0  0  0  0  0  0  0
    5.7750   -0.2030    1.2970 C   0  0  0  0  0  0  0  0  0  0  0  0
    4.9760   -1.4470    1.3570 C   0  0  0  0  0  0  0  0  0  0  0  0
    3.6810   -1.2490    0.6580 C   0  0  0  0  0  0  0  0  0  0  0  0
    2.5810   -0.7730    1.3370 C   0  0  0  0  0  0  0  0  0  0  0  0
    1.3850   -0.6160    0.6040 C   0  0  0  0  0  0  0  0  0  0  0  0
    1.3070   -0.9200   -0.7250 C   0  0  0  0  0  0  0  0  0  0  0  0
    0.1110   -0.7630   -1.4610 N   0  0  0  0  0  0  0  0  0  0  0  0
   -1.0970   -0.2580   -0.9660 C   0  0  0  0  0  0  0  0  0  0  0  0
   -1.2450    0.1150    0.2030 O   0  0  0  0  0  0  0  0  0  0  0  0
   -2.2420   -0.1380   -1.7710 O   0  0  0  0  0  0  0  0  0  0  0  0
   -3.4230    0.3640   -1.2560 C   0  0  0  0  0  0  0  0  0  0  0  0
   -3.6710    1.7170   -1.3480 C   0  0  0  0  0  0  0  0  0  0  0  0
   -4.8230    2.3000   -0.8610 C   0  0  0  0  0  0  0  0  0  0  0  0
   -5.7760    1.5120   -0.2530 C   0  0  0  0  0  0  0  0  0  0  0  0
   -5.5580    0.1590   -0.1460 C   0  0  0  0  0  0  0  0  0  0  0  0
   -4.3990   -0.3990   -0.6410 C   0  0  0  0  0  0  0  0  0  0  0  0
   -6.5690   -0.6760    0.5020 C   0  0  0  0  0  0  0  0  0  0  0  0
   -7.9050   -0.2080    0.4430 N   0  0  0  0  0  0  0  0  0  0  0  0
   -8.1250    1.1890    0.3830 C   0  0  0  0  0  0  0  0  0  0  0  0
   -6.9860    2.0330    0.2740 N   0  0  0  0  0  0  0  0  0  0  0  0
    2.4520   -1.3990   -1.3650 C   0  0  0  0  0  0  0  0  0  0  0  0
    3.6230   -1.5590   -0.6740 C   0  0  0  0  0  0  0  0  0  0  0  0
  1  2  1  0
  2  3  2  3
  3  4  1  0
  4  5  2  3
  5  6  1  0
  6  7  1  0
  7  8  2  0
  7 26  1  0
  8  9  1  0
  9 10  2  0
 10 11  1  0
 10 25  1  0
 11 12  1  0
 12 13  2  0
 12 14  1  0
 14 15  1  0
 15 16  2  0
 15 20  1  0
 16 17  1  0
 17 18  2  0
 18 19  1  0
 18 24  1  0
 19 20  2  0
 19 21  1  0
 21 22  1  0
 22 23  1  0
 23 24  1  0
 25 26  2  0
M  CHG  1  22   1
M  END
