
     RDKit          3D

 26 28  0  0  0  0  0  0  0  0999 V2000
    4.4960    0.4600    3.3930 C   0  0  0  0  0  0  0  0  0  0  0  0
    4.2140   -0.3090    2.1460 C   0  0  0  0  0  0  0  0  0  0  0  0
    5.2890   -0.9680    1.5870 C   0  0  0  0  0  0  0  0  0  0  0  0
    5.0760   -1.6860    0.4390 C   0  0  0  0  0  0  0  0  0  0  0  0
    3.8270   -1.7420   -0.1330 C   0  0  0  0  0  0  0  0  0  0  0  0
    2.7270   -1.0840    0.4140 C   0  0  0  0  0  0  0  0  0  0  0  0
    1.4400   -1.2400   -0.2810 C   0  0  0  0  0  0  0  0  0  0  0  0
    1.2150   -0.3200   -1.4060 C   0  0  0  0  0  0  0  0  0  0  0  0
    1.3990   -0.6210   -2.7300 N   0  0  0  0  0  0  0  0  0  0  0  0
    1.1130    0.4470   -3.4430 N   0  0  0  0  0  0  0  0  0  0  0  0
    0.7410    1.4660   -2.6770 C   0  0  0  0  0  0  0  0  0  0  0  0
    0.3280    2.8510   -3.0450 C   0  0  0  0  0  0  0  0  0  0  0  0
    0.8040    0.9820   -1.3650 C   0  0  0  0  0  0  0  0  0  0  0  0
    0.4460    1.7890   -0.1740 C   0  0  0  0  0  0  0  0  0  0  0  0
   -0.9270    1.3180    0.2790 C   0  0  0  0  0  0  0  0  0  0  0  0
   -1.3830    1.6920    1.3750 O   0  0  0  0  0  0  0  0  0  0  0  0
   -1.6830    0.4520   -0.5460 N   0  0  0  0  0  0  0  0  0  0  0  0
   -2.9640   -0.0840   -0.2800 C   0  0  0  0  0  0  0  0  0  0  0  0
   -3.6910    0.1660    0.8590 C   0  0  0  0  0  0  0  0  0  0  0  0
   -4.9520   -0.3730    1.1100 C   0  0  0  0  0  0  0  0  0  0  0  0
   -5.6670   -0.0830    2.3090 N   0  0  0  0  0  0  0  0  0  0  0  0
   -5.4770   -1.2020    0.1450 C   0  0  0  0  0  0  0  0  0  0  0  0
   -4.7810   -1.4680   -0.9930 C   0  0  0  0  0  0  0  0  0  0  0  0
   -3.5200   -0.9280   -1.2440 C   0  0  0  0  0  0  0  0  0  0  0  0
   -2.9090   -1.2680   -2.4320 O   0  0  0  0  0  0  0  0  0  0  0  0
    2.9560   -0.3700    1.5630 C   0  0  0  0  0  0  0  0  0  0  0  0
  1  2  1  0
  2  3  2  0
  2 26  1  0
  3  4  1  0
  4  5  2  0
  5  6  1  0
  6  7  1  0
  6 26  2  0
  7  8  1  0
  8  9  1  0
  8 13  2  0
  9 10  1  0
 10 11  2  0
 11 12  1  0
 11 13  1  0
 13 14  1  0
 14 15  1  0
 15 16  2  0
 15 17  1  0
 17 18  1  0
 18 19  2  0
 18 24  1  0
 19 20  1  0
 20 21  1  0
 20 22  2  0
 22 23  1  0
 23 24  2  0
 24 25  1  0
M  CHG  1  21   1
M  END
