
     RDKit          3D

 16 17  0  0  0  0  0  0  0  0999 V2000
   -2.1230   -2.1410    0.5180 C   0  0  0  0  0  0  0  0  0  0  0  0
   -2.5380   -0.7270    0.1340 C   0  0  1  0  0  0  0  0  0  0  0  0
   -3.3720   -0.6970   -1.1080 C   0  0  0  0  0  0  0  0  0  0  0  0
   -3.3950   -0.3090    1.1790 O   0  0  0  0  0  0  0  0  0  0  0  0
   -1.3750    0.1830    0.0440 C   0  0  0  0  0  0  0  0  0  0  0  0
   -1.5610    1.5470    0.0260 C   0  0  0  0  0  0  0  0  0  0  0  0
   -0.4890    2.4400   -0.0870 C   0  0  0  0  0  0  0  0  0  0  0  0
   -0.6740    3.8450   -0.1210 N   0  0  0  0  0  0  0  0  0  0  0  0
    0.7400    1.9340   -0.1730 N   0  0  0  0  0  0  0  0  0  0  0  0
    1.0000    0.6080   -0.1560 C   0  0  0  0  0  0  0  0  0  0  0  0
    2.3990    0.2030   -0.2910 C   0  0  2  0  0  0  0  0  0  0  0  0
    2.6390   -1.0020   -1.1430 C   0  0  0  0  0  0  0  0  0  0  0  0
    3.6090   -1.7950   -0.2720 C   0  0  0  0  0  0  0  0  0  0  0  0
    3.1140   -1.5610    1.0010 O   0  0  0  0  0  0  0  0  0  0  0  0
    2.9500   -0.2050    1.0810 C   0  0  0  0  0  0  0  0  0  0  0  0
   -0.0700   -0.2530   -0.0480 C   0  0  0  0  0  0  0  0  0  0  0  0
  2  1  1  1
  2  3  1  0
  2  4  1  0
  2  5  1  0
  5  6  2  0
  5 16  1  0
  6  7  1  0
  7  8  1  0
  7  9  2  0
  9 10  1  0
 11 10  1  1
 10 16  2  0
 11 12  1  0
 11 15  1  0
 12 13  1  0
 13 14  1  0
 14 15  1  0
M  CHG  1   9   1
M  END
