
     RDKit          3D

 22 22  0  0  0  0  0  0  0  0999 V2000
    2.8930   -1.8550    0.1540 C   0  0  0  0  0  0  0  0  0  0  0  0
    3.1230   -0.4380    0.0000 C   0  0  0  0  0  0  0  0  0  0  0  0
    4.5180    0.0730    0.0800 C   0  0  0  0  0  0  0  0  0  0  0  0
    5.5940   -0.6350    0.2510 C   0  0  0  0  0  0  0  0  0  0  0  0
    6.9380   -0.0160    0.3190 C   0  0  0  0  0  0  0  0  0  0  0  0
    7.9080   -0.7960    0.4870 O   0  0  0  0  0  0  0  0  0  0  0  0
    7.1620    1.3520    0.2090 N   0  0  0  0  0  0  0  0  0  0  0  0
    8.4550    1.7960    0.2890 O   0  0  0  0  0  0  0  0  0  0  0  0
    2.1800    0.3990   -0.1880 C   0  0  0  0  0  0  0  0  0  0  0  0
    0.7700    0.3110   -0.3060 C   0  0  1  0  0  0  0  0  0  0  0  0
    0.3370    1.2410   -1.5050 C   0  0  0  0  0  0  0  0  0  0  0  0
   -0.0670   -0.8500   -0.3030 C   0  0  0  0  0  0  0  0  0  0  0  0
    0.2130   -2.0470   -0.3920 O   0  0  0  0  0  0  0  0  0  0  0  0
   -1.5410   -0.5960   -0.1830 C   0  0  0  0  0  0  0  0  0  0  0  0
   -2.0600    0.6400    0.0840 C   0  0  0  0  0  0  0  0  0  0  0  0
   -3.4520    0.8370    0.1420 C   0  0  0  0  0  0  0  0  0  0  0  0
   -4.3170   -0.2110   -0.0690 C   0  0  0  0  0  0  0  0  0  0  0  0
   -5.7070    0.0160    0.0060 N   0  0  0  0  0  0  0  0  0  0  0  0
   -6.4630   -0.5350    1.1110 C   0  0  0  0  0  0  0  0  0  0  0  0
   -6.3920    0.7960   -0.9850 C   0  0  0  0  0  0  0  0  0  0  0  0
   -3.8060   -1.4440   -0.3340 C   0  0  0  0  0  0  0  0  0  0  0  0
   -2.4170   -1.6280   -0.3890 C   0  0  0  0  0  0  0  0  0  0  0  0
  1  2  1  0
  2  3  1  0
  2  9  2  3
  3  4  2  3
  4  5  1  0
  5  6  2  0
  5  7  1  0
  7  8  1  0
  9 10  1  0
 10 11  1  6
 10 12  1  0
 12 13  2  0
 12 14  1  0
 14 15  2  0
 14 22  1  0
 15 16  1  0
 16 17  2  0
 17 18  1  0
 17 21  1  0
 18 19  1  0
 18 20  1  0
 21 22  2  0
M  END
