
     RDKit          3D

 16 17  0  0  0  0  0  0  0  0999 V2000
    4.5980    0.0040   -0.2630 C   0  0  0  0  0  0  0  0  0  0  0  0
    3.4760   -0.9360   -0.2990 C   0  0  0  0  0  0  0  0  0  0  0  0
    2.2300   -0.5120   -0.1480 C   0  0  0  0  0  0  0  0  0  0  0  0
    1.0930   -1.4240   -0.1790 C   0  0  0  0  0  0  0  0  0  0  0  0
   -0.1680   -0.9980   -0.0260 C   0  0  0  0  0  0  0  0  0  0  0  0
   -0.4340    0.4030    0.1780 C   0  0  0  0  0  0  0  0  0  0  0  0
    0.5580    1.3050    0.2190 C   0  0  0  0  0  0  0  0  0  0  0  0
    1.9360    0.8940    0.0590 C   0  0  0  0  0  0  0  0  0  0  0  0
    2.8360    1.7710    0.1050 O   0  0  0  0  0  0  0  0  0  0  0  0
   -1.8310    0.6420    0.3170 N   0  0  0  0  0  0  0  0  0  0  0  0
   -2.4690    1.9170    0.5330 C   0  0  0  0  0  0  0  0  0  0  0  0
   -2.8150    2.5770   -0.7890 C   0  0  0  0  0  0  0  0  0  0  0  0
   -2.4600   -0.6100    0.2010 C   0  0  0  0  0  0  0  0  0  0  0  0
   -3.7090   -0.8230    0.2700 O   0  0  0  0  0  0  0  0  0  0  0  0
   -1.4830   -1.6930   -0.0160 C   0  0  2  0  0  0  0  0  0  0  0  0
   -1.5030   -2.6960    1.0240 N   0  0  0  0  0  0  0  0  0  0  0  0
  1  2  1  0
  2  3  2  3
  3  4  1  0
  3  8  1  0
  4  5  2  0
  5  6  1  0
  5 15  1  0
  6  7  2  0
  6 10  1  0
  7  8  1  0
  8  9  2  0
 10 11  1  0
 10 13  1  0
 11 12  1  0
 13 14  2  0
 13 15  1  0
 15 16  1  1
M  CHG  1  16   1
M  END
