
     RDKit          3D

 23 25  0  0  0  0  0  0  0  0999 V2000
    3.0730   -1.2080    3.0300 C   0  0  0  0  0  0  0  0  0  0  0  0
    2.2960   -1.1920    1.7610 C   0  0  0  0  0  0  0  0  0  0  0  0
    0.9980   -1.3600    1.7940 C   0  0  0  0  0  0  0  0  0  0  0  0
    0.2070   -1.3520    0.5750 C   0  0  0  0  0  0  0  0  0  0  0  0
    0.6290   -2.0020   -0.5640 C   0  0  0  0  0  0  0  0  0  0  0  0
   -0.1270   -1.9880   -1.6910 N   0  0  0  0  0  0  0  0  0  0  0  0
   -1.3170   -1.3420   -1.7480 C   0  0  0  0  0  0  0  0  0  0  0  0
   -1.7240   -0.6960   -0.5980 C   0  0  0  0  0  0  0  0  0  0  0  0
   -2.9490   -0.0090   -0.5640 N   0  0  0  0  0  0  0  0  0  0  0  0
   -3.9130   -0.1740   -1.6050 C   0  0  0  0  0  0  0  0  0  0  0  0
   -4.8840    1.0120   -1.5060 C   0  0  0  0  0  0  0  0  0  0  0  0
   -5.5620    0.8980   -0.2540 N   0  0  0  0  0  0  0  0  0  0  0  0
   -4.6900    0.9680    0.8860 C   0  0  0  0  0  0  0  0  0  0  0  0
   -3.2430    0.8890    0.5410 C   0  0  0  0  0  0  0  0  0  0  0  0
   -0.9710   -0.7090    0.5260 N   0  0  0  0  0  0  0  0  0  0  0  0
    2.9410   -1.0010    0.5630 O   0  0  0  0  0  0  0  0  0  0  0  0
    3.8380    0.0170    0.2780 C   0  0  0  0  0  0  0  0  0  0  0  0
    4.4090    0.0750   -0.9840 C   0  0  0  0  0  0  0  0  0  0  0  0
    5.3080    1.0520   -1.3480 C   0  0  0  0  0  0  0  0  0  0  0  0
    5.6330    1.9990   -0.3950 C   0  0  0  0  0  0  0  0  0  0  0  0
    6.7680    3.2720   -0.7840 Cl  0  0  0  0  0  0  0  0  0  0  0  0
    5.0890    1.9590    0.8330 N   0  0  0  0  0  0  0  0  0  0  0  0
    4.2060    0.9830    1.1620 C   0  0  0  0  0  0  0  0  0  0  0  0
  1  2  1  0
  2  3  2  3
  2 16  1  0
  3  4  1  0
  4  5  2  0
  4 15  1  0
  5  6  1  0
  6  7  2  0
  7  8  1  0
  8  9  1  0
  8 15  2  0
  9 10  1  0
  9 14  1  0
 10 11  1  0
 11 12  1  0
 12 13  1  0
 13 14  1  0
 16 17  1  0
 17 18  2  0
 17 23  1  0
 18 19  1  0
 19 20  2  0
 20 21  1  0
 20 22  1  0
 22 23  2  0
M  END
