
     RDKit          3D

 17 19  0  0  0  0  0  0  0  0999 V2000
   -3.2140    2.1590   -0.5370 C   0  0  0  0  0  0  0  0  0  0  0  0
   -3.2230    0.7160   -0.1680 C   0  0  0  0  0  0  0  0  0  0  0  0
   -4.4010    0.0290    0.0290 C   0  0  0  0  0  0  0  0  0  0  0  0
   -4.4260   -1.2940    0.3660 C   0  0  0  0  0  0  0  0  0  0  0  0
   -3.2370   -1.9800    0.5200 C   0  0  0  0  0  0  0  0  0  0  0  0
   -2.0310   -1.2870    0.3210 C   0  0  0  0  0  0  0  0  0  0  0  0
   -2.0020    0.0420   -0.0190 C   0  0  0  0  0  0  0  0  0  0  0  0
   -0.8130    0.7550   -0.1860 N   0  0  0  0  0  0  0  0  0  0  0  0
    0.5060    0.2440   -0.2700 C   0  0  0  0  0  0  0  0  0  0  0  0
    0.8540   -0.9370   -0.8780 C   0  0  0  0  0  0  0  0  0  0  0  0
    2.1890   -1.3480   -0.8610 C   0  0  0  0  0  0  0  0  0  0  0  0
    3.1940   -0.6250   -0.2620 C   0  0  0  0  0  0  0  0  0  0  0  0
    2.8390    0.5580    0.3430 C   0  0  0  0  0  0  0  0  0  0  0  0
    1.5280    0.9830    0.3400 C   0  0  0  0  0  0  0  0  0  0  0  0
    4.0760    1.1370    0.9040 C   0  0  0  0  0  0  0  0  0  0  0  0
    5.0970    0.3440    0.6440 C   0  0  0  0  0  0  0  0  0  0  0  0
    4.6720   -0.8400   -0.1070 C   0  0  0  0  0  0  0  0  0  0  0  0
  1  2  1  0
  2  3  2  0
  2  7  1  0
  3  4  1  0
  4  5  2  0
  5  6  1  0
  6  7  2  0
  7  8  1  0
  8  9  1  0
  9 10  2  0
  9 14  1  0
 10 11  1  0
 11 12  2  0
 12 13  1  0
 12 17  1  0
 13 14  2  0
 13 15  1  0
 15 16  2  0
 16 17  1  0
M  END
