
     RDKit          3D

 17 19  0  0  0  0  0  0  0  0999 V2000
   -3.3590    2.5410    0.0740 C   0  0  0  0  0  0  0  0  0  0  0  0
   -2.6260    1.2490   -0.0040 C   0  0  0  0  0  0  0  0  0  0  0  0
   -3.2680    0.0800   -0.3550 C   0  0  0  0  0  0  0  0  0  0  0  0
   -2.6120   -1.1360   -0.4360 C   0  0  0  0  0  0  0  0  0  0  0  0
   -3.3340   -2.3950   -0.8200 C   0  0  0  0  0  0  0  0  0  0  0  0
   -1.2550   -1.1530   -0.1470 C   0  0  0  0  0  0  0  0  0  0  0  0
   -0.5660   -0.0120    0.2080 C   0  0  0  0  0  0  0  0  0  0  0  0
    0.8250   -0.1140    0.4880 N   0  0  0  0  0  0  0  0  0  0  0  0
    1.3690   -0.6520    1.5890 C   0  0  0  0  0  0  0  0  0  0  0  0
    0.5860   -1.2320    2.7010 C   0  0  0  0  0  0  0  0  0  0  0  0
    2.7430   -0.5870    1.5350 C   0  0  0  0  0  0  0  0  0  0  0  0
    3.0490    0.0320    0.3200 C   0  0  0  0  0  0  0  0  0  0  0  0
    1.8350    0.3070   -0.2940 C   0  0  0  0  0  0  0  0  0  0  0  0
    2.0920    0.9780   -1.6160 C   0  0  0  0  0  0  0  0  0  0  0  0
    3.4690    0.3990   -1.9460 C   0  0  0  0  0  0  0  0  0  0  0  0
    4.1420    0.5100   -0.5720 C   0  0  0  0  0  0  0  0  0  0  0  0
   -1.2770    1.1670    0.2710 C   0  0  0  0  0  0  0  0  0  0  0  0
  1  2  1  0
  2  3  2  0
  2 17  1  0
  3  4  1  0
  4  5  1  0
  4  6  2  0
  6  7  1  0
  7  8  1  0
  7 17  2  0
  8  9  1  0
  8 13  1  0
  9 10  1  0
  9 11  2  0
 11 12  1  0
 12 13  2  0
 12 16  1  0
 13 14  1  0
 14 15  1  0
 15 16  1  0
M  END
