
     RDKit          3D

 26 28  0  0  0  0  0  0  0  0999 V2000
    7.0300   -1.3930   -1.1080 C   0  0  0  0  0  0  0  0  0  0  0  0
    6.5810   -0.3490   -0.1490 C   0  0  0  0  0  0  0  0  0  0  0  0
    5.2520    0.2280   -0.4080 C   0  0  0  0  0  0  0  0  0  0  0  0
    4.1570   -0.1510    0.3660 C   0  0  0  0  0  0  0  0  0  0  0  0
    2.8920    0.3610    0.1650 C   0  0  0  0  0  0  0  0  0  0  0  0
    1.7770   -0.0840    1.0190 C   0  0  0  0  0  0  0  0  0  0  0  0
    0.5570    0.3360    0.9130 C   0  0  0  0  0  0  0  0  0  0  0  0
   -0.4910   -0.1750    1.8220 C   0  0  0  0  0  0  0  0  0  0  0  0
   -1.5640   -0.8240    1.1400 N   0  0  0  0  0  0  0  0  0  0  0  0
   -1.4770   -2.1700    0.9430 C   0  0  0  0  0  0  0  0  0  0  0  0
   -0.4510   -2.7690    1.3710 O   0  0  0  0  0  0  0  0  0  0  0  0
   -2.4670   -2.8770    0.2980 C   0  0  0  0  0  0  0  0  0  0  0  0
   -3.5690   -2.2310   -0.1610 C   0  0  0  0  0  0  0  0  0  0  0  0
   -4.6570   -2.9540   -0.8630 C   0  0  0  0  0  0  0  0  0  0  0  0
   -3.6480   -0.8430    0.0470 C   0  0  0  0  0  0  0  0  0  0  0  0
   -4.7600   -0.1750   -0.4170 C   0  0  0  0  0  0  0  0  0  0  0  0
   -4.8440    1.1770   -0.2220 C   0  0  0  0  0  0  0  0  0  0  0  0
   -6.0460    1.8940   -0.7220 C   0  0  0  0  0  0  0  0  0  0  0  0
   -3.8520    1.8810    0.4230 C   0  0  0  0  0  0  0  0  0  0  0  0
   -4.0060    3.2790    0.5890 N   0  0  0  0  0  0  0  0  0  0  0  0
   -2.7460    1.1970    0.8810 C   0  0  0  0  0  0  0  0  0  0  0  0
   -2.6360   -0.1590    0.6990 C   0  0  0  0  0  0  0  0  0  0  0  0
    2.7440    1.2780   -0.8480 C   0  0  0  0  0  0  0  0  0  0  0  0
    3.8320    1.6690   -1.6340 C   0  0  0  0  0  0  0  0  0  0  0  0
    5.0990    1.1480   -1.4220 C   0  0  0  0  0  0  0  0  0  0  0  0
    6.2040    1.5090   -2.1790 O   0  0  0  0  0  0  0  0  0  0  0  0
  1  2  1  0
  2  3  1  0
  3  4  2  0
  3 25  1  0
  4  5  1  0
  5  6  1  0
  5 23  2  0
  6  7  2  3
  7  8  1  0
  8  9  1  0
  9 10  1  0
  9 22  1  0
 10 11  2  0
 10 12  1  0
 12 13  2  0
 13 14  1  0
 13 15  1  0
 15 16  2  0
 15 22  1  0
 16 17  1  0
 17 18  1  0
 17 19  2  0
 19 20  1  0
 19 21  1  0
 21 22  2  0
 23 24  1  0
 24 25  2  0
 25 26  1  0
M  END
