
     RDKit          3D

 23 24  0  0  0  0  0  0  0  0999 V2000
    6.2970    1.5540   -0.2200 O   0  0  0  0  0  0  0  0  0  0  0  0
    5.7830    0.4150   -0.1270 C   0  0  0  0  0  0  0  0  0  0  0  0
    6.6020   -0.7360   -0.0850 N   0  0  0  0  0  0  0  0  0  0  0  0
    7.9480   -0.5460   -0.1510 O   0  0  0  0  0  0  0  0  0  0  0  0
    4.3340    0.3240   -0.0650 C   0  0  0  0  0  0  0  0  0  0  0  0
    3.6820   -0.8940   -0.1100 C   0  0  0  0  0  0  0  0  0  0  0  0
    2.3150   -0.9700   -0.0470 C   0  0  0  0  0  0  0  0  0  0  0  0
    1.5070    0.1780    0.0670 C   0  0  0  0  0  0  0  0  0  0  0  0
    0.0760   -0.1040    0.1150 C   0  0  0  0  0  0  0  0  0  0  0  0
   -0.8650    0.9430    0.3470 C   0  0  0  0  0  0  0  0  0  0  0  0
   -0.5340    2.1520    0.5700 O   0  0  0  0  0  0  0  0  0  0  0  0
   -2.2670    0.6950    0.3460 N   0  0  0  0  0  0  0  0  0  0  0  0
   -3.1950    1.7850    0.6150 C   0  0  0  0  0  0  0  0  0  0  0  0
   -3.5520    2.4940   -0.6600 C   0  0  0  0  0  0  0  0  0  0  0  0
   -4.4450    3.5450   -0.3690 O   0  0  0  0  0  0  0  0  0  0  0  0
   -2.8190   -0.6090    0.1330 C   0  0  0  0  0  0  0  0  0  0  0  0
   -3.4860   -1.0100   -0.9950 C   0  0  0  0  0  0  0  0  0  0  0  0
   -4.0130   -2.3020   -1.1210 C   0  0  0  0  0  0  0  0  0  0  0  0
   -3.8470   -3.1780   -0.0750 C   0  0  0  0  0  0  0  0  0  0  0  0
   -3.1710   -2.8030    1.0930 C   0  0  0  0  0  0  0  0  0  0  0  0
   -2.6670   -1.5300    1.1850 C   0  0  0  0  0  0  0  0  0  0  0  0
    2.1420    1.3770    0.1110 C   0  0  0  0  0  0  0  0  0  0  0  0
    3.5440    1.4400    0.0460 C   0  0  0  0  0  0  0  0  0  0  0  0
  1  2  2  0
  2  3  1  0
  2  5  1  0
  3  4  1  0
  5  6  2  0
  5 23  1  0
  6  7  1  0
  7  8  2  0
  8  9  1  0
  8 22  1  0
  9 10  1  0
 10 11  2  0
 10 12  1  0
 12 13  1  0
 12 16  1  0
 13 14  1  0
 14 15  1  0
 16 17  2  0
 16 21  1  0
 17 18  1  0
 18 19  2  0
 19 20  1  0
 20 21  2  0
 22 23  2  0
M  END
