
     RDKit          3D

 32 34  0  0  0  0  0  0  0  0999 V2000
   -7.4650   -0.0980    1.8190 N   0  0  0  0  0  0  0  0  0  0  0  0
   -6.6870    0.7160    0.9620 C   0  0  0  0  0  0  0  0  0  0  0  0
   -5.5160    0.2370    0.5170 N   0  0  0  0  0  0  0  0  0  0  0  0
   -4.7440    0.9690   -0.2950 C   0  0  0  0  0  0  0  0  0  0  0  0
   -5.1940    2.2370   -0.6590 C   0  0  0  0  0  0  0  0  0  0  0  0
   -4.2530    2.7480   -1.4590 N   0  0  0  0  0  0  0  0  0  0  0  0
   -3.2520    1.8340   -1.5910 C   0  0  0  0  0  0  0  0  0  0  0  0
   -3.5480    0.7460   -0.8810 N   0  0  0  0  0  0  0  0  0  0  0  0
   -2.7690   -0.4490   -0.7450 C   0  0  2  0  0  0  0  0  0  0  0  0
   -1.5700   -0.2270   -0.0290 O   0  0  0  0  0  0  0  0  0  0  0  0
   -0.9360   -1.4620   -0.1430 C   0  0  2  0  0  0  0  0  0  0  0  0
    0.4850   -1.4410    0.2900 C   0  0  0  0  0  0  0  0  0  0  0  0
    1.2560   -0.5460   -0.4620 O   0  0  0  0  0  0  0  0  0  0  0  0
    2.7430   -0.4820   -0.0470 P   0  0  0  0  0  0  0  0  0  0  0  0
    2.2660    0.0640    1.4590 O   0  0  0  0  0  0  0  0  0  0  0  0
    3.0380   -2.0480   -0.2390 O   0  0  0  0  0  0  0  0  0  0  0  0
    4.2000   -0.1390    0.3060 O   0  0  0  0  0  0  0  0  0  0  0  0
    5.4810   -0.2580   -0.5200 P   0  0  0  0  0  0  0  0  0  0  0  0
    6.0950   -1.4900    0.2990 O   0  0  0  0  0  0  0  0  0  0  0  0
    4.5840   -0.4790   -1.9040 O   0  0  0  0  0  0  0  0  0  0  0  0
    5.8450    1.3280   -0.0880 O   0  0  0  0  0  0  0  0  0  0  0  0
    6.5470    1.4720    1.2660 P   0  0  0  0  0  0  0  0  0  0  0  0
    5.1630    0.9780    2.0260 O   0  0  0  0  0  0  0  0  0  0  0  0
    6.8190    3.0750    1.0140 O   0  0  0  0  0  0  0  0  0  0  0  0
    7.6860    0.3410    0.9050 O   0  0  0  0  0  0  0  0  0  0  0  0
   -1.1280   -1.9150   -1.5630 C   0  0  1  0  0  0  0  0  0  0  0  0
   -1.6120   -3.2110   -1.6640 O   0  0  0  0  0  0  0  0  0  0  0  0
   -2.2140   -0.9570   -2.0590 C   0  0  1  0  0  0  0  0  0  0  0  0
   -3.1810   -1.6370   -2.7990 O   0  0  0  0  0  0  0  0  0  0  0  0
   -6.3950    2.7380   -0.2050 C   0  0  0  0  0  0  0  0  0  0  0  0
   -6.8370    3.8660   -0.5050 O   0  0  0  0  0  0  0  0  0  0  0  0
   -7.1280    1.9560    0.6070 N   0  0  0  0  0  0  0  0  0  0  0  0
  1  2  1  0
  2  3  1  0
  2 32  2  0
  3  4  1  0
  4  5  2  0
  4  8  1  0
  5  6  1  0
  5 30  1  0
  6  7  2  0
  7  8  1  0
  9  8  1  6
  9 10  1  0
  9 28  1  0
 10 11  1  0
 11 12  1  6
 11 26  1  0
 12 13  1  0
 13 14  1  0
 14 15  1  0
 14 16  1  0
 14 17  1  0
 17 18  1  0
 18 19  1  0
 18 20  1  0
 18 21  1  0
 21 22  1  0
 22 23  1  0
 22 24  1  0
 22 25  1  0
 26 27  1  1
 26 28  1  0
 28 29  1  1
 30 31  2  0
 30 32  1  0
M  CHG  1  32   1
M  END
