
     RDKit          3D

 32 33  0  0  0  0  0  0  0  0999 V2000
    2.1450    1.4790    1.3690 C   0  0  0  0  0  0  0  0  0  0  0  0
    1.4750    0.8310    0.1470 C   0  0  1  0  0  0  0  0  0  0  0  0
    2.5740    0.1640   -0.6540 C   0  0  0  0  0  0  0  0  0  0  0  0
    3.2740   -0.7540    0.1450 O   0  0  0  0  0  0  0  0  0  0  0  0
    4.5320   -1.5310   -0.7390 P   0  0  0  0  0  0  0  0  0  0  0  0
    5.8210   -2.0100    0.3480 O   0  0  0  0  0  0  0  0  0  0  0  0
    5.1780   -0.4480   -1.9170 O   0  0  0  0  0  0  0  0  0  0  0  0
    0.5400   -0.0880    0.6520 O   0  0  0  0  0  0  0  0  0  0  0  0
    0.6510   -1.4620    0.7320 C   0  0  0  0  0  0  0  0  0  0  0  0
    0.7000   -2.0330    1.8740 N   0  0  0  0  0  0  0  0  0  0  0  0
    0.8090   -3.3830    1.9870 O   0  0  0  0  0  0  0  0  0  0  0  0
    1.9200   -4.0730    1.7160 O   0  0  0  0  0  0  0  0  0  0  0  0
    0.7110   -2.2550   -0.4760 C   0  0  0  0  0  0  0  0  0  0  0  0
   -0.0720   -2.1640   -1.5320 C   0  0  0  0  0  0  0  0  0  0  0  0
   -1.1750   -1.2530   -1.7290 C   0  0  0  0  0  0  0  0  0  0  0  0
   -1.1380   -0.4830   -2.7510 O   0  0  0  0  0  0  0  0  0  0  0  0
   -2.3690   -1.1110   -0.8600 C   0  0  2  0  0  0  0  0  0  0  0  0
   -2.1700   -1.5220    0.4460 O   0  0  0  0  0  0  0  0  0  0  0  0
   -3.4290   -1.8630    0.8790 C   0  0  0  0  0  0  0  0  0  0  0  0
   -4.0360   -2.3670   -0.2430 O   0  0  0  0  0  0  0  0  0  0  0  0
   -3.3410   -2.0320   -1.2880 O   0  0  0  0  0  0  0  0  0  0  0  0
   -2.9110    0.2560   -0.9840 C   0  0  0  0  0  0  0  0  0  0  0  0
   -3.8410    0.4380   -1.7320 O   0  0  0  0  0  0  0  0  0  0  0  0
   -2.3560    1.4020   -0.2260 C   0  0  2  0  0  0  0  0  0  0  0  0
   -3.3390    2.5820   -0.3070 C   0  0  0  0  0  0  0  0  0  0  0  0
   -4.5150    2.2020    0.3380 O   0  0  0  0  0  0  0  0  0  0  0  0
   -1.2200    1.7920   -0.8570 O   0  0  0  0  0  0  0  0  0  0  0  0
   -0.2330    2.3970   -0.1540 C   0  0  2  0  0  0  0  0  0  0  0  0
   -0.3430    2.4720    1.2520 N   0  0  0  0  0  0  0  0  0  0  0  0
   -0.1800    4.1820   -0.7660 P   0  0  0  0  0  0  0  0  0  0  0  0
    1.0840    5.0510   -0.5840 O   0  0  0  0  0  0  0  0  0  0  0  0
    0.9710    1.8450   -0.6110 O   0  0  0  0  0  0  0  0  0  0  0  0
  2  1  1  1
  2  3  1  0
  2  8  1  0
  2 32  1  0
  3  4  1  0
  4  5  1  0
  5  6  1  0
  5  7  1  0
  8  9  1  0
  9 10  2  3
  9 13  1  0
 10 11  1  0
 11 12  1  0
 13 14  2  0
 14 15  1  0
 15 16  2  0
 15 17  1  0
 17 18  1  1
 17 21  1  0
 17 22  1  0
 18 19  1  0
 19 20  1  0
 20 21  1  0
 22 23  2  0
 22 24  1  0
 24 25  1  6
 24 27  1  0
 25 26  1  0
 27 28  1  0
 28 29  1  1
 28 30  1  0
 28 32  1  0
 30 31  2  0
M  END
