
     RDKit          3D

 32 34  0  0  0  0  0  0  0  0999 V2000
   -3.7220    3.4030   -0.0060 C   0  0  0  0  0  0  0  0  0  0  0  0
   -4.2830    2.0370   -0.4200 C   0  0  1  0  0  0  0  0  0  0  0  0
   -5.0300    1.5780    0.6690 O   0  0  0  0  0  0  0  0  0  0  0  0
   -5.0330    2.1670   -1.5680 O   0  0  0  0  0  0  0  0  0  0  0  0
   -3.1980    1.2040   -0.6830 O   0  0  0  0  0  0  0  0  0  0  0  0
   -2.5010    1.1280    0.4270 O   0  0  0  0  0  0  0  0  0  0  0  0
   -1.3570    0.3160    0.2480 C   0  0  1  0  0  0  0  0  0  0  0  0
   -1.7360   -1.0720   -0.1520 C   0  0  0  0  0  0  0  0  0  0  0  0
   -1.5630   -1.8680    1.0500 N   0  0  0  0  0  0  0  0  0  0  0  0
   -2.1180   -3.1590    1.2670 C   0  0  0  0  0  0  0  0  0  0  0  0
   -1.9200   -4.2230    0.5070 C   0  0  0  0  0  0  0  0  0  0  0  0
   -1.1020   -4.3140   -0.6980 C   0  0  0  0  0  0  0  0  0  0  0  0
   -1.7730   -4.5570   -1.7880 O   0  0  0  0  0  0  0  0  0  0  0  0
    0.2240   -4.1680   -0.7140 O   0  0  0  0  0  0  0  0  0  0  0  0
    1.4710   -3.0840   -0.8550 P   0  0  0  0  0  0  0  0  0  0  0  0
    1.7190   -2.2600   -2.3700 O   0  0  0  0  0  0  0  0  0  0  0  0
    1.7780   -0.8460   -2.3520 C   0  0  0  0  0  0  0  0  0  0  0  0
    1.6940   -0.3100   -1.1840 C   0  0  0  0  0  0  0  0  0  0  0  0
    0.9450    0.7670   -0.7350 O   0  0  0  0  0  0  0  0  0  0  0  0
   -0.3830    0.9750   -0.6640 C   0  0  0  0  0  0  0  0  0  0  0  0
   -0.9100    1.8360   -1.4600 O   0  0  0  0  0  0  0  0  0  0  0  0
    2.5330   -0.9170   -0.0700 C   0  0  1  0  0  0  0  0  0  0  0  0
    3.7700   -1.3370   -0.4820 O   0  0  0  0  0  0  0  0  0  0  0  0
    2.7930    0.2550    1.3320 P   0  0  0  0  0  0  0  0  0  0  0  0
    4.4020    0.2680    1.9170 O   0  0  0  0  0  0  0  0  0  0  0  0
    5.1590    1.1180    1.1140 C   0  0  0  0  0  0  0  0  0  0  0  0
    4.6490    2.4250    1.1420 O   0  0  0  0  0  0  0  0  0  0  0  0
    5.3840    3.2470    0.3630 N   0  0  0  0  0  0  0  0  0  0  0  0
    1.8700   -2.0470    0.4300 O   0  0  0  0  0  0  0  0  0  0  0  0
   -0.7660   -1.1320    1.9370 O   0  0  0  0  0  0  0  0  0  0  0  0
   -0.8030    0.1960    1.6270 C   0  0  0  0  0  0  0  0  0  0  0  0
   -0.4610    1.2090    2.2960 O   0  0  0  0  0  0  0  0  0  0  0  0
  2  1  1  1
  2  3  1  0
  2  4  1  0
  2  5  1  0
  5  6  1  0
  7  6  1  1
  7  8  1  0
  7 20  1  0
  7 31  1  0
  8  9  1  0
  9 10  1  0
  9 30  1  0
 10 11  2  0
 11 12  1  0
 12 13  2  0
 12 14  1  0
 14 15  1  0
 15 16  1  0
 15 29  1  0
 16 17  1  0
 17 18  2  0
 18 19  1  0
 18 22  1  0
 19 20  1  0
 20 21  2  0
 22 23  1  6
 22 24  1  0
 22 29  1  0
 24 25  1  0
 25 26  1  0
 26 27  1  0
 27 28  1  0
 30 31  1  0
 31 32  2  0
M  END
