
     RDKit          3D

 14 14  0  0  0  0  0  0  0  0999 V2000
    3.8350   -1.2090   -0.2410 N   0  0  0  0  0  0  0  0  0  0  0  0
    2.6890   -0.8910    0.5060 C   0  0  0  0  0  0  0  0  0  0  0  0
    2.0020   -1.8190    1.0160 O   0  0  0  0  0  0  0  0  0  0  0  0
    2.3000    0.5290    0.6870 C   0  0  1  0  0  0  0  0  0  0  0  0
    3.2690    1.3520   -0.0050 N   0  0  0  0  0  0  0  0  0  0  0  0
    0.9170    0.6890    0.0950 C   0  0  0  0  0  0  0  0  0  0  0  0
   -0.0230   -0.0970    0.7510 O   0  0  0  0  0  0  0  0  0  0  0  0
   -1.2350    0.0940    0.1720 C   0  0  2  0  0  0  0  0  0  0  0  0
   -2.3050    0.6270    1.0820 C   0  0  0  0  0  0  0  0  0  0  0  0
   -3.3830    1.0070    0.3200 O   0  0  0  0  0  0  0  0  0  0  0  0
   -3.4700    0.4790   -0.9360 C   0  0  0  0  0  0  0  0  0  0  0  0
   -2.9760   -0.9430   -1.0220 C   0  0  0  0  0  0  0  0  0  0  0  0
   -1.8040   -1.1460   -0.4410 C   0  0  0  0  0  0  0  0  0  0  0  0
   -1.2170   -2.3780   -0.4300 O   0  0  0  0  0  0  0  0  0  0  0  0
  1  2  1  0
  2  3  2  0
  2  4  1  0
  4  5  1  6
  4  6  1  0
  6  7  1  0
  8  7  1  1
  8  9  1  0
  8 13  1  0
  9 10  1  0
 10 11  1  0
 11 12  1  0
 12 13  2  0
 13 14  1  0
M  END
