
     RDKit          3D

 14 14  0  0  0  0  0  0  0  0999 V2000
   -0.1890   -1.1670   -1.1610 C   0  0  0  0  0  0  0  0  0  0  0  0
   -0.0610   -0.1840   -0.0390 C   0  0  1  0  0  0  0  0  0  0  0  0
    1.1320   -0.2410    0.6350 O   0  0  0  0  0  0  0  0  0  0  0  0
    2.2320    0.0050   -0.1800 C   0  0  0  0  0  0  0  0  0  0  0  0
    3.4970   -0.0670    0.5910 C   0  0  0  0  0  0  0  0  0  0  0  0
    4.7480    0.1510   -0.0390 N   0  0  0  0  0  0  0  0  0  0  0  0
    3.4480   -0.3240    1.8150 O   0  0  0  0  0  0  0  0  0  0  0  0
   -0.2910    1.2080   -0.6420 C   0  0  0  0  0  0  0  0  0  0  0  0
   -1.7520    1.4200   -0.8890 C   0  0  0  0  0  0  0  0  0  0  0  0
   -2.4990    0.2620   -0.8930 O   0  0  0  0  0  0  0  0  0  0  0  0
   -2.5030   -0.4170    0.2950 C   0  0  2  0  0  0  0  0  0  0  0  0
   -3.5910    0.0420    1.1310 N   0  0  0  0  0  0  0  0  0  0  0  0
   -1.1740   -0.3580    0.9970 C   0  0  1  0  0  0  0  0  0  0  0  0
   -0.9030   -1.4890    1.7510 O   0  0  0  0  0  0  0  0  0  0  0  0
  2  1  1  6
  2  3  1  0
  2  8  1  0
  2 13  1  0
  3  4  1  0
  4  5  1  0
  5  6  1  0
  5  7  2  0
  8  9  1  0
  9 10  1  0
 10 11  1  0
 11 12  1  1
 11 13  1  0
 13 14  1  6
M  END
