
     RDKit          3D

 32 35  0  0  0  0  0  0  0  0999 V2000
    2.5560   -2.3390   -0.9220 C   0  0  0  0  0  0  0  0  0  0  0  0
    3.4310   -1.4710   -0.1180 C   0  0  0  0  0  0  0  0  0  0  0  0
    3.9760   -2.0100    1.0600 C   0  0  0  0  0  0  0  0  0  0  0  0
    4.7920   -1.2630    1.8590 C   0  0  0  0  0  0  0  0  0  0  0  0
    5.3650   -1.8280    3.0900 C   0  0  0  0  0  0  0  0  0  0  0  0
    5.1850   -3.0470    3.5700 C   0  0  0  0  0  0  0  0  0  0  0  0
    5.9530   -3.1670    4.8260 C   0  0  0  0  0  0  0  0  0  0  0  0
    6.5820   -1.8700    4.9910 N   0  0  0  0  0  0  0  0  0  0  0  0
    6.2480   -1.1100    4.0040 C   0  0  0  0  0  0  0  0  0  0  0  0
    5.0740    0.0460    1.4860 C   0  0  0  0  0  0  0  0  0  0  0  0
    4.5440    0.5780    0.3370 C   0  0  0  0  0  0  0  0  0  0  0  0
    3.7160   -0.1940   -0.4670 C   0  0  0  0  0  0  0  0  0  0  0  0
    3.1740    0.3680   -1.6570 N   0  0  0  0  0  0  0  0  0  0  0  0
    3.4530    1.7380   -1.9850 C   0  0  0  0  0  0  0  0  0  0  0  0
    2.8290    2.2310   -3.2510 C   0  0  0  0  0  0  0  0  0  0  0  0
    1.3500    2.0860   -3.1530 C   0  0  0  0  0  0  0  0  0  0  0  0
    0.6810    0.9950   -3.6660 C   0  0  0  0  0  0  0  0  0  0  0  0
   -0.6930    0.8360   -3.5590 C   0  0  0  0  0  0  0  0  0  0  0  0
   -1.4460    1.7960   -2.9150 C   0  0  0  0  0  0  0  0  0  0  0  0
   -2.9080    1.6880   -2.7820 C   0  0  2  0  0  0  0  0  0  0  0  0
   -3.5850    2.7890   -3.5880 C   0  0  0  0  0  0  0  0  0  0  0  0
   -3.3430    1.8110   -1.3970 N   0  0  0  0  0  0  0  0  0  0  0  0
   -4.2620    0.8410   -0.8390 C   0  0  0  0  0  0  0  0  0  0  0  0
   -4.6690   -0.0760   -1.6030 O   0  0  0  0  0  0  0  0  0  0  0  0
   -4.7050    0.8860    0.4940 N   0  0  0  0  0  0  0  0  0  0  0  0
   -5.6280   -0.1200    0.9390 C   0  0  2  0  0  0  0  0  0  0  0  0
   -6.8230    0.4720    1.6510 C   0  0  0  0  0  0  0  0  0  0  0  0
   -7.4830   -0.7950    2.1930 C   0  0  0  0  0  0  0  0  0  0  0  0
   -6.3380   -1.7240    2.5190 C   0  0  0  0  0  0  0  0  0  0  0  0
   -5.0690   -1.0410    2.0030 C   0  0  0  0  0  0  0  0  0  0  0  0
   -0.7780    2.8800   -2.4050 C   0  0  0  0  0  0  0  0  0  0  0  0
    0.5870    3.0470   -2.5080 C   0  0  0  0  0  0  0  0  0  0  0  0
  1  2  1  0
  2  3  2  0
  2 12  1  0
  3  4  1  0
  4  5  1  0
  4 10  2  0
  5  6  2  0
  5  9  1  0
  6  7  1  0
  7  8  1  0
  8  9  2  0
 10 11  1  0
 11 12  2  0
 12 13  1  0
 13 14  1  0
 14 15  1  0
 15 16  1  0
 16 17  2  0
 16 32  1  0
 17 18  1  0
 18 19  2  0
 19 20  1  0
 19 31  1  0
 20 21  1  6
 20 22  1  0
 22 23  1  0
 23 24  2  0
 23 25  1  0
 26 25  1  1
 26 27  1  0
 26 30  1  0
 27 28  1  0
 28 29  1  0
 29 30  1  0
 31 32  2  0
M  CHG  1   8   1
M  END
