
     RDKit          3D

 32 35  0  0  0  0  0  0  0  0999 V2000
   -7.2300   -1.1660    2.1210 C   0  0  0  0  0  0  0  0  0  0  0  0
   -7.0580    0.2670    1.7760 C   0  0  0  0  0  0  0  0  0  0  0  0
   -7.5660    1.1200    2.5420 O   0  0  0  0  0  0  0  0  0  0  0  0
   -6.3100    0.5940    0.5720 C   0  0  0  0  0  0  0  0  0  0  0  0
   -6.9730    0.7140   -0.6230 C   0  0  0  0  0  0  0  0  0  0  0  0
   -8.4420    0.5130   -0.6910 C   0  0  0  0  0  0  0  0  0  0  0  0
   -6.2490    1.0150   -1.7080 N   0  0  0  0  0  0  0  0  0  0  0  0
   -4.9170    1.1990   -1.6580 C   0  0  0  0  0  0  0  0  0  0  0  0
   -4.2380    1.4840   -2.6880 O   0  0  0  0  0  0  0  0  0  0  0  0
   -4.2340    1.0820   -0.4640 C   0  0  0  0  0  0  0  0  0  0  0  0
   -2.8090    1.2730   -0.3760 N   0  0  0  0  0  0  0  0  0  0  0  0
   -2.0160    0.1130   -0.5620 C   0  0  0  0  0  0  0  0  0  0  0  0
   -2.5670   -1.0210   -0.7940 O   0  0  0  0  0  0  0  0  0  0  0  0
   -0.5680    0.1880   -0.4950 C   0  0  0  0  0  0  0  0  0  0  0  0
    0.0430    1.3730   -0.2070 C   0  0  0  0  0  0  0  0  0  0  0  0
    1.4380    1.4510   -0.1420 C   0  0  0  0  0  0  0  0  0  0  0  0
    2.1280    2.7330    0.1700 C   0  0  0  0  0  0  0  0  0  0  0  0
    2.1450    0.3010   -0.3760 C   0  0  0  0  0  0  0  0  0  0  0  0
    1.5540   -0.9050   -0.6680 C   0  0  0  0  0  0  0  0  0  0  0  0
    0.1880   -0.9550   -0.7260 C   0  0  0  0  0  0  0  0  0  0  0  0
    2.3820   -2.0370   -0.8950 N   0  0  0  0  0  0  0  0  0  0  0  0
    3.7530   -2.0190   -0.4460 C   0  0  0  0  0  0  0  0  0  0  0  0
    4.3770   -0.7250   -0.8520 C   0  0  2  0  0  0  0  0  0  0  0  0
    5.8040   -0.5660   -0.4330 C   0  0  1  0  0  0  0  0  0  0  0  0
    5.9770   -0.6360    1.0450 C   0  0  0  0  0  0  0  0  0  0  0  0
    7.2650    0.0380    1.5020 C   0  0  0  0  0  0  0  0  0  0  0  0
    8.3850    0.0600    0.0860 S   0  0  0  0  0  0  0  0  0  0  0  0
    8.1030   -1.4760   -0.8410 C   0  0  0  0  0  0  0  0  0  0  0  0
    6.6500   -1.5310   -1.2090 C   0  0  0  0  0  0  0  0  0  0  0  0
    3.5550    0.3660   -0.3140 N   0  0  0  0  0  0  0  0  0  0  0  0
   -4.9400    0.7720    0.6860 C   0  0  0  0  0  0  0  0  0  0  0  0
   -4.2880    0.6290    1.9970 C   0  0  0  0  0  0  0  0  0  0  0  0
  1  2  1  0
  2  3  2  0
  2  4  1  0
  4  5  2  0
  4 31  1  0
  5  6  1  0
  5  7  1  0
  7  8  1  0
  8  9  2  0
  8 10  1  0
 10 11  1  0
 10 31  2  0
 11 12  1  0
 12 13  2  0
 12 14  1  0
 14 15  2  0
 14 20  1  0
 15 16  1  0
 16 17  1  0
 16 18  2  0
 18 19  1  0
 18 30  1  0
 19 20  2  0
 19 21  1  0
 21 22  1  0
 23 22  1  1
 23 24  1  0
 23 30  1  0
 24 25  1  1
 24 29  1  0
 25 26  1  0
 26 27  1  0
 27 28  1  0
 28 29  1  0
 31 32  1  0
M  END
