
     RDKit          3D

 32 35  0  0  0  0  0  0  0  0999 V2000
   -3.4380    1.4640   -3.9350 C   0  0  0  0  0  0  0  0  0  0  0  0
   -3.0920    0.8900   -2.6450 C   0  0  0  0  0  0  0  0  0  0  0  0
   -3.7790    0.1410   -1.8230 C   0  0  0  0  0  0  0  0  0  0  0  0
   -3.1260   -0.2720   -0.5860 N   0  0  0  0  0  0  0  0  0  0  0  0
   -3.7920   -1.0760    0.3510 C   0  0  0  0  0  0  0  0  0  0  0  0
   -5.0670   -1.4590    0.0700 C   0  0  0  0  0  0  0  0  0  0  0  0
   -5.7330   -2.2590    1.0010 C   0  0  0  0  0  0  0  0  0  0  0  0
   -5.0940   -2.6320    2.1560 C   0  0  0  0  0  0  0  0  0  0  0  0
   -3.7750   -2.2160    2.4100 C   0  0  0  0  0  0  0  0  0  0  0  0
   -3.0930   -1.4310    1.5210 C   0  0  0  0  0  0  0  0  0  0  0  0
   -1.7460   -0.9950    1.7600 C   0  0  0  0  0  0  0  0  0  0  0  0
   -1.1600   -1.4340    2.9920 N   0  0  0  0  0  0  0  0  0  0  0  0
    0.1900   -1.0490    3.3200 C   0  0  0  0  0  0  0  0  0  0  0  0
    0.9110   -0.2620    2.4470 C   0  0  0  0  0  0  0  0  0  0  0  0
    2.1760    0.1220    2.7100 N   0  0  0  0  0  0  0  0  0  0  0  0
    2.9390    0.9500    1.7950 C   0  0  0  0  0  0  0  0  0  0  0  0
    3.7200    0.1240    0.8010 C   0  0  0  0  0  0  0  0  0  0  0  0
    4.4720    1.0840   -0.0960 C   0  0  1  0  0  0  0  0  0  0  0  0
    5.2930    0.3150   -1.1370 C   0  0  0  0  0  0  0  0  0  0  0  0
    6.0770    1.3370   -1.9130 C   0  0  1  0  0  0  0  0  0  0  0  0
    7.1590    0.6960   -2.5050 O   0  0  0  0  0  0  0  0  0  0  0  0
    5.2550    1.9710   -3.0100 C   0  0  0  0  0  0  0  0  0  0  0  0
    4.1440    2.8310   -2.4710 C   0  0  0  0  0  0  0  0  0  0  0  0
    3.3050    2.1150   -1.0560 S   0  0  0  0  0  0  0  0  0  0  0  0
    2.7030   -0.3020    3.8730 C   0  0  0  0  0  0  0  0  0  0  0  0
    3.8770    0.0090    4.1990 O   0  0  0  0  0  0  0  0  0  0  0  0
    2.0220   -1.0740    4.7490 N   0  0  0  0  0  0  0  0  0  0  0  0
    0.7510   -1.4670    4.4980 C   0  0  0  0  0  0  0  0  0  0  0  0
    0.1440   -2.1860    5.3350 O   0  0  0  0  0  0  0  0  0  0  0  0
   -5.7410   -1.0620   -1.1550 C   0  0  0  0  0  0  0  0  0  0  0  0
   -5.1360   -0.2980   -2.0680 C   0  0  0  0  0  0  0  0  0  0  0  0
   -5.9110    0.0580   -3.3150 C   0  0  0  0  0  0  0  0  0  0  0  0
  1  2  1  0
  2  3  2  3
  3  4  1  0
  3 31  1  0
  4  5  1  0
  5  6  2  0
  5 10  1  0
  6  7  1  0
  6 30  1  0
  7  8  2  0
  8  9  1  0
  9 10  2  0
 10 11  1  0
 11 12  1  0
 12 13  1  0
 13 14  2  0
 13 28  1  0
 14 15  1  0
 15 16  1  0
 15 25  1  0
 16 17  1  0
 18 17  1  1
 18 19  1  0
 18 24  1  0
 19 20  1  0
 20 21  1  6
 20 22  1  0
 22 23  1  0
 23 24  1  0
 25 26  2  0
 25 27  1  0
 27 28  1  0
 28 29  2  0
 30 31  2  0
 31 32  1  0
M  END
