
     RDKit          3D

 32 35  0  0  0  0  0  0  0  0999 V2000
    5.0940   -3.9030    1.6010 C   0  0  0  0  0  0  0  0  0  0  0  0
    4.7690   -3.8730    0.1710 N   0  0  0  0  0  0  0  0  0  0  0  0
    4.2310   -2.5690   -0.0800 C   0  0  0  0  0  0  0  0  0  0  0  0
    2.9520   -2.3740   -0.2400 C   0  0  0  0  0  0  0  0  0  0  0  0
    2.3810   -1.0690   -0.4950 C   0  0  0  0  0  0  0  0  0  0  0  0
    3.1520    0.0610   -0.5860 C   0  0  0  0  0  0  0  0  0  0  0  0
    2.5740    1.2930   -0.8310 C   0  0  0  0  0  0  0  0  0  0  0  0
    1.2270    1.4390   -0.9890 C   0  0  0  0  0  0  0  0  0  0  0  0
    0.6490    2.7410   -1.2320 C   0  0  0  0  0  0  0  0  0  0  0  0
    0.7530    3.8180   -0.4990 C   0  0  0  0  0  0  0  0  0  0  0  0
    0.1050    5.1150   -0.8760 C   0  0  0  0  0  0  0  0  0  0  0  0
   -0.5580    5.3410   -1.9010 O   0  0  0  0  0  0  0  0  0  0  0  0
    0.4150    6.0010    0.1800 N   0  0  0  0  0  0  0  0  0  0  0  0
    1.1680    5.3410    1.1090 N   0  0  0  0  0  0  0  0  0  0  0  0
    1.3840    4.0970    0.7660 C   0  0  0  0  0  0  0  0  0  0  0  0
    2.1440    3.1240    1.6100 C   0  0  0  0  0  0  0  0  0  0  0  0
    0.4020    0.2990   -0.9020 C   0  0  0  0  0  0  0  0  0  0  0  0
   -0.9830    0.5040   -1.0820 N   0  0  0  0  0  0  0  0  0  0  0  0
   -1.8970   -0.5850   -0.9630 C   0  0  1  0  0  0  0  0  0  0  0  0
   -1.9430   -1.1660    0.4000 C   0  0  0  0  0  0  0  0  0  0  0  0
   -1.8960   -0.3390    1.5000 C   0  0  0  0  0  0  0  0  0  0  0  0
   -1.9530   -0.8380    2.7950 C   0  0  0  0  0  0  0  0  0  0  0  0
   -2.0580   -2.1920    3.0210 C   0  0  0  0  0  0  0  0  0  0  0  0
   -2.1070   -3.0460    1.9190 C   0  0  0  0  0  0  0  0  0  0  0  0
   -2.0480   -2.5190    0.6330 C   0  0  0  0  0  0  0  0  0  0  0  0
   -3.2960   -0.1930   -1.3190 C   0  0  0  0  0  0  0  0  0  0  0  0
   -3.8840    0.9790   -0.8920 C   0  0  0  0  0  0  0  0  0  0  0  0
   -5.1940    1.3070   -1.2450 C   0  0  0  0  0  0  0  0  0  0  0  0
   -5.9480    0.4670   -2.0360 C   0  0  0  0  0  0  0  0  0  0  0  0
   -5.3640   -0.7040   -2.4650 C   0  0  0  0  0  0  0  0  0  0  0  0
   -4.0680   -1.0220   -2.1110 C   0  0  0  0  0  0  0  0  0  0  0  0
    1.0080   -0.9000   -0.6610 C   0  0  0  0  0  0  0  0  0  0  0  0
  1  2  1  0
  2  3  1  0
  3  4  2  3
  4  5  1  0
  5  6  2  0
  5 32  1  0
  6  7  1  0
  7  8  2  0
  8  9  1  0
  8 17  1  0
  9 10  2  3
 10 11  1  0
 10 15  1  0
 11 12  2  0
 11 13  1  0
 13 14  1  0
 14 15  2  0
 15 16  1  0
 17 18  1  0
 17 32  2  0
 19 18  1  1
 19 20  1  0
 19 26  1  0
 20 21  2  0
 20 25  1  0
 21 22  1  0
 22 23  2  0
 23 24  1  0
 24 25  2  0
 26 27  2  0
 26 31  1  0
 27 28  1  0
 28 29  2  0
 29 30  1  0
 30 31  2  0
M  CHG  1   2   1
M  END
