
     RDKit          3D

 32 35  0  0  0  0  0  0  0  0999 V2000
    2.9630   -0.9870   -1.1280 C   0  0  0  0  0  0  0  0  0  0  0  0
    2.1450   -0.4500    0.0480 C   0  0  1  0  0  0  0  0  0  0  0  0
    2.6480   -0.7010    1.4030 C   0  0  0  0  0  0  0  0  0  0  0  0
    2.2720    1.0690   -0.2170 C   0  0  0  0  0  0  0  0  0  0  0  0
    1.2980    1.7380   -0.5460 O   0  0  0  0  0  0  0  0  0  0  0  0
    3.5470    1.6500   -0.0670 N   0  0  0  0  0  0  0  0  0  0  0  0
    3.7900    3.0230   -0.2800 C   0  0  0  0  0  0  0  0  0  0  0  0
    5.1100    3.5800   -0.1190 N   0  0  0  0  0  0  0  0  0  0  0  0
    2.8520    3.8170   -0.6230 N   0  0  0  0  0  0  0  0  0  0  0  0
    0.7250   -0.7870   -0.2190 C   0  0  0  0  0  0  0  0  0  0  0  0
   -0.0800    0.2210   -0.7120 N   0  0  0  0  0  0  0  0  0  0  0  0
   -1.3570    0.0960   -1.0470 C   0  0  0  0  0  0  0  0  0  0  0  0
   -2.0860    1.2630   -1.5570 C   0  0  0  0  0  0  0  0  0  0  0  0
   -1.7450    1.8860   -2.7380 C   0  0  0  0  0  0  0  0  0  0  0  0
   -2.4280    2.9870   -3.2220 C   0  0  0  0  0  0  0  0  0  0  0  0
   -3.4940    3.5000   -2.5140 C   0  0  0  0  0  0  0  0  0  0  0  0
   -3.8310    2.8730   -1.3340 C   0  0  0  0  0  0  0  0  0  0  0  0
   -3.1460    1.7720   -0.8530 C   0  0  0  0  0  0  0  0  0  0  0  0
   -3.5100    1.1190    0.4000 C   0  0  0  0  0  0  0  0  0  0  0  0
   -4.7520    0.5360    0.5600 C   0  0  0  0  0  0  0  0  0  0  0  0
   -5.0770   -0.0830    1.7730 C   0  0  0  0  0  0  0  0  0  0  0  0
   -4.1840   -0.1260    2.8210 C   0  0  0  0  0  0  0  0  0  0  0  0
   -2.9400    0.4610    2.6550 C   0  0  0  0  0  0  0  0  0  0  0  0
   -2.6360    1.0610    1.4660 C   0  0  0  0  0  0  0  0  0  0  0  0
   -1.9090   -1.1390   -0.8850 C   0  0  0  0  0  0  0  0  0  0  0  0
   -1.1730   -2.1780   -0.4030 C   0  0  0  0  0  0  0  0  0  0  0  0
    0.1900   -2.0250   -0.0500 C   0  0  0  0  0  0  0  0  0  0  0  0
    0.9150   -3.1720    0.4400 C   0  0  0  0  0  0  0  0  0  0  0  0
    0.2200   -4.2180    0.9410 C   0  0  0  0  0  0  0  0  0  0  0  0
    1.0950   -5.3090    1.3920 C   0  0  0  0  0  0  0  0  0  0  0  0
    2.4250   -4.8170    1.0800 C   0  0  0  0  0  0  0  0  0  0  0  0
    2.2740   -3.5980    0.5430 C   0  0  0  0  0  0  0  0  0  0  0  0
  2  1  1  6
  2  3  1  0
  2  4  1  0
  2 10  1  0
  4  5  2  0
  4  6  1  0
  6  7  1  0
  7  8  1  0
  7  9  2  0
 10 11  2  0
 10 27  1  0
 11 12  1  0
 12 13  1  0
 12 25  2  0
 13 14  2  0
 13 18  1  0
 14 15  1  0
 15 16  2  0
 16 17  1  0
 17 18  2  0
 18 19  1  0
 19 20  2  0
 19 24  1  0
 20 21  1  0
 21 22  2  0
 22 23  1  0
 23 24  2  0
 25 26  1  0
 26 27  2  0
 27 28  1  0
 28 29  2  0
 28 32  1  0
 29 30  1  0
 30 31  1  0
 31 32  2  0
M  CHG  1   9   1
M  END
