
     RDKit          3D

 32 35  0  0  0  0  0  0  0  0999 V2000
   -6.7920    2.4070   -0.1610 C   0  0  0  0  0  0  0  0  0  0  0  0
   -5.4120    2.4970    0.2750 C   0  0  0  0  0  0  0  0  0  0  0  0
   -4.5350    1.5430    0.4970 C   0  0  0  0  0  0  0  0  0  0  0  0
   -3.1830    2.0570    0.9370 C   0  0  0  0  0  0  0  0  0  0  0  0
   -4.8870    0.1360    0.4660 C   0  0  0  0  0  0  0  0  0  0  0  0
   -6.1970   -0.2600    0.7680 C   0  0  0  0  0  0  0  0  0  0  0  0
   -6.6640   -1.5460    0.6340 C   0  0  0  0  0  0  0  0  0  0  0  0
   -5.7990   -2.5100    0.1800 C   0  0  0  0  0  0  0  0  0  0  0  0
   -4.5100   -2.1830   -0.1260 C   0  0  0  0  0  0  0  0  0  0  0  0
   -4.0490   -0.8780    0.0110 C   0  0  0  0  0  0  0  0  0  0  0  0
   -2.6630   -0.6700   -0.2460 N   0  0  0  0  0  0  0  0  0  0  0  0
   -1.9850   -1.4350   -1.2590 C   0  0  0  0  0  0  0  0  0  0  0  0
   -2.6340   -2.0170   -2.2850 C   0  0  0  0  0  0  0  0  0  0  0  0
   -1.9680   -2.6920   -3.3140 C   0  0  0  0  0  0  0  0  0  0  0  0
   -0.5960   -2.7390   -3.2370 C   0  0  0  0  0  0  0  0  0  0  0  0
    0.1010   -2.1460   -2.1900 C   0  0  0  0  0  0  0  0  0  0  0  0
   -0.6030   -1.5080   -1.2230 C   0  0  0  0  0  0  0  0  0  0  0  0
    0.1100   -0.8570   -0.0820 C   0  0  0  0  0  0  0  0  0  0  0  0
    1.5140   -1.0580   -0.2270 N   0  0  0  0  0  0  0  0  0  0  0  0
    2.3000   -0.6050    0.9080 C   0  0  2  0  0  0  0  0  0  0  0  0
    2.1920    0.8510    1.1620 C   0  0  0  0  0  0  0  0  0  0  0  0
    3.5210    1.2170    1.7080 C   0  0  0  0  0  0  0  0  0  0  0  0
    3.8540    2.0600    2.5760 O   0  0  0  0  0  0  0  0  0  0  0  0
    4.4400    0.3780    1.0190 N   0  0  0  0  0  0  0  0  0  0  0  0
    5.7800    0.6410    0.6340 C   0  0  0  0  0  0  0  0  0  0  0  0
    6.6610   -0.4220    0.4000 C   0  0  0  0  0  0  0  0  0  0  0  0
    7.9640   -0.2410    0.0210 C   0  0  0  0  0  0  0  0  0  0  0  0
    8.4340    1.0550   -0.1370 C   0  0  0  0  0  0  0  0  0  0  0  0
    7.6170    2.1330    0.0780 C   0  0  0  0  0  0  0  0  0  0  0  0
    6.3110    1.9010    0.4580 C   0  0  0  0  0  0  0  0  0  0  0  0
    5.4610    3.0240    0.6800 N   0  0  0  0  0  0  0  0  0  0  0  0
    3.7520   -0.8910    0.7450 C   0  0  0  0  0  0  0  0  0  0  0  0
  1  2  1  0
  2  3  2  3
  3  4  1  0
  3  5  1  0
  5  6  2  0
  5 10  1  0
  6  7  1  0
  7  8  2  0
  8  9  1  0
  9 10  2  0
 10 11  1  0
 11 12  1  0
 12 13  2  0
 12 17  1  0
 13 14  1  0
 14 15  2  0
 15 16  1  0
 16 17  2  0
 17 18  1  0
 18 19  1  0
 20 19  1  6
 20 21  1  0
 20 32  1  0
 21 22  1  0
 22 23  2  0
 22 24  1  0
 24 25  1  0
 24 32  1  0
 25 26  2  0
 25 30  1  0
 26 27  1  0
 27 28  2  0
 28 29  1  0
 29 30  2  0
 30 31  1  0
M  CHG  1  19   1
M  END
