
     RDKit          3D

 32 36  0  0  0  0  0  0  0  0999 V2000
    8.4830   -1.2430   -0.3190 C   0  0  0  0  0  0  0  0  0  0  0  0
    7.0920   -0.6660   -0.3430 C   0  0  0  0  0  0  0  0  0  0  0  0
    6.6630    0.1990    0.6360 C   0  0  0  0  0  0  0  0  0  0  0  0
    5.3760    0.7240    0.6020 C   0  0  0  0  0  0  0  0  0  0  0  0
    4.4900    0.4040   -0.4030 C   0  0  0  0  0  0  0  0  0  0  0  0
    3.1430    0.9920   -0.3830 C   0  0  2  0  0  0  0  0  0  0  0  0
    2.1210    0.0010   -0.6670 N   0  0  0  0  0  0  0  0  0  0  0  0
    1.0360   -0.1770    0.2170 C   0  0  0  0  0  0  0  0  0  0  0  0
    0.9770    0.5320    1.2420 O   0  0  0  0  0  0  0  0  0  0  0  0
    0.0160   -1.1740   -0.0780 C   0  0  0  0  0  0  0  0  0  0  0  0
    0.0680   -1.9870   -1.1880 C   0  0  0  0  0  0  0  0  0  0  0  0
   -0.9400   -2.9280   -1.4230 C   0  0  0  0  0  0  0  0  0  0  0  0
   -1.9970   -3.0470   -0.5400 C   0  0  0  0  0  0  0  0  0  0  0  0
   -2.0820   -2.2480    0.5840 C   0  0  0  0  0  0  0  0  0  0  0  0
   -3.2090   -2.3550    1.5530 C   0  0  0  0  0  0  0  0  0  0  0  0
   -4.3310   -1.4580    1.1800 C   0  0  0  0  0  0  0  0  0  0  0  0
   -5.3370   -1.9180    0.3520 C   0  0  0  0  0  0  0  0  0  0  0  0
   -6.3430   -1.0270    0.0500 C   0  0  0  0  0  0  0  0  0  0  0  0
   -6.3890    0.2670    0.5250 C   0  0  0  0  0  0  0  0  0  0  0  0
   -5.3590    0.6690    1.3460 C   0  0  0  0  0  0  0  0  0  0  0  0
   -4.3230   -0.1800    1.6830 C   0  0  0  0  0  0  0  0  0  0  0  0
   -5.6010    2.0720    1.7380 C   0  0  0  0  0  0  0  0  0  0  0  0
   -7.0490    2.2860    1.3880 C   0  0  0  0  0  0  0  0  0  0  0  0
   -7.3250    1.3490    0.3420 N   0  0  0  0  0  0  0  0  0  0  0  0
   -1.0730   -1.3380    0.7780 C   0  0  0  0  0  0  0  0  0  0  0  0
    2.9920    2.0490   -1.4450 C   0  0  0  0  0  0  0  0  0  0  0  0
    2.9900    3.4030   -1.3270 C   0  0  0  0  0  0  0  0  0  0  0  0
    2.8210    3.9350   -2.5870 C   0  0  0  0  0  0  0  0  0  0  0  0
    2.7240    2.9000   -3.4440 N   0  0  0  0  0  0  0  0  0  0  0  0
    2.8280    1.7850   -2.7520 N   0  0  0  0  0  0  0  0  0  0  0  0
    4.9280   -0.4620   -1.3780 C   0  0  0  0  0  0  0  0  0  0  0  0
    6.2190   -0.9950   -1.3510 C   0  0  0  0  0  0  0  0  0  0  0  0
  1  2  1  0
  2  3  2  0
  2 32  1  0
  3  4  1  0
  4  5  2  0
  5  6  1  0
  5 31  1  0
  6  7  1  6
  6 26  1  0
  7  8  1  0
  8  9  2  0
  8 10  1  0
 10 11  2  0
 10 25  1  0
 11 12  1  0
 12 13  2  0
 13 14  1  0
 14 15  1  0
 14 25  2  0
 15 16  1  0
 16 17  2  0
 16 21  1  0
 17 18  1  0
 18 19  2  0
 19 20  1  0
 19 24  1  0
 20 21  2  0
 20 22  1  0
 22 23  1  0
 23 24  1  0
 26 27  2  0
 26 30  1  0
 27 28  1  0
 28 29  2  0
 29 30  1  0
 31 32  2  0
M  CHG  1  24   1
M  END
