
     RDKit          3D

 35 37  0  0  0  0  0  0  0  0999 V2000
    0.1810   -3.7250   -3.9690 C   0  0  0  0  0  0  0  0  0  0  0  0
   -0.7440   -2.9340   -3.1060 C   0  0  0  0  0  0  0  0  0  0  0  0
    0.0790   -2.1330   -2.0400 C   0  0  0  0  0  0  0  0  0  0  0  0
   -0.8630   -1.3530   -1.1900 C   0  0  0  0  0  0  0  0  0  0  0  0
   -0.4960   -0.5520   -0.0450 C   0  0  1  0  0  0  0  0  0  0  0  0
   -2.0080   -0.0620    0.3680 C   0  0  2  0  0  0  0  0  0  0  0  0
   -2.6500   -1.3250    0.6110 O   0  0  0  0  0  0  0  0  0  0  0  0
   -2.7520    0.4640   -0.7500 C   0  0  0  0  0  0  0  0  0  0  0  0
   -4.1030    1.0280   -0.6050 C   0  0  0  0  0  0  0  0  0  0  0  0
   -4.9380    1.2630    0.3420 C   0  0  0  0  0  0  0  0  0  0  0  0
   -4.8440    1.0410    1.7420 C   0  0  0  0  0  0  0  0  0  0  0  0
   -3.9050    0.5680    2.3620 O   0  0  0  0  0  0  0  0  0  0  0  0
   -5.9500    1.3960    2.5600 O   0  0  0  0  0  0  0  0  0  0  0  0
   -6.2230    1.8810   -0.2240 C   0  0  0  0  0  0  0  0  0  0  0  0
   -5.6530    2.5140   -1.4660 C   0  0  0  0  0  0  0  0  0  0  0  0
   -4.7560    1.4740   -1.8290 O   0  0  0  0  0  0  0  0  0  0  0  0
   -0.3430   -1.4070    1.2290 C   0  0  1  0  0  0  0  0  0  0  0  0
    1.0540   -1.6340    1.6510 C   0  0  0  0  0  0  0  0  0  0  0  0
    1.4300   -0.2610    2.2240 C   0  0  1  0  0  0  0  0  0  0  0  0
    0.8190    0.8500    1.4980 C   0  0  0  0  0  0  0  0  0  0  0  0
    0.3750    0.6050    0.0220 C   0  0  2  0  0  0  0  0  0  0  0  0
   -0.5330    1.7220   -0.0850 O   0  0  0  0  0  0  0  0  0  0  0  0
    1.4670    1.0900   -0.8140 C   0  0  2  0  0  0  0  0  0  0  0  0
    1.8730    2.5060   -0.2330 C   0  0  0  0  0  0  0  0  0  0  0  0
    0.8650    1.7420   -2.4020 Cl  0  0  0  0  0  0  0  0  0  0  0  0
    2.7970    0.5370   -1.0530 C   0  0  1  0  0  0  0  0  0  0  0  0
    3.0940   -0.7760   -1.5950 C   0  0  0  0  0  0  0  0  0  0  0  0
    3.2210    1.3300   -2.2660 O   0  0  0  0  0  0  0  0  0  0  0  0
    3.9320    0.9910   -0.1520 C   0  0  0  0  0  0  0  0  0  0  0  0
    5.2450    0.3000   -0.4600 C   0  0  0  0  0  0  0  0  0  0  0  0
    6.3380    0.8740    0.4760 C   0  0  0  0  0  0  0  0  0  0  0  0
    0.9210   -0.3130    3.6760 C   0  0  1  0  0  0  0  0  0  0  0  0
    0.6060    0.9780    4.1070 O   0  0  0  0  0  0  0  0  0  0  0  0
   -0.3230   -1.1160    3.6470 C   0  0  0  0  0  0  0  0  0  0  0  0
   -1.0460   -0.8910    2.3800 N   0  0  0  0  0  0  0  0  0  0  0  0
  1  2  1  0
  2  3  1  0
  3  4  1  0
  5  4  1  6
  5  6  1  0
  5 17  1  0
  5 21  1  0
  6  7  1  6
  6  8  1  0
  8  9  1  0
  9 10  2  0
  9 16  1  0
 10 11  1  0
 10 14  1  0
 11 12  2  0
 11 13  1  0
 14 15  1  0
 15 16  1  0
 17 18  1  0
 17 35  1  1
 18 19  1  0
 19 20  1  6
 19 32  1  0
 20 21  1  0
 21 22  1  6
 21 23  1  0
 23 24  1  1
 23 25  1  0
 23 26  1  0
 26 27  1  6
 26 28  1  0
 26 29  1  0
 29 30  1  0
 30 31  1  0
 32 33  1  6
 32 34  1  0
 34 35  1  0
M  END
