
     RDKit          3D

 35 37  0  0  0  0  0  0  0  0999 V2000
    4.2260   -2.8190    0.0470 C   0  0  0  0  0  0  0  0  0  0  0  0
    3.0090   -1.9530   -0.0410 C   0  0  0  0  0  0  0  0  0  0  0  0
    3.3530   -0.5160   -0.3920 C   0  0  2  0  0  0  0  0  0  0  0  0
    4.0500   -0.4440   -1.7160 C   0  0  0  0  0  0  0  0  0  0  0  0
    4.0960    0.1940    0.7430 C   0  0  1  0  0  0  0  0  0  0  0  0
    5.4760    0.4750    0.4810 N   0  0  0  0  0  0  0  0  0  0  0  0
    3.2480    1.4110    0.4120 C   0  0  1  0  0  0  0  0  0  0  0  0
    2.8650    2.1310    1.6750 C   0  0  0  0  0  0  0  0  0  0  0  0
    3.8460    2.3540   -0.5930 C   0  0  0  0  0  0  0  0  0  0  0  0
    2.2320    0.4740   -0.1650 C   0  0  2  0  0  0  0  0  0  0  0  0
    1.3120   -0.0610    0.7210 O   0  0  0  0  0  0  0  0  0  0  0  0
    0.0050    0.0030    0.3010 C   0  0  1  0  0  0  0  0  0  0  0  0
   -0.6960   -1.3170    0.1760 C   0  0  0  0  0  0  0  0  0  0  0  0
   -2.0070   -1.0860   -0.5520 C   0  0  1  0  0  0  0  0  0  0  0  0
   -1.6950   -1.3110   -2.0160 C   0  0  0  0  0  0  0  0  0  0  0  0
   -1.1950   -2.4760   -2.4220 O   0  0  0  0  0  0  0  0  0  0  0  0
   -3.1810   -1.7580    0.0240 C   0  0  1  0  0  0  0  0  0  0  0  0
   -4.3280   -1.4000   -0.8170 O   0  0  0  0  0  0  0  0  0  0  0  0
   -3.3250   -3.1740    0.2050 C   0  0  0  0  0  0  0  0  0  0  0  0
   -3.2780   -3.7570    1.3790 C   0  0  0  0  0  0  0  0  0  0  0  0
   -3.0900   -3.1670    2.6650 C   0  0  0  0  0  0  0  0  0  0  0  0
   -3.0670   -3.9410    3.7170 O   0  0  0  0  0  0  0  0  0  0  0  0
   -2.9230   -1.8390    2.9750 O   0  0  0  0  0  0  0  0  0  0  0  0
   -3.5990   -4.1150   -0.9420 C   0  0  0  0  0  0  0  0  0  0  0  0
   -3.7360   -5.4080   -0.3830 O   0  0  0  0  0  0  0  0  0  0  0  0
   -2.3790    0.4230   -0.5510 C   0  0  0  0  0  0  0  0  0  0  0  0
   -2.0480    1.1920    0.6440 C   0  0  2  0  0  0  0  0  0  0  0  0
   -3.4410    1.1790    1.7760 Cl  0  0  0  0  0  0  0  0  0  0  0  0
   -1.8260    2.6560    0.3110 C   0  0  2  0  0  0  0  0  0  0  0  0
   -1.5460    3.3780    1.5030 O   0  0  0  0  0  0  0  0  0  0  0  0
   -3.0160    3.3170   -0.3180 C   0  0  0  0  0  0  0  0  0  0  0  0
   -2.4240    4.5880   -0.8880 C   0  0  0  0  0  0  0  0  0  0  0  0
   -0.9360    4.4500   -0.8670 C   0  0  0  0  0  0  0  0  0  0  0  0
   -0.7240    2.9370   -0.6440 C   0  0  0  0  0  0  0  0  0  0  0  0
   -0.8080    0.7500    1.3730 C   0  0  0  0  0  0  0  0  0  0  0  0
  1  2  1  0
  2  3  1  0
  3  4  1  6
  3  5  1  0
  3 10  1  0
  5  6  1  6
  5  7  1  0
  7  8  1  1
  7  9  1  0
  7 10  1  0
 10 11  1  1
 12 11  1  1
 12 13  1  0
 12 35  1  0
 13 14  1  0
 14 15  1  6
 14 17  1  0
 14 26  1  0
 15 16  1  0
 17 18  1  6
 17 19  1  0
 19 20  2  3
 19 24  1  0
 20 21  1  0
 21 22  2  0
 21 23  1  0
 24 25  1  0
 26 27  1  0
 27 28  1  1
 27 29  1  0
 27 35  1  0
 29 30  1  1
 29 31  1  0
 29 34  1  0
 31 32  1  0
 32 33  1  0
 33 34  1  0
M  END
