
     RDKit          3D

 35 40  0  0  0  0  0  0  0  0999 V2000
   -4.2540   -4.5490   -0.4410 C   0  0  0  0  0  0  0  0  0  0  0  0
   -3.6100   -3.6050    0.4750 N   0  0  0  0  0  0  0  0  0  0  0  0
   -3.3470   -2.2740    0.1360 C   0  0  0  0  0  0  0  0  0  0  0  0
   -3.6420   -1.8010   -0.9610 O   0  0  0  0  0  0  0  0  0  0  0  0
   -2.6770   -1.3870    1.1590 C   0  0  0  0  0  0  0  0  0  0  0  0
   -2.4960   -0.0810    0.6340 N   0  0  0  0  0  0  0  0  0  0  0  0
   -3.5580    0.8840    0.8300 C   0  0  0  0  0  0  0  0  0  0  0  0
   -4.2890    0.6950    1.8140 O   0  0  0  0  0  0  0  0  0  0  0  0
   -3.8720    2.0430    0.0180 C   0  0  0  0  0  0  0  0  0  0  0  0
   -4.9020    2.8090    0.5270 C   0  0  0  0  0  0  0  0  0  0  0  0
   -5.2870    3.9270   -0.1550 C   0  0  0  0  0  0  0  0  0  0  0  0
   -4.6830    4.3240   -1.3440 C   0  0  0  0  0  0  0  0  0  0  0  0
   -3.6540    3.5630   -1.8570 C   0  0  0  0  0  0  0  0  0  0  0  0
   -2.8720    4.0420   -3.3600 Cl  0  0  0  0  0  0  0  0  0  0  0  0
   -3.2530    2.4300   -1.1800 C   0  0  0  0  0  0  0  0  0  0  0  0
   -2.1940    1.7790   -1.8470 O   0  0  0  0  0  0  0  0  0  0  0  0
   -1.1900    1.0420   -1.1930 C   0  0  0  0  0  0  0  0  0  0  0  0
    0.0630    1.1750   -1.7450 C   0  0  0  0  0  0  0  0  0  0  0  0
    1.1630    0.5160   -1.2180 C   0  0  0  0  0  0  0  0  0  0  0  0
    1.0260   -0.2830   -0.1330 C   0  0  0  0  0  0  0  0  0  0  0  0
    2.1590   -1.0170    0.4820 C   0  0  1  0  0  0  0  0  0  0  0  0
    2.9470   -1.6370   -0.5610 N   0  0  0  0  0  0  0  0  0  0  0  0
    4.3000   -1.3490   -0.8070 C   0  0  0  0  0  0  0  0  0  0  0  0
    5.1150   -1.8480   -1.7230 C   0  0  0  0  0  0  0  0  0  0  0  0
    6.4430   -1.2030   -1.5490 C   0  0  0  0  0  0  0  0  0  0  0  0
    6.2130   -0.2850   -0.4020 C   0  0  0  0  0  0  0  0  0  0  0  0
    4.9740   -0.3790    0.0160 C   0  0  0  0  0  0  0  0  0  0  0  0
    4.1920    0.2710    1.0910 C   0  0  0  0  0  0  0  0  0  0  0  0
    2.9310   -0.0320    1.2810 C   0  0  0  0  0  0  0  0  0  0  0  0
    2.4670    0.7790    2.4050 C   0  0  0  0  0  0  0  0  0  0  0  0
    1.3050    0.7890    2.9090 O   0  0  0  0  0  0  0  0  0  0  0  0
    3.5650    1.5650    2.8370 N   0  0  0  0  0  0  0  0  0  0  0  0
    4.6390    1.2480    2.0180 N   0  0  0  0  0  0  0  0  0  0  0  0
   -0.2170   -0.4530    0.4650 C   0  0  0  0  0  0  0  0  0  0  0  0
   -1.2980    0.2040   -0.0690 C   0  0  0  0  0  0  0  0  0  0  0  0
  1  2  1  0
  2  3  1  0
  3  4  2  0
  3  5  1  0
  5  6  1  0
  6  7  1  0
  6 35  1  0
  7  8  2  0
  7  9  1  0
  9 10  2  0
  9 15  1  0
 10 11  1  0
 11 12  2  0
 12 13  1  0
 13 14  1  0
 13 15  2  0
 15 16  1  0
 16 17  1  0
 17 18  2  0
 17 35  1  0
 18 19  1  0
 19 20  2  0
 21 20  1  6
 20 34  1  0
 21 22  1  0
 21 29  1  0
 22 23  1  0
 23 24  2  0
 23 27  1  0
 24 25  1  0
 25 26  1  0
 26 27  2  0
 27 28  1  0
 28 29  2  0
 28 33  1  0
 29 30  1  0
 30 31  2  0
 30 32  1  0
 32 33  1  0
 34 35  2  0
M  CHG  1  33   1
M  END
