
     RDKit          3D

 34 39  0  0  0  0  0  0  0  0999 V2000
   -8.4020   -0.3240    0.5160 C   0  0  0  0  0  0  0  0  0  0  0  0
   -6.9200   -0.4360    0.7840 C   0  0  0  0  0  0  0  0  0  0  0  0
   -6.1920   -0.3890   -0.4970 C   0  0  0  0  0  0  0  0  0  0  0  0
   -6.7480   -0.2700   -1.7060 N   0  0  0  0  0  0  0  0  0  0  0  0
   -6.0630   -0.2300   -2.8720 C   0  0  0  0  0  0  0  0  0  0  0  0
   -6.6110   -0.1180   -3.9910 O   0  0  0  0  0  0  0  0  0  0  0  0
   -4.6690   -0.3150   -2.8500 C   0  0  0  0  0  0  0  0  0  0  0  0
   -3.6760   -0.3110   -3.7420 N   0  0  0  0  0  0  0  0  0  0  0  0
   -2.4940   -0.4270   -3.0970 C   0  0  0  0  0  0  0  0  0  0  0  0
   -2.7210   -0.5090   -1.7380 C   0  0  0  0  0  0  0  0  0  0  0  0
   -4.0840   -0.4370   -1.6190 C   0  0  0  0  0  0  0  0  0  0  0  0
   -4.8010   -0.4750   -0.4620 C   0  0  0  0  0  0  0  0  0  0  0  0
   -4.0360   -0.6170    0.8060 C   0  0  0  0  0  0  0  0  0  0  0  0
   -2.6100   -0.2030    0.7190 C   0  0  0  0  0  0  0  0  0  0  0  0
   -1.8640   -0.6400   -0.5020 C   0  0  2  0  0  0  0  0  0  0  0  0
   -0.6910    0.1320   -0.7610 N   0  0  0  0  0  0  0  0  0  0  0  0
    0.0020    0.6320    0.3790 C   0  0  2  0  0  0  0  0  0  0  0  0
    0.0320    2.1640    0.2620 C   0  0  0  0  0  0  0  0  0  0  0  0
    0.5880    2.8040    1.4890 C   0  0  0  0  0  0  0  0  0  0  0  0
    1.7740    2.0820    2.0340 C   0  0  0  0  0  0  0  0  0  0  0  0
    2.2620    1.0080    1.1990 N   0  0  0  0  0  0  0  0  0  0  0  0
    3.6780    0.7440    1.2330 C   0  0  0  0  0  0  0  0  0  0  0  0
    4.4120    1.4390    1.9670 O   0  0  0  0  0  0  0  0  0  0  0  0
    4.2690   -0.2760    0.4650 N   0  0  0  0  0  0  0  0  0  0  0  0
    5.6200   -0.6430    0.3970 C   0  0  0  0  0  0  0  0  0  0  0  0
    5.9740   -1.7150   -0.4150 C   0  0  0  0  0  0  0  0  0  0  0  0
    7.2590   -2.1710   -0.5680 C   0  0  0  0  0  0  0  0  0  0  0  0
    8.2650   -1.5490    0.1090 C   0  0  0  0  0  0  0  0  0  0  0  0
    7.9780   -0.4830    0.9280 C   0  0  0  0  0  0  0  0  0  0  0  0
    6.6510   -0.0400    1.0640 C   0  0  0  0  0  0  0  0  0  0  0  0
    9.1770   -0.0730    1.4660 O   0  0  0  0  0  0  0  0  0  0  0  0
   10.2370   -0.8980    1.0190 C   0  0  0  0  0  0  0  0  0  0  0  0
    9.6420   -1.8020    0.1360 O   0  0  0  0  0  0  0  0  0  0  0  0
    1.4510    0.1960    0.3510 C   0  0  0  0  0  0  0  0  0  0  0  0
  1  2  1  0
  2  3  1  0
  3  4  1  0
  3 12  2  0
  4  5  1  0
  5  6  2  0
  5  7  1  0
  7  8  1  0
  7 11  2  0
  8  9  1  0
  9 10  2  0
 10 11  1  0
 10 15  1  0
 11 12  1  0
 12 13  1  0
 13 14  1  0
 14 15  1  0
 15 16  1  6
 17 16  1  6
 17 18  1  0
 17 34  1  0
 18 19  1  0
 19 20  1  0
 20 21  1  0
 21 22  1  0
 21 34  1  0
 22 23  2  0
 22 24  1  0
 24 25  1  0
 25 26  2  0
 25 30  1  0
 26 27  1  0
 27 28  2  0
 28 29  1  0
 28 33  1  0
 29 30  2  0
 29 31  1  0
 31 32  1  0
 32 33  1  0
M  CHG  1  16   1
M  END
