
     RDKit          3D

 34 37  0  0  0  0  0  0  0  0999 V2000
    5.9100   -3.4830    2.7440 C   0  0  0  0  0  0  0  0  0  0  0  0
    5.2270   -2.4510    3.6160 C   0  0  0  0  0  0  0  0  0  0  0  0
    4.1480   -1.7320    2.8360 C   0  0  0  0  0  0  0  0  0  0  0  0
    4.8200   -1.0470    1.6400 C   0  0  0  0  0  0  0  0  0  0  0  0
    3.8480   -0.3110    0.8060 C   0  0  0  0  0  0  0  0  0  0  0  0
    3.3160    0.9020    1.1750 C   0  0  0  0  0  0  0  0  0  0  0  0
    3.7030    1.5290    2.4530 C   0  0  0  0  0  0  0  0  0  0  0  0
    2.4280    1.4930    0.3260 N   0  0  0  0  0  0  0  0  0  0  0  0
    2.0570    0.9430   -0.8430 C   0  0  0  0  0  0  0  0  0  0  0  0
    1.2060    1.3370   -1.8340 N   0  0  0  0  0  0  0  0  0  0  0  0
    1.1930    0.4110   -2.8020 C   0  0  0  0  0  0  0  0  0  0  0  0
    0.2350    0.4780   -4.3040 S   0  0  0  0  0  0  0  0  0  0  0  0
   -1.3580   -0.2970   -3.9790 C   0  0  0  0  0  0  0  0  0  0  0  0
   -2.1720    0.4730   -3.0020 C   0  0  0  0  0  0  0  0  0  0  0  0
   -2.1730    0.3210   -1.6600 N   0  0  0  0  0  0  0  0  0  0  0  0
   -3.0520    1.2140   -1.1530 C   0  0  0  0  0  0  0  0  0  0  0  0
   -3.6100    1.9360   -2.1890 C   0  0  0  0  0  0  0  0  0  0  0  0
   -4.5400    2.9060   -1.8770 C   0  0  0  0  0  0  0  0  0  0  0  0
   -5.0430    3.5570   -2.8230 O   0  0  0  0  0  0  0  0  0  0  0  0
   -4.9380    3.1940   -0.6270 N   0  0  0  0  0  0  0  0  0  0  0  0
   -4.3720    2.4700    0.3680 C   0  0  0  0  0  0  0  0  0  0  0  0
   -4.7200    2.7110    1.5580 O   0  0  0  0  0  0  0  0  0  0  0  0
   -3.4630    1.5170    0.1040 N   0  0  0  0  0  0  0  0  0  0  0  0
   -2.8750    0.7570    1.1950 C   0  0  0  0  0  0  0  0  0  0  0  0
   -3.7640   -0.4480    1.4050 C   0  0  0  0  0  0  0  0  0  0  0  0
   -3.1930   -1.2780    2.5370 C   0  0  0  0  0  0  0  0  0  0  0  0
   -3.1150   -0.5300    3.8290 C   0  0  0  0  0  0  0  0  0  0  0  0
   -3.0390    1.4450   -3.3030 N   0  0  0  0  0  0  0  0  0  0  0  0
   -3.3400    1.9210   -4.6290 C   0  0  0  0  0  0  0  0  0  0  0  0
   -4.4970    1.1230   -5.2140 C   0  0  0  0  0  0  0  0  0  0  0  0
    2.0390   -0.5480   -2.3990 N   0  0  0  0  0  0  0  0  0  0  0  0
    2.5650   -0.2370   -1.2190 N   0  0  0  0  0  0  0  0  0  0  0  0
    3.4500   -0.8580   -0.4060 C   0  0  0  0  0  0  0  0  0  0  0  0
    4.0160   -2.1550   -0.8030 C   0  0  0  0  0  0  0  0  0  0  0  0
  1  2  1  0
  2  3  1  0
  3  4  1  0
  4  5  1  0
  5  6  1  0
  5 33  2  0
  6  7  1  0
  6  8  2  0
  8  9  1  0
  9 10  2  0
  9 32  1  0
 10 11  1  0
 11 12  1  0
 11 31  2  0
 12 13  1  0
 13 14  1  0
 14 15  2  0
 14 28  1  0
 15 16  1  0
 16 17  2  0
 16 23  1  0
 17 18  1  0
 17 28  1  0
 18 19  2  0
 18 20  1  0
 20 21  1  0
 21 22  2  0
 21 23  1  0
 23 24  1  0
 24 25  1  0
 25 26  1  0
 26 27  1  0
 28 29  1  0
 29 30  1  0
 31 32  1  0
 32 33  1  0
 33 34  1  0
M  END
