
     RDKit          3D

 34 39  0  0  0  0  0  0  0  0999 V2000
   -2.5970   -3.6450    2.6380 C   0  0  0  0  0  0  0  0  0  0  0  0
   -2.5760   -2.6040    1.5630 C   0  0  0  0  0  0  0  0  0  0  0  0
   -2.9370   -2.8920    0.2660 C   0  0  0  0  0  0  0  0  0  0  0  0
   -2.9090   -1.8970   -0.7110 C   0  0  0  0  0  0  0  0  0  0  0  0
   -3.3030   -2.2140   -2.1160 C   0  0  0  0  0  0  0  0  0  0  0  0
   -2.5270   -0.6330   -0.4050 C   0  0  0  0  0  0  0  0  0  0  0  0
   -2.1520   -0.3070    0.8810 C   0  0  0  0  0  0  0  0  0  0  0  0
   -2.1880   -1.2980    1.8380 C   0  0  0  0  0  0  0  0  0  0  0  0
   -1.8290   -1.0040    3.1650 O   0  0  0  0  0  0  0  0  0  0  0  0
   -1.7260    1.0890    1.1340 C   0  0  1  0  0  0  0  0  0  0  0  0
   -0.6500    1.6470    0.3440 C   0  0  0  0  0  0  0  0  0  0  0  0
    0.5420    1.0330    0.0940 C   0  0  0  0  0  0  0  0  0  0  0  0
    1.0090   -0.2110    0.6700 C   0  0  0  0  0  0  0  0  0  0  0  0
    0.6940   -0.6730    1.7610 O   0  0  0  0  0  0  0  0  0  0  0  0
    1.9450   -1.0300   -0.0820 N   0  0  0  0  0  0  0  0  0  0  0  0
    3.3000   -0.5800    0.1890 C   0  0  1  0  0  0  0  0  0  0  0  0
    3.8960   -1.2990    1.3790 C   0  0  0  0  0  0  0  0  0  0  0  0
    4.5790   -2.5790    0.9820 C   0  0  0  0  0  0  0  0  0  0  0  0
    5.6000   -2.4060    0.0830 O   0  0  0  0  0  0  0  0  0  0  0  0
    5.5360   -1.2190   -0.6340 C   0  0  0  0  0  0  0  0  0  0  0  0
    4.1410   -0.8620   -1.0330 C   0  0  0  0  0  0  0  0  0  0  0  0
    1.5470    1.6240   -0.6780 N   0  0  0  0  0  0  0  0  0  0  0  0
    1.3340    2.8510   -1.1930 C   0  0  0  0  0  0  0  0  0  0  0  0
    1.9590    3.7820   -1.9420 N   0  0  0  0  0  0  0  0  0  0  0  0
    1.1500    4.8820   -2.1010 C   0  0  0  0  0  0  0  0  0  0  0  0
    1.3420    5.9430   -2.7110 O   0  0  0  0  0  0  0  0  0  0  0  0
   -0.0300    4.6060   -1.4110 C   0  0  0  0  0  0  0  0  0  0  0  0
   -1.3060    4.9630   -0.9740 C   0  0  0  0  0  0  0  0  0  0  0  0
   -1.7700    3.8970   -0.2310 N   0  0  0  0  0  0  0  0  0  0  0  0
   -0.8450    2.9320   -0.2040 C   0  0  0  0  0  0  0  0  0  0  0  0
    0.1650    3.3930   -0.9100 N   0  0  0  0  0  0  0  0  0  0  0  0
   -3.0550    1.8270    0.7620 C   0  0  0  0  0  0  0  0  0  0  0  0
   -3.4670    1.5930   -0.6410 C   0  0  0  0  0  0  0  0  0  0  0  0
   -2.6350    0.5310   -1.3780 C   0  0  0  0  0  0  0  0  0  0  0  0
  1  2  1  0
  2  3  2  0
  2  8  1  0
  3  4  1  0
  4  5  1  0
  4  6  2  0
  6  7  1  0
  6 34  1  0
  7  8  2  0
  7 10  1  0
  8  9  1  0
 10 11  1  6
 10 32  1  0
 11 12  2  0
 11 30  1  0
 12 13  1  0
 12 22  1  0
 13 14  2  0
 13 15  1  0
 16 15  1  6
 16 17  1  0
 16 21  1  0
 17 18  1  0
 18 19  1  0
 19 20  1  0
 20 21  1  0
 22 23  2  0
 23 24  1  0
 23 31  1  0
 24 25  1  0
 25 26  2  0
 25 27  1  0
 27 28  2  0
 27 31  1  0
 28 29  1  0
 29 30  2  0
 30 31  1  0
 32 33  1  0
 33 34  1  0
M  CHG  1  15   1
M  END
