
     RDKit          3D

 34 38  0  0  0  0  0  0  0  0999 V2000
   -0.8070    0.9550    2.3890 C   0  0  0  0  0  0  0  0  0  0  0  0
   -0.3210    0.5440    1.0440 C   0  0  2  0  0  0  0  0  0  0  0  0
   -1.3360   -0.2580    0.2550 C   0  0  0  0  0  0  0  0  0  0  0  0
   -1.0340   -1.3520   -0.2290 O   0  0  0  0  0  0  0  0  0  0  0  0
   -2.6160    0.3040    0.1070 N   0  0  0  0  0  0  0  0  0  0  0  0
   -3.6590   -0.3300   -0.6040 C   0  0  0  0  0  0  0  0  0  0  0  0
   -3.6180   -1.5240   -1.2360 C   0  0  0  0  0  0  0  0  0  0  0  0
   -4.7500   -2.0070   -1.8970 C   0  0  0  0  0  0  0  0  0  0  0  0
   -5.9210   -1.2890   -1.9220 C   0  0  0  0  0  0  0  0  0  0  0  0
   -5.9990   -0.0690   -1.2890 C   0  0  0  0  0  0  0  0  0  0  0  0
   -4.8720    0.3780   -0.6490 C   0  0  0  0  0  0  0  0  0  0  0  0
   -4.9950    1.6300   -0.0160 O   0  0  0  0  0  0  0  0  0  0  0  0
   -6.2500    2.1720    0.3670 C   0  0  0  0  0  0  0  0  0  0  0  0
   -7.3100    1.9290   -0.6850 C   0  0  0  0  0  0  0  0  0  0  0  0
   -7.1410    0.6810   -1.2870 O   0  0  0  0  0  0  0  0  0  0  0  0
    0.9880   -0.0570    1.0120 N   0  0  0  0  0  0  0  0  0  0  0  0
    2.0110    0.5500    0.3060 C   0  0  0  0  0  0  0  0  0  0  0  0
    1.6630    1.6140   -0.2720 O   0  0  0  0  0  0  0  0  0  0  0  0
    3.2640    0.0720    0.2180 C   0  0  0  0  0  0  0  0  0  0  0  0
    4.3500    0.5970   -0.5640 C   0  0  0  0  0  0  0  0  0  0  0  0
    5.3010   -0.3170   -1.1000 C   0  0  0  0  0  0  0  0  0  0  0  0
    6.3920    0.1080   -1.7950 C   0  0  0  0  0  0  0  0  0  0  0  0
    6.6330    1.4450   -2.0180 C   0  0  0  0  0  0  0  0  0  0  0  0
    7.7540    1.9230   -2.7370 N   0  0  0  0  0  0  0  0  0  0  0  0
    5.7260    2.3210   -1.5050 C   0  0  0  0  0  0  0  0  0  0  0  0
    4.6020    1.9180   -0.7890 C   0  0  0  0  0  0  0  0  0  0  0  0
    3.5700    3.1700   -0.0970 Cl  0  0  0  0  0  0  0  0  0  0  0  0
    3.5170   -1.0980    0.8790 N   0  0  0  0  0  0  0  0  0  0  0  0
    2.5560   -1.7300    1.5800 C   0  0  0  0  0  0  0  0  0  0  0  0
    2.8450   -2.9210    2.2430 C   0  0  0  0  0  0  0  0  0  0  0  0
    1.8350   -3.5360    2.9490 C   0  0  0  0  0  0  0  0  0  0  0  0
    0.5710   -3.0310    3.0260 C   0  0  0  0  0  0  0  0  0  0  0  0
    0.2900   -1.8530    2.3690 C   0  0  0  0  0  0  0  0  0  0  0  0
    1.2800   -1.1950    1.6420 C   0  0  0  0  0  0  0  0  0  0  0  0
  2  1  1  1
  2  3  1  0
  2 16  1  0
  3  4  2  0
  3  5  1  0
  5  6  1  0
  6  7  2  0
  6 11  1  0
  7  8  1  0
  8  9  2  0
  9 10  1  0
 10 11  2  0
 10 15  1  0
 11 12  1  0
 12 13  1  0
 13 14  1  0
 14 15  1  0
 16 17  1  0
 16 34  1  0
 17 18  2  0
 17 19  1  0
 19 20  1  0
 19 28  2  0
 20 21  2  0
 20 26  1  0
 21 22  1  0
 22 23  2  0
 23 24  1  0
 23 25  1  0
 25 26  2  0
 26 27  1  0
 28 29  1  0
 29 30  2  0
 29 34  1  0
 30 31  1  0
 31 32  2  0
 32 33  1  0
 33 34  2  0
M  CHG  1  28   1
M  END
