
     RDKit          3D

 11 11  0  0  0  0  0  0  0  0999 V2000
   -3.5690   -0.0180   -0.4540 O   0  0  0  0  0  0  0  0  0  0  0  0
   -2.3240    0.0210   -0.2870 C   0  0  0  0  0  0  0  0  0  0  0  0
   -1.5540   -1.0690   -0.3080 N   0  0  0  0  0  0  0  0  0  0  0  0
   -0.2040   -0.9840   -0.1230 C   0  0  0  0  0  0  0  0  0  0  0  0
    0.3970    0.2370    0.0900 C   0  0  0  0  0  0  0  0  0  0  0  0
    1.7980    0.3720    0.2870 N   0  0  0  0  0  0  0  0  0  0  0  0
    2.6620   -0.7550    0.2750 C   0  0  0  0  0  0  0  0  0  0  0  0
    4.2690   -0.5790   -0.0650 S   0  0  0  0  0  0  0  0  0  0  0  0
   -0.4220    1.3460    0.1070 C   0  0  0  0  0  0  0  0  0  0  0  0
    0.1160    2.4630    0.3010 O   0  0  0  0  0  0  0  0  0  0  0  0
   -1.7690    1.2210   -0.0820 N   0  0  0  0  0  0  0  0  0  0  0  0
  1  2  2  0
  2  3  1  0
  2 11  1  0
  3  4  1  0
  4  5  2  0
  5  6  1  0
  5  9  1  0
  6  7  1  0
  7  8  2  0
  9 10  2  0
  9 11  1  0
M  END
