
     RDKit          3D

 11 11  0  0  0  0  0  0  0  0999 V2000
   -4.0360    0.2230    0.4540 O   0  0  0  0  0  0  0  0  0  0  0  0
   -2.8100    0.1410    0.1590 C   0  0  0  0  0  0  0  0  0  0  0  0
   -2.3580   -0.7830   -0.6990 N   0  0  0  0  0  0  0  0  0  0  0  0
   -1.0580   -0.8500   -0.9950 N   0  0  0  0  0  0  0  0  0  0  0  0
   -0.1650   -0.0090   -0.4530 C   0  0  0  0  0  0  0  0  0  0  0  0
    1.3050   -0.0540   -0.7350 C   0  0  0  0  0  0  0  0  0  0  0  0
    2.0460   -0.7230    0.4030 C   0  0  0  0  0  0  0  0  0  0  0  0
    3.8030   -0.7700    0.0480 S   0  0  0  0  0  0  0  0  0  0  0  0
   -0.6640    0.9360    0.4320 C   0  0  0  0  0  0  0  0  0  0  0  0
    0.2000    1.7260    0.9350 O   0  0  0  0  0  0  0  0  0  0  0  0
   -1.9720    1.0140    0.7380 N   0  0  0  0  0  0  0  0  0  0  0  0
  1  2  2  0
  2  3  1  0
  2 11  1  0
  3  4  1  0
  4  5  2  0
  5  6  1  0
  5  9  1  0
  6  7  1  0
  7  8  1  0
  9 10  2  0
  9 11  1  0
M  END
