
     RDKit          3D

 11 11  0  0  0  0  0  0  0  0999 V2000
    3.2830   -0.8010   -0.7830 C   0  0  0  0  0  0  0  0  0  0  0  0
    2.2940    0.6560   -1.2720 S   0  0  0  0  0  0  0  0  0  0  0  0
    0.7420    0.6000   -0.3550 C   0  0  0  0  0  0  0  0  0  0  0  0
   -0.3360   -0.0320   -0.8500 N   0  0  0  0  0  0  0  0  0  0  0  0
   -1.4950   -0.1010   -0.2170 N   0  0  0  0  0  0  0  0  0  0  0  0
   -2.6470   -0.7940   -0.7800 C   0  0  0  0  0  0  0  0  0  0  0  0
   -1.6000    0.4980    0.9960 C   0  0  0  0  0  0  0  0  0  0  0  0
   -2.6760    0.4700    1.6520 O   0  0  0  0  0  0  0  0  0  0  0  0
   -0.5300    1.1640    1.5610 C   0  0  0  0  0  0  0  0  0  0  0  0
   -0.6240    1.7300    2.7040 O   0  0  0  0  0  0  0  0  0  0  0  0
    0.6140    1.1870    0.8500 N   0  0  0  0  0  0  0  0  0  0  0  0
  1  2  1  0
  2  3  1  0
  3  4  2  0
  3 11  1  0
  4  5  1  0
  5  6  1  0
  5  7  1  0
  7  8  2  0
  7  9  1  0
  9 10  2  0
  9 11  1  0
M  END
