
     RDKit          3D

 11 11  0  0  0  0  0  0  0  0999 V2000
   -3.4090    0.4060   -0.0250 N   0  0  0  0  0  0  0  0  0  0  0  0
   -2.0450    0.2470   -0.5750 C   0  0  0  0  0  0  0  0  0  0  0  0
   -1.3450   -0.8940    0.0670 C   0  0  0  0  0  0  0  0  0  0  0  0
   -0.0190   -1.0490   -0.4360 N   0  0  0  0  0  0  0  0  0  0  0  0
    1.1090   -0.1910   -0.1460 C   0  0  0  0  0  0  0  0  0  0  0  0
    2.3290   -0.6430   -0.4790 C   0  0  0  0  0  0  0  0  0  0  0  0
    3.4090    0.6380    0.0160 S   0  0  2  0  0  0  0  0  0  0  0  0
    4.1810    1.2200   -1.1330 O   0  0  0  0  0  0  0  0  0  0  0  0
    4.3340    0.1820    1.1120 O   0  0  0  0  0  0  0  0  0  0  0  0
    2.2060    1.6900    0.6320 N   0  0  0  0  0  0  0  0  0  0  0  0
    1.0790    1.0850    0.4600 C   0  0  0  0  0  0  0  0  0  0  0  0
  1  2  1  0
  2  3  1  0
  3  4  1  0
  4  5  1  0
  5  6  2  0
  5 11  1  0
  7  6  1  6
  7  8  2  0
  7  9  2  0
  7 10  1  0
 10 11  2  0
M  END
