
     RDKit          3D

 15 17  0  0  0  0  0  0  0  0999 V2000
    1.8210    0.7910   -0.9880 N   0  0  0  0  0  0  0  0  0  0  0  0
    2.1150    0.4960    0.4160 C   0  0  1  0  0  0  0  0  0  0  0  0
    1.1850   -0.6580    0.7980 C   0  0  0  0  0  0  0  0  0  0  0  0
   -0.2410   -0.2770    0.6310 C   0  0  0  0  0  0  0  0  0  0  0  0
   -1.0660   -0.9040   -0.1770 C   0  0  0  0  0  0  0  0  0  0  0  0
   -2.4900   -0.5110   -0.3330 C   0  0  0  0  0  0  0  0  0  0  0  0
   -3.4410   -0.9780   -1.0490 N   0  0  0  0  0  0  0  0  0  0  0  0
   -4.6780   -0.2740   -0.8790 C   0  0  0  0  0  0  0  0  0  0  0  0
   -4.3520    0.7920    0.1260 C   0  0  0  0  0  0  0  0  0  0  0  0
   -2.9660    0.5870    0.4270 N   0  0  0  0  0  0  0  0  0  0  0  0
   -2.0190    1.2350    1.2940 C   0  0  0  0  0  0  0  0  0  0  0  0
   -0.7600    0.8480    1.3980 C   0  0  0  0  0  0  0  0  0  0  0  0
    3.5170    0.0040    0.5760 C   0  0  1  0  0  0  0  0  0  0  0  0
    3.8570   -1.2420   -0.1680 C   0  0  0  0  0  0  0  0  0  0  0  0
    4.5410    0.1120   -0.4610 C   0  0  0  0  0  0  0  0  0  0  0  0
  2  1  1  6
  2  3  1  0
  2 13  1  0
  3  4  1  0
  4  5  2  0
  4 12  1  0
  5  6  1  0
  6  7  2  0
  6 10  1  0
  7  8  1  0
  8  9  1  0
  9 10  1  0
 10 11  1  0
 11 12  2  0
 13 14  1  6
 13 15  1  0
 14 15  1  0
M  CHG  2   1   1   7   1
M  END
