
     RDKit          3D

 15 16  0  0  0  0  0  0  0  0999 V2000
    4.1200    0.8200    0.3610 C   0  0  0  0  0  0  0  0  0  0  0  0
    2.8240    0.4240    0.3370 C   0  0  0  0  0  0  0  0  0  0  0  0
    1.9420    0.8470   -0.7060 C   0  0  0  0  0  0  0  0  0  0  0  0
    0.7150    0.5930   -0.9590 C   0  0  0  0  0  0  0  0  0  0  0  0
    0.0760    1.2700   -2.1860 C   0  0  0  0  0  0  0  0  0  0  0  0
   -1.0420    2.0110   -1.5370 N   0  0  0  0  0  0  0  0  0  0  0  0
   -1.9640    1.2470   -0.7650 C   0  0  0  0  0  0  0  0  0  0  0  0
   -3.2020    1.6090   -0.6700 N   0  0  0  0  0  0  0  0  0  0  0  0
   -1.4480    0.0570   -0.0930 C   0  0  0  0  0  0  0  0  0  0  0  0
   -0.1490   -0.2730   -0.1970 C   0  0  0  0  0  0  0  0  0  0  0  0
    0.0760   -1.5440    0.4830 C   0  0  0  0  0  0  0  0  0  0  0  0
    1.3550   -2.3240    0.4690 C   0  0  0  0  0  0  0  0  0  0  0  0
   -1.0530   -1.9480    0.9990 N   0  0  0  0  0  0  0  0  0  0  0  0
   -2.0800   -0.9950    0.7120 C   0  0  1  0  0  0  0  0  0  0  0  0
   -2.6630   -0.3620    1.9590 C   0  0  0  0  0  0  0  0  0  0  0  0
  1  2  2  0
  2  3  1  0
  3  4  2  3
  4  5  1  0
  4 10  1  0
  5  6  1  0
  6  7  1  0
  7  8  2  0
  7  9  1  0
  9 10  2  0
  9 14  1  0
 10 11  1  0
 11 12  1  0
 11 13  2  0
 13 14  1  0
 14 15  1  1
M  CHG  1  13   1
M  END
