
     RDKit          3D

 15 16  0  0  0  0  0  0  0  0999 V2000
   -1.6350    3.4340    0.5800 C   0  0  0  0  0  0  0  0  0  0  0  0
   -1.7200    1.9130    0.3740 C   0  0  0  0  0  0  0  0  0  0  0  0
   -0.3900    1.4130    0.4310 N   0  0  0  0  0  0  0  0  0  0  0  0
   -0.2350    0.0250    0.1250 C   0  0  2  0  0  0  0  0  0  0  0  0
    1.2050   -0.1480   -0.3090 C   0  0  0  0  0  0  0  0  0  0  0  0
    2.0240    0.8150   -0.4050 N   0  0  0  0  0  0  0  0  0  0  0  0
    3.3860    0.7350   -0.8040 C   0  0  0  0  0  0  0  0  0  0  0  0
    3.9210   -0.5990   -1.1460 C   0  0  0  0  0  0  0  0  0  0  0  0
    2.9440   -1.6820   -1.0220 C   0  0  0  0  0  0  0  0  0  0  0  0
    1.7060   -1.4740   -0.6400 C   0  0  0  0  0  0  0  0  0  0  0  0
   -1.0740   -0.4640   -1.0090 C   0  0  0  0  0  0  0  0  0  0  0  0
   -2.3660   -1.0870   -0.6120 C   0  0  0  0  0  0  0  0  0  0  0  0
   -2.0680   -2.1570    0.3530 N   0  0  0  0  0  0  0  0  0  0  0  0
   -1.6770   -1.4510    1.5710 C   0  0  0  0  0  0  0  0  0  0  0  0
   -0.3730   -0.7670    1.3880 C   0  0  0  0  0  0  0  0  0  0  0  0
  1  2  1  0
  2  3  1  0
  4  3  1  1
  4  5  1  0
  4 11  1  0
  4 15  1  0
  5  6  2  0
  5 10  1  0
  6  7  1  0
  7  8  1  0
  8  9  1  0
  9 10  2  0
 11 12  1  0
 12 13  1  0
 13 14  1  0
 14 15  1  0
M  CHG  2   3   1  13   1
M  END
