
     RDKit          3D

 15 15  0  0  0  0  0  0  0  0999 V2000
   -3.8870    2.5600   -0.4620 C   0  0  0  0  0  0  0  0  0  0  0  0
   -4.0280    1.1120   -0.8200 C   0  0  0  0  0  0  0  0  0  0  0  0
   -2.9990    0.3300   -0.2200 N   0  0  0  0  0  0  0  0  0  0  0  0
   -3.0170    0.2140    1.1710 C   0  0  0  0  0  0  0  0  0  0  0  0
   -1.8010    0.3980   -0.9360 C   0  0  0  0  0  0  0  0  0  0  0  0
   -0.6790   -0.3880   -0.3740 C   0  0  0  0  0  0  0  0  0  0  0  0
    0.4330    0.1990   -0.0130 C   0  0  0  0  0  0  0  0  0  0  0  0
    1.5540   -0.5640    0.5450 C   0  0  0  0  0  0  0  0  0  0  0  0
    2.7790   -0.0810    0.5260 C   0  0  0  0  0  0  0  0  0  0  0  0
    3.9710   -0.6940    1.0240 C   0  0  0  0  0  0  0  0  0  0  0  0
    5.1630   -0.1460    0.9690 C   0  0  0  0  0  0  0  0  0  0  0  0
    5.2280    1.1600    0.3570 N   0  0  0  0  0  0  0  0  0  0  0  0
    1.1700   -1.8800    1.1110 C   0  0  0  0  0  0  0  0  0  0  0  0
    0.3460   -2.5480    0.1340 N   0  0  0  0  0  0  0  0  0  0  0  0
   -0.8360   -1.8380   -0.2300 C   0  0  0  0  0  0  0  0  0  0  0  0
  1  2  1  0
  2  3  1  0
  3  4  1  0
  3  5  1  0
  5  6  1  0
  6  7  2  0
  6 15  1  0
  7  8  1  0
  8  9  2  3
  8 13  1  0
  9 10  1  0
 10 11  2  3
 11 12  1  0
 13 14  1  0
 14 15  1  0
M  CHG  2  12   1  14   1
M  END
