
     RDKit          3D

 23 25  0  0  0  0  0  0  0  0999 V2000
    6.9270    0.8800    1.3950 C   0  0  0  0  0  0  0  0  0  0  0  0
    5.5210    0.9180    0.7810 C   0  0  0  0  0  0  0  0  0  0  0  0
    4.5640    0.8540    1.7640 O   0  0  0  0  0  0  0  0  0  0  0  0
    3.2640    0.8880    1.3410 C   0  0  0  0  0  0  0  0  0  0  0  0
    2.9360   -0.2670    0.4170 C   0  0  0  0  0  0  0  0  0  0  0  0
    1.5140   -0.1520    0.0110 N   0  0  0  0  0  0  0  0  0  0  0  0
    0.9220   -1.0880   -0.8490 C   0  0  0  0  0  0  0  0  0  0  0  0
    1.7230   -2.0200   -1.2510 O   0  0  0  0  0  0  0  0  0  0  0  0
   -0.4400   -1.1330   -1.3330 C   0  0  0  0  0  0  0  0  0  0  0  0
   -0.8230   -1.7860   -2.5250 C   0  0  0  0  0  0  0  0  0  0  0  0
    0.1430   -2.4670   -3.4250 C   0  0  0  0  0  0  0  0  0  0  0  0
   -2.1300   -1.6440   -2.6170 N   0  0  0  0  0  0  0  0  0  0  0  0
   -2.6210   -0.9480   -1.5720 C   0  0  0  0  0  0  0  0  0  0  0  0
   -3.8890   -0.5530   -1.2080 C   0  0  0  0  0  0  0  0  0  0  0  0
   -4.1450    0.1560   -0.0560 C   0  0  0  0  0  0  0  0  0  0  0  0
   -5.4260    0.5430    0.2910 C   0  0  0  0  0  0  0  0  0  0  0  0
   -5.6480    1.2530    1.4530 C   0  0  0  0  0  0  0  0  0  0  0  0
   -4.6280    1.6060    2.3100 C   0  0  0  0  0  0  0  0  0  0  0  0
   -4.9470    2.5320    3.8180 S   0  0  0  0  0  0  0  0  0  0  0  0
   -3.3470    1.2180    1.9600 C   0  0  0  0  0  0  0  0  0  0  0  0
   -3.1150    0.5000    0.7860 C   0  0  0  0  0  0  0  0  0  0  0  0
   -1.8350    0.1060    0.4260 C   0  0  0  0  0  0  0  0  0  0  0  0
   -1.5600   -0.6030   -0.7240 C   0  0  0  0  0  0  0  0  0  0  0  0
  1  2  1  0
  2  3  1  0
  3  4  1  0
  4  5  1  0
  5  6  1  0
  6  7  1  0
  7  8  2  0
  7  9  1  0
  9 10  2  0
  9 23  1  0
 10 11  1  0
 10 12  1  0
 12 13  1  0
 13 14  2  0
 13 23  1  0
 14 15  1  0
 15 16  2  0
 15 21  1  0
 16 17  1  0
 17 18  2  0
 18 19  1  0
 18 20  1  0
 20 21  2  0
 21 22  1  0
 22 23  2  0
M  END
