
     RDKit          3D

 23 25  0  0  0  0  0  0  0  0999 V2000
   -3.5780   -2.2110   -0.0320 C   0  0  0  0  0  0  0  0  0  0  0  0
   -2.7740   -1.3580   -0.8760 O   0  0  0  0  0  0  0  0  0  0  0  0
   -1.5240   -0.9120   -0.4270 C   0  0  0  0  0  0  0  0  0  0  0  0
   -1.2100   -1.3090    0.6920 O   0  0  0  0  0  0  0  0  0  0  0  0
   -0.7090   -0.0490   -1.2440 C   0  0  0  0  0  0  0  0  0  0  0  0
    0.4650    0.5280   -0.9370 C   0  0  0  0  0  0  0  0  0  0  0  0
    1.2500    0.6490    0.2650 C   0  0  0  0  0  0  0  0  0  0  0  0
    1.4450    0.4940    1.4490 C   0  0  0  0  0  0  0  0  0  0  0  0
    0.8420   -0.0370    2.6230 C   0  0  0  0  0  0  0  0  0  0  0  0
    1.4900    0.0260    3.8160 C   0  0  0  0  0  0  0  0  0  0  0  0
    0.9120   -0.5140    5.0570 C   0  0  0  0  0  0  0  0  0  0  0  0
    2.1380   -1.7580    5.6460 S   0  0  0  0  0  0  0  0  0  0  0  0
    3.6410   -0.7900    6.0740 C   0  0  0  0  0  0  0  0  0  0  0  0
    0.8730    1.1660   -2.0970 N   0  0  0  0  0  0  0  0  0  0  0  0
   -0.0100    0.9910   -3.0710 C   0  0  0  0  0  0  0  0  0  0  0  0
   -0.0440    1.4240   -4.3930 C   0  0  0  0  0  0  0  0  0  0  0  0
    0.8220    2.1570   -5.1500 C   0  0  0  0  0  0  0  0  0  0  0  0
    0.3020    2.2650   -6.3850 O   0  0  0  0  0  0  0  0  0  0  0  0
   -0.8390    1.6470   -6.4600 C   0  0  0  0  0  0  0  0  0  0  0  0
   -1.0880    1.0970   -5.1980 C   0  0  0  0  0  0  0  0  0  0  0  0
   -2.1010    0.3380   -4.6930 C   0  0  0  0  0  0  0  0  0  0  0  0
   -2.0160   -0.0760   -3.3500 C   0  0  0  0  0  0  0  0  0  0  0  0
   -0.9820    0.2500   -2.5560 N   0  0  0  0  0  0  0  0  0  0  0  0
  1  2  1  0
  2  3  1  0
  3  4  2  0
  3  5  1  0
  5  6  2  0
  5 23  1  0
  6  7  1  0
  6 14  1  0
  7  8  2  3
  8  9  1  0
  9 10  2  3
 10 11  1  0
 11 12  1  0
 12 13  1  0
 14 15  2  0
 15 16  1  0
 15 23  1  0
 16 17  2  0
 16 20  1  0
 17 18  1  0
 18 19  1  0
 19 20  2  0
 20 21  1  0
 21 22  2  0
 22 23  1  0
M  END
