
     RDKit          3D

 23 25  0  0  0  0  0  0  0  0999 V2000
    3.9840    2.7190   -0.3950 C   0  0  0  0  0  0  0  0  0  0  0  0
    4.4560    1.7680    0.3440 C   0  0  0  0  0  0  0  0  0  0  0  0
    4.7240    0.3890    0.0160 C   0  0  0  0  0  0  0  0  0  0  0  0
    4.3210   -0.4250   -1.0040 C   0  0  0  0  0  0  0  0  0  0  0  0
    3.4020   -0.1370   -2.1060 C   0  0  0  0  0  0  0  0  0  0  0  0
    1.9760   -0.1600   -1.6940 C   0  0  0  0  0  0  0  0  0  0  0  0
    1.0780    0.8240   -1.3410 C   0  0  0  0  0  0  0  0  0  0  0  0
   -0.1590    0.4990   -1.0000 C   0  0  0  0  0  0  0  0  0  0  0  0
   -0.5020   -0.8560   -1.0150 C   0  0  0  0  0  0  0  0  0  0  0  0
   -1.7860   -1.4770   -0.6830 C   0  0  0  0  0  0  0  0  0  0  0  0
   -1.9540   -2.7080   -0.7380 O   0  0  0  0  0  0  0  0  0  0  0  0
   -2.9040   -0.6930   -0.2820 N   0  0  0  0  0  0  0  0  0  0  0  0
   -4.1620   -1.3100    0.0430 C   0  0  0  0  0  0  0  0  0  0  0  0
   -5.1400   -0.2200    0.4270 C   0  0  1  0  0  0  0  0  0  0  0  0
   -6.4440   -0.7910    0.9450 C   0  0  0  0  0  0  0  0  0  0  0  0
   -7.0500    0.4600    1.5950 C   0  0  0  0  0  0  0  0  0  0  0  0
   -5.8110    1.2970    1.8290 C   0  0  0  0  0  0  0  0  0  0  0  0
   -4.7150    0.5180    1.5230 O   0  0  0  0  0  0  0  0  0  0  0  0
    0.9700   -1.6530   -1.5230 S   0  0  0  0  0  0  0  0  0  0  0  0
    4.9180   -1.6750   -0.8420 C   0  0  0  0  0  0  0  0  0  0  0  0
    5.6750   -1.6340    0.2570 N   0  0  0  0  0  0  0  0  0  0  0  0
    5.5810   -0.4180    0.7910 C   0  0  0  0  0  0  0  0  0  0  0  0
    6.3080   -0.0370    2.0350 C   0  0  0  0  0  0  0  0  0  0  0  0
  1  2  2  0
  2  3  1  0
  3  4  1  0
  3 22  2  0
  4  5  1  0
  4 20  2  0
  5  6  1  0
  6  7  2  0
  6 19  1  0
  7  8  1  0
  8  9  2  0
  9 10  1  0
  9 19  1  0
 10 11  2  0
 10 12  1  0
 12 13  1  0
 14 13  1  1
 14 15  1  0
 14 18  1  0
 15 16  1  0
 16 17  1  0
 17 18  1  0
 20 21  1  0
 21 22  1  0
 22 23  1  0
M  END
