
     RDKit          3D

 43 48  0  0  0  0  0  0  0  0999 V2000
    9.8440    0.4630    2.1230 C   0  0  0  0  0  0  0  0  0  0  0  0
    8.6380    1.1590    1.6940 N   0  0  0  0  0  0  0  0  0  0  0  0
    8.0920    0.6170    0.4860 C   0  0  0  0  0  0  0  0  0  0  0  0
    6.7160    0.0330    0.6400 C   0  0  2  0  0  0  0  0  0  0  0  0
    5.7070    1.0570    1.1080 C   0  0  0  0  0  0  0  0  0  0  0  0
    6.7880   -1.1500    1.5780 C   0  0  0  0  0  0  0  0  0  0  0  0
    7.4490   -2.1860    0.7220 C   0  0  0  0  0  0  0  0  0  0  0  0
    7.1880   -1.8340   -0.7060 C   0  0  0  0  0  0  0  0  0  0  0  0
    6.2840   -0.6280   -0.6470 C   0  0  1  0  0  0  0  0  0  0  0  0
    4.9290   -1.1040   -0.4900 N   0  0  0  0  0  0  0  0  0  0  0  0
    4.2320   -1.1730   -1.7920 C   0  0  2  0  0  0  0  0  0  0  0  0
    4.1750    0.2110   -2.3120 C   0  0  0  0  0  0  0  0  0  0  0  0
    2.8820    0.6670   -2.8880 C   0  0  0  0  0  0  0  0  0  0  0  0
    1.7220    0.1740   -2.0460 C   0  0  1  0  0  0  0  0  0  0  0  0
    1.7340   -1.3290   -2.1930 C   0  0  0  0  0  0  0  0  0  0  0  0
    2.9490   -1.8690   -1.5330 C   0  0  0  0  0  0  0  0  0  0  0  0
    1.8880    0.5460   -0.6000 C   0  0  0  0  0  0  0  0  0  0  0  0
    0.8990    1.6080   -0.2160 C   0  0  0  0  0  0  0  0  0  0  0  0
   -0.4410    0.9810   -0.3490 N   0  0  0  0  0  0  0  0  0  0  0  0
   -1.2420    0.8930    0.7830 C   0  0  0  0  0  0  0  0  0  0  0  0
   -0.7220    1.3690    1.8890 O   0  0  0  0  0  0  0  0  0  0  0  0
   -2.5740    0.3580    0.9650 C   0  0  0  0  0  0  0  0  0  0  0  0
   -3.3820   -0.1470   -0.0190 C   0  0  0  0  0  0  0  0  0  0  0  0
   -4.6450   -0.6650    0.2010 C   0  0  0  0  0  0  0  0  0  0  0  0
   -5.4840   -1.2100   -0.8790 C   0  0  0  0  0  0  0  0  0  0  0  0
   -6.0530   -0.2230   -1.7390 N   0  0  1  0  0  0  0  0  0  0  0  0
   -7.1240   -0.8610   -2.5080 C   0  0  0  0  0  0  0  0  0  0  0  0
   -8.1410    0.2160   -2.7680 C   0  0  0  0  0  0  0  0  0  0  0  0
   -7.5350    1.4600   -2.2100 C   0  0  0  0  0  0  0  0  0  0  0  0
   -6.6450    0.9030   -1.0860 C   0  0  0  0  0  0  0  0  0  0  0  0
   -5.1270   -0.6750    1.4960 C   0  0  0  0  0  0  0  0  0  0  0  0
   -4.3720   -0.1850    2.5350 C   0  0  0  0  0  0  0  0  0  0  0  0
   -4.8150   -0.1710    3.8720 O   0  0  0  0  0  0  0  0  0  0  0  0
   -6.0890   -0.6670    4.1800 C   0  0  0  0  0  0  0  0  0  0  0  0
   -7.1770    0.0880    3.5180 C   0  0  0  0  0  0  0  0  0  0  0  0
   -6.9890    1.3600    3.0160 C   0  0  0  0  0  0  0  0  0  0  0  0
   -7.9790    2.0900    2.3910 C   0  0  0  0  0  0  0  0  0  0  0  0
   -9.2020    1.5310    2.2620 N   0  0  0  0  0  0  0  0  0  0  0  0
   -9.3980    0.3010    2.7430 C   0  0  0  0  0  0  0  0  0  0  0  0
   -8.4320   -0.4570    3.3730 C   0  0  0  0  0  0  0  0  0  0  0  0
   -3.1230    0.3170    2.2500 C   0  0  0  0  0  0  0  0  0  0  0  0
   -0.7410    0.5180   -1.6560 C   0  0  0  0  0  0  0  0  0  0  0  0
    0.4610    0.7880   -2.5920 C   0  0  0  0  0  0  0  0  0  0  0  0
  1  2  1  0
  2  3  1  0
  3  4  1  0
  4  5  1  1
  4  6  1  0
  4  9  1  0
  6  7  1  0
  7  8  1  0
  8  9  1  0
  9 10  1  1
 11 10  1  1
 11 12  1  0
 11 16  1  0
 12 13  1  0
 14 13  1  6
 14 15  1  0
 14 17  1  0
 14 43  1  0
 15 16  1  0
 17 18  1  0
 18 19  1  0
 19 20  1  0
 19 42  1  0
 20 21  2  0
 20 22  1  0
 22 23  2  0
 22 41  1  0
 23 24  1  0
 24 25  1  0
 24 31  2  0
 26 25  1  1
 26 27  1  0
 26 30  1  0
 27 28  1  0
 28 29  1  0
 29 30  1  0
 31 32  1  0
 32 33  1  0
 32 41  2  0
 33 34  1  0
 34 35  1  0
 35 36  2  0
 35 40  1  0
 36 37  1  0
 37 38  2  0
 38 39  1  0
 39 40  2  0
 42 43  1  0
M  CHG  2   2   1  26   1
M  END
