
     RDKit          3D

 43 48  0  0  0  0  0  0  0  0999 V2000
   -4.1160    2.7280   -2.2470 C   0  0  0  0  0  0  0  0  0  0  0  0
   -3.2680    2.6970   -1.0200 C   0  0  0  0  0  0  0  0  0  0  0  0
   -2.2520    1.8290   -0.8830 N   0  0  0  0  0  0  0  0  0  0  0  0
   -1.4670    1.7830    0.2060 C   0  0  0  0  0  0  0  0  0  0  0  0
   -0.4050    0.8470    0.3150 N   0  0  0  0  0  0  0  0  0  0  0  0
   -0.5420   -0.3180    1.1440 C   0  0  0  0  0  0  0  0  0  0  0  0
   -1.7450   -1.1320    0.8580 C   0  0  0  0  0  0  0  0  0  0  0  0
   -2.7770   -1.2520    1.8020 C   0  0  0  0  0  0  0  0  0  0  0  0
   -3.9070   -2.0030    1.5810 C   0  0  0  0  0  0  0  0  0  0  0  0
   -4.0770   -2.6780    0.4080 C   0  0  0  0  0  0  0  0  0  0  0  0
   -5.3060   -3.5030    0.1780 C   0  0  2  0  0  0  0  0  0  0  0  0
   -6.5380   -2.6530    0.3310 C   0  0  0  0  0  0  0  0  0  0  0  0
   -5.3870   -4.7050    1.0590 C   0  0  0  0  0  0  0  0  0  0  0  0
   -5.2970   -4.0060   -1.2780 C   0  0  0  0  0  0  0  0  0  0  0  0
   -6.4790   -4.8030   -1.5040 N   0  0  0  0  0  0  0  0  0  0  0  0
   -3.0950   -2.5910   -0.5490 C   0  0  0  0  0  0  0  0  0  0  0  0
   -1.9510   -1.8260   -0.3150 C   0  0  0  0  0  0  0  0  0  0  0  0
    0.8410    1.0510   -0.4360 C   0  0  1  0  0  0  0  0  0  0  0  0
    2.0270    1.0120    0.4540 C   0  0  0  0  0  0  0  0  0  0  0  0
    3.3210    0.7000   -0.2640 C   0  0  0  0  0  0  0  0  0  0  0  0
    3.1730   -0.2640   -1.2960 N   0  0  2  0  0  0  0  0  0  0  0  0
    4.4220   -0.6120   -1.9080 C   0  0  0  0  0  0  0  0  0  0  0  0
    5.3360    0.5060   -1.9990 C   0  0  0  0  0  0  0  0  0  0  0  0
    6.4980    0.6590   -1.4950 C   0  0  0  0  0  0  0  0  0  0  0  0
    7.2980   -0.2210   -0.6600 C   0  0  0  0  0  0  0  0  0  0  0  0
    7.0420   -1.3920   -0.0100 C   0  0  0  0  0  0  0  0  0  0  0  0
    8.1920   -1.8080    0.6420 C   0  0  0  0  0  0  0  0  0  0  0  0
    9.1280   -0.8420    0.3530 C   0  0  0  0  0  0  0  0  0  0  0  0
    8.5860    0.0600   -0.3970 O   0  0  0  0  0  0  0  0  0  0  0  0
   10.4840   -1.0670    0.9490 C   0  0  0  0  0  0  0  0  0  0  0  0
   10.8810   -2.5260    0.8290 C   0  0  0  0  0  0  0  0  0  0  0  0
    9.8510   -3.4380    1.4540 C   0  0  0  0  0  0  0  0  0  0  0  0
    8.5560   -2.8660    1.4320 O   0  0  0  0  0  0  0  0  0  0  0  0
    2.2530    0.3380   -2.2820 C   0  0  0  0  0  0  0  0  0  0  0  0
    0.8840    0.1200   -1.6050 C   0  0  0  0  0  0  0  0  0  0  0  0
   -1.7060    2.6410    1.1990 N   0  0  0  0  0  0  0  0  0  0  0  0
   -2.7160    3.5460    1.1290 C   0  0  0  0  0  0  0  0  0  0  0  0
   -3.5130    3.5730   -0.0060 C   0  0  0  0  0  0  0  0  0  0  0  0
   -4.6610    4.4950   -0.2650 C   0  0  0  0  0  0  0  0  0  0  0  0
   -4.2660    5.8850    0.1930 C   0  0  0  0  0  0  0  0  0  0  0  0
   -4.6060    6.0880    1.6440 C   0  0  0  0  0  0  0  0  0  0  0  0
   -4.2690    4.8900    2.5020 C   0  0  0  0  0  0  0  0  0  0  0  0
   -2.8450    4.4190    2.3260 C   0  0  0  0  0  0  0  0  0  0  0  0
  1  2  1  0
  2  3  2  0
  2 38  1  0
  3  4  1  0
  4  5  1  0
  4 36  2  0
  5  6  1  0
 18  5  1  1
  6  7  1  0
  7  8  2  0
  7 17  1  0
  8  9  1  0
  9 10  2  0
 10 11  1  0
 10 16  1  0
 11 12  1  6
 11 13  1  0
 11 14  1  0
 14 15  1  0
 16 17  2  0
 18 19  1  0
 18 35  1  0
 19 20  1  0
 20 21  1  0
 21 22  1  6
 21 34  1  0
 22 23  1  0
 23 24  2  3
 24 25  1  0
 25 26  2  0
 25 29  1  0
 26 27  1  0
 27 28  2  0
 27 33  1  0
 28 29  1  0
 28 30  1  0
 30 31  1  0
 31 32  1  0
 32 33  1  0
 34 35  1  0
 36 37  1  0
 37 38  2  0
 37 43  1  0
 38 39  1  0
 39 40  1  0
 40 41  1  0
 41 42  1  0
 42 43  1  0
M  CHG  2  15   1  21   1
M  END
