
     RDKit          3D

 43 48  0  0  0  0  0  0  0  0999 V2000
   -5.7860    2.8440   -1.2510 C   0  0  0  0  0  0  0  0  0  0  0  0
   -5.2880    1.7390   -0.3140 C   0  0  1  0  0  0  0  0  0  0  0  0
   -6.2250    1.4040    0.7500 C   0  0  0  0  0  0  0  0  0  0  0  0
   -7.5190    0.9290    0.5140 N   0  0  1  0  0  0  0  0  0  0  0  0
   -8.4380    1.7670   -0.1890 C   0  0  0  0  0  0  0  0  0  0  0  0
   -9.8460    1.2460    0.1640 C   0  0  0  0  0  0  0  0  0  0  0  0
  -10.0300   -0.1820   -0.2790 C   0  0  0  0  0  0  0  0  0  0  0  0
   -8.9530   -1.0140    0.4140 C   0  0  0  0  0  0  0  0  0  0  0  0
   -7.6240   -0.4010   -0.0620 C   0  0  0  0  0  0  0  0  0  0  0  0
   -4.7810    0.6460   -1.1830 C   0  0  0  0  0  0  0  0  0  0  0  0
   -3.8530   -0.3150   -0.4230 C   0  0  0  0  0  0  0  0  0  0  0  0
   -2.6810    0.4980   -0.0880 N   0  0  2  0  0  0  0  0  0  0  0  0
   -1.5340   -0.3080    0.1990 C   0  0  0  0  0  0  0  0  0  0  0  0
   -0.2450    0.3600    0.1080 C   0  0  0  0  0  0  0  0  0  0  0  0
   -0.1340    1.7070   -0.2370 C   0  0  0  0  0  0  0  0  0  0  0  0
    1.0860    2.3310   -0.3280 C   0  0  0  0  0  0  0  0  0  0  0  0
    2.2260    1.6230   -0.0780 C   0  0  0  0  0  0  0  0  0  0  0  0
    2.1210    0.2690    0.2680 C   0  0  0  0  0  0  0  0  0  0  0  0
    0.8970   -0.3580    0.3620 C   0  0  0  0  0  0  0  0  0  0  0  0
    0.6160   -1.7230    0.7170 C   0  0  0  0  0  0  0  0  0  0  0  0
    1.7050   -2.6230    0.3670 N   0  0  0  0  0  0  0  0  0  0  0  0
    1.2320   -3.9680    0.6340 C   0  0  0  0  0  0  0  0  0  0  0  0
    2.1600   -4.5750    1.6550 C   0  0  0  0  0  0  0  0  0  0  0  0
    3.4600   -3.8240    1.3410 C   0  0  0  0  0  0  0  0  0  0  0  0
    2.9010   -2.4200    1.1290 C   0  0  1  0  0  0  0  0  0  0  0  0
    3.8410   -1.6250    0.2030 C   0  0  0  0  0  0  0  0  0  0  0  0
    3.4640   -0.2250    0.4590 N   0  0  0  0  0  0  0  0  0  0  0  0
    4.4600    0.6880    0.8990 C   0  0  0  0  0  0  0  0  0  0  0  0
    5.4620    1.0990   -0.1310 C   0  0  0  0  0  0  0  0  0  0  0  0
    6.3490    1.8680    0.2540 O   0  0  0  0  0  0  0  0  0  0  0  0
    5.4290    0.6680   -1.4560 N   0  0  0  0  0  0  0  0  0  0  0  0
    6.3300    1.0020   -2.5000 C   0  0  0  0  0  0  0  0  0  0  0  0
    7.7500    0.6060   -2.4040 C   0  0  0  0  0  0  0  0  0  0  0  0
    8.5590    1.1470   -1.3140 C   0  0  0  0  0  0  0  0  0  0  0  0
    8.8490    2.4010   -1.2800 O   0  0  0  0  0  0  0  0  0  0  0  0
    9.0730    0.3100   -0.2360 C   0  0  0  0  0  0  0  0  0  0  0  0
    9.8510    0.8660    0.7850 C   0  0  0  0  0  0  0  0  0  0  0  0
   10.3560    0.1040    1.8120 C   0  0  0  0  0  0  0  0  0  0  0  0
   10.0950   -1.2680    1.8560 C   0  0  0  0  0  0  0  0  0  0  0  0
    9.3410   -1.8140    0.8700 C   0  0  0  0  0  0  0  0  0  0  0  0
    8.8430   -1.0370   -0.1520 C   0  0  0  0  0  0  0  0  0  0  0  0
   -3.1320    1.3610    0.9660 C   0  0  0  0  0  0  0  0  0  0  0  0
   -4.0620    2.3820    0.3570 C   0  0  0  0  0  0  0  0  0  0  0  0
  2  1  1  6
  2  3  1  0
  2 10  1  0
  2 43  1  0
  4  3  1  6
  4  5  1  0
  4  9  1  0
  5  6  1  0
  6  7  1  0
  7  8  1  0
  8  9  1  0
 10 11  1  0
 11 12  1  0
 12 13  1  1
 12 42  1  0
 13 14  1  0
 14 15  2  0
 14 19  1  0
 15 16  1  0
 16 17  2  0
 17 18  1  0
 18 19  2  0
 18 27  1  0
 19 20  1  0
 20 21  1  0
 21 22  1  0
 21 25  1  0
 22 23  1  0
 23 24  1  0
 25 24  1  6
 25 26  1  0
 26 27  1  0
 27 28  1  0
 28 29  1  0
 29 30  2  0
 29 31  1  0
 31 32  1  0
 32 33  1  0
 33 34  1  0
 34 35  2  0
 34 36  1  0
 36 37  2  0
 36 41  1  0
 37 38  1  0
 38 39  2  0
 39 40  1  0
 40 41  2  0
 42 43  1  0
M  CHG  2   4   1  12   1
M  END
