
     RDKit          3D

 43 48  0  0  0  0  0  0  0  0999 V2000
   -7.8150    1.8320   -0.2350 C   0  0  0  0  0  0  0  0  0  0  0  0
   -6.9220    3.0460   -0.2470 C   0  0  0  0  0  0  0  0  0  0  0  0
   -7.1730    4.2170    0.3700 N   0  0  0  0  0  0  0  0  0  0  0  0
   -6.1950    5.0330    0.1420 O   0  0  0  0  0  0  0  0  0  0  0  0
   -5.2670    4.4690   -0.6150 C   0  0  0  0  0  0  0  0  0  0  0  0
   -4.0040    5.1540   -1.0580 C   0  0  0  0  0  0  0  0  0  0  0  0
   -5.7080    3.1930   -0.8790 C   0  0  0  0  0  0  0  0  0  0  0  0
   -5.0040    2.1920   -1.6810 C   0  0  0  0  0  0  0  0  0  0  0  0
   -4.3340    1.1950   -0.7010 C   0  0  0  0  0  0  0  0  0  0  0  0
   -3.6080    0.1550   -1.4850 C   0  0  0  0  0  0  0  0  0  0  0  0
   -2.8660   -0.8480   -0.7820 N   0  0  0  0  0  0  0  0  0  0  0  0
   -1.5440   -0.4150   -0.4830 C   0  0  0  0  0  0  0  0  0  0  0  0
   -1.2040    0.7640   -0.9040 O   0  0  0  0  0  0  0  0  0  0  0  0
   -0.5060   -1.1120    0.2270 C   0  0  0  0  0  0  0  0  0  0  0  0
   -0.6190   -2.2130    1.0300 C   0  0  0  0  0  0  0  0  0  0  0  0
    0.4660   -2.8850    1.6110 C   0  0  0  0  0  0  0  0  0  0  0  0
    1.7380   -2.4560    1.3960 C   0  0  0  0  0  0  0  0  0  0  0  0
    1.8950   -1.3500    0.5950 C   0  0  0  0  0  0  0  0  0  0  0  0
    0.8390   -0.6930    0.0280 C   0  0  0  0  0  0  0  0  0  0  0  0
    3.2760   -1.1260    0.5270 C   0  0  0  0  0  0  0  0  0  0  0  0
    3.9860   -0.1440   -0.1560 C   0  0  0  0  0  0  0  0  0  0  0  0
    5.3560   -0.1490   -0.0690 C   0  0  0  0  0  0  0  0  0  0  0  0
    6.1580    0.8600   -0.7790 C   0  0  0  0  0  0  0  0  0  0  0  0
    6.3550    2.0940   -0.0880 N   0  0  2  0  0  0  0  0  0  0  0  0
    6.4340    3.2260   -0.9940 C   0  0  0  0  0  0  0  0  0  0  0  0
    7.7600    3.4110   -1.6440 C   0  0  0  0  0  0  0  0  0  0  0  0
    8.8140    2.5660   -1.1850 N   0  0  0  0  0  0  0  0  0  0  0  0
    8.8040    2.2530    0.2090 C   0  0  0  0  0  0  0  0  0  0  0  0
    7.4600    2.0570    0.8230 C   0  0  0  0  0  0  0  0  0  0  0  0
    5.9680   -1.1240    0.6890 C   0  0  0  0  0  0  0  0  0  0  0  0
    5.2620   -2.0900    1.3610 C   0  0  0  0  0  0  0  0  0  0  0  0
    3.8880   -2.0990    1.2840 C   0  0  0  0  0  0  0  0  0  0  0  0
    2.9570   -2.9060    1.8120 N   0  0  0  0  0  0  0  0  0  0  0  0
    3.1780   -4.0530    2.6700 C   0  0  0  0  0  0  0  0  0  0  0  0
   -3.2040   -2.1560   -0.4980 C   0  0  0  0  0  0  0  0  0  0  0  0
   -2.5030   -3.1440   -1.2710 C   0  0  0  0  0  0  0  0  0  0  0  0
   -2.6970   -4.4850   -1.1260 C   0  0  0  0  0  0  0  0  0  0  0  0
   -3.5970   -4.9480   -0.2080 C   0  0  0  0  0  0  0  0  0  0  0  0
   -4.2750   -4.0220    0.5360 C   0  0  0  0  0  0  0  0  0  0  0  0
   -4.0740   -2.6250    0.3870 C   0  0  0  0  0  0  0  0  0  0  0  0
   -4.8890   -1.7650    1.2270 C   0  0  2  0  0  0  0  0  0  0  0  0
   -5.4460   -2.5390    2.4490 C   0  0  0  0  0  0  0  0  0  0  0  0
   -6.2060   -1.5890    0.4120 C   0  0  0  0  0  0  0  0  0  0  0  0
  1  2  1  0
  2  3  2  0
  2  7  1  0
  3  4  1  0
  4  5  1  0
  5  6  1  0
  5  7  2  0
  7  8  1  0
  8  9  1  0
  9 10  1  0
 10 11  1  0
 11 12  1  0
 11 35  1  0
 12 13  2  0
 12 14  1  0
 14 15  2  0
 14 19  1  0
 15 16  1  0
 16 17  2  0
 17 18  1  0
 17 33  1  0
 18 19  2  0
 18 20  1  0
 20 21  2  0
 20 32  1  0
 21 22  1  0
 22 23  1  0
 22 30  2  0
 24 23  1  6
 24 25  1  0
 24 29  1  0
 25 26  1  0
 26 27  1  0
 27 28  1  0
 28 29  1  0
 30 31  1  0
 31 32  2  0
 32 33  1  0
 33 34  1  0
 35 36  2  0
 35 40  1  0
 36 37  1  0
 37 38  2  0
 38 39  1  0
 39 40  2  0
 40 41  1  0
 41 42  1  1
 41 43  1  0
M  CHG  2  24   1  27   1
M  END
