
     RDKit          3D

 19 20  0  0  0  0  0  0  0  0999 V2000
   -4.7190   -0.3310   -0.2300 N   0  0  0  0  0  0  0  0  0  0  0  0
   -3.5270   -0.6500   -0.8430 C   0  0  0  0  0  0  0  0  0  0  0  0
   -2.2790   -0.4350   -0.5510 C   0  0  0  0  0  0  0  0  0  0  0  0
   -1.2540   -0.9340   -1.4610 N   0  0  0  0  0  0  0  0  0  0  0  0
    0.1350   -0.8070   -1.3330 C   0  0  0  0  0  0  0  0  0  0  0  0
    0.6080   -0.0780   -0.1170 C   0  0  0  0  0  0  0  0  0  0  0  0
    2.0320    0.0830    0.0530 N   0  0  0  0  0  0  0  0  0  0  0  0
    2.8330   -0.4740   -0.8620 N   0  0  0  0  0  0  0  0  0  0  0  0
    4.1770   -0.3730   -0.7980 C   0  0  0  0  0  0  0  0  0  0  0  0
    4.9170   -0.9030   -1.6650 O   0  0  0  0  0  0  0  0  0  0  0  0
    4.7820    0.3130    0.2210 C   0  0  0  0  0  0  0  0  0  0  0  0
    6.0300    0.4380    0.3290 O   0  0  0  0  0  0  0  0  0  0  0  0
    3.9800    0.8710    1.1370 N   0  0  0  0  0  0  0  0  0  0  0  0
    2.6240    0.7440    1.0330 C   0  0  0  0  0  0  0  0  0  0  0  0
    1.9910    1.3080    1.9450 O   0  0  0  0  0  0  0  0  0  0  0  0
   -0.2780    0.3800    0.7170 C   0  0  0  0  0  0  0  0  0  0  0  0
   -1.7520    0.2590    0.5990 C   0  0  0  0  0  0  0  0  0  0  0  0
   -2.4960    0.7890    1.5460 C   0  0  0  0  0  0  0  0  0  0  0  0
   -3.8250    0.8490    1.7290 O   0  0  0  0  0  0  0  0  0  0  0  0
  1  2  1  0
  2  3  2  3
  3  4  1  0
  3 17  1  0
  4  5  1  0
  5  6  1  0
  6  7  1  0
  6 16  2  0
  7  8  1  0
  7 14  1  0
  8  9  1  0
  9 10  2  0
  9 11  1  0
 11 12  2  0
 11 13  1  0
 13 14  1  0
 14 15  2  0
 16 17  1  0
 17 18  2  3
 18 19  1  0
M  END
