
     RDKit          3D

 18 20  0  0  0  0  0  0  0  0999 V2000
    5.6910   -0.5490    0.1670 C   0  0  0  0  0  0  0  0  0  0  0  0
    4.2150   -0.3510    0.1280 C   0  0  0  0  0  0  0  0  0  0  0  0
    3.6700    0.2450   -0.9470 N   0  0  0  0  0  0  0  0  0  0  0  0
    2.3240    0.4340   -1.0000 C   0  0  0  0  0  0  0  0  0  0  0  0
    1.5400    0.0120    0.0460 C   0  0  0  0  0  0  0  0  0  0  0  0
    2.0750   -0.5920    1.1380 N   0  0  0  0  0  0  0  0  0  0  0  0
    3.4130   -0.7690    1.1700 C   0  0  0  0  0  0  0  0  0  0  0  0
    3.8950   -1.3300    2.1880 O   0  0  0  0  0  0  0  0  0  0  0  0
    0.1330    0.3320   -0.2430 C   0  0  0  0  0  0  0  0  0  0  0  0
   -0.8570    0.5130    0.5950 C   0  0  0  0  0  0  0  0  0  0  0  0
   -0.6700    0.3950    2.4810 Br  0  0  0  0  0  0  0  0  0  0  0  0
   -2.2040    0.8270    0.0600 C   0  0  2  0  0  0  0  0  0  0  0  0
   -3.2660    1.2180    1.0830 C   0  0  0  0  0  0  0  0  0  0  0  0
   -3.3540   -0.0640    0.3310 C   0  0  1  0  0  0  0  0  0  0  0  0
   -4.4810   -0.1130   -0.6900 C   0  0  0  0  0  0  0  0  0  0  0  0
   -3.1410   -1.3850    1.0420 C   0  0  0  0  0  0  0  0  0  0  0  0
    0.0750    0.4240   -1.7340 C   0  0  0  0  0  0  0  0  0  0  0  0
    1.4360    1.0370   -2.0380 C   0  0  0  0  0  0  0  0  0  0  0  0
  1  2  1  0
  2  3  2  0
  2  7  1  0
  3  4  1  0
  4  5  2  0
  4 18  1  0
  5  6  1  0
  5  9  1  0
  6  7  1  0
  7  8  2  0
  9 10  2  3
  9 17  1  0
 10 11  1  0
 12 10  1  1
 12 13  1  0
 12 14  1  0
 13 14  1  0
 14 15  1  6
 14 16  1  0
 17 18  1  0
M  END
