
     RDKit          3D

 18 19  0  0  0  0  0  0  0  0999 V2000
   -4.5200   -0.0650   -0.7120 C   0  0  0  0  0  0  0  0  0  0  0  0
   -3.0330   -0.0970   -0.5350 C   0  0  0  0  0  0  0  0  0  0  0  0
   -2.2180    0.4330   -1.4910 C   0  0  0  0  0  0  0  0  0  0  0  0
   -0.7960    0.4130   -1.3150 C   0  0  0  0  0  0  0  0  0  0  0  0
   -0.0990    1.0670   -2.4230 C   0  0  0  0  0  0  0  0  0  0  0  0
   -0.0520    2.9780   -2.1080 Br  0  0  0  0  0  0  0  0  0  0  0  0
   -0.2460   -0.1180   -0.2250 C   0  0  0  0  0  0  0  0  0  0  0  0
    1.1860   -0.1550    0.1050 C   0  0  0  0  0  0  0  0  0  0  0  0
    2.1330    0.6340   -0.2710 C   0  0  0  0  0  0  0  0  0  0  0  0
    3.5410    0.5430    0.0970 C   0  0  1  0  0  0  0  0  0  0  0  0
    3.9760    1.7530    0.9270 C   0  0  0  0  0  0  0  0  0  0  0  0
    3.9090   -0.6770    0.6990 N   0  0  0  0  0  0  0  0  0  0  0  0
    2.9180   -1.5710    1.1430 C   0  0  0  0  0  0  0  0  0  0  0  0
    3.2770   -2.6010    1.8090 O   0  0  0  0  0  0  0  0  0  0  0  0
    1.5600   -1.3530    0.8710 N   0  0  0  0  0  0  0  0  0  0  0  0
   -1.1390   -0.6550    0.7360 C   0  0  0  0  0  0  0  0  0  0  0  0
   -2.5040   -0.6490    0.5940 C   0  0  0  0  0  0  0  0  0  0  0  0
   -3.3590   -1.2390    1.6820 C   0  0  0  0  0  0  0  0  0  0  0  0
  1  2  1  0
  2  3  2  0
  2 17  1  0
  3  4  1  0
  4  5  1  0
  4  7  2  0
  5  6  1  0
  7  8  1  0
  7 16  1  0
  8  9  2  0
  8 15  1  0
  9 10  1  0
 10 11  1  1
 10 12  1  0
 12 13  1  0
 13 14  2  0
 13 15  1  0
 16 17  2  0
 17 18  1  0
M  END
