
     RDKit          3D

 19 21  0  0  0  0  0  0  0  0999 V2000
    4.4960    0.7750    0.6830 C   0  0  0  0  0  0  0  0  0  0  0  0
    4.4090   -0.1350   -0.5230 C   0  0  0  0  0  0  0  0  0  0  0  0
    3.3250    0.2690   -1.3380 O   0  0  0  0  0  0  0  0  0  0  0  0
    2.0070    0.2800   -0.8340 C   0  0  0  0  0  0  0  0  0  0  0  0
    1.2530   -0.7580   -0.5540 C   0  0  0  0  0  0  0  0  0  0  0  0
    1.6370   -2.0670   -0.7100 O   0  0  0  0  0  0  0  0  0  0  0  0
   -0.0680   -0.2970   -0.0460 C   0  0  0  0  0  0  0  0  0  0  0  0
   -0.9890   -1.0350    0.3010 N   0  0  0  0  0  0  0  0  0  0  0  0
   -2.2630   -1.1010    0.7870 C   0  0  2  0  0  0  0  0  0  0  0  0
   -3.2900   -0.7600   -0.1900 O   0  0  0  0  0  0  0  0  0  0  0  0
   -3.3290    0.6550   -0.0710 C   0  0  0  0  0  0  0  0  0  0  0  0
   -3.6060    1.6670   -1.1140 C   0  0  0  0  0  0  0  0  0  0  0  0
   -3.0640    0.9400    1.1890 N   0  0  0  0  0  0  0  0  0  0  0  0
   -2.8620   -0.2970    1.8570 N   0  0  0  0  0  0  0  0  0  0  0  0
   -2.5180   -1.6120    2.0500 N   0  0  0  0  0  0  0  0  0  0  0  0
   -3.4800   -2.5790    2.3160 N   0  0  0  0  0  0  0  0  0  0  0  0
    0.0140    1.1110   -0.0670 N   0  0  0  0  0  0  0  0  0  0  0  0
    1.3120    1.5160   -0.5600 C   0  0  0  0  0  0  0  0  0  0  0  0
    1.6910    2.7060   -0.6960 O   0  0  0  0  0  0  0  0  0  0  0  0
  1  2  1  0
  2  3  1  0
  3  4  1  0
  4  5  2  0
  4 18  1  0
  5  6  1  0
  5  7  1  0
  7  8  2  3
  7 17  1  0
  9  8  1  6
  9 10  1  0
  9 14  1  0
  9 15  1  0
 10 11  1  0
 11 12  1  0
 11 13  2  0
 13 14  1  0
 14 15  1  0
 15 16  1  0
 17 18  1  0
 18 19  2  0
M  END
