
     RDKit          3D

 18 20  0  0  0  0  0  0  0  0999 V2000
    2.9950    1.1260   -2.1100 N   0  0  0  0  0  0  0  0  0  0  0  0
    1.9640    0.2290   -2.4540 C   0  0  0  0  0  0  0  0  0  0  0  0
    2.1140   -0.3530   -3.7400 O   0  0  0  0  0  0  0  0  0  0  0  0
    0.9530   -0.0650   -1.6940 C   0  0  0  0  0  0  0  0  0  0  0  0
   -0.0090   -1.0410   -2.2860 C   0  0  0  0  0  0  0  0  0  0  0  0
    0.2500   -1.5510   -3.4410 N   0  0  0  0  0  0  0  0  0  0  0  0
   -0.9670   -2.7790   -4.1850 Br  0  0  0  0  0  0  0  0  0  0  0  0
   -1.1960   -1.4280   -1.5630 C   0  0  0  0  0  0  0  0  0  0  0  0
   -1.3990   -0.8880   -0.3620 C   0  0  0  0  0  0  0  0  0  0  0  0
   -2.6200   -1.3010    0.3510 C   0  0  0  0  0  0  0  0  0  0  0  0
   -2.3930   -1.3840    1.8210 C   0  0  0  0  0  0  0  0  0  0  0  0
   -1.7340   -0.1990    2.4110 C   0  0  0  0  0  0  0  0  0  0  0  0
   -0.8200    0.5920    1.5620 C   0  0  1  0  0  0  0  0  0  0  0  0
    0.4270    0.9580    2.3540 C   0  0  0  0  0  0  0  0  0  0  0  0
    1.2710    1.9080    1.5900 C   0  0  0  0  0  0  0  0  0  0  0  0
    1.5930    1.4400    0.1970 C   0  0  0  0  0  0  0  0  0  0  0  0
    0.6470    0.4700   -0.3750 C   0  0  0  0  0  0  0  0  0  0  0  0
   -0.4780    0.0610    0.2320 C   0  0  0  0  0  0  0  0  0  0  0  0
  1  2  1  0
  2  3  1  0
  2  4  2  3
  4  5  1  0
  4 17  1  0
  5  6  2  3
  5  8  1  0
  6  7  1  0
  8  9  2  0
  9 10  1  0
  9 18  1  0
 10 11  1  0
 11 12  1  0
 13 12  1  1
 13 14  1  0
 13 18  1  0
 14 15  1  0
 15 16  1  0
 16 17  1  0
 17 18  2  0
M  END
