
     RDKit          3D

 23 24  0  0  0  0  0  0  0  0999 V2000
   -3.4300    2.5440    1.8660 C   0  0  0  0  0  0  0  0  0  0  0  0
   -3.9460    1.1710    1.4300 C   0  0  0  0  0  0  0  0  0  0  0  0
   -2.9830    0.5300    0.5250 C   0  0  0  0  0  0  0  0  0  0  0  0
   -1.9140    1.1620    0.2460 O   0  0  0  0  0  0  0  0  0  0  0  0
   -3.2180   -0.7940   -0.0540 C   0  0  0  0  0  0  0  0  0  0  0  0
   -4.3850   -1.4440    0.2720 C   0  0  0  0  0  0  0  0  0  0  0  0
   -5.3360   -0.8980    1.1180 O   0  0  0  0  0  0  0  0  0  0  0  0
   -4.6410   -2.7100   -0.2620 C   0  0  0  0  0  0  0  0  0  0  0  0
   -3.7460   -3.2970   -1.0980 C   0  0  0  0  0  0  0  0  0  0  0  0
   -2.5830   -2.6230   -1.4080 C   0  0  0  0  0  0  0  0  0  0  0  0
   -2.2880   -1.3760   -0.9070 C   0  0  0  0  0  0  0  0  0  0  0  0
   -1.1320   -0.6730   -1.1970 O   0  0  0  0  0  0  0  0  0  0  0  0
    0.0100   -0.8070   -0.4200 C   0  0  0  0  0  0  0  0  0  0  0  0
   -0.0230   -1.5750    0.5490 O   0  0  0  0  0  0  0  0  0  0  0  0
    1.1940   -0.0010   -0.8290 C   0  0  0  0  0  0  0  0  0  0  0  0
    2.3680   -0.2340    0.0950 C   0  0  0  0  0  0  0  0  0  0  0  0
    3.5350    0.5650   -0.3170 C   0  0  0  0  0  0  0  0  0  0  0  0
    3.4620    1.3480   -1.3640 C   0  0  0  0  0  0  0  0  0  0  0  0
    4.6010    2.1630   -1.8110 C   0  0  0  0  0  0  0  0  0  0  0  0
    5.7210    1.9960   -1.0010 O   0  0  0  0  0  0  0  0  0  0  0  0
    5.8250    1.1800    0.1060 C   0  0  0  0  0  0  0  0  0  0  0  0
    4.7710    0.4680    0.4640 C   0  0  0  0  0  0  0  0  0  0  0  0
    4.8000   -0.4440    1.6550 C   0  0  0  0  0  0  0  0  0  0  0  0
  1  2  1  0
  2  3  1  0
  3  4  2  0
  3  5  1  0
  5  6  2  0
  5 11  1  0
  6  7  1  0
  6  8  1  0
  8  9  2  0
  9 10  1  0
 10 11  2  0
 11 12  1  0
 12 13  1  0
 13 14  2  0
 13 15  1  0
 15 16  1  0
 16 17  1  0
 17 18  2  0
 17 22  1  0
 18 19  1  0
 19 20  1  0
 20 21  1  0
 21 22  2  0
 22 23  1  0
M  END
