
     RDKit          3D

 23 24  0  0  0  0  0  0  0  0999 V2000
   -5.1860    3.1080    0.0180 C   0  0  0  0  0  0  0  0  0  0  0  0
   -4.7420    1.6830    0.0260 C   0  0  0  0  0  0  0  0  0  0  0  0
   -3.3450    1.5430   -0.1290 O   0  0  0  0  0  0  0  0  0  0  0  0
   -2.8430    0.2230   -0.1330 C   0  0  0  0  0  0  0  0  0  0  0  0
   -3.6900   -0.8530    0.0080 C   0  0  0  0  0  0  0  0  0  0  0  0
   -3.2570   -2.1610    0.0120 C   0  0  0  0  0  0  0  0  0  0  0  0
   -4.1660   -3.3210    0.1640 C   0  0  0  0  0  0  0  0  0  0  0  0
   -4.6140   -3.7540   -1.0830 O   0  0  0  0  0  0  0  0  0  0  0  0
   -1.8900   -2.3270   -0.1390 C   0  0  0  0  0  0  0  0  0  0  0  0
   -1.0220   -1.2800   -0.2820 C   0  0  0  0  0  0  0  0  0  0  0  0
   -1.4760    0.0140   -0.2820 C   0  0  0  0  0  0  0  0  0  0  0  0
   -0.6460    1.0930   -0.4200 O   0  0  0  0  0  0  0  0  0  0  0  0
    0.7530    1.0820   -0.5600 C   0  0  0  0  0  0  0  0  0  0  0  0
    1.4630    0.5120    0.5770 C   0  0  0  0  0  0  0  0  0  0  0  0
    0.8610    0.0690    1.6190 O   0  0  0  0  0  0  0  0  0  0  0  0
    2.9020    0.4180    0.5870 C   0  0  0  0  0  0  0  0  0  0  0  0
    3.5970   -0.1350    1.6610 C   0  0  0  0  0  0  0  0  0  0  0  0
    4.9670   -0.2390    1.6860 C   0  0  0  0  0  0  0  0  0  0  0  0
    5.7240    0.2080    0.6290 C   0  0  0  0  0  0  0  0  0  0  0  0
    7.2110    0.1140    0.6170 C   0  0  0  0  0  0  0  0  0  0  0  0
    5.0660    0.7580   -0.4420 C   0  0  0  0  0  0  0  0  0  0  0  0
    3.6670    0.8590   -0.4570 C   0  0  0  0  0  0  0  0  0  0  0  0
    3.1060    1.4360   -1.5980 O   0  0  0  0  0  0  0  0  0  0  0  0
  1  2  1  0
  2  3  1  0
  3  4  1  0
  4  5  2  0
  4 11  1  0
  5  6  1  0
  6  7  1  0
  6  9  2  0
  7  8  1  0
  9 10  1  0
 10 11  2  0
 11 12  1  0
 12 13  1  0
 13 14  1  0
 14 15  2  0
 14 16  1  0
 16 17  2  0
 16 22  1  0
 17 18  1  0
 18 19  2  0
 19 20  1  0
 19 21  1  0
 21 22  2  0
 22 23  1  0
M  END
