
     RDKit          3D

  9  9  0  0  0  0  0  0  0  0999 V2000
    2.6870    0.5190   -0.1720 C   0  0  0  0  0  0  0  0  0  0  0  0
    1.7070   -0.2900    0.1190 C   0  0  0  0  0  0  0  0  0  0  0  0
    1.9900   -1.4210    0.8660 O   0  0  0  0  0  0  0  0  0  0  0  0
    0.3580   -0.0770   -0.2880 N   0  0  0  0  0  0  0  0  0  0  0  0
   -0.4930   -1.2290   -0.5040 C   0  0  0  0  0  0  0  0  0  0  0  0
   -1.7920   -1.0480    0.2580 C   0  0  0  0  0  0  0  0  0  0  0  0
   -2.3660    0.1290   -0.1610 O   0  0  0  0  0  0  0  0  0  0  0  0
   -1.6110    1.2510    0.1310 C   0  0  0  0  0  0  0  0  0  0  0  0
   -0.2360    1.2110   -0.5050 C   0  0  0  0  0  0  0  0  0  0  0  0
  1  2  2  0
  2  3  1  0
  2  4  1  0
  4  5  1  0
  4  9  1  0
  5  6  1  0
  6  7  1  0
  7  8  1  0
  8  9  1  0
M  END
