
     RDKit          3D

 23 24  0  0  0  0  0  0  0  0999 V2000
   -5.4710   -1.1630    1.4050 C   0  0  0  0  0  0  0  0  0  0  0  0
   -4.2640   -0.4800    0.8030 C   0  0  0  0  0  0  0  0  0  0  0  0
   -3.2750    0.0520    1.5980 C   0  0  0  0  0  0  0  0  0  0  0  0
   -2.1500    0.6850    1.0380 C   0  0  0  0  0  0  0  0  0  0  0  0
   -1.0890    1.1890    1.9480 C   0  0  0  0  0  0  0  0  0  0  0  0
   -2.0600    0.7590   -0.3180 C   0  0  0  0  0  0  0  0  0  0  0  0
   -1.0090    1.4690   -1.0260 C   0  0  0  0  0  0  0  0  0  0  0  0
    0.3110    1.0960   -0.7960 O   0  0  0  0  0  0  0  0  0  0  0  0
    0.8400   -0.1910   -0.8190 C   0  0  0  0  0  0  0  0  0  0  0  0
    0.0420   -1.1100   -1.0500 O   0  0  0  0  0  0  0  0  0  0  0  0
    2.2900   -0.3780   -0.5630 C   0  0  0  0  0  0  0  0  0  0  0  0
    2.9060   -1.5260   -0.4540 C   0  0  0  0  0  0  0  0  0  0  0  0
    4.3420   -1.3070   -0.2080 C   0  0  0  0  0  0  0  0  0  0  0  0
    4.6110   -0.0130   -0.1700 C   0  0  0  0  0  0  0  0  0  0  0  0
    5.8920    0.7150    0.0390 C   0  0  1  0  0  0  0  0  0  0  0  0
    7.0130   -0.2290    0.4170 C   0  0  0  0  0  0  0  0  0  0  0  0
    6.1980    1.3080   -1.2030 O   0  0  0  0  0  0  0  0  0  0  0  0
    3.3190    0.6450   -0.3950 C   0  0  0  0  0  0  0  0  0  0  0  0
    3.0990    1.9030   -0.4440 O   0  0  0  0  0  0  0  0  0  0  0  0
   -3.0860    0.2060   -1.1100 C   0  0  0  0  0  0  0  0  0  0  0  0
   -4.1910   -0.4120   -0.5660 C   0  0  0  0  0  0  0  0  0  0  0  0
   -5.2920   -0.9680   -1.3750 C   0  0  0  0  0  0  0  0  0  0  0  0
   -5.0210   -0.7320   -2.7460 O   0  0  0  0  0  0  0  0  0  0  0  0
  1  2  1  0
  2  3  2  0
  2 21  1  0
  3  4  1  0
  4  5  1  0
  4  6  2  0
  6  7  1  0
  6 20  1  0
  7  8  1  0
  8  9  1  0
  9 10  2  0
  9 11  1  0
 11 12  2  0
 11 18  1  0
 12 13  1  0
 13 14  2  0
 14 15  1  0
 14 18  1  0
 15 16  1  6
 15 17  1  0
 18 19  2  0
 20 21  2  0
 21 22  1  0
 22 23  1  0
M  END
