
     RDKit          3D

 15 16  0  0  0  0  0  0  0  0999 V2000
    2.6980   -0.0820    1.4660 C   0  0  0  0  0  0  0  0  0  0  0  0
    2.5200   -0.0270   -0.0370 C   0  0  1  0  0  0  0  0  0  0  0  0
    2.7390   -1.3860   -0.6710 C   0  0  0  0  0  0  0  0  0  0  0  0
    1.1750    0.4670   -0.3180 C   0  0  0  0  0  0  0  0  0  0  0  0
    0.1190   -0.2250    0.1370 N   0  0  0  0  0  0  0  0  0  0  0  0
   -1.1260    0.2070   -0.1070 C   0  0  0  0  0  0  0  0  0  0  0  0
   -2.2330   -0.4300    0.3130 N   0  0  0  0  0  0  0  0  0  0  0  0
   -2.0360   -1.6520    1.0720 C   0  0  0  0  0  0  0  0  0  0  0  0
   -3.4760    0.0480    0.0410 C   0  0  0  0  0  0  0  0  0  0  0  0
   -3.6720    1.1800   -0.6620 N   0  0  0  0  0  0  0  0  0  0  0  0
   -2.6070    1.8780   -1.1200 C   0  0  0  0  0  0  0  0  0  0  0  0
   -1.3210    1.4420   -0.8750 C   0  0  0  0  0  0  0  0  0  0  0  0
   -0.1980    2.1020   -1.3100 C   0  0  0  0  0  0  0  0  0  0  0  0
   -0.3660    3.1630   -1.9690 O   0  0  0  0  0  0  0  0  0  0  0  0
    1.0080    1.5970   -1.0190 N   0  0  0  0  0  0  0  0  0  0  0  0
  2  1  1  1
  2  3  1  0
  2  4  1  0
  4  5  1  0
  4 15  2  0
  5  6  2  0
  6  7  1  0
  6 12  1  0
  7  8  1  0
  7  9  1  0
  9 10  2  0
 10 11  1  0
 11 12  2  0
 12 13  1  0
 13 14  2  0
 13 15  1  0
M  END
