
     RDKit          3D

 15 16  0  0  0  0  0  0  0  0999 V2000
    4.4280    0.3130   -0.2010 C   0  0  0  0  0  0  0  0  0  0  0  0
    3.0310    0.6200   -0.2410 N   0  0  0  0  0  0  0  0  0  0  0  0
    2.1680   -0.3020   -0.0520 C   0  0  0  0  0  0  0  0  0  0  0  0
    2.6100   -1.6870    0.2080 C   0  0  0  0  0  0  0  0  0  0  0  0
    0.7260    0.0010   -0.0910 C   0  0  0  0  0  0  0  0  0  0  0  0
    0.2930    1.2330   -0.3220 C   0  0  0  0  0  0  0  0  0  0  0  0
   -1.0890    1.5580   -0.3650 N   0  0  0  0  0  0  0  0  0  0  0  0
   -1.5420    2.8980   -0.6170 C   0  0  0  0  0  0  0  0  0  0  0  0
   -2.1010    0.5530   -0.1580 C   0  0  0  0  0  0  0  0  0  0  0  0
   -3.3800    0.6380   -0.1570 N   0  0  0  0  0  0  0  0  0  0  0  0
   -4.0040   -0.6240    0.0940 C   0  0  0  0  0  0  0  0  0  0  0  0
   -2.8610   -1.5780    0.2630 C   0  0  0  0  0  0  0  0  0  0  0  0
   -1.6910   -0.7810    0.0930 N   0  0  0  0  0  0  0  0  0  0  0  0
   -0.2740   -1.0290    0.1210 C   0  0  0  0  0  0  0  0  0  0  0  0
    0.0620   -2.2140    0.3440 O   0  0  0  0  0  0  0  0  0  0  0  0
  1  2  1  0
  2  3  2  3
  3  4  1  0
  3  5  1  0
  5  6  2  0
  5 14  1  0
  6  7  1  0
  7  8  1  0
  7  9  1  0
  9 10  2  0
  9 13  1  0
 10 11  1  0
 11 12  1  0
 12 13  1  0
 13 14  1  0
 14 15  2  0
M  END
