
     RDKit          3D

 18 20  0  0  0  0  0  0  0  0999 V2000
   -3.2660    1.7130   -0.1530 O   0  0  0  0  0  0  0  0  0  0  0  0
   -3.2330    0.3640    0.0930 C   0  0  0  0  0  0  0  0  0  0  0  0
   -2.1880   -0.3940    0.1780 C   0  0  0  0  0  0  0  0  0  0  0  0
   -2.4830   -1.8700    0.4650 C   0  0  0  0  0  0  0  0  0  0  0  0
   -3.8480   -2.0880    0.5740 O   0  0  0  0  0  0  0  0  0  0  0  0
   -0.7900   -0.0790    0.0490 C   0  0  0  0  0  0  0  0  0  0  0  0
    0.1820   -1.0790    0.1830 C   0  0  0  0  0  0  0  0  0  0  0  0
    1.5250   -0.8100    0.0650 C   0  0  0  0  0  0  0  0  0  0  0  0
    2.4290   -1.8600    0.2120 C   0  0  0  0  0  0  0  0  0  0  0  0
    3.7680   -1.5730    0.0910 C   0  0  0  0  0  0  0  0  0  0  0  0
    4.1580   -0.2770   -0.1670 C   0  0  0  0  0  0  0  0  0  0  0  0
    3.2890    0.7310   -0.3080 N   0  0  0  0  0  0  0  0  0  0  0  0
    1.9740    0.4600   -0.1910 C   0  0  0  0  0  0  0  0  0  0  0  0
    1.0440    1.4210   -0.3200 N   0  0  0  0  0  0  0  0  0  0  0  0
    1.2340    2.7500   -0.5730 C   0  0  0  0  0  0  0  0  0  0  0  0
   -0.0260    3.2900   -0.6080 C   0  0  0  0  0  0  0  0  0  0  0  0
   -0.9450    2.3520   -0.3890 N   0  0  0  0  0  0  0  0  0  0  0  0
   -0.2740    1.1790   -0.2080 C   0  0  0  0  0  0  0  0  0  0  0  0
  1  2  1  0
  2  3  2  3
  3  4  1  0
  3  6  1  0
  4  5  1  0
  6  7  2  0
  6 18  1  0
  7  8  1  0
  8  9  2  0
  8 13  1  0
  9 10  1  0
 10 11  2  0
 11 12  1  0
 12 13  2  0
 13 14  1  0
 14 15  1  0
 14 18  1  0
 15 16  2  0
 16 17  1  0
 17 18  2  0
M  END
