
     RDKit          3D

 18 20  0  0  0  0  0  0  0  0999 V2000
    2.2390    0.7510   -1.5650 O   0  0  0  0  0  0  0  0  0  0  0  0
    1.6830   -0.0820   -0.8160 C   0  0  0  0  0  0  0  0  0  0  0  0
    0.3310   -0.0240   -0.4250 N   0  0  0  0  0  0  0  0  0  0  0  0
   -0.5370    1.0000   -0.8480 C   0  0  0  0  0  0  0  0  0  0  0  0
   -0.1450    2.1780   -1.4920 C   0  0  0  0  0  0  0  0  0  0  0  0
   -1.2370    2.9580   -1.6860 N   0  0  0  0  0  0  0  0  0  0  0  0
   -2.2360    2.3200   -1.2010 N   0  0  0  0  0  0  0  0  0  0  0  0
   -1.8890    1.1030   -0.6670 C   0  0  0  0  0  0  0  0  0  0  0  0
   -2.8420    0.1590   -0.1090 C   0  0  0  0  0  0  0  0  0  0  0  0
   -4.1310    0.5080    0.1130 C   0  0  0  0  0  0  0  0  0  0  0  0
   -4.8880   -0.6270    0.6800 C   0  0  0  0  0  0  0  0  0  0  0  0
   -3.8810   -1.7090    0.7500 C   0  0  0  0  0  0  0  0  0  0  0  0
   -2.7120   -1.2120    0.2870 C   0  0  0  0  0  0  0  0  0  0  0  0
    2.5370   -1.2270   -0.3010 C   0  0  2  0  0  0  0  0  0  0  0  0
    2.6330   -1.0620    1.2220 C   0  0  0  0  0  0  0  0  0  0  0  0
    3.7390   -0.0020    1.2660 C   0  0  0  0  0  0  0  0  0  0  0  0
    4.5920   -0.4450    0.1150 C   0  0  0  0  0  0  0  0  0  0  0  0
    3.8120   -1.1230   -0.7790 O   0  0  0  0  0  0  0  0  0  0  0  0
  1  2  2  0
  2  3  1  0
 14  2  1  6
  3  4  1  0
  4  5  2  0
  4  8  1  0
  5  6  1  0
  6  7  1  0
  7  8  2  0
  8  9  1  0
  9 10  2  0
  9 13  1  0
 10 11  1  0
 11 12  1  0
 12 13  2  0
 14 15  1  0
 14 18  1  0
 15 16  1  0
 16 17  1  0
 17 18  1  0
M  END
