
     RDKit          3D

 18 20  0  0  0  0  0  0  0  0999 V2000
   -0.1960    2.8920    0.1100 O   0  0  0  0  0  0  0  0  0  0  0  0
   -0.7100    1.5930    0.4260 C   0  0  0  0  0  0  0  0  0  0  0  0
   -0.2730    0.6130   -0.6180 C   0  0  2  0  0  0  0  0  0  0  0  0
   -0.6580   -0.7920   -0.4600 C   0  0  0  0  0  0  0  0  0  0  0  0
   -2.1010   -1.0980   -0.3850 C   0  0  0  0  0  0  0  0  0  0  0  0
   -2.8010   -1.8150   -1.2960 C   0  0  0  0  0  0  0  0  0  0  0  0
   -4.2020   -1.9390   -0.9240 C   0  0  0  0  0  0  0  0  0  0  0  0
   -4.2710   -1.2300    0.3660 C   0  0  0  0  0  0  0  0  0  0  0  0
   -3.0690   -0.7630    0.6420 C   0  0  0  0  0  0  0  0  0  0  0  0
   -2.8410   -0.0300    1.8370 O   0  0  0  0  0  0  0  0  0  0  0  0
    1.1940    0.7990   -0.8120 C   0  0  0  0  0  0  0  0  0  0  0  0
    1.7320    1.2930   -1.9300 N   0  0  0  0  0  0  0  0  0  0  0  0
    3.0240    1.3380   -1.8090 N   0  0  0  0  0  0  0  0  0  0  0  0
    3.3400    0.8680   -0.5990 C   0  0  0  0  0  0  0  0  0  0  0  0
    2.1980    0.5350    0.0130 N   0  0  0  0  0  0  0  0  0  0  0  0
    2.4890    0.0190    1.3310 C   0  0  0  0  0  0  0  0  0  0  0  0
    3.9450   -0.4520    1.2200 C   0  0  0  0  0  0  0  0  0  0  0  0
    4.5110    0.5990    0.2700 C   0  0  0  0  0  0  0  0  0  0  0  0
  1  2  1  0
  3  2  1  1
  3  4  1  0
  3 11  1  0
  4  5  1  0
  5  6  2  0
  5  9  1  0
  6  7  1  0
  7  8  1  0
  8  9  2  0
  9 10  1  0
 11 12  2  0
 11 15  1  0
 12 13  1  0
 13 14  2  0
 14 15  1  0
 14 18  1  0
 15 16  1  0
 16 17  1  0
 17 18  1  0
M  END
