
     RDKit          3D

 18 20  0  0  0  0  0  0  0  0999 V2000
    4.3790   -0.9750    0.0560 C   0  0  0  0  0  0  0  0  0  0  0  0
    3.1010   -0.9830   -0.2240 C   0  0  0  0  0  0  0  0  0  0  0  0
    2.4480    0.2380   -0.6820 C   0  0  0  0  0  0  0  0  0  0  0  0
    1.0720    0.2740   -0.9950 N   0  0  0  0  0  0  0  0  0  0  0  0
    0.0530   -0.0390   -0.0590 C   0  0  0  0  0  0  0  0  0  0  0  0
    0.3730   -0.4040    1.2420 C   0  0  0  0  0  0  0  0  0  0  0  0
   -0.6100   -0.7110    2.1650 C   0  0  0  0  0  0  0  0  0  0  0  0
   -1.9050   -0.6620    1.8160 N   0  0  0  0  0  0  0  0  0  0  0  0
   -2.2130   -0.3100    0.5570 C   0  0  0  0  0  0  0  0  0  0  0  0
   -3.6310   -0.2470    0.1420 C   0  0  0  0  0  0  0  0  0  0  0  0
   -4.0950    0.0950   -1.1020 C   0  0  0  0  0  0  0  0  0  0  0  0
   -5.4710    0.0260   -1.0550 C   0  0  0  0  0  0  0  0  0  0  0  0
   -5.7660   -0.3600    0.2360 C   0  0  0  0  0  0  0  0  0  0  0  0
   -4.6540   -0.5110    0.9090 O   0  0  0  0  0  0  0  0  0  0  0  0
   -1.2560   -0.0060   -0.3570 N   0  0  0  0  0  0  0  0  0  0  0  0
    3.1600    1.3350   -0.8060 C   0  0  0  0  0  0  0  0  0  0  0  0
    4.6160    1.4070   -0.5030 C   0  0  0  0  0  0  0  0  0  0  0  0
    5.1390    0.1750   -0.0710 O   0  0  0  0  0  0  0  0  0  0  0  0
  1  2  2  0
  1 18  1  0
  2  3  1  0
  3  4  1  0
  3 16  2  0
  4  5  1  0
  5  6  2  0
  5 15  1  0
  6  7  1  0
  7  8  2  0
  8  9  1  0
  9 10  1  0
  9 15  2  0
 10 11  2  0
 10 14  1  0
 11 12  1  0
 12 13  2  0
 13 14  1  0
 16 17  1  0
 17 18  1  0
M  END
