
     RDKit          3D

 19 20  0  0  0  0  0  0  0  0999 V2000
    5.3360   -0.4190   -1.1270 C   0  0  0  0  0  0  0  0  0  0  0  0
    4.3630    0.1140   -0.1450 C   0  0  0  0  0  0  0  0  0  0  0  0
    4.8150    0.9430    0.8450 C   0  0  0  0  0  0  0  0  0  0  0  0
    3.9740    1.4570    1.7640 N   0  0  0  0  0  0  0  0  0  0  0  0
    2.6880    1.1250    1.6680 C   0  0  0  0  0  0  0  0  0  0  0  0
    2.1480    0.2900    0.6930 C   0  0  0  0  0  0  0  0  0  0  0  0
    0.7290    0.0060    0.6800 C   0  0  0  0  0  0  0  0  0  0  0  0
    0.0230    0.4400    1.6370 O   0  0  0  0  0  0  0  0  0  0  0  0
    0.0590   -0.7150   -0.3110 N   0  0  0  0  0  0  0  0  0  0  0  0
   -1.3390   -0.9500   -0.2470 N   0  0  0  0  0  0  0  0  0  0  0  0
   -2.2540    0.1350   -0.1490 C   0  0  0  0  0  0  0  0  0  0  0  0
   -1.7430    1.2880   -0.1250 O   0  0  0  0  0  0  0  0  0  0  0  0
   -3.6990   -0.0680   -0.0810 C   0  0  0  0  0  0  0  0  0  0  0  0
   -4.3640   -1.2070   -0.0970 C   0  0  0  0  0  0  0  0  0  0  0  0
   -5.8280   -0.9880   -0.0090 C   0  0  0  0  0  0  0  0  0  0  0  0
   -5.9140    0.4950    0.0610 C   0  0  0  0  0  0  0  0  0  0  0  0
   -4.6760    1.0020    0.0180 C   0  0  0  0  0  0  0  0  0  0  0  0
    3.0150   -0.2220   -0.2310 C   0  0  0  0  0  0  0  0  0  0  0  0
    2.6720   -0.9810   -1.1560 O   0  0  0  0  0  0  0  0  0  0  0  0
  1  2  1  0
  2  3  2  0
  2 18  1  0
  3  4  1  0
  4  5  1  0
  5  6  2  0
  6  7  1  0
  6 18  1  0
  7  8  2  0
  7  9  1  0
  9 10  1  0
 10 11  1  0
 11 12  2  0
 11 13  1  0
 13 14  2  0
 13 17  1  0
 14 15  1  0
 15 16  1  0
 16 17  2  0
 18 19  2  0
M  END
