
     RDKit          3D

 10  9  0  0  0  0  0  0  0  0999 V2000
   -0.8140   -0.0260   -1.5240 C   0  0  0  0  0  0  0  0  0  0  0  0
   -0.5600   -0.0750   -0.0590 C   0  0  2  0  0  0  0  0  0  0  0  0
   -1.3360   -1.2740    0.5030 C   0  0  0  0  0  0  0  0  0  0  0  0
   -1.1770    1.1520    0.5720 C   0  0  0  0  0  0  0  0  0  0  0  0
    0.8660   -0.2790    0.3330 C   0  0  1  0  0  0  0  0  0  0  0  0
    0.9530   -0.3070    1.7420 O   0  0  0  0  0  0  0  0  0  0  0  0
    1.2620   -1.5460   -0.0930 O   0  0  0  0  0  0  0  0  0  0  0  0
    1.8120    0.7800   -0.1860 C   0  0  2  0  0  0  0  0  0  0  0  0
    1.8240    0.8680   -1.9540 Cl  0  0  0  0  0  0  0  0  0  0  0  0
    3.4750    0.3190    0.3190 Cl  0  0  0  0  0  0  0  0  0  0  0  0
  2  1  1  6
  2  3  1  0
  2  4  1  0
  2  5  1  0
  5  6  1  1
  5  7  1  0
  5  8  1  0
  8  9  1  6
  8 10  1  0
M  END
