
     RDKit          3D

 10  9  0  0  0  0  0  0  0  0999 V2000
   -1.4570   -0.7930   -1.4570 C   0  0  0  0  0  0  0  0  0  0  0  0
   -0.8670   -0.0930   -0.2310 C   0  0  1  0  0  0  0  0  0  0  0  0
   -1.3420    1.3480   -0.3050 C   0  0  0  0  0  0  0  0  0  0  0  0
   -1.4640   -0.7510    0.9680 C   0  0  0  0  0  0  0  0  0  0  0  0
    0.4940   -0.2020   -0.3360 O   0  0  0  0  0  0  0  0  0  0  0  0
    1.2060    0.3770    0.6920 C   0  0  0  0  0  0  0  0  0  0  0  0
    2.6740    0.1390    0.3740 C   0  0  2  0  0  0  0  0  0  0  0  0
    2.9830   -1.2100    0.2890 O   0  0  0  0  0  0  0  0  0  0  0  0
    3.6970    0.8460    1.6730 Cl  0  0  0  0  0  0  0  0  0  0  0  0
    3.1480    0.9640   -1.1330 Cl  0  0  0  0  0  0  0  0  0  0  0  0
  2  1  1  6
  2  3  1  0
  2  4  1  0
  2  5  1  0
  5  6  1  0
  6  7  1  0
  7  8  1  6
  7  9  1  0
  7 10  1  0
M  END
