
     RDKit          3D

 10  9  0  0  0  0  0  0  0  0999 V2000
   -1.8950   -1.4900    0.3200 C   0  0  0  0  0  0  0  0  0  0  0  0
   -1.9410   -0.1950   -0.3920 C   0  0  0  0  0  0  0  0  0  0  0  0
   -0.9900    0.7010   -0.2640 C   0  0  0  0  0  0  0  0  0  0  0  0
    0.0850    0.4100    0.5660 O   0  0  0  0  0  0  0  0  0  0  0  0
    1.2710   -0.0430   -0.0470 C   0  0  0  0  0  0  0  0  0  0  0  0
    2.3300   -0.3100    1.0000 C   0  0  0  0  0  0  0  0  0  0  0  0
    3.5080   -0.7580    0.4100 O   0  0  0  0  0  0  0  0  0  0  0  0
   -0.9860    2.0050   -0.9490 C   0  0  2  0  0  0  0  0  0  0  0  0
   -0.9590    3.2810    0.2820 Cl  0  0  0  0  0  0  0  0  0  0  0  0
   -2.4360    2.1970   -1.9660 Cl  0  0  0  0  0  0  0  0  0  0  0  0
  1  2  1  0
  2  3  2  3
  3  4  1  0
  3  8  1  0
  4  5  1  0
  5  6  1  0
  6  7  1  0
  8  9  1  1
  8 10  1  0
M  END
