
     RDKit          3D

 10  9  0  0  0  0  0  0  0  0999 V2000
    1.6290   -1.6760   -0.0890 C   0  0  0  0  0  0  0  0  0  0  0  0
    1.8070   -0.3680   -0.0030 C   0  0  0  0  0  0  0  0  0  0  0  0
    3.0190    0.2140   -0.3830 O   0  0  0  0  0  0  0  0  0  0  0  0
    0.7490    0.5040    0.4890 C   0  0  0  0  0  0  0  0  0  0  0  0
   -0.4620   -0.0770    0.8690 O   0  0  0  0  0  0  0  0  0  0  0  0
   -1.5600    0.1170   -0.0010 C   0  0  0  0  0  0  0  0  0  0  0  0
   -2.8100   -0.5380    0.4850 C   0  0  0  0  0  0  0  0  0  0  0  0
    0.9340    1.8110    0.5720 C   0  0  0  0  0  0  0  0  0  0  0  0
   -0.2980    2.9070    1.1540 Cl  0  0  0  0  0  0  0  0  0  0  0  0
    2.4710    2.4860    0.0830 Cl  0  0  0  0  0  0  0  0  0  0  0  0
  1  2  2  0
  2  3  1  0
  2  4  1  0
  4  5  1  0
  4  8  2  3
  5  6  1  0
  6  7  1  0
  8  9  1  0
  8 10  1  0
M  END
