
     RDKit          3D

 19 19  0  0  0  0  0  0  0  0999 V2000
    6.8740    0.7980    1.0340 C   0  0  0  0  0  0  0  0  0  0  0  0
    6.5890   -0.6450    0.6400 C   0  0  0  0  0  0  0  0  0  0  0  0
    5.7590   -1.2280    1.5590 O   0  0  0  0  0  0  0  0  0  0  0  0
    4.5690   -0.5860    1.6750 C   0  0  0  0  0  0  0  0  0  0  0  0
    3.7490   -0.6440    0.4620 C   0  0  0  0  0  0  0  0  0  0  0  0
    4.0390   -1.2840   -0.5620 O   0  0  0  0  0  0  0  0  0  0  0  0
    2.5190    0.0860    0.4430 N   0  0  0  0  0  0  0  0  0  0  0  0
    1.6860    0.0700   -0.6880 N   0  0  0  0  0  0  0  0  0  0  0  0
    0.2680    0.0180   -0.5980 C   0  0  0  0  0  0  0  0  0  0  0  0
   -0.2720   -0.0150    0.5310 O   0  0  0  0  0  0  0  0  0  0  0  0
   -0.5060    0.0070   -1.8540 C   0  0  0  0  0  0  0  0  0  0  0  0
   -1.9880    0.0000   -1.5150 C   0  0  0  0  0  0  0  0  0  0  0  0
   -2.7300   -1.0330   -1.8780 C   0  0  0  0  0  0  0  0  0  0  0  0
   -4.4550   -1.0260   -1.4740 S   0  0  0  0  0  0  0  0  0  0  0  0
   -4.7770    0.6010   -0.7610 C   0  0  1  0  0  0  0  0  0  0  0  0
   -6.0480    0.6410    0.0320 C   0  0  0  0  0  0  0  0  0  0  0  0
   -6.0580   -0.3180    1.1840 C   0  0  0  0  0  0  0  0  0  0  0  0
   -3.6140    0.9450    0.0350 N   0  0  0  0  0  0  0  0  0  0  0  0
   -2.4680    1.1980   -0.8020 C   0  0  0  0  0  0  0  0  0  0  0  0
  1  2  1  0
  2  3  1  0
  3  4  1  0
  4  5  1  0
  5  6  2  0
  5  7  1  0
  7  8  1  0
  8  9  1  0
  9 10  2  0
  9 11  1  0
 11 12  1  0
 12 13  2  0
 12 19  1  0
 13 14  1  0
 14 15  1  0
 15 16  1  1
 15 18  1  0
 16 17  1  0
 18 19  1  0
M  CHG  1  18   1
M  END
