
     RDKit          3D

 19 19  0  0  0  0  0  0  0  0999 V2000
   -3.4780   -1.1860   -0.7100 C   0  0  0  0  0  0  0  0  0  0  0  0
   -3.2840    0.0900    0.0760 C   0  0  2  0  0  0  0  0  0  0  0  0
   -3.5180    1.2460   -0.8400 C   0  0  0  0  0  0  0  0  0  0  0  0
   -1.9530    0.1400    0.7720 C   0  0  0  0  0  0  0  0  0  0  0  0
   -0.8510    0.0590   -0.1570 N   0  0  0  0  0  0  0  0  0  0  0  0
    0.5190    0.0910    0.3240 C   0  0  0  0  0  0  0  0  0  0  0  0
    0.7050    0.1880    1.5360 O   0  0  0  0  0  0  0  0  0  0  0  0
    1.5820    0.0120   -0.5820 N   0  0  0  0  0  0  0  0  0  0  0  0
    2.9350    0.0340   -0.2380 C   0  0  0  0  0  0  0  0  0  0  0  0
    3.4490    0.1550    0.9620 C   0  0  0  0  0  0  0  0  0  0  0  0
    4.9070    0.1670    1.1940 C   0  0  0  0  0  0  0  0  0  0  0  0
    5.7260   -0.6290    0.2550 C   0  0  0  0  0  0  0  0  0  0  0  0
    5.1320   -0.9190   -1.0680 C   0  0  0  0  0  0  0  0  0  0  0  0
    3.9370   -0.0940   -1.3210 C   0  0  0  0  0  0  0  0  0  0  0  0
    3.7400    0.5130   -2.4650 N   0  0  0  0  0  0  0  0  0  0  0  0
   -4.5370    0.1460    1.3570 S   0  0  1  0  0  0  0  0  0  0  0  0
   -6.1450    0.1250    0.6470 C   0  0  0  0  0  0  0  0  0  0  0  0
   -4.2960   -1.0020    2.2820 O   0  0  0  0  0  0  0  0  0  0  0  0
   -4.2960    1.4200    2.1390 O   0  0  0  0  0  0  0  0  0  0  0  0
  2  1  1  6
  2  3  1  0
  2  4  1  0
  2 16  1  0
  4  5  1  0
  5  6  1  0
  6  7  2  0
  6  8  1  0
  8  9  1  0
  9 10  2  0
  9 14  1  0
 10 11  1  0
 11 12  1  0
 12 13  1  0
 13 14  1  0
 14 15  2  0
 16 17  1  6
 16 18  2  0
 16 19  2  0
M  CHG  1  15   1
M  END
