
     RDKit          3D

 25 28  0  0  0  0  0  0  0  0999 V2000
    4.4280   -0.1760   -1.6550 C   0  0  0  0  0  0  0  0  0  0  0  0
    3.2100    0.2270   -1.3280 C   0  0  0  0  0  0  0  0  0  0  0  0
    2.2610    0.4690   -2.2790 N   0  0  0  0  0  0  0  0  0  0  0  0
    1.1140    0.7650   -1.7160 C   0  0  0  0  0  0  0  0  0  0  0  0
    1.2230    0.7410   -0.3460 C   0  0  0  0  0  0  0  0  0  0  0  0
    0.1550    0.9200    0.6570 C   0  0  0  0  0  0  0  0  0  0  0  0
   -0.6530   -0.2210    1.0390 C   0  0  0  0  0  0  0  0  0  0  0  0
   -0.1120   -1.1540    1.9590 C   0  0  0  0  0  0  0  0  0  0  0  0
   -0.6900   -2.3260    2.3460 C   0  0  0  0  0  0  0  0  0  0  0  0
   -1.8940   -2.6450    1.8120 C   0  0  0  0  0  0  0  0  0  0  0  0
   -2.4900   -1.7940    0.9130 C   0  0  0  0  0  0  0  0  0  0  0  0
   -3.7070   -2.1280    0.4470 N   0  0  0  0  0  0  0  0  0  0  0  0
   -4.3570   -1.3280   -0.3840 C   0  0  0  0  0  0  0  0  0  0  0  0
   -5.4890   -1.6540   -0.8070 O   0  0  0  0  0  0  0  0  0  0  0  0
   -3.8190   -0.1330   -0.7980 C   0  0  0  0  0  0  0  0  0  0  0  0
   -4.5320    0.6840   -1.6440 C   0  0  0  0  0  0  0  0  0  0  0  0
   -3.9970    1.8900   -2.0430 C   0  0  0  0  0  0  0  0  0  0  0  0
   -2.7690    2.2530   -1.5920 C   0  0  0  0  0  0  0  0  0  0  0  0
   -2.0180    1.4410   -0.7280 C   0  0  0  0  0  0  0  0  0  0  0  0
   -2.5660    0.2540   -0.3470 C   0  0  0  0  0  0  0  0  0  0  0  0
   -1.8730   -0.5820    0.5260 C   0  0  0  0  0  0  0  0  0  0  0  0
    2.5970    0.3970   -0.1170 C   0  0  0  0  0  0  0  0  0  0  0  0
    3.1690    0.4590    1.0620 C   0  0  0  0  0  0  0  0  0  0  0  0
    4.4290    0.4250    1.6960 C   0  0  0  0  0  0  0  0  0  0  0  0
    5.6260    0.3930    1.4130 N   0  0  0  0  0  0  0  0  0  0  0  0
  1  2  2  0
  2  3  1  0
  2 22  1  0
  3  4  1  0
  4  5  2  0
  5  6  1  0
  5 22  1  0
  6  7  1  0
  7  8  2  0
  7 21  1  0
  8  9  1  0
  9 10  2  0
 10 11  1  0
 11 12  1  0
 11 21  2  0
 12 13  1  0
 13 14  2  0
 13 15  1  0
 15 16  2  0
 15 20  1  0
 16 17  1  0
 17 18  2  0
 18 19  1  0
 19 20  2  0
 20 21  1  0
 22 23  2  3
 23 24  1  0
 24 25  2  0
M  CHG  1  25   1
M  END
