
     RDKit          3D

 25 28  0  0  0  0  0  0  0  0999 V2000
   -5.4910   -2.9530   -0.0160 N   0  0  0  0  0  0  0  0  0  0  0  0
   -4.3250   -2.1470   -0.0410 C   0  0  0  0  0  0  0  0  0  0  0  0
   -3.9630   -1.4070   -1.1490 C   0  0  0  0  0  0  0  0  0  0  0  0
   -2.8120   -0.6360   -1.1180 C   0  0  0  0  0  0  0  0  0  0  0  0
   -2.0230   -0.6050    0.0200 C   0  0  0  0  0  0  0  0  0  0  0  0
   -0.7900    0.2500   -0.0170 C   0  0  2  0  0  0  0  0  0  0  0  0
   -0.9990    1.4790   -0.6960 N   0  0  0  0  0  0  0  0  0  0  0  0
   -2.0510    2.2070   -0.0190 C   0  0  1  0  0  0  0  0  0  0  0  0
   -1.9310    2.6620    1.3660 C   0  0  0  0  0  0  0  0  0  0  0  0
   -1.8170    3.6570    0.2560 C   0  0  0  0  0  0  0  0  0  0  0  0
    0.4120   -0.5150   -0.3960 C   0  0  0  0  0  0  0  0  0  0  0  0
    0.2230   -1.6600   -1.1220 C   0  0  0  0  0  0  0  0  0  0  0  0
    1.2880   -2.4400   -1.4620 C   0  0  0  0  0  0  0  0  0  0  0  0
    2.5750   -2.0480   -1.0540 C   0  0  0  0  0  0  0  0  0  0  0  0
    2.7890   -0.8980   -0.3230 C   0  0  0  0  0  0  0  0  0  0  0  0
    1.7280   -0.1100    0.0210 C   0  0  0  0  0  0  0  0  0  0  0  0
    1.7910    1.0160    0.6590 C   0  0  0  0  0  0  0  0  0  0  0  0
    2.8200    1.8210    1.2630 C   0  0  0  0  0  0  0  0  0  0  0  0
    3.5240    2.7280    0.3590 N   0  0  0  0  0  0  0  0  0  0  0  0
    4.0160   -0.5810    0.0300 C   0  0  0  0  0  0  0  0  0  0  0  0
    5.1290   -1.4600   -0.3620 C   0  0  0  0  0  0  0  0  0  0  0  0
    4.9450   -2.5570   -1.0570 C   0  0  0  0  0  0  0  0  0  0  0  0
    3.6460   -2.8600   -1.4110 O   0  0  0  0  0  0  0  0  0  0  0  0
   -2.3800   -1.3460    1.1380 C   0  0  0  0  0  0  0  0  0  0  0  0
   -3.5290   -2.1050    1.0830 C   0  0  0  0  0  0  0  0  0  0  0  0
  1  2  1  0
  2  3  2  0
  2 25  1  0
  3  4  1  0
  4  5  2  0
  5  6  1  0
  5 24  1  0
  6  7  1  6
  6 11  1  0
  8  7  1  6
  8  9  1  0
  8 10  1  0
  9 10  1  0
 11 12  2  0
 11 16  1  0
 12 13  1  0
 13 14  2  0
 14 15  1  0
 14 23  1  0
 15 16  1  0
 15 20  2  0
 16 17  2  3
 17 18  1  0
 18 19  1  0
 20 21  1  0
 21 22  2  0
 22 23  1  0
 24 25  2  0
M  CHG  1  19   1
M  END
