
     RDKit          3D

 10 10  0  0  0  0  0  0  0  0999 V2000
    2.3670    1.2100   -0.8070 O   0  0  0  0  0  0  0  0  0  0  0  0
    1.7970    0.0980   -0.2060 C   0  0  0  0  0  0  0  0  0  0  0  0
    0.4280    0.3770    0.3470 C   0  0  1  0  0  0  0  0  0  0  0  0
   -0.5520    0.8250   -0.6970 C   0  0  1  0  0  0  0  0  0  0  0  0
    0.0140    0.9960   -1.9500 O   0  0  0  0  0  0  0  0  0  0  0  0
   -1.5900   -0.1060   -0.7180 O   0  0  0  0  0  0  0  0  0  0  0  0
   -1.6960   -0.4540    0.6380 C   0  0  1  0  0  0  0  0  0  0  0  0
   -2.5770   -1.4710    0.8700 O   0  0  0  0  0  0  0  0  0  0  0  0
   -0.2390   -0.8730    0.8840 C   0  0  1  0  0  0  0  0  0  0  0  0
    0.0580   -1.9980    0.0900 O   0  0  0  0  0  0  0  0  0  0  0  0
  1  2  1  0
  3  2  1  6
  3  4  1  0
  3  9  1  0
  4  5  1  6
  4  6  1  0
  6  7  1  0
  7  8  1  6
  7  9  1  0
  9 10  1  6
M  END
