
     RDKit          3D

 18 17  0  0  0  0  0  0  0  0999 V2000
   -4.9320    1.6060    0.5940 O   0  0  0  0  0  0  0  0  0  0  0  0
   -5.8440    0.7370    0.7060 C   0  0  0  0  0  0  0  0  0  0  0  0
   -7.1700    1.2100    0.6750 O   0  0  0  0  0  0  0  0  0  0  0  0
   -5.5760   -0.6080    0.8520 O   0  0  0  0  0  0  0  0  0  0  0  0
   -4.2580   -1.0590    0.8810 C   0  0  0  0  0  0  0  0  0  0  0  0
   -3.5700   -0.7360   -0.3140 O   0  0  0  0  0  0  0  0  0  0  0  0
   -2.3100   -1.1780   -0.2620 O   0  0  0  0  0  0  0  0  0  0  0  0
   -1.2220   -0.3230   -0.3650 C   0  0  0  0  0  0  0  0  0  0  0  0
   -1.4660    0.8990   -0.5120 O   0  0  0  0  0  0  0  0  0  0  0  0
    0.1830   -0.8520   -0.3030 C   0  0  0  0  0  0  0  0  0  0  0  0
    1.1480    0.2360   -0.4350 C   0  0  0  0  0  0  0  0  0  0  0  0
    0.7350    1.4080   -0.5680 O   0  0  0  0  0  0  0  0  0  0  0  0
    2.5380   -0.0440   -0.4110 N   0  0  0  0  0  0  0  0  0  0  0  0
    2.9940   -1.4120   -0.2510 C   0  0  0  0  0  0  0  0  0  0  0  0
    3.1680   -1.7480    1.0750 O   0  0  0  0  0  0  0  0  0  0  0  0
    3.4720    1.0600   -0.5510 C   0  0  0  0  0  0  0  0  0  0  0  0
    3.7800    1.5840    0.8290 C   0  0  0  0  0  0  0  0  0  0  0  0
    4.3410    0.5750    1.5890 O   0  0  0  0  0  0  0  0  0  0  0  0
  1  2  2  0
  2  3  1  0
  2  4  1  0
  4  5  1  0
  5  6  1  0
  6  7  1  0
  7  8  1  0
  8  9  2  0
  8 10  1  0
 10 11  1  0
 11 12  2  0
 11 13  1  0
 13 14  1  0
 13 16  1  0
 14 15  1  0
 16 17  1  0
 17 18  1  0
M  END
