
     RDKit          3D

 22 22  0  0  0  0  0  0  0  0999 V2000
   -3.8000   -2.3160   -0.7070 C   0  0  0  0  0  0  0  0  0  0  0  0
   -3.1070   -1.5750    0.2580 O   0  0  0  0  0  0  0  0  0  0  0  0
   -1.7300   -1.4440    0.3010 C   0  0  0  0  0  0  0  0  0  0  0  0
   -1.0730   -2.0480   -0.6110 O   0  0  0  0  0  0  0  0  0  0  0  0
   -1.0730   -0.6520    1.3390 C   0  0  1  0  0  0  0  0  0  0  0  0
    0.3640   -0.6700    1.1680 N   0  0  0  0  0  0  0  0  0  0  0  0
    0.8970    0.1170    0.0780 C   0  0  0  0  0  0  0  0  0  0  0  0
    1.8560   -0.3300   -0.6700 C   0  0  0  0  0  0  0  0  0  0  0  0
    2.4690   -1.6200   -0.5020 C   0  0  0  0  0  0  0  0  0  0  0  0
    2.1240   -2.4290    0.3810 O   0  0  0  0  0  0  0  0  0  0  0  0
    3.5140   -2.0500   -1.3420 O   0  0  0  0  0  0  0  0  0  0  0  0
    4.2490   -3.6310   -1.1170 P   0  0  0  0  0  0  0  0  0  0  0  0
    3.9810   -4.1560    0.5330 O   0  0  0  0  0  0  0  0  0  0  0  0
    0.3000    1.4490   -0.1630 C   0  0  0  0  0  0  0  0  0  0  0  0
    1.0270    2.3840   -0.7220 C   0  0  0  0  0  0  0  0  0  0  0  0
    0.3690    4.0650   -1.0610 P   0  0  0  0  0  0  0  0  0  0  0  0
    0.2830    5.0310    0.3490 O   0  0  0  0  0  0  0  0  0  0  0  0
    1.1650    4.8240   -2.3770 O   0  0  0  0  0  0  0  0  0  0  0  0
   -1.0970    1.6470    0.2550 C   0  0  0  0  0  0  0  0  0  0  0  0
   -1.5130    0.7490    1.2900 N   0  0  0  0  0  0  0  0  0  0  0  0
   -2.3840    1.2110    2.3130 C   0  0  0  0  0  0  0  0  0  0  0  0
   -2.7710    2.4070    2.2840 O   0  0  0  0  0  0  0  0  0  0  0  0
  1  2  1  0
  2  3  1  0
  3  4  2  0
  5  3  1  6
  5  6  1  0
  5 20  1  0
  6  7  1  0
  7  8  2  3
  7 14  1  0
  8  9  1  0
  9 10  2  0
  9 11  1  0
 11 12  1  0
 12 13  1  0
 14 15  2  3
 14 19  1  0
 15 16  1  0
 16 17  1  0
 16 18  1  0
 19 20  1  0
 20 21  1  0
 21 22  2  0
M  END
