
     RDKit          3D

 21 21  0  0  0  0  0  0  0  0999 V2000
   -1.9140   -3.2300   -0.9600 C   0  0  0  0  0  0  0  0  0  0  0  0
   -1.7400   -2.0660    0.0060 C   0  0  2  0  0  0  0  0  0  0  0  0
   -3.0580   -1.3010    0.0230 C   0  0  0  0  0  0  0  0  0  0  0  0
   -2.8630    0.0850    0.6530 C   0  0  0  0  0  0  0  0  0  0  0  0
   -2.0690    0.8520   -0.2330 N   0  0  0  0  0  0  0  0  0  0  0  0
   -2.6570    2.0940   -0.7260 C   0  0  0  0  0  0  0  0  0  0  0  0
   -2.7680    3.1050    0.3270 C   0  0  0  0  0  0  0  0  0  0  0  0
   -2.8010    2.8260    1.5480 O   0  0  0  0  0  0  0  0  0  0  0  0
   -2.8500    4.4840    0.0400 O   0  0  0  0  0  0  0  0  0  0  0  0
   -0.7500    1.1620    0.3430 C   0  0  0  0  0  0  0  0  0  0  0  0
    0.0890   -0.0910    0.1920 C   0  0  2  0  0  0  0  0  0  0  0  0
    0.6240   -0.3860    1.4410 O   0  0  0  0  0  0  0  0  0  0  0  0
    1.5530    0.4030   -0.9080 P   0  0  0  0  0  0  0  0  0  0  0  0
    2.1970    1.8750   -0.1180 O   0  0  0  0  0  0  0  0  0  0  0  0
    2.8580   -0.9400   -0.6230 C   0  0  0  0  0  0  0  0  0  0  0  0
    4.1500   -0.3050   -0.7380 N   0  0  0  0  0  0  0  0  0  0  0  0
    4.9960   -0.1480    0.7740 P   0  0  0  0  0  0  0  0  0  0  0  0
    5.4030    1.4980    1.1720 O   0  0  0  0  0  0  0  0  0  0  0  0
    6.3490   -1.1660    0.9150 O   0  0  0  0  0  0  0  0  0  0  0  0
   -0.6310   -1.1990   -0.4000 C   0  0  0  0  0  0  0  0  0  0  0  0
   -0.2150   -1.4870   -1.5530 O   0  0  0  0  0  0  0  0  0  0  0  0
  2  1  1  6
  2  3  1  0
  2 20  1  0
  3  4  1  0
  4  5  1  0
  5  6  1  0
  5 10  1  0
  6  7  1  0
  7  8  2  0
  7  9  1  0
 10 11  1  0
 11 12  1  1
 11 13  1  0
 11 20  1  0
 13 14  1  0
 13 15  1  0
 15 16  1  0
 16 17  1  0
 17 18  1  0
 17 19  1  0
 20 21  2  0
M  END
