
     RDKit          3D

 11 11  0  0  0  0  0  0  0  0999 V2000
   -4.0870    0.7780   -0.5940 C   0  0  0  0  0  0  0  0  0  0  0  0
   -3.6410   -0.5210    0.0180 C   0  0  0  0  0  0  0  0  0  0  0  0
   -2.8480   -0.2190    1.1120 O   0  0  0  0  0  0  0  0  0  0  0  0
   -1.8820    0.5670    0.6680 O   0  0  0  0  0  0  0  0  0  0  0  0
   -0.6070   -0.4360    0.0240 P   0  0  0  0  0  0  0  0  0  0  0  0
    0.8410    0.5320   -0.5740 C   0  0  0  0  0  0  0  0  0  0  0  0
    2.0480   -0.1010    0.6670 P   0  0  0  0  0  0  0  0  0  0  0  0
    3.4660   -0.9340   -0.1640 C   0  0  0  0  0  0  0  0  0  0  0  0
    4.1100    0.0400   -0.9440 O   0  0  0  0  0  0  0  0  0  0  0  0
    3.9630    1.2050   -0.2960 N   0  0  0  0  0  0  0  0  0  0  0  0
    0.5690   -1.4180    1.5850 P   0  0  0  0  0  0  0  0  0  0  0  0
  1  2  1  0
  2  3  1  0
  3  4  1  0
  4  5  1  0
  5  6  1  0
  5 11  1  0
  6  7  1  0
  7  8  1  0
  7 11  1  0
  8  9  1  0
  9 10  1  0
M  END
