
     RDKit          3D

 13 13  0  0  0  0  0  0  0  0999 V2000
   -0.8690   -0.2110   -3.0350 O   0  0  0  0  0  0  0  0  0  0  0  0
   -0.4160   -0.3650   -1.8640 C   0  0  0  0  0  0  0  0  0  0  0  0
    0.8690   -0.6960   -1.4690 O   0  0  0  0  0  0  0  0  0  0  0  0
    0.8900   -1.1230   -0.1160 C   0  0  1  0  0  0  0  0  0  0  0  0
    1.5780   -0.1910    0.6250 O   0  0  0  0  0  0  0  0  0  0  0  0
    2.5640   -0.8000    1.2470 O   0  0  0  0  0  0  0  0  0  0  0  0
    3.7030   -0.7150    0.6260 O   0  0  0  0  0  0  0  0  0  0  0  0
    4.5210    0.1110    1.2530 O   0  0  0  0  0  0  0  0  0  0  0  0
   -0.5650   -1.2280    0.2850 C   0  0  0  0  0  0  0  0  0  0  0  0
   -1.2100   -0.2130   -0.6260 C   0  0  1  0  0  0  0  0  0  0  0  0
   -1.0960    1.0620   -0.1240 O   0  0  0  0  0  0  0  0  0  0  0  0
   -2.3600    1.6120    0.0720 C   0  0  0  0  0  0  0  0  0  0  0  0
   -2.2690    2.9040    0.5810 O   0  0  0  0  0  0  0  0  0  0  0  0
  1  2  2  0
  2  3  1  0
  2 10  1  0
  3  4  1  0
  4  5  1  1
  4  9  1  0
  5  6  1  0
  6  7  1  0
  7  8  1  0
  9 10  1  0
 10 11  1  1
 11 12  1  0
 12 13  1  0
M  END
