
     RDKit          3D

 13 12  0  0  0  0  0  0  0  0999 V2000
   -5.2060    0.0870    1.1480 O   0  0  0  0  0  0  0  0  0  0  0  0
   -5.2490   -0.0400   -0.0990 C   0  0  0  0  0  0  0  0  0  0  0  0
   -4.1090    0.2070   -0.8440 O   0  0  0  0  0  0  0  0  0  0  0  0
   -2.9400    0.5780   -0.3250 O   0  0  0  0  0  0  0  0  0  0  0  0
   -1.9520   -0.1620   -0.9530 C   0  0  0  0  0  0  0  0  0  0  0  0
   -0.5760    0.2140   -0.4050 C   0  0  0  0  0  0  0  0  0  0  0  0
    0.3360   -0.5950   -1.1120 O   0  0  0  0  0  0  0  0  0  0  0  0
    1.5550   -0.2980   -0.6620 O   0  0  0  0  0  0  0  0  0  0  0  0
    2.0330   -0.9060    0.4880 C   0  0  0  0  0  0  0  0  0  0  0  0
    1.2740   -1.7250    1.0600 O   0  0  0  0  0  0  0  0  0  0  0  0
    3.4030   -0.6050    1.0370 C   0  0  0  0  0  0  0  0  0  0  0  0
    4.0310    0.3400    0.2040 O   0  0  0  0  0  0  0  0  0  0  0  0
    5.2190    0.6400    0.6280 O   0  0  0  0  0  0  0  0  0  0  0  0
  1  2  2  0
  2  3  1  0
  3  4  1  0
  4  5  1  0
  5  6  1  0
  6  7  1  0
  7  8  1  0
  8  9  1  0
  9 10  2  0
  9 11  1  0
 11 12  1  0
 12 13  1  0
M  END
