
     RDKit          3D

 20 22  0  0  0  0  0  0  0  0999 V2000
   -4.0990   -1.7900    0.8410 C   0  0  0  0  0  0  0  0  0  0  0  0
   -4.1560   -0.3520    0.4400 C   0  0  0  0  0  0  0  0  0  0  0  0
   -5.2090    0.4130    0.4240 O   0  0  0  0  0  0  0  0  0  0  0  0
   -4.9510    1.6140    0.0300 C   0  0  0  0  0  0  0  0  0  0  0  0
   -3.6010    1.6590   -0.2450 C   0  0  0  0  0  0  0  0  0  0  0  0
   -3.0890    0.4080    0.0150 C   0  0  0  0  0  0  0  0  0  0  0  0
   -1.6980   -0.0400   -0.1260 C   0  0  0  0  0  0  0  0  0  0  0  0
   -1.4110   -1.2300    0.1590 O   0  0  0  0  0  0  0  0  0  0  0  0
   -0.7250    0.8440   -0.5680 O   0  0  0  0  0  0  0  0  0  0  0  0
    0.5940    0.4750   -0.7180 C   0  0  0  0  0  0  0  0  0  0  0  0
    1.4830    0.6100    0.3350 C   0  0  0  0  0  0  0  0  0  0  0  0
    2.8050    0.2440    0.1980 C   0  0  0  0  0  0  0  0  0  0  0  0
    3.7350    0.3550    1.2070 C   0  0  0  0  0  0  0  0  0  0  0  0
    5.0560   -0.0270    1.0190 C   0  0  0  0  0  0  0  0  0  0  0  0
    5.4220   -0.5280   -0.2170 C   0  0  0  0  0  0  0  0  0  0  0  0
    4.5050   -0.6300   -1.1880 N   0  0  0  0  0  0  0  0  0  0  0  0
    3.2010   -0.2590   -1.0230 C   0  0  0  0  0  0  0  0  0  0  0  0
    2.3150   -0.3800   -2.0300 N   0  0  0  0  0  0  0  0  0  0  0  0
    1.0230   -0.0320   -1.9250 C   0  0  0  0  0  0  0  0  0  0  0  0
    0.2160   -0.1650   -2.9100 O   0  0  0  0  0  0  0  0  0  0  0  0
  1  2  1  0
  2  3  1  0
  2  6  2  0
  3  4  1  0
  4  5  2  0
  5  6  1  0
  6  7  1  0
  7  8  2  0
  7  9  1  0
  9 10  1  0
 10 11  2  0
 10 19  1  0
 11 12  1  0
 12 13  2  0
 12 17  1  0
 13 14  1  0
 14 15  2  0
 15 16  1  0
 16 17  2  0
 17 18  1  0
 18 19  1  0
 19 20  2  0
M  END
