
     RDKit          3D

 20 21  0  0  0  0  0  0  0  0999 V2000
   -3.4200   -1.9800    0.7630 C   0  0  0  0  0  0  0  0  0  0  0  0
   -2.8300   -1.2860   -0.3450 O   0  0  0  0  0  0  0  0  0  0  0  0
   -1.9370   -0.2760   -0.1900 C   0  0  0  0  0  0  0  0  0  0  0  0
   -0.5560   -0.2720   -0.5490 C   0  0  0  0  0  0  0  0  0  0  0  0
    0.2160   -1.1750   -1.1090 C   0  0  0  0  0  0  0  0  0  0  0  0
   -0.1730   -2.5040   -1.5390 C   0  0  0  0  0  0  0  0  0  0  0  0
   -1.3370   -2.8950   -1.4090 O   0  0  0  0  0  0  0  0  0  0  0  0
    0.7680   -3.3790   -2.1160 N   0  0  0  0  0  0  0  0  0  0  0  0
    1.9820   -3.0010   -2.2650 C   0  0  0  0  0  0  0  0  0  0  0  0
    2.4550   -1.6870   -1.8620 C   0  0  0  0  0  0  0  0  0  0  0  0
    1.6460   -0.8000   -1.3130 C   0  0  0  0  0  0  0  0  0  0  0  0
    2.1540    0.4660   -0.9370 N   0  0  0  0  0  0  0  0  0  0  0  0
    3.1590    0.6550    0.0780 C   0  0  2  0  0  0  0  0  0  0  0  0
    2.7060    0.1340    1.4250 C   0  0  0  0  0  0  0  0  0  0  0  0
    3.4490    2.1230    0.2160 C   0  0  0  0  0  0  0  0  0  0  0  0
   -2.4230    0.8480    0.3680 C   0  0  0  0  0  0  0  0  0  0  0  0
   -3.7920    1.1320    0.8340 C   0  0  0  0  0  0  0  0  0  0  0  0
   -3.8570    2.5310    0.6130 O   0  0  0  0  0  0  0  0  0  0  0  0
   -2.6440    2.9630    1.1320 C   0  0  0  0  0  0  0  0  0  0  0  0
   -1.7100    2.0070    0.6280 O   0  0  0  0  0  0  0  0  0  0  0  0
  1  2  1  0
  2  3  1  0
  3  4  1  0
  3 16  2  3
  4  5  2  3
  5  6  1  0
  5 11  1  0
  6  7  2  0
  6  8  1  0
  8  9  2  0
  9 10  1  0
 10 11  2  0
 11 12  1  0
 12 13  1  0
 13 14  1  1
 13 15  1  0
 16 17  1  0
 16 20  1  0
 17 18  1  0
 18 19  1  0
 19 20  1  0
M  END
