
     RDKit          3D

 31 32  0  0  0  0  0  0  0  0999 V2000
   -0.9870    1.2790   -0.1180 N   0  0  0  0  0  0  0  0  0  0  0  0
   -1.7020    0.2940    0.3460 C   0  0  0  0  0  0  0  0  0  0  0  0
   -1.0270   -0.9080    0.6890 N   0  0  0  0  0  0  0  0  0  0  0  0
    0.1460   -0.9100    1.5290 C   0  0  0  0  0  0  0  0  0  0  0  0
    1.3260   -0.2910    0.8860 C   0  0  0  0  0  0  0  0  0  0  0  0
    1.9340    0.7490    1.3310 N   0  0  0  0  0  0  0  0  0  0  0  0
    3.0110    1.0860    0.5000 N   0  0  0  0  0  0  0  0  0  0  0  0
    3.8990    2.2000    0.7030 C   0  0  1  0  0  0  0  0  0  0  0  0
    5.3620    1.9710    0.5730 C   0  0  0  0  0  0  0  0  0  0  0  0
    5.4150    3.2900   -0.0010 O   0  0  0  0  0  0  0  0  0  0  0  0
    4.1500    3.0330   -0.4940 C   0  0  0  0  0  0  0  0  0  0  0  0
    3.5260    3.3750   -1.5140 O   0  0  0  0  0  0  0  0  0  0  0  0
    3.0580    0.1450   -0.5640 C   0  0  0  0  0  0  0  0  0  0  0  0
    3.9310    0.1970   -1.4650 O   0  0  0  0  0  0  0  0  0  0  0  0
    1.9460   -0.8020   -0.3640 C   0  0  1  0  0  0  0  0  0  0  0  0
    2.4910   -2.0480   -0.0630 O   0  0  0  0  0  0  0  0  0  0  0  0
    1.9700   -2.9870   -0.8220 O   0  0  0  0  0  0  0  0  0  0  0  0
    3.2570   -3.8020   -1.6490 P   0  0  0  0  0  0  0  0  0  0  0  0
    4.5940   -4.0110   -0.8890 O   0  0  0  0  0  0  0  0  0  0  0  0
   -1.5230   -2.1590    0.1870 C   0  0  0  0  0  0  0  0  0  0  0  0
   -1.5050   -2.3310   -1.6380 P   0  0  0  0  0  0  0  0  0  0  0  0
   -1.2010   -0.8730   -2.4860 O   0  0  0  0  0  0  0  0  0  0  0  0
   -2.8960   -3.1810   -2.2340 O   0  0  0  0  0  0  0  0  0  0  0  0
   -3.1040    0.4870    0.4950 N   0  0  0  0  0  0  0  0  0  0  0  0
   -3.5740    1.4810    1.3720 C   0  0  0  0  0  0  0  0  0  0  0  0
   -4.7970    1.6710    1.5160 O   0  0  0  0  0  0  0  0  0  0  0  0
   -2.6830    2.2560    2.0850 O   0  0  0  0  0  0  0  0  0  0  0  0
   -3.0510    3.2190    2.9400 O   0  0  0  0  0  0  0  0  0  0  0  0
   -4.3190   -0.4900   -0.4060 P   0  0  0  0  0  0  0  0  0  0  0  0
   -4.2040   -0.1940   -2.1140 O   0  0  0  0  0  0  0  0  0  0  0  0
   -5.9260   -0.1420    0.1620 O   0  0  0  0  0  0  0  0  0  0  0  0
  1  2  2  0
  2  3  1  0
  2 24  1  0
  3  4  1  0
  3 20  1  0
  4  5  1  0
  5  6  2  0
  5 15  1  0
  6  7  1  0
  8  7  1  6
  7 13  1  0
  8  9  1  0
  8 11  1  0
  9 10  1  0
 10 11  1  0
 11 12  2  0
 13 14  2  0
 13 15  1  0
 15 16  1  1
 16 17  1  0
 17 18  1  0
 18 19  2  0
 20 21  1  0
 21 22  1  0
 21 23  1  0
 24 25  1  0
 24 29  1  0
 25 26  2  0
 25 27  1  0
 27 28  1  0
 29 30  1  0
 29 31  1  0
M  END
