
     RDKit          3D

 30 31  0  0  0  0  0  0  0  0999 V2000
   -5.9500    2.9230   -3.7680 O   0  0  0  0  0  0  0  0  0  0  0  0
   -6.3690    1.7140   -2.8900 P   0  0  0  0  0  0  0  0  0  0  0  0
   -5.2430    1.1010   -1.6250 N   0  0  0  0  0  0  0  0  0  0  0  0
   -5.1820   -0.2910   -1.3520 C   0  0  0  0  0  0  0  0  0  0  0  0
   -5.9190   -1.0800   -2.0010 O   0  0  0  0  0  0  0  0  0  0  0  0
   -4.2350   -0.8090   -0.2880 C   0  0  1  0  0  0  0  0  0  0  0  0
   -3.5540    0.2700    0.2580 O   0  0  0  0  0  0  0  0  0  0  0  0
   -2.2780    0.6410    0.1210 N   0  0  0  0  0  0  0  0  0  0  0  0
   -1.3150    0.0820    0.7320 C   0  0  0  0  0  0  0  0  0  0  0  0
   -1.4660   -0.9430    1.5840 N   0  0  0  0  0  0  0  0  0  0  0  0
   -0.4010   -1.5070    2.2140 C   0  0  0  0  0  0  0  0  0  0  0  0
   -0.6070   -2.4600    2.9960 O   0  0  0  0  0  0  0  0  0  0  0  0
    0.8490   -1.0600    2.0080 N   0  0  0  0  0  0  0  0  0  0  0  0
    1.0740   -0.0390    1.1700 C   0  0  0  0  0  0  0  0  0  0  0  0
   -0.0160    0.5200    0.5420 C   0  0  0  0  0  0  0  0  0  0  0  0
    0.4920    1.5300   -0.2480 O   0  0  0  0  0  0  0  0  0  0  0  0
    1.8160    1.3620   -0.3820 O   0  0  0  0  0  0  0  0  0  0  0  0
    2.2210    0.6820    0.7180 N   0  0  0  0  0  0  0  0  0  0  0  0
    3.4990    0.6650    1.3190 C   0  0  0  0  0  0  0  0  0  0  0  0
    3.6860   -0.0310    2.3400 O   0  0  0  0  0  0  0  0  0  0  0  0
    4.6330    1.4470    0.7780 C   0  0  1  0  0  0  0  0  0  0  0  0
    4.8930    0.9700   -0.6510 C   0  0  0  0  0  0  0  0  0  0  0  0
    5.3070   -0.8350   -0.6100 P   0  0  0  0  0  0  0  0  0  0  0  0
    6.9930   -1.1280   -0.7860 O   0  0  0  0  0  0  0  0  0  0  0  0
    4.4250   -1.6450   -1.8690 O   0  0  0  0  0  0  0  0  0  0  0  0
    4.2550    3.2690    0.7680 P   0  0  0  0  0  0  0  0  0  0  0  0
    3.0910    3.7950   -0.1060 O   0  0  0  0  0  0  0  0  0  0  0  0
   -5.0790   -1.4430    0.7440 C   0  0  0  0  0  0  0  0  0  0  0  0
   -5.1000   -0.9630    1.9020 O   0  0  0  0  0  0  0  0  0  0  0  0
   -5.8610   -2.5660    0.4760 O   0  0  0  0  0  0  0  0  0  0  0  0
  1  2  2  0
  2  3  1  0
  3  4  1  0
  4  5  2  0
  4  6  1  0
  6  7  1  1
  6 28  1  0
  7  8  1  0
  8  9  2  3
  9 10  1  0
  9 15  1  0
 10 11  1  0
 11 12  2  0
 11 13  1  0
 13 14  1  0
 14 15  2  0
 14 18  1  0
 15 16  1  0
 16 17  1  0
 17 18  1  0
 18 19  1  0
 19 20  2  0
 19 21  1  0
 21 22  1  6
 21 26  1  0
 22 23  1  0
 23 24  1  0
 23 25  1  0
 26 27  2  0
 28 29  2  0
 28 30  1  0
M  END
