
     RDKit          3D

 31 33  0  0  0  0  0  0  0  0999 V2000
    2.8240   -4.4110   -1.2710 O   0  0  0  0  0  0  0  0  0  0  0  0
    2.8240   -3.2640   -0.7500 C   0  0  0  0  0  0  0  0  0  0  0  0
    1.7460   -2.3740   -0.8610 O   0  0  0  0  0  0  0  0  0  0  0  0
    2.0610   -1.0160   -0.8370 C   0  0  1  0  0  0  0  0  0  0  0  0
    2.6990   -0.5330   -2.0690 C   0  0  0  0  0  0  0  0  0  0  0  0
    2.9480   -1.2370   -3.0750 O   0  0  0  0  0  0  0  0  0  0  0  0
    3.0600    0.8230   -2.1330 O   0  0  0  0  0  0  0  0  0  0  0  0
    0.9490   -0.1100   -0.4900 C   0  0  0  0  0  0  0  0  0  0  0  0
   -0.3050   -0.2520   -0.6210 N   0  0  0  0  0  0  0  0  0  0  0  0
   -1.1420    0.7760   -0.2020 O   0  0  0  0  0  0  0  0  0  0  0  0
   -1.5170    1.0210    1.4970 P   0  0  0  0  0  0  0  0  0  0  0  0
   -0.9780   -0.3620    2.3620 O   0  0  0  0  0  0  0  0  0  0  0  0
   -3.2580    1.1290    1.7220 O   0  0  0  0  0  0  0  0  0  0  0  0
   -3.9640    0.9750    0.1730 P   0  0  0  0  0  0  0  0  0  0  0  0
   -3.3380   -0.4930   -0.5540 O   0  0  0  0  0  0  0  0  0  0  0  0
   -5.7310    0.9120    0.1610 N   0  0  0  0  0  0  0  0  0  0  0  0
   -6.6090   -0.2340    0.4070 C   0  0  0  0  0  0  0  0  0  0  0  0
   -7.6190    0.0400   -0.7260 C   0  0  0  0  0  0  0  0  0  0  0  0
   -7.8740    1.4140   -0.5170 O   0  0  0  0  0  0  0  0  0  0  0  0
   -6.6410    1.9670   -0.1060 C   0  0  0  0  0  0  0  0  0  0  0  0
   -6.3650    3.1980    0.0100 O   0  0  0  0  0  0  0  0  0  0  0  0
    1.6010    1.0440    0.0630 N   0  0  0  0  0  0  0  0  0  0  0  0
    2.7820    0.6900    0.5140 C   0  0  0  0  0  0  0  0  0  0  0  0
    3.6840    1.5930    1.1240 N   0  0  0  0  0  0  0  0  0  0  0  0
    3.6260    3.3830    0.8140 P   0  0  0  0  0  0  0  0  0  0  0  0
    2.6230    3.6900   -0.5830 O   0  0  0  0  0  0  0  0  0  0  0  0
    5.2350    3.9100    0.4050 O   0  0  0  0  0  0  0  0  0  0  0  0
    2.9670   -0.7030    0.2890 N   0  0  0  0  0  0  0  0  0  0  0  0
    3.7880   -1.6810    0.9200 C   0  0  0  0  0  0  0  0  0  0  0  0
    4.0410   -2.8770    0.0110 C   0  0  1  0  0  0  0  0  0  0  0  0
    4.3910   -3.9700    0.8000 O   0  0  0  0  0  0  0  0  0  0  0  0
  1  2  2  0
  2  3  1  0
  2 30  1  0
  3  4  1  0
  4  5  1  6
  4  8  1  0
  4 28  1  0
  5  6  2  0
  5  7  1  0
  8  9  2  3
  8 22  1  0
  9 10  1  0
 10 11  1  0
 11 12  1  0
 11 13  1  0
 13 14  1  0
 14 15  1  0
 14 16  1  0
 16 17  1  0
 16 20  1  0
 17 18  1  0
 18 19  1  0
 19 20  1  0
 20 21  2  0
 22 23  2  0
 23 24  1  0
 23 28  1  0
 24 25  1  0
 25 26  1  0
 25 27  1  0
 28 29  1  0
 29 30  1  0
 30 31  1  1
M  END
