
     RDKit          3D

 12 12  0  0  0  0  0  0  0  0999 V2000
    2.4650   -1.3610    0.6760 O   0  0  0  0  0  0  0  0  0  0  0  0
    1.5940   -1.1920   -0.3820 C   0  0  0  0  0  0  0  0  0  0  0  0
    0.8960    0.1570   -0.1700 C   0  0  2  0  0  0  0  0  0  0  0  0
    1.9400    1.1100   -0.1630 O   0  0  0  0  0  0  0  0  0  0  0  0
    0.1720    0.1200    1.1230 C   0  0  0  0  0  0  0  0  0  0  0  0
   -1.2730   -0.2740    1.0200 C   0  0  2  0  0  0  0  0  0  0  0  0
   -1.4190   -1.6570    1.1180 O   0  0  0  0  0  0  0  0  0  0  0  0
   -1.9260    0.1650   -0.2560 C   0  0  1  0  0  0  0  0  0  0  0  0
   -2.1450    1.5530   -0.1580 O   0  0  0  0  0  0  0  0  0  0  0  0
   -1.1720   -0.1690   -1.3640 O   0  0  0  0  0  0  0  0  0  0  0  0
    0.0630    0.4200   -1.3730 C   0  0  1  0  0  0  0  0  0  0  0  0
   -0.0860    1.7960   -1.6370 O   0  0  0  0  0  0  0  0  0  0  0  0
  1  2  1  0
  2  3  1  0
  3  4  1  1
  3  5  1  0
  3 11  1  0
  5  6  1  0
  6  7  1  6
  6  8  1  0
  8  9  1  1
  8 10  1  0
 10 11  1  0
 11 12  1  1
M  END
