
     RDKit          3D

 20 21  0  0  0  0  0  0  0  0999 V2000
   -5.5710    1.4030    0.0350 C   0  0  0  0  0  0  0  0  0  0  0  0
   -4.8320    0.2360   -0.4680 C   0  0  0  0  0  0  0  0  0  0  0  0
   -3.4700    0.0800   -0.3890 C   0  0  0  0  0  0  0  0  0  0  0  0
   -2.5900    1.0490    0.2020 C   0  0  0  0  0  0  0  0  0  0  0  0
   -1.3800    1.2660    0.4520 C   0  0  0  0  0  0  0  0  0  0  0  0
   -0.1500    0.5970    0.2580 C   0  0  0  0  0  0  0  0  0  0  0  0
   -0.0240   -0.5030   -0.2820 O   0  0  0  0  0  0  0  0  0  0  0  0
    1.0940    1.1820    0.6980 N   0  0  0  0  0  0  0  0  0  0  0  0
    2.3390    0.5310    0.5140 C   0  0  0  0  0  0  0  0  0  0  0  0
    2.6450   -0.6640   -0.0530 C   0  0  0  0  0  0  0  0  0  0  0  0
    4.0120   -0.8450    0.0150 C   0  0  0  0  0  0  0  0  0  0  0  0
    4.8410   -1.9720   -0.4570 C   0  0  0  0  0  0  0  0  0  0  0  0
    4.5010    0.2780    0.6380 C   0  0  0  0  0  0  0  0  0  0  0  0
    5.9560    0.5550    0.9470 C   0  0  0  0  0  0  0  0  0  0  0  0
    3.5050    1.0470    0.9100 O   0  0  0  0  0  0  0  0  0  0  0  0
   -3.1770   -1.1870   -0.9940 C   0  0  0  0  0  0  0  0  0  0  0  0
   -2.1200   -1.7860   -1.1740 O   0  0  0  0  0  0  0  0  0  0  0  0
   -4.4250   -1.7900   -1.4430 N   0  0  0  0  0  0  0  0  0  0  0  0
   -5.4420   -0.8960   -1.1100 C   0  0  0  0  0  0  0  0  0  0  0  0
   -6.6690   -1.0440   -1.3270 O   0  0  0  0  0  0  0  0  0  0  0  0
  1  2  1  0
  2  3  2  0
  2 19  1  0
  3  4  1  0
  3 16  1  0
  4  5  2  3
  5  6  1  0
  6  7  2  0
  6  8  1  0
  8  9  1  0
  9 10  2  0
  9 15  1  0
 10 11  1  0
 11 12  1  0
 11 13  2  0
 13 14  1  0
 13 15  1  0
 16 17  2  0
 16 18  1  0
 18 19  1  0
 19 20  2  0
M  END
