
     RDKit          3D

 20 21  0  0  0  0  0  0  0  0999 V2000
   -0.7810    2.2080    3.1680 C   0  0  0  0  0  0  0  0  0  0  0  0
   -1.0730    1.6020    1.8480 C   0  0  0  0  0  0  0  0  0  0  0  0
   -1.3940    2.3790    0.9120 O   0  0  0  0  0  0  0  0  0  0  0  0
   -1.0070    0.2030    1.6050 N   0  0  0  0  0  0  0  0  0  0  0  0
   -1.2910   -0.3570    0.3320 C   0  0  0  0  0  0  0  0  0  0  0  0
   -2.5900   -0.7320    0.0390 C   0  0  0  0  0  0  0  0  0  0  0  0
   -3.6630   -0.5480    1.0490 C   0  0  0  0  0  0  0  0  0  0  0  0
   -2.8530   -1.2760   -1.2030 C   0  0  0  0  0  0  0  0  0  0  0  0
   -1.8570   -1.4400   -2.1210 C   0  0  0  0  0  0  0  0  0  0  0  0
   -2.1000   -2.0140   -3.4520 C   0  0  0  0  0  0  0  0  0  0  0  0
   -0.5630   -1.0490   -1.7860 C   0  0  0  0  0  0  0  0  0  0  0  0
   -0.2370   -0.5070   -0.5790 C   0  0  0  0  0  0  0  0  0  0  0  0
    1.0250   -0.0820   -0.1390 N   0  0  0  0  0  0  0  0  0  0  0  0
    2.1800   -0.1710   -0.9490 C   0  0  0  0  0  0  0  0  0  0  0  0
    2.1900   -0.6310   -2.1150 O   0  0  0  0  0  0  0  0  0  0  0  0
    3.4630    0.3120   -0.3750 C   0  0  0  0  0  0  0  0  0  0  0  0
    4.6230    0.2950   -1.0030 C   0  0  0  0  0  0  0  0  0  0  0  0
    5.6220    0.8130   -0.1950 O   0  0  0  0  0  0  0  0  0  0  0  0
    5.0330    1.2080    1.0170 C   0  0  0  0  0  0  0  0  0  0  0  0
    3.6880    0.8450    0.8610 O   0  0  0  0  0  0  0  0  0  0  0  0
  1  2  1  0
  2  3  2  0
  2  4  1  0
  4  5  1  0
  5  6  2  0
  5 12  1  0
  6  7  1  0
  6  8  1  0
  8  9  2  0
  9 10  1  0
  9 11  1  0
 11 12  2  0
 12 13  1  0
 13 14  1  0
 14 15  2  0
 14 16  1  0
 16 17  2  0
 16 20  1  0
 17 18  1  0
 18 19  1  0
 19 20  1  0
M  END
