
     RDKit          3D

 20 21  0  0  0  0  0  0  0  0999 V2000
   -4.9140   -0.2290    0.6220 C   0  0  0  0  0  0  0  0  0  0  0  0
   -3.5600    0.3070    0.1900 C   0  0  2  0  0  0  0  0  0  0  0  0
   -3.3390    1.7050    0.6710 C   0  0  0  0  0  0  0  0  0  0  0  0
   -3.4780    0.2780   -1.3100 C   0  0  0  0  0  0  0  0  0  0  0  0
   -2.5200   -0.5800    0.8020 C   0  0  0  0  0  0  0  0  0  0  0  0
   -1.1580   -0.0780    0.3950 C   0  0  0  0  0  0  0  0  0  0  0  0
   -1.1420    0.9330   -0.3400 O   0  0  0  0  0  0  0  0  0  0  0  0
    0.0010   -0.7470    0.8450 N   0  0  0  0  0  0  0  0  0  0  0  0
    1.2970   -0.3390    0.5170 C   0  0  0  0  0  0  0  0  0  0  0  0
    1.6070    0.8900   -0.0040 C   0  0  0  0  0  0  0  0  0  0  0  0
    2.9280    1.1770   -0.3100 C   0  0  0  0  0  0  0  0  0  0  0  0
    3.9360    0.2680   -0.1070 C   0  0  0  0  0  0  0  0  0  0  0  0
    5.2340    0.5140   -0.3940 N   0  0  0  0  0  0  0  0  0  0  0  0
    6.2130   -0.3870   -0.1880 C   0  0  0  0  0  0  0  0  0  0  0  0
    7.4120   -0.1320   -0.4640 O   0  0  0  0  0  0  0  0  0  0  0  0
    5.8980   -1.5750    0.3190 O   0  0  0  0  0  0  0  0  0  0  0  0
    4.6720   -1.8950    0.6240 C   0  0  0  0  0  0  0  0  0  0  0  0
    4.4280   -3.0270    1.0990 O   0  0  0  0  0  0  0  0  0  0  0  0
    3.6540   -0.9860    0.4210 C   0  0  0  0  0  0  0  0  0  0  0  0
    2.3510   -1.2460    0.7140 C   0  0  0  0  0  0  0  0  0  0  0  0
  2  1  1  6
  2  3  1  0
  2  4  1  0
  2  5  1  0
  5  6  1  0
  6  7  2  0
  6  8  1  0
  8  9  1  0
  9 10  2  0
  9 20  1  0
 10 11  1  0
 11 12  2  0
 12 13  1  0
 12 19  1  0
 13 14  1  0
 14 15  2  0
 14 16  1  0
 16 17  1  0
 17 18  2  0
 17 19  1  0
 19 20  2  0
M  END
