
     RDKit          3D

 23 24  0  0  0  0  0  0  0  0999 V2000
    3.7510    0.4370    2.0250 C   0  0  0  0  0  0  0  0  0  0  0  0
    3.5430   -0.1230    0.6090 C   0  0  1  0  0  0  0  0  0  0  0  0
    2.1340   -0.4950    0.5060 C   0  0  0  0  0  0  0  0  0  0  0  0
    1.3420   -0.2350    1.4740 O   0  0  0  0  0  0  0  0  0  0  0  0
    1.6490   -1.1290   -0.6590 N   0  0  0  0  0  0  0  0  0  0  0  0
    0.2920   -1.5230   -0.7780 C   0  0  0  0  0  0  0  0  0  0  0  0
   -0.6870   -0.4300   -0.4800 C   0  0  0  0  0  0  0  0  0  0  0  0
   -0.3500    0.7070   -0.1050 O   0  0  0  0  0  0  0  0  0  0  0  0
   -2.0500   -0.7430   -0.6320 N   0  0  0  0  0  0  0  0  0  0  0  0
   -3.1550    0.0640   -0.3160 C   0  0  0  0  0  0  0  0  0  0  0  0
   -4.1070   -0.5780    0.4030 C   0  0  0  0  0  0  0  0  0  0  0  0
   -5.3670    0.0820    0.8640 C   0  0  2  0  0  0  0  0  0  0  0  0
   -6.4130   -0.5660    0.1790 O   0  0  0  0  0  0  0  0  0  0  0  0
   -5.4150    1.4350    0.5490 O   0  0  0  0  0  0  0  0  0  0  0  0
   -4.4570    2.1020   -0.1840 C   0  0  0  0  0  0  0  0  0  0  0  0
   -4.6840    3.4360   -0.4570 O   0  0  0  0  0  0  0  0  0  0  0  0
   -3.3710    1.4620   -0.6050 C   0  0  0  0  0  0  0  0  0  0  0  0
    3.8960    0.9480   -0.3220 N   0  0  0  0  0  0  0  0  0  0  0  0
    4.9460    0.4670   -1.1940 C   0  0  0  0  0  0  0  0  0  0  0  0
    5.4680    1.1040   -2.1800 O   0  0  0  0  0  0  0  0  0  0  0  0
    5.2770   -0.8400   -0.7370 N   0  0  0  0  0  0  0  0  0  0  0  0
    4.4580   -1.1800    0.3810 C   0  0  0  0  0  0  0  0  0  0  0  0
    4.5520   -2.2600    1.0460 O   0  0  0  0  0  0  0  0  0  0  0  0
  2  1  1  1
  2  3  1  0
  2 18  1  0
  2 22  1  0
  3  4  2  0
  3  5  1  0
  5  6  1  0
  6  7  1  0
  7  8  2  0
  7  9  1  0
  9 10  1  0
 10 11  2  0
 10 17  1  0
 11 12  1  0
 12 13  1  6
 12 14  1  0
 14 15  1  0
 15 16  1  0
 15 17  2  0
 18 19  1  0
 19 20  2  0
 19 21  1  0
 21 22  1  0
 22 23  2  0
M  END
