
     RDKit          3D

 23 23  0  0  0  0  0  0  0  0999 V2000
    0.1090   -0.5640   -1.7990 C   0  0  0  0  0  0  0  0  0  0  0  0
   -0.2300   -0.1890   -0.4330 C   0  0  0  0  0  0  0  0  0  0  0  0
    0.7290    0.2080    0.4350 C   0  0  0  0  0  0  0  0  0  0  0  0
    2.0170    0.2540    0.0510 N   0  0  0  0  0  0  0  0  0  0  0  0
    3.2420    0.6340    0.7660 C   0  0  0  0  0  0  0  0  0  0  0  0
    3.1100    0.9650    1.9120 O   0  0  0  0  0  0  0  0  0  0  0  0
    4.3090    0.5020   -0.1100 N   0  0  0  0  0  0  0  0  0  0  0  0
    5.5660    0.7830    1.0360 C   0  0  0  0  0  0  0  0  0  0  0  0
    5.1890    0.9600    2.1210 O   0  0  0  0  0  0  0  0  0  0  0  0
    6.8840    0.7410    0.4230 C   0  0  0  0  0  0  0  0  0  0  0  0
    7.8810    0.6260    1.4210 O   0  0  0  0  0  0  0  0  0  0  0  0
    0.2900    0.6540    1.7720 C   0  0  0  0  0  0  0  0  0  0  0  0
    1.0710    1.0410    2.6700 O   0  0  0  0  0  0  0  0  0  0  0  0
   -1.0990    0.6370    2.0470 N   0  0  0  0  0  0  0  0  0  0  0  0
   -1.9430    0.7210    0.9940 O   0  0  0  0  0  0  0  0  0  0  0  0
   -1.5990   -0.2870    0.0900 C   0  0  2  0  0  0  0  0  0  0  0  0
   -1.6770   -1.6040    0.8600 C   0  0  0  0  0  0  0  0  0  0  0  0
   -2.5970   -0.3330   -0.9340 N   0  0  0  0  0  0  0  0  0  0  0  0
   -3.9370   -0.4820   -0.5050 C   0  0  0  0  0  0  0  0  0  0  0  0
   -4.2570   -0.5630    0.7100 O   0  0  0  0  0  0  0  0  0  0  0  0
   -5.0200   -0.5470   -1.5140 C   0  0  1  0  0  0  0  0  0  0  0  0
   -5.8890    0.6870   -1.3360 C   0  0  0  0  0  0  0  0  0  0  0  0
   -4.5310   -0.5520   -2.8140 O   0  0  0  0  0  0  0  0  0  0  0  0
  1  2  1  0
  2  3  2  0
  2 16  1  0
  3  4  1  0
  3 12  1  0
  4  5  1  0
  5  6  2  0
  5  7  1  0
  7  8  1  0
  8  9  2  0
  8 10  1  0
 10 11  1  0
 12 13  2  0
 12 14  1  0
 14 15  1  0
 15 16  1  0
 16 17  1  1
 16 18  1  0
 18 19  1  0
 19 20  2  0
 19 21  1  0
 21 22  1  6
 21 23  1  0
M  END
