
     RDKit          3D

 13 15  0  0  0  0  0  0  0  0999 V2000
   -0.1760    2.0900    0.2510 C   0  0  0  0  0  0  0  0  0  0  0  0
   -0.6800    0.7130    0.0860 C   0  0  0  0  0  0  0  0  0  0  0  0
   -2.0400    0.5620    0.0570 C   0  0  0  0  0  0  0  0  0  0  0  0
   -2.6810   -0.6390   -0.0900 C   0  0  0  0  0  0  0  0  0  0  0  0
   -1.8730   -1.7370   -0.2140 C   0  0  0  0  0  0  0  0  0  0  0  0
   -0.4990   -1.5780   -0.1840 C   0  0  0  0  0  0  0  0  0  0  0  0
    0.7910   -2.7980   -0.3170 S   0  0  0  0  0  0  0  0  0  0  0  0
    2.1210   -1.5910   -0.1630 C   0  0  0  0  0  0  0  0  0  0  0  0
    3.4780   -1.4410   -0.1340 N   0  0  0  0  0  0  0  0  0  0  0  0
    3.7180   -0.1650    0.0190 N   0  0  0  0  0  0  0  0  0  0  0  0
    2.5560    0.4580    0.0830 C   0  0  0  0  0  0  0  0  0  0  0  0
    1.4980   -0.4140   -0.0290 N   0  0  0  0  0  0  0  0  0  0  0  0
    0.1730   -0.4150   -0.0410 C   0  0  0  0  0  0  0  0  0  0  0  0
  1  2  1  0
  2  3  2  0
  2 13  1  0
  3  4  1  0
  4  5  2  0
  5  6  1  0
  6  7  1  0
  6 13  2  0
  7  8  1  0
  8  9  2  0
  8 12  1  0
  9 10  1  0
 10 11  2  0
 11 12  1  0
 12 13  1  0
M  END
