
     RDKit          3D

 13 14  0  0  0  0  0  0  0  0999 V2000
    4.7260    0.3620    0.3900 Br  0  0  0  0  0  0  0  0  0  0  0  0
    3.0420    1.2410    0.2710 C   0  0  0  0  0  0  0  0  0  0  0  0
    1.9790    0.5420   -0.0830 C   0  0  0  0  0  0  0  0  0  0  0  0
    2.2320   -0.8960   -0.3560 C   0  0  0  0  0  0  0  0  0  0  0  0
    1.6280   -1.6060    0.6960 O   0  0  0  0  0  0  0  0  0  0  0  0
    0.2820   -1.6880    0.3850 C   0  0  0  0  0  0  0  0  0  0  0  0
   -0.5180   -0.5050    0.8280 C   0  0  2  0  0  0  0  0  0  0  0  0
   -1.9830   -0.9760    0.8320 C   0  0  0  0  0  0  0  0  0  0  0  0
   -2.8240    0.1070    0.9150 O   0  0  0  0  0  0  0  0  0  0  0  0
   -2.8490    0.7810   -0.2980 C   0  0  0  0  0  0  0  0  0  0  0  0
   -1.4720    0.7950   -0.9640 C   0  0  0  0  0  0  0  0  0  0  0  0
   -0.4600    0.6280    0.0080 N   0  0  0  0  0  0  0  0  0  0  0  0
    0.7280    1.3320   -0.1410 C   0  0  0  0  0  0  0  0  0  0  0  0
  1  2  1  0
  2  3  2  3
  3  4  1  0
  3 13  1  0
  4  5  1  0
  5  6  1  0
  7  6  1  6
  7  8  1  0
  7 12  1  0
  8  9  1  0
  9 10  1  0
 10 11  1  0
 11 12  1  0
 12 13  1  0
M  END
