
     RDKit          3D

 17 18  0  0  0  0  0  0  0  0999 V2000
    4.9750    2.2610   -0.4220 C   0  0  0  0  0  0  0  0  0  0  0  0
    3.6740    1.7450    0.1780 C   0  0  0  0  0  0  0  0  0  0  0  0
    3.5060    0.3910   -0.2850 N   0  0  0  0  0  0  0  0  0  0  0  0
    2.6330   -0.3890    0.5930 C   0  0  2  0  0  0  0  0  0  0  0  0
    2.8690   -1.8580    0.4490 C   0  0  0  0  0  0  0  0  0  0  0  0
    1.7240   -2.5700   -0.2380 C   0  0  0  0  0  0  0  0  0  0  0  0
    0.4010   -2.2890    0.4850 C   0  0  0  0  0  0  0  0  0  0  0  0
    0.3360   -0.9530    0.9560 N   0  0  2  0  0  0  0  0  0  0  0  0
   -0.9530   -0.3900    1.1320 C   0  0  0  0  0  0  0  0  0  0  0  0
   -1.9620   -0.7100    0.1000 C   0  0  2  0  0  0  0  0  0  0  0  0
   -1.6120   -0.2740   -1.2920 C   0  0  0  0  0  0  0  0  0  0  0  0
   -2.9720   -0.3810   -1.9550 C   0  0  0  0  0  0  0  0  0  0  0  0
   -3.9550   -0.1780   -0.9440 N   0  0  0  0  0  0  0  0  0  0  0  0
   -3.2650    0.0150    0.3170 C   0  0  2  0  0  0  0  0  0  0  0  0
   -3.1110    1.4720    0.6280 C   0  0  0  0  0  0  0  0  0  0  0  0
   -4.4290    2.1720    0.8350 C   0  0  0  0  0  0  0  0  0  0  0  0
    1.2150   -0.0990    0.1470 C   0  0  0  0  0  0  0  0  0  0  0  0
  1  2  1  0
  2  3  1  0
  4  3  1  6
  4  5  1  0
  4 17  1  0
  5  6  1  0
  6  7  1  0
  7  8  1  0
  8  9  1  6
  8 17  1  0
 10  9  1  1
 10 11  1  0
 10 14  1  0
 11 12  1  0
 12 13  1  0
 13 14  1  0
 14 15  1  6
 15 16  1  0
M  CHG  3   3   1   8   1  13   1
M  END
