
     RDKit          3D

 17 18  0  0  0  0  0  0  0  0999 V2000
   -5.4110   -0.3420    1.3990 C   0  0  0  0  0  0  0  0  0  0  0  0
   -4.2350   -0.1920    0.4960 C   0  0  1  0  0  0  0  0  0  0  0  0
   -4.1750    1.1660   -0.1710 C   0  0  0  0  0  0  0  0  0  0  0  0
   -3.2110    1.0510   -1.3260 C   0  0  2  0  0  0  0  0  0  0  0  0
   -3.5750   -0.0140   -2.2430 N   0  0  0  0  0  0  0  0  0  0  0  0
   -1.8390    0.7820   -0.7550 C   0  0  0  0  0  0  0  0  0  0  0  0
   -1.7980   -0.3810    0.1810 C   0  0  1  0  0  0  0  0  0  0  0  0
   -0.5000   -0.2690    0.9940 C   0  0  0  0  0  0  0  0  0  0  0  0
    0.6720   -0.3040    0.0300 C   0  0  0  0  0  0  0  0  0  0  0  0
    1.9030   -0.1970    0.8060 N   0  0  0  0  0  0  0  0  0  0  0  0
    2.9770   -0.6870   -0.0700 C   0  0  1  0  0  0  0  0  0  0  0  0
    3.4060    0.3830   -1.0080 C   0  0  0  0  0  0  0  0  0  0  0  0
    4.6190    1.1430   -0.6530 C   0  0  0  0  0  0  0  0  0  0  0  0
    5.5210    0.5200    0.2520 N   0  0  0  0  0  0  0  0  0  0  0  0
    5.3940   -0.9270    0.1690 C   0  0  0  0  0  0  0  0  0  0  0  0
    4.0500   -1.2310    0.8150 C   0  0  0  0  0  0  0  0  0  0  0  0
   -2.9200   -0.4370    1.1590 C   0  0  0  0  0  0  0  0  0  0  0  0
  2  1  1  1
  2  3  1  0
  2 17  1  0
  3  4  1  0
  4  5  1  6
  4  6  1  0
  6  7  1  0
  7  8  1  1
  7 17  1  0
  8  9  1  0
  9 10  1  0
 11 10  1  1
 11 12  1  0
 11 16  1  0
 12 13  1  0
 13 14  1  0
 14 15  1  0
 15 16  1  0
M  CHG  3   5   1  10   1  14   1
M  END
