
     RDKit          3D

 17 18  0  0  0  0  0  0  0  0999 V2000
    6.3550   -1.0560    0.3610 C   0  0  0  0  0  0  0  0  0  0  0  0
    5.1410   -0.1870    0.2650 C   0  0  0  0  0  0  0  0  0  0  0  0
    4.0130   -0.7610   -0.2750 C   0  0  0  0  0  0  0  0  0  0  0  0
    2.8740    0.0070   -0.3810 C   0  0  0  0  0  0  0  0  0  0  0  0
    1.6100   -0.5550   -0.9590 C   0  0  0  0  0  0  0  0  0  0  0  0
    0.8440   -1.1260    0.1050 N   0  0  0  0  0  0  0  0  0  0  0  0
   -0.5810   -1.2600   -0.2440 C   0  0  0  0  0  0  0  0  0  0  0  0
   -1.1800    0.1140   -0.0540 C   0  0  0  0  0  0  0  0  0  0  0  0
   -2.6590    0.1390   -0.3790 C   0  0  2  0  0  0  0  0  0  0  0  0
   -3.1490    1.5280   -0.1610 C   0  0  0  0  0  0  0  0  0  0  0  0
   -4.5360    1.6150    0.4060 C   0  0  0  0  0  0  0  0  0  0  0  0
   -5.3080    0.4430   -0.1800 C   0  0  0  0  0  0  0  0  0  0  0  0
   -4.7350   -0.8090    0.4170 C   0  0  0  0  0  0  0  0  0  0  0  0
   -3.3040   -0.8660    0.4000 N   0  0  0  0  0  0  0  0  0  0  0  0
    2.9180    1.3130    0.0580 C   0  0  0  0  0  0  0  0  0  0  0  0
    4.0650    1.8620    0.5960 C   0  0  0  0  0  0  0  0  0  0  0  0
    5.1600    1.0900    0.6860 N   0  0  0  0  0  0  0  0  0  0  0  0
  1  2  1  0
  2  3  2  0
  2 17  1  0
  3  4  1  0
  4  5  1  0
  4 15  2  0
  5  6  1  0
  6  7  1  0
  7  8  1  0
  9  8  1  1
  9 10  1  0
  9 14  1  0
 10 11  1  0
 11 12  1  0
 12 13  1  0
 13 14  1  0
 15 16  1  0
 16 17  2  0
M  CHG  3   6   1  14   1  17   1
M  END
