
     RDKit          3D

 17 18  0  0  0  0  0  0  0  0999 V2000
    0.1500    3.5060    0.4090 C   0  0  0  0  0  0  0  0  0  0  0  0
    0.9790    2.4840   -0.3010 C   0  0  0  0  0  0  0  0  0  0  0  0
    1.1270    1.1820    0.5040 C   0  0  1  0  0  0  0  0  0  0  0  0
   -0.1530    0.5210    0.8000 C   0  0  0  0  0  0  0  0  0  0  0  0
   -0.6700   -0.4150   -0.1580 N   0  0  2  0  0  0  0  0  0  0  0  0
   -2.0730   -0.5830    0.0840 C   0  0  1  0  0  0  0  0  0  0  0  0
   -2.9300    0.0860   -0.9890 C   0  0  0  0  0  0  0  0  0  0  0  0
   -2.6910    1.5750   -1.0740 C   0  0  0  0  0  0  0  0  0  0  0  0
   -2.5370   -2.0000    0.2580 C   0  0  0  0  0  0  0  0  0  0  0  0
   -3.9890   -1.9120    0.5050 N   0  0  0  0  0  0  0  0  0  0  0  0
    0.0030   -1.6620    0.0630 C   0  0  0  0  0  0  0  0  0  0  0  0
    1.3270   -1.7810   -0.6530 C   0  0  0  0  0  0  0  0  0  0  0  0
    1.9030   -0.4760   -1.1050 C   0  0  2  0  0  0  0  0  0  0  0  0
    3.3580   -0.8180   -1.4970 C   0  0  0  0  0  0  0  0  0  0  0  0
    3.9230   -1.0440   -0.0870 C   0  0  0  0  0  0  0  0  0  0  0  0
    3.0040   -0.3130    0.8620 C   0  0  0  0  0  0  0  0  0  0  0  0
    2.1830    0.4450   -0.0520 N   0  0  2  0  0  0  0  0  0  0  0  0
  1  2  1  0
  3  2  1  6
  3  4  1  0
  3 17  1  0
  5  4  1  1
  5  6  1  0
  5 11  1  0
  6  7  1  6
  6  9  1  0
  7  8  1  0
  9 10  1  0
 11 12  1  0
 13 12  1  1
 13 14  1  0
 13 17  1  0
 14 15  1  0
 15 16  1  0
 17 16  1  1
M  CHG  3   5   1  10   1  17   1
M  END
