
     RDKit          3D

 19 21  0  0  0  0  0  0  0  0999 V2000
   -0.6790   -0.6510    0.3370 O   0  0  0  0  0  0  0  0  0  0  0  0
    0.0600    0.3710    0.1720 C   0  0  0  0  0  0  0  0  0  0  0  0
   -0.5730    1.6250    0.1430 N   0  0  0  0  0  0  0  0  0  0  0  0
   -1.9370    1.8550    0.2770 N   0  0  0  0  0  0  0  0  0  0  0  0
   -2.9420    0.8510    0.3410 C   0  0  0  0  0  0  0  0  0  0  0  0
   -3.1730   -0.0150    1.3110 C   0  0  0  0  0  0  0  0  0  0  0  0
   -4.3270   -0.8900    0.9700 C   0  0  0  0  0  0  0  0  0  0  0  0
   -5.1110    0.0380    0.0230 C   0  0  0  0  0  0  0  0  0  0  0  0
   -3.9210    0.6270   -0.7480 C   0  0  0  0  0  0  0  0  0  0  0  0
    1.5180    0.1660    0.0270 C   0  0  0  0  0  0  0  0  0  0  0  0
    2.3560    1.2110   -0.2120 C   0  0  0  0  0  0  0  0  0  0  0  0
    3.7040    1.0130   -0.3320 C   0  0  0  0  0  0  0  0  0  0  0  0
    4.2000   -0.2640   -0.2080 C   0  0  0  0  0  0  0  0  0  0  0  0
    5.4850   -0.7210   -0.2830 N   0  0  0  0  0  0  0  0  0  0  0  0
    5.4340   -2.0500   -0.0900 C   0  0  0  0  0  0  0  0  0  0  0  0
    6.7530   -3.0080   -0.0970 S   0  0  0  0  0  0  0  0  0  0  0  0
    4.1460   -2.3990    0.0990 N   0  0  0  0  0  0  0  0  0  0  0  0
    3.3530   -1.3210    0.0330 C   0  0  0  0  0  0  0  0  0  0  0  0
    2.0350   -1.0710    0.1430 N   0  0  0  0  0  0  0  0  0  0  0  0
  1  2  2  0
  2  3  1  0
  2 10  1  0
  3  4  1  0
  4  5  1  0
  5  6  2  0
  5  9  1  0
  6  7  1  0
  7  8  1  0
  8  9  1  0
 10 11  2  0
 10 19  1  0
 11 12  1  0
 12 13  2  0
 13 14  1  0
 13 18  1  0
 14 15  1  0
 15 16  2  0
 15 17  1  0
 17 18  1  0
 18 19  2  0
M  END
