
     RDKit          3D

 16 17  0  0  0  0  0  0  0  0999 V2000
    4.7230    1.2440   -0.1080 C   0  0  0  0  0  0  0  0  0  0  0  0
    3.6020    0.2890   -0.5210 C   0  0  0  0  0  0  0  0  0  0  0  0
    2.5440    0.3920    0.5420 C   0  0  0  0  0  0  0  0  0  0  0  0
    1.4090   -0.4400    0.3190 N   0  0  2  0  0  0  0  0  0  0  0  0
    1.6680   -1.6550   -0.3780 C   0  0  0  0  0  0  0  0  0  0  0  0
    0.4540   -2.5430   -0.2030 C   0  0  0  0  0  0  0  0  0  0  0  0
   -0.8100   -1.7610   -0.1730 C   0  0  0  0  0  0  0  0  0  0  0  0
   -0.8810   -0.4600   -0.2620 C   0  0  0  0  0  0  0  0  0  0  0  0
   -2.1660    0.2690   -0.2270 C   0  0  0  0  0  0  0  0  0  0  0  0
   -2.1540    1.5510   -0.3210 N   0  0  0  0  0  0  0  0  0  0  0  0
   -3.2630    2.3850   -0.3060 N   0  0  0  0  0  0  0  0  0  0  0  0
   -4.5400    1.7730   -0.1730 C   0  0  0  0  0  0  0  0  0  0  0  0
   -5.5720    2.3510   -0.5760 O   0  0  0  0  0  0  0  0  0  0  0  0
   -4.5460    0.4210    0.4690 C   0  0  0  0  0  0  0  0  0  0  0  0
   -3.4460   -0.4490   -0.0870 C   0  0  0  0  0  0  0  0  0  0  0  0
    0.3930    0.2930   -0.4040 C   0  0  0  0  0  0  0  0  0  0  0  0
  1  2  1  0
  2  3  1  0
  4  3  1  6
  4  5  1  0
  4 16  1  0
  5  6  1  0
  6  7  1  0
  7  8  2  0
  8  9  1  0
  8 16  1  0
  9 10  2  0
  9 15  1  0
 10 11  1  0
 11 12  1  0
 12 13  2  0
 12 14  1  0
 14 15  1  0
M  CHG  1   4   1
M  END
