
     RDKit          3D

 16 16  0  0  0  0  0  0  0  0999 V2000
    5.5660   -0.0430   -0.3830 C   0  0  0  0  0  0  0  0  0  0  0  0
    4.2220   -0.0690    0.1920 N   0  0  0  0  0  0  0  0  0  0  0  0
    3.9270    1.2160    0.7970 C   0  0  0  0  0  0  0  0  0  0  0  0
    2.7100    1.8130    0.0960 C   0  0  0  0  0  0  0  0  0  0  0  0
    1.5860    0.9280    0.2500 N   0  0  0  0  0  0  0  0  0  0  0  0
    0.3230    1.2730   -0.3230 C   0  0  0  0  0  0  0  0  0  0  0  0
   -0.7400    0.2650   -0.0820 C   0  0  0  0  0  0  0  0  0  0  0  0
   -1.9870    0.5400   -0.6110 O   0  0  0  0  0  0  0  0  0  0  0  0
   -3.1700    0.4640    0.0890 C   0  0  0  0  0  0  0  0  0  0  0  0
   -4.3040    0.4190   -0.5930 C   0  0  0  0  0  0  0  0  0  0  0  0
   -4.3350    0.4460   -2.0640 C   0  0  0  0  0  0  0  0  0  0  0  0
   -5.5810    0.3380    0.1630 C   0  0  0  0  0  0  0  0  0  0  0  0
   -0.5200   -0.8370    0.5990 C   0  0  0  0  0  0  0  0  0  0  0  0
   -1.6270   -1.8030    0.8040 C   0  0  0  0  0  0  0  0  0  0  0  0
    0.7870   -1.1170    1.1500 C   0  0  0  0  0  0  0  0  0  0  0  0
    1.7170   -0.2620    0.9540 N   0  0  0  0  0  0  0  0  0  0  0  0
  1  2  1  0
  2  3  1  0
  3  4  1  0
  4  5  1  0
  5  6  1  0
  5 16  1  0
  6  7  1  0
  7  8  1  0
  7 13  2  0
  8  9  1  0
  9 10  2  3
 10 11  1  0
 10 12  1  0
 13 14  1  0
 13 15  1  0
 15 16  2  0
M  CHG  1   2   1
M  END
