
     RDKit          3D

 16 17  0  0  0  0  0  0  0  0999 V2000
   -4.1090    0.8130   -0.5610 C   0  0  0  0  0  0  0  0  0  0  0  0
   -3.0120   -0.1290   -0.3740 N   0  0  2  0  0  0  0  0  0  0  0  0
   -3.6030   -1.4520   -0.2800 C   0  0  0  0  0  0  0  0  0  0  0  0
   -2.3030    0.2400    0.8260 C   0  0  0  0  0  0  0  0  0  0  0  0
   -0.8260    0.2260    0.6490 C   0  0  0  0  0  0  0  0  0  0  0  0
   -0.1840    1.3740    0.8540 C   0  0  0  0  0  0  0  0  0  0  0  0
    1.2060    1.6520    0.7580 N   0  0  0  0  0  0  0  0  0  0  0  0
    2.2680    0.7780    0.4200 C   0  0  0  0  0  0  0  0  0  0  0  0
    3.5110    1.3780    0.4210 C   0  0  0  0  0  0  0  0  0  0  0  0
    4.6550    0.6600    0.1120 C   0  0  0  0  0  0  0  0  0  0  0  0
    4.5500   -0.6930   -0.2060 C   0  0  0  0  0  0  0  0  0  0  0  0
    5.6940   -1.4270   -0.5190 O   0  0  0  0  0  0  0  0  0  0  0  0
    3.2870   -1.2480   -0.1940 C   0  0  0  0  0  0  0  0  0  0  0  0
    2.1410   -0.5530    0.1100 C   0  0  0  0  0  0  0  0  0  0  0  0
    0.9520   -1.3440    0.0560 N   0  0  0  0  0  0  0  0  0  0  0  0
   -0.2910   -1.0710    0.2690 C   0  0  0  0  0  0  0  0  0  0  0  0
  2  1  1  1
  2  3  1  0
  2  4  1  0
  4  5  1  0
  5  6  2  0
  5 16  1  0
  6  7  1  0
  7  8  1  0
  8  9  2  0
  8 14  1  0
  9 10  1  0
 10 11  2  0
 11 12  1  0
 11 13  1  0
 13 14  2  0
 14 15  1  0
 15 16  2  0
M  CHG  1   2   1
M  END
