
     RDKit          3D

 33 37  0  0  0  0  0  0  0  0999 V2000
   -6.0010    3.0670   -1.0290 N   0  0  0  0  0  0  0  0  0  0  0  0
   -5.4230    2.0540   -1.0720 C   0  0  0  0  0  0  0  0  0  0  0  0
   -4.7080    0.8000   -1.1250 C   0  0  0  0  0  0  0  0  0  0  0  0
   -3.3770    0.6970   -0.7750 C   0  0  0  0  0  0  0  0  0  0  0  0
   -2.6870   -0.4950   -0.8300 C   0  0  0  0  0  0  0  0  0  0  0  0
   -1.2530   -0.6150   -0.4740 C   0  0  2  0  0  0  0  0  0  0  0  0
   -0.7640    0.7340    0.0090 C   0  0  0  0  0  0  0  0  0  0  0  0
    0.6880    0.6590    0.2420 N   0  0  2  0  0  0  0  0  0  0  0  0
    1.1460    1.7500    1.0330 C   0  0  0  0  0  0  0  0  0  0  0  0
    0.1840    2.1730    2.0830 C   0  0  0  0  0  0  0  0  0  0  0  0
    0.0400    1.8040    3.4050 C   0  0  0  0  0  0  0  0  0  0  0  0
   -0.9410    2.3760    4.1090 C   0  0  0  0  0  0  0  0  0  0  0  0
   -1.7780    3.2800    3.5920 C   0  0  0  0  0  0  0  0  0  0  0  0
   -3.1000    4.1880    4.1640 Cl  0  0  0  0  0  0  0  0  0  0  0  0
   -1.1380    3.3840    1.8460 S   0  0  0  0  0  0  0  0  0  0  0  0
    1.2850    0.5920   -1.0810 C   0  0  1  0  0  0  0  0  0  0  0  0
    2.7520    0.7850   -1.0920 C   0  0  0  0  0  0  0  0  0  0  0  0
    3.5540   -0.1870   -0.3280 C   0  0  0  0  0  0  0  0  0  0  0  0
    3.0100   -1.1940    0.1610 O   0  0  0  0  0  0  0  0  0  0  0  0
    4.9230    0.0290   -0.1560 N   0  0  0  0  0  0  0  0  0  0  0  0
    5.8320   -0.8310    0.5590 C   0  0  2  0  0  0  0  0  0  0  0  0
    6.4410   -0.0980    1.7950 C   0  0  0  0  0  0  0  0  0  0  0  0
    7.2640   -0.6220    0.6000 C   0  0  0  0  0  0  0  0  0  0  0  0
    0.9000   -0.7190   -1.6460 C   0  0  0  0  0  0  0  0  0  0  0  0
    1.6940   -1.5170   -2.1910 O   0  0  0  0  0  0  0  0  0  0  0  0
   -0.4480   -1.0770   -1.5550 O   0  0  0  0  0  0  0  0  0  0  0  0
   -3.3390   -1.6640   -1.2540 C   0  0  0  0  0  0  0  0  0  0  0  0
   -2.6960   -2.8740   -1.3270 C   0  0  0  0  0  0  0  0  0  0  0  0
   -3.3830   -3.9880   -1.7510 C   0  0  0  0  0  0  0  0  0  0  0  0
   -4.7180   -3.9440   -2.1170 C   0  0  0  0  0  0  0  0  0  0  0  0
   -5.3340   -2.7210   -2.0330 C   0  0  0  0  0  0  0  0  0  0  0  0
   -4.6830   -1.5620   -1.6080 C   0  0  0  0  0  0  0  0  0  0  0  0
   -5.3430   -0.3580   -1.5420 C   0  0  0  0  0  0  0  0  0  0  0  0
  1  2  3  0
  2  3  1  0
  3  4  2  0
  3 33  1  0
  4  5  1  0
  6  5  1  6
  5 27  2  0
  6  7  1  0
  6 26  1  0
  7  8  1  0
  8  9  1  6
  8 16  1  0
  9 10  1  0
 10 11  2  0
 10 15  1  0
 11 12  1  0
 12 13  2  0
 13 14  1  0
 13 15  1  0
 16 17  1  1
 16 24  1  0
 17 18  1  0
 18 19  2  0
 18 20  1  0
 21 20  1  6
 21 22  1  0
 21 23  1  0
 22 23  1  0
 24 25  2  0
 24 26  1  0
 27 28  1  0
 27 32  1  0
 28 29  2  0
 29 30  1  0
 30 31  2  0
 31 32  1  0
 32 33  2  0
M  CHG  1   8   1
M  END
