
     RDKit          3D

 33 37  0  0  0  0  0  0  0  0999 V2000
    6.6000    1.7030    0.7060 C   0  0  0  0  0  0  0  0  0  0  0  0
    6.0290    1.5630   -0.5410 O   0  0  0  0  0  0  0  0  0  0  0  0
    5.8850    0.2620   -0.9800 C   0  0  0  0  0  0  0  0  0  0  0  0
    5.0130   -0.5750   -0.0820 C   0  0  2  0  0  0  0  0  0  0  0  0
    4.9430   -1.8560   -0.6490 O   0  0  0  0  0  0  0  0  0  0  0  0
    3.6010    0.0480   -0.1430 C   0  0  0  0  0  0  0  0  0  0  0  0
    2.7460   -0.8000    0.5990 N   0  0  1  0  0  0  0  0  0  0  0  0
    3.0600   -0.7250    2.0230 C   0  0  0  0  0  0  0  0  0  0  0  0
    1.7750   -1.2800    2.6670 C   0  0  0  0  0  0  0  0  0  0  0  0
    0.7710   -0.4580    1.8940 C   0  0  0  0  0  0  0  0  0  0  0  0
    1.3320   -0.6660    0.4370 C   0  0  1  0  0  0  0  0  0  0  0  0
    0.8820    0.4930   -0.2990 C   0  0  0  0  0  0  0  0  0  0  0  0
    1.6660    1.4080   -0.7330 O   0  0  0  0  0  0  0  0  0  0  0  0
   -0.4720    0.7480   -0.6070 N   0  0  0  0  0  0  0  0  0  0  0  0
   -0.9240    2.1450   -0.7890 C   0  0  0  0  0  0  0  0  0  0  0  0
   -2.3670    2.2950   -1.0270 C   0  0  0  0  0  0  0  0  0  0  0  0
   -3.3640    1.8810   -0.1880 N   0  0  0  0  0  0  0  0  0  0  0  0
   -4.1740    2.8610    0.4730 C   0  0  0  0  0  0  0  0  0  0  0  0
   -5.0450    3.6090   -0.4860 C   0  0  0  0  0  0  0  0  0  0  0  0
   -5.4650    3.8190   -1.7810 C   0  0  0  0  0  0  0  0  0  0  0  0
   -6.2640    4.8700   -0.6550 S   0  0  0  0  0  0  0  0  0  0  0  0
   -3.3070    0.6940    0.5950 C   0  0  0  0  0  0  0  0  0  0  0  0
   -2.6780   -0.4370   -0.1260 C   0  0  0  0  0  0  0  0  0  0  0  0
   -1.3790   -0.3350   -0.6510 C   0  0  0  0  0  0  0  0  0  0  0  0
   -0.7970   -1.3780   -1.3340 C   0  0  0  0  0  0  0  0  0  0  0  0
   -1.4940   -2.5470   -1.5070 C   0  0  0  0  0  0  0  0  0  0  0  0
   -0.7830   -3.8860   -2.3560 Cl  0  0  0  0  0  0  0  0  0  0  0  0
   -2.7750   -2.6320   -0.9820 C   0  0  0  0  0  0  0  0  0  0  0  0
   -3.5210   -3.7850   -1.1360 C   0  0  0  0  0  0  0  0  0  0  0  0
   -4.8010   -3.9300   -0.6460 C   0  0  0  0  0  0  0  0  0  0  0  0
   -5.3470   -2.8600    0.0290 C   0  0  0  0  0  0  0  0  0  0  0  0
   -4.6620   -1.6780    0.2210 C   0  0  0  0  0  0  0  0  0  0  0  0
   -3.3880   -1.5820   -0.2850 C   0  0  0  0  0  0  0  0  0  0  0  0
  1  2  1  0
  2  3  1  0
  3  4  1  0
  4  5  1  6
  4  6  1  0
  7  6  1  6
  7  8  1  0
  7 11  1  0
  8  9  1  0
  9 10  1  0
 10 11  1  0
 11 12  1  6
 12 13  2  0
 12 14  1  0
 14 15  1  0
 14 24  1  0
 15 16  1  0
 16 17  1  0
 17 18  1  0
 17 22  1  0
 18 19  1  0
 19 20  2  0
 19 21  1  0
 20 21  1  0
 22 23  1  0
 23 24  2  0
 23 33  1  0
 24 25  1  0
 25 26  2  0
 26 27  1  0
 26 28  1  0
 28 29  2  0
 28 33  1  0
 29 30  1  0
 30 31  2  0
 31 32  1  0
 32 33  2  0
M  CHG  1   7   1
M  END
