
     RDKit          3D

 33 35  0  0  0  0  0  0  0  0999 V2000
   -6.5170   -3.9140    2.0110 N   0  0  0  0  0  0  0  0  0  0  0  0
   -5.6620   -2.7610    2.0650 C   0  0  0  0  0  0  0  0  0  0  0  0
   -5.2330   -2.3470    0.6580 C   0  0  2  0  0  0  0  0  0  0  0  0
   -4.3680   -1.1760    0.7740 N   0  0  0  0  0  0  0  0  0  0  0  0
   -3.0250   -1.2630    0.3660 C   0  0  0  0  0  0  0  0  0  0  0  0
   -2.6260   -2.3850   -0.0940 O   0  0  0  0  0  0  0  0  0  0  0  0
   -2.0910   -0.1390    0.4490 C   0  0  0  0  0  0  0  0  0  0  0  0
   -2.4330    1.0870    0.9320 C   0  0  0  0  0  0  0  0  0  0  0  0
   -1.5160    2.1480    0.9990 C   0  0  0  0  0  0  0  0  0  0  0  0
   -0.2200    1.9690    0.5680 C   0  0  0  0  0  0  0  0  0  0  0  0
    0.7630    2.9810    0.6630 N   0  0  0  0  0  0  0  0  0  0  0  0
    0.5180    4.3480    0.9860 C   0  0  0  0  0  0  0  0  0  0  0  0
   -0.6340    4.7630    1.2120 O   0  0  0  0  0  0  0  0  0  0  0  0
    1.6320    5.2910    1.0560 C   0  0  0  0  0  0  0  0  0  0  0  0
    2.9670    5.0340    0.8450 C   0  0  0  0  0  0  0  0  0  0  0  0
    3.6520    6.2320    1.0190 C   0  0  0  0  0  0  0  0  0  0  0  0
    2.6810    7.1550    1.3290 C   0  0  0  0  0  0  0  0  0  0  0  0
    1.5110    6.5580    1.3400 O   0  0  0  0  0  0  0  0  0  0  0  0
    0.1660    0.7190    0.0630 C   0  0  0  0  0  0  0  0  0  0  0  0
    1.4780    0.5780   -0.4220 N   0  0  0  0  0  0  0  0  0  0  0  0
    2.0850   -0.6580   -0.8180 C   0  0  0  0  0  0  0  0  0  0  0  0
    1.4830   -1.7330   -0.7510 O   0  0  0  0  0  0  0  0  0  0  0  0
    3.4310   -0.7230   -1.3170 N   0  0  0  0  0  0  0  0  0  0  0  0
    4.0120   -2.0060   -1.7110 C   0  0  0  0  0  0  0  0  0  0  0  0
    5.4200   -1.7410   -2.1880 C   0  0  2  0  0  0  0  0  0  0  0  0
    6.1730   -3.0550   -2.4140 C   0  0  0  0  0  0  0  0  0  0  0  0
    7.5570   -2.6250   -2.0920 C   0  0  0  0  0  0  0  0  0  0  0  0
    7.5260   -1.5490   -1.3900 N   0  0  0  0  0  0  0  0  0  0  0  0
    6.2170   -1.1580   -1.1730 O   0  0  0  0  0  0  0  0  0  0  0  0
   -0.7660   -0.2890    0.0180 C   0  0  0  0  0  0  0  0  0  0  0  0
   -6.4310   -1.9520   -0.1140 C   0  0  0  0  0  0  0  0  0  0  0  0
   -7.4320   -2.9050   -0.3750 N   0  0  0  0  0  0  0  0  0  0  0  0
   -6.5530   -0.7770   -0.5320 O   0  0  0  0  0  0  0  0  0  0  0  0
  1  2  1  0
  3  2  1  1
  3  4  1  0
  3 31  1  0
  4  5  1  0
  5  6  2  0
  5  7  1  0
  7  8  2  0
  7 30  1  0
  8  9  1  0
  9 10  2  0
 10 11  1  0
 10 19  1  0
 11 12  1  0
 12 13  2  0
 12 14  1  0
 14 15  2  0
 14 18  1  0
 15 16  1  0
 16 17  2  0
 17 18  1  0
 19 20  1  0
 19 30  2  0
 20 21  1  0
 21 22  2  0
 21 23  1  0
 23 24  1  0
 25 24  1  1
 25 26  1  0
 25 29  1  0
 26 27  1  0
 27 28  2  0
 28 29  1  0
 31 32  1  0
 31 33  2  0
M  END
