
     RDKit          3D

 32 35  0  0  0  0  0  0  0  0999 V2000
    9.2390   -1.9040    0.0870 C   0  0  0  0  0  0  0  0  0  0  0  0
    8.6500   -0.7010    0.6020 N   0  0  1  0  0  0  0  0  0  0  0  0
    8.4540    0.2530   -0.4480 C   0  0  0  0  0  0  0  0  0  0  0  0
    7.3510   -0.1100   -1.4070 C   0  0  0  0  0  0  0  0  0  0  0  0
    6.0470    0.3620   -0.8370 C   0  0  0  0  0  0  0  0  0  0  0  0
    5.4320   -0.6260    0.0150 N   0  0  1  0  0  0  0  0  0  0  0  0
    4.4330   -1.3270   -0.7330 C   0  0  0  0  0  0  0  0  0  0  0  0
    3.1000   -0.7350   -0.4660 C   0  0  0  0  0  0  0  0  0  0  0  0
    2.9220    0.5780   -0.1020 C   0  0  0  0  0  0  0  0  0  0  0  0
    1.6520    1.1150    0.1530 C   0  0  0  0  0  0  0  0  0  0  0  0
    0.5240    0.3330    0.0450 C   0  0  0  0  0  0  0  0  0  0  0  0
   -0.8280    0.8190    0.2910 C   0  0  0  0  0  0  0  0  0  0  0  0
   -1.6390    0.0250    1.0750 C   0  0  0  0  0  0  0  0  0  0  0  0
   -2.9310    0.4200    1.3510 C   0  0  0  0  0  0  0  0  0  0  0  0
   -3.4680    1.5930    0.8740 C   0  0  0  0  0  0  0  0  0  0  0  0
   -4.8370    1.9830    1.1890 C   0  0  0  0  0  0  0  0  0  0  0  0
   -5.8450    1.2600    0.4630 N   0  0  1  0  0  0  0  0  0  0  0  0
   -5.3920    0.7750   -0.8090 C   0  0  0  0  0  0  0  0  0  0  0  0
   -6.3550   -0.0750   -1.5350 C   0  0  0  0  0  0  0  0  0  0  0  0
   -7.7930    0.0890   -1.1930 C   0  0  0  0  0  0  0  0  0  0  0  0
   -8.1940   -0.6870   -0.0330 N   0  0  2  0  0  0  0  0  0  0  0  0
   -9.6470   -0.8560   -0.0240 C   0  0  0  0  0  0  0  0  0  0  0  0
   -7.8420    0.0550    1.1810 C   0  0  0  0  0  0  0  0  0  0  0  0
   -6.3300    0.1050    1.2280 C   0  0  0  0  0  0  0  0  0  0  0  0
   -2.6490    2.3770    0.0930 C   0  0  0  0  0  0  0  0  0  0  0  0
   -1.3340    1.9870   -0.1940 C   0  0  0  0  0  0  0  0  0  0  0  0
   -0.4770    2.8220   -1.0120 C   0  0  0  0  0  0  0  0  0  0  0  0
    0.2010    3.4850   -1.6850 N   0  0  0  0  0  0  0  0  0  0  0  0
    0.6930   -0.9850   -0.3210 C   0  0  0  0  0  0  0  0  0  0  0  0
    1.9400   -1.5120   -0.5700 C   0  0  0  0  0  0  0  0  0  0  0  0
    6.3740   -1.6020    0.5440 C   0  0  0  0  0  0  0  0  0  0  0  0
    7.4410   -0.9540    1.3620 C   0  0  0  0  0  0  0  0  0  0  0  0
  2  1  1  6
  2  3  1  0
  2 32  1  0
  3  4  1  0
  4  5  1  0
  5  6  1  0
  6  7  1  6
  6 31  1  0
  7  8  1  0
  8  9  2  0
  8 30  1  0
  9 10  1  0
 10 11  2  0
 11 12  1  0
 11 29  1  0
 12 13  2  0
 12 26  1  0
 13 14  1  0
 14 15  2  0
 15 16  1  0
 15 25  1  0
 17 16  1  1
 17 18  1  0
 17 24  1  0
 18 19  1  0
 19 20  1  0
 20 21  1  0
 21 22  1  6
 21 23  1  0
 23 24  1  0
 25 26  2  0
 26 27  1  0
 27 28  3  0
 29 30  2  0
 31 32  1  0
M  CHG  4   2   1   6   1  17   1  21   1
M  END
