
     RDKit          3D

 36 39  0  0  0  0  0  0  0  0999 V2000
   -6.3070   -1.0440   -2.8720 C   0  0  0  0  0  0  0  0  0  0  0  0
   -4.8710   -0.5770   -2.8640 C   0  0  1  0  0  0  0  0  0  0  0  0
   -4.1870   -1.0190   -1.6180 C   0  0  0  0  0  0  0  0  0  0  0  0
   -2.8660   -0.3130   -1.6080 N   0  0  0  0  0  0  0  0  0  0  0  0
   -2.5170    0.3960   -0.4620 C   0  0  0  0  0  0  0  0  0  0  0  0
   -3.4600    0.3940    0.4660 O   0  0  0  0  0  0  0  0  0  0  0  0
   -1.3870    1.1070   -0.0970 N   0  0  0  0  0  0  0  0  0  0  0  0
   -0.2090    1.0970   -0.8630 C   0  0  0  0  0  0  0  0  0  0  0  0
    0.8080    0.0540   -0.5320 C   0  0  0  0  0  0  0  0  0  0  0  0
    2.0510    0.3670   -0.2540 C   0  0  0  0  0  0  0  0  0  0  0  0
    3.1030   -0.5700    0.0810 C   0  0  0  0  0  0  0  0  0  0  0  0
    4.2770    0.0120    0.2850 C   0  0  0  0  0  0  0  0  0  0  0  0
    5.5940   -0.5600    0.6350 C   0  0  0  0  0  0  0  0  0  0  0  0
    6.0080   -1.7990    0.4850 C   0  0  0  0  0  0  0  0  0  0  0  0
    7.3320   -2.2140    0.8740 C   0  0  0  0  0  0  0  0  0  0  0  0
    8.2220   -1.1540    1.4530 C   0  0  2  0  0  0  0  0  0  0  0  0
    9.4720   -1.7150    1.7780 F   0  0  0  0  0  0  0  0  0  0  0  0
    7.6720   -0.6570    2.6080 F   0  0  0  0  0  0  0  0  0  0  0  0
    8.4240   -0.1490    0.5490 F   0  0  0  0  0  0  0  0  0  0  0  0
    5.1850   -2.8590   -0.0640 N   0  0  0  0  0  0  0  0  0  0  0  0
    3.7960   -2.9690    0.0940 N   0  0  0  0  0  0  0  0  0  0  0  0
    2.9020   -2.0080    0.1590 C   0  0  0  0  0  0  0  0  0  0  0  0
    1.5670   -2.5860    0.4040 C   0  0  0  0  0  0  0  0  0  0  0  0
    0.3370   -1.6450   -0.4980 S   0  0  0  0  0  0  0  0  0  0  0  0
   -1.5170    1.9350    1.1350 C   0  0  1  0  0  0  0  0  0  0  0  0
   -2.5930    3.0040    0.8880 C   0  0  0  0  0  0  0  0  0  0  0  0
   -2.8050    3.8190    1.9670 O   0  0  0  0  0  0  0  0  0  0  0  0
   -1.9800    1.0940    2.2770 C   0  0  0  0  0  0  0  0  0  0  0  0
   -1.1610    1.2630    3.5440 C   0  0  0  0  0  0  0  0  0  0  0  0
   -0.8060    2.6820    3.8180 C   0  0  0  0  0  0  0  0  0  0  0  0
   -0.2510    3.4260    2.6700 C   0  0  0  0  0  0  0  0  0  0  0  0
   -0.2420    2.6440    1.3680 C   0  0  0  0  0  0  0  0  0  0  0  0
   -2.1380   -0.4090   -2.8110 C   0  0  0  0  0  0  0  0  0  0  0  0
   -2.8880   -1.3140   -3.8080 C   0  0  1  0  0  0  0  0  0  0  0  0
   -2.6500   -2.7330   -3.4020 C   0  0  0  0  0  0  0  0  0  0  0  0
   -4.2010   -1.0470   -3.9730 O   0  0  0  0  0  0  0  0  0  0  0  0
  2  1  1  1
  2  3  1  0
  2 36  1  0
  3  4  1  0
  4  5  1  0
  4 33  1  0
  5  6  2  0
  5  7  1  0
  7  8  1  0
  7 25  1  0
  8  9  1  0
  9 10  2  0
  9 24  1  0
 10 11  1  0
 11 12  2  0
 11 22  1  0
 12 13  1  0
 13 14  2  0
 14 15  1  0
 14 20  1  0
 15 16  1  0
 16 17  1  1
 16 18  1  0
 16 19  1  0
 20 21  1  0
 21 22  2  0
 22 23  1  0
 23 24  1  0
 25 26  1  6
 25 28  1  0
 25 32  1  0
 26 27  1  0
 28 29  1  0
 29 30  1  0
 30 31  1  0
 31 32  1  0
 33 34  1  0
 34 35  1  1
 34 36  1  0
M  END
