
     RDKit          3D

 36 40  0  0  0  0  0  0  0  0999 V2000
    5.8030    3.3050   -0.1970 C   0  0  0  0  0  0  0  0  0  0  0  0
    6.4850    2.4090    0.4250 C   0  0  0  0  0  0  0  0  0  0  0  0
    7.5300    2.8850    1.8090 S   0  0  0  0  0  0  0  0  0  0  0  0
    8.3390    1.3840    2.3240 C   0  0  0  0  0  0  0  0  0  0  0  0
    8.1020    0.2310    1.7300 C   0  0  0  0  0  0  0  0  0  0  0  0
    7.1910    0.0630    0.6270 C   0  0  0  0  0  0  0  0  0  0  0  0
    6.4760    1.0060    0.0500 C   0  0  0  0  0  0  0  0  0  0  0  0
    5.5990    0.6750   -1.0490 N   0  0  0  0  0  0  0  0  0  0  0  0
    4.2000    0.8330   -0.8840 C   0  0  0  0  0  0  0  0  0  0  0  0
    3.7180    1.2440    0.2120 O   0  0  0  0  0  0  0  0  0  0  0  0
    3.3690    0.5050   -2.0140 N   0  0  0  0  0  0  0  0  0  0  0  0
    1.9580    0.6270   -1.9150 C   0  0  0  0  0  0  0  0  0  0  0  0
    1.3320   -0.3170   -0.9230 C   0  0  0  0  0  0  0  0  0  0  0  0
    2.0940   -1.2400   -0.2370 C   0  0  0  0  0  0  0  0  0  0  0  0
    1.4680   -2.0940    0.6470 C   0  0  0  0  0  0  0  0  0  0  0  0
    0.0910   -2.0320    0.8490 C   0  0  0  0  0  0  0  0  0  0  0  0
   -0.6940   -1.1110    0.1680 C   0  0  0  0  0  0  0  0  0  0  0  0
   -2.1230   -1.0580    0.3910 C   0  0  0  0  0  0  0  0  0  0  0  0
   -2.9870   -0.2560   -0.1750 C   0  0  0  0  0  0  0  0  0  0  0  0
   -4.4060   -0.3870    0.2130 C   0  0  0  0  0  0  0  0  0  0  0  0
   -4.7600   -1.2440    1.0590 O   0  0  0  0  0  0  0  0  0  0  0  0
   -5.3810    0.4420   -0.3550 N   0  0  0  0  0  0  0  0  0  0  0  0
   -4.9950    1.4400   -1.3360 C   0  0  0  0  0  0  0  0  0  0  0  0
   -6.1880    2.1360   -1.9460 C   0  0  0  0  0  0  0  0  0  0  0  0
   -7.0460    2.6270   -0.8340 C   0  0  0  0  0  0  0  0  0  0  0  0
   -7.6280    3.7560   -0.5180 O   0  0  0  0  0  0  0  0  0  0  0  0
   -8.2950    3.6270    0.6280 C   0  0  0  0  0  0  0  0  0  0  0  0
   -8.1420    2.3380    1.0910 C   0  0  0  0  0  0  0  0  0  0  0  0
   -7.3470    1.7130    0.1550 C   0  0  0  0  0  0  0  0  0  0  0  0
   -6.7820    0.3470   -0.0030 C   0  0  0  0  0  0  0  0  0  0  0  0
   -0.0370   -0.2540   -0.7230 C   0  0  0  0  0  0  0  0  0  0  0  0
   -0.7160    0.6920   -1.4460 O   0  0  0  0  0  0  0  0  0  0  0  0
   -0.4210   -3.0070    1.8190 C   0  0  0  0  0  0  0  0  0  0  0  0
    0.0390   -4.3810    1.2750 C   0  0  0  0  0  0  0  0  0  0  0  0
    1.5300   -4.4420    1.2330 C   0  0  0  0  0  0  0  0  0  0  0  0
    2.2020   -3.1210    1.4330 C   0  0  0  0  0  0  0  0  0  0  0  0
  1  2  2  0
  2  3  1  0
  2  7  1  0
  3  4  1  0
  4  5  2  0
  5  6  1  0
  6  7  2  0
  7  8  1  0
  8  9  1  0
  9 10  2  0
  9 11  1  0
 11 12  1  0
 12 13  1  0
 13 14  2  0
 13 31  1  0
 14 15  1  0
 15 16  2  0
 15 36  1  0
 16 17  1  0
 16 33  1  0
 17 18  1  0
 17 31  2  0
 18 19  2  3
 19 20  1  0
 20 21  2  0
 20 22  1  0
 22 23  1  0
 22 30  1  0
 23 24  1  0
 24 25  1  0
 25 26  1  0
 25 29  2  0
 26 27  1  0
 27 28  2  0
 28 29  1  0
 29 30  1  0
 31 32  1  0
 33 34  1  0
 34 35  1  0
 35 36  1  0
M  END
