
     RDKit          3D

 36 40  0  0  0  0  0  0  0  0999 V2000
   -7.3300   -0.4590    1.6990 C   0  0  0  0  0  0  0  0  0  0  0  0
   -5.9610   -0.2690    1.1170 C   0  0  0  0  0  0  0  0  0  0  0  0
   -4.9760   -0.0400    1.9080 C   0  0  0  0  0  0  0  0  0  0  0  0
   -5.2450    0.0520    3.6820 S   0  0  0  0  0  0  0  0  0  0  0  0
   -3.9540    1.2750    4.2100 C   0  0  0  0  0  0  0  0  0  0  0  0
   -2.7250    0.7940    3.5570 C   0  0  0  0  0  0  0  0  0  0  0  0
   -1.7310    0.5890    4.2680 O   0  0  0  0  0  0  0  0  0  0  0  0
   -2.5800    0.5310    2.0930 C   0  0  0  0  0  0  0  0  0  0  0  0
   -1.2020    0.4050    1.6330 C   0  0  0  0  0  0  0  0  0  0  0  0
   -0.3130    0.9970    2.3720 O   0  0  0  0  0  0  0  0  0  0  0  0
   -0.6660   -0.2600    0.5390 N   0  0  0  0  0  0  0  0  0  0  0  0
    0.7120   -0.2990    0.1310 C   0  0  0  0  0  0  0  0  0  0  0  0
    1.7080    0.4790    0.6070 C   0  0  0  0  0  0  0  0  0  0  0  0
    3.0090    0.3130    0.1240 C   0  0  0  0  0  0  0  0  0  0  0  0
    3.3210   -0.6270   -0.8330 C   0  0  0  0  0  0  0  0  0  0  0  0
    4.6250   -0.7850   -1.3080 O   0  0  0  0  0  0  0  0  0  0  0  0
    5.6300    0.0510   -0.7810 C   0  0  0  0  0  0  0  0  0  0  0  0
    6.9530   -0.3000   -1.4420 C   0  0  0  0  0  0  0  0  0  0  0  0
    8.0090    0.5400   -0.9240 N   0  0  0  0  0  0  0  0  0  0  0  0
    8.3840    1.7230   -1.4240 C   0  0  0  0  0  0  0  0  0  0  0  0
    9.4140    2.2070   -0.6590 C   0  0  0  0  0  0  0  0  0  0  0  0
    9.6410    1.2730    0.3140 C   0  0  0  0  0  0  0  0  0  0  0  0
    8.7580    0.2680    0.1150 N   0  0  0  0  0  0  0  0  0  0  0  0
    2.3180   -1.4260   -1.3250 C   0  0  0  0  0  0  0  0  0  0  0  0
    2.6340   -2.4480   -2.3590 C   0  0  2  0  0  0  0  0  0  0  0  0
    3.1560   -1.8500   -3.4930 F   0  0  0  0  0  0  0  0  0  0  0  0
    1.4700   -3.1300   -2.6540 F   0  0  0  0  0  0  0  0  0  0  0  0
    3.5310   -3.3830   -1.8770 F   0  0  0  0  0  0  0  0  0  0  0  0
    1.0450   -1.2550   -0.8450 C   0  0  0  0  0  0  0  0  0  0  0  0
   -3.6150    0.1700    1.3740 C   0  0  0  0  0  0  0  0  0  0  0  0
   -3.4880    0.1050   -0.0620 N   0  0  0  0  0  0  0  0  0  0  0  0
   -4.6450   -0.1580   -0.8620 C   0  0  0  0  0  0  0  0  0  0  0  0
   -5.8390   -0.3420   -0.3430 C   0  0  0  0  0  0  0  0  0  0  0  0
   -6.8500   -0.5960   -1.4010 C   0  0  0  0  0  0  0  0  0  0  0  0
   -6.1990    0.1110   -2.5940 C   0  0  0  0  0  0  0  0  0  0  0  0
   -4.7380   -0.2730   -2.3660 C   0  0  0  0  0  0  0  0  0  0  0  0
  1  2  1  0
  2  3  2  0
  2 33  1  0
  3  4  1  0
  3 30  1  0
  4  5  1  0
  5  6  1  0
  6  7  2  0
  6  8  1  0
  8  9  1  0
  8 30  2  0
  9 10  2  0
  9 11  1  0
 11 12  1  0
 12 13  2  0
 12 29  1  0
 13 14  1  0
 14 15  2  0
 15 16  1  0
 15 24  1  0
 16 17  1  0
 17 18  1  0
 18 19  1  0
 19 20  1  0
 19 23  1  0
 20 21  2  0
 21 22  1  0
 22 23  2  0
 24 25  1  0
 24 29  2  0
 25 26  1  6
 25 27  1  0
 25 28  1  0
 30 31  1  0
 31 32  1  0
 32 33  2  0
 32 36  1  0
 33 34  1  0
 34 35  1  0
 35 36  1  0
M  END
