
     RDKit          3D

 37 37  0  0  0  0  0  0  0  0999 V2000
   -2.4670    2.9770   -0.9770 C   0  0  0  0  0  0  0  0  0  0  0  0
   -1.2620    3.0800   -0.1180 C   0  0  0  0  0  0  0  0  0  0  0  0
   -1.1320    2.1090    1.0020 C   0  0  2  0  0  0  0  0  0  0  0  0
    0.1850    2.4360    1.7230 C   0  0  0  0  0  0  0  0  0  0  0  0
   -1.1580    0.6650    0.5930 C   0  0  2  0  0  0  0  0  0  0  0  0
   -0.0720    0.4740   -0.3440 N   0  0  0  0  0  0  0  0  0  0  0  0
    1.0630   -0.3040   -0.0950 C   0  0  0  0  0  0  0  0  0  0  0  0
    1.1450   -0.8760    1.0270 O   0  0  0  0  0  0  0  0  0  0  0  0
    2.1500   -0.4700   -1.0930 C   0  0  1  0  0  0  0  0  0  0  0  0
    3.2980   -1.1470   -0.5080 N   0  0  0  0  0  0  0  0  0  0  0  0
    3.9770   -0.4190    0.5010 C   0  0  0  0  0  0  0  0  0  0  0  0
    5.0120    0.5540    0.0150 C   0  0  2  0  0  0  0  0  0  0  0  0
    4.3480    1.5090   -0.8280 O   0  0  0  0  0  0  0  0  0  0  0  0
    6.0810   -0.0170   -0.8370 C   0  0  1  0  0  0  0  0  0  0  0  0
    6.9370    1.1170   -1.2930 N   0  0  0  0  0  0  0  0  0  0  0  0
    6.8950   -1.1230   -0.3280 C   0  0  0  0  0  0  0  0  0  0  0  0
    7.7340   -1.0140    0.8570 C   0  0  1  0  0  0  0  0  0  0  0  0
    8.8160    0.0390    0.8190 C   0  0  0  0  0  0  0  0  0  0  0  0
    7.0820   -1.0070    2.2030 C   0  0  0  0  0  0  0  0  0  0  0  0
    1.7050   -1.3940   -2.2330 C   0  0  2  0  0  0  0  0  0  0  0  0
    0.5170   -0.8720   -2.9660 C   0  0  0  0  0  0  0  0  0  0  0  0
    1.3810   -2.7800   -1.7270 C   0  0  0  0  0  0  0  0  0  0  0  0
   -2.4760    0.2730    0.1200 C   0  0  0  0  0  0  0  0  0  0  0  0
   -2.7270   -0.1720   -1.0520 O   0  0  0  0  0  0  0  0  0  0  0  0
   -3.6050    0.3640    0.9760 N   0  0  0  0  0  0  0  0  0  0  0  0
   -4.9490   -0.0200    0.5500 C   0  0  1  0  0  0  0  0  0  0  0  0
   -5.4350   -1.2000    1.3370 C   0  0  0  0  0  0  0  0  0  0  0  0
   -6.7900   -1.6140    0.9330 C   0  0  0  0  0  0  0  0  0  0  0  0
   -7.0170   -2.4860   -0.1230 C   0  0  0  0  0  0  0  0  0  0  0  0
   -8.2620   -2.9010   -0.5020 C   0  0  0  0  0  0  0  0  0  0  0  0
   -9.3610   -2.4540    0.1750 C   0  0  0  0  0  0  0  0  0  0  0  0
   -9.1900   -1.5840    1.2360 C   0  0  0  0  0  0  0  0  0  0  0  0
   -7.9330   -1.1810    1.5970 C   0  0  0  0  0  0  0  0  0  0  0  0
   -5.8940    1.1040    0.6980 C   0  0  0  0  0  0  0  0  0  0  0  0
   -5.4990    2.2060    1.2130 O   0  0  0  0  0  0  0  0  0  0  0  0
   -7.2210    1.0890    0.3170 O   0  0  0  0  0  0  0  0  0  0  0  0
   -8.0990    2.1890    0.4720 C   0  0  0  0  0  0  0  0  0  0  0  0
  1  2  1  0
  2  3  1  0
  3  4  1  6
  3  5  1  0
  5  6  1  6
  5 23  1  0
  6  7  1  0
  7  8  2  0
  7  9  1  0
  9 10  1  1
  9 20  1  0
 10 11  1  0
 11 12  1  0
 12 13  1  6
 12 14  1  0
 14 15  1  1
 14 16  1  0
 16 17  1  0
 17 18  1  6
 17 19  1  0
 20 21  1  1
 20 22  1  0
 23 24  2  0
 23 25  1  0
 25 26  1  0
 26 27  1  1
 26 34  1  0
 27 28  1  0
 28 29  2  0
 28 33  1  0
 29 30  1  0
 30 31  2  0
 31 32  1  0
 32 33  2  0
 34 35  2  0
 34 36  1  0
 36 37  1  0
M  CHG  2  10   1  15   1
M  END
