
     RDKit          3D

 20 22  0  0  0  0  0  0  0  0999 V2000
   -3.4940   -1.6500    0.2410 C   0  0  0  0  0  0  0  0  0  0  0  0
   -3.2180   -0.1680    0.0720 C   0  0  1  0  0  0  0  0  0  0  0  0
   -3.5740    0.1340   -1.3980 C   0  0  0  0  0  0  0  0  0  0  0  0
   -4.0850    0.6630    0.9010 C   0  0  0  0  0  0  0  0  0  0  0  0
   -3.6840    1.6100    1.7240 C   0  0  0  0  0  0  0  0  0  0  0  0
   -2.3050    1.8960    1.8610 N   0  0  0  0  0  0  0  0  0  0  0  0
   -1.3790    1.1330    1.0880 C   0  0  0  0  0  0  0  0  0  0  0  0
   -0.0040    1.4140    1.2210 C   0  0  0  0  0  0  0  0  0  0  0  0
    0.9110    0.7020    0.4960 C   0  0  0  0  0  0  0  0  0  0  0  0
    0.4780   -0.2840   -0.3590 C   0  0  0  0  0  0  0  0  0  0  0  0
    1.4260   -1.0170   -1.1080 O   0  0  0  0  0  0  0  0  0  0  0  0
    2.7770   -0.7320   -0.9680 C   0  0  0  0  0  0  0  0  0  0  0  0
    3.3440    0.2160   -1.7970 C   0  0  0  0  0  0  0  0  0  0  0  0
    4.6860    0.5040   -1.6620 C   0  0  0  0  0  0  0  0  0  0  0  0
    5.4390   -0.1510   -0.7120 C   0  0  0  0  0  0  0  0  0  0  0  0
    4.8890   -1.1030    0.1270 C   0  0  0  0  0  0  0  0  0  0  0  0
    5.7150   -1.7060    1.0450 O   0  0  0  0  0  0  0  0  0  0  0  0
    3.5580   -1.3760   -0.0210 C   0  0  0  0  0  0  0  0  0  0  0  0
   -0.8370   -0.5740   -0.5070 C   0  0  0  0  0  0  0  0  0  0  0  0
   -1.7960    0.1510    0.2350 C   0  0  0  0  0  0  0  0  0  0  0  0
  2  1  1  1
  2  3  1  0
  2  4  1  0
  2 20  1  0
  4  5  2  0
  5  6  1  0
  6  7  1  0
  7  8  2  0
  7 20  1  0
  8  9  1  0
  9 10  2  0
 10 11  1  0
 10 19  1  0
 11 12  1  0
 12 13  2  0
 12 18  1  0
 13 14  1  0
 14 15  2  0
 15 16  1  0
 16 17  1  0
 16 18  2  0
 19 20  2  0
M  END
