
     RDKit          3D

 18 19  0  0  0  0  0  0  0  0999 V2000
   -2.3940   -3.1630   -0.1570 C   0  0  0  0  0  0  0  0  0  0  0  0
   -2.7760   -1.7650   -0.1150 C   0  0  0  0  0  0  0  0  0  0  0  0
   -2.2130   -0.6000   -0.0490 C   0  0  0  0  0  0  0  0  0  0  0  0
   -3.1410    0.5750   -0.0430 C   0  0  0  0  0  0  0  0  0  0  0  0
   -4.3790    0.4080   -0.0490 O   0  0  0  0  0  0  0  0  0  0  0  0
   -2.6140    1.9070   -0.0300 C   0  0  0  0  0  0  0  0  0  0  0  0
   -3.5290    3.0780   -0.0250 C   0  0  0  0  0  0  0  0  0  0  0  0
   -1.3230    2.1260   -0.0230 C   0  0  0  0  0  0  0  0  0  0  0  0
   -0.3870    1.0170   -0.0250 C   0  0  0  0  0  0  0  0  0  0  0  0
   -0.7920   -0.2640   -0.0350 C   0  0  0  0  0  0  0  0  0  0  0  0
    0.3710   -1.5200    0.1570 S   0  0  2  0  0  0  0  0  0  0  0  0
    0.6880   -2.2770   -1.0830 O   0  0  0  0  0  0  0  0  0  0  0  0
   -0.1640   -2.5070    1.2020 O   0  0  0  0  0  0  0  0  0  0  0  0
    1.8940   -1.0290    0.8480 N   0  0  0  0  0  0  0  0  0  0  0  0
    2.5770   -0.1390   -0.0050 C   0  0  2  0  0  0  0  0  0  0  0  0
    4.0190   -0.6620   -0.3540 C   0  0  0  0  0  0  0  0  0  0  0  0
    4.4070    0.8000   -0.4170 C   0  0  0  0  0  0  0  0  0  0  0  0
    3.3410    1.0150    0.6680 C   0  0  0  0  0  0  0  0  0  0  0  0
  1  2  1  0
  2  3  2  3
  3  4  1  0
  3 10  1  0
  4  5  2  0
  4  6  1  0
  6  7  1  0
  6  8  2  0
  8  9  1  0
  9 10  2  0
 10 11  1  0
 11 12  2  0
 11 13  2  0
 11 14  1  1
 15 14  1  1
 15 16  1  0
 15 18  1  0
 16 17  1  0
 17 18  1  0
M  END
