
     RDKit          3D

 18 19  0  0  0  0  0  0  0  0999 V2000
   -0.9800    1.3250    1.7260 O   0  0  0  0  0  0  0  0  0  0  0  0
   -0.3620    0.7140    0.8400 C   0  0  0  0  0  0  0  0  0  0  0  0
    1.1280    0.7930    0.8320 C   0  0  0  0  0  0  0  0  0  0  0  0
    1.6710    0.0380   -0.2470 O   0  0  0  0  0  0  0  0  0  0  0  0
    3.0940    0.0770   -0.3040 C   0  0  0  0  0  0  0  0  0  0  0  0
    3.7730   -1.0400   -0.2120 C   0  0  0  0  0  0  0  0  0  0  0  0
    5.2280   -1.2430   -0.2450 C   0  0  0  0  0  0  0  0  0  0  0  0
    6.1320    0.3020   -0.4390 S   0  0  0  0  0  0  0  0  0  0  0  0
    4.9680    1.6220   -0.5330 C   0  0  0  0  0  0  0  0  0  0  0  0
    3.6810    1.3980   -0.4620 C   0  0  0  0  0  0  0  0  0  0  0  0
   -1.0560   -0.0280   -0.1270 N   0  0  0  0  0  0  0  0  0  0  0  0
   -2.4620   -0.1850   -0.2390 C   0  0  0  0  0  0  0  0  0  0  0  0
   -3.3680    0.4730    0.5480 C   0  0  0  0  0  0  0  0  0  0  0  0
   -4.7370    0.2900    0.4160 C   0  0  0  0  0  0  0  0  0  0  0  0
   -5.1940   -0.5750   -0.5290 C   0  0  0  0  0  0  0  0  0  0  0  0
   -6.5760   -0.7880   -0.6930 O   0  0  0  0  0  0  0  0  0  0  0  0
   -4.3340   -1.2610   -1.3430 C   0  0  0  0  0  0  0  0  0  0  0  0
   -2.9910   -1.0550   -1.1850 C   0  0  0  0  0  0  0  0  0  0  0  0
  1  2  2  0
  2  3  1  0
  2 11  1  0
  3  4  1  0
  4  5  1  0
  5  6  2  0
  5 10  1  0
  6  7  1  0
  7  8  1  0
  8  9  1  0
  9 10  2  0
 11 12  1  0
 12 13  2  0
 12 18  1  0
 13 14  1  0
 14 15  2  0
 15 16  1  0
 15 17  1  0
 17 18  2  0
M  END
