
     RDKit          3D

 18 19  0  0  0  0  0  0  0  0999 V2000
   -2.3920   -1.2690   -0.9350 C   0  0  0  0  0  0  0  0  0  0  0  0
   -2.6650    0.0330   -0.3590 C   0  0  0  0  0  0  0  0  0  0  0  0
   -2.2140    0.7220    0.6420 C   0  0  0  0  0  0  0  0  0  0  0  0
   -2.8420    2.0700    0.8350 C   0  0  0  0  0  0  0  0  0  0  0  0
   -3.7280    2.4640    0.0400 O   0  0  0  0  0  0  0  0  0  0  0  0
   -2.4650    2.9550    1.9150 C   0  0  0  0  0  0  0  0  0  0  0  0
   -1.5330    2.5300    2.7430 C   0  0  0  0  0  0  0  0  0  0  0  0
   -0.9020    1.2390    2.5950 C   0  0  0  0  0  0  0  0  0  0  0  0
   -1.1990    0.3510    1.6060 C   0  0  0  0  0  0  0  0  0  0  0  0
   -0.3330   -1.1360    1.5260 S   0  0  1  0  0  0  0  0  0  0  0  0
    0.0310   -1.3980    3.0620 O   0  0  0  0  0  0  0  0  0  0  0  0
   -1.1540   -2.3420    1.2580 O   0  0  0  0  0  0  0  0  0  0  0  0
    1.1500   -1.1340    0.7850 N   0  0  0  0  0  0  0  0  0  0  0  0
    1.3920   -0.7950   -0.5300 C   0  0  1  0  0  0  0  0  0  0  0  0
    2.4450    0.3400   -0.5340 C   0  0  0  0  0  0  0  0  0  0  0  0
    2.7350    0.4250   -2.0200 C   0  0  0  0  0  0  0  0  0  0  0  0
    2.6080   -0.9970   -2.5300 C   0  0  0  0  0  0  0  0  0  0  0  0
    2.2040   -1.8290   -1.3110 C   0  0  0  0  0  0  0  0  0  0  0  0
  1  2  1  0
  2  3  2  3
  3  4  1  0
  3  9  1  0
  4  5  2  0
  4  6  1  0
  6  7  2  0
  7  8  1  0
  8  9  2  0
  9 10  1  0
 10 11  2  0
 10 12  2  0
 10 13  1  6
 14 13  1  1
 14 15  1  0
 14 18  1  0
 15 16  1  0
 16 17  1  0
 17 18  1  0
M  END
