
     RDKit          3D

 13 14  0  0  0  0  0  0  0  0999 V2000
    4.2440   -0.5020   -0.0570 C   0  0  0  0  0  0  0  0  0  0  0  0
    2.7580   -0.3890   -0.0260 C   0  0  0  0  0  0  0  0  0  0  0  0
    2.1410    0.8330   -0.1810 C   0  0  0  0  0  0  0  0  0  0  0  0
    0.7450    0.9350   -0.1520 C   0  0  0  0  0  0  0  0  0  0  0  0
    0.2400    2.2080   -0.3180 O   0  0  0  0  0  0  0  0  0  0  0  0
   -0.0190   -0.1800    0.0320 C   0  0  0  0  0  0  0  0  0  0  0  0
   -1.4780   -0.0890    0.0660 C   0  0  0  0  0  0  0  0  0  0  0  0
   -2.2980   -1.1370    0.2420 C   0  0  0  0  0  0  0  0  0  0  0  0
   -3.7050   -0.6950    0.2230 C   0  0  0  0  0  0  0  0  0  0  0  0
   -3.6070    0.7570    0.0120 C   0  0  0  0  0  0  0  0  0  0  0  0
   -2.3220    1.0850   -0.0760 C   0  0  0  0  0  0  0  0  0  0  0  0
    0.6080   -1.3910    0.1850 C   0  0  0  0  0  0  0  0  0  0  0  0
    1.9680   -1.4540    0.1510 N   0  0  0  0  0  0  0  0  0  0  0  0
  1  2  1  0
  2  3  2  0
  2 13  1  0
  3  4  1  0
  4  5  1  0
  4  6  2  0
  6  7  1  0
  6 12  1  0
  7  8  2  0
  7 11  1  0
  8  9  1  0
  9 10  1  0
 10 11  2  0
 12 13  2  0
M  END
