
     RDKit          3D

 15 14  0  0  0  0  0  0  0  0999 V2000
   -2.5480    0.8060   -1.8850 C   0  0  0  0  0  0  0  0  0  0  0  0
   -1.2580    0.3120   -1.3560 C   0  0  0  0  0  0  0  0  0  0  0  0
   -1.1610   -0.0700    0.0610 C   0  0  1  0  0  0  0  0  0  0  0  0
   -1.4870    1.0730    0.9900 C   0  0  0  0  0  0  0  0  0  0  0  0
   -0.7190    2.1940    0.8440 O   0  0  0  0  0  0  0  0  0  0  0  0
   -2.0900   -1.1340    0.3660 N   0  0  0  0  0  0  0  0  0  0  0  0
   -3.4700   -0.9190    0.2560 C   0  0  0  0  0  0  0  0  0  0  0  0
    0.1810   -0.6630    0.4530 C   0  0  2  0  0  0  0  0  0  0  0  0
    0.4930   -1.9380   -0.3280 C   0  0  0  0  0  0  0  0  0  0  0  0
    0.1060   -1.2000    1.9020 C   0  0  0  0  0  0  0  0  0  0  0  0
    1.3000   -1.9120    2.0540 O   0  0  0  0  0  0  0  0  0  0  0  0
    1.3260    0.1510    0.3760 N   0  0  0  0  0  0  0  0  0  0  0  0
    2.1110    0.0310   -0.8550 C   0  0  0  0  0  0  0  0  0  0  0  0
    2.9850    1.2660   -0.9310 C   0  0  0  0  0  0  0  0  0  0  0  0
    3.8870    1.3990    0.1750 N   0  0  0  0  0  0  0  0  0  0  0  0
  1  2  1  0
  3  2  1  6
  3  4  1  0
  3  6  1  0
  3  8  1  0
  4  5  1  0
  6  7  1  0
  8  9  1  6
  8 10  1  0
  8 12  1  0
 10 11  1  0
 12 13  1  0
 13 14  1  0
 14 15  1  0
M  CHG  2  12   1  15   1
M  END
