
     RDKit          3D

 15 14  0  0  0  0  0  0  0  0999 V2000
   -2.6430   -2.3060    1.8360 C   0  0  0  0  0  0  0  0  0  0  0  0
   -2.9280   -1.1510    1.3180 C   0  0  0  0  0  0  0  0  0  0  0  0
   -1.9340   -0.4300    0.5080 C   0  0  0  0  0  0  0  0  0  0  0  0
   -2.2810    0.7300    0.0090 C   0  0  0  0  0  0  0  0  0  0  0  0
   -3.5680    1.3990    0.1700 C   0  0  0  0  0  0  0  0  0  0  0  0
   -3.4120    2.6990    0.8370 N   0  0  0  0  0  0  0  0  0  0  0  0
   -0.6600   -1.0170    0.3060 N   0  0  0  0  0  0  0  0  0  0  0  0
    0.4130   -0.4880   -0.4310 C   0  0  0  0  0  0  0  0  0  0  0  0
    0.3170    0.6080   -0.9970 O   0  0  0  0  0  0  0  0  0  0  0  0
    1.7190   -1.2380   -0.5560 C   0  0  1  0  0  0  0  0  0  0  0  0
    1.3620   -2.5920   -1.1250 C   0  0  0  0  0  0  0  0  0  0  0  0
    2.5870   -0.5120   -1.2530 O   0  0  0  0  0  0  0  0  0  0  0  0
    3.7680   -0.1270   -0.7570 C   0  0  0  0  0  0  0  0  0  0  0  0
    3.6050    0.7310    0.4710 C   0  0  0  0  0  0  0  0  0  0  0  0
    2.8630    1.9300    0.1920 N   0  0  0  0  0  0  0  0  0  0  0  0
  1  2  2  0
  2  3  1  0
  3  4  2  3
  3  7  1  0
  4  5  1  0
  5  6  1  0
  7  8  1  0
  8  9  2  0
  8 10  1  0
 10 11  1  6
 10 12  1  0
 12 13  1  0
 13 14  1  0
 14 15  1  0
M  CHG  2   6   1  15   1
M  END
