
     RDKit          3D

 15 14  0  0  0  0  0  0  0  0999 V2000
    5.5030    0.7960    0.1410 C   0  0  0  0  0  0  0  0  0  0  0  0
    4.1890    0.3910    0.7180 C   0  0  0  0  0  0  0  0  0  0  0  0
    3.1510    0.4700   -0.2340 O   0  0  0  0  0  0  0  0  0  0  0  0
    2.0170    0.0570    0.4250 C   0  0  0  0  0  0  0  0  0  0  0  0
    0.7710    0.0720   -0.4990 C   0  0  1  0  0  0  0  0  0  0  0  0
    1.1970   -0.8070   -1.6590 C   0  0  0  0  0  0  0  0  0  0  0  0
    1.6430   -2.0590   -1.2700 O   0  0  0  0  0  0  0  0  0  0  0  0
   -0.2840   -0.3760    0.2920 N   0  0  0  0  0  0  0  0  0  0  0  0
   -1.6310    0.0460    0.0230 C   0  0  1  0  0  0  0  0  0  0  0  0
   -2.1410   -0.4280   -1.3190 C   0  0  0  0  0  0  0  0  0  0  0  0
   -2.1680   -1.9030   -1.4920 C   0  0  0  0  0  0  0  0  0  0  0  0
   -2.4630   -0.6190    1.0900 C   0  0  0  0  0  0  0  0  0  0  0  0
   -3.8470   -0.3730    1.0880 N   0  0  0  0  0  0  0  0  0  0  0  0
   -1.8020    1.5400   -0.0120 C   0  0  0  0  0  0  0  0  0  0  0  0
   -1.4660    2.2310    1.1890 N   0  0  0  0  0  0  0  0  0  0  0  0
  1  2  1  0
  2  3  1  0
  3  4  1  0
  5  4  1  1
  5  6  1  0
  5  8  1  0
  6  7  1  0
  8  9  1  0
  9 10  1  6
  9 12  1  0
  9 14  1  0
 10 11  1  0
 12 13  1  0
 14 15  1  0
M  CHG  2  13   1  15   1
M  END
