
     RDKit          3D

 13 14  0  0  0  0  0  0  0  0999 V2000
   -3.9340   -0.2460    0.1580 C   0  0  0  0  0  0  0  0  0  0  0  0
   -2.6890    0.5420    0.1070 C   0  0  0  0  0  0  0  0  0  0  0  0
   -2.7530    1.7870    0.1530 O   0  0  0  0  0  0  0  0  0  0  0  0
   -1.3930   -0.1020    0.0060 C   0  0  0  0  0  0  0  0  0  0  0  0
   -1.1250   -1.4720   -0.0570 C   0  0  0  0  0  0  0  0  0  0  0  0
    0.2130   -1.6530   -0.1460 N   0  0  0  0  0  0  0  0  0  0  0  0
    0.8320   -0.4690   -0.1440 C   0  0  0  0  0  0  0  0  0  0  0  0
    2.1570   -0.1100   -0.2150 C   0  0  0  0  0  0  0  0  0  0  0  0
    3.2510   -1.1240   -0.3160 C   0  0  0  0  0  0  0  0  0  0  0  0
    2.5110    1.2310   -0.1920 C   0  0  0  0  0  0  0  0  0  0  0  0
    1.5500    2.1880   -0.1000 C   0  0  0  0  0  0  0  0  0  0  0  0
    0.2080    1.8100   -0.0300 C   0  0  0  0  0  0  0  0  0  0  0  0
   -0.1400    0.4750   -0.0530 C   0  0  0  0  0  0  0  0  0  0  0  0
  1  2  1  0
  2  3  2  0
  2  4  1  0
  4  5  2  0
  4 13  1  0
  5  6  1  0
  6  7  1  0
  7  8  2  0
  7 13  1  0
  8  9  1  0
  8 10  1  0
 10 11  2  0
 11 12  1  0
 12 13  2  0
M  END
