
     RDKit          3D

 15 14  0  0  0  0  0  0  0  0999 V2000
    2.9150    1.3360    1.2780 C   0  0  0  0  0  0  0  0  0  0  0  0
    2.6810    0.3370    0.1590 C   0  0  1  0  0  0  0  0  0  0  0  0
    1.9160    0.9870   -0.9360 C   0  0  0  0  0  0  0  0  0  0  0  0
    4.0880    0.0180   -0.3990 C   0  0  0  0  0  0  0  0  0  0  0  0
    4.6900    1.1820   -0.8770 O   0  0  0  0  0  0  0  0  0  0  0  0
    2.1540   -0.9470    0.6790 C   0  0  0  0  0  0  0  0  0  0  0  0
    0.8730   -0.9240    1.4160 C   0  0  0  0  0  0  0  0  0  0  0  0
   -0.2810   -0.4630    0.7250 N   0  0  0  0  0  0  0  0  0  0  0  0
   -0.7620   -1.4780   -0.2250 C   0  0  0  0  0  0  0  0  0  0  0  0
   -1.8720   -0.8540   -1.0190 C   0  0  2  0  0  0  0  0  0  0  0  0
   -1.4540    0.2700   -1.7240 O   0  0  0  0  0  0  0  0  0  0  0  0
   -3.0570   -0.4310   -0.1670 C   0  0  0  0  0  0  0  0  0  0  0  0
   -4.0870    0.0460   -1.0650 N   0  0  0  0  0  0  0  0  0  0  0  0
   -5.3120    0.4920   -0.5050 C   0  0  0  0  0  0  0  0  0  0  0  0
   -5.3230    1.0470    0.6450 N   0  0  0  0  0  0  0  0  0  0  0  0
  2  1  1  1
  2  3  1  0
  2  4  1  0
  2  6  1  0
  4  5  1  0
  6  7  1  0
  7  8  1  0
  8  9  1  0
  9 10  1  0
 10 11  1  1
 10 12  1  0
 12 13  1  0
 13 14  1  0
 14 15  2  0
M  CHG  2   8   1  15   1
M  END
