
     RDKit          3D

 15 14  0  0  0  0  0  0  0  0999 V2000
   -1.2900   -2.1390    1.3320 C   0  0  0  0  0  0  0  0  0  0  0  0
   -1.1050   -0.7010    1.2730 C   0  0  0  0  0  0  0  0  0  0  0  0
   -0.9480   -0.0080   -0.0400 C   0  0  1  0  0  0  0  0  0  0  0  0
   -2.1090   -0.0950   -0.9510 C   0  0  0  0  0  0  0  0  0  0  0  0
   -2.6180   -1.3300   -1.3800 N   0  0  0  0  0  0  0  0  0  0  0  0
   -0.7820    1.4890    0.3240 C   0  0  0  0  0  0  0  0  0  0  0  0
   -1.9220    2.0580    1.0980 C   0  0  0  0  0  0  0  0  0  0  0  0
   -1.5810    3.4280    1.3220 O   0  0  0  0  0  0  0  0  0  0  0  0
    0.3860   -0.2590   -0.6950 C   0  0  2  0  0  0  0  0  0  0  0  0
    0.7710   -1.6410   -1.0240 C   0  0  0  0  0  0  0  0  0  0  0  0
    1.8070   -1.5290   -2.0240 O   0  0  0  0  0  0  0  0  0  0  0  0
    1.4920    0.5020   -0.1880 N   0  0  0  0  0  0  0  0  0  0  0  0
    2.2250    1.1010   -1.2580 C   0  0  0  0  0  0  0  0  0  0  0  0
    2.2790   -0.0290    0.8370 C   0  0  0  0  0  0  0  0  0  0  0  0
    3.5940    0.6410    1.0080 N   0  0  0  0  0  0  0  0  0  0  0  0
  1  2  1  0
  3  2  1  1
  3  4  1  0
  3  6  1  0
  3  9  1  0
  4  5  1  0
  6  7  1  0
  7  8  1  0
  9 10  1  1
  9 12  1  0
 10 11  1  0
 12 13  1  0
 12 14  1  0
 14 15  1  0
M  CHG  2   5   1  15   1
M  END
