
     RDKit          3D

 20 22  0  0  0  0  0  0  0  0999 V2000
    4.1700    0.7630    2.6040 N   0  0  0  0  0  0  0  0  0  0  0  0
    3.8120    0.4990    1.2390 C   0  0  0  0  0  0  0  0  0  0  0  0
    2.5230    0.4880    0.8670 N   0  0  0  0  0  0  0  0  0  0  0  0
    2.1260    0.2460   -0.3970 C   0  0  0  0  0  0  0  0  0  0  0  0
    0.8810    0.1900   -0.9750 C   0  0  0  0  0  0  0  0  0  0  0  0
   -0.3910    0.4070   -0.2390 C   0  0  0  0  0  0  0  0  0  0  0  0
   -1.5330    0.2840   -1.1150 N   0  0  1  0  0  0  0  0  0  0  0  0
   -1.9770   -1.0980   -1.1630 C   0  0  0  0  0  0  0  0  0  0  0  0
   -2.6770   -1.2800    0.1610 C   0  0  2  0  0  0  0  0  0  0  0  0
   -3.6360   -2.3070    0.0200 O   0  0  0  0  0  0  0  0  0  0  0  0
   -3.3410    0.0500    0.4110 C   0  0  1  0  0  0  0  0  0  0  0  0
   -3.1340    0.5120    1.8430 C   0  0  0  0  0  0  0  0  0  0  0  0
   -3.6980   -0.4590    2.6790 O   0  0  0  0  0  0  0  0  0  0  0  0
   -2.7020    0.9570   -0.5900 C   0  0  0  0  0  0  0  0  0  0  0  0
    1.1020   -0.0960   -2.3030 C   0  0  0  0  0  0  0  0  0  0  0  0
    2.4470   -0.2070   -2.5060 N   0  0  0  0  0  0  0  0  0  0  0  0
    3.1030   -0.0020   -1.3570 C   0  0  0  0  0  0  0  0  0  0  0  0
    4.4320    0.0070   -0.9870 C   0  0  0  0  0  0  0  0  0  0  0  0
    5.3330   -0.2150   -1.8360 O   0  0  0  0  0  0  0  0  0  0  0  0
    4.7390    0.2570    0.2980 N   0  0  0  0  0  0  0  0  0  0  0  0
  1  2  1  0
  2  3  1  0
  2 20  2  0
  3  4  1  0
  4  5  1  0
  4 17  2  0
  5  6  1  0
  5 15  2  0
  7  6  1  1
  7  8  1  0
  7 14  1  0
  8  9  1  0
  9 10  1  6
  9 11  1  0
 11 12  1  1
 11 14  1  0
 12 13  1  0
 15 16  1  0
 16 17  1  0
 17 18  1  0
 18 19  2  0
 18 20  1  0
M  CHG  2   7   1  20   1
M  END
