
     RDKit          3D

 16 17  0  0  0  0  0  0  0  0999 V2000
   -3.6820    1.3630    0.0030 C   0  0  0  0  0  0  0  0  0  0  0  0
   -2.3230    0.7540   -0.0190 C   0  0  0  0  0  0  0  0  0  0  0  0
   -1.2780    1.5440    0.0720 C   0  0  0  0  0  0  0  0  0  0  0  0
    0.0730    1.2180    0.0740 O   0  0  0  0  0  0  0  0  0  0  0  0
    0.6770   -0.0210   -0.0620 C   0  0  0  0  0  0  0  0  0  0  0  0
    0.0940   -1.2010   -0.1860 C   0  0  0  0  0  0  0  0  0  0  0  0
   -1.3300   -1.5510   -0.2170 C   0  0  0  0  0  0  0  0  0  0  0  0
   -2.3270   -0.7180   -0.1460 C   0  0  0  0  0  0  0  0  0  0  0  0
   -3.6090   -1.3110   -0.1990 N   0  0  0  0  0  0  0  0  0  0  0  0
    1.1370   -2.2100   -0.2990 C   0  0  0  0  0  0  0  0  0  0  0  0
    0.9200   -3.4410   -0.4300 O   0  0  0  0  0  0  0  0  0  0  0  0
    2.3490   -1.5360   -0.2320 O   0  0  0  0  0  0  0  0  0  0  0  0
    2.1370   -0.1560   -0.0820 C   0  0  0  0  0  0  0  0  0  0  0  0
    3.0540    0.7850    0.0150 C   0  0  0  0  0  0  0  0  0  0  0  0
    4.4700    0.4320   -0.0290 C   0  0  0  0  0  0  0  0  0  0  0  0
    5.1800    0.7860    1.1030 O   0  0  0  0  0  0  0  0  0  0  0  0
  1  2  1  0
  2  3  2  0
  2  8  1  0
  3  4  1  0
  4  5  1  0
  5  6  2  0
  5 13  1  0
  6  7  1  0
  6 10  1  0
  7  8  2  0
  8  9  1  0
 10 11  2  0
 10 12  1  0
 12 13  1  0
 13 14  2  3
 14 15  1  0
 15 16  1  0
M  END
