
     RDKit          3D

 16 17  0  0  0  0  0  0  0  0999 V2000
   -3.7280    0.0180   -0.2340 C   0  0  0  0  0  0  0  0  0  0  0  0
   -2.2390    0.1600   -0.2790 C   0  0  0  0  0  0  0  0  0  0  0  0
   -1.6350    1.2070   -0.9430 C   0  0  0  0  0  0  0  0  0  0  0  0
   -0.2650    1.2840   -0.9490 C   0  0  0  0  0  0  0  0  0  0  0  0
    0.5730    0.3490   -0.3130 C   0  0  0  0  0  0  0  0  0  0  0  0
   -0.0500   -0.6900    0.3450 C   0  0  0  0  0  0  0  0  0  0  0  0
   -1.4220   -0.7580    0.3450 C   0  0  0  0  0  0  0  0  0  0  0  0
   -1.9940   -1.8690    1.0520 N   0  0  0  0  0  0  0  0  0  0  0  0
    2.0120    0.4410   -0.3250 C   0  0  0  0  0  0  0  0  0  0  0  0
    2.8690   -0.3470    0.2140 C   0  0  0  0  0  0  0  0  0  0  0  0
    3.0900   -1.4970    0.9680 C   0  0  0  0  0  0  0  0  0  0  0  0
    4.3630   -1.8050    1.2090 O   0  0  0  0  0  0  0  0  0  0  0  0
    2.2750   -2.4030    1.5310 O   0  0  0  0  0  0  0  0  0  0  0  0
    2.4960    1.5790   -1.0500 O   0  0  0  0  0  0  0  0  0  0  0  0
    1.6600    2.7200   -1.0980 C   0  0  0  0  0  0  0  0  0  0  0  0
    0.4000    2.3250   -1.6080 O   0  0  0  0  0  0  0  0  0  0  0  0
  1  2  1  0
  2  3  2  0
  2  7  1  0
  3  4  1  0
  4  5  2  0
  4 16  1  0
  5  6  1  0
  5  9  1  0
  6  7  2  0
  7  8  1  0
  9 10  2  3
  9 14  1  0
 10 11  1  0
 11 12  2  0
 11 13  1  0
 14 15  1  0
 15 16  1  0
M  END
