
     RDKit          3D

 15 16  0  0  0  0  0  0  0  0999 V2000
   -2.3200   -2.0920   -1.9210 O   0  0  0  0  0  0  0  0  0  0  0  0
   -2.2880   -1.2120   -1.0150 C   0  0  0  0  0  0  0  0  0  0  0  0
   -3.4970   -0.7390   -0.2890 C   0  0  0  0  0  0  0  0  0  0  0  0
   -3.4080    0.6570   -0.2380 O   0  0  0  0  0  0  0  0  0  0  0  0
   -2.4230    1.0580    0.6550 C   0  0  0  0  0  0  0  0  0  0  0  0
   -1.1020    0.5380    0.2810 C   0  0  0  0  0  0  0  0  0  0  0  0
   -0.1040    1.1910    0.8330 C   0  0  0  0  0  0  0  0  0  0  0  0
    1.3270    0.9300    0.6680 C   0  0  0  0  0  0  0  0  0  0  0  0
    2.1960    1.7070    1.4530 O   0  0  0  0  0  0  0  0  0  0  0  0
    1.9880    0.0760   -0.1000 C   0  0  0  0  0  0  0  0  0  0  0  0
    3.4820    0.1020    0.0120 C   0  0  0  0  0  0  0  0  0  0  0  0
    3.8810   -1.1870    0.4310 O   0  0  0  0  0  0  0  0  0  0  0  0
    1.4370   -0.8620   -1.0170 N   0  0  0  0  0  0  0  0  0  0  0  0
    0.0360   -1.1760   -1.1600 C   0  0  0  0  0  0  0  0  0  0  0  0
   -1.0230   -0.5990   -0.6250 C   0  0  0  0  0  0  0  0  0  0  0  0
  1  2  2  0
  2  3  1  0
  2 15  1  0
  3  4  1  0
  4  5  1  0
  5  6  1  0
  6  7  2  0
  6 15  1  0
  7  8  1  0
  8  9  1  0
  8 10  2  0
 10 11  1  0
 10 13  1  0
 11 12  1  0
 13 14  1  0
 14 15  2  0
M  END
