
     RDKit          3D

 16 17  0  0  0  0  0  0  0  0999 V2000
   -3.3340    1.0000   -0.7720 N   0  0  0  0  0  0  0  0  0  0  0  0
   -2.0170    0.6150   -0.4160 C   0  0  0  0  0  0  0  0  0  0  0  0
   -1.0280    1.3070   -1.0250 C   0  0  0  0  0  0  0  0  0  0  0  0
    0.3300    0.9500   -0.6930 C   0  0  0  0  0  0  0  0  0  0  0  0
    0.6880    0.0220    0.1400 C   0  0  0  0  0  0  0  0  0  0  0  0
    2.0760   -0.3160    0.4540 C   0  0  0  0  0  0  0  0  0  0  0  0
    2.4780   -1.2500    1.2920 O   0  0  0  0  0  0  0  0  0  0  0  0
    3.7790   -1.3160    1.3640 C   0  0  0  0  0  0  0  0  0  0  0  0
    4.3290   -0.3720    0.5260 C   0  0  0  0  0  0  0  0  0  0  0  0
    3.2200    0.2630   -0.0510 C   0  0  0  0  0  0  0  0  0  0  0  0
    3.3570    1.2790   -0.9570 O   0  0  0  0  0  0  0  0  0  0  0  0
   -0.3180   -0.6940    0.7690 O   0  0  0  0  0  0  0  0  0  0  0  0
   -1.6810   -0.4260    0.5160 C   0  0  0  0  0  0  0  0  0  0  0  0
   -2.5880   -1.1350    1.1410 C   0  0  0  0  0  0  0  0  0  0  0  0
   -4.0210   -1.0500    1.0520 C   0  0  0  0  0  0  0  0  0  0  0  0
   -4.6920   -1.8880    1.7930 O   0  0  0  0  0  0  0  0  0  0  0  0
  1  2  1  0
  2  3  2  0
  2 13  1  0
  3  4  1  0
  4  5  2  0
  5  6  1  0
  5 12  1  0
  6  7  1  0
  6 10  2  0
  7  8  1  0
  8  9  2  0
  9 10  1  0
 10 11  1  0
 12 13  1  0
 13 14  2  3
 14 15  1  0
 15 16  2  0
M  END
