
     RDKit          3D

 26 28  0  0  0  0  0  0  0  0999 V2000
   -6.6940    2.8680   -0.7430 C   0  0  0  0  0  0  0  0  0  0  0  0
   -5.9530    1.7870   -0.2110 O   0  0  0  0  0  0  0  0  0  0  0  0
   -5.0940    1.0430   -1.0340 C   0  0  0  0  0  0  0  0  0  0  0  0
   -5.0340    1.3960   -2.2320 O   0  0  0  0  0  0  0  0  0  0  0  0
   -4.3230   -0.0760   -0.4850 C   0  0  0  0  0  0  0  0  0  0  0  0
   -3.4410   -0.8580   -1.2120 C   0  0  0  0  0  0  0  0  0  0  0  0
   -2.9310   -1.7630   -0.3640 N   0  0  0  0  0  0  0  0  0  0  0  0
   -1.9390   -2.8040   -0.6870 C   0  0  0  0  0  0  0  0  0  0  0  0
   -0.5600   -2.2420   -0.4870 C   0  0  0  0  0  0  0  0  0  0  0  0
    0.0020   -2.1360    0.7620 C   0  0  0  0  0  0  0  0  0  0  0  0
    1.2620   -1.6140    0.9610 C   0  0  0  0  0  0  0  0  0  0  0  0
    2.0140   -1.1730   -0.1330 C   0  0  0  0  0  0  0  0  0  0  0  0
    3.3100   -0.6180    0.1300 N   0  0  0  0  0  0  0  0  0  0  0  0
    4.1720   -1.3530    0.9990 C   0  0  0  0  0  0  0  0  0  0  0  0
    3.6680    0.5920   -0.4700 C   0  0  0  0  0  0  0  0  0  0  0  0
    2.7670    1.0510   -1.2930 O   0  0  0  0  0  0  0  0  0  0  0  0
    4.8790    1.3620   -0.2870 C   0  0  0  0  0  0  0  0  0  0  0  0
    5.9080    1.1450    0.4570 C   0  0  0  0  0  0  0  0  0  0  0  0
    6.9340    2.2490    0.3070 C   0  0  0  0  0  0  0  0  0  0  0  0
    6.2960    3.1380   -0.6640 C   0  0  0  0  0  0  0  0  0  0  0  0
    5.1390    2.6240   -0.9870 C   0  0  0  0  0  0  0  0  0  0  0  0
    1.4630   -1.2780   -1.3770 C   0  0  0  0  0  0  0  0  0  0  0  0
    0.1810   -1.8090   -1.5650 C   0  0  0  0  0  0  0  0  0  0  0  0
   -3.4680   -1.5540    0.8280 N   0  0  0  0  0  0  0  0  0  0  0  0
   -4.3230   -0.5400    0.8130 C   0  0  0  0  0  0  0  0  0  0  0  0
   -5.1290    0.0070    1.9490 C   0  0  0  0  0  0  0  0  0  0  0  0
  1  2  1  0
  2  3  1  0
  3  4  2  0
  3  5  1  0
  5  6  2  0
  5 25  1  0
  6  7  1  0
  7  8  1  0
  7 24  1  0
  8  9  1  0
  9 10  2  0
  9 23  1  0
 10 11  1  0
 11 12  2  0
 12 13  1  0
 12 22  1  0
 13 14  1  0
 13 15  1  0
 15 16  2  0
 15 17  1  0
 17 18  2  0
 17 21  1  0
 18 19  1  0
 19 20  1  0
 20 21  2  0
 22 23  2  0
 24 25  2  0
 25 26  1  0
M  CHG  1  24   1
M  END
