
     RDKit          3D

 26 28  0  0  0  0  0  0  0  0999 V2000
   -6.9520   -1.3650   -0.1780 C   0  0  0  0  0  0  0  0  0  0  0  0
   -6.1690   -1.1350    1.0960 C   0  0  0  0  0  0  0  0  0  0  0  0
   -4.8500   -0.4970    0.7960 C   0  0  0  0  0  0  0  0  0  0  0  0
   -3.6510   -1.0400    0.7790 N   0  0  0  0  0  0  0  0  0  0  0  0
   -2.7140   -0.1260    0.4640 N   0  0  0  0  0  0  0  0  0  0  0  0
   -1.3200   -0.4630    0.3170 C   0  0  0  0  0  0  0  0  0  0  0  0
   -1.1310   -1.7410    0.2650 O   0  0  0  0  0  0  0  0  0  0  0  0
   -0.2740    0.4660    0.2450 C   0  0  0  0  0  0  0  0  0  0  0  0
    0.9890    0.3660    0.0640 C   0  0  0  0  0  0  0  0  0  0  0  0
    1.9430   -0.6890   -0.1490 C   0  0  0  0  0  0  0  0  0  0  0  0
    1.6220   -2.1170   -0.2240 C   0  0  0  0  0  0  0  0  0  0  0  0
    2.8160   -2.8640   -0.4540 O   0  0  0  0  0  0  0  0  0  0  0  0
    2.3810   -4.2030   -0.5050 C   0  0  0  0  0  0  0  0  0  0  0  0
    3.2360   -0.3550   -0.3020 C   0  0  0  0  0  0  0  0  0  0  0  0
    3.6170    1.0620   -0.2480 C   0  0  0  0  0  0  0  0  0  0  0  0
    5.0380    1.1710   -0.5370 N   0  0  1  0  0  0  0  0  0  0  0  0
    5.4400    2.5240   -0.1450 C   0  0  0  0  0  0  0  0  0  0  0  0
    5.8300    0.2690    0.2740 C   0  0  0  0  0  0  0  0  0  0  0  0
    5.5370   -1.1770   -0.0810 C   0  0  0  0  0  0  0  0  0  0  0  0
    4.1810   -1.3140   -0.5040 O   0  0  0  0  0  0  0  0  0  0  0  0
   -3.3320    1.0310    0.2700 C   0  0  0  0  0  0  0  0  0  0  0  0
   -2.9400    2.3120   -0.1030 C   0  0  0  0  0  0  0  0  0  0  0  0
   -3.8560    3.3280   -0.2520 C   0  0  0  0  0  0  0  0  0  0  0  0
   -5.2080    3.1130   -0.0380 C   0  0  0  0  0  0  0  0  0  0  0  0
   -5.6160    1.8500    0.3270 C   0  0  0  0  0  0  0  0  0  0  0  0
   -4.7060    0.8310    0.4770 C   0  0  0  0  0  0  0  0  0  0  0  0
  1  2  1  0
  2  3  1  0
  3  4  2  0
  3 26  1  0
  4  5  1  0
  5  6  1  0
  5 21  1  0
  6  7  2  0
  6  8  1  0
  8  9  2  3
  9 10  1  0
 10 11  1  0
 10 14  2  3
 11 12  1  0
 12 13  1  0
 14 15  1  0
 14 20  1  0
 15 16  1  0
 16 17  1  1
 16 18  1  0
 18 19  1  0
 19 20  1  0
 21 22  2  0
 21 26  1  0
 22 23  1  0
 23 24  2  0
 24 25  1  0
 25 26  2  0
M  CHG  1  16   1
M  END
