
     RDKit          3D

 26 28  0  0  0  0  0  0  0  0999 V2000
    1.6380   -3.1700    2.6130 C   0  0  0  0  0  0  0  0  0  0  0  0
    2.0400   -2.0610    1.8720 O   0  0  0  0  0  0  0  0  0  0  0  0
    1.3070   -1.1340    1.2120 C   0  0  0  0  0  0  0  0  0  0  0  0
   -0.0910   -1.1300    1.1360 C   0  0  0  0  0  0  0  0  0  0  0  0
   -0.7530   -0.1660    0.4700 C   0  0  0  0  0  0  0  0  0  0  0  0
   -2.1840   -0.1220    0.1870 C   0  0  0  0  0  0  0  0  0  0  0  0
   -2.6470   -0.7320   -0.9610 C   0  0  0  0  0  0  0  0  0  0  0  0
   -3.9360   -0.5240   -1.3700 N   0  0  0  0  0  0  0  0  0  0  0  0
   -4.4210   -1.1310   -2.6000 C   0  0  0  0  0  0  0  0  0  0  0  0
   -4.7940    0.2530   -0.6930 C   0  0  0  0  0  0  0  0  0  0  0  0
   -5.9880    0.4730   -1.0340 O   0  0  0  0  0  0  0  0  0  0  0  0
   -4.3740    0.8800    0.4750 C   0  0  0  0  0  0  0  0  0  0  0  0
   -5.2200    1.6600    1.2300 C   0  0  0  0  0  0  0  0  0  0  0  0
   -4.7170    2.1860    2.3450 N   0  0  0  0  0  0  0  0  0  0  0  0
   -3.4840    2.0150    2.7730 C   0  0  0  0  0  0  0  0  0  0  0  0
   -2.6250    1.2360    2.0380 C   0  0  0  0  0  0  0  0  0  0  0  0
   -3.0660    0.6720    0.8880 C   0  0  0  0  0  0  0  0  0  0  0  0
   -0.0420    0.8780   -0.1690 C   0  0  0  0  0  0  0  0  0  0  0  0
    1.3040    0.9110   -0.1200 C   0  0  0  0  0  0  0  0  0  0  0  0
    1.9870    1.9350   -0.7140 O   0  0  0  0  0  0  0  0  0  0  0  0
    1.3730    2.9960   -1.3540 C   0  0  0  0  0  0  0  0  0  0  0  0
    1.9670   -0.1150    0.5680 C   0  0  0  0  0  0  0  0  0  0  0  0
    3.4760   -0.1280    0.5130 C   0  0  0  0  0  0  0  0  0  0  0  0
    3.8820   -0.3540   -0.8510 N   0  0  1  0  0  0  0  0  0  0  0  0
    4.5610    0.5700   -1.6250 C   0  0  0  0  0  0  0  0  0  0  0  0
    4.6910   -1.6170   -0.8690 C   0  0  0  0  0  0  0  0  0  0  0  0
  1  2  1  0
  2  3  1  0
  3  4  2  0
  3 22  1  0
  4  5  1  0
  5  6  1  0
  5 18  2  0
  6  7  2  0
  6 17  1  0
  7  8  1  0
  8  9  1  0
  8 10  1  0
 10 11  2  0
 10 12  1  0
 12 13  2  0
 12 17  1  0
 13 14  1  0
 14 15  2  0
 15 16  1  0
 16 17  2  0
 18 19  1  0
 19 20  1  0
 19 22  2  0
 20 21  1  0
 22 23  1  0
 23 24  1  0
 24 25  1  1
 24 26  1  0
M  CHG  1  24   1
M  END
