
     RDKit          3D

 13 14  0  0  0  0  0  0  0  0999 V2000
   -0.9790    2.2750   -0.5600 O   0  0  0  0  0  0  0  0  0  0  0  0
   -1.6680    1.3970   -0.0170 C   0  0  0  0  0  0  0  0  0  0  0  0
   -2.9300    1.7840    0.4550 O   0  0  0  0  0  0  0  0  0  0  0  0
   -1.2630   -0.0200    0.1710 C   0  0  1  0  0  0  0  0  0  0  0  0
   -2.2520   -0.8510   -0.6210 C   0  0  0  0  0  0  0  0  0  0  0  0
   -1.2070   -2.3270   -0.9530 S   0  0  0  0  0  0  0  0  0  0  0  0
    0.3820   -1.5800   -0.4020 C   0  0  2  0  0  0  0  0  0  0  0  0
    0.6710   -2.0820    0.9660 C   0  0  0  0  0  0  0  0  0  0  0  0
    1.6390   -0.6520    1.6050 S   0  0  0  0  0  0  0  0  0  0  0  0
    0.9860    0.5430    0.3690 C   0  0  1  0  0  0  0  0  0  0  0  0
    2.1120    1.1060   -0.4610 C   0  0  0  0  0  0  0  0  0  0  0  0
    3.3150    1.9680    0.5890 S   0  0  0  0  0  0  0  0  0  0  0  0
    0.0340   -0.2030   -0.3680 N   0  0  2  0  0  0  0  0  0  0  0  0
  1  2  2  0
  2  3  1  0
  4  2  1  6
  4  5  1  0
 13  4  1  1
  5  6  1  0
  6  7  1  0
  7  8  1  1
  7 13  1  0
  8  9  1  0
  9 10  1  0
 10 11  1  6
 10 13  1  0
 11 12  1  0
M  CHG  1  13   1
M  END
