
     RDKit          3D

 13 14  0  0  0  0  0  0  0  0999 V2000
    3.2680   -0.5630   -0.7800 C   0  0  0  0  0  0  0  0  0  0  0  0
    2.2630    0.3010   -0.0280 C   0  0  1  0  0  0  0  0  0  0  0  0
    1.0680    0.9100   -1.2610 S   0  0  0  0  0  0  0  0  0  0  0  0
   -0.5680    0.9130   -0.4300 C   0  0  1  0  0  0  0  0  0  0  0  0
   -1.6840    0.9330   -1.4220 C   0  0  0  0  0  0  0  0  0  0  0  0
   -3.0280    0.2760   -0.4220 S   0  0  1  0  0  0  0  0  0  0  0  0
   -3.8400    1.3750    0.1760 O   0  0  0  0  0  0  0  0  0  0  0  0
   -3.8690   -0.6700   -1.2180 O   0  0  0  0  0  0  0  0  0  0  0  0
   -2.0480   -0.5690    0.8030 C   0  0  0  0  0  0  0  0  0  0  0  0
   -0.6470   -0.3390    0.3640 C   0  0  2  0  0  0  0  0  0  0  0  0
    0.2750   -0.1930    1.5020 N   0  0  0  0  0  0  0  0  0  0  0  0
    1.5940   -0.4780    1.0450 C   0  0  0  0  0  0  0  0  0  0  0  0
    2.3410   -1.5610    1.6260 S   0  0  0  0  0  0  0  0  0  0  0  0
  2  1  1  6
  2  3  1  0
  2 12  1  0
  3  4  1  0
  4  5  1  6
  4 10  1  0
  6  5  1  6
  6  7  2  0
  6  8  2  0
  6  9  1  0
 10  9  1  1
 10 11  1  0
 11 12  1  0
 12 13  2  0
M  CHG  1  11   1
M  END
