
     RDKit          3D

 13 14  0  0  0  0  0  0  0  0999 V2000
    1.4700   -1.7750    0.7370 N   0  0  0  0  0  0  0  0  0  0  0  0
    1.1770   -0.5670   -0.0080 C   0  0  1  0  0  0  0  0  0  0  0  0
   -0.3410   -0.4670   -0.0960 C   0  0  1  0  0  0  0  0  0  0  0  0
   -0.9470   -0.4840    1.2950 C   0  0  0  0  0  0  0  0  0  0  0  0
   -1.8840    1.0420    1.6110 S   0  0  0  0  0  0  0  0  0  0  0  0
   -2.7660    1.4210    0.0690 C   0  0  0  0  0  0  0  0  0  0  0  0
   -2.1060    0.5660   -0.9930 C   0  0  0  0  0  0  0  0  0  0  0  0
   -0.7320    0.6770   -0.8050 O   0  0  0  0  0  0  0  0  0  0  0  0
    1.7880    0.6030    0.6800 C   0  0  0  0  0  0  0  0  0  0  0  0
    2.3630    1.7860   -0.5170 S   0  0  0  0  0  0  0  0  0  0  0  0
    2.6020    0.8530   -2.0310 C   0  0  0  0  0  0  0  0  0  0  0  0
    3.1450    1.2020   -3.0420 O   0  0  0  0  0  0  0  0  0  0  0  0
    1.8280   -0.7240   -1.6510 S   0  0  0  0  0  0  0  0  0  0  0  0
  2  1  1  1
  2  3  1  0
  2  9  1  0
  2 13  1  0
  3  4  1  1
  3  8  1  0
  4  5  1  0
  5  6  1  0
  6  7  1  0
  7  8  1  0
  9 10  1  0
 10 11  1  0
 11 12  2  0
 11 13  1  0
M  CHG  1   1   1
M  END
