
     RDKit          3D

 13 14  0  0  0  0  0  0  0  0999 V2000
   -3.8760   -2.0540   -0.5240 O   0  0  0  0  0  0  0  0  0  0  0  0
   -2.8170   -1.1410    0.0460 S   0  0  0  0  0  0  0  0  0  0  0  0
   -2.1960    0.0210   -1.1770 C   0  0  0  0  0  0  0  0  0  0  0  0
   -1.5370    1.1020   -0.4790 N   0  0  0  0  0  0  0  0  0  0  0  0
   -0.1060    1.0000   -0.5000 C   0  0  0  0  0  0  0  0  0  0  0  0
    0.4500    0.0290    0.5090 C   0  0  1  0  0  0  0  0  0  0  0  0
    1.9540    0.2090    0.5340 C   0  0  0  0  0  0  0  0  0  0  0  0
    2.5980   -0.0590   -0.8040 C   0  0  0  0  0  0  0  0  0  0  0  0
    3.9830    0.1480   -0.6140 O   0  0  0  0  0  0  0  0  0  0  0  0
   -0.0700    0.1900    1.8750 C   0  0  0  0  0  0  0  0  0  0  0  0
   -1.0600   -1.2040    2.3640 S   0  0  0  0  0  0  0  0  0  0  0  0
   -1.4510   -2.0040    0.7850 C   0  0  2  0  0  0  0  0  0  0  0  0
    0.1110   -1.6370   -0.0800 S   0  0  0  0  0  0  0  0  0  0  0  0
  1  2  2  0
  2  3  1  6
  2 12  1  0
  3  4  1  0
  4  5  1  0
  5  6  1  0
  6  7  1  1
  6 10  1  0
  6 13  1  0
  7  8  1  0
  8  9  1  0
 10 11  1  0
 12 11  1  1
 12 13  1  0
M  CHG  1   4   1
M  END
