
     RDKit          3D

 13 13  0  0  0  0  0  0  0  0999 V2000
   -2.6370    2.4750    0.7250 C   0  0  0  0  0  0  0  0  0  0  0  0
   -2.4720    0.6490    0.6640 S   0  0  0  0  0  0  0  0  0  0  0  0
   -1.1760    0.2540   -0.4820 C   0  0  1  0  0  0  0  0  0  0  0  0
    0.4770    0.8150    0.0960 S   0  0  0  0  0  0  0  0  0  0  0  0
    1.2340   -0.8090    0.0310 C   0  0  0  0  0  0  0  0  0  0  0  0
    2.5240   -1.0340    0.0860 C   0  0  0  0  0  0  0  0  0  0  0  0
    3.4820    0.0450    0.2080 C   0  0  0  0  0  0  0  0  0  0  0  0
    4.7080   -0.1980    0.2570 O   0  0  0  0  0  0  0  0  0  0  0  0
    2.8600    1.7350    0.2860 S   0  0  0  0  0  0  0  0  0  0  0  0
    4.2170    2.7710    0.4350 O   0  0  0  0  0  0  0  0  0  0  0  0
    0.0860   -1.7070   -0.0870 C   0  0  0  0  0  0  0  0  0  0  0  0
   -0.9800   -1.1070   -0.7910 N   0  0  1  0  0  0  0  0  0  0  0  0
   -2.1760   -1.9220   -0.5190 C   0  0  0  0  0  0  0  0  0  0  0  0
  1  2  1  0
  3  2  1  1
  3  4  1  0
  3 12  1  0
  4  5  1  0
  5  6  2  3
  5 11  1  0
  6  7  1  0
  7  8  2  0
  7  9  1  0
  9 10  1  0
 11 12  1  0
 12 13  1  1
M  CHG  1  12   1
M  END
