
     RDKit          3D

 13 14  0  0  0  0  0  0  0  0999 V2000
    2.1790    1.7340   -0.5580 O   0  0  0  0  0  0  0  0  0  0  0  0
    2.0630    0.4900   -0.2690 C   0  0  0  0  0  0  0  0  0  0  0  0
    3.2720   -0.3450   -0.2590 C   0  0  0  0  0  0  0  0  0  0  0  0
    2.6040   -1.9740    0.1920 S   0  0  0  0  0  0  0  0  0  0  0  0
    0.9200   -1.4330    0.3140 C   0  0  0  0  0  0  0  0  0  0  0  0
    0.8310   -0.1630    0.0500 C   0  0  0  0  0  0  0  0  0  0  0  0
   -0.5470    0.4040    0.1310 C   0  0  1  0  0  0  0  0  0  0  0  0
   -0.5550    1.8910   -0.1340 C   0  0  0  0  0  0  0  0  0  0  0  0
   -2.2420    2.5520   -0.0300 S   0  0  0  0  0  0  0  0  0  0  0  0
   -1.4620   -0.3580   -0.7650 C   0  0  0  0  0  0  0  0  0  0  0  0
   -1.9360   -1.5380   -0.0150 N   0  0  0  0  0  0  0  0  0  0  0  0
   -0.5470   -2.3290    0.7120 S   0  0  0  0  0  0  0  0  0  0  0  0
   -0.7230   -2.5510    2.1910 O   0  0  0  0  0  0  0  0  0  0  0  0
  1  2  2  0
  2  3  1  0
  2  6  1  0
  3  4  1  0
  4  5  1  0
  5  6  2  0
  5 12  1  0
  6  7  1  0
  7  8  1  6
  7 10  1  0
  8  9  1  0
 10 11  1  0
 12 11  1  1
 12 13  2  0
M  CHG  1  11   1
M  END
