
     RDKit          3D

 12 12  0  0  0  0  0  0  0  0999 V2000
    4.3080   -0.9690    0.0060 C   0  0  0  0  0  0  0  0  0  0  0  0
    3.5910    0.2050   -0.0110 O   0  0  0  0  0  0  0  0  0  0  0  0
    2.3190    0.0350    0.5310 C   0  0  1  0  0  0  0  0  0  0  0  0
    2.2030    0.8280    1.6460 O   0  0  0  0  0  0  0  0  0  0  0  0
    1.2790    0.3350   -0.5190 C   0  0  0  0  0  0  0  0  0  0  0  0
   -0.0770    0.1670    0.0220 N   0  0  1  0  0  0  0  0  0  0  0  0
   -0.4460    1.4130    0.6020 C   0  0  0  0  0  0  0  0  0  0  0  0
   -2.2750    1.2910    0.5650 S   0  0  0  0  0  0  0  0  0  0  0  0
   -2.3350    0.0330   -0.7700 C   0  0  2  0  0  0  0  0  0  0  0  0
   -3.1940   -1.4550   -0.2260 S   0  0  0  0  0  0  0  0  0  0  0  0
   -4.9410   -1.1140    0.0830 C   0  0  0  0  0  0  0  0  0  0  0  0
   -0.9080   -0.1700   -1.0650 C   0  0  0  0  0  0  0  0  0  0  0  0
  1  2  1  0
  2  3  1  0
  3  4  1  1
  3  5  1  0
  6  5  1  6
  6  7  1  0
  6 12  1  0
  7  8  1  0
  8  9  1  0
  9 10  1  1
  9 12  1  0
 10 11  1  0
M  CHG  1   6   1
M  END
