
     RDKit          3D

 13 14  0  0  0  0  0  0  0  0999 V2000
    3.3080    0.4980    0.9060 C   0  0  0  0  0  0  0  0  0  0  0  0
    2.2020   -0.3210    0.2840 C   0  0  1  0  0  0  0  0  0  0  0  0
    0.8660   -0.6450    1.4790 S   0  0  0  0  0  0  0  0  0  0  0  0
   -0.6950   -0.7100    0.5260 C   0  0  1  0  0  0  0  0  0  0  0  0
   -1.8770   -0.4450    1.4010 C   0  0  0  0  0  0  0  0  0  0  0  0
   -2.9930    0.4760    0.3380 S   0  0  1  0  0  0  0  0  0  0  0  0
   -4.2740   -0.2260    0.1300 O   0  0  0  0  0  0  0  0  0  0  0  0
   -3.1160    1.8410    0.9100 O   0  0  0  0  0  0  0  0  0  0  0  0
   -1.9800    0.4840   -1.1500 C   0  0  0  0  0  0  0  0  0  0  0  0
   -0.6180    0.3420   -0.5180 C   0  0  2  0  0  0  0  0  0  0  0  0
    0.4020   -0.0260   -1.4740 N   0  0  0  0  0  0  0  0  0  0  0  0
    1.6560    0.3560   -0.9180 C   0  0  0  0  0  0  0  0  0  0  0  0
    2.3750    1.4170   -1.5570 S   0  0  0  0  0  0  0  0  0  0  0  0
  2  1  1  1
  2  3  1  0
  2 12  1  0
  3  4  1  0
  4  5  1  1
  4 10  1  0
  6  5  1  1
  6  7  2  0
  6  8  2  0
  6  9  1  0
 10  9  1  6
 10 11  1  0
 11 12  1  0
 12 13  2  0
M  CHG  1  11   1
M  END
