
     RDKit          3D

 13 14  0  0  0  0  0  0  0  0999 V2000
   -1.3700    1.3260   -1.2100 N   0  0  0  0  0  0  0  0  0  0  0  0
   -1.1420    0.1770   -0.3870 C   0  0  1  0  0  0  0  0  0  0  0  0
    0.3230   -0.1930   -0.4720 C   0  0  1  0  0  0  0  0  0  0  0  0
    0.6650   -0.4340   -1.9500 C   0  0  0  0  0  0  0  0  0  0  0  0
    2.4330   -0.8290   -1.9950 S   0  0  0  0  0  0  0  0  0  0  0  0
    3.1160   -0.5750   -0.3510 C   0  0  0  0  0  0  0  0  0  0  0  0
    2.3400    0.3620    0.4970 C   0  0  0  0  0  0  0  0  0  0  0  0
    1.1640    0.8090   -0.0460 O   0  0  0  0  0  0  0  0  0  0  0  0
   -1.4820    0.4240    1.0500 C   0  0  0  0  0  0  0  0  0  0  0  0
   -3.2200    0.0340    1.3070 S   0  0  0  0  0  0  0  0  0  0  0  0
   -3.4520   -1.3530    0.2270 C   0  0  0  0  0  0  0  0  0  0  0  0
   -4.3090   -2.1800    0.2760 O   0  0  0  0  0  0  0  0  0  0  0  0
   -2.1260   -1.2370   -0.9420 S   0  0  0  0  0  0  0  0  0  0  0  0
  2  1  1  6
  2  3  1  0
  2  9  1  0
  2 13  1  0
  3  4  1  6
  3  8  1  0
  4  5  1  0
  5  6  1  0
  6  7  1  0
  7  8  1  0
  9 10  1  0
 10 11  1  0
 11 12  2  0
 11 13  1  0
M  CHG  1   1   1
M  END
