
     RDKit          3D

 13 14  0  0  0  0  0  0  0  0999 V2000
   -3.2040    1.4570    0.6200 O   0  0  0  0  0  0  0  0  0  0  0  0
   -2.0420    1.3480    0.2660 C   0  0  0  0  0  0  0  0  0  0  0  0
   -1.4710    2.3130   -0.5610 O   0  0  0  0  0  0  0  0  0  0  0  0
   -1.2330    0.1520    0.7330 C   0  0  1  0  0  0  0  0  0  0  0  0
   -2.3110   -0.9560    0.6050 C   0  0  0  0  0  0  0  0  0  0  0  0
   -1.2370   -2.4070    0.6420 S   0  0  0  0  0  0  0  0  0  0  0  0
    0.0600   -1.5450   -0.3510 C   0  0  2  0  0  0  0  0  0  0  0  0
    1.3690   -2.0890   -0.0780 C   0  0  0  0  0  0  0  0  0  0  0  0
    2.2450   -0.7940    0.7820 S   0  0  0  0  0  0  0  0  0  0  0  0
    0.9850    0.5000    0.3760 C   0  0  1  0  0  0  0  0  0  0  0  0
    1.7050    1.2490   -0.7300 C   0  0  0  0  0  0  0  0  0  0  0  0
    3.2860    1.8900   -0.0070 S   0  0  0  0  0  0  0  0  0  0  0  0
   -0.1800   -0.2020   -0.1600 N   0  0  2  0  0  0  0  0  0  0  0  0
  1  2  2  0
  2  3  1  0
  4  2  1  6
  4  5  1  0
 13  4  1  1
  5  6  1  0
  6  7  1  0
  7  8  1  1
  7 13  1  0
  8  9  1  0
  9 10  1  0
 10 11  1  6
 10 13  1  0
 11 12  1  0
M  CHG  1  13   1
M  END
