
     RDKit          3D

 13 14  0  0  0  0  0  0  0  0999 V2000
   -2.8160    0.4960    2.3220 O   0  0  0  0  0  0  0  0  0  0  0  0
   -2.6140    1.0190    0.9350 S   0  0  0  0  0  0  0  0  0  0  0  0
   -2.8840   -0.1370   -0.3650 C   0  0  0  0  0  0  0  0  0  0  0  0
   -1.6890   -0.7860   -0.8560 N   0  0  0  0  0  0  0  0  0  0  0  0
   -0.7070   -0.9110    0.1660 C   0  0  0  0  0  0  0  0  0  0  0  0
    0.4910   -0.0300    0.0530 C   0  0  1  0  0  0  0  0  0  0  0  0
    1.7160   -0.8500    0.2280 C   0  0  0  0  0  0  0  0  0  0  0  0
    3.0150   -0.1080    0.1410 C   0  0  0  0  0  0  0  0  0  0  0  0
    4.0880   -1.0070    0.3300 O   0  0  0  0  0  0  0  0  0  0  0  0
    0.5380    0.8190   -1.1680 C   0  0  0  0  0  0  0  0  0  0  0  0
   -0.7750    2.0570   -1.0550 S   0  0  0  0  0  0  0  0  0  0  0  0
   -1.1860    2.0560    0.7320 C   0  0  2  0  0  0  0  0  0  0  0  0
    0.3370    1.2460    1.3700 S   0  0  0  0  0  0  0  0  0  0  0  0
  1  2  2  0
  2  3  1  6
  2 12  1  0
  3  4  1  0
  4  5  1  0
  5  6  1  0
  6  7  1  1
  6 10  1  0
  6 13  1  0
  7  8  1  0
  8  9  1  0
 10 11  1  0
 12 11  1  6
 12 13  1  0
M  CHG  1   4   1
M  END
