
     RDKit          3D

 12 12  0  0  0  0  0  0  0  0999 V2000
   -2.0970   -0.8700   -1.3970 N   0  0  0  0  0  0  0  0  0  0  0  0
   -1.5590   -0.7120   -0.0690 C   0  0  1  0  0  0  0  0  0  0  0  0
   -0.2940   -1.4700    0.0740 C   0  0  0  0  0  0  0  0  0  0  0  0
    0.4890   -0.7780    0.8770 C   0  0  0  0  0  0  0  0  0  0  0  0
    1.7730   -1.1610    1.2600 O   0  0  0  0  0  0  0  0  0  0  0  0
    2.9130   -0.4500    0.8860 C   0  0  0  0  0  0  0  0  0  0  0  0
    2.9910   -0.4360   -0.6290 C   0  0  0  0  0  0  0  0  0  0  0  0
    1.8650    0.1740   -1.1330 O   0  0  0  0  0  0  0  0  0  0  0  0
   -0.1650    0.4040    1.2880 O   0  0  0  0  0  0  0  0  0  0  0  0
   -1.1070    0.6790    0.2330 C   0  0  2  0  0  0  0  0  0  0  0  0
   -2.1990    1.5700    0.7670 C   0  0  0  0  0  0  0  0  0  0  0  0
   -1.5770    2.7580    1.2110 O   0  0  0  0  0  0  0  0  0  0  0  0
  2  1  1  6
  2  3  1  0
  2 10  1  0
  3  4  2  0
  4  5  1  0
  4  9  1  0
  5  6  1  0
  6  7  1  0
  7  8  1  0
  9 10  1  0
 10 11  1  1
 11 12  1  0
M  CHG  1   1   1
M  END
