
     RDKit          3D

 15 16  0  0  0  0  0  0  0  0999 V2000
   -3.7140   -1.7160    0.9040 C   0  0  0  0  0  0  0  0  0  0  0  0
   -2.5540   -1.1560    0.6410 C   0  0  0  0  0  0  0  0  0  0  0  0
   -1.3450   -1.9080    1.1140 C   0  0  0  0  0  0  0  0  0  0  0  0
   -0.1220   -1.4940    0.5240 N   0  0  0  0  0  0  0  0  0  0  0  0
    0.3650   -0.2890   -0.0370 C   0  0  0  0  0  0  0  0  0  0  0  0
    1.7770    0.0720    0.1630 C   0  0  0  0  0  0  0  0  0  0  0  0
    2.6940   -0.9130   -0.3740 N   0  0  0  0  0  0  0  0  0  0  0  0
    4.0460   -0.4430   -0.0550 C   0  0  1  0  0  0  0  0  0  0  0  0
    4.5640    0.7470   -0.8170 C   0  0  0  0  0  0  0  0  0  0  0  0
    4.2680    0.8070    0.6690 C   0  0  0  0  0  0  0  0  0  0  0  0
   -0.3150    0.5580   -0.7320 N   0  0  0  0  0  0  0  0  0  0  0  0
   -1.6980    0.5760   -1.1480 C   0  0  0  0  0  0  0  0  0  0  0  0
   -2.6310    0.1100   -0.0680 C   0  0  0  0  0  0  0  0  0  0  0  0
   -3.6010    0.9190    0.2850 C   0  0  0  0  0  0  0  0  0  0  0  0
   -3.7880    2.2410   -0.3630 C   0  0  0  0  0  0  0  0  0  0  0  0
  1  2  2  0
  2  3  1  0
  2 13  1  0
  3  4  1  0
  4  5  1  0
  5  6  1  0
  5 11  2  0
  6  7  1  0
  8  7  1  6
  8  9  1  0
  8 10  1  0
  9 10  1  0
 11 12  1  0
 12 13  1  0
 13 14  2  3
 14 15  1  0
M  CHG  2   7   1  11   1
M  END
