
     RDKit          3D

 20 20  0  0  0  0  0  0  0  0999 V2000
    0.2220    4.8980   -0.2410 C   0  0  0  0  0  0  0  0  0  0  0  0
   -0.4760    4.4990    1.0510 C   0  0  0  0  0  0  0  0  0  0  0  0
   -1.1260    3.1290    0.9040 C   0  0  0  0  0  0  0  0  0  0  0  0
   -0.0230    2.1450    0.5840 C   0  0  0  0  0  0  0  0  0  0  0  0
   -0.5270    0.7710    0.4160 C   0  0  0  0  0  0  0  0  0  0  0  0
   -1.8620    0.4360    0.5380 C   0  0  0  0  0  0  0  0  0  0  0  0
   -2.3130   -0.8620    0.3760 C   0  0  0  0  0  0  0  0  0  0  0  0
   -3.7300   -1.2540    0.4980 C   0  0  0  0  0  0  0  0  0  0  0  0
   -4.3970   -1.4860   -0.8380 C   0  0  0  0  0  0  0  0  0  0  0  0
   -5.8430   -1.8860   -0.6730 C   0  0  0  0  0  0  0  0  0  0  0  0
   -1.3710   -1.8150    0.0840 C   0  0  0  0  0  0  0  0  0  0  0  0
   -1.7860   -3.2240   -0.0980 C   0  0  0  0  0  0  0  0  0  0  0  0
   -0.0290   -1.5210   -0.0460 C   0  0  0  0  0  0  0  0  0  0  0  0
    0.3860   -0.2190    0.1220 C   0  0  0  0  0  0  0  0  0  0  0  0
    1.7470    0.1140   -0.0050 O   0  0  0  0  0  0  0  0  0  0  0  0
    2.7250   -0.8460   -0.3020 C   0  0  0  0  0  0  0  0  0  0  0  0
    4.0640   -0.1450   -0.3620 C   0  0  0  0  0  0  0  0  0  0  0  0
    5.1930   -1.0900   -0.6760 C   0  0  2  0  0  0  0  0  0  0  0  0
    5.3520   -2.1880    0.3340 C   0  0  0  0  0  0  0  0  0  0  0  0
    6.3730   -0.3440   -0.6710 O   0  0  0  0  0  0  0  0  0  0  0  0
  1  2  1  0
  2  3  1  0
  3  4  1  0
  4  5  1  0
  5  6  2  0
  5 14  1  0
  6  7  1  0
  7  8  1  0
  7 11  2  0
  8  9  1  0
  9 10  1  0
 11 12  1  0
 11 13  1  0
 13 14  2  0
 14 15  1  0
 15 16  1  0
 16 17  1  0
 17 18  1  0
 18 19  1  1
 18 20  1  0
M  END
