
     RDKit          3D

 20 20  0  0  0  0  0  0  0  0999 V2000
    1.0250    3.2490   -0.9170 C   0  0  0  0  0  0  0  0  0  0  0  0
    1.8180    2.2460   -1.2110 C   0  0  0  0  0  0  0  0  0  0  0  0
    1.2740    1.0410   -1.8860 C   0  0  0  0  0  0  0  0  0  0  0  0
    1.5360   -0.2080   -1.0530 C   0  0  0  0  0  0  0  0  0  0  0  0
    0.8710   -0.1240    0.3170 C   0  0  2  0  0  0  0  0  0  0  0  0
    1.1410   -1.3300    1.1360 C   0  0  0  0  0  0  0  0  0  0  0  0
    2.4950   -1.6480    1.5840 C   0  0  0  0  0  0  0  0  0  0  0  0
    3.6190   -1.8390    0.6610 C   0  0  0  0  0  0  0  0  0  0  0  0
    4.8700   -2.3150    1.4480 C   0  0  0  0  0  0  0  0  0  0  0  0
   -0.3780    0.3020    0.2960 O   0  0  0  0  0  0  0  0  0  0  0  0
   -1.5710    0.7360    0.2840 C   0  0  0  0  0  0  0  0  0  0  0  0
   -1.9850    2.0510    0.5960 C   0  0  0  0  0  0  0  0  0  0  0  0
   -3.2940    2.4420    0.5620 C   0  0  0  0  0  0  0  0  0  0  0  0
   -4.2960    1.5550    0.2150 C   0  0  0  0  0  0  0  0  0  0  0  0
   -5.6840    1.9330    0.1680 C   0  0  0  0  0  0  0  0  0  0  0  0
   -6.0370    3.0980    0.4460 O   0  0  0  0  0  0  0  0  0  0  0  0
   -3.9320    0.2680   -0.0940 C   0  0  0  0  0  0  0  0  0  0  0  0
   -2.6340   -0.1170   -0.0600 C   0  0  0  0  0  0  0  0  0  0  0  0
   -2.3220   -1.5260   -0.3970 C   0  0  0  0  0  0  0  0  0  0  0  0
   -1.7710   -1.5640   -1.8010 C   0  0  0  0  0  0  0  0  0  0  0  0
  1  2  2  0
  2  3  1  0
  3  4  1  0
  5  4  1  6
  5  6  1  0
  5 10  1  0
  6  7  1  0
  7  8  1  0
  8  9  1  0
 10 11  1  0
 11 12  2  0
 11 18  1  0
 12 13  1  0
 13 14  2  0
 14 15  1  0
 14 17  1  0
 15 16  2  0
 17 18  2  0
 18 19  1  0
 19 20  1  0
M  END
