
     RDKit          3D

 20 20  0  0  0  0  0  0  0  0999 V2000
   -2.2470    3.8030   -1.0270 C   0  0  0  0  0  0  0  0  0  0  0  0
   -2.5550    2.5250   -0.9720 C   0  0  0  0  0  0  0  0  0  0  0  0
   -2.4770    1.8200    0.3350 C   0  0  0  0  0  0  0  0  0  0  0  0
   -1.5110    0.6960    0.2930 C   0  0  0  0  0  0  0  0  0  0  0  0
   -0.1610    0.9920    0.3330 C   0  0  0  0  0  0  0  0  0  0  0  0
    0.3470    2.3760    0.4140 C   0  0  0  0  0  0  0  0  0  0  0  0
    0.7470   -0.0540    0.2940 C   0  0  0  0  0  0  0  0  0  0  0  0
    2.1170    0.2020    0.3320 O   0  0  0  0  0  0  0  0  0  0  0  0
    3.0320   -0.8750    0.2930 C   0  0  0  0  0  0  0  0  0  0  0  0
    4.3970   -0.2860    0.3460 C   0  0  0  0  0  0  0  0  0  0  0  0
    5.1980   -0.6020    1.3320 C   0  0  0  0  0  0  0  0  0  0  0  0
    4.7730    0.6270   -0.7270 C   0  0  0  0  0  0  0  0  0  0  0  0
    3.9590    0.9360   -1.7140 C   0  0  0  0  0  0  0  0  0  0  0  0
    0.3090   -1.3590    0.2180 C   0  0  0  0  0  0  0  0  0  0  0  0
   -1.0370   -1.6000    0.1810 C   0  0  0  0  0  0  0  0  0  0  0  0
   -1.5000   -2.9960    0.0990 C   0  0  0  0  0  0  0  0  0  0  0  0
   -1.9470   -3.2400   -1.3310 C   0  0  0  0  0  0  0  0  0  0  0  0
   -1.9870   -0.5960    0.2160 C   0  0  0  0  0  0  0  0  0  0  0  0
   -3.3520   -0.8630    0.1780 O   0  0  0  0  0  0  0  0  0  0  0  0
   -4.0000   -1.0530    1.4360 C   0  0  0  0  0  0  0  0  0  0  0  0
  1  2  2  0
  2  3  1  0
  3  4  1  0
  4  5  2  0
  4 18  1  0
  5  6  1  0
  5  7  1  0
  7  8  1  0
  7 14  2  0
  8  9  1  0
  9 10  1  0
 10 11  2  0
 10 12  1  0
 12 13  2  0
 14 15  1  0
 15 16  1  0
 15 18  2  0
 16 17  1  0
 18 19  1  0
 19 20  1  0
M  END
