
     RDKit          3D

 13 14  0  0  0  0  0  0  0  0999 V2000
   -3.4600    1.8420    0.3850 O   0  0  0  0  0  0  0  0  0  0  0  0
   -3.4910    0.4380    0.3040 C   0  0  0  0  0  0  0  0  0  0  0  0
   -3.0390    0.0180   -1.0820 C   0  0  0  0  0  0  0  0  0  0  0  0
   -1.3610    0.5650   -1.4620 S   0  0  0  0  0  0  0  0  0  0  0  0
   -0.1360   -0.2800   -0.4790 C   0  0  0  0  0  0  0  0  0  0  0  0
   -0.3570   -1.2290    0.3310 N   0  0  0  0  0  0  0  0  0  0  0  0
    0.8490   -1.6920    0.9670 C   0  0  0  0  0  0  0  0  0  0  0  0
    1.9010   -0.8210    0.3710 C   0  0  0  0  0  0  0  0  0  0  0  0
    1.3240   -0.0160   -0.4550 C   0  0  0  0  0  0  0  0  0  0  0  0
    2.4310    1.1150   -1.2860 S   0  0  0  0  0  0  0  0  0  0  0  0
    3.8680    1.1040   -0.1850 C   0  0  2  0  0  0  0  0  0  0  0  0
    5.0590    1.2680   -0.8390 O   0  0  0  0  0  0  0  0  0  0  0  0
    3.6690   -0.5970    0.4930 S   0  0  0  0  0  0  0  0  0  0  0  0
  1  2  1  0
  2  3  1  0
  3  4  1  0
  4  5  1  0
  5  6  2  0
  5  9  1  0
  6  7  1  0
  7  8  1  0
  8  9  2  0
  8 13  1  0
  9 10  1  0
 10 11  1  0
 11 12  1  6
 11 13  1  0
M  CHG  1   6   1
M  END
