
     RDKit          3D

 21 21  0  0  0  0  0  0  0  0999 V2000
    2.3890   -0.1350    2.3130 C   0  0  0  0  0  0  0  0  0  0  0  0
    2.3390   -1.2930    1.5580 O   0  0  0  0  0  0  0  0  0  0  0  0
    2.8760   -1.1720    0.2990 C   0  0  0  0  0  0  0  0  0  0  0  0
    2.2260   -0.1580   -0.5840 C   0  0  1  0  0  0  0  0  0  0  0  0
    2.9210   -0.1980   -1.8340 O   0  0  0  0  0  0  0  0  0  0  0  0
    3.6310    0.8560   -2.3410 C   0  0  0  0  0  0  0  0  0  0  0  0
    3.6900    1.9300   -1.6910 O   0  0  0  0  0  0  0  0  0  0  0  0
    4.2720    0.7090   -3.5730 O   0  0  0  0  0  0  0  0  0  0  0  0
    0.8070   -0.4250   -0.8450 C   0  0  0  0  0  0  0  0  0  0  0  0
    0.4300   -0.6340   -2.0230 O   0  0  0  0  0  0  0  0  0  0  0  0
   -0.1670   -0.4640    0.1440 O   0  0  0  0  0  0  0  0  0  0  0  0
   -1.5180   -0.7240   -0.1450 C   0  0  1  0  0  0  0  0  0  0  0  0
   -1.9670   -1.9090    0.4490 O   0  0  0  0  0  0  0  0  0  0  0  0
   -2.9940   -2.4370   -0.3310 C   0  0  0  0  0  0  0  0  0  0  0  0
   -4.1950   -1.2080   -0.8470 S   0  0  0  0  0  0  0  0  0  0  0  0
   -3.5530    0.4930   -0.6700 C   0  0  0  0  0  0  0  0  0  0  0  0
   -2.4300    0.3780    0.3690 C   0  0  1  0  0  0  0  0  0  0  0  0
   -3.0800   -0.0340    1.5550 O   0  0  0  0  0  0  0  0  0  0  0  0
   -1.7440    1.6380    0.5910 C   0  0  0  0  0  0  0  0  0  0  0  0
   -1.7870    2.2750    1.8530 N   0  0  0  0  0  0  0  0  0  0  0  0
   -1.1020    2.1840   -0.3310 O   0  0  0  0  0  0  0  0  0  0  0  0
  1  2  1  0
  2  3  1  0
  4  3  1  1
  4  5  1  0
  4  9  1  0
  5  6  1  0
  6  7  2  0
  6  8  1  0
  9 10  2  0
  9 11  1  0
 12 11  1  1
 12 13  1  0
 12 17  1  0
 13 14  1  0
 14 15  1  0
 15 16  1  0
 16 17  1  0
 17 18  1  1
 17 19  1  0
 19 20  1  0
 19 21  2  0
M  END
