
     RDKit          3D

 22 22  0  0  0  0  0  0  0  0999 V2000
   -3.0620   -1.9550   -0.1230 C   0  0  0  0  0  0  0  0  0  0  0  0
   -2.5390   -0.5190   -0.1950 C   0  0  2  0  0  0  0  0  0  0  0  0
   -1.5770   -0.3930    0.8300 O   0  0  0  0  0  0  0  0  0  0  0  0
   -0.2630   -0.0540    0.5430 C   0  0  0  0  0  0  0  0  0  0  0  0
    0.0450    0.1370   -0.6510 O   0  0  0  0  0  0  0  0  0  0  0  0
    0.7010    0.0650    1.6400 C   0  0  0  0  0  0  0  0  0  0  0  0
    1.9940    0.4140    1.2060 O   0  0  0  0  0  0  0  0  0  0  0  0
    2.6590   -0.4240    0.3240 C   0  0  0  0  0  0  0  0  0  0  0  0
    2.1250   -1.4850   -0.0900 O   0  0  0  0  0  0  0  0  0  0  0  0
    4.0220   -0.0870   -0.1530 C   0  0  0  0  0  0  0  0  0  0  0  0
    4.7610   -0.7960   -0.9890 C   0  0  0  0  0  0  0  0  0  0  0  0
    6.0400   -0.1330   -1.2110 C   0  0  0  0  0  0  0  0  0  0  0  0
    6.9100   -0.3190   -2.0890 O   0  0  0  0  0  0  0  0  0  0  0  0
    6.1230    0.8760   -0.1260 C   0  0  2  0  0  0  0  0  0  0  0  0
    6.7450    0.3000    0.9840 O   0  0  0  0  0  0  0  0  0  0  0  0
    4.7570    1.0310    0.1960 O   0  0  0  0  0  0  0  0  0  0  0  0
   -3.7120    0.4160    0.0240 C   0  0  2  0  0  0  0  0  0  0  0  0
   -4.3200    0.1130    1.2410 O   0  0  0  0  0  0  0  0  0  0  0  0
   -4.6920    0.2890   -1.0180 N   0  0  0  0  0  0  0  0  0  0  0  0
   -5.0250    1.7520   -1.8370 S   0  0  1  0  0  0  0  0  0  0  0  0
   -3.7530    2.5630   -1.8920 O   0  0  0  0  0  0  0  0  0  0  0  0
   -5.3820    1.4150   -3.2660 O   0  0  0  0  0  0  0  0  0  0  0  0
  2  1  1  1
  2  3  1  0
  2 17  1  0
  3  4  1  0
  4  5  2  0
  4  6  1  0
  6  7  1  0
  7  8  1  0
  8  9  2  0
  8 10  1  0
 10 11  2  0
 10 16  1  0
 11 12  1  0
 12 13  2  0
 12 14  1  0
 14 15  1  1
 14 16  1  0
 17 18  1  1
 17 19  1  0
 20 19  1  1
 20 21  2  0
 20 22  2  0
M  END
