
     RDKit          3D

 21 21  0  0  0  0  0  0  0  0999 V2000
    2.7760    1.9370   -1.3460 O   0  0  0  0  0  0  0  0  0  0  0  0
    3.1240    0.7320   -1.2590 C   0  0  0  0  0  0  0  0  0  0  0  0
    2.2290   -0.2430   -0.5670 C   0  0  0  0  0  0  0  0  0  0  0  0
    1.0690    0.3670   -0.0900 O   0  0  0  0  0  0  0  0  0  0  0  0
    0.1010   -0.3620    0.5860 C   0  0  0  0  0  0  0  0  0  0  0  0
    0.3390   -1.5940    0.7360 O   0  0  0  0  0  0  0  0  0  0  0  0
   -1.0860    0.2410    1.0790 N   0  0  0  0  0  0  0  0  0  0  0  0
   -1.4720    1.6150    0.9760 C   0  0  1  0  0  0  0  0  0  0  0  0
   -2.6530    1.7810    0.2770 O   0  0  0  0  0  0  0  0  0  0  0  0
   -1.5990    2.1420    2.4110 C   0  0  0  0  0  0  0  0  0  0  0  0
   -2.2670    0.6420    3.2380 S   0  0  0  0  0  0  0  0  0  0  0  0
   -2.1200   -0.4880    1.7900 C   0  0  1  0  0  0  0  0  0  0  0  0
   -3.3450   -0.4430    1.1730 O   0  0  0  0  0  0  0  0  0  0  0  0
   -3.9880   -1.6410    1.0400 C   0  0  2  0  0  0  0  0  0  0  0  0
   -4.1440   -2.0270   -0.3050 O   0  0  0  0  0  0  0  0  0  0  0  0
   -5.3230   -1.7290    1.6890 C   0  0  0  0  0  0  0  0  0  0  0  0
   -5.8400   -3.0050    1.4620 O   0  0  0  0  0  0  0  0  0  0  0  0
    4.3310    0.3530   -1.8130 O   0  0  0  0  0  0  0  0  0  0  0  0
    5.1880    1.2660   -2.4710 C   0  0  0  0  0  0  0  0  0  0  0  0
    6.4010    0.4770   -2.9360 C   0  0  0  0  0  0  0  0  0  0  0  0
    5.9860   -0.5230   -3.8010 O   0  0  0  0  0  0  0  0  0  0  0  0
  1  2  2  0
  2  3  1  0
  2 18  1  0
  3  4  1  0
  4  5  1  0
  5  6  2  0
  5  7  1  0
  7  8  1  0
  7 12  1  0
  8  9  1  1
  8 10  1  0
 10 11  1  0
 11 12  1  0
 12 13  1  6
 13 14  1  0
 14 15  1  6
 14 16  1  0
 16 17  1  0
 18 19  1  0
 19 20  1  0
 20 21  1  0
M  END
