
     RDKit          3D

 31 34  0  0  0  0  0  0  0  0999 V2000
   -5.8850    4.1110   -0.8830 O   0  0  0  0  0  0  0  0  0  0  0  0
   -6.1230    3.3260    0.1040 C   0  0  0  0  0  0  0  0  0  0  0  0
   -7.1940    3.6830    0.9290 O   0  0  0  0  0  0  0  0  0  0  0  0
   -5.3120    2.1690    0.3110 N   0  0  0  0  0  0  0  0  0  0  0  0
   -4.2330    1.9180   -0.6310 C   0  0  2  0  0  0  0  0  0  0  0  0
   -4.7100    0.7370   -1.5010 C   0  0  0  0  0  0  0  0  0  0  0  0
   -4.1100   -0.4300   -0.8130 C   0  0  0  0  0  0  0  0  0  0  0  0
   -2.9070    0.0540   -0.1940 N   0  0  0  0  0  0  0  0  0  0  0  0
   -1.8460   -0.8260    0.2080 C   0  0  0  0  0  0  0  0  0  0  0  0
   -2.1220   -2.0940    0.7130 C   0  0  0  0  0  0  0  0  0  0  0  0
   -1.1490   -2.9920    1.0950 C   0  0  0  0  0  0  0  0  0  0  0  0
   -1.4680   -4.3460    1.6480 C   0  0  1  0  0  0  0  0  0  0  0  0
   -1.3220   -4.2220    3.0380 F   0  0  0  0  0  0  0  0  0  0  0  0
   -2.7980   -4.6080    1.3780 F   0  0  0  0  0  0  0  0  0  0  0  0
   -0.6210   -5.3100    1.1620 F   0  0  0  0  0  0  0  0  0  0  0  0
    0.1290   -2.5710    0.9510 N   0  0  0  0  0  0  0  0  0  0  0  0
    0.4390   -1.3680    0.4710 C   0  0  0  0  0  0  0  0  0  0  0  0
    1.8120   -1.0260    0.3580 N   0  0  0  0  0  0  0  0  0  0  0  0
    2.3740   -0.3350    1.4890 C   0  0  0  0  0  0  0  0  0  0  0  0
    3.8270   -0.0570    1.3730 C   0  0  0  0  0  0  0  0  0  0  0  0
    4.1070    0.2550   -0.0870 C   0  0  1  0  0  0  0  0  0  0  0  0
    5.4090    0.9240   -0.2580 C   0  0  0  0  0  0  0  0  0  0  0  0
    6.2850    1.3430    0.6990 C   0  0  0  0  0  0  0  0  0  0  0  0
    7.3380    1.9230    0.1210 N   0  0  0  0  0  0  0  0  0  0  0  0
    7.1650    1.8910   -1.1840 N   0  0  0  0  0  0  0  0  0  0  0  0
    5.9760    1.2760   -1.4510 C   0  0  0  0  0  0  0  0  0  0  0  0
    5.3450    1.0160   -3.0780 Cl  0  0  0  0  0  0  0  0  0  0  0  0
    3.9700   -1.0430   -0.8430 C   0  0  0  0  0  0  0  0  0  0  0  0
    2.4990   -1.4000   -0.8550 C   0  0  0  0  0  0  0  0  0  0  0  0
   -0.5340   -0.5110    0.1060 N   0  0  0  0  0  0  0  0  0  0  0  0
   -2.9570    1.4650   -0.0310 C   0  0  0  0  0  0  0  0  0  0  0  0
  1  2  2  0
  2  3  1  0
  2  4  1  0
  5  4  1  1
  5  6  1  0
  5 31  1  0
  6  7  1  0
  7  8  1  0
  8  9  1  0
  8 31  1  0
  9 10  2  0
  9 30  1  0
 10 11  1  0
 11 12  1  0
 11 16  2  0
 12 13  1  1
 12 14  1  0
 12 15  1  0
 16 17  1  0
 17 18  1  0
 17 30  2  0
 18 19  1  0
 18 29  1  0
 19 20  1  0
 20 21  1  0
 21 22  1  1
 21 28  1  0
 22 23  2  0
 22 26  1  0
 23 24  1  0
 24 25  1  0
 25 26  2  0
 26 27  1  0
 28 29  1  0
M  END
