
     RDKit          3D

 29 28  0  0  0  0  0  0  0  0999 V2000
    2.9340    1.6700    1.9740 O   0  0  0  0  0  0  0  0  0  0  0  0
    2.0530    1.3100    1.1040 C   0  0  0  0  0  0  0  0  0  0  0  0
    1.6640   -0.0250    1.3100 N   0  0  0  0  0  0  0  0  0  0  0  0
    2.2180   -0.8950    2.3480 C   0  0  0  0  0  0  0  0  0  0  0  0
    3.6890   -1.1660    2.2250 C   0  0  1  0  0  0  0  0  0  0  0  0
    4.0040   -2.0040    3.3100 F   0  0  0  0  0  0  0  0  0  0  0  0
    3.9800   -1.9630    1.1370 F   0  0  0  0  0  0  0  0  0  0  0  0
    4.5030   -0.1110    2.3260 F   0  0  0  0  0  0  0  0  0  0  0  0
    1.5680    2.1880    0.0940 C   0  0  0  0  0  0  0  0  0  0  0  0
    2.1540    3.5940    0.1180 C   0  0  0  0  0  0  0  0  0  0  0  0
    2.9870    4.0140    0.9900 C   0  0  0  0  0  0  0  0  0  0  0  0
    3.5910    3.5600    2.0290 F   0  0  0  0  0  0  0  0  0  0  0  0
    3.3820    5.3730    0.6980 F   0  0  0  0  0  0  0  0  0  0  0  0
    0.7640    2.0170   -0.9040 C   0  0  0  0  0  0  0  0  0  0  0  0
   -0.0210    0.9740   -1.5250 C   0  0  0  0  0  0  0  0  0  0  0  0
   -1.4340    1.2810   -1.6950 N   0  0  0  0  0  0  0  0  0  0  0  0
   -2.3140    0.0310   -2.4090 S   0  0  2  0  0  0  0  0  0  0  0  0
   -1.3960   -0.5320   -3.5320 O   0  0  0  0  0  0  0  0  0  0  0  0
   -3.5730    0.5260   -3.0530 O   0  0  0  0  0  0  0  0  0  0  0  0
   -2.6920   -1.3590   -1.3650 C   0  0  0  0  0  0  0  0  0  0  0  0
   -3.9170   -1.3000   -0.7690 C   0  0  0  0  0  0  0  0  0  0  0  0
   -4.5300   -2.2480    0.1340 C   0  0  1  0  0  0  0  0  0  0  0  0
   -4.9390   -3.3950   -0.6110 F   0  0  0  0  0  0  0  0  0  0  0  0
   -3.7450   -2.5810    1.2040 F   0  0  0  0  0  0  0  0  0  0  0  0
   -5.7600   -1.7920    0.6430 F   0  0  0  0  0  0  0  0  0  0  0  0
   -1.7900   -2.4850   -1.1520 C   0  0  2  0  0  0  0  0  0  0  0  0
   -2.4780   -3.5920   -0.6200 F   0  0  0  0  0  0  0  0  0  0  0  0
   -0.8170   -2.2040   -0.1720 F   0  0  0  0  0  0  0  0  0  0  0  0
   -1.2000   -2.8450   -2.3660 F   0  0  0  0  0  0  0  0  0  0  0  0
  1  2  2  0
  2  3  1  0
  2  9  1  0
  3  4  1  0
  4  5  1  0
  5  6  1  1
  5  7  1  0
  5  8  1  0
  9 10  1  0
  9 14  2  3
 10 11  2  3
 11 12  1  0
 11 13  1  0
 14 15  1  0
 15 16  1  0
 17 16  1  1
 17 18  2  0
 17 19  2  0
 17 20  1  0
 20 21  2  3
 20 26  1  0
 21 22  1  0
 22 23  1  6
 22 24  1  0
 22 25  1  0
 26 27  1  1
 26 28  1  0
 26 29  1  0
M  END
