
     RDKit          3D

 29 28  0  0  0  0  0  0  0  0999 V2000
    6.4580    0.9440   -0.3600 C   0  0  0  0  0  0  0  0  0  0  0  0
    5.5260    0.2200   -1.1060 O   0  0  0  0  0  0  0  0  0  0  0  0
    4.1460    0.3930   -0.9880 C   0  0  0  0  0  0  0  0  0  0  0  0
    3.6920    1.2350   -0.1790 O   0  0  0  0  0  0  0  0  0  0  0  0
    3.3000   -0.4540   -1.8510 C   0  0  0  0  0  0  0  0  0  0  0  0
    1.8850   -0.2000   -1.6550 N   0  0  0  0  0  0  0  0  0  0  0  0
    1.2740   -0.3840   -0.4040 C   0  0  0  0  0  0  0  0  0  0  0  0
    1.9400   -0.7730    0.5760 O   0  0  0  0  0  0  0  0  0  0  0  0
   -0.1310   -0.1390   -0.1820 N   0  0  0  0  0  0  0  0  0  0  0  0
   -0.7180   -0.3380    1.1090 C   0  0  1  0  0  0  0  0  0  0  0  0
   -1.5400    0.7900    1.6300 C   0  0  0  0  0  0  0  0  0  0  0  0
   -0.5550    2.2850    1.7750 S   0  0  0  0  0  0  0  0  0  0  0  0
   -0.0540    3.0050    0.2210 C   0  0  0  0  0  0  0  0  0  0  0  0
   -1.2510    3.5330   -0.5760 C   0  0  1  0  0  0  0  0  0  0  0  0
   -2.1320    2.5290   -0.8560 F   0  0  0  0  0  0  0  0  0  0  0  0
   -1.8930    4.5510    0.0950 F   0  0  0  0  0  0  0  0  0  0  0  0
   -0.7400    4.0820   -1.7470 F   0  0  0  0  0  0  0  0  0  0  0  0
   -1.3950   -1.6740    1.2350 C   0  0  0  0  0  0  0  0  0  0  0  0
   -2.5020   -1.9630    0.3210 C   0  0  0  0  0  0  0  0  0  0  0  0
   -3.7160   -2.0610    0.8410 C   0  0  0  0  0  0  0  0  0  0  0  0
   -3.8170   -1.8820    2.2090 F   0  0  0  0  0  0  0  0  0  0  0  0
   -4.9900   -2.3160    0.1770 C   0  0  2  0  0  0  0  0  0  0  0  0
   -5.0230   -2.3080   -1.1700 F   0  0  0  0  0  0  0  0  0  0  0  0
   -5.8900   -1.3340    0.6070 F   0  0  0  0  0  0  0  0  0  0  0  0
   -5.5660   -3.5240    0.5850 F   0  0  0  0  0  0  0  0  0  0  0  0
   -2.3130   -2.1940   -1.1270 C   0  0  2  0  0  0  0  0  0  0  0  0
   -2.7900   -1.1230   -1.8320 F   0  0  0  0  0  0  0  0  0  0  0  0
   -2.8830   -3.3940   -1.5680 F   0  0  0  0  0  0  0  0  0  0  0  0
   -0.9490   -2.3930   -1.4250 F   0  0  0  0  0  0  0  0  0  0  0  0
  1  2  1  0
  2  3  1  0
  3  4  2  0
  3  5  1  0
  5  6  1  0
  6  7  1  0
  7  8  2  0
  7  9  1  0
  9 10  1  0
 10 11  1  6
 10 18  1  0
 11 12  1  0
 12 13  1  0
 13 14  1  0
 14 15  1  6
 14 16  1  0
 14 17  1  0
 18 19  1  0
 19 20  2  3
 19 26  1  0
 20 21  1  0
 20 22  1  0
 22 23  1  6
 22 24  1  0
 22 25  1  0
 26 27  1  6
 26 28  1  0
 26 29  1  0
M  END
