
     RDKit          3D

 31 33  0  0  0  0  0  0  0  0999 V2000
    4.3020    0.0190    0.8290 N   0  0  0  0  0  0  0  0  0  0  0  0
    3.5890    0.5340   -0.1140 C   0  0  0  0  0  0  0  0  0  0  0  0
    2.3040    0.0250   -0.4220 N   0  0  0  0  0  0  0  0  0  0  0  0
    1.5640   -0.4200    0.5290 C   0  0  0  0  0  0  0  0  0  0  0  0
    0.2600   -0.9440    0.2680 N   0  0  0  0  0  0  0  0  0  0  0  0
   -0.1530   -2.2110    0.1440 C   0  0  0  0  0  0  0  0  0  0  0  0
    0.6440   -3.4120    0.2460 C   0  0  0  0  0  0  0  0  0  0  0  0
    1.9900   -3.4670    0.4930 C   0  0  0  0  0  0  0  0  0  0  0  0
    2.6450   -4.6710    0.5690 C   0  0  0  0  0  0  0  0  0  0  0  0
    2.0260   -5.8420    0.4110 N   0  0  0  0  0  0  0  0  0  0  0  0
    0.6950   -5.8360    0.1650 C   0  0  0  0  0  0  0  0  0  0  0  0
    0.0220   -4.6600    0.0840 C   0  0  0  0  0  0  0  0  0  0  0  0
   -1.5330   -2.1920   -0.1110 C   0  0  0  0  0  0  0  0  0  0  0  0
   -1.9290   -0.8720   -0.1350 C   0  0  0  0  0  0  0  0  0  0  0  0
   -3.1160   -0.2060   -0.3300 C   0  0  0  0  0  0  0  0  0  0  0  0
   -4.1630   -0.8600   -0.5480 O   0  0  0  0  0  0  0  0  0  0  0  0
   -3.2260    1.1310   -0.3000 N   0  0  0  0  0  0  0  0  0  0  0  0
   -4.4660    1.7940   -0.5040 C   0  0  0  0  0  0  0  0  0  0  0  0
   -5.2620    2.0380    0.7340 C   0  0  0  0  0  0  0  0  0  0  0  0
   -6.5500    2.7550    0.3130 C   0  0  0  0  0  0  0  0  0  0  0  0
   -6.0930    4.2990   -0.4800 Cl  0  0  0  0  0  0  0  0  0  0  0  0
   -2.1410    1.8760   -0.0710 N   0  0  0  0  0  0  0  0  0  0  0  0
   -0.9400    1.2630    0.1290 C   0  0  0  0  0  0  0  0  0  0  0  0
    0.0760    1.9610    0.3430 O   0  0  0  0  0  0  0  0  0  0  0  0
   -0.8010   -0.1060    0.1030 C   0  0  0  0  0  0  0  0  0  0  0  0
    4.1520    1.6350   -0.8300 N   0  0  0  0  0  0  0  0  0  0  0  0
    5.3330    2.3240   -0.4230 C   0  0  0  0  0  0  0  0  0  0  0  0
    5.6270    3.4260   -1.4170 C   0  0  2  0  0  0  0  0  0  0  0  0
    4.5360    4.2760   -1.4180 F   0  0  0  0  0  0  0  0  0  0  0  0
    5.7920    2.8910   -2.6690 F   0  0  0  0  0  0  0  0  0  0  0  0
    6.7530    4.1550   -1.0300 F   0  0  0  0  0  0  0  0  0  0  0  0
  1  2  2  0
  2  3  1  0
  2 26  1  0
  3  4  2  3
  4  5  1  0
  5  6  1  0
  5 25  1  0
  6  7  1  0
  6 13  2  0
  7  8  2  0
  7 12  1  0
  8  9  1  0
  9 10  2  0
 10 11  1  0
 11 12  2  0
 13 14  1  0
 14 15  1  0
 14 25  2  0
 15 16  2  0
 15 17  1  0
 17 18  1  0
 17 22  1  0
 18 19  1  0
 19 20  1  0
 20 21  1  0
 22 23  1  0
 23 24  2  0
 23 25  1  0
 26 27  1  0
 27 28  1  0
 28 29  1  6
 28 30  1  0
 28 31  1  0
M  END
