
     RDKit          3D

 14 15  0  0  0  0  0  0  0  0999 V2000
   -1.7200    3.2620    0.0340 C   0  0  0  0  0  0  0  0  0  0  0  0
   -1.0960    2.1380    0.8890 C   0  0  0  0  0  0  0  0  0  0  0  0
   -0.8160    0.6900    0.1600 S   0  0  0  0  0  0  0  0  0  0  0  0
    0.2930    0.2090    1.3110 C   0  0  0  0  0  0  0  0  0  0  0  0
    1.7360    0.6050    1.0110 C   0  0  0  0  0  0  0  0  0  0  0  0
    2.2870   -0.5500    0.2100 C   0  0  2  0  0  0  0  0  0  0  0  0
    3.7180   -0.5440    0.1520 N   0  0  0  0  0  0  0  0  0  0  0  0
    1.7150   -0.3050   -1.1730 C   0  0  0  0  0  0  0  0  0  0  0  0
   -0.0320    0.1280   -1.1110 S   0  0  1  0  0  0  0  0  0  0  0  0
   -0.8690   -1.4690   -1.3240 C   0  0  0  0  0  0  0  0  0  0  0  0
   -1.4980   -1.9160    0.0350 S   0  0  1  0  0  0  0  0  0  0  0  0
   -3.0150   -2.8030   -0.3660 C   0  0  0  0  0  0  0  0  0  0  0  0
   -0.6400   -2.9020    0.7770 O   0  0  0  0  0  0  0  0  0  0  0  0
   -1.9170   -0.6520    0.9780 O   0  0  0  0  0  0  0  0  0  0  0  0
  1  2  1  0
  2  3  1  0
  3  4  2  0
  3  9  1  0
  3 14  1  0
  4  5  1  0
  5  6  1  0
  6  7  1  6
  6  8  1  0
  9  8  1  1
  9 10  1  0
 10 11  2  0
 11 12  1  6
 11 13  2  0
 11 14  1  0
M  CHG  1   7   1
M  END
