
     RDKit          3D

 15 16  0  0  0  0  0  0  0  0999 V2000
   -4.3660    2.4940   -0.3970 O   0  0  0  0  0  0  0  0  0  0  0  0
   -3.4890    1.7210   -0.1340 C   0  0  0  0  0  0  0  0  0  0  0  0
   -2.1390    1.8240   -0.7160 C   0  0  0  0  0  0  0  0  0  0  0  0
   -1.2250    0.9810    0.1710 C   0  0  2  0  0  0  0  0  0  0  0  0
    0.4890    1.5650    0.0660 S   0  0  0  0  0  0  0  0  0  0  0  0
    1.4890    0.1240    0.5290 C   0  0  2  0  0  0  0  0  0  0  0  0
    2.9530    0.3570    0.3300 C   0  0  0  0  0  0  0  0  0  0  0  0
    3.8090   -0.8050    0.7000 C   0  0  0  0  0  0  0  0  0  0  0  0
    5.5480   -0.3160    0.3870 S   0  0  0  0  0  0  0  0  0  0  0  0
    0.9390   -1.0300   -0.2390 C   0  0  0  0  0  0  0  0  0  0  0  0
   -0.3620   -1.3320    0.2660 N   0  0  0  0  0  0  0  0  0  0  0  0
   -1.4080   -0.4520   -0.1540 C   0  0  1  0  0  0  0  0  0  0  0  0
   -2.6850   -0.9490    0.4920 C   0  0  0  0  0  0  0  0  0  0  0  0
   -3.7780    0.3940    0.9860 S   0  0  0  0  0  0  0  0  0  0  0  0
   -5.2050   -0.0920    0.9670 O   0  0  0  0  0  0  0  0  0  0  0  0
  1  2  2  0
  2  3  1  0
  2 14  1  0
  4  3  1  6
  4  5  1  0
  4 12  1  0
  5  6  1  0
  6  7  1  6
  6 10  1  0
  7  8  1  0
  8  9  1  0
 10 11  1  0
 11 12  1  0
 12 13  1  1
 14 13  1  6
 14 15  2  0
M  CHG  1  11   1
M  END
