
     RDKit          3D

 15 16  0  0  0  0  0  0  0  0999 V2000
   -4.1350    2.0050   -0.9680 O   0  0  0  0  0  0  0  0  0  0  0  0
   -3.6500    1.0160    0.0790 S   0  0  2  0  0  0  0  0  0  0  0  0
   -2.7680    1.7710    1.0200 O   0  0  0  0  0  0  0  0  0  0  0  0
   -2.8360   -0.3020   -0.7440 C   0  0  0  0  0  0  0  0  0  0  0  0
   -1.3990   -0.4780   -0.2920 C   0  0  2  0  0  0  0  0  0  0  0  0
   -1.2980   -0.7710    1.1690 C   0  0  0  0  0  0  0  0  0  0  0  0
   -0.1880   -1.7890    1.4550 C   0  0  0  0  0  0  0  0  0  0  0  0
    0.8320   -1.9840   -0.0550 S   0  0  0  0  0  0  0  0  0  0  0  0
    1.6010   -0.3700   -0.3630 C   0  0  1  0  0  0  0  0  0  0  0  0
    2.7730   -0.2520    0.5930 C   0  0  0  0  0  0  0  0  0  0  0  0
    3.4100    1.1000    0.3230 C   0  0  0  0  0  0  0  0  0  0  0  0
    3.3940    1.0900   -1.5150 S   0  0  0  0  0  0  0  0  0  0  0  0
    2.2040   -0.2900   -1.7540 C   0  0  0  0  0  0  0  0  0  0  0  0
    0.6540    0.7660   -0.0820 C   0  0  0  0  0  0  0  0  0  0  0  0
   -0.6180    0.6310   -0.7380 N   0  0  0  0  0  0  0  0  0  0  0  0
  1  2  2  0
  2  3  2  0
  2  4  1  6
  5  4  1  1
  5  6  1  0
  5 15  1  0
  6  7  1  0
  7  8  1  0
  8  9  1  0
  9 10  1  1
  9 13  1  0
  9 14  1  0
 10 11  1  0
 11 12  1  0
 12 13  1  0
 14 15  1  0
M  CHG  1  15   1
M  END
