
     RDKit          3D

 15 16  0  0  0  0  0  0  0  0999 V2000
   -1.3670    1.9770    0.3250 C   0  0  0  0  0  0  0  0  0  0  0  0
   -1.4200    0.6210   -0.3090 C   0  0  1  0  0  0  0  0  0  0  0  0
   -2.8630    0.2130   -0.6030 C   0  0  0  0  0  0  0  0  0  0  0  0
   -0.5890    0.6750   -1.9470 S   0  0  0  0  0  0  0  0  0  0  0  0
    0.6930   -0.5610   -1.5060 C   0  0  1  0  0  0  0  0  0  0  0  0
    1.9530   -0.1510   -2.1030 C   0  0  0  0  0  0  0  0  0  0  0  0
    2.6240    0.9970   -0.8370 S   0  0  0  0  0  0  0  0  0  0  0  0
    1.5250    0.3640    0.4920 C   0  0  2  0  0  0  0  0  0  0  0  0
    2.4810   -0.2970    1.4990 C   0  0  0  0  0  0  0  0  0  0  0  0
    3.6610    0.9000    2.1410 S   0  0  0  0  0  0  0  0  0  0  0  0
    0.6630   -0.5780   -0.1220 N   0  0  1  0  0  0  0  0  0  0  0  0
   -0.6550   -0.4200    0.3970 C   0  0  2  0  0  0  0  0  0  0  0  0
   -1.3560   -1.7360    0.5040 C   0  0  0  0  0  0  0  0  0  0  0  0
   -0.8170   -2.8230    0.1660 O   0  0  0  0  0  0  0  0  0  0  0  0
   -2.6550   -1.8180    0.9890 O   0  0  0  0  0  0  0  0  0  0  0  0
  2  1  1  1
  2  3  1  0
  2  4  1  0
  2 12  1  0
  4  5  1  0
  5  6  1  1
  5 11  1  0
  6  7  1  0
  7  8  1  0
  8  9  1  1
 11  8  1  1
  9 10  1  0
 11 12  1  0
 12 13  1  6
 13 14  2  0
 13 15  1  0
M  CHG  1  11   1
M  END
