
     RDKit          3D

 28 31  0  0  0  0  0  0  0  0999 V2000
   -6.9120   -0.4230    0.4400 C   0  0  0  0  0  0  0  0  0  0  0  0
   -5.6330   -0.6210    0.6140 C   0  0  0  0  0  0  0  0  0  0  0  0
   -5.1760   -1.6570    1.4460 O   0  0  0  0  0  0  0  0  0  0  0  0
   -3.9010   -2.2780    1.3480 C   0  0  0  0  0  0  0  0  0  0  0  0
   -3.4170   -2.5250   -0.0360 C   0  0  0  0  0  0  0  0  0  0  0  0
   -2.9830   -1.3720   -0.7790 N   0  0  0  0  0  0  0  0  0  0  0  0
   -1.9310   -1.3450   -1.5580 N   0  0  0  0  0  0  0  0  0  0  0  0
   -1.7750   -0.1410   -2.1360 C   0  0  0  0  0  0  0  0  0  0  0  0
   -0.6960    0.2460   -3.0750 C   0  0  0  0  0  0  0  0  0  0  0  0
    0.4530    0.7940   -2.2770 C   0  0  0  0  0  0  0  0  0  0  0  0
    0.6180    2.0860   -1.9410 N   0  0  0  0  0  0  0  0  0  0  0  0
    1.7350    2.1890   -1.2440 N   0  0  0  0  0  0  0  0  0  0  0  0
    2.2830    0.9610   -1.1350 C   0  0  0  0  0  0  0  0  0  0  0  0
    3.5130    0.5800   -0.4560 C   0  0  0  0  0  0  0  0  0  0  0  0
    4.3120    1.4790    0.1930 C   0  0  0  0  0  0  0  0  0  0  0  0
    5.4790    1.1310    0.8390 C   0  0  0  0  0  0  0  0  0  0  0  0
    6.3630    2.0850    1.5500 C   0  0  0  0  0  0  0  0  0  0  0  0
    5.8310   -0.2000    0.8100 C   0  0  0  0  0  0  0  0  0  0  0  0
    7.0700   -0.6810    1.4750 C   0  0  0  0  0  0  0  0  0  0  0  0
    5.0620   -1.1540    0.1680 C   0  0  0  0  0  0  0  0  0  0  0  0
    3.8870   -0.7450   -0.4710 C   0  0  0  0  0  0  0  0  0  0  0  0
    3.0660   -1.7760   -1.1580 C   0  0  0  0  0  0  0  0  0  0  0  0
    1.4630    0.1660   -1.7770 O   0  0  0  0  0  0  0  0  0  0  0  0
   -2.8090    0.6450   -1.6840 C   0  0  0  0  0  0  0  0  0  0  0  0
   -3.5390   -0.1470   -0.8450 C   0  0  0  0  0  0  0  0  0  0  0  0
   -4.7550    0.2960   -0.1050 C   0  0  0  0  0  0  0  0  0  0  0  0
   -4.9710    1.5770   -0.0800 C   0  0  0  0  0  0  0  0  0  0  0  0
   -6.0690    2.2170    0.6490 C   0  0  0  0  0  0  0  0  0  0  0  0
  1  2  2  0
  2  3  1  0
  2 26  1  0
  3  4  1  0
  4  5  1  0
  5  6  1  0
  6  7  1  0
  6 25  1  0
  7  8  2  0
  8  9  1  0
  8 24  1  0
  9 10  1  0
 10 11  2  0
 10 23  1  0
 11 12  1  0
 12 13  2  0
 13 14  1  0
 13 23  1  0
 14 15  2  0
 14 21  1  0
 15 16  1  0
 16 17  1  0
 16 18  2  0
 18 19  1  0
 18 20  1  0
 20 21  2  0
 21 22  1  0
 24 25  2  0
 25 26  1  0
 26 27  2  3
 27 28  1  0
M  END
