
     RDKit          3D

 28 31  0  0  0  0  0  0  0  0999 V2000
   -2.8370   -3.4150    0.2990 C   0  0  0  0  0  0  0  0  0  0  0  0
   -2.7270   -2.1170    0.4970 C   0  0  0  0  0  0  0  0  0  0  0  0
   -3.7870   -1.1680    0.3050 C   0  0  0  0  0  0  0  0  0  0  0  0
   -5.0830   -1.7590   -0.2230 C   0  0  0  0  0  0  0  0  0  0  0  0
   -3.7740    0.1270    0.4910 C   0  0  0  0  0  0  0  0  0  0  0  0
   -4.9450    1.0170    0.2550 C   0  0  0  0  0  0  0  0  0  0  0  0
   -6.2180    1.0770   -0.0940 C   0  0  0  0  0  0  0  0  0  0  0  0
   -6.7180    2.4720   -0.0930 C   0  0  0  0  0  0  0  0  0  0  0  0
   -5.5500    3.2320    0.3470 C   0  0  0  0  0  0  0  0  0  0  0  0
   -4.5540    2.3880    0.5400 C   0  0  0  0  0  0  0  0  0  0  0  0
   -3.1750    2.3280    0.9420 C   0  0  0  0  0  0  0  0  0  0  0  0
   -2.4910    3.3570    1.2700 O   0  0  0  0  0  0  0  0  0  0  0  0
   -2.7020    0.9570    0.9140 N   0  0  0  0  0  0  0  0  0  0  0  0
   -1.3530    0.6530    1.2860 C   0  0  0  0  0  0  0  0  0  0  0  0
   -0.4810    0.6610    0.0640 C   0  0  0  0  0  0  0  0  0  0  0  0
    0.9260    0.3490    0.4130 C   0  0  0  0  0  0  0  0  0  0  0  0
    1.2030    0.1320    1.6010 O   0  0  0  0  0  0  0  0  0  0  0  0
    1.9000    0.3090   -0.6000 N   0  0  0  0  0  0  0  0  0  0  0  0
    3.2700    0.0260   -0.4110 C   0  0  0  0  0  0  0  0  0  0  0  0
    3.8760   -0.2530    0.7780 C   0  0  0  0  0  0  0  0  0  0  0  0
    5.2460   -0.5190    0.8480 C   0  0  0  0  0  0  0  0  0  0  0  0
    6.0280   -0.5070   -0.2860 C   0  0  0  0  0  0  0  0  0  0  0  0
    5.4340   -0.2250   -1.5080 C   0  0  0  0  0  0  0  0  0  0  0  0
    4.0890    0.0290   -1.5290 C   0  0  0  0  0  0  0  0  0  0  0  0
    6.4250   -0.2840   -2.4090 N   0  0  0  0  0  0  0  0  0  0  0  0
    7.5870   -0.5850   -1.8100 C   0  0  0  0  0  0  0  0  0  0  0  0
    7.3400   -0.7210   -0.5060 N   0  0  0  0  0  0  0  0  0  0  0  0
    8.3190   -1.0470    0.5220 C   0  0  0  0  0  0  0  0  0  0  0  0
  1  2  2  0
  2  3  1  0
  3  4  1  0
  3  5  2  3
  5  6  1  0
  5 13  1  0
  6  7  2  0
  6 10  1  0
  7  8  1  0
  8  9  1  0
  9 10  2  0
 10 11  1  0
 11 12  2  0
 11 13  1  0
 13 14  1  0
 14 15  1  0
 15 16  1  0
 16 17  2  0
 16 18  1  0
 18 19  1  0
 19 20  2  0
 19 24  1  0
 20 21  1  0
 21 22  2  0
 22 23  1  0
 22 27  1  0
 23 24  2  0
 23 25  1  0
 25 26  2  0
 26 27  1  0
 27 28  1  0
M  END
