
     RDKit          3D

 28 31  0  0  0  0  0  0  0  0999 V2000
    5.4060   -1.6630   -1.4320 C   0  0  0  0  0  0  0  0  0  0  0  0
    5.3030   -0.3110   -0.8530 C   0  0  0  0  0  0  0  0  0  0  0  0
    6.1590    0.5490   -1.3510 C   0  0  0  0  0  0  0  0  0  0  0  0
    6.4770    1.9400   -1.1550 C   0  0  0  0  0  0  0  0  0  0  0  0
    5.7850    2.9410   -0.6080 C   0  0  0  0  0  0  0  0  0  0  0  0
    4.4800    3.0870    0.0020 C   0  0  0  0  0  0  0  0  0  0  0  0
    3.6470    2.2240    0.5040 N   0  0  0  0  0  0  0  0  0  0  0  0
    3.6180    0.8240    0.6820 C   0  0  0  0  0  0  0  0  0  0  0  0
    2.7440    0.2680    1.6010 C   0  0  0  0  0  0  0  0  0  0  0  0
    2.9210   -1.0820    1.5710 C   0  0  0  0  0  0  0  0  0  0  0  0
    2.1900   -2.0970    2.3710 C   0  0  0  0  0  0  0  0  0  0  0  0
    1.0510   -2.6730    1.6420 C   0  0  0  0  0  0  0  0  0  0  0  0
   -0.0210   -1.7500    1.2260 C   0  0  0  0  0  0  0  0  0  0  0  0
    0.0030   -0.5380    1.5260 O   0  0  0  0  0  0  0  0  0  0  0  0
   -1.1340   -2.2110    0.4610 N   0  0  0  0  0  0  0  0  0  0  0  0
   -2.2210   -1.4620   -0.0000 C   0  0  0  0  0  0  0  0  0  0  0  0
   -3.1000   -2.0970   -0.8850 C   0  0  0  0  0  0  0  0  0  0  0  0
   -4.1920   -1.4210   -1.3680 C   0  0  0  0  0  0  0  0  0  0  0  0
   -4.4800   -0.1050   -1.0170 C   0  0  0  0  0  0  0  0  0  0  0  0
   -3.6240    0.5290   -0.1490 C   0  0  0  0  0  0  0  0  0  0  0  0
   -2.5100   -0.1580    0.3450 C   0  0  0  0  0  0  0  0  0  0  0  0
   -3.7390    1.8270    0.3160 O   0  0  0  0  0  0  0  0  0  0  0  0
   -4.9280    2.6450    0.2840 C   0  0  0  0  0  0  0  0  0  0  0  0
   -6.1030    1.7450    0.4720 C   0  0  0  0  0  0  0  0  0  0  0  0
   -6.6520    1.1200   -0.7570 C   0  0  0  0  0  0  0  0  0  0  0  0
   -5.6870    0.4290   -1.6470 C   0  0  0  0  0  0  0  0  0  0  0  0
    3.8840   -1.3440    0.6530 N   0  0  0  0  0  0  0  0  0  0  0  0
    4.2710   -0.2150    0.1520 N   0  0  0  0  0  0  0  0  0  0  0  0
  1  2  1  0
  2  3  2  0
  2 28  1  0
  3  4  1  0
  4  5  2  0
  5  6  1  0
  6  7  2  0
  7  8  1  0
  8  9  2  0
  8 28  1  0
  9 10  1  0
 10 11  1  0
 10 27  2  0
 11 12  1  0
 12 13  1  0
 13 14  2  0
 13 15  1  0
 15 16  1  0
 16 17  2  0
 16 21  1  0
 17 18  1  0
 18 19  2  0
 19 20  1  0
 19 26  1  0
 20 21  2  0
 20 22  1  0
 22 23  1  0
 23 24  1  0
 24 25  1  0
 25 26  1  0
 27 28  1  0
M  END
