
     RDKit          3D

 22 23  0  0  0  0  0  0  0  0999 V2000
   -3.4660   -3.1500    0.6590 C   0  0  0  0  0  0  0  0  0  0  0  0
   -3.1680   -2.3640   -0.6030 C   0  0  0  0  0  0  0  0  0  0  0  0
   -3.1650   -0.9140   -0.3670 C   0  0  0  0  0  0  0  0  0  0  0  0
   -2.1630   -0.0800   -0.5140 C   0  0  0  0  0  0  0  0  0  0  0  0
   -0.8270   -0.5880   -0.9720 C   0  0  0  0  0  0  0  0  0  0  0  0
    0.2440    0.2150   -0.4760 N   0  0  0  0  0  0  0  0  0  0  0  0
    1.5330   -0.2030   -0.1410 C   0  0  0  0  0  0  0  0  0  0  0  0
    1.9670   -0.1810    1.1440 C   0  0  0  0  0  0  0  0  0  0  0  0
    3.3550   -0.6540    1.3380 C   0  0  0  0  0  0  0  0  0  0  0  0
    4.3190   -0.0030    0.3780 C   0  0  0  0  0  0  0  0  0  0  0  0
    3.8760    0.0280   -1.0310 C   0  0  0  0  0  0  0  0  0  0  0  0
    2.5010   -0.6210   -1.1150 C   0  0  0  0  0  0  0  0  0  0  0  0
    2.2640   -1.5200   -2.0210 C   0  0  0  0  0  0  0  0  0  0  0  0
    1.1310   -2.1680   -2.1730 F   0  0  0  0  0  0  0  0  0  0  0  0
    0.0200    1.6400   -0.2170 C   0  0  0  0  0  0  0  0  0  0  0  0
    0.9970    2.4200   -0.0850 O   0  0  0  0  0  0  0  0  0  0  0  0
   -1.2640    2.1840   -0.1070 N   0  0  0  0  0  0  0  0  0  0  0  0
   -1.4980    3.5920    0.1510 C   0  0  0  0  0  0  0  0  0  0  0  0
   -1.5760    3.8890    1.5920 C   0  0  0  0  0  0  0  0  0  0  0  0
   -1.7690    5.0280    1.9700 O   0  0  0  0  0  0  0  0  0  0  0  0
   -2.3740    1.3400   -0.2520 C   0  0  0  0  0  0  0  0  0  0  0  0
   -3.5400    1.8040   -0.1560 O   0  0  0  0  0  0  0  0  0  0  0  0
  1  2  1  0
  2  3  1  0
  3  4  2  3
  4  5  1  0
  4 21  1  0
  5  6  1  0
  6  7  1  0
  6 15  1  0
  7  8  2  0
  7 12  1  0
  8  9  1  0
  9 10  1  0
 10 11  1  0
 11 12  1  0
 12 13  2  3
 13 14  1  0
 15 16  2  0
 15 17  1  0
 17 18  1  0
 17 21  1  0
 18 19  1  0
 19 20  2  0
 21 22  2  0
M  END
