
     RDKit          3D

 22 24  0  0  0  0  0  0  0  0999 V2000
   -3.6970   -3.1820    0.3870 C   0  0  0  0  0  0  0  0  0  0  0  0
   -3.1330   -1.8130    0.2430 C   0  0  0  0  0  0  0  0  0  0  0  0
   -1.8080   -1.5390    0.4490 C   0  0  0  0  0  0  0  0  0  0  0  0
   -1.2540   -0.2540    0.3180 C   0  0  0  0  0  0  0  0  0  0  0  0
    0.1930   -0.0590    0.5240 C   0  0  0  0  0  0  0  0  0  0  0  0
    0.9970   -0.0140   -0.7540 C   0  0  0  0  0  0  0  0  0  0  0  0
    2.3970    0.2150   -0.3670 N   0  0  0  0  0  0  0  0  0  0  0  0
    2.9970    1.4210   -0.2190 C   0  0  0  0  0  0  0  0  0  0  0  0
    4.3150    1.2670    0.1500 C   0  0  0  0  0  0  0  0  0  0  0  0
    4.5340   -0.0940    0.2320 C   0  0  0  0  0  0  0  0  0  0  0  0
    5.8280   -0.7580    0.6010 C   0  0  0  0  0  0  0  0  0  0  0  0
    6.5560   -0.9760   -0.5510 F   0  0  0  0  0  0  0  0  0  0  0  0
    3.3430   -0.6980   -0.0900 C   0  0  0  0  0  0  0  0  0  0  0  0
   -2.0960    0.7720   -0.0340 C   0  0  0  0  0  0  0  0  0  0  0  0
   -1.6470    2.0560   -0.1790 C   0  0  0  0  0  0  0  0  0  0  0  0
   -0.4590    2.3770   -0.0040 O   0  0  0  0  0  0  0  0  0  0  0  0
   -2.5340    3.0340   -0.5300 N   0  0  0  0  0  0  0  0  0  0  0  0
   -3.8260    2.7320   -0.7270 C   0  0  0  0  0  0  0  0  0  0  0  0
   -4.6240    3.6730   -1.0540 O   0  0  0  0  0  0  0  0  0  0  0  0
   -4.2560    1.5070   -0.5870 O   0  0  0  0  0  0  0  0  0  0  0  0
   -3.4580    0.5390   -0.2550 C   0  0  0  0  0  0  0  0  0  0  0  0
   -3.9270   -0.7480   -0.1080 C   0  0  0  0  0  0  0  0  0  0  0  0
  1  2  1  0
  2  3  2  0
  2 22  1  0
  3  4  1  0
  4  5  1  0
  4 14  2  0
  5  6  1  0
  6  7  1  0
  7  8  1  0
  7 13  1  0
  8  9  2  0
  9 10  1  0
 10 11  1  0
 10 13  2  0
 11 12  1  0
 14 15  1  0
 14 21  1  0
 15 16  2  0
 15 17  1  0
 17 18  1  0
 18 19  2  0
 18 20  1  0
 20 21  1  0
 21 22  2  0
M  END
