
     RDKit          3D

 33 33  0  0  0  0  0  0  0  0999 V2000
    7.5780   -0.4060   -0.1710 C   0  0  0  0  0  0  0  0  0  0  0  0
    6.0940   -0.6970    0.0300 C   0  0  0  0  0  0  0  0  0  0  0  0
    5.8260   -1.9540   -0.1120 C   0  0  0  0  0  0  0  0  0  0  0  0
    4.7290   -2.7890   -0.0480 N   0  0  0  0  0  0  0  0  0  0  0  0
    5.1850    0.4230    0.1550 C   0  0  0  0  0  0  0  0  0  0  0  0
    3.8090    0.0810   -0.0940 N   0  0  0  0  0  0  0  0  0  0  0  0
    2.7050    0.9280   -0.1130 C   0  0  0  0  0  0  0  0  0  0  0  0
    2.6940    2.1290    0.0690 O   0  0  0  0  0  0  0  0  0  0  0  0
    1.3820    0.3580   -0.3770 N   0  0  0  0  0  0  0  0  0  0  0  0
    0.2110    1.2700   -0.3950 C   0  0  0  0  0  0  0  0  0  0  0  0
   -0.9540    0.4150   -0.6750 C   0  0  1  0  0  0  0  0  0  0  0  0
   -0.9800   -0.6200    0.4530 C   0  0  0  0  0  0  0  0  0  0  0  0
   -0.0740   -0.7030    1.3060 O   0  0  0  0  0  0  0  0  0  0  0  0
   -2.1120   -1.4810    0.4580 N   0  0  0  0  0  0  0  0  0  0  0  0
   -2.4270   -2.3220    1.5850 C   0  0  0  0  0  0  0  0  0  0  0  0
   -3.3100   -1.6310    2.5900 C   0  0  0  0  0  0  0  0  0  0  0  0
   -3.6350   -2.5210    3.7650 C   0  0  0  0  0  0  0  0  0  0  0  0
   -4.4830   -1.8480    4.7260 N   0  0  0  0  0  0  0  0  0  0  0  0
   -2.9240   -1.4620   -0.7380 C   0  0  1  0  0  0  0  0  0  0  0  0
   -4.0130   -2.4690   -0.7900 C   0  0  0  0  0  0  0  0  0  0  0  0
   -4.7120   -2.2950   -2.0600 N   0  0  0  0  0  0  0  0  0  0  0  0
   -3.3390   -0.0770   -0.9510 C   0  0  0  0  0  0  0  0  0  0  0  0
   -4.4710    0.1760   -1.2920 O   0  0  0  0  0  0  0  0  0  0  0  0
   -2.3050    1.0090   -0.7290 C   0  0  2  0  0  0  0  0  0  0  0  0
   -2.5850    2.0550   -1.7450 C   0  0  0  0  0  0  0  0  0  0  0  0
   -1.8330    3.2680   -1.6650 N   0  0  1  0  0  0  0  0  0  0  0  0
   -1.1660    3.5000   -2.9470 C   0  0  0  0  0  0  0  0  0  0  0  0
   -2.7610    4.4270   -1.5410 C   0  0  0  0  0  0  0  0  0  0  0  0
    5.5590    1.6360    0.3970 C   0  0  0  0  0  0  0  0  0  0  0  0
    4.4700    2.5520    0.4590 F   0  0  0  0  0  0  0  0  0  0  0  0
    6.8230    2.2970    0.6890 C   0  0  1  0  0  0  0  0  0  0  0  0
    7.7030    1.6690    1.5000 F   0  0  0  0  0  0  0  0  0  0  0  0
    7.3610    2.8700   -0.4450 F   0  0  0  0  0  0  0  0  0  0  0  0
  1  2  1  0
  2  3  2  3
  2  5  1  0
  3  4  1  0
  5  6  1  0
  5 29  2  3
  6  7  1  0
  7  8  2  0
  7  9  1  0
  9 10  1  0
 11 10  1  1
 11 12  1  0
 11 24  1  0
 12 13  2  0
 12 14  1  0
 14 15  1  0
 14 19  1  0
 15 16  1  0
 16 17  1  0
 17 18  1  0
 19 20  1  1
 19 22  1  0
 20 21  1  0
 22 23  2  0
 22 24  1  0
 24 25  1  6
 25 26  1  0
 26 27  1  6
 26 28  1  0
 29 30  1  0
 29 31  1  0
 31 32  1  6
 31 33  1  0
M  CHG  4   4   1  18   1  21   1  26   1
M  END
