
     RDKit          3D

 35 38  0  0  0  0  0  0  0  0999 V2000
   -6.7830    5.1610    0.6340 C   0  0  0  0  0  0  0  0  0  0  0  0
   -6.9490    3.6750    0.5960 C   0  0  0  0  0  0  0  0  0  0  0  0
   -8.0990    3.1710    0.5820 O   0  0  0  0  0  0  0  0  0  0  0  0
   -5.8430    2.7810    0.5750 N   0  0  0  0  0  0  0  0  0  0  0  0
   -6.0060    1.3320    0.5380 C   0  0  0  0  0  0  0  0  0  0  0  0
   -4.6030    0.7350    0.5240 C   0  0  2  0  0  0  0  0  0  0  0  0
   -4.0360    1.2530   -0.6550 O   0  0  0  0  0  0  0  0  0  0  0  0
   -4.5910   -0.7190    0.4650 C   0  0  0  0  0  0  0  0  0  0  0  0
   -5.8010   -1.3700    0.1800 C   0  0  0  0  0  0  0  0  0  0  0  0
   -5.8690   -2.7410    0.1380 C   0  0  0  0  0  0  0  0  0  0  0  0
   -4.7500   -3.4730    0.3760 C   0  0  0  0  0  0  0  0  0  0  0  0
   -4.8250   -4.9570    0.3300 C   0  0  0  0  0  0  0  0  0  0  0  0
   -3.5650   -2.8280    0.6550 C   0  0  0  0  0  0  0  0  0  0  0  0
   -3.4490   -1.4350    0.7080 C   0  0  0  0  0  0  0  0  0  0  0  0
   -2.1550   -0.8130    0.9740 C   0  0  1  0  0  0  0  0  0  0  0  0
   -1.1960   -1.7720    1.6820 C   0  0  0  0  0  0  0  0  0  0  0  0
   -0.2540   -2.3260    0.6800 C   0  0  0  0  0  0  0  0  0  0  0  0
   -0.5480   -1.5670   -0.5690 C   0  0  0  0  0  0  0  0  0  0  0  0
   -1.4210   -0.4820   -0.2360 N   0  0  2  0  0  0  0  0  0  0  0  0
   -0.7360    0.7810   -0.0560 C   0  0  0  0  0  0  0  0  0  0  0  0
    0.5020    0.8960   -0.8750 C   0  0  0  0  0  0  0  0  0  0  0  0
    0.3700    1.2080   -2.2020 C   0  0  0  0  0  0  0  0  0  0  0  0
    1.5030    1.3200   -2.9690 C   0  0  0  0  0  0  0  0  0  0  0  0
    2.7730    1.1180   -2.3950 C   0  0  0  0  0  0  0  0  0  0  0  0
    2.8710    0.8090   -1.0680 C   0  0  0  0  0  0  0  0  0  0  0  0
    4.1040    0.5800   -0.4380 N   0  0  0  0  0  0  0  0  0  0  0  0
    5.3690    0.3750   -1.0400 C   0  0  0  0  0  0  0  0  0  0  0  0
    5.4490    0.3840   -2.2920 O   0  0  0  0  0  0  0  0  0  0  0  0
    6.5500    0.1590   -0.2830 N   0  0  0  0  0  0  0  0  0  0  0  0
    6.6590    0.1240    1.1450 C   0  0  0  0  0  0  0  0  0  0  0  0
    7.9560    0.9130    1.3790 C   0  0  0  0  0  0  0  0  0  0  0  0
    8.7710    0.6080    0.1510 C   0  0  1  0  0  0  0  0  0  0  0  0
    9.9490   -0.2420    0.5320 C   0  0  0  0  0  0  0  0  0  0  0  0
    7.8600   -0.0730   -0.8260 C   0  0  0  0  0  0  0  0  0  0  0  0
    1.7260    0.7020   -0.3230 C   0  0  0  0  0  0  0  0  0  0  0  0
  1  2  1  0
  2  3  2  0
  2  4  1  0
  4  5  1  0
  5  6  1  0
  6  7  1  6
  6  8  1  0
  8  9  2  0
  8 14  1  0
  9 10  1  0
 10 11  2  0
 11 12  1  0
 11 13  1  0
 13 14  2  0
 15 14  1  6
 15 16  1  0
 15 19  1  0
 16 17  1  0
 17 18  1  0
 18 19  1  0
 19 20  1  1
 20 21  1  0
 21 22  2  0
 21 35  1  0
 22 23  1  0
 23 24  2  0
 24 25  1  0
 25 26  1  0
 25 35  2  0
 26 27  1  0
 27 28  2  0
 27 29  1  0
 29 30  1  0
 29 34  1  0
 30 31  1  0
 31 32  1  0
 32 33  1  1
 32 34  1  0
M  CHG  1  19   1
M  END
