
     RDKit          3D

 34 34  0  0  0  0  0  0  0  0999 V2000
   -6.5040   -1.2380   -2.8440 C   0  0  0  0  0  0  0  0  0  0  0  0
   -5.4180   -2.1720   -2.4130 C   0  0  0  0  0  0  0  0  0  0  0  0
   -4.1820   -1.4870   -1.8580 C   0  0  2  0  0  0  0  0  0  0  0  0
   -4.6530   -0.7520   -0.6900 N   0  0  0  0  0  0  0  0  0  0  0  0
   -3.7720   -0.4680   -2.9360 C   0  0  0  0  0  0  0  0  0  0  0  0
   -2.4280    0.4440   -2.8180 S   0  0  0  0  0  0  0  0  0  0  0  0
   -1.5350    1.5480   -2.0140 C   0  0  0  0  0  0  0  0  0  0  0  0
   -1.4850    2.0790   -0.7110 N   0  0  0  0  0  0  0  0  0  0  0  0
   -2.2130    2.2000    0.4240 C   0  0  0  0  0  0  0  0  0  0  0  0
   -3.3970    1.8680    0.4570 O   0  0  0  0  0  0  0  0  0  0  0  0
   -1.6280    2.7340    1.7270 C   0  0  0  0  0  0  0  0  0  0  0  0
   -0.1710    2.8130    1.6980 N   0  0  0  0  0  0  0  0  0  0  0  0
    0.4700    1.5710    2.0770 C   0  0  1  0  0  0  0  0  0  0  0  0
   -0.4270    0.6220    2.8160 C   0  0  0  0  0  0  0  0  0  0  0  0
    1.0220    0.8100    0.8830 C   0  0  0  0  0  0  0  0  0  0  0  0
    2.4210    1.3930    0.6000 C   0  0  0  0  0  0  0  0  0  0  0  0
    3.3100    0.6500    1.5650 N   0  0  0  0  0  0  0  0  0  0  0  0
    3.8570   -0.3860    0.8440 C   0  0  2  0  0  0  0  0  0  0  0  0
    2.9600   -1.3740    0.1420 C   0  0  0  0  0  0  0  0  0  0  0  0
    4.8980   -1.2210    1.5880 C   0  0  0  0  0  0  0  0  0  0  0  0
    5.6290   -0.6330    2.4210 O   0  0  0  0  0  0  0  0  0  0  0  0
    4.9970   -2.5520    1.3150 N   0  0  0  0  0  0  0  0  0  0  0  0
    6.1380   -3.4660    1.6070 C   0  0  0  0  0  0  0  0  0  0  0  0
    6.1510   -4.6510    1.0720 N   0  0  0  0  0  0  0  0  0  0  0  0
    6.9370   -2.8440    2.4000 O   0  0  0  0  0  0  0  0  0  0  0  0
    2.6430    0.5700    2.7880 C   0  0  0  0  0  0  0  0  0  0  0  0
    1.6980    1.7710    3.0020 C   0  0  0  0  0  0  0  0  0  0  0  0
   -0.3860    1.9040   -2.6170 C   0  0  0  0  0  0  0  0  0  0  0  0
    0.5230    2.8520   -2.1720 C   0  0  0  0  0  0  0  0  0  0  0  0
    1.4170    3.7740   -1.7610 N   0  0  0  0  0  0  0  0  0  0  0  0
    0.1870    1.0870   -3.7540 C   0  0  2  0  0  0  0  0  0  0  0  0
    0.0470    1.7100   -4.9370 F   0  0  0  0  0  0  0  0  0  0  0  0
   -0.1910   -0.2170   -3.6420 F   0  0  0  0  0  0  0  0  0  0  0  0
    1.6160    1.1290   -3.5130 F   0  0  0  0  0  0  0  0  0  0  0  0
  1  2  1  0
  2  3  1  0
  3  4  1  1
  3  5  1  0
  5  6  1  0
  6  7  1  0
  7  8  1  0
  7 28  2  3
  8  9  1  0
  9 10  2  0
  9 11  1  0
 11 12  1  0
 12 13  1  0
 13 14  1  1
 13 15  1  0
 13 27  1  0
 15 16  1  0
 16 17  1  0
 17 18  1  0
 17 26  1  0
 18 19  1  1
 18 20  1  0
 20 21  2  0
 20 22  1  0
 22 23  1  0
 23 24  1  0
 23 25  2  0
 26 27  1  0
 28 29  1  0
 28 31  1  0
 29 30  3  0
 31 32  1  6
 31 33  1  0
 31 34  1  0
M  CHG  2   4   1  12   1
M  END
