
     RDKit          3D

 36 39  0  0  0  0  0  0  0  0999 V2000
   -2.0040   -4.5860    0.9540 C   0  0  0  0  0  0  0  0  0  0  0  0
   -3.2630   -4.0100    0.6290 C   0  0  0  0  0  0  0  0  0  0  0  0
   -4.2310   -4.9400    0.6080 O   0  0  0  0  0  0  0  0  0  0  0  0
   -3.8000   -2.7250    0.3370 C   0  0  0  0  0  0  0  0  0  0  0  0
   -3.4490   -1.4900    0.1150 C   0  0  0  0  0  0  0  0  0  0  0  0
   -2.0410   -1.0620    0.0790 C   0  0  0  0  0  0  0  0  0  0  0  0
   -1.6540    0.1570   -0.0320 C   0  0  0  0  0  0  0  0  0  0  0  0
   -2.4160    1.3570   -0.1680 C   0  0  0  0  0  0  0  0  0  0  0  0
   -2.4630    2.2500    0.8880 C   0  0  0  0  0  0  0  0  0  0  0  0
   -3.0820    3.4760    0.7900 C   0  0  0  0  0  0  0  0  0  0  0  0
   -3.1490    4.4570    1.9040 C   0  0  0  0  0  0  0  0  0  0  0  0
   -3.6600    3.7780   -0.4160 C   0  0  0  0  0  0  0  0  0  0  0  0
   -3.6270    2.9100   -1.4810 C   0  0  0  0  0  0  0  0  0  0  0  0
   -3.0020    1.6980   -1.3510 C   0  0  0  0  0  0  0  0  0  0  0  0
   -2.9710    0.8650   -2.5120 N   0  0  0  0  0  0  0  0  0  0  0  0
   -0.1520    0.4450    0.1140 C   0  0  0  0  0  0  0  0  0  0  0  0
    0.5580   -0.3260   -0.8840 N   0  0  0  0  0  0  0  0  0  0  0  0
    1.8270    0.1220   -1.3080 C   0  0  0  0  0  0  0  0  0  0  0  0
    2.3010    1.1700   -0.8070 O   0  0  0  0  0  0  0  0  0  0  0  0
    2.5910   -0.5540   -2.2730 O   0  0  0  0  0  0  0  0  0  0  0  0
    3.8650    0.0270   -2.5990 C   0  0  0  0  0  0  0  0  0  0  0  0
    4.7030    0.0780   -1.3750 C   0  0  0  0  0  0  0  0  0  0  0  0
    4.3720   -0.6640   -0.2590 C   0  0  0  0  0  0  0  0  0  0  0  0
    5.1440   -0.6160    0.8800 C   0  0  0  0  0  0  0  0  0  0  0  0
    6.2730    0.2020    0.8810 C   0  0  0  0  0  0  0  0  0  0  0  0
    7.1140    0.2640    2.0950 C   0  0  0  0  0  0  0  0  0  0  0  0
    6.6150    0.9460   -0.2220 C   0  0  0  0  0  0  0  0  0  0  0  0
    7.8250    1.8100   -0.1850 C   0  0  0  0  0  0  0  0  0  0  0  0
    5.8160    0.8800   -1.3640 C   0  0  0  0  0  0  0  0  0  0  0  0
   -0.1020   -1.5160   -1.3770 C   0  0  0  0  0  0  0  0  0  0  0  0
   -0.9390   -2.0750   -0.1790 C   0  0  0  0  0  0  0  0  0  0  0  0
   -4.5330   -0.5010    0.0090 C   0  0  0  0  0  0  0  0  0  0  0  0
   -5.7810   -1.0630    0.7850 C   0  0  0  0  0  0  0  0  0  0  0  0
   -5.6510   -2.6660    0.0660 S   0  0  2  0  0  0  0  0  0  0  0  0
   -6.2710   -3.7500    0.8370 O   0  0  0  0  0  0  0  0  0  0  0  0
   -5.8770   -2.6720   -1.3930 O   0  0  0  0  0  0  0  0  0  0  0  0
  1  2  1  0
  2  3  2  0
  2  4  1  0
  4  5  2  0
  4 34  1  0
  5  6  1  0
  5 32  1  0
  6  7  2  0
  6 31  1  0
  7  8  1  0
  7 16  1  0
  8  9  2  0
  8 14  1  0
  9 10  1  0
 10 11  1  0
 10 12  2  0
 12 13  1  0
 13 14  2  0
 14 15  1  0
 16 17  1  0
 17 18  1  0
 17 30  1  0
 18 19  2  0
 18 20  1  0
 20 21  1  0
 21 22  1  0
 22 23  2  0
 22 29  1  0
 23 24  1  0
 24 25  2  0
 25 26  1  0
 25 27  1  0
 27 28  1  0
 27 29  2  0
 30 31  1  0
 32 33  1  0
 34 33  1  1
 34 35  2  0
 34 36  2  0
M  END
