
     RDKit          3D

 36 39  0  0  0  0  0  0  0  0999 V2000
   -6.3960   -2.7380    1.8850 C   0  0  0  0  0  0  0  0  0  0  0  0
   -5.4960   -2.5910    0.6960 C   0  0  0  0  0  0  0  0  0  0  0  0
   -5.4810   -1.6610   -0.2240 C   0  0  0  0  0  0  0  0  0  0  0  0
   -6.4480   -0.5490   -0.1740 C   0  0  0  0  0  0  0  0  0  0  0  0
   -7.7720   -0.8970   -0.0220 C   0  0  0  0  0  0  0  0  0  0  0  0
   -8.7270    0.0630    0.0590 C   0  0  0  0  0  0  0  0  0  0  0  0
   -8.3750    1.3790   -0.0100 C   0  0  0  0  0  0  0  0  0  0  0  0
   -9.4620    2.3840    0.0400 C   0  0  0  0  0  0  0  0  0  0  0  0
   -7.0890    1.7590   -0.1570 C   0  0  0  0  0  0  0  0  0  0  0  0
   -6.0780    0.7850   -0.2470 C   0  0  0  0  0  0  0  0  0  0  0  0
   -4.5220   -1.8590   -1.3100 C   0  0  0  0  0  0  0  0  0  0  0  0
   -3.3320   -2.5930   -0.9060 C   0  0  1  0  0  0  0  0  0  0  0  0
   -2.2170   -2.0120   -0.3080 C   0  0  0  0  0  0  0  0  0  0  0  0
   -1.2740   -2.4030    0.3000 O   0  0  0  0  0  0  0  0  0  0  0  0
   -2.1760   -0.2650   -0.5100 N   0  0  0  0  0  0  0  0  0  0  0  0
   -0.8820   -0.0860   -0.0620 C   0  0  0  0  0  0  0  0  0  0  0  0
   -0.0230   -0.8350    0.2700 O   0  0  0  0  0  0  0  0  0  0  0  0
   -0.5820    1.3590   -0.0370 N   0  0  0  0  0  0  0  0  0  0  0  0
    0.5480    2.0880    0.0700 C   0  0  0  0  0  0  0  0  0  0  0  0
    1.8450    1.7550    0.0960 C   0  0  0  0  0  0  0  0  0  0  0  0
    2.3960    0.4330   -0.0210 C   0  0  0  0  0  0  0  0  0  0  0  0
    3.5880   -0.0100    0.0720 C   0  0  0  0  0  0  0  0  0  0  0  0
    4.8840    0.5110    0.3330 C   0  0  0  0  0  0  0  0  0  0  0  0
    5.2420    1.6530    0.6560 O   0  0  0  0  0  0  0  0  0  0  0  0
    5.9980   -0.3850    0.2010 O   0  0  0  0  0  0  0  0  0  0  0  0
    7.3020    0.1180    0.4850 C   0  0  1  0  0  0  0  0  0  0  0  0
    8.0960   -0.7810    1.3010 C   0  0  0  0  0  0  0  0  0  0  0  0
    9.0520   -1.6760    0.6030 C   0  0  0  0  0  0  0  0  0  0  0  0
    9.8130   -0.9920   -0.5310 C   0  0  0  0  0  0  0  0  0  0  0  0
    8.7510   -0.4700   -1.5090 C   0  0  0  0  0  0  0  0  0  0  0  0
    7.9670    0.5930   -0.7990 C   0  0  0  0  0  0  0  0  0  0  0  0
    2.6060    2.9750    0.1790 C   0  0  0  0  0  0  0  0  0  0  0  0
    1.8120    4.0530    0.2060 C   0  0  0  0  0  0  0  0  0  0  0  0
    0.4640    3.6030    0.1400 C   0  0  0  0  0  0  0  0  0  0  0  0
   -0.5860    4.2660    0.1380 O   0  0  0  0  0  0  0  0  0  0  0  0
   -4.2010   -3.7420    0.3030 S   0  0  0  0  0  0  0  0  0  0  0  0
  1  2  1  0
  2  3  2  0
  2 36  1  0
  3  4  1  0
  3 11  1  0
  4  5  2  0
  4 10  1  0
  5  6  1  0
  6  7  2  0
  7  8  1  0
  7  9  1  0
  9 10  2  0
 11 12  1  0
 12 13  1  1
 12 36  1  0
 13 14  2  0
 13 15  1  0
 15 16  1  0
 16 17  2  0
 16 18  1  0
 18 19  1  0
 19 20  2  0
 19 34  1  0
 20 21  1  0
 20 32  1  0
 21 22  2  3
 22 23  1  0
 23 24  2  0
 23 25  1  0
 26 25  1  6
 26 27  1  0
 26 31  1  0
 27 28  1  0
 28 29  1  0
 29 30  1  0
 30 31  1  0
 32 33  2  0
 33 34  1  0
 34 35  2  0
M  END
