
     RDKit          3D

 36 39  0  0  0  0  0  0  0  0999 V2000
    2.2230   -1.7260    2.2720 C   0  0  0  0  0  0  0  0  0  0  0  0
    1.0470   -1.2360    1.4790 C   0  0  0  0  0  0  0  0  0  0  0  0
    1.1760   -1.4300   -0.0520 C   0  0  2  0  0  0  0  0  0  0  0  0
    1.3150   -2.8800   -0.3320 C   0  0  0  0  0  0  0  0  0  0  0  0
    2.3670   -0.5920   -0.4000 C   0  0  0  0  0  0  0  0  0  0  0  0
    2.1530    0.5980   -0.7770 O   0  0  0  0  0  0  0  0  0  0  0  0
    3.7160   -0.9840   -0.3410 N   0  0  0  0  0  0  0  0  0  0  0  0
    4.8290   -0.1060   -0.6290 C   0  0  0  0  0  0  0  0  0  0  0  0
    6.0210   -0.4510   -0.0040 C   0  0  0  0  0  0  0  0  0  0  0  0
    7.1760    0.3300   -0.1010 C   0  0  0  0  0  0  0  0  0  0  0  0
    8.2970   -0.0240    0.5020 O   0  0  0  0  0  0  0  0  0  0  0  0
    8.9620   -0.8700    1.2640 C   0  0  0  0  0  0  0  0  0  0  0  0
    7.0870    1.4930   -0.8690 C   0  0  0  0  0  0  0  0  0  0  0  0
    5.9070    1.8330   -1.4930 C   0  0  0  0  0  0  0  0  0  0  0  0
    4.7690    1.0230   -1.3710 C   0  0  0  0  0  0  0  0  0  0  0  0
    6.1360    3.0140   -2.1690 O   0  0  0  0  0  0  0  0  0  0  0  0
    7.5480    3.2630   -2.1410 C   0  0  0  0  0  0  0  0  0  0  0  0
    8.0690    2.4260   -1.1190 O   0  0  0  0  0  0  0  0  0  0  0  0
    0.0010   -0.8770   -0.6690 N   0  0  2  0  0  0  0  0  0  0  0  0
   -0.5590    0.1750    0.1610 C   0  0  0  0  0  0  0  0  0  0  0  0
   -1.8080    0.6880   -0.4700 C   0  0  0  0  0  0  0  0  0  0  0  0
   -2.9430   -0.3220   -0.5580 C   0  0  2  0  0  0  0  0  0  0  0  0
   -3.9330   -0.0340    0.5530 C   0  0  0  0  0  0  0  0  0  0  0  0
   -3.9580   -0.7350    1.7270 C   0  0  0  0  0  0  0  0  0  0  0  0
   -4.9210   -0.4860    2.7230 C   0  0  0  0  0  0  0  0  0  0  0  0
   -5.8630    0.4950    2.5020 C   0  0  0  0  0  0  0  0  0  0  0  0
   -5.8650    1.2110    1.3430 C   0  0  0  0  0  0  0  0  0  0  0  0
   -6.7910    2.2140    1.0770 O   0  0  0  0  0  0  0  0  0  0  0  0
   -7.8090    2.6510    1.9170 C   0  0  0  0  0  0  0  0  0  0  0  0
   -4.8960    0.9570    0.3410 C   0  0  0  0  0  0  0  0  0  0  0  0
   -4.9470    1.6920   -0.7920 O   0  0  0  0  0  0  0  0  0  0  0  0
   -5.7040    1.7420   -1.9100 C   0  0  0  0  0  0  0  0  0  0  0  0
   -5.7780    0.5160   -2.7390 C   0  0  0  0  0  0  0  0  0  0  0  0
   -6.2960   -0.5190   -1.9750 O   0  0  0  0  0  0  0  0  0  0  0  0
   -2.2680   -1.6400   -0.1740 C   0  0  0  0  0  0  0  0  0  0  0  0
   -0.9990   -1.8380   -1.0070 C   0  0  0  0  0  0  0  0  0  0  0  0
  1  2  1  0
  2  3  1  0
  3  4  1  1
  3  5  1  0
  3 19  1  0
  5  6  2  0
  5  7  1  0
  7  8  1  0
  8  9  2  0
  8 15  1  0
  9 10  1  0
 10 11  1  0
 10 13  2  0
 11 12  1  0
 13 14  1  0
 13 18  1  0
 14 15  2  0
 14 16  1  0
 16 17  1  0
 17 18  1  0
 19 20  1  1
 19 36  1  0
 20 21  1  0
 21 22  1  0
 22 23  1  1
 22 35  1  0
 23 24  2  0
 23 30  1  0
 24 25  1  0
 25 26  2  0
 26 27  1  0
 27 28  1  0
 27 30  2  0
 28 29  1  0
 30 31  1  0
 31 32  1  0
 32 33  1  0
 33 34  1  0
 35 36  1  0
M  CHG  1  19   1
M  END
