
     RDKit          3D

 36 39  0  0  0  0  0  0  0  0999 V2000
   -8.3160   -1.8370    2.0480 C   0  0  0  0  0  0  0  0  0  0  0  0
   -8.2750   -0.5590    1.2460 C   0  0  0  0  0  0  0  0  0  0  0  0
   -7.0680   -0.5240    0.3720 C   0  0  0  0  0  0  0  0  0  0  0  0
   -6.9070    0.4830   -0.3530 O   0  0  0  0  0  0  0  0  0  0  0  0
   -6.1430   -1.5350    0.3320 O   0  0  0  0  0  0  0  0  0  0  0  0
   -4.9890   -1.5520   -0.4690 C   0  0  0  0  0  0  0  0  0  0  0  0
   -4.0780   -0.4070   -0.1110 C   0  0  1  0  0  0  0  0  0  0  0  0
   -3.6460   -0.6680    1.3380 C   0  0  0  0  0  0  0  0  0  0  0  0
   -2.8780   -0.3940   -0.9170 N   0  0  0  0  0  0  0  0  0  0  0  0
   -2.4970    0.8860   -1.4170 C   0  0  2  0  0  0  0  0  0  0  0  0
   -1.8870    1.8220   -0.4280 C   0  0  0  0  0  0  0  0  0  0  0  0
   -0.6350    1.3070    0.1760 C   0  0  0  0  0  0  0  0  0  0  0  0
   -0.0730    2.0240    1.0590 O   0  0  0  0  0  0  0  0  0  0  0  0
   -0.0200    0.1250   -0.1270 O   0  0  0  0  0  0  0  0  0  0  0  0
    1.1750   -0.2850    0.5000 C   0  0  0  0  0  0  0  0  0  0  0  0
    1.1480   -1.0130    1.6660 C   0  0  0  0  0  0  0  0  0  0  0  0
    2.2710   -1.4360    2.3140 C   0  0  0  0  0  0  0  0  0  0  0  0
    3.5230   -1.1000    1.7440 C   0  0  0  0  0  0  0  0  0  0  0  0
    3.5780   -0.3720    0.5760 C   0  0  0  0  0  0  0  0  0  0  0  0
    2.3940    0.0390   -0.0510 C   0  0  0  0  0  0  0  0  0  0  0  0
    4.8250    0.0020   -0.0600 C   0  0  0  0  0  0  0  0  0  0  0  0
    4.8940    0.7210   -1.2130 C   0  0  0  0  0  0  0  0  0  0  0  0
    6.1560    1.0210   -1.7320 C   0  0  0  0  0  0  0  0  0  0  0  0
    7.3330    0.6250   -1.1340 C   0  0  0  0  0  0  0  0  0  0  0  0
    7.2180   -0.1000    0.0290 C   0  0  0  0  0  0  0  0  0  0  0  0
    5.9970   -0.4210    0.5810 C   0  0  0  0  0  0  0  0  0  0  0  0
    5.9260   -1.1660    1.7740 N   0  0  0  0  0  0  0  0  0  0  0  0
    4.7290   -1.5470    2.4310 C   0  0  0  0  0  0  0  0  0  0  0  0
    8.5790   -0.4060    0.4690 C   0  0  0  0  0  0  0  0  0  0  0  0
    8.9810   -0.7190    1.6160 O   0  0  0  0  0  0  0  0  0  0  0  0
    9.4550   -0.2810   -0.7190 C   0  0  0  0  0  0  0  0  0  0  0  0
    8.7790    0.8260   -1.4930 C   0  0  0  0  0  0  0  0  0  0  0  0
   -3.5430    1.5700   -2.2120 C   0  0  0  0  0  0  0  0  0  0  0  0
   -4.6320    0.9780   -2.4030 O   0  0  0  0  0  0  0  0  0  0  0  0
   -3.3710    2.8250   -2.7520 O   0  0  0  0  0  0  0  0  0  0  0  0
   -4.4310    3.3920   -3.4960 C   0  0  0  0  0  0  0  0  0  0  0  0
  1  2  1  0
  2  3  1  0
  3  4  2  0
  3  5  1  0
  5  6  1  0
  6  7  1  0
  7  8  1  1
  7  9  1  0
  9 10  1  0
 10 11  1  1
 10 33  1  0
 11 12  1  0
 12 13  2  0
 12 14  1  0
 14 15  1  0
 15 16  2  0
 15 20  1  0
 16 17  1  0
 17 18  2  0
 18 19  1  0
 18 28  1  0
 19 20  2  0
 19 21  1  0
 21 22  2  0
 21 26  1  0
 22 23  1  0
 23 24  2  0
 24 25  1  0
 24 32  1  0
 25 26  2  0
 25 29  1  0
 26 27  1  0
 27 28  1  0
 29 30  2  0
 29 31  1  0
 31 32  1  0
 33 34  2  0
 33 35  1  0
 35 36  1  0
M  CHG  1   9   1
M  END
