
     RDKit          3D

 36 39  0  0  0  0  0  0  0  0999 V2000
   10.6820    0.0970   -2.5330 C   0  0  0  0  0  0  0  0  0  0  0  0
    9.9200   -0.5690   -1.5700 O   0  0  0  0  0  0  0  0  0  0  0  0
    8.6710   -0.0920   -1.1350 C   0  0  0  0  0  0  0  0  0  0  0  0
    8.1340    1.0590   -1.6380 C   0  0  0  0  0  0  0  0  0  0  0  0
    6.9000    1.5220   -1.2030 C   0  0  0  0  0  0  0  0  0  0  0  0
    6.1800    0.8350   -0.2500 C   0  0  0  0  0  0  0  0  0  0  0  0
    4.8520    1.3630    0.1960 C   0  0  0  0  0  0  0  0  0  0  0  0
    3.7990    0.7620   -0.7090 C   0  0  0  0  0  0  0  0  0  0  0  0
    2.4390    1.2020   -0.3770 C   0  0  0  0  0  0  0  0  0  0  0  0
    1.4970    0.7470   -1.0740 O   0  0  0  0  0  0  0  0  0  0  0  0
    2.1110    2.0800    0.6430 O   0  0  0  0  0  0  0  0  0  0  0  0
    0.7570    2.4240    0.8610 C   0  0  0  0  0  0  0  0  0  0  0  0
   -0.0650    1.2210    1.1850 C   0  0  0  0  0  0  0  0  0  0  0  0
    0.4920   -0.0150    1.4400 C   0  0  0  0  0  0  0  0  0  0  0  0
   -0.6140   -0.8370    1.6910 C   0  0  0  0  0  0  0  0  0  0  0  0
   -1.7500   -0.0660    1.5770 C   0  0  0  0  0  0  0  0  0  0  0  0
   -3.0960   -0.5900    1.7730 C   0  0  0  0  0  0  0  0  0  0  0  0
   -3.2960   -1.7950    2.0670 O   0  0  0  0  0  0  0  0  0  0  0  0
   -4.2600    0.2200    1.6450 N   0  0  0  0  0  0  0  0  0  0  0  0
   -5.6100   -0.2750    1.8340 C   0  0  1  0  0  0  0  0  0  0  0  0
   -6.1990    0.5030    2.9990 C   0  0  0  0  0  0  0  0  0  0  0  0
   -6.4310   -0.0700    0.5990 C   0  0  0  0  0  0  0  0  0  0  0  0
   -6.4060    1.1160   -0.0970 C   0  0  0  0  0  0  0  0  0  0  0  0
   -7.1790    1.2450   -1.2200 C   0  0  0  0  0  0  0  0  0  0  0  0
   -7.9910    0.1960   -1.6730 C   0  0  0  0  0  0  0  0  0  0  0  0
   -8.0200   -0.9840   -0.9870 C   0  0  0  0  0  0  0  0  0  0  0  0
   -7.2310   -1.1040    0.1540 C   0  0  0  0  0  0  0  0  0  0  0  0
   -8.8580   -2.0980   -1.4330 C   0  0  0  0  0  0  0  0  0  0  0  0
   -9.6120   -1.8270   -2.6190 N   0  0  0  0  0  0  0  0  0  0  0  0
   -9.5540   -0.7050   -3.2300 C   0  0  0  0  0  0  0  0  0  0  0  0
   -8.7670    0.3470   -2.8140 O   0  0  0  0  0  0  0  0  0  0  0  0
   -1.3670    1.1280    1.2790 O   0  0  0  0  0  0  0  0  0  0  0  0
    6.7230   -0.3140    0.2480 C   0  0  0  0  0  0  0  0  0  0  0  0
    7.9480   -0.7760   -0.1830 C   0  0  0  0  0  0  0  0  0  0  0  0
    8.4760   -1.9500    0.3430 O   0  0  0  0  0  0  0  0  0  0  0  0
    7.7710   -2.6700    1.3090 C   0  0  0  0  0  0  0  0  0  0  0  0
  1  2  1  0
  2  3  1  0
  3  4  2  0
  3 34  1  0
  4  5  1  0
  5  6  2  0
  6  7  1  0
  6 33  1  0
  7  8  1  0
  8  9  1  0
  9 10  2  0
  9 11  1  0
 11 12  1  0
 12 13  1  0
 13 14  2  0
 13 32  1  0
 14 15  1  0
 15 16  2  0
 16 17  1  0
 16 32  1  0
 17 18  2  0
 17 19  1  0
 19 20  1  0
 20 21  1  1
 20 22  1  0
 22 23  2  0
 22 27  1  0
 23 24  1  0
 24 25  2  0
 25 26  1  0
 25 31  1  0
 26 27  2  0
 26 28  1  0
 28 29  1  0
 29 30  2  0
 30 31  1  0
 33 34  2  0
 34 35  1  0
 35 36  1  0
M  CHG  1  29   1
M  END
