
     RDKit          3D

 42 46  0  0  0  0  0  0  0  0999 V2000
   -9.5360   -1.6320   -0.4880 C   0  0  0  0  0  0  0  0  0  0  0  0
   -9.5370   -0.5740   -1.5830 C   0  0  0  0  0  0  0  0  0  0  0  0
   -8.5860    0.5130   -1.1360 C   0  0  2  0  0  0  0  0  0  0  0  0
   -8.4870    1.6400   -2.1360 C   0  0  0  0  0  0  0  0  0  0  0  0
   -7.6910    2.7430   -1.5590 C   0  0  0  0  0  0  0  0  0  0  0  0
   -7.8310    3.9470   -1.8660 O   0  0  0  0  0  0  0  0  0  0  0  0
   -6.6650    2.4150   -0.5580 C   0  0  0  0  0  0  0  0  0  0  0  0
   -5.9730    3.4360    0.0660 C   0  0  0  0  0  0  0  0  0  0  0  0
   -5.0080    3.0490    1.0120 C   0  0  0  0  0  0  0  0  0  0  0  0
   -4.7400    1.7600    1.3240 C   0  0  0  0  0  0  0  0  0  0  0  0
   -5.4700    0.7620    0.6620 C   0  0  0  0  0  0  0  0  0  0  0  0
   -6.4210    1.0900   -0.2680 C   0  0  0  0  0  0  0  0  0  0  0  0
   -7.1800   -0.0210   -0.9550 C   0  0  0  0  0  0  0  0  0  0  0  0
   -3.7150    1.3700    2.3010 C   0  0  1  0  0  0  0  0  0  0  0  0
   -2.4840    1.1460    1.5470 N   0  0  0  0  0  0  0  0  0  0  0  0
   -1.8300   -0.1130    1.5610 C   0  0  0  0  0  0  0  0  0  0  0  0
   -2.3270   -1.0280    2.2300 O   0  0  0  0  0  0  0  0  0  0  0  0
   -0.6310   -0.3630    0.8370 N   0  0  0  0  0  0  0  0  0  0  0  0
   -0.0000   -1.6330    0.8650 C   0  0  0  0  0  0  0  0  0  0  0  0
   -0.6830   -2.8510    1.7620 S   0  0  0  0  0  0  0  0  0  0  0  0
    1.1810   -1.8380    0.1510 N   0  0  0  0  0  0  0  0  0  0  0  0
    1.7900   -3.1700    0.2010 C   0  0  0  0  0  0  0  0  0  0  0  0
    2.5240   -3.4030   -1.1060 C   0  0  0  0  0  0  0  0  0  0  0  0
    3.6180   -2.4150   -1.2510 C   0  0  2  0  0  0  0  0  0  0  0  0
    4.8470   -2.8300   -0.4350 C   0  0  0  0  0  0  0  0  0  0  0  0
    5.9370   -1.8000   -0.6220 C   0  0  0  0  0  0  0  0  0  0  0  0
    5.7630   -0.8160   -1.3740 O   0  0  0  0  0  0  0  0  0  0  0  0
    7.1700   -1.9360    0.0510 N   0  0  0  0  0  0  0  0  0  0  0  0
    8.2780   -1.0790   -0.0110 C   0  0  0  0  0  0  0  0  0  0  0  0
    9.4240   -1.4450    0.7040 C   0  0  0  0  0  0  0  0  0  0  0  0
   10.5610   -0.6670    0.7050 C   0  0  0  0  0  0  0  0  0  0  0  0
   10.6190    0.5160   -0.0030 C   0  0  0  0  0  0  0  0  0  0  0  0
   11.7420    1.3200   -0.0240 O   0  0  0  0  0  0  0  0  0  0  0  0
   11.8040    2.5170   -0.7400 C   0  0  0  0  0  0  0  0  0  0  0  0
    9.5090    0.9040   -0.7150 C   0  0  0  0  0  0  0  0  0  0  0  0
    8.3750    0.1000   -0.6990 C   0  0  0  0  0  0  0  0  0  0  0  0
    3.2270   -1.0370   -0.9430 C   0  0  0  0  0  0  0  0  0  0  0  0
    1.7890   -0.7910   -0.6110 C   0  0  0  0  0  0  0  0  0  0  0  0
   -3.4290    2.4590    3.2920 C   0  0  0  0  0  0  0  0  0  0  0  0
   -3.3540    3.7880    2.5860 C   0  0  0  0  0  0  0  0  0  0  0  0
   -2.4440    4.5950    2.8430 O   0  0  0  0  0  0  0  0  0  0  0  0
   -4.3160    4.1070    1.6400 O   0  0  0  0  0  0  0  0  0  0  0  0
  1  2  1  0
  3  2  1  6
  3  4  1  0
  3 13  1  0
  4  5  1  0
  5  6  2  0
  5  7  1  0
  7  8  2  0
  7 12  1  0
  8  9  1  0
  9 10  2  0
  9 42  1  0
 10 11  1  0
 10 14  1  0
 11 12  2  0
 12 13  1  0
 14 15  1  6
 14 39  1  0
 15 16  1  0
 16 17  2  0
 16 18  1  0
 18 19  1  0
 19 20  2  0
 19 21  1  0
 21 22  1  0
 21 38  1  0
 22 23  1  0
 23 24  1  0
 24 25  1  1
 24 37  1  0
 25 26  1  0
 26 27  2  0
 26 28  1  0
 28 29  1  0
 29 30  2  0
 29 36  1  0
 30 31  1  0
 31 32  2  0
 32 33  1  0
 32 35  1  0
 33 34  1  0
 35 36  2  0
 37 38  1  0
 39 40  1  0
 40 41  2  0
 40 42  1  0
M  END
