
     RDKit          3D

 42 45  0  0  0  0  0  0  0  0999 V2000
  -11.1340    1.1170    0.6380 C   0  0  0  0  0  0  0  0  0  0  0  0
  -10.6950   -0.1560   -0.0520 C   0  0  0  0  0  0  0  0  0  0  0  0
   -9.2080   -0.2180    0.0370 C   0  0  0  0  0  0  0  0  0  0  0  0
   -8.4280    0.3570   -0.9410 C   0  0  0  0  0  0  0  0  0  0  0  0
   -7.0270    0.3190   -0.8920 C   0  0  0  0  0  0  0  0  0  0  0  0
   -6.3580   -0.2980    0.1390 C   0  0  0  0  0  0  0  0  0  0  0  0
   -4.9070   -0.3610    0.2570 C   0  0  0  0  0  0  0  0  0  0  0  0
   -4.1140    0.2040   -0.6130 C   0  0  0  0  0  0  0  0  0  0  0  0
   -2.6530    0.1530   -0.5130 C   0  0  0  0  0  0  0  0  0  0  0  0
   -1.9920    0.7360   -1.3960 O   0  0  0  0  0  0  0  0  0  0  0  0
   -1.9840   -0.4910    0.4830 O   0  0  0  0  0  0  0  0  0  0  0  0
   -0.5870   -0.5630    0.6330 C   0  0  2  0  0  0  0  0  0  0  0  0
   -0.4210   -1.4480    1.9000 C   0  0  0  0  0  0  0  0  0  0  0  0
    0.0210    0.7540    0.8630 C   0  0  0  0  0  0  0  0  0  0  0  0
   -0.7110    1.7610    0.5860 O   0  0  0  0  0  0  0  0  0  0  0  0
    1.3360    0.9850    1.3640 N   0  0  0  0  0  0  0  0  0  0  0  0
    2.2930    0.1120    1.7950 N   0  0  0  0  0  0  0  0  0  0  0  0
    3.1310   -0.8040    1.1390 C   0  0  0  0  0  0  0  0  0  0  0  0
    2.9910   -2.0280    1.5530 O   0  0  0  0  0  0  0  0  0  0  0  0
    4.1070   -0.5690    0.0870 C   0  0  0  0  0  0  0  0  0  0  0  0
    5.2610   -1.4710    0.0910 N   0  0  0  0  0  0  0  0  0  0  0  0
    6.5250   -1.0610    0.5690 C   0  0  0  0  0  0  0  0  0  0  0  0
    6.6750    0.1750    1.1400 C   0  0  0  0  0  0  0  0  0  0  0  0
    7.8910    0.6250    1.6110 C   0  0  0  0  0  0  0  0  0  0  0  0
    9.0000   -0.1800    1.5160 C   0  0  0  0  0  0  0  0  0  0  0  0
   10.3400    0.2690    2.0080 C   0  0  0  0  0  0  0  0  0  0  0  0
    8.8330   -1.4340    0.9360 C   0  0  0  0  0  0  0  0  0  0  0  0
    7.6240   -1.8800    0.4660 C   0  0  0  0  0  0  0  0  0  0  0  0
    4.0840    0.3030   -0.8800 C   0  0  0  0  0  0  0  0  0  0  0  0
    3.1270    1.3100   -1.2600 C   0  0  0  0  0  0  0  0  0  0  0  0
    3.4850    2.7670   -1.0320 C   0  0  0  0  0  0  0  0  0  0  0  0
    1.9360    1.0920   -1.8550 C   0  0  0  0  0  0  0  0  0  0  0  0
    0.6970    2.3300   -2.3500 S   0  0  0  0  0  0  0  0  0  0  0  0
    0.1450    1.3640   -3.8060 C   0  0  0  0  0  0  0  0  0  0  0  0
    0.3970    0.0110   -3.3500 C   0  0  0  0  0  0  0  0  0  0  0  0
   -0.1920   -0.9760   -3.8160 O   0  0  0  0  0  0  0  0  0  0  0  0
    1.4030   -0.1750   -2.2890 C   0  0  2  0  0  0  0  0  0  0  0  0
    1.0610   -1.1600   -1.3050 N   0  0  0  0  0  0  0  0  0  0  0  0
   -0.0340   -1.3490   -0.4870 C   0  0  0  0  0  0  0  0  0  0  0  0
   -0.7520   -2.4130   -0.6960 O   0  0  0  0  0  0  0  0  0  0  0  0
   -7.1570   -0.8810    1.1300 C   0  0  0  0  0  0  0  0  0  0  0  0
   -8.5310   -0.8340    1.0660 C   0  0  0  0  0  0  0  0  0  0  0  0
  1  2  1  0
  2  3  1  0
  3  4  2  0
  3 42  1  0
  4  5  1  0
  5  6  2  0
  6  7  1  0
  6 41  1  0
  7  8  2  3
  8  9  1  0
  9 10  2  0
  9 11  1  0
 11 12  1  0
 12 13  1  1
 12 14  1  0
 12 39  1  0
 14 15  2  0
 14 16  1  0
 16 17  1  0
 17 18  1  0
 18 19  2  0
 18 20  1  0
 20 21  1  0
 20 29  2  0
 21 22  1  0
 22 23  2  0
 22 28  1  0
 23 24  1  0
 24 25  2  0
 25 26  1  0
 25 27  1  0
 27 28  2  0
 29 30  1  0
 30 31  1  0
 30 32  2  0
 32 33  1  0
 32 37  1  0
 33 34  1  0
 34 35  1  0
 35 36  2  0
 35 37  1  0
 37 38  1  1
 38 39  1  0
 39 40  2  0
 41 42  2  0
M  END
