
     RDKit          3D

 42 46  0  0  0  0  0  0  0  0999 V2000
   10.5060    1.4540   -0.2240 C   0  0  0  0  0  0  0  0  0  0  0  0
    9.4830    1.3130   -1.1980 O   0  0  0  0  0  0  0  0  0  0  0  0
    8.2020    0.9150   -0.7530 C   0  0  0  0  0  0  0  0  0  0  0  0
    8.0080    0.7040    0.4560 O   0  0  0  0  0  0  0  0  0  0  0  0
    7.2260    0.7930   -1.7710 N   0  0  0  0  0  0  0  0  0  0  0  0
    5.8980    0.4160   -1.5240 C   0  0  0  0  0  0  0  0  0  0  0  0
    5.0910    0.0390   -2.6040 C   0  0  0  0  0  0  0  0  0  0  0  0
    3.7710   -0.3290   -2.4430 C   0  0  0  0  0  0  0  0  0  0  0  0
    3.2120   -0.3320   -1.1890 C   0  0  0  0  0  0  0  0  0  0  0  0
    1.8310   -0.7080   -0.9530 C   0  0  0  0  0  0  0  0  0  0  0  0
    1.2580   -1.6530   -1.7740 C   0  0  0  0  0  0  0  0  0  0  0  0
   -0.0700   -2.0190   -1.5480 C   0  0  0  0  0  0  0  0  0  0  0  0
   -0.7880   -1.4630   -0.5460 N   0  0  0  0  0  0  0  0  0  0  0  0
   -0.2640   -0.5400    0.2740 C   0  0  0  0  0  0  0  0  0  0  0  0
   -1.0730    0.0450    1.3610 C   0  0  2  0  0  0  0  0  0  0  0  0
   -1.2270   -1.0250    2.4500 C   0  0  0  0  0  0  0  0  0  0  0  0
    0.1120   -1.4270    2.9630 C   0  0  0  0  0  0  0  0  0  0  0  0
    0.7870   -2.4730    2.3710 C   0  0  0  0  0  0  0  0  0  0  0  0
    2.0310   -2.8500    2.8410 C   0  0  0  0  0  0  0  0  0  0  0  0
    2.6370   -2.2110    3.8980 C   0  0  0  0  0  0  0  0  0  0  0  0
    1.9640   -1.1710    4.4860 C   0  0  0  0  0  0  0  0  0  0  0  0
    0.7260   -0.7920    4.0210 C   0  0  0  0  0  0  0  0  0  0  0  0
   -2.3970    0.3500    0.7960 N   0  0  0  0  0  0  0  0  0  0  0  0
   -2.8730    1.6710    0.9110 C   0  0  0  0  0  0  0  0  0  0  0  0
   -2.1570    2.5140    1.4800 O   0  0  0  0  0  0  0  0  0  0  0  0
   -4.1930    2.0870    0.3790 C   0  0  0  0  0  0  0  0  0  0  0  0
   -5.0100    1.2660   -0.2320 C   0  0  0  0  0  0  0  0  0  0  0  0
   -6.2850    1.7100   -0.7350 C   0  0  0  0  0  0  0  0  0  0  0  0
   -6.7720    2.9780   -0.6370 C   0  0  0  0  0  0  0  0  0  0  0  0
   -8.0260    3.3440   -1.1510 C   0  0  0  0  0  0  0  0  0  0  0  0
   -8.6040    4.9770   -1.0010 Cl  0  0  0  0  0  0  0  0  0  0  0  0
   -8.8200    2.4190   -1.7820 C   0  0  0  0  0  0  0  0  0  0  0  0
   -8.3460    1.1320   -1.8910 C   0  0  0  0  0  0  0  0  0  0  0  0
   -7.1170    0.7860   -1.3840 C   0  0  0  0  0  0  0  0  0  0  0  0
   -6.6460   -0.5470   -1.5050 N   0  0  0  0  0  0  0  0  0  0  0  0
   -6.2550   -1.1350   -2.6510 C   0  0  0  0  0  0  0  0  0  0  0  0
   -5.8920   -2.3800   -2.3080 N   0  0  0  0  0  0  0  0  0  0  0  0
   -6.0460   -2.5620   -1.0160 N   0  0  0  0  0  0  0  0  0  0  0  0
   -6.5180   -1.4180   -0.5090 N   0  0  0  0  0  0  0  0  0  0  0  0
    1.0550   -0.1750    0.0510 C   0  0  0  0  0  0  0  0  0  0  0  0
    4.0140    0.0400   -0.1390 C   0  0  0  0  0  0  0  0  0  0  0  0
    5.3450    0.4140   -0.2780 C   0  0  0  0  0  0  0  0  0  0  0  0
  1  2  1  0
  2  3  1  0
  3  4  2  0
  3  5  1  0
  5  6  1  0
  6  7  2  0
  6 42  1  0
  7  8  1  0
  8  9  2  0
  9 10  1  0
  9 41  1  0
 10 11  2  0
 10 40  1  0
 11 12  1  0
 12 13  2  0
 13 14  1  0
 14 15  1  0
 14 40  2  0
 15 16  1  1
 15 23  1  0
 16 17  1  0
 17 18  2  0
 17 22  1  0
 18 19  1  0
 19 20  2  0
 20 21  1  0
 21 22  2  0
 23 24  1  0
 24 25  2  0
 24 26  1  0
 26 27  2  3
 27 28  1  0
 28 29  2  0
 28 34  1  0
 29 30  1  0
 30 31  1  0
 30 32  2  0
 32 33  1  0
 33 34  2  0
 34 35  1  0
 35 36  1  0
 35 39  1  0
 36 37  2  0
 37 38  1  0
 38 39  2  0
 41 42  2  0
M  END
