
     RDKit          3D

 41 43  0  0  0  0  0  0  0  0999 V2000
    1.3320   -6.1070   -2.3020 C   0  0  0  0  0  0  0  0  0  0  0  0
    1.3850   -4.7390   -2.0730 O   0  0  0  0  0  0  0  0  0  0  0  0
    0.4240   -4.0430   -1.3690 C   0  0  0  0  0  0  0  0  0  0  0  0
   -0.8970   -4.0350   -1.9050 N   0  0  0  0  0  0  0  0  0  0  0  0
    0.7660   -3.4410   -0.2790 C   0  0  0  0  0  0  0  0  0  0  0  0
    2.1090   -3.4990    0.1880 C   0  0  0  0  0  0  0  0  0  0  0  0
    3.2490   -3.5310    0.5800 N   0  0  0  0  0  0  0  0  0  0  0  0
   -0.2310   -2.6490    0.5090 C   0  0  1  0  0  0  0  0  0  0  0  0
   -0.1590   -3.0660    1.9140 C   0  0  0  0  0  0  0  0  0  0  0  0
    0.6900   -2.4040    2.7720 C   0  0  0  0  0  0  0  0  0  0  0  0
    0.8960   -2.8390    4.0860 C   0  0  0  0  0  0  0  0  0  0  0  0
    1.8440   -2.0890    4.9770 C   0  0  0  0  0  0  0  0  0  0  0  0
    0.2080   -3.9620    4.4760 C   0  0  0  0  0  0  0  0  0  0  0  0
   -0.6290   -4.6080    3.6180 C   0  0  0  0  0  0  0  0  0  0  0  0
   -0.8530   -4.1970    2.3050 C   0  0  0  0  0  0  0  0  0  0  0  0
   -1.7940   -4.9050    1.4140 C   0  0  0  0  0  0  0  0  0  0  0  0
   -0.0750   -1.2170    0.1650 C   0  0  1  0  0  0  0  0  0  0  0  0
   -1.0110   -0.3300    0.9060 C   0  0  0  0  0  0  0  0  0  0  0  0
   -0.7460    0.0750    2.0420 O   0  0  0  0  0  0  0  0  0  0  0  0
   -2.2800    0.1080    0.3630 N   0  0  0  0  0  0  0  0  0  0  0  0
   -3.1420    0.9520    1.1680 C   0  0  2  0  0  0  0  0  0  0  0  0
   -4.4790    0.2780    1.4550 C   0  0  0  0  0  0  0  0  0  0  0  0
   -5.3070    1.5380    1.7650 C   0  0  0  0  0  0  0  0  0  0  0  0
   -4.9970    2.3390    0.5700 N   0  0  2  0  0  0  0  0  0  0  0  0
   -5.7810    1.8050   -0.4830 C   0  0  0  0  0  0  0  0  0  0  0  0
   -6.7540    2.8030   -1.0520 C   0  0  0  0  0  0  0  0  0  0  0  0
   -6.1360    4.0180   -1.6640 C   0  0  0  0  0  0  0  0  0  0  0  0
   -7.1960    4.8650   -2.1990 N   0  0  0  0  0  0  0  0  0  0  0  0
   -3.5540    2.1550    0.3980 C   0  0  0  0  0  0  0  0  0  0  0  0
    1.2570   -0.6130    0.0070 C   0  0  0  0  0  0  0  0  0  0  0  0
    1.4920    0.4900    0.6540 O   0  0  0  0  0  0  0  0  0  0  0  0
    2.2750   -1.0740   -0.7150 O   0  0  0  0  0  0  0  0  0  0  0  0
    3.5780   -0.4520   -0.7680 C   0  0  0  0  0  0  0  0  0  0  0  0
    3.5080    0.9380   -1.3850 C   0  0  0  0  0  0  0  0  0  0  0  0
    4.6420    1.5860   -1.4620 O   0  0  0  0  0  0  0  0  0  0  0  0
    4.9610    2.7610   -1.8930 C   0  0  2  0  0  0  0  0  0  0  0  0
    5.9550    2.9210   -3.0210 C   0  0  0  0  0  0  0  0  0  0  0  0
    6.8790    4.0690   -2.7030 C   0  0  0  0  0  0  0  0  0  0  0  0
    7.7550    3.8710   -1.5190 C   0  0  0  0  0  0  0  0  0  0  0  0
    6.9590    3.1270   -0.4550 C   0  0  0  0  0  0  0  0  0  0  0  0
    5.5190    3.5480   -0.6660 C   0  0  0  0  0  0  0  0  0  0  0  0
  1  2  1  0
  2  3  1  0
  3  4  1  0
  3  5  2  3
  5  6  1  0
  8  5  1  6
  6  7  3  0
  8  9  1  0
  8 17  1  0
  9 10  2  0
  9 15  1  0
 10 11  1  0
 11 12  1  0
 11 13  2  0
 13 14  1  0
 14 15  2  0
 15 16  1  0
 17 18  1  1
 17 30  1  0
 18 19  2  0
 18 20  1  0
 21 20  1  6
 21 22  1  0
 21 29  1  0
 22 23  1  0
 23 24  1  0
 24 25  1  6
 24 29  1  0
 25 26  1  0
 26 27  1  0
 27 28  1  0
 30 31  2  0
 30 32  1  0
 32 33  1  0
 33 34  1  0
 34 35  1  0
 36 35  1  1
 36 37  1  0
 36 41  1  0
 37 38  1  0
 38 39  1  0
 39 40  1  0
 40 41  1  0
M  CHG  2  24   1  28   1
M  END
