
     RDKit          3D

 42 46  0  0  0  0  0  0  0  0999 V2000
   -5.2350   -1.2790   -1.7680 C   0  0  0  0  0  0  0  0  0  0  0  0
   -4.8560    0.0240   -1.1320 C   0  0  0  0  0  0  0  0  0  0  0  0
   -4.0870    0.8200   -1.9090 C   0  0  0  0  0  0  0  0  0  0  0  0
   -3.6280    2.0140   -1.5640 O   0  0  0  0  0  0  0  0  0  0  0  0
   -2.5520    2.6750   -1.1220 C   0  0  0  0  0  0  0  0  0  0  0  0
   -2.8090    3.8870   -0.4630 C   0  0  0  0  0  0  0  0  0  0  0  0
   -1.8240    4.6960    0.0500 C   0  0  0  0  0  0  0  0  0  0  0  0
   -0.5050    4.3340   -0.0670 C   0  0  0  0  0  0  0  0  0  0  0  0
   -0.2120    3.1560   -0.7040 C   0  0  0  0  0  0  0  0  0  0  0  0
   -1.2060    2.3160   -1.2340 C   0  0  0  0  0  0  0  0  0  0  0  0
   -0.7220    1.1440   -1.8550 N   0  0  0  0  0  0  0  0  0  0  0  0
   -0.9480   -0.2150   -1.6270 C   0  0  0  0  0  0  0  0  0  0  0  0
   -1.5010   -0.9030   -2.5430 O   0  0  0  0  0  0  0  0  0  0  0  0
   -0.6120   -1.0040   -0.4130 C   0  0  1  0  0  0  0  0  0  0  0  0
   -0.0880   -0.2750    0.6780 N   0  0  0  0  0  0  0  0  0  0  0  0
    1.2200   -0.5100    1.1860 C   0  0  0  0  0  0  0  0  0  0  0  0
    1.9860   -1.3800    0.6960 O   0  0  0  0  0  0  0  0  0  0  0  0
    1.6990    0.2930    2.3290 C   0  0  0  0  0  0  0  0  0  0  0  0
    3.0980   -0.0830    2.7070 C   0  0  0  0  0  0  0  0  0  0  0  0
    4.0480    0.1350    1.6140 C   0  0  0  0  0  0  0  0  0  0  0  0
    3.6840    0.6000    0.5180 O   0  0  0  0  0  0  0  0  0  0  0  0
    5.4120   -0.1860    1.7910 N   0  0  0  0  0  0  0  0  0  0  0  0
    6.3930   -0.0120    0.7940 C   0  0  0  0  0  0  0  0  0  0  0  0
    7.6030   -0.1710    0.6070 N   0  0  0  0  0  0  0  0  0  0  0  0
    8.2690    0.0920   -0.4760 C   0  0  0  0  0  0  0  0  0  0  0  0
    7.6010    0.6010   -1.5460 C   0  0  0  0  0  0  0  0  0  0  0  0
    5.9110    0.6810   -0.8860 S   0  0  0  0  0  0  0  0  0  0  0  0
    8.4400    0.8600   -2.7030 C   0  0  0  0  0  0  0  0  0  0  0  0
    9.8180    0.9540   -2.0780 C   0  0  0  0  0  0  0  0  0  0  0  0
    9.7030   -0.0100   -0.9460 C   0  0  0  0  0  0  0  0  0  0  0  0
   -1.6910   -1.9680   -0.1180 C   0  0  0  0  0  0  0  0  0  0  0  0
   -2.7980   -1.7550    0.5510 C   0  0  0  0  0  0  0  0  0  0  0  0
   -3.1370   -0.4450    1.1330 C   0  0  0  0  0  0  0  0  0  0  0  0
   -4.5770   -0.1650    1.3670 C   0  0  2  0  0  0  0  0  0  0  0  0
   -4.6550    0.9070    2.4670 C   0  0  0  0  0  0  0  0  0  0  0  0
   -5.2450   -1.3820    1.9590 C   0  0  0  0  0  0  0  0  0  0  0  0
   -5.3350    0.3380    0.2060 C   0  0  0  0  0  0  0  0  0  0  0  0
   -3.6880   -2.7850    0.7270 O   0  0  0  0  0  0  0  0  0  0  0  0
   -3.8710   -3.9460   -0.0160 C   0  0  0  0  0  0  0  0  0  0  0  0
   -2.7060   -4.2280   -0.9010 C   0  0  0  0  0  0  0  0  0  0  0  0
   -1.5470   -3.3570   -0.6280 C   0  0  0  0  0  0  0  0  0  0  0  0
   -0.3970   -3.8030   -0.8330 O   0  0  0  0  0  0  0  0  0  0  0  0
  1  2  1  0
  2  3  2  0
  2 37  1  0
  3  4  1  0
  4  5  1  0
  5  6  2  0
  5 10  1  0
  6  7  1  0
  7  8  2  0
  8  9  1  0
  9 10  2  0
 10 11  1  0
 11 12  1  0
 12 13  2  0
 12 14  1  0
 14 15  1  1
 14 31  1  0
 15 16  1  0
 16 17  2  0
 16 18  1  0
 18 19  1  0
 19 20  1  0
 20 21  2  0
 20 22  1  0
 22 23  1  0
 23 24  2  0
 23 27  1  0
 24 25  1  0
 25 26  2  0
 25 30  1  0
 26 27  1  0
 26 28  1  0
 28 29  1  0
 29 30  1  0
 31 32  2  0
 31 41  1  0
 32 33  1  0
 32 38  1  0
 33 34  1  0
 34 35  1  1
 34 36  1  0
 34 37  1  0
 38 39  1  0
 39 40  1  0
 40 41  1  0
 41 42  2  0
M  END
