
     RDKit          3D

 30 33  0  0  0  0  0  0  0  0999 V2000
   -3.9950    3.0640    2.3430 O   0  0  0  0  0  0  0  0  0  0  0  0
   -3.8960    1.9360    1.8120 C   0  0  0  0  0  0  0  0  0  0  0  0
   -5.0970    1.2500    1.4430 N   0  0  0  0  0  0  0  0  0  0  0  0
   -5.2470   -0.1140    0.9920 C   0  0  0  0  0  0  0  0  0  0  0  0
   -4.1850   -0.5520    0.2210 O   0  0  0  0  0  0  0  0  0  0  0  0
   -3.0110   -0.7160    0.9330 C   0  0  0  0  0  0  0  0  0  0  0  0
   -2.1320    0.5200    0.6930 C   0  0  2  0  0  0  0  0  0  0  0  0
   -2.6070    1.4860    1.6460 O   0  0  0  0  0  0  0  0  0  0  0  0
   -2.4230    0.9890   -0.6580 C   0  0  0  0  0  0  0  0  0  0  0  0
   -3.2750    1.9050   -0.7370 O   0  0  0  0  0  0  0  0  0  0  0  0
   -1.8380    0.5120   -1.8720 N   0  0  0  0  0  0  0  0  0  0  0  0
   -0.7540   -0.3620   -1.9670 C   0  0  0  0  0  0  0  0  0  0  0  0
   -0.8220   -1.0720   -3.0710 N   0  0  0  0  0  0  0  0  0  0  0  0
    0.1820   -1.9910   -3.3170 O   0  0  0  0  0  0  0  0  0  0  0  0
    0.9250   -2.5270   -2.3720 O   0  0  0  0  0  0  0  0  0  0  0  0
    0.5850   -2.1510   -1.0910 C   0  0  0  0  0  0  0  0  0  0  0  0
    0.4010   -0.6270   -1.1130 C   0  0  2  0  0  0  0  0  0  0  0  0
    0.4210   -0.0760    0.1890 N   0  0  0  0  0  0  0  0  0  0  0  0
    1.6610    0.1980    0.7830 C   0  0  0  0  0  0  0  0  0  0  0  0
    1.5610    0.7470    1.9730 O   0  0  0  0  0  0  0  0  0  0  0  0
    3.0240    0.0070    0.3640 C   0  0  0  0  0  0  0  0  0  0  0  0
    3.5860   -0.6110   -0.7200 C   0  0  0  0  0  0  0  0  0  0  0  0
    4.9210   -0.5060   -0.7000 O   0  0  0  0  0  0  0  0  0  0  0  0
    5.2500    0.1610    0.3630 C   0  0  0  0  0  0  0  0  0  0  0  0
    6.5660    0.4820    0.7420 O   0  0  0  0  0  0  0  0  0  0  0  0
    7.6020    0.0920   -0.0210 O   0  0  0  0  0  0  0  0  0  0  0  0
    8.1370    1.1170   -0.6410 O   0  0  0  0  0  0  0  0  0  0  0  0
    4.1470    0.5150    1.0750 C   0  0  0  0  0  0  0  0  0  0  0  0
   -0.7500    0.2130    0.9720 C   0  0  0  0  0  0  0  0  0  0  0  0
   -0.4800    0.1880    2.2230 O   0  0  0  0  0  0  0  0  0  0  0  0
  1  2  2  0
  2  3  1  0
  2  8  1  0
  3  4  1  0
  4  5  1  0
  5  6  1  0
  7  6  1  1
  7  8  1  0
  7  9  1  0
  7 29  1  0
  9 10  2  0
  9 11  1  0
 11 12  1  0
 12 13  2  0
 12 17  1  0
 13 14  1  0
 14 15  1  0
 15 16  1  0
 17 16  1  1
 17 18  1  0
 18 19  1  0
 18 29  1  0
 19 20  2  0
 19 21  1  0
 21 22  2  0
 21 28  1  0
 22 23  1  0
 23 24  1  0
 24 25  1  0
 24 28  2  0
 25 26  1  0
 26 27  1  0
 29 30  2  0
M  END
