
     RDKit          3D

 31 33  0  0  0  0  0  0  0  0999 V2000
   -7.5920   -0.7100    1.6440 N   0  0  0  0  0  0  0  0  0  0  0  0
   -6.7570   -0.1060    0.6780 C   0  0  0  0  0  0  0  0  0  0  0  0
   -7.2040    0.8790   -0.1410 N   0  0  0  0  0  0  0  0  0  0  0  0
   -6.4210    1.4530   -1.0540 C   0  0  0  0  0  0  0  0  0  0  0  0
   -5.1440    1.0460   -1.1720 N   0  0  0  0  0  0  0  0  0  0  0  0
   -4.6430    0.0760   -0.3910 C   0  0  0  0  0  0  0  0  0  0  0  0
   -5.4590   -0.5160    0.5550 C   0  0  0  0  0  0  0  0  0  0  0  0
   -4.7280   -1.4640    1.2180 C   0  0  0  0  0  0  0  0  0  0  0  0
   -3.4500   -1.4480    0.6680 C   0  0  0  0  0  0  0  0  0  0  0  0
   -3.4310   -0.5080   -0.3000 N   0  0  0  0  0  0  0  0  0  0  0  0
   -2.3090   -0.1530   -1.1320 C   0  0  2  0  0  0  0  0  0  0  0  0
   -1.2010   -0.9160   -0.7740 O   0  0  0  0  0  0  0  0  0  0  0  0
   -0.1450   -0.1640   -1.3060 C   0  0  2  0  0  0  0  0  0  0  0  0
    1.1270   -0.7300   -0.7190 C   0  0  0  0  0  0  0  0  0  0  0  0
    1.0570   -0.6060    0.6370 O   0  0  0  0  0  0  0  0  0  0  0  0
    2.3980   -1.1940    1.3960 P   0  0  0  0  0  0  0  0  0  0  0  0
    3.1080   -2.5910    0.9650 O   0  0  0  0  0  0  0  0  0  0  0  0
    2.9120   -0.4470    2.8050 O   0  0  0  0  0  0  0  0  0  0  0  0
    3.3350   -0.3290    0.5920 O   0  0  0  0  0  0  0  0  0  0  0  0
    4.5350   -0.7480   -0.3730 P   0  0  0  0  0  0  0  0  0  0  0  0
    5.8770   -1.5000    0.2110 O   0  0  0  0  0  0  0  0  0  0  0  0
    3.9190   -2.0540   -0.9330 O   0  0  0  0  0  0  0  0  0  0  0  0
    5.3320    0.5970   -0.2930 O   0  0  0  0  0  0  0  0  0  0  0  0
    5.2710    1.5220    0.9150 P   0  0  0  0  0  0  0  0  0  0  0  0
    6.3850    2.5810    0.4410 O   0  0  0  0  0  0  0  0  0  0  0  0
    5.7700    0.1450    1.8140 O   0  0  0  0  0  0  0  0  0  0  0  0
    3.6660    1.7880    0.8160 O   0  0  0  0  0  0  0  0  0  0  0  0
   -0.4180    1.2430   -0.8870 C   0  0  1  0  0  0  0  0  0  0  0  0
   -0.0260    2.1400   -1.8970 O   0  0  0  0  0  0  0  0  0  0  0  0
   -1.9310    1.2880   -0.8320 C   0  0  1  0  0  0  0  0  0  0  0  0
   -2.4780    2.0790   -1.8290 O   0  0  0  0  0  0  0  0  0  0  0  0
  1  2  1  0
  2  3  2  0
  2  7  1  0
  3  4  1  0
  4  5  2  0
  5  6  1  0
  6  7  2  0
  6 10  1  0
  7  8  1  0
  8  9  2  0
  9 10  1  0
 11 10  1  1
 11 12  1  0
 11 30  1  0
 12 13  1  0
 13 14  1  1
 13 28  1  0
 14 15  1  0
 15 16  1  0
 16 17  1  0
 16 18  1  0
 16 19  1  0
 19 20  1  0
 20 21  1  0
 20 22  1  0
 20 23  1  0
 23 24  1  0
 24 25  1  0
 24 26  1  0
 24 27  1  0
 28 29  1  6
 28 30  1  0
 30 31  1  6
M  END
