
     RDKit          3D

 30 31  0  0  0  0  0  0  0  0999 V2000
   -0.8190   -1.3190   -2.7150 O   0  0  0  0  0  0  0  0  0  0  0  0
   -1.2010   -0.5400   -1.7400 C   0  0  0  0  0  0  0  0  0  0  0  0
   -2.5100   -0.6570   -1.3360 N   0  0  0  0  0  0  0  0  0  0  0  0
   -3.1940   -1.1490   -0.4100 C   0  0  0  0  0  0  0  0  0  0  0  0
   -4.6330   -0.9440   -0.5130 N   0  0  0  0  0  0  0  0  0  0  0  0
   -5.1970    0.1640   -0.3200 C   0  0  0  0  0  0  0  0  0  0  0  0
   -6.6750    0.2380   -0.4580 C   0  0  0  0  0  0  0  0  0  0  0  0
   -7.1520    1.5160   -0.1740 O   0  0  0  0  0  0  0  0  0  0  0  0
   -6.4420    2.4720   -0.6850 O   0  0  0  0  0  0  0  0  0  0  0  0
   -5.3190    2.6620    0.1540 C   0  0  0  0  0  0  0  0  0  0  0  0
   -4.5240    1.4060    0.0320 C   0  0  0  0  0  0  0  0  0  0  0  0
   -3.2840    1.3780    0.2220 O   0  0  0  0  0  0  0  0  0  0  0  0
   -2.7980   -1.8890    0.7220 N   0  0  0  0  0  0  0  0  0  0  0  0
   -1.8210   -1.5280    1.7290 C   0  0  0  0  0  0  0  0  0  0  0  0
   -0.5410   -2.3240    1.6200 C   0  0  0  0  0  0  0  0  0  0  0  0
   -0.4840   -2.8720    0.3700 O   0  0  0  0  0  0  0  0  0  0  0  0
    0.6330   -2.6040   -0.2970 O   0  0  0  0  0  0  0  0  0  0  0  0
    1.6570   -1.7740    0.0440 C   0  0  0  0  0  0  0  0  0  0  0  0
    2.8280   -2.2970    0.1380 O   0  0  0  0  0  0  0  0  0  0  0  0
    1.5610   -0.3850    0.3070 N   0  0  0  0  0  0  0  0  0  0  0  0
    2.6330    0.2490    1.0520 C   0  0  0  0  0  0  0  0  0  0  0  0
    3.6660    0.7670    0.0480 C   0  0  0  0  0  0  0  0  0  0  0  0
    4.1870   -0.2580   -0.7140 O   0  0  0  0  0  0  0  0  0  0  0  0
    5.1150    0.1560   -1.6460 C   0  0  0  0  0  0  0  0  0  0  0  0
    6.2900    0.8150   -1.0030 C   0  0  0  0  0  0  0  0  0  0  0  0
    7.1750    1.1960   -2.0270 O   0  0  0  0  0  0  0  0  0  0  0  0
    8.2400    1.7840   -1.5570 O   0  0  0  0  0  0  0  0  0  0  0  0
    0.4600    0.4400   -0.1320 C   0  0  0  0  0  0  0  0  0  0  0  0
    0.2010    1.3830    0.7060 O   0  0  0  0  0  0  0  0  0  0  0  0
   -0.2360    0.2840   -1.2640 O   0  0  0  0  0  0  0  0  0  0  0  0
  1  2  2  0
  2  3  1  0
  2 30  1  0
  3  4  2  0
  4  5  1  0
  4 13  1  0
  5  6  2  3
  6  7  1  0
  6 11  1  0
  7  8  1  0
  8  9  1  0
  9 10  1  0
 10 11  1  0
 11 12  2  0
 13 14  1  0
 14 15  1  0
 15 16  1  0
 16 17  1  0
 17 18  1  0
 18 19  2  0
 18 20  1  0
 20 21  1  0
 20 28  1  0
 21 22  1  0
 22 23  1  0
 23 24  1  0
 24 25  1  0
 25 26  1  0
 26 27  1  0
 28 29  2  0
 28 30  1  0
M  END
