
     RDKit          3D

 31 32  0  0  0  0  0  0  0  0999 V2000
   -3.4540   -1.3250   -1.3920 C   0  0  0  0  0  0  0  0  0  0  0  0
   -3.4880   -0.5300   -0.1060 C   0  0  2  0  0  0  0  0  0  0  0  0
   -3.5500   -1.4870    0.9780 N   0  0  0  0  0  0  0  0  0  0  0  0
   -4.8650    0.1610   -0.1040 C   0  0  0  0  0  0  0  0  0  0  0  0
   -5.0800    0.7910    1.1200 O   0  0  0  0  0  0  0  0  0  0  0  0
   -2.5750    0.4400    0.0370 O   0  0  0  0  0  0  0  0  0  0  0  0
   -1.2600    0.2150    0.0420 C   0  0  1  0  0  0  0  0  0  0  0  0
   -0.6340   -0.1210   -1.2890 C   0  0  0  0  0  0  0  0  0  0  0  0
    0.8880    0.0450   -1.2820 C   0  0  1  0  0  0  0  0  0  0  0  0
    1.2930    1.0580   -2.0940 O   0  0  0  0  0  0  0  0  0  0  0  0
    1.9640    0.4190   -3.5920 P   0  0  0  0  0  0  0  0  0  0  0  0
    1.3460    0.1020    0.1560 C   0  0  1  0  0  0  0  0  0  0  0  0
    2.6310   -0.2050    0.4290 O   0  0  0  0  0  0  0  0  0  0  0  0
    3.7440    0.4360    0.0060 C   0  0  0  0  0  0  0  0  0  0  0  0
    3.4850    1.4240   -0.7040 O   0  0  0  0  0  0  0  0  0  0  0  0
    5.1540    0.1230    0.2710 C   0  0  0  0  0  0  0  0  0  0  0  0
    5.2150   -1.0560    1.1070 N   0  0  0  0  0  0  0  0  0  0  0  0
    0.8160    1.3850    0.6750 C   0  0  0  0  0  0  0  0  0  0  0  0
    1.4160    2.2930    1.2520 O   0  0  0  0  0  0  0  0  0  0  0  0
   -0.6090    1.5350    0.4450 C   0  0  0  0  0  0  0  0  0  0  0  0
   -1.4840    2.9010    0.5760 P   0  0  0  0  0  0  0  0  0  0  0  0
   -0.7680    4.4870    1.0480 C   0  0  0  0  0  0  0  0  0  0  0  0
    0.1850    5.0480    0.4460 O   0  0  0  0  0  0  0  0  0  0  0  0
   -1.2990    5.1560    2.1590 O   0  0  0  0  0  0  0  0  0  0  0  0
    0.5160   -1.0040    0.8420 C   0  0  1  0  0  0  0  0  0  0  0  0
    0.5050   -2.0730   -0.0610 O   0  0  0  0  0  0  0  0  0  0  0  0
   -0.1790   -3.0910    0.4130 O   0  0  0  0  0  0  0  0  0  0  0  0
    1.1430   -1.4550    1.9790 O   0  0  0  0  0  0  0  0  0  0  0  0
    2.3110   -1.9660    1.7840 O   0  0  0  0  0  0  0  0  0  0  0  0
    2.3380   -3.1140    1.1890 O   0  0  0  0  0  0  0  0  0  0  0  0
   -0.7980   -0.6380    1.0440 O   0  0  0  0  0  0  0  0  0  0  0  0
  2  1  1  6
  2  3  1  0
  2  4  1  0
  2  6  1  0
  4  5  1  0
  7  6  1  6
  7  8  1  0
  7 20  1  0
  7 31  1  0
  8  9  1  0
  9 10  1  6
  9 12  1  0
 10 11  1  0
 12 13  1  6
 12 18  1  0
 12 25  1  0
 13 14  1  0
 14 15  2  0
 14 16  1  0
 16 17  1  0
 18 19  2  0
 18 20  1  0
 20 21  2  3
 21 22  1  0
 22 23  2  0
 22 24  1  0
 25 26  1  6
 25 28  1  0
 25 31  1  0
 26 27  1  0
 28 29  1  0
 29 30  1  0
M  END
