
     RDKit          3D

 30 31  0  0  0  0  0  0  0  0999 V2000
   -5.6190   -0.3970   -1.1700 N   0  0  0  0  0  0  0  0  0  0  0  0
   -4.7110    0.5680   -0.6830 C   0  0  0  0  0  0  0  0  0  0  0  0
   -3.3550   -0.0520   -0.1970 C   0  0  0  0  0  0  0  0  0  0  0  0
   -3.2800   -1.3540   -0.3340 C   0  0  0  0  0  0  0  0  0  0  0  0
   -2.3550   -2.4340   -0.0870 C   0  0  0  0  0  0  0  0  0  0  0  0
   -2.1740   -3.1980   -1.1570 O   0  0  0  0  0  0  0  0  0  0  0  0
   -1.6350   -2.8590    0.9700 O   0  0  0  0  0  0  0  0  0  0  0  0
   -0.3610   -2.6360    1.5070 C   0  0  0  0  0  0  0  0  0  0  0  0
    0.1330   -1.3270    0.9680 C   0  0  0  0  0  0  0  0  0  0  0  0
    1.4090   -1.3360    0.2870 N   0  0  0  0  0  0  0  0  0  0  0  0
    2.5420   -1.9640    0.4800 N   0  0  0  0  0  0  0  0  0  0  0  0
    3.4230   -1.5850   -0.4640 C   0  0  0  0  0  0  0  0  0  0  0  0
    4.8030   -2.0870   -0.5590 C   0  0  0  0  0  0  0  0  0  0  0  0
    5.7310   -1.3160    0.1710 O   0  0  0  0  0  0  0  0  0  0  0  0
    5.9900    0.0120   -0.0310 C   0  0  0  0  0  0  0  0  0  0  0  0
    5.3580    0.6120   -0.9390 O   0  0  0  0  0  0  0  0  0  0  0  0
    6.9320    0.7250    0.7340 O   0  0  0  0  0  0  0  0  0  0  0  0
    7.1640    2.0220    0.5140 O   0  0  0  0  0  0  0  0  0  0  0  0
    6.0800    2.7320    0.4030 O   0  0  0  0  0  0  0  0  0  0  0  0
    2.7800   -0.6900   -1.2530 N   0  0  0  0  0  0  0  0  0  0  0  0
    1.5250   -0.5170   -0.8090 C   0  0  0  0  0  0  0  0  0  0  0  0
    0.3440    0.3190   -1.2540 C   0  0  0  0  0  0  0  0  0  0  0  0
   -0.0340    1.0930   -0.2110 O   0  0  0  0  0  0  0  0  0  0  0  0
   -1.2730    1.3910    0.3910 C   0  0  0  0  0  0  0  0  0  0  0  0
   -1.0830    2.4690    1.1000 N   0  0  0  0  0  0  0  0  0  0  0  0
   -2.1210    2.9950    1.8010 O   0  0  0  0  0  0  0  0  0  0  0  0
   -2.9080    4.0280    1.3100 C   0  0  0  0  0  0  0  0  0  0  0  0
   -2.6560    4.4960    0.1820 O   0  0  0  0  0  0  0  0  0  0  0  0
   -3.9510    4.5190    2.0740 O   0  0  0  0  0  0  0  0  0  0  0  0
   -2.4170    0.7590    0.3030 O   0  0  0  0  0  0  0  0  0  0  0  0
  1  2  1  0
  2  3  1  0
  3  4  2  0
  3 30  1  0
  4  5  1  0
  5  6  2  0
  5  7  1  0
  7  8  1  0
  8  9  1  0
  9 10  1  0
 10 11  1  0
 10 21  1  0
 11 12  2  0
 12 13  1  0
 12 20  1  0
 13 14  1  0
 14 15  1  0
 15 16  2  0
 15 17  1  0
 17 18  1  0
 18 19  1  0
 20 21  2  0
 21 22  1  0
 22 23  1  0
 23 24  1  0
 24 25  2  3
 24 30  1  0
 25 26  1  0
 26 27  1  0
 27 28  2  0
 27 29  1  0
M  END
