
     RDKit          3D

 29 30  0  0  0  0  0  0  0  0999 V2000
   -1.1970   -3.7170    1.6920 C   0  0  0  0  0  0  0  0  0  0  0  0
   -0.2710   -3.3940    2.6790 O   0  0  0  0  0  0  0  0  0  0  0  0
   -0.2310   -2.0750    2.8130 O   0  0  0  0  0  0  0  0  0  0  0  0
   -0.2640   -1.1700    1.7680 C   0  0  0  0  0  0  0  0  0  0  0  0
   -1.3900   -0.5820    1.3470 N   0  0  0  0  0  0  0  0  0  0  0  0
   -1.4670    0.3010    0.3370 C   0  0  0  0  0  0  0  0  0  0  0  0
   -2.6870    0.8980   -0.0800 N   0  0  0  0  0  0  0  0  0  0  0  0
   -3.9060    0.5850    0.5810 C   0  0  0  0  0  0  0  0  0  0  0  0
   -3.9220    0.2720    1.8290 N   0  0  0  0  0  0  0  0  0  0  0  0
   -5.1310    0.6000   -0.0850 O   0  0  0  0  0  0  0  0  0  0  0  0
   -6.3130    1.0420    0.5080 C   0  0  0  0  0  0  0  0  0  0  0  0
   -6.2670    1.4610    1.6870 O   0  0  0  0  0  0  0  0  0  0  0  0
   -7.5510    1.0400   -0.1590 N   0  0  0  0  0  0  0  0  0  0  0  0
   -8.6490    1.4890    0.4850 O   0  0  0  0  0  0  0  0  0  0  0  0
   -8.5320    2.7650    0.8170 O   0  0  0  0  0  0  0  0  0  0  0  0
   -0.2990    0.6390   -0.3310 C   0  0  0  0  0  0  0  0  0  0  0  0
   -0.3080    1.5560   -1.3980 O   0  0  0  0  0  0  0  0  0  0  0  0
   -0.5060    1.0790   -2.7230 C   0  0  0  0  0  0  0  0  0  0  0  0
    0.8860    0.0630    0.0630 C   0  0  0  0  0  0  0  0  0  0  0  0
    2.1260    0.1560   -0.3380 O   0  0  0  0  0  0  0  0  0  0  0  0
    2.9010   -0.6060    0.3700 C   0  0  0  0  0  0  0  0  0  0  0  0
    4.3880   -0.7540    0.1950 C   0  0  0  0  0  0  0  0  0  0  0  0
    4.6580   -0.4530   -1.1100 O   0  0  0  0  0  0  0  0  0  0  0  0
    5.9630   -0.5580   -1.4930 C   0  0  0  0  0  0  0  0  0  0  0  0
    6.8300    0.3520   -0.6920 C   0  0  0  0  0  0  0  0  0  0  0  0
    6.4440    1.6830   -0.8450 O   0  0  0  0  0  0  0  0  0  0  0  0
    7.2090    2.4580   -0.1400 O   0  0  0  0  0  0  0  0  0  0  0  0
    2.1890   -1.2600    1.3000 N   0  0  0  0  0  0  0  0  0  0  0  0
    0.9150   -0.8450    1.1140 C   0  0  0  0  0  0  0  0  0  0  0  0
  1  2  1  0
  2  3  1  0
  3  4  1  0
  4  5  2  0
  4 29  1  0
  5  6  1  0
  6  7  1  0
  6 16  2  0
  7  8  1  0
  8  9  2  0
  8 10  1  0
 10 11  1  0
 11 12  2  0
 11 13  1  0
 13 14  1  0
 14 15  1  0
 16 17  1  0
 16 19  1  0
 17 18  1  0
 19 20  1  0
 19 29  2  0
 20 21  1  0
 21 22  1  0
 21 28  2  0
 22 23  1  0
 23 24  1  0
 24 25  1  0
 25 26  1  0
 26 27  1  0
 28 29  1  0
M  END
