
     RDKit          3D

 35 36  0  0  0  0  0  0  0  0999 V2000
   -3.0120    2.4670   -2.0450 C   0  0  0  0  0  0  0  0  0  0  0  0
   -2.5830    1.7310   -1.2920 C   0  0  0  0  0  0  0  0  0  0  0  0
   -2.0930    0.8610   -0.4040 C   0  0  0  0  0  0  0  0  0  0  0  0
   -0.9440    0.5860    0.2440 C   0  0  0  0  0  0  0  0  0  0  0  0
    0.3040    1.0310   -0.0460 C   0  0  0  0  0  0  0  0  0  0  0  0
    0.4390    1.9190   -1.2470 C   0  0  0  0  0  0  0  0  0  0  0  0
    1.7520    1.8330   -1.4980 C   0  0  0  0  0  0  0  0  0  0  0  0
    2.6990    2.3780   -2.4340 C   0  0  0  0  0  0  0  0  0  0  0  0
    4.0860    1.9440   -1.8670 C   0  0  0  0  0  0  0  0  0  0  0  0
    5.0600    1.7110   -2.6610 O   0  0  0  0  0  0  0  0  0  0  0  0
    4.1580    1.8130   -0.5090 N   0  0  0  0  0  0  0  0  0  0  0  0
    5.1610    1.2600    0.3070 C   0  0  0  0  0  0  0  0  0  0  0  0
    4.8600    0.9600    1.6940 C   0  0  0  0  0  0  0  0  0  0  0  0
    5.8080    0.3610    2.3930 C   0  0  0  0  0  0  0  0  0  0  0  0
    7.0280   -0.0510    2.1000 C   0  0  0  0  0  0  0  0  0  0  0  0
    8.0860   -0.6600    2.6190 O   0  0  0  0  0  0  0  0  0  0  0  0
    9.3000   -0.9920    2.0210 C   0  0  0  0  0  0  0  0  0  0  0  0
    7.2020    0.2940    0.7500 C   0  0  0  0  0  0  0  0  0  0  0  0
    6.4180    0.9350   -0.2790 C   0  0  0  0  0  0  0  0  0  0  0  0
    2.3870    0.2990   -0.5250 S   0  0  0  0  0  0  0  0  0  0  0  0
    3.3060   -0.8110   -1.5130 C   0  0  0  0  0  0  0  0  0  0  0  0
   -3.0820    0.0730    0.0890 C   0  0  0  0  0  0  0  0  0  0  0  0
   -4.2020   -0.5310    0.3590 C   0  0  0  0  0  0  0  0  0  0  0  0
   -4.4000   -1.5850    1.2870 O   0  0  0  0  0  0  0  0  0  0  0  0
   -5.4180   -0.2190   -0.2660 N   0  0  0  0  0  0  0  0  0  0  0  0
   -6.6710   -1.0850   -0.0690 C   0  0  0  0  0  0  0  0  0  0  0  0
   -7.1850   -1.4460   -1.0220 C   0  0  0  0  0  0  0  0  0  0  0  0
   -7.3730   -1.5780   -2.4680 C   0  0  1  0  0  0  0  0  0  0  0  0
   -7.5580   -0.3150   -3.0500 F   0  0  0  0  0  0  0  0  0  0  0  0
   -6.2230   -2.1780   -3.0040 F   0  0  0  0  0  0  0  0  0  0  0  0
   -6.9060   -1.1940    1.3650 C   0  0  0  0  0  0  0  0  0  0  0  0
   -6.6880   -1.0400    2.6250 C   0  0  0  0  0  0  0  0  0  0  0  0
   -7.6290   -1.5540    3.4680 C   0  0  0  0  0  0  0  0  0  0  0  0
   -8.6020   -2.1110    2.5440 C   0  0  0  0  0  0  0  0  0  0  0  0
   -8.1830   -1.9050    1.4460 O   0  0  0  0  0  0  0  0  0  0  0  0
  1  2  3  0
  2  3  1  0
  3  4  1  0
  3 22  2  3
  4  5  2  3
  5  6  1  0
  6  7  2  3
  7  8  1  0
  7 20  1  0
  8  9  1  0
  9 10  2  0
  9 11  1  0
 11 12  1  0
 12 13  2  0
 12 19  1  0
 13 14  1  0
 14 15  2  0
 15 16  1  0
 15 18  1  0
 16 17  1  0
 18 19  2  0
 20 21  1  0
 22 23  1  0
 23 24  2  0
 23 25  1  0
 25 26  1  0
 26 27  2  3
 26 31  1  0
 27 28  1  0
 28 29  1  6
 28 30  1  0
 31 32  2  0
 31 35  1  0
 32 33  1  0
 33 34  2  0
 34 35  1  0
M  END
