
     RDKit          3D

 34 38  0  0  0  0  0  0  0  0999 V2000
    8.1580   -2.8260   -2.8330 C   0  0  0  0  0  0  0  0  0  0  0  0
    7.4150   -2.6330   -1.6440 O   0  0  0  0  0  0  0  0  0  0  0  0
    6.3910   -1.7020   -1.6230 C   0  0  0  0  0  0  0  0  0  0  0  0
    6.1710   -1.0620   -2.6900 O   0  0  0  0  0  0  0  0  0  0  0  0
    5.5830   -1.4520   -0.4310 C   0  0  0  0  0  0  0  0  0  0  0  0
    5.6780   -2.0410    0.7890 C   0  0  0  0  0  0  0  0  0  0  0  0
    4.6980   -1.4820    1.6180 C   0  0  0  0  0  0  0  0  0  0  0  0
    4.4290   -1.8180    3.0350 C   0  0  0  0  0  0  0  0  0  0  0  0
    4.0550   -0.5760    0.8510 N   0  0  0  0  0  0  0  0  0  0  0  0
    2.9650    0.2650    1.2400 C   0  0  0  0  0  0  0  0  0  0  0  0
    2.9750    1.5860    0.8290 C   0  0  0  0  0  0  0  0  0  0  0  0
    1.9550    2.4180    1.1800 C   0  0  0  0  0  0  0  0  0  0  0  0
    0.9080    1.9310    1.9510 C   0  0  0  0  0  0  0  0  0  0  0  0
   -0.3960    3.0560    2.3810 S   0  0  0  0  0  0  0  0  0  0  0  0
   -1.7220    3.0800    1.1850 C   0  0  1  0  0  0  0  0  0  0  0  0
   -1.3440    3.6210   -0.1530 C   0  0  0  0  0  0  0  0  0  0  0  0
   -2.5410    3.7890   -1.0230 C   0  0  0  0  0  0  0  0  0  0  0  0
   -3.4540    2.6150   -1.0890 C   0  0  0  0  0  0  0  0  0  0  0  0
   -3.6180    1.9110    0.2260 C   0  0  1  0  0  0  0  0  0  0  0  0
   -4.3920    0.7070    0.1000 N   0  0  0  0  0  0  0  0  0  0  0  0
   -5.6000    0.5690    0.6920 C   0  0  0  0  0  0  0  0  0  0  0  0
   -6.3010   -0.5680    0.5580 N   0  0  0  0  0  0  0  0  0  0  0  0
   -5.8300   -1.6150   -0.1720 C   0  0  0  0  0  0  0  0  0  0  0  0
   -4.6000   -1.4860   -0.7800 C   0  0  0  0  0  0  0  0  0  0  0  0
   -3.8850   -0.2930   -0.6280 C   0  0  0  0  0  0  0  0  0  0  0  0
   -2.7640   -0.2140   -1.2000 O   0  0  0  0  0  0  0  0  0  0  0  0
   -4.0850   -2.4640   -1.5050 C   0  0  0  0  0  0  0  0  0  0  0  0
   -4.7890   -3.7490   -1.7070 C   0  0  0  0  0  0  0  0  0  0  0  0
   -6.0130   -3.7200   -1.0250 O   0  0  0  0  0  0  0  0  0  0  0  0
   -6.5160   -2.7030   -0.2920 N   0  0  0  0  0  0  0  0  0  0  0  0
   -2.3200    1.6860    0.9470 C   0  0  0  0  0  0  0  0  0  0  0  0
    0.8820    0.6160    2.3700 C   0  0  0  0  0  0  0  0  0  0  0  0
    1.9200   -0.2150    2.0080 C   0  0  0  0  0  0  0  0  0  0  0  0
    4.5840   -0.5660   -0.3540 N   0  0  0  0  0  0  0  0  0  0  0  0
  1  2  1  0
  2  3  1  0
  3  4  2  0
  3  5  1  0
  5  6  1  0
  5 34  2  0
  6  7  2  0
  7  8  1  0
  7  9  1  0
  9 10  1  0
  9 34  1  0
 10 11  2  0
 10 33  1  0
 11 12  1  0
 12 13  2  0
 13 14  1  0
 13 32  1  0
 15 14  1  1
 15 16  1  0
 15 31  1  0
 16 17  1  0
 17 18  1  0
 18 19  1  0
 19 20  1  6
 19 31  1  0
 20 21  1  0
 20 25  1  0
 21 22  2  0
 22 23  1  0
 23 24  1  0
 23 30  2  0
 24 25  1  0
 24 27  2  0
 25 26  2  0
 27 28  1  0
 28 29  1  0
 29 30  1  0
 32 33  2  0
M  CHG  1  30   1
M  END
