
     RDKit          3D

 15 15  0  0  0  0  0  0  0  0999 V2000
    3.7490   -2.2050   -1.4720 O   0  0  0  0  0  0  0  0  0  0  0  0
    3.6270   -1.0270   -1.0650 C   0  0  0  0  0  0  0  0  0  0  0  0
    4.5480   -0.0980   -1.5230 O   0  0  0  0  0  0  0  0  0  0  0  0
    2.5230   -0.6250   -0.1110 C   0  0  0  0  0  0  0  0  0  0  0  0
    2.6660    0.7140    0.1360 O   0  0  0  0  0  0  0  0  0  0  0  0
    1.7710    1.2820    1.0090 C   0  0  0  0  0  0  0  0  0  0  0  0
    0.3360    1.2120    0.6320 C   0  0  0  0  0  0  0  0  0  0  0  0
   -0.1890   -0.0830    0.4820 O   0  0  0  0  0  0  0  0  0  0  0  0
   -1.5240   -0.1920    0.1310 C   0  0  0  0  0  0  0  0  0  0  0  0
   -2.4550   -0.5420    0.9980 C   0  0  0  0  0  0  0  0  0  0  0  0
   -3.8760   -0.6750    0.6960 C   0  0  0  0  0  0  0  0  0  0  0  0
   -4.1810   -0.3920   -0.6320 O   0  0  0  0  0  0  0  0  0  0  0  0
   -3.2520   -0.0260   -1.5610 C   0  0  0  0  0  0  0  0  0  0  0  0
   -1.9850    0.0770   -1.2290 C   0  0  0  0  0  0  0  0  0  0  0  0
   -0.6900    0.5910   -2.5450 Br  0  0  0  0  0  0  0  0  0  0  0  0
  1  2  2  0
  2  3  1  0
  2  4  1  0
  4  5  1  0
  5  6  1  0
  6  7  1  0
  7  8  1  0
  8  9  1  0
  9 10  2  0
  9 14  1  0
 10 11  1  0
 11 12  1  0
 12 13  1  0
 13 14  2  0
 14 15  1  0
M  END
