
     RDKit          3D

 15 15  0  0  0  0  0  0  0  0999 V2000
    4.5100    0.4940    0.1760 C   0  0  0  0  0  0  0  0  0  0  0  0
    3.0380    0.3540    0.0320 C   0  0  0  0  0  0  0  0  0  0  0  0
    2.3750    1.3710   -0.2200 O   0  0  0  0  0  0  0  0  0  0  0  0
    2.4560   -0.8750    0.1780 O   0  0  0  0  0  0  0  0  0  0  0  0
    1.0840   -1.0890    0.0570 C   0  0  0  0  0  0  0  0  0  0  0  0
    0.5310   -0.7150   -1.2930 C   0  0  0  0  0  0  0  0  0  0  0  0
   -0.8520   -0.9570   -1.3400 O   0  0  0  0  0  0  0  0  0  0  0  0
   -1.7720   -0.3510   -0.4910 C   0  0  0  0  0  0  0  0  0  0  0  0
   -2.4670   -1.1560    0.2860 C   0  0  0  0  0  0  0  0  0  0  0  0
   -2.1680   -3.0630    0.1950 Br  0  0  0  0  0  0  0  0  0  0  0  0
   -3.4760   -0.6090    1.2300 C   0  0  0  0  0  0  0  0  0  0  0  0
   -3.5800    0.7850    1.1830 O   0  0  0  0  0  0  0  0  0  0  0  0
   -2.8390    1.6010    0.3580 C   0  0  0  0  0  0  0  0  0  0  0  0
   -1.9610    1.0910   -0.4590 C   0  0  0  0  0  0  0  0  0  0  0  0
   -1.1800    1.8700   -1.3190 O   0  0  0  0  0  0  0  0  0  0  0  0
  1  2  1  0
  2  3  2  0
  2  4  1  0
  4  5  1  0
  5  6  1  0
  6  7  1  0
  7  8  1  0
  8  9  2  0
  8 14  1  0
  9 10  1  0
  9 11  1  0
 11 12  1  0
 12 13  1  0
 13 14  2  0
 14 15  1  0
M  END
