
     RDKit          3D

 15 15  0  0  0  0  0  0  0  0999 V2000
    0.3900   -1.1700   -0.1630 O   0  0  0  0  0  0  0  0  0  0  0  0
    0.8180   -0.2650   -0.9220 C   0  0  0  0  0  0  0  0  0  0  0  0
   -0.0730    0.2740   -1.9760 C   0  0  0  0  0  0  0  0  0  0  0  0
   -1.3130   -0.3600   -1.9380 O   0  0  0  0  0  0  0  0  0  0  0  0
   -2.1000   -0.2930   -0.7920 C   0  0  0  0  0  0  0  0  0  0  0  0
   -2.3450    0.8800   -0.2350 C   0  0  0  0  0  0  0  0  0  0  0  0
   -3.1710    1.0570    0.9850 C   0  0  0  0  0  0  0  0  0  0  0  0
   -3.6690   -0.1410    1.4960 O   0  0  0  0  0  0  0  0  0  0  0  0
   -3.4100   -1.3570    0.9130 C   0  0  0  0  0  0  0  0  0  0  0  0
   -2.6730   -1.4760   -0.1720 C   0  0  0  0  0  0  0  0  0  0  0  0
   -2.3390   -3.1840   -0.9490 Br  0  0  0  0  0  0  0  0  0  0  0  0
    2.1140    0.2030   -0.7490 O   0  0  0  0  0  0  0  0  0  0  0  0
    2.9040   -0.3680    0.2860 C   0  0  0  0  0  0  0  0  0  0  0  0
    4.2720    0.2330    0.3510 C   0  0  0  0  0  0  0  0  0  0  0  0
    4.2700    1.5920    0.5880 O   0  0  0  0  0  0  0  0  0  0  0  0
  1  2  2  0
  2  3  1  0
  2 12  1  0
  3  4  1  0
  4  5  1  0
  5  6  2  0
  5 10  1  0
  6  7  1  0
  7  8  1  0
  8  9  1  0
  9 10  2  0
 10 11  1  0
 12 13  1  0
 13 14  1  0
 14 15  1  0
M  END
