
     RDKit          3D

 22 24  0  0  0  0  0  0  0  0999 V2000
    1.6730    1.5110    2.0520 C   0  0  0  0  0  0  0  0  0  0  0  0
    2.1810    1.2620    0.6880 C   0  0  0  0  0  0  0  0  0  0  0  0
    3.3440    1.8980    0.4340 C   0  0  0  0  0  0  0  0  0  0  0  0
    4.2970    2.0350   -0.6900 C   0  0  0  0  0  0  0  0  0  0  0  0
    4.9760    0.7130   -0.9040 C   0  0  0  0  0  0  0  0  0  0  0  0
    3.9800   -0.3370   -1.4150 C   0  0  0  0  0  0  0  0  0  0  0  0
    3.3040   -0.9790   -0.2510 C   0  0  0  0  0  0  0  0  0  0  0  0
    1.8750   -0.9580   -0.2960 N   0  0  0  0  0  0  0  0  0  0  0  0
    1.3810   -1.8850    0.6910 C   0  0  0  0  0  0  0  0  0  0  0  0
    0.2050   -2.7170    0.1700 C   0  0  0  0  0  0  0  0  0  0  0  0
   -1.0290   -1.8360    0.4380 C   0  0  0  0  0  0  0  0  0  0  0  0
   -0.8430   -0.6680   -0.3540 N   0  0  0  0  0  0  0  0  0  0  0  0
   -1.9230   -0.3340   -1.2050 C   0  0  0  0  0  0  0  0  0  0  0  0
   -3.2080   -0.0540   -0.5620 C   0  0  0  0  0  0  0  0  0  0  0  0
   -3.5690   -0.0520    0.7660 C   0  0  0  0  0  0  0  0  0  0  0  0
   -4.9240    0.2870    0.8330 C   0  0  0  0  0  0  0  0  0  0  0  0
   -5.6960    0.3960    2.1130 C   0  0  0  0  0  0  0  0  0  0  0  0
   -5.3160    0.4680   -0.3850 O   0  0  0  0  0  0  0  0  0  0  0  0
   -4.3700    0.2860   -1.2460 C   0  0  0  0  0  0  0  0  0  0  0  0
   -4.5030    0.4190   -2.7230 C   0  0  0  0  0  0  0  0  0  0  0  0
   -0.1100    0.3960    0.2340 C   0  0  0  0  0  0  0  0  0  0  0  0
    1.3620    0.3810   -0.1630 C   0  0  1  0  0  0  0  0  0  0  0  0
  1  2  1  0
  2  3  2  0
  2 22  1  0
  3  4  1  0
  4  5  1  0
  5  6  1  0
  6  7  1  0
  7  8  1  0
  8  9  1  0
  8 22  1  0
  9 10  1  0
 10 11  1  0
 11 12  1  0
 12 13  1  0
 12 21  1  0
 13 14  1  0
 14 15  1  0
 14 19  2  0
 15 16  2  0
 16 17  1  0
 16 18  1  0
 18 19  1  0
 19 20  1  0
 22 21  1  1
M  END
