
     RDKit          3D

 22 24  0  0  0  0  0  0  0  0999 V2000
   -6.0910   -0.7030    0.5900 C   0  0  0  0  0  0  0  0  0  0  0  0
   -4.8870    0.1360    0.2240 C   0  0  0  0  0  0  0  0  0  0  0  0
   -3.6000   -0.6070    0.3570 C   0  0  2  0  0  0  0  0  0  0  0  0
   -3.4110   -1.0760    1.8080 C   0  0  0  0  0  0  0  0  0  0  0  0
   -2.5050    0.2390    0.0410 N   0  0  0  0  0  0  0  0  0  0  0  0
   -1.2100   -0.3120    0.3190 C   0  0  0  0  0  0  0  0  0  0  0  0
   -0.2310    0.8470    0.2520 C   0  0  0  0  0  0  0  0  0  0  0  0
   -0.0060    1.1240   -1.2100 C   0  0  1  0  0  0  0  0  0  0  0  0
    0.9740    0.1460   -1.7840 C   0  0  0  0  0  0  0  0  0  0  0  0
    2.2670    0.1580   -1.1510 N   0  0  0  0  0  0  0  0  0  0  0  0
    3.1410    1.0920   -1.5710 C   0  0  0  0  0  0  0  0  0  0  0  0
    4.3860    1.2200   -1.0280 C   0  0  0  0  0  0  0  0  0  0  0  0
    4.7700    0.3760   -0.0210 C   0  0  0  0  0  0  0  0  0  0  0  0
    6.0220    0.5110    0.5190 C   0  0  0  0  0  0  0  0  0  0  0  0
    6.3750   -0.3600    1.5340 C   0  0  0  0  0  0  0  0  0  0  0  0
    5.5360   -1.3250    2.0030 C   0  0  0  0  0  0  0  0  0  0  0  0
    4.2810   -1.4400    1.4410 C   0  0  0  0  0  0  0  0  0  0  0  0
    3.9020   -0.5820    0.4240 C   0  0  0  0  0  0  0  0  0  0  0  0
    2.6550   -0.6630   -0.1660 C   0  0  0  0  0  0  0  0  0  0  0  0
    1.8700   -1.5520    0.2530 O   0  0  0  0  0  0  0  0  0  0  0  0
   -1.2920    0.9720   -2.0010 C   0  0  0  0  0  0  0  0  0  0  0  0
   -2.5330    0.9240   -1.1950 C   0  0  0  0  0  0  0  0  0  0  0  0
  1  2  1  0
  2  3  1  0
  3  4  1  1
  3  5  1  0
  5  6  1  0
  5 22  1  0
  6  7  1  0
  7  8  1  0
  8  9  1  6
  8 21  1  0
  9 10  1  0
 10 11  1  0
 10 19  1  0
 11 12  2  0
 12 13  1  0
 13 14  2  0
 13 18  1  0
 14 15  1  0
 15 16  2  0
 16 17  1  0
 17 18  2  0
 18 19  1  0
 19 20  2  0
 21 22  1  0
M  END
