
     RDKit          3D

 22 24  0  0  0  0  0  0  0  0999 V2000
   -7.6460    0.5140    1.0480 C   0  0  0  0  0  0  0  0  0  0  0  0
   -6.2560    0.2970    0.5710 C   0  0  0  0  0  0  0  0  0  0  0  0
   -5.2360    0.4630    1.4780 C   0  0  0  0  0  0  0  0  0  0  0  0
   -3.8960    0.2770    1.1110 C   0  0  0  0  0  0  0  0  0  0  0  0
   -3.5620   -0.0770   -0.1710 C   0  0  0  0  0  0  0  0  0  0  0  0
   -2.2120   -0.2500   -0.5160 N   0  0  0  0  0  0  0  0  0  0  0  0
   -1.7830   -0.8080   -1.7930 C   0  0  0  0  0  0  0  0  0  0  0  0
   -0.5900   -1.7060   -1.4900 C   0  0  0  0  0  0  0  0  0  0  0  0
    0.5760   -0.8740   -0.9650 C   0  0  2  0  0  0  0  0  0  0  0  0
    1.2580   -1.6410    0.1090 C   0  0  0  0  0  0  0  0  0  0  0  0
    2.4290   -0.9830    0.7510 C   0  0  0  0  0  0  0  0  0  0  0  0
    3.5500   -0.6710   -0.1490 C   0  0  0  0  0  0  0  0  0  0  0  0
    3.4820   -1.0900   -1.3530 O   0  0  0  0  0  0  0  0  0  0  0  0
    4.6910    0.0660    0.2580 N   0  0  0  0  0  0  0  0  0  0  0  0
    5.8170    0.4010   -0.5710 C   0  0  0  0  0  0  0  0  0  0  0  0
    6.4670    1.6180    0.0490 C   0  0  0  0  0  0  0  0  0  0  0  0
    5.5090    1.9990    1.1560 C   0  0  0  0  0  0  0  0  0  0  0  0
    4.9570    0.6230    1.5540 C   0  0  0  0  0  0  0  0  0  0  0  0
    0.0670    0.4300   -0.4110 C   0  0  0  0  0  0  0  0  0  0  0  0
   -1.1700    0.1370    0.4120 C   0  0  0  0  0  0  0  0  0  0  0  0
   -4.5990   -0.2400   -1.0700 C   0  0  0  0  0  0  0  0  0  0  0  0
   -5.9270   -0.0560   -0.7060 C   0  0  0  0  0  0  0  0  0  0  0  0
  1  2  1  0
  2  3  2  0
  2 22  1  0
  3  4  1  0
  4  5  2  0
  5  6  1  0
  5 21  1  0
  6  7  1  0
  6 20  1  0
  7  8  1  0
  8  9  1  0
  9 10  1  1
  9 19  1  0
 10 11  1  0
 11 12  1  0
 12 13  2  0
 12 14  1  0
 14 15  1  0
 14 18  1  0
 15 16  1  0
 16 17  1  0
 17 18  1  0
 19 20  1  0
 21 22  2  0
M  END
