
     RDKit          3D

 22 23  0  0  0  0  0  0  0  0999 V2000
    0.8110   -0.6760   -4.6270 C   0  0  0  0  0  0  0  0  0  0  0  0
    2.0540   -0.6140   -4.5330 C   0  0  0  0  0  0  0  0  0  0  0  0
    3.0080   -0.5020   -3.4890 C   0  0  0  0  0  0  0  0  0  0  0  0
    4.2950   -0.4480   -3.9790 C   0  0  0  0  0  0  0  0  0  0  0  0
    5.4980   -0.3340   -3.1900 C   0  0  0  0  0  0  0  0  0  0  0  0
    2.8970   -0.5060   -2.0860 C   0  0  0  0  0  0  0  0  0  0  0  0
    4.0700   -0.2940   -1.4360 O   0  0  0  0  0  0  0  0  0  0  0  0
    1.9100   -0.6730   -1.1210 N   0  0  0  0  0  0  0  0  0  0  0  0
    0.5540   -0.9840   -1.3340 C   0  0  0  0  0  0  0  0  0  0  0  0
   -0.0470   -1.3720    0.0510 C   0  0  0  0  0  0  0  0  0  0  0  0
   -0.0350   -0.1700    0.7940 N   0  0  0  0  0  0  0  0  0  0  0  0
   -0.8950   -0.1150    1.9440 C   0  0  1  0  0  0  0  0  0  0  0  0
   -0.3530   -1.1700    2.9210 C   0  0  0  0  0  0  0  0  0  0  0  0
   -0.8720    1.2620    2.4490 C   0  0  0  0  0  0  0  0  0  0  0  0
   -2.0220    2.1610    2.1880 C   0  0  0  0  0  0  0  0  0  0  0  0
   -3.3200    1.8830    2.8200 C   0  0  0  0  0  0  0  0  0  0  0  0
   -4.3650    1.2310    1.9850 C   0  0  0  0  0  0  0  0  0  0  0  0
   -3.9910    0.9220    0.5660 C   0  0  0  0  0  0  0  0  0  0  0  0
   -2.8620   -0.0050    0.3510 C   0  0  0  0  0  0  0  0  0  0  0  0
   -2.2740   -0.6220    1.5610 C   0  0  0  0  0  0  0  0  0  0  0  0
    1.2750    0.3650    1.0010 C   0  0  0  0  0  0  0  0  0  0  0  0
    2.2880   -0.5060    0.3030 C   0  0  0  0  0  0  0  0  0  0  0  0
  1  2  2  0
  2  3  1  0
  3  4  2  3
  3  6  1  0
  4  5  1  0
  6  7  2  0
  6  8  1  0
  8  9  1  0
  8 22  1  0
  9 10  1  0
 10 11  1  0
 11 12  1  0
 11 21  1  0
 12 13  1  1
 12 14  1  0
 12 20  1  0
 14 15  1  0
 15 16  1  0
 16 17  1  0
 17 18  1  0
 18 19  1  0
 19 20  1  0
 21 22  1  0
M  END
