
     RDKit          3D

 27 29  0  0  0  0  0  0  0  0999 V2000
   -2.8790    4.9080    0.2300 C   0  0  0  0  0  0  0  0  0  0  0  0
   -2.1910    4.0010    1.1380 N   0  0  0  0  0  0  0  0  0  0  0  0
   -1.3120    3.1320    0.3800 C   0  0  0  0  0  0  0  0  0  0  0  0
   -1.9360    1.8090    0.0610 C   0  0  1  0  0  0  0  0  0  0  0  0
   -3.1000    2.0790   -0.6940 O   0  0  0  0  0  0  0  0  0  0  0  0
   -1.0170    1.0590   -0.8730 C   0  0  0  0  0  0  0  0  0  0  0  0
    0.3500    0.8040   -0.3170 C   0  0  0  0  0  0  0  0  0  0  0  0
    1.1340    0.0400   -1.3410 C   0  0  0  0  0  0  0  0  0  0  0  0
    0.6090   -0.2980   -2.4310 O   0  0  0  0  0  0  0  0  0  0  0  0
    2.4880   -0.3080   -1.0820 N   0  0  0  0  0  0  0  0  0  0  0  0
    3.2370   -1.0530   -2.0830 C   0  0  0  0  0  0  0  0  0  0  0  0
    4.7240   -1.0370   -1.8000 C   0  0  0  0  0  0  0  0  0  0  0  0
    4.8640   -1.5110   -0.3800 C   0  0  0  0  0  0  0  0  0  0  0  0
    5.7710   -2.4870   -0.0270 C   0  0  0  0  0  0  0  0  0  0  0  0
    5.8700   -2.8980    1.2890 C   0  0  0  0  0  0  0  0  0  0  0  0
    5.0650   -2.3220    2.1990 N   0  0  0  0  0  0  0  0  0  0  0  0
    4.1680   -1.3710    1.9130 C   0  0  0  0  0  0  0  0  0  0  0  0
    4.0650   -0.9570    0.5970 C   0  0  0  0  0  0  0  0  0  0  0  0
    3.1080    0.0850    0.1810 C   0  0  0  0  0  0  0  0  0  0  0  0
   -2.2820    0.9700    1.2280 C   0  0  0  0  0  0  0  0  0  0  0  0
   -2.9070   -0.3010    0.8060 C   0  0  0  0  0  0  0  0  0  0  0  0
   -4.2930   -0.3630    0.6140 C   0  0  0  0  0  0  0  0  0  0  0  0
   -4.9080   -1.5340    0.2310 C   0  0  0  0  0  0  0  0  0  0  0  0
   -4.2010   -2.6590    0.0280 N   0  0  0  0  0  0  0  0  0  0  0  0
   -2.8660   -2.6420    0.2020 C   0  0  0  0  0  0  0  0  0  0  0  0
   -2.0690   -3.8760   -0.0180 C   0  0  0  0  0  0  0  0  0  0  0  0
   -2.2220   -1.4710    0.5890 C   0  0  0  0  0  0  0  0  0  0  0  0
  1  2  1  0
  2  3  1  0
  3  4  1  0
  4  5  1  6
  4  6  1  0
  4 20  1  0
  6  7  1  0
  7  8  1  0
  8  9  2  0
  8 10  1  0
 10 11  1  0
 10 19  1  0
 11 12  1  0
 12 13  1  0
 13 14  2  0
 13 18  1  0
 14 15  1  0
 15 16  2  0
 16 17  1  0
 17 18  2  0
 18 19  1  0
 20 21  1  0
 21 22  2  0
 21 27  1  0
 22 23  1  0
 23 24  2  0
 24 25  1  0
 25 26  1  0
 25 27  2  0
M  CHG  2   2   1  24   1
M  END
