
     RDKit          3D

 27 29  0  0  0  0  0  0  0  0999 V2000
   -5.9760    4.1930   -0.3570 C   0  0  0  0  0  0  0  0  0  0  0  0
   -4.6620    3.6830    0.1980 C   0  0  0  0  0  0  0  0  0  0  0  0
   -4.3430    2.4010   -0.5370 C   0  0  0  0  0  0  0  0  0  0  0  0
   -3.0370    1.7820   -0.0670 C   0  0  0  0  0  0  0  0  0  0  0  0
   -2.8560    0.5190   -0.8870 C   0  0  0  0  0  0  0  0  0  0  0  0
   -1.6160   -0.1810   -0.5190 N   0  0  0  0  0  0  0  0  0  0  0  0
   -0.4010    0.5010   -0.8800 C   0  0  0  0  0  0  0  0  0  0  0  0
    0.7850   -0.2900   -0.5090 C   0  0  0  0  0  0  0  0  0  0  0  0
    2.0080    0.2600   -0.8330 C   0  0  0  0  0  0  0  0  0  0  0  0
    3.1880   -0.3880   -0.5270 C   0  0  0  0  0  0  0  0  0  0  0  0
    3.0920   -1.5810    0.1010 C   0  0  0  0  0  0  0  0  0  0  0  0
    1.8600   -2.1680    0.4440 C   0  0  0  0  0  0  0  0  0  0  0  0
    1.8260   -3.3830    1.0820 O   0  0  0  0  0  0  0  0  0  0  0  0
    0.6980   -1.5080    0.1320 C   0  0  0  0  0  0  0  0  0  0  0  0
   -0.5580   -2.0550    0.4460 N   0  0  0  0  0  0  0  0  0  0  0  0
   -1.6480   -1.4330    0.1420 C   0  0  0  0  0  0  0  0  0  0  0  0
   -2.9140   -2.0150    0.4820 N   0  0  0  0  0  0  0  0  0  0  0  0
   -3.0490   -3.4510    0.5370 C   0  0  2  0  0  0  0  0  0  0  0  0
   -2.7350   -4.1010   -0.7950 C   0  0  0  0  0  0  0  0  0  0  0  0
   -4.4920   -3.7840    0.8650 C   0  0  0  0  0  0  0  0  0  0  0  0
    4.2420   -2.2820    0.4350 O   0  0  0  0  0  0  0  0  0  0  0  0
    5.4040   -1.9170   -0.3050 C   0  0  0  0  0  0  0  0  0  0  0  0
    5.6080   -0.4000   -0.2270 C   0  0  0  0  0  0  0  0  0  0  0  0
    4.4770    0.2700   -0.9120 C   0  0  2  0  0  0  0  0  0  0  0  0
    4.3410    1.6720   -0.6040 N   0  0  0  0  0  0  0  0  0  0  0  0
    5.5830    2.3670   -0.4400 C   0  0  0  0  0  0  0  0  0  0  0  0
    5.6110    3.0240    0.9390 C   0  0  0  0  0  0  0  0  0  0  0  0
  1  2  1  0
  2  3  1  0
  3  4  1  0
  4  5  1  0
  5  6  1  0
  6  7  1  0
  6 16  1  0
  7  8  1  0
  8  9  2  0
  8 14  1  0
  9 10  1  0
 10 11  2  0
 10 24  1  0
 11 12  1  0
 11 21  1  0
 12 13  1  0
 12 14  2  0
 14 15  1  0
 15 16  2  0
 16 17  1  0
 17 18  1  0
 18 19  1  6
 18 20  1  0
 21 22  1  0
 22 23  1  0
 23 24  1  0
 24 25  1  1
 25 26  1  0
 26 27  1  0
M  CHG  2  15   1  25   1
M  END
