
     RDKit          3D

 27 29  0  0  0  0  0  0  0  0999 V2000
   -7.7510    0.0910    0.3750 C   0  0  0  0  0  0  0  0  0  0  0  0
   -6.8790    1.1720    0.7390 N   0  0  0  0  0  0  0  0  0  0  0  0
   -5.5600    1.0020    0.1540 C   0  0  1  0  0  0  0  0  0  0  0  0
   -4.5710    1.9080    0.8190 C   0  0  0  0  0  0  0  0  0  0  0  0
   -3.2930    1.1530    1.2070 C   0  0  0  0  0  0  0  0  0  0  0  0
   -2.8830    0.3980    0.0950 N   0  0  0  0  0  0  0  0  0  0  0  0
   -1.5940    0.5400   -0.4190 C   0  0  0  0  0  0  0  0  0  0  0  0
   -0.4620    0.0460    0.4390 C   0  0  0  0  0  0  0  0  0  0  0  0
    0.7910    0.2350   -0.1690 O   0  0  0  0  0  0  0  0  0  0  0  0
    1.9910   -0.1240    0.3840 C   0  0  0  0  0  0  0  0  0  0  0  0
    2.1140   -0.7220    1.6220 C   0  0  0  0  0  0  0  0  0  0  0  0
    3.3430   -1.0710    2.1470 C   0  0  0  0  0  0  0  0  0  0  0  0
    4.4890   -0.8140    1.4120 C   0  0  0  0  0  0  0  0  0  0  0  0
    4.3760   -0.2060    0.1530 C   0  0  0  0  0  0  0  0  0  0  0  0
    3.1580    0.1290   -0.3450 C   0  0  0  0  0  0  0  0  0  0  0  0
    5.5420    0.0900   -0.6750 C   0  0  1  0  0  0  0  0  0  0  0  0
    5.3200    0.7180   -1.9260 N   0  0  0  0  0  0  0  0  0  0  0  0
    4.9740   -0.2270   -2.9380 C   0  0  0  0  0  0  0  0  0  0  0  0
    6.5730    0.8040    0.1750 C   0  0  0  0  0  0  0  0  0  0  0  0
    7.5980   -0.1530    0.7420 C   0  0  0  0  0  0  0  0  0  0  0  0
    6.9820   -1.1330    1.6700 C   0  0  0  0  0  0  0  0  0  0  0  0
    7.7920   -1.9880    2.1070 O   0  0  0  0  0  0  0  0  0  0  0  0
    5.6400   -1.2560    2.1390 N   0  0  0  0  0  0  0  0  0  0  0  0
   -3.7680   -0.5510   -0.4360 C   0  0  1  0  0  0  0  0  0  0  0  0
   -3.9490   -0.2850   -1.9150 C   0  0  0  0  0  0  0  0  0  0  0  0
   -3.3470   -1.9890   -0.2710 C   0  0  0  0  0  0  0  0  0  0  0  0
   -5.1500   -0.4370    0.2030 C   0  0  0  0  0  0  0  0  0  0  0  0
  1  2  1  0
  3  2  1  1
  3  4  1  0
  3 27  1  0
  4  5  1  0
  5  6  1  0
  6  7  1  0
  6 24  1  0
  7  8  1  0
  8  9  1  0
  9 10  1  0
 10 11  2  0
 10 15  1  0
 11 12  1  0
 12 13  2  0
 13 14  1  0
 13 23  1  0
 14 15  2  0
 14 16  1  0
 16 17  1  6
 16 19  1  0
 17 18  1  0
 19 20  1  0
 20 21  1  0
 21 22  2  0
 21 23  1  0
 24 25  1  6
 24 26  1  0
 24 27  1  0
M  CHG  2   2   1  17   1
M  END
