
     RDKit          3D

 25 25  0  0  0  0  0  0  0  0999 V2000
    5.2290    0.4520   -2.2970 C   0  0  0  0  0  0  0  0  0  0  0  0
    4.5230    0.1140   -0.9990 C   0  0  0  0  0  0  0  0  0  0  0  0
    3.2510    0.3040   -0.9710 C   0  0  0  0  0  0  0  0  0  0  0  0
    2.3500    0.0680    0.1180 C   0  0  0  0  0  0  0  0  0  0  0  0
    2.6990   -0.4160    1.3510 F   0  0  0  0  0  0  0  0  0  0  0  0
    1.0430    0.3430   -0.0790 C   0  0  0  0  0  0  0  0  0  0  0  0
    0.1110    0.1170    0.9960 C   0  0  0  0  0  0  0  0  0  0  0  0
   -1.1780    0.3730    0.8430 C   0  0  0  0  0  0  0  0  0  0  0  0
   -1.8150    0.8990   -0.3820 C   0  0  0  0  0  0  0  0  0  0  0  0
   -3.3350    0.7150   -0.1240 C   0  0  1  0  0  0  0  0  0  0  0  0
   -4.0260    1.7640   -0.9420 C   0  0  0  0  0  0  0  0  0  0  0  0
   -3.7410   -0.6500   -0.4610 C   0  0  0  0  0  0  0  0  0  0  0  0
   -2.7740   -1.4810   -0.6540 O   0  0  0  0  0  0  0  0  0  0  0  0
   -5.0430   -1.1650   -0.5980 N   0  0  0  0  0  0  0  0  0  0  0  0
   -5.2340   -2.5940   -0.9280 C   0  0  0  0  0  0  0  0  0  0  0  0
   -6.2770   -0.4360   -0.4620 C   0  0  0  0  0  0  0  0  0  0  0  0
   -3.3580    0.9470    1.3530 C   0  0  1  0  0  0  0  0  0  0  0  0
   -3.0840    2.3830    1.7270 C   0  0  0  0  0  0  0  0  0  0  0  0
   -4.5040    0.3550    2.0980 C   0  0  0  0  0  0  0  0  0  0  0  0
   -2.1920    0.2100    1.7740 O   0  0  0  0  0  0  0  0  0  0  0  0
    5.3290   -0.3790    0.1130 C   0  0  1  0  0  0  0  0  0  0  0  0
    5.9460   -1.7130   -0.2730 C   0  0  0  0  0  0  0  0  0  0  0  0
    6.7550   -2.2440    0.8150 N   0  0  0  0  0  0  0  0  0  0  0  0
    6.4090    0.6260    0.4880 C   0  0  0  0  0  0  0  0  0  0  0  0
    7.5320    0.9800   -0.8080 Cl  0  0  0  0  0  0  0  0  0  0  0  0
  1  2  1  0
  2  3  2  3
  2 21  1  0
  3  4  1  0
  4  5  1  0
  4  6  2  3
  6  7  1  0
  7  8  2  3
  8  9  1  0
  8 20  1  0
  9 10  1  0
 10 11  1  6
 10 12  1  0
 10 17  1  0
 12 13  2  0
 12 14  1  0
 14 15  1  0
 14 16  1  0
 17 18  1  6
 17 19  1  0
 17 20  1  0
 21 22  1  6
 21 24  1  0
 22 23  1  0
 24 25  1  0
M  CHG  1  23   1
M  END
