
     RDKit          3D

 27 31  0  0  0  0  0  0  0  0999 V2000
    4.3750   -0.6170    3.4990 O   0  0  0  0  0  0  0  0  0  0  0  0
    4.2550    0.3730    2.6830 C   0  0  0  0  0  0  0  0  0  0  0  0
    4.3060    1.6330    3.2710 O   0  0  0  0  0  0  0  0  0  0  0  0
    4.0790    0.1720    1.2740 C   0  0  2  0  0  0  0  0  0  0  0  0
    5.0560    0.8570    0.3570 C   0  0  0  0  0  0  0  0  0  0  0  0
    4.2530    0.2520   -1.2200 S   0  0  0  0  0  0  0  0  0  0  0  0
    2.5770    0.3850   -0.4980 C   0  0  0  0  0  0  0  0  0  0  0  0
    1.3610    0.4860   -1.1700 C   0  0  0  0  0  0  0  0  0  0  0  0
    1.3830    0.6090   -2.6230 C   0  0  2  0  0  0  0  0  0  0  0  0
    0.6130   -0.5090   -3.3690 C   0  0  0  0  0  0  0  0  0  0  0  0
    2.0920   -0.1030   -3.6500 C   0  0  0  0  0  0  0  0  0  0  0  0
    0.2400    0.6350   -0.4410 C   0  0  0  0  0  0  0  0  0  0  0  0
   -1.1360    0.6850   -1.0050 C   0  0  0  0  0  0  0  0  0  0  0  0
   -1.9360   -0.3000   -0.2050 C   0  0  0  0  0  0  0  0  0  0  0  0
   -1.2820   -1.3890    0.3330 C   0  0  0  0  0  0  0  0  0  0  0  0
   -1.9160   -2.2500    1.1660 C   0  0  0  0  0  0  0  0  0  0  0  0
   -3.2470   -1.9950    1.4590 C   0  0  0  0  0  0  0  0  0  0  0  0
   -3.9000   -0.9030    0.9160 C   0  0  0  0  0  0  0  0  0  0  0  0
   -5.2240   -0.6860    1.2150 C   0  0  0  0  0  0  0  0  0  0  0  0
   -5.8710    0.3890    0.6740 C   0  0  0  0  0  0  0  0  0  0  0  0
   -5.2370    1.2580   -0.1620 C   0  0  0  0  0  0  0  0  0  0  0  0
   -3.8900    1.0300   -0.4660 C   0  0  0  0  0  0  0  0  0  0  0  0
   -3.2560   -0.0430    0.0790 C   0  0  0  0  0  0  0  0  0  0  0  0
    0.4000    0.6740    0.9520 C   0  0  0  0  0  0  0  0  0  0  0  0
    1.6140    0.5670    1.5750 C   0  0  0  0  0  0  0  0  0  0  0  0
    1.6650    0.6050    2.8350 O   0  0  0  0  0  0  0  0  0  0  0  0
    2.7440    0.4160    0.8130 N   0  0  0  0  0  0  0  0  0  0  0  0
  1  2  2  0
  2  3  1  0
  4  2  1  1
  4  5  1  0
  4 27  1  0
  5  6  1  0
  6  7  1  0
  7  8  2  0
  7 27  1  0
  9  8  1  1
  8 12  1  0
  9 10  1  0
  9 11  1  0
 10 11  1  0
 12 13  1  0
 12 24  2  0
 13 14  1  0
 14 15  2  0
 14 23  1  0
 15 16  1  0
 16 17  2  0
 17 18  1  0
 18 19  2  0
 18 23  1  0
 19 20  1  0
 20 21  2  0
 21 22  1  0
 22 23  2  0
 24 25  1  0
 25 26  2  0
 25 27  1  0
M  END
