
     RDKit          3D

 19 21  0  0  0  0  0  0  0  0999 V2000
    2.1170   -3.1210   -0.3500 C   0  0  0  0  0  0  0  0  0  0  0  0
    1.5120   -2.2250   -1.3710 C   0  0  0  0  0  0  0  0  0  0  0  0
    0.6350   -1.1510   -0.8070 C   0  0  0  0  0  0  0  0  0  0  0  0
   -0.6750   -1.2670   -0.8470 N   0  0  0  0  0  0  0  0  0  0  0  0
   -1.5090   -0.5130   -0.4390 C   0  0  0  0  0  0  0  0  0  0  0  0
   -2.9750   -0.3630   -0.3380 C   0  0  2  0  0  0  0  0  0  0  0  0
   -3.4050    0.9860   -0.8430 C   0  0  0  0  0  0  0  0  0  0  0  0
   -4.6260    1.3410   -0.0670 C   0  0  0  0  0  0  0  0  0  0  0  0
   -4.5370    0.5680    1.2080 C   0  0  0  0  0  0  0  0  0  0  0  0
   -3.3040   -0.2880    1.1370 C   0  0  0  0  0  0  0  0  0  0  0  0
   -0.4440    0.8520    0.2580 S   0  0  0  0  0  0  0  0  0  0  0  0
    1.1270   -0.0300   -0.2280 C   0  0  0  0  0  0  0  0  0  0  0  0
    2.3880    0.5550    0.0520 C   0  0  0  0  0  0  0  0  0  0  0  0
    2.4060    1.8040    0.6890 C   0  0  0  0  0  0  0  0  0  0  0  0
    3.5770    2.4570    1.0050 C   0  0  0  0  0  0  0  0  0  0  0  0
    4.7620    1.9090    0.7080 N   0  0  0  0  0  0  0  0  0  0  0  0
    4.7590    0.7270    0.1060 C   0  0  0  0  0  0  0  0  0  0  0  0
    5.8840    0.1950   -0.1810 O   0  0  0  0  0  0  0  0  0  0  0  0
    3.5940    0.0360   -0.2290 C   0  0  0  0  0  0  0  0  0  0  0  0
  1  2  1  0
  2  3  1  0
  3  4  1  0
  3 12  2  0
  4  5  2  0
  6  5  1  1
  5 11  1  0
  6  7  1  0
  6 10  1  0
  7  8  1  0
  8  9  1  0
  9 10  1  0
 11 12  1  0
 12 13  1  0
 13 14  1  0
 13 19  2  0
 14 15  2  0
 15 16  1  0
 16 17  1  0
 17 18  2  0
 17 19  1  0
M  END
