
     RDKit          3D

 12 12  0  0  0  0  0  0  0  0999 V2000
    2.5390   -0.7140    1.2590 C   0  0  0  0  0  0  0  0  0  0  0  0
    2.1070    0.2110    0.1870 C   0  0  0  0  0  0  0  0  0  0  0  0
    2.8760    0.2850   -0.8780 C   0  0  0  0  0  0  0  0  0  0  0  0
    2.4820    1.3440   -2.2270 Cl  0  0  0  0  0  0  0  0  0  0  0  0
    0.9570    0.9450    0.3270 N   0  0  0  0  0  0  0  0  0  0  0  0
   -0.2590    0.7300    0.1120 C   0  0  0  0  0  0  0  0  0  0  0  0
   -1.3150    1.7780    0.3780 C   0  0  0  0  0  0  0  0  0  0  0  0
   -2.5070    0.8780    0.7300 C   0  0  0  0  0  0  0  0  0  0  0  0
   -2.3870   -0.1680   -0.3510 C   0  0  0  0  0  0  0  0  0  0  0  0
   -0.9570   -0.4010   -0.3820 N   0  0  0  0  0  0  0  0  0  0  0  0
   -0.3510   -1.6030   -0.8460 C   0  0  0  0  0  0  0  0  0  0  0  0
   -0.8000   -1.8780   -2.5600 Cl  0  0  0  0  0  0  0  0  0  0  0  0
  1  2  1  0
  2  3  2  3
  2  5  1  0
  3  4  1  0
  5  6  2  3
  6  7  1  0
  6 10  1  0
  7  8  1  0
  8  9  1  0
  9 10  1  0
 10 11  1  0
 11 12  1  0
M  END
