
     RDKit          3D

 12 12  0  0  0  0  0  0  0  0999 V2000
   -2.0700    1.9010   -0.0270 C   0  0  0  0  0  0  0  0  0  0  0  0
   -1.8000    0.4670   -0.0550 C   0  0  0  0  0  0  0  0  0  0  0  0
   -0.6000   -0.0460   -0.0300 C   0  0  0  0  0  0  0  0  0  0  0  0
    0.6180    0.7130    0.0290 C   0  0  0  0  0  0  0  0  0  0  0  0
    0.5720    2.4680    0.0720 Cl  0  0  0  0  0  0  0  0  0  0  0  0
    1.8060    0.0870    0.0510 C   0  0  0  0  0  0  0  0  0  0  0  0
    3.0150    0.9490    0.1110 C   0  0  0  0  0  0  0  0  0  0  0  0
    1.8730   -1.3660    0.0160 C   0  0  0  0  0  0  0  0  0  0  0  0
    3.4470   -2.1640    0.0460 Cl  0  0  0  0  0  0  0  0  0  0  0  0
    0.7760   -2.0440   -0.0370 N   0  0  0  0  0  0  0  0  0  0  0  0
   -0.4790   -1.5000   -0.0630 N   0  0  0  0  0  0  0  0  0  0  0  0
   -1.7080   -2.2750   -0.1220 C   0  0  0  0  0  0  0  0  0  0  0  0
  1  2  1  0
  2  3  2  3
  3  4  1  0
  3 11  1  0
  4  5  1  0
  4  6  2  0
  6  7  1  0
  6  8  1  0
  8  9  1  0
  8 10  2  0
 10 11  1  0
 11 12  1  0
M  END
