
     RDKit          3D

 19 21  0  0  0  0  0  0  0  0999 V2000
   -1.7390    2.6850    1.3550 C   0  0  0  0  0  0  0  0  0  0  0  0
   -2.4570    1.6830    0.4390 C   0  0  1  0  0  0  0  0  0  0  0  0
   -2.7710    2.3450   -0.8820 C   0  0  0  0  0  0  0  0  0  0  0  0
   -1.6130    0.4790    0.2350 C   0  0  0  0  0  0  0  0  0  0  0  0
   -0.3640    0.4480    0.7850 N   0  0  0  0  0  0  0  0  0  0  0  0
    0.4370   -0.6210    0.6270 C   0  0  0  0  0  0  0  0  0  0  0  0
    1.7970   -0.6170    1.2450 C   0  0  0  0  0  0  0  0  0  0  0  0
    2.8370   -0.0560    0.3280 C   0  0  1  0  0  0  0  0  0  0  0  0
    2.5700    1.2560   -0.0390 O   0  0  0  0  0  0  0  0  0  0  0  0
    4.1710   -0.1400    1.0590 C   0  0  0  0  0  0  0  0  0  0  0  0
    5.2080    0.4440    0.1210 C   0  0  0  0  0  0  0  0  0  0  0  0
    4.6800   -0.3320   -1.4590 S   0  0  0  0  0  0  0  0  0  0  0  0
    3.0010   -0.8750   -0.9420 C   0  0  0  0  0  0  0  0  0  0  0  0
   -0.0260   -1.6530   -0.0840 N   0  0  0  0  0  0  0  0  0  0  0  0
   -1.2630   -1.6720   -0.6530 C   0  0  0  0  0  0  0  0  0  0  0  0
   -2.0960   -0.5800   -0.4990 C   0  0  0  0  0  0  0  0  0  0  0  0
   -3.3900   -0.8480   -1.2100 C   0  0  0  0  0  0  0  0  0  0  0  0
   -3.4380   -2.3800   -1.0820 C   0  0  0  0  0  0  0  0  0  0  0  0
   -1.9880   -2.6790   -1.4710 C   0  0  0  0  0  0  0  0  0  0  0  0
  2  1  1  1
  2  3  1  0
  2  4  1  0
  4  5  2  0
  4 16  1  0
  5  6  1  0
  6  7  1  0
  6 14  2  0
  7  8  1  0
  8  9  1  6
  8 10  1  0
  8 13  1  0
 10 11  1  0
 11 12  1  0
 12 13  1  0
 14 15  1  0
 15 16  2  0
 15 19  1  0
 16 17  1  0
 17 18  1  0
 18 19  1  0
M  END
