
     RDKit          3D

 22 21  0  0  0  0  0  0  0  0999 V2000
    7.1320   -1.4490    0.4040 N   0  0  0  0  0  0  0  0  0  0  0  0
    6.2880   -0.3750   -0.0820 C   0  0  0  0  0  0  0  0  0  0  0  0
    4.8490   -0.7700    0.1770 C   0  0  0  0  0  0  0  0  0  0  0  0
    3.9900    0.3790   -0.3450 C   0  0  0  0  0  0  0  0  0  0  0  0
    2.5430   -0.0060   -0.0900 C   0  0  0  0  0  0  0  0  0  0  0  0
    1.5890    1.0430   -0.5580 C   0  0  1  0  0  0  0  0  0  0  0  0
    1.6520    1.3290   -1.9550 N   0  0  0  0  0  0  0  0  0  0  0  0
    0.1910    0.6820   -0.0650 C   0  0  0  0  0  0  0  0  0  0  0  0
   -0.2810   -0.6220   -0.5670 C   0  0  0  0  0  0  0  0  0  0  0  0
   -1.6660   -0.9450   -0.0840 C   0  0  2  0  0  0  0  0  0  0  0  0
   -2.0780   -2.2610   -0.6170 N   0  0  0  0  0  0  0  0  0  0  0  0
   -2.6330    0.0790   -0.6090 C   0  0  0  0  0  0  0  0  0  0  0  0
   -4.0570   -0.2250   -0.1500 C   0  0  0  0  0  0  0  0  0  0  0  0
   -4.9400    0.8420   -0.7190 C   0  0  0  0  0  0  0  0  0  0  0  0
   -6.3870    0.6810   -0.3540 C   0  0  0  0  0  0  0  0  0  0  0  0
   -6.5940    0.7160    1.0750 N   0  0  0  0  0  0  0  0  0  0  0  0
   -1.6740   -1.0530    1.3790 C   0  0  0  0  0  0  0  0  0  0  0  0
   -1.5390   -0.1080    2.1980 O   0  0  0  0  0  0  0  0  0  0  0  0
   -1.8470   -2.3230    1.9550 O   0  0  0  0  0  0  0  0  0  0  0  0
    1.9320    2.3160    0.1570 C   0  0  0  0  0  0  0  0  0  0  0  0
    2.2050    3.3700   -0.4490 O   0  0  0  0  0  0  0  0  0  0  0  0
    1.9390    2.2930    1.5370 O   0  0  0  0  0  0  0  0  0  0  0  0
  1  2  1  0
  2  3  1  0
  3  4  1  0
  4  5  1  0
  5  6  1  0
  6  7  1  6
  6  8  1  0
  6 20  1  0
  8  9  1  0
  9 10  1  0
 10 11  1  6
 10 12  1  0
 10 17  1  0
 12 13  1  0
 13 14  1  0
 14 15  1  0
 15 16  1  0
 17 18  2  0
 17 19  1  0
 20 21  2  0
 20 22  1  0
M  CHG  4   1   1   7   1  11   1  16   1
M  END
