
     RDKit          3D

 20 21  0  0  0  0  0  0  0  0999 V2000
   -5.8340    1.1680   -1.6210 C   0  0  0  0  0  0  0  0  0  0  0  0
   -4.9480    0.0220   -1.3350 C   0  0  0  0  0  0  0  0  0  0  0  0
   -3.6740    0.0800   -1.6520 C   0  0  0  0  0  0  0  0  0  0  0  0
   -2.7790   -0.9510   -1.4170 O   0  0  0  0  0  0  0  0  0  0  0  0
   -1.9320   -1.0520   -0.3160 C   0  0  2  0  0  0  0  0  0  0  0  0
   -2.6290   -1.1010    1.0050 C   0  0  0  0  0  0  0  0  0  0  0  0
   -2.3910    0.2460    1.6680 C   0  0  0  0  0  0  0  0  0  0  0  0
   -1.7720    1.1210    0.6020 C   0  0  0  0  0  0  0  0  0  0  0  0
   -0.9980    0.1160   -0.2290 C   0  0  1  0  0  0  0  0  0  0  0  0
    0.1730   -0.2410    0.5500 N   0  0  0  0  0  0  0  0  0  0  0  0
    1.5050   -0.0750    0.0890 C   0  0  0  0  0  0  0  0  0  0  0  0
    1.6400    0.4130   -1.0690 O   0  0  0  0  0  0  0  0  0  0  0  0
    2.6410   -0.4290    0.8620 N   0  0  0  0  0  0  0  0  0  0  0  0
    3.9360   -0.2360    0.3390 C   0  0  0  0  0  0  0  0  0  0  0  0
    4.7720    0.5550    0.9700 C   0  0  0  0  0  0  0  0  0  0  0  0
    6.1320    0.7970    0.4770 C   0  0  0  0  0  0  0  0  0  0  0  0
    6.4170    0.1140   -0.6910 O   0  0  0  0  0  0  0  0  0  0  0  0
    5.5870   -0.7120   -1.3770 C   0  0  0  0  0  0  0  0  0  0  0  0
    4.3520   -0.8980   -0.8820 C   0  0  0  0  0  0  0  0  0  0  0  0
    3.4620   -1.7240   -1.5310 O   0  0  0  0  0  0  0  0  0  0  0  0
  1  2  1  0
  2  3  2  3
  3  4  1  0
  5  4  1  6
  5  6  1  0
  5  9  1  0
  6  7  1  0
  7  8  1  0
  8  9  1  0
  9 10  1  1
 10 11  1  0
 11 12  2  0
 11 13  1  0
 13 14  1  0
 14 15  2  0
 14 19  1  0
 15 16  1  0
 16 17  1  0
 17 18  1  0
 18 19  2  0
 19 20  1  0
M  END
