
     RDKit          3D

 20 22  0  0  0  0  0  0  0  0999 V2000
   -4.6650    0.6230    0.6170 C   0  0  0  0  0  0  0  0  0  0  0  0
   -3.8170   -0.6350    0.5860 C   0  0  1  0  0  0  0  0  0  0  0  0
   -4.7460   -1.8120    0.6040 C   0  0  0  0  0  0  0  0  0  0  0  0
   -2.9700   -0.6100   -0.6870 C   0  0  0  0  0  0  0  0  0  0  0  0
   -1.8160    0.2560   -0.2270 C   0  0  2  0  0  0  0  0  0  0  0  0
   -2.1100    1.5730   -0.5490 O   0  0  0  0  0  0  0  0  0  0  0  0
   -0.5320   -0.1070   -0.9410 C   0  0  0  0  0  0  0  0  0  0  0  0
    0.5530    0.7510   -0.5270 N   0  0  0  0  0  0  0  0  0  0  0  0
    1.8660    0.6510   -1.0200 C   0  0  0  0  0  0  0  0  0  0  0  0
    2.1340   -0.2310   -1.8730 O   0  0  0  0  0  0  0  0  0  0  0  0
    2.9180    1.6030   -0.5140 C   0  0  1  0  0  0  0  0  0  0  0  0
    3.2120    1.2250    0.9140 C   0  0  0  0  0  0  0  0  0  0  0  0
    4.2370    0.1680    0.7830 C   0  0  0  0  0  0  0  0  0  0  0  0
    4.8740   -0.8910    1.4220 C   0  0  0  0  0  0  0  0  0  0  0  0
    5.7770   -1.4110    0.5740 N   0  0  0  0  0  0  0  0  0  0  0  0
    5.7270   -0.7110   -0.5790 C   0  0  0  0  0  0  0  0  0  0  0  0
    4.7800    0.2680   -0.4650 C   0  0  0  0  0  0  0  0  0  0  0  0
    4.1640    1.3260   -1.1410 O   0  0  0  0  0  0  0  0  0  0  0  0
   -1.7660   -0.0210    1.2340 C   0  0  0  0  0  0  0  0  0  0  0  0
   -2.9430   -0.5810    1.6370 O   0  0  0  0  0  0  0  0  0  0  0  0
  2  1  1  6
  2  3  1  0
  2  4  1  0
  2 20  1  0
  4  5  1  0
  5  6  1  1
  5  7  1  0
  5 19  1  0
  7  8  1  0
  8  9  1  0
  9 10  2  0
 11  9  1  6
 11 12  1  0
 11 18  1  0
 12 13  1  0
 13 14  2  0
 13 17  1  0
 14 15  1  0
 15 16  1  0
 16 17  2  0
 17 18  1  0
 19 20  1  0
M  END
