
     RDKit          3D

 19 20  0  0  0  0  0  0  0  0999 V2000
    1.9350   -2.0290    1.3180 N   0  0  0  0  0  0  0  0  0  0  0  0
    1.6320   -0.6610    0.9580 C   0  0  2  0  0  0  0  0  0  0  0  0
    0.1120   -0.6380    0.6270 C   0  0  0  0  0  0  0  0  0  0  0  0
   -0.2270    0.6770    0.2240 N   0  0  0  0  0  0  0  0  0  0  0  0
   -1.4520    1.1740   -0.1730 C   0  0  0  0  0  0  0  0  0  0  0  0
   -1.4760    2.4680   -0.4820 O   0  0  0  0  0  0  0  0  0  0  0  0
   -2.7230    0.5570   -0.3200 C   0  0  0  0  0  0  0  0  0  0  0  0
   -2.9610   -0.7150   -0.0910 C   0  0  0  0  0  0  0  0  0  0  0  0
   -4.2270   -1.4790   -0.2040 C   0  0  0  0  0  0  0  0  0  0  0  0
   -5.4680   -1.0680   -0.3280 C   0  0  0  0  0  0  0  0  0  0  0  0
   -5.8850    0.3200   -0.3840 C   0  0  0  0  0  0  0  0  0  0  0  0
   -5.1380    1.3910   -0.5660 C   0  0  0  0  0  0  0  0  0  0  0  0
   -3.7670    1.4340   -0.7470 O   0  0  0  0  0  0  0  0  0  0  0  0
    0.8990    1.6420    0.2280 C   0  0  0  0  0  0  0  0  0  0  0  0
    1.9800    1.1190   -0.7380 C   0  0  0  0  0  0  0  0  0  0  0  0
    2.3400   -0.2970   -0.3340 C   0  0  1  0  0  0  0  0  0  0  0  0
    3.7850   -0.6130   -0.3360 C   0  0  0  0  0  0  0  0  0  0  0  0
    4.6310    0.0330    0.6940 C   0  0  0  0  0  0  0  0  0  0  0  0
    4.6200    1.4210    0.6260 O   0  0  0  0  0  0  0  0  0  0  0  0
  2  1  1  6
  2  3  1  0
  2 16  1  0
  3  4  1  0
  4  5  1  0
  4 14  1  0
  5  6  2  0
  5  7  1  0
  7  8  2  0
  7 13  1  0
  8  9  1  0
  9 10  2  0
 10 11  1  0
 11 12  2  0
 12 13  1  0
 14 15  1  0
 15 16  1  0
 16 17  1  1
 17 18  1  0
 18 19  1  0
M  END
