
     RDKit          3D

 20 20  0  0  0  0  0  0  0  0999 V2000
    5.2200   -1.2350   -1.6800 C   0  0  0  0  0  0  0  0  0  0  0  0
    5.5670   -0.4570   -0.4630 C   0  0  0  0  0  0  0  0  0  0  0  0
    6.9200   -0.2150   -0.1260 N   0  0  0  0  0  0  0  0  0  0  0  0
    4.6040    0.0160    0.3140 C   0  0  0  0  0  0  0  0  0  0  0  0
    3.2000   -0.2070    0.0060 C   0  0  0  0  0  0  0  0  0  0  0  0
    2.2390    0.2650    0.7820 C   0  0  0  0  0  0  0  0  0  0  0  0
    2.6000    0.9860    1.9080 O   0  0  0  0  0  0  0  0  0  0  0  0
    0.8290    0.0660    0.5110 C   0  0  0  0  0  0  0  0  0  0  0  0
   -0.0050    0.5980    1.3760 C   0  0  0  0  0  0  0  0  0  0  0  0
    0.6320    1.2630    2.4070 O   0  0  0  0  0  0  0  0  0  0  0  0
   -1.4720    0.6390    1.4860 C   0  0  0  0  0  0  0  0  0  0  0  0
   -2.1510    0.0880    0.3340 N   0  0  0  0  0  0  0  0  0  0  0  0
   -3.5530    0.3740    0.4710 C   0  0  1  0  0  0  0  0  0  0  0  0
   -3.9170    1.8210    0.4020 C   0  0  0  0  0  0  0  0  0  0  0  0
   -4.4300   -0.4490   -0.4240 C   0  0  2  0  0  0  0  0  0  0  0  0
   -4.3840   -1.9170   -0.0350 C   0  0  0  0  0  0  0  0  0  0  0  0
   -4.1440   -0.2510   -1.7460 O   0  0  0  0  0  0  0  0  0  0  0  0
   -1.5540    0.5540   -0.8940 C   0  0  0  0  0  0  0  0  0  0  0  0
   -0.6730   -0.5240   -1.4800 C   0  0  0  0  0  0  0  0  0  0  0  0
    0.4680   -0.6580   -0.6200 O   0  0  0  0  0  0  0  0  0  0  0  0
  1  2  1  0
  2  3  1  0
  2  4  2  3
  4  5  1  0
  5  6  2  3
  6  7  1  0
  6  8  1  0
  8  9  2  0
  8 20  1  0
  9 10  1  0
  9 11  1  0
 11 12  1  0
 12 13  1  0
 12 18  1  0
 13 14  1  6
 13 15  1  0
 15 16  1  1
 15 17  1  0
 18 19  1  0
 19 20  1  0
M  END
