
     RDKit          3D

 23 24  0  0  0  0  0  0  0  0999 V2000
    6.9440    0.7660    0.6230 C   0  0  0  0  0  0  0  0  0  0  0  0
    6.2900    1.8780   -0.1860 C   0  0  0  0  0  0  0  0  0  0  0  0
    5.7970    1.2380   -1.3730 O   0  0  0  0  0  0  0  0  0  0  0  0
    4.8590    0.2210   -1.1460 C   0  0  0  0  0  0  0  0  0  0  0  0
    4.7250   -0.9270   -1.0190 N   0  0  0  0  0  0  0  0  0  0  0  0
    3.6120   -1.5470   -0.8050 N   0  0  0  0  0  0  0  0  0  0  0  0
    2.5570   -1.0380   -0.7060 C   0  0  0  0  0  0  0  0  0  0  0  0
    1.1450   -1.3640   -0.4800 N   0  0  0  0  0  0  0  0  0  0  0  0
    0.1430   -0.3860   -0.4330 C   0  0  0  0  0  0  0  0  0  0  0  0
    0.5620    0.8150   -0.6010 O   0  0  0  0  0  0  0  0  0  0  0  0
   -1.2820   -0.5960   -0.2190 C   0  0  0  0  0  0  0  0  0  0  0  0
   -1.8320   -1.8880    0.0410 C   0  0  0  0  0  0  0  0  0  0  0  0
   -1.0620   -3.0830    0.0800 N   0  0  0  0  0  0  0  0  0  0  0  0
   -3.4480   -2.1640    0.3370 S   0  0  0  0  0  0  0  0  0  0  0  0
   -2.0890    0.4720   -0.2160 C   0  0  0  0  0  0  0  0  0  0  0  0
   -1.2560    2.0450   -0.4690 Cl  0  0  0  0  0  0  0  0  0  0  0  0
   -3.5230    0.5050   -0.1510 C   0  0  0  0  0  0  0  0  0  0  0  0
   -4.3990   -0.0070   -1.0780 C   0  0  0  0  0  0  0  0  0  0  0  0
   -5.6980    0.2400   -0.6280 C   0  0  0  0  0  0  0  0  0  0  0  0
   -5.5320    0.9000    0.5710 C   0  0  0  0  0  0  0  0  0  0  0  0
   -6.6720    1.3660    1.4190 C   0  0  0  0  0  0  0  0  0  0  0  0
   -4.2530    1.0330    0.8110 O   0  0  0  0  0  0  0  0  0  0  0  0
    3.0420    0.7670   -0.9450 S   0  0  0  0  0  0  0  0  0  0  0  0
  1  2  1  0
  2  3  1  0
  3  4  1  0
  4  5  2  0
  4 23  1  0
  5  6  1  0
  6  7  2  0
  7  8  1  0
  7 23  1  0
  8  9  1  0
  9 10  2  0
  9 11  1  0
 11 12  1  0
 11 15  2  3
 12 13  1  0
 12 14  2  0
 15 16  1  0
 15 17  1  0
 17 18  2  0
 17 22  1  0
 18 19  1  0
 19 20  2  0
 20 21  1  0
 20 22  1  0
M  END
