
     RDKit          3D

 23 24  0  0  0  0  0  0  0  0999 V2000
   -4.6340   -1.3770    1.4770 C   0  0  0  0  0  0  0  0  0  0  0  0
   -3.7340   -2.0370    0.4650 C   0  0  0  0  0  0  0  0  0  0  0  0
   -2.3410   -1.5000    0.5360 C   0  0  0  0  0  0  0  0  0  0  0  0
   -1.2890   -2.1530    1.1290 N   0  0  0  0  0  0  0  0  0  0  0  0
   -0.2090   -1.4120    1.0290 N   0  0  0  0  0  0  0  0  0  0  0  0
   -0.5530   -0.2610    0.3640 C   0  0  0  0  0  0  0  0  0  0  0  0
    0.3700    0.8420    0.0380 C   0  0  0  0  0  0  0  0  0  0  0  0
    1.7200    0.4730    0.4320 C   0  0  0  0  0  0  0  0  0  0  0  0
    2.1290    0.1990    1.5790 O   0  0  0  0  0  0  0  0  0  0  0  0
    2.7750    0.3730   -0.4610 N   0  0  0  0  0  0  0  0  0  0  0  0
    4.0790    0.0300   -0.1740 C   0  0  0  0  0  0  0  0  0  0  0  0
    4.9730   -0.3300    0.8650 C   0  0  0  0  0  0  0  0  0  0  0  0
    5.0950    0.6730    1.8610 O   0  0  0  0  0  0  0  0  0  0  0  0
    4.6140    0.0860   -1.4090 N   0  0  0  0  0  0  0  0  0  0  0  0
    6.2650   -0.2840   -1.5130 S   0  0  0  0  0  0  0  0  0  0  0  0
    6.5480   -1.7520   -1.1730 O   0  0  0  0  0  0  0  0  0  0  0  0
   -1.8870   -0.2970    0.0450 C   0  0  0  0  0  0  0  0  0  0  0  0
   -2.6950    0.6700   -0.6630 C   0  0  0  0  0  0  0  0  0  0  0  0
   -2.4940    1.8870   -1.1890 C   0  0  0  0  0  0  0  0  0  0  0  0
   -3.4630    2.5640   -1.8020 C   0  0  0  0  0  0  0  0  0  0  0  0
   -4.7030    1.9540   -1.8760 C   0  0  0  0  0  0  0  0  0  0  0  0
   -6.2270    2.5420   -2.6120 Cl  0  0  0  0  0  0  0  0  0  0  0  0
   -4.4610    0.3780   -1.0460 S   0  0  0  0  0  0  0  0  0  0  0  0
  1  2  1  0
  2  3  1  0
  3  4  2  0
  3 17  1  0
  4  5  1  0
  5  6  1  0
  6  7  1  0
  6 17  2  0
  7  8  1  0
  8  9  2  0
  8 10  1  0
 10 11  1  0
 11 12  1  0
 11 14  2  3
 12 13  1  0
 14 15  1  0
 15 16  2  0
 17 18  1  0
 18 19  2  0
 18 23  1  0
 19 20  1  0
 20 21  2  0
 21 22  1  0
 21 23  1  0
M  END
