
     RDKit          3D

 23 24  0  0  0  0  0  0  0  0999 V2000
   -8.4760    2.3550    1.0630 O   0  0  0  0  0  0  0  0  0  0  0  0
   -8.2010    1.0700    0.3370 S   0  0  0  0  0  0  0  0  0  0  0  0
   -6.4460    0.9930   -0.0220 C   0  0  0  0  0  0  0  0  0  0  0  0
   -6.0100    1.8280   -0.8210 O   0  0  0  0  0  0  0  0  0  0  0  0
   -5.6360    0.0310    0.5810 N   0  0  0  0  0  0  0  0  0  0  0  0
   -4.2580   -0.1210    0.3800 C   0  0  0  0  0  0  0  0  0  0  0  0
   -3.4470    0.7500   -0.2880 C   0  0  0  0  0  0  0  0  0  0  0  0
   -2.0700    0.5410   -0.4720 C   0  0  0  0  0  0  0  0  0  0  0  0
   -1.4580   -0.5590    0.0130 C   0  0  0  0  0  0  0  0  0  0  0  0
   -0.0900   -0.8510   -0.1210 N   0  0  0  0  0  0  0  0  0  0  0  0
    0.8200   -0.0100   -0.7980 C   0  0  0  0  0  0  0  0  0  0  0  0
    0.5210    1.0600   -1.3410 O   0  0  0  0  0  0  0  0  0  0  0  0
    2.2550   -0.4790   -0.8460 C   0  0  0  0  0  0  0  0  0  0  0  0
    3.2100    0.7340   -1.7510 S   0  0  0  0  0  0  0  0  0  0  0  0
    4.9460    0.2940   -1.8770 C   0  0  0  0  0  0  0  0  0  0  0  0
    5.6410    0.3040   -0.5690 C   0  0  0  0  0  0  0  0  0  0  0  0
    6.2530    1.4030   -0.0640 N   0  0  0  0  0  0  0  0  0  0  0  0
    6.7920    1.1100    1.1280 C   0  0  0  0  0  0  0  0  0  0  0  0
    6.4990   -0.2260    1.3670 C   0  0  0  0  0  0  0  0  0  0  0  0
    5.8020   -0.6890    0.3250 N   0  0  0  0  0  0  0  0  0  0  0  0
   -2.2590   -1.4790    0.7070 C   0  0  0  0  0  0  0  0  0  0  0  0
   -1.5450   -2.9580    1.3820 Cl  0  0  0  0  0  0  0  0  0  0  0  0
   -3.5940   -1.2580    0.8750 C   0  0  0  0  0  0  0  0  0  0  0  0
  1  2  2  0
  2  3  1  0
  3  4  2  0
  3  5  1  0
  5  6  1  0
  6  7  2  0
  6 23  1  0
  7  8  1  0
  8  9  2  0
  9 10  1  0
  9 21  1  0
 10 11  1  0
 11 12  2  0
 11 13  1  0
 13 14  1  0
 14 15  1  0
 15 16  1  0
 16 17  2  0
 16 20  1  0
 17 18  1  0
 18 19  2  0
 19 20  1  0
 21 22  1  0
 21 23  2  0
M  END
