
     RDKit          3D

 18 19  0  0  0  0  0  0  0  0999 V2000
   -3.2280    2.8890   -0.1560 C   0  0  0  0  0  0  0  0  0  0  0  0
   -2.6640    1.5270   -0.0430 C   0  0  0  0  0  0  0  0  0  0  0  0
   -1.2810    1.3840   -0.0690 C   0  0  0  0  0  0  0  0  0  0  0  0
   -0.7360    0.1210    0.0350 C   0  0  0  0  0  0  0  0  0  0  0  0
    0.7070   -0.1290    0.0160 C   0  0  0  0  0  0  0  0  0  0  0  0
    1.5970    0.7910    0.5280 C   0  0  0  0  0  0  0  0  0  0  0  0
    2.9430    0.5040    0.4820 C   0  0  0  0  0  0  0  0  0  0  0  0
    3.4240   -0.6760   -0.0600 C   0  0  0  0  0  0  0  0  0  0  0  0
    4.8390   -0.9900   -0.1140 C   0  0  0  0  0  0  0  0  0  0  0  0
    5.7700   -0.0670    0.3900 N   0  0  0  0  0  0  0  0  0  0  0  0
    5.2140   -2.0640   -0.6030 O   0  0  0  0  0  0  0  0  0  0  0  0
    2.4870   -1.5720   -0.5630 C   0  0  0  0  0  0  0  0  0  0  0  0
    1.1320   -1.3280   -0.5390 C   0  0  0  0  0  0  0  0  0  0  0  0
   -1.6450   -0.9300    0.1600 C   0  0  0  0  0  0  0  0  0  0  0  0
   -2.9640   -0.7680    0.1820 N   0  0  0  0  0  0  0  0  0  0  0  0
   -3.8250   -1.9520    0.3180 C   0  0  0  0  0  0  0  0  0  0  0  0
   -3.5210    0.4570    0.0820 C   0  0  0  0  0  0  0  0  0  0  0  0
   -4.7730    0.5830    0.1060 O   0  0  0  0  0  0  0  0  0  0  0  0
  1  2  1  0
  2  3  2  0
  2 17  1  0
  3  4  1  0
  4  5  1  0
  4 14  2  0
  5  6  2  0
  5 13  1  0
  6  7  1  0
  7  8  2  0
  8  9  1  0
  8 12  1  0
  9 10  1  0
  9 11  2  0
 12 13  2  0
 14 15  1  0
 15 16  1  0
 15 17  1  0
 17 18  2  0
M  END
