
     RDKit          3D

 23 24  0  0  0  0  0  0  0  0999 V2000
    1.4680   -0.1600   -1.3430 O   0  0  0  0  0  0  0  0  0  0  0  0
    1.5380   -0.1700   -0.1300 C   0  0  0  0  0  0  0  0  0  0  0  0
    0.2850   -0.1480    0.6070 N   0  0  0  0  0  0  0  0  0  0  0  0
   -0.9920   -0.1040   -0.0720 C   0  0  0  0  0  0  0  0  0  0  0  0
   -1.1220    1.1330   -0.8830 C   0  0  0  0  0  0  0  0  0  0  0  0
   -2.6840    1.2420   -1.7590 S   0  0  2  0  0  0  0  0  0  0  0  0
   -2.7660    0.1880   -2.8170 O   0  0  0  0  0  0  0  0  0  0  0  0
   -2.6650    2.5600   -2.4780 O   0  0  0  0  0  0  0  0  0  0  0  0
   -3.9460    1.2170   -0.6450 N   0  0  0  0  0  0  0  0  0  0  0  0
   -4.2650    0.1710    0.2560 C   0  0  0  0  0  0  0  0  0  0  0  0
   -4.5350    0.4510    1.5780 C   0  0  0  0  0  0  0  0  0  0  0  0
   -4.8440   -0.5860    2.4360 C   0  0  0  0  0  0  0  0  0  0  0  0
   -4.8950   -1.8700    2.0410 N   0  0  0  0  0  0  0  0  0  0  0  0
   -4.6290   -2.1440    0.7380 C   0  0  0  0  0  0  0  0  0  0  0  0
   -4.3170   -1.1480   -0.1550 C   0  0  0  0  0  0  0  0  0  0  0  0
    2.7330   -0.2000    0.5630 N   0  0  0  0  0  0  0  0  0  0  0  0
    4.0790   -0.2250    0.1160 C   0  0  0  0  0  0  0  0  0  0  0  0
    4.4950   -0.2260   -1.1070 C   0  0  0  0  0  0  0  0  0  0  0  0
    3.3030   -0.1910   -2.4510 Cl  0  0  0  0  0  0  0  0  0  0  0  0
    5.8840   -0.2520   -1.6740 C   0  0  0  0  0  0  0  0  0  0  0  0
    7.1430   -0.2860   -0.4300 S   0  0  0  0  0  0  0  0  0  0  0  0
    6.3390   -0.2800    1.1380 C   0  0  0  0  0  0  0  0  0  0  0  0
    5.0520   -0.2530    1.2450 C   0  0  0  0  0  0  0  0  0  0  0  0
  1  2  2  0
  2  3  1  0
  2 16  1  0
  3  4  1  0
  4  5  1  0
  6  5  1  1
  6  7  2  0
  6  8  2  0
  6  9  1  0
  9 10  1  0
 10 11  2  0
 10 15  1  0
 11 12  1  0
 12 13  2  0
 13 14  1  0
 14 15  2  0
 16 17  1  0
 17 18  2  0
 17 23  1  0
 18 19  1  0
 18 20  1  0
 20 21  1  0
 21 22  1  0
 22 23  2  0
M  END
