
     RDKit          3D

 23 24  0  0  0  0  0  0  0  0999 V2000
    5.0810   -0.4880   -1.6640 C   0  0  0  0  0  0  0  0  0  0  0  0
    5.1690   -1.3710   -0.4410 C   0  0  0  0  0  0  0  0  0  0  0  0
    3.8940   -1.4600    0.3250 C   0  0  0  0  0  0  0  0  0  0  0  0
    3.4200   -0.1780    0.8200 N   0  0  0  0  0  0  0  0  0  0  0  0
    3.7020    0.4260    1.9800 C   0  0  0  0  0  0  0  0  0  0  0  0
    3.0310    1.6140    2.0000 C   0  0  0  0  0  0  0  0  0  0  0  0
    3.0290    2.8220    3.2760 Cl  0  0  0  0  0  0  0  0  0  0  0  0
    2.3470    1.7310    0.8640 N   0  0  0  0  0  0  0  0  0  0  0  0
    2.5980    0.6160    0.1440 C   0  0  0  0  0  0  0  0  0  0  0  0
    1.8540    0.3700   -1.4770 S   0  0  0  0  0  0  0  0  0  0  0  0
    0.2720   -0.4780   -1.3710 C   0  0  0  0  0  0  0  0  0  0  0  0
   -0.7600    0.3460   -0.6850 C   0  0  0  0  0  0  0  0  0  0  0  0
   -0.4590    1.4650   -0.2720 O   0  0  0  0  0  0  0  0  0  0  0  0
   -2.0620   -0.1720   -0.5220 N   0  0  0  0  0  0  0  0  0  0  0  0
   -3.1380    0.5400    0.1250 C   0  0  0  0  0  0  0  0  0  0  0  0
   -3.0450    1.7430    0.6430 C   0  0  0  0  0  0  0  0  0  0  0  0
   -4.6370    2.1630    1.3170 S   0  0  2  0  0  0  0  0  0  0  0  0
   -5.4720    2.8890    0.3360 O   0  0  0  0  0  0  0  0  0  0  0  0
   -4.5230    2.8050    2.6450 O   0  0  0  0  0  0  0  0  0  0  0  0
   -5.1950    0.4450    1.4510 C   0  0  0  0  0  0  0  0  0  0  0  0
   -4.4590   -0.0560    0.2320 C   0  0  0  0  0  0  0  0  0  0  0  0
   -5.0300   -0.9350   -0.5960 C   0  0  0  0  0  0  0  0  0  0  0  0
   -4.3900   -1.4350   -1.7570 N   0  0  0  0  0  0  0  0  0  0  0  0
  1  2  1  0
  2  3  1  0
  3  4  1  0
  4  5  1  0
  4  9  1  0
  5  6  2  0
  6  7  1  0
  6  8  1  0
  8  9  2  0
  9 10  1  0
 10 11  1  0
 11 12  1  0
 12 13  2  0
 12 14  1  0
 14 15  1  0
 15 16  2  0
 15 21  1  0
 16 17  1  0
 17 18  2  0
 17 19  2  0
 17 20  1  1
 20 21  1  0
 21 22  2  3
 22 23  1  0
M  END
