
     RDKit          3D

  8  7  0  0  0  0  0  0  0  0999 V2000
    3.2750   -0.2530   -0.3170 C   0  0  0  0  0  0  0  0  0  0  0  0
    2.2250    0.1930    0.5280 O   0  0  0  0  0  0  0  0  0  0  0  0
    0.9240    0.2300   -0.0080 C   0  0  0  0  0  0  0  0  0  0  0  0
    0.6870   -0.1180   -1.1930 O   0  0  0  0  0  0  0  0  0  0  0  0
   -0.1630    0.6510    0.7410 O   0  0  0  0  0  0  0  0  0  0  0  0
   -1.4740    0.7160    0.2850 C   0  0  0  0  0  0  0  0  0  0  0  0
   -2.0390   -0.6000   -0.1670 C   0  0  0  0  0  0  0  0  0  0  0  0
   -3.3610   -0.3570   -0.5920 O   0  0  0  0  0  0  0  0  0  0  0  0
  1  2  1  0
  2  3  1  0
  3  4  2  0
  3  5  1  0
  5  6  1  0
  6  7  1  0
  7  8  1  0
M  END
