
     RDKit          3D

  7  6  0  0  0  0  0  0  0  0999 V2000
    3.1010    0.3350    0.0070 C   0  0  0  0  0  0  0  0  0  0  0  0
    1.8770    0.7180    0.6020 O   0  0  0  0  0  0  0  0  0  0  0  0
    0.8910    0.0320   -0.0840 C   0  0  0  0  0  0  0  0  0  0  0  0
   -0.3870    0.2940    0.3750 O   0  0  0  0  0  0  0  0  0  0  0  0
   -1.2540   -0.4650   -0.4110 C   0  0  0  0  0  0  0  0  0  0  0  0
   -2.6930   -0.2800   -0.0210 C   0  0  0  0  0  0  0  0  0  0  0  0
   -3.1010    1.0330   -0.1440 O   0  0  0  0  0  0  0  0  0  0  0  0
  1  2  1  0
  2  3  1  0
  3  4  1  0
  4  5  1  0
  5  6  1  0
  6  7  1  0
M  END
