
     RDKit          3D

 11 11  0  0  0  0  0  0  0  0999 V2000
    3.0900   -0.4620   -0.7390 C   0  0  0  0  0  0  0  0  0  0  0  0
    2.3710   -0.4250    0.4490 O   0  0  0  0  0  0  0  0  0  0  0  0
    1.3650    0.4900    0.3200 C   0  0  2  0  0  0  0  0  0  0  0  0
    1.5620    1.4950    1.3030 O   0  0  0  0  0  0  0  0  0  0  0  0
   -0.0190   -0.0570    0.5970 C   0  0  2  0  0  0  0  0  0  0  0  0
   -0.3540   -1.3040   -0.1340 C   0  0  0  0  0  0  0  0  0  0  0  0
   -1.6960   -1.5310   -0.3380 O   0  0  0  0  0  0  0  0  0  0  0  0
   -2.4020   -0.4100   -0.7280 C   0  0  0  0  0  0  0  0  0  0  0  0
   -2.2130    0.6450    0.3070 C   0  0  2  0  0  0  0  0  0  0  0  0
   -2.9320    1.7760   -0.0800 O   0  0  0  0  0  0  0  0  0  0  0  0
   -0.8900    0.9940    0.4220 O   0  0  0  0  0  0  0  0  0  0  0  0
  1  2  1  0
  2  3  1  0
  3  4  1  1
  3  5  1  0
  5  6  1  6
  5 11  1  0
  6  7  1  0
  7  8  1  0
  8  9  1  0
  9 10  1  6
  9 11  1  0
M  END
