
     RDKit          3D

 15 16  0  0  0  0  0  0  0  0999 V2000
   -4.0080    1.2280   -0.1490 C   0  0  0  0  0  0  0  0  0  0  0  0
   -3.1130    0.1110   -0.1740 N   0  0  0  0  0  0  0  0  0  0  0  0
   -3.6080   -1.2470   -0.2880 C   0  0  0  0  0  0  0  0  0  0  0  0
   -1.6960    0.3200   -0.0860 C   0  0  0  0  0  0  0  0  0  0  0  0
   -1.2140    1.5810    0.0210 N   0  0  0  0  0  0  0  0  0  0  0  0
    0.1190    1.7610    0.1030 C   0  0  0  0  0  0  0  0  0  0  0  0
    0.9980    0.7020    0.0810 C   0  0  0  0  0  0  0  0  0  0  0  0
    2.3680    0.8290    0.1610 C   0  0  0  0  0  0  0  0  0  0  0  0
    2.8390    2.0010    0.2620 O   0  0  0  0  0  0  0  0  0  0  0  0
    3.1770   -0.2510    0.1340 N   0  0  0  0  0  0  0  0  0  0  0  0
    4.6100   -0.0670    0.2210 C   0  0  0  0  0  0  0  0  0  0  0  0
    2.7120   -1.5090    0.0280 C   0  0  0  0  0  0  0  0  0  0  0  0
    1.3480   -1.6750   -0.0550 C   0  0  0  0  0  0  0  0  0  0  0  0
    0.4970   -0.5790   -0.0290 C   0  0  0  0  0  0  0  0  0  0  0  0
   -0.8370   -0.7140   -0.1080 N   0  0  0  0  0  0  0  0  0  0  0  0
  1  2  1  0
  2  3  1  0
  2  4  1  0
  4  5  2  0
  4 15  1  0
  5  6  1  0
  6  7  2  0
  7  8  1  0
  7 14  1  0
  8  9  2  0
  8 10  1  0
 10 11  1  0
 10 12  1  0
 12 13  2  0
 13 14  1  0
 14 15  2  0
M  END
