
     RDKit          3D

  8  7  0  0  0  0  0  0  0  0999 V2000
    3.1050    0.0890   -0.4670 C   0  0  0  0  0  0  0  0  0  0  0  0
    1.6900   -0.1740   -0.9230 C   0  0  0  0  0  0  0  0  0  0  0  0
    1.2620   -0.0500   -2.0880 O   0  0  0  0  0  0  0  0  0  0  0  0
    0.8330   -0.5620    0.0650 O   0  0  0  0  0  0  0  0  0  0  0  0
   -0.4440   -0.8490    0.1000 O   0  0  0  0  0  0  0  0  0  0  0  0
   -1.1870    0.0280   -0.7690 C   0  0  0  0  0  0  0  0  0  0  0  0
   -2.4020    0.4520    0.0990 C   0  0  0  0  0  0  0  0  0  0  0  0
   -3.2450   -0.6150    0.4740 O   0  0  0  0  0  0  0  0  0  0  0  0
  1  2  1  0
  2  3  2  0
  2  4  1  0
  4  5  1  0
  5  6  1  0
  6  7  1  0
  7  8  1  0
M  END
