
     RDKit          3D

 31 31  0  0  0  0  0  0  0  0999 V2000
    4.0810    2.0140    0.6110 N   0  0  0  0  0  0  0  0  0  0  0  0
    3.5950    0.9070    0.5220 C   0  0  0  0  0  0  0  0  0  0  0  0
    2.4400    0.7550   -0.2170 N   0  0  0  0  0  0  0  0  0  0  0  0
    1.3290   -0.0940   -0.0000 C   0  0  0  0  0  0  0  0  0  0  0  0
    1.4910   -0.7000    1.0730 O   0  0  0  0  0  0  0  0  0  0  0  0
    0.2520   -0.1140   -0.9770 C   0  0  1  0  0  0  0  0  0  0  0  0
    0.6500   -1.0100   -2.1490 C   0  0  0  0  0  0  0  0  0  0  0  0
    1.8540   -0.5170   -2.6450 O   0  0  0  0  0  0  0  0  0  0  0  0
   -0.9910   -0.5220   -0.3820 N   0  0  0  0  0  0  0  0  0  0  0  0
   -2.0840    0.2650   -0.2090 C   0  0  0  0  0  0  0  0  0  0  0  0
   -3.1940   -0.3640    0.1560 O   0  0  0  0  0  0  0  0  0  0  0  0
   -2.3760    1.7180   -0.3250 C   0  0  0  0  0  0  0  0  0  0  0  0
   -1.5130    2.6450   -0.5280 C   0  0  0  0  0  0  0  0  0  0  0  0
   -1.6360    4.0490   -0.6700 C   0  0  0  0  0  0  0  0  0  0  0  0
   -0.5390    4.7670   -0.8770 O   0  0  0  0  0  0  0  0  0  0  0  0
   -2.7280    4.8720   -0.6360 O   0  0  0  0  0  0  0  0  0  0  0  0
   -3.8060    2.0960   -0.1950 C   0  0  0  0  0  0  0  0  0  0  0  0
   -4.6260    1.1530    0.0020 O   0  0  0  0  0  0  0  0  0  0  0  0
   -4.2750    3.3350   -0.2700 O   0  0  0  0  0  0  0  0  0  0  0  0
   -1.0380   -1.8740    0.1330 C   0  0  0  0  0  0  0  0  0  0  0  0
    0.0450   -2.5380    0.0860 O   0  0  0  0  0  0  0  0  0  0  0  0
   -2.1570   -2.5860    0.7030 C   0  0  1  0  0  0  0  0  0  0  0  0
   -3.0860   -3.2460   -0.2920 C   0  0  0  0  0  0  0  0  0  0  0  0
   -3.9020   -3.9900    0.6330 O   0  0  0  0  0  0  0  0  0  0  0  0
   -2.9320   -4.5840    1.4670 C   0  0  0  0  0  0  0  0  0  0  0  0
   -3.1570   -5.5900    2.1930 O   0  0  0  0  0  0  0  0  0  0  0  0
   -1.7000   -3.8650    1.3420 N   0  0  0  0  0  0  0  0  0  0  0  0
    4.6200   -0.1030    0.8700 N   0  0  0  0  0  0  0  0  0  0  0  0
    5.5990   -0.0440    2.3030 P   0  0  0  0  0  0  0  0  0  0  0  0
    7.2140    0.4250    1.8660 O   0  0  0  0  0  0  0  0  0  0  0  0
    4.9660    0.9770    3.5510 O   0  0  0  0  0  0  0  0  0  0  0  0
  1  2  2  0
  2  3  1  0
  2 28  1  0
  3  4  1  0
  4  5  2  0
  4  6  1  0
  6  7  1  6
  6  9  1  0
  7  8  1  0
  9 10  1  0
  9 20  1  0
 10 11  2  0
 10 12  1  0
 12 13  2  3
 12 17  1  0
 13 14  1  0
 14 15  2  0
 14 16  1  0
 17 18  2  0
 17 19  1  0
 20 21  2  0
 22 20  1  6
 22 23  1  0
 22 27  1  0
 23 24  1  0
 24 25  1  0
 25 26  2  0
 25 27  1  0
 28 29  1  0
 29 30  1  0
 29 31  1  0
M  END
