
     RDKit          3D

 31 31  0  0  0  0  0  0  0  0999 V2000
   -2.6250    4.7430   -1.2960 C   0  0  0  0  0  0  0  0  0  0  0  0
   -2.3530    3.3780   -1.2730 O   0  0  0  0  0  0  0  0  0  0  0  0
   -1.7740    3.1060   -0.1490 O   0  0  0  0  0  0  0  0  0  0  0  0
   -1.2030    1.8320   -0.0860 C   0  0  1  0  0  0  0  0  0  0  0  0
    0.2730    1.8560    0.0370 C   0  0  0  0  0  0  0  0  0  0  0  0
    0.7210    1.0800    1.1660 N   0  0  0  0  0  0  0  0  0  0  0  0
    1.7530    0.1030    1.0850 C   0  0  0  0  0  0  0  0  0  0  0  0
    2.3700   -0.1390    2.1790 O   0  0  0  0  0  0  0  0  0  0  0  0
    2.1680   -0.6320   -0.0890 C   0  0  0  0  0  0  0  0  0  0  0  0
    3.6030   -0.7720   -0.3840 C   0  0  0  0  0  0  0  0  0  0  0  0
    4.4720   -0.2470    0.4030 N   0  0  0  0  0  0  0  0  0  0  0  0
    5.8530   -0.3970    0.0960 C   0  0  0  0  0  0  0  0  0  0  0  0
    6.4560   -1.4880    0.2540 O   0  0  0  0  0  0  0  0  0  0  0  0
    6.5740    0.7220   -0.4060 N   0  0  0  0  0  0  0  0  0  0  0  0
    7.9490    0.6770   -0.7420 C   0  0  0  0  0  0  0  0  0  0  0  0
    8.5700   -0.4020   -0.5920 O   0  0  0  0  0  0  0  0  0  0  0  0
    8.6430    1.7700   -1.2300 O   0  0  0  0  0  0  0  0  0  0  0  0
    1.2870   -1.2130   -0.9170 C   0  0  0  0  0  0  0  0  0  0  0  0
   -0.1130   -1.1970   -0.7710 N   0  0  0  0  0  0  0  0  0  0  0  0
   -0.8110   -1.6050    0.3350 N   0  0  0  0  0  0  0  0  0  0  0  0
   -2.2150   -1.7160    0.2170 C   0  0  2  0  0  0  0  0  0  0  0  0
   -2.7350   -1.9790    1.4920 O   0  0  0  0  0  0  0  0  0  0  0  0
   -4.4390   -2.1390    1.4880 P   0  0  0  0  0  0  0  0  0  0  0  0
   -5.0280   -3.3240    0.3990 O   0  0  0  0  0  0  0  0  0  0  0  0
   -5.2910   -0.6550    1.4320 O   0  0  0  0  0  0  0  0  0  0  0  0
   -2.5660   -3.1660   -0.9260 P   0  0  0  0  0  0  0  0  0  0  0  0
   -3.8910   -2.8280   -1.9740 O   0  0  0  0  0  0  0  0  0  0  0  0
   -2.7810   -4.6240   -0.0550 O   0  0  0  0  0  0  0  0  0  0  0  0
   -2.9440   -0.5430   -0.3310 C   0  0  0  0  0  0  0  0  0  0  0  0
   -3.1060    0.5200    0.5490 O   0  0  0  0  0  0  0  0  0  0  0  0
   -1.9130    1.0840    0.9840 C   0  0  0  0  0  0  0  0  0  0  0  0
  1  2  1  0
  2  3  1  0
  4  3  1  1
  4  5  1  0
  4 31  1  0
  5  6  1  0
  6  7  1  0
  7  8  2  0
  7  9  1  0
  9 10  1  0
  9 18  2  0
 10 11  2  3
 11 12  1  0
 12 13  2  0
 12 14  1  0
 14 15  1  0
 15 16  2  0
 15 17  1  0
 18 19  1  0
 19 20  1  0
 20 21  1  0
 21 22  1  1
 21 26  1  0
 21 29  1  0
 22 23  1  0
 23 24  1  0
 23 25  1  0
 26 27  1  0
 26 28  1  0
 29 30  1  0
 30 31  1  0
M  END
