
     RDKit          3D

 31 33  0  0  0  0  0  0  0  0999 V2000
    8.4840    0.3930    1.2920 N   0  0  0  0  0  0  0  0  0  0  0  0
    7.1320   -0.0230    1.1210 C   0  0  0  0  0  0  0  0  0  0  0  0
    6.5090   -0.7710    2.0520 N   0  0  0  0  0  0  0  0  0  0  0  0
    5.2350   -1.1620    1.8890 C   0  0  0  0  0  0  0  0  0  0  0  0
    4.5120   -0.8360    0.8020 N   0  0  0  0  0  0  0  0  0  0  0  0
    5.0760   -0.0910   -0.1620 C   0  0  0  0  0  0  0  0  0  0  0  0
    6.3870    0.3160   -0.0030 C   0  0  0  0  0  0  0  0  0  0  0  0
    6.7350    1.0360   -1.0710 N   0  0  0  0  0  0  0  0  0  0  0  0
    5.6750    1.0840   -1.8830 C   0  0  0  0  0  0  0  0  0  0  0  0
    4.6540    0.3990   -1.3400 N   0  0  0  0  0  0  0  0  0  0  0  0
    3.3490    0.2300   -1.9270 C   0  0  2  0  0  0  0  0  0  0  0  0
    2.3650    0.9840   -1.3460 O   0  0  0  0  0  0  0  0  0  0  0  0
    1.1520    0.3870   -1.5410 C   0  0  2  0  0  0  0  0  0  0  0  0
    0.4600    0.2080   -0.1930 C   0  0  0  0  0  0  0  0  0  0  0  0
   -0.7460   -0.3910   -0.4230 O   0  0  0  0  0  0  0  0  0  0  0  0
   -1.6310   -0.6590    0.9370 P   0  0  0  0  0  0  0  0  0  0  0  0
   -0.8170   -1.2940    2.2710 O   0  0  0  0  0  0  0  0  0  0  0  0
   -1.4700    0.7590    1.4580 O   0  0  0  0  0  0  0  0  0  0  0  0
   -3.2580   -0.5510    0.9260 O   0  0  0  0  0  0  0  0  0  0  0  0
   -4.1390    0.6350    0.5580 P   0  0  0  0  0  0  0  0  0  0  0  0
   -4.1560    0.8890    2.2250 O   0  0  0  0  0  0  0  0  0  0  0  0
   -4.5640    2.1850    0.5860 O   0  0  0  0  0  0  0  0  0  0  0  0
   -5.6110   -0.1070   -0.0980 C   0  0  0  0  0  0  0  0  0  0  0  0
   -7.0020   -0.1450    0.9300 P   0  0  0  0  0  0  0  0  0  0  0  0
   -7.6790   -1.4240    0.4130 O   0  0  0  0  0  0  0  0  0  0  0  0
   -6.9020   -0.8020    2.4400 O   0  0  0  0  0  0  0  0  0  0  0  0
   -8.3970    0.6960    0.4510 O   0  0  0  0  0  0  0  0  0  0  0  0
    1.3630   -0.9740   -2.1230 C   0  0  1  0  0  0  0  0  0  0  0  0
    1.1570   -0.9240   -3.5190 O   0  0  0  0  0  0  0  0  0  0  0  0
    2.8490   -1.2040   -1.8200 C   0  0  1  0  0  0  0  0  0  0  0  0
    3.4350   -2.0380   -2.7390 O   0  0  0  0  0  0  0  0  0  0  0  0
  1  2  1  0
  2  3  2  0
  2  7  1  0
  3  4  1  0
  4  5  2  0
  5  6  1  0
  6  7  2  0
  6 10  1  0
  7  8  1  0
  8  9  2  0
  9 10  1  0
 11 10  1  1
 11 12  1  0
 11 30  1  0
 12 13  1  0
 13 14  1  1
 13 28  1  0
 14 15  1  0
 15 16  1  0
 16 17  1  0
 16 18  1  0
 16 19  1  0
 19 20  1  0
 20 21  1  0
 20 22  1  0
 20 23  1  0
 23 24  1  0
 24 25  1  0
 24 26  1  0
 24 27  1  0
 28 29  1  6
 28 30  1  0
 30 31  1  6
M  END
