
     RDKit          3D

 31 31  0  0  0  0  0  0  0  0999 V2000
   -0.9670    2.6670    2.0030 C   0  0  0  0  0  0  0  0  0  0  0  0
   -0.6200    2.0550    0.7490 N   0  0  0  0  0  0  0  0  0  0  0  0
   -0.1300    0.6890    0.7990 C   0  0  0  0  0  0  0  0  0  0  0  0
    0.3120    0.2710    1.8830 O   0  0  0  0  0  0  0  0  0  0  0  0
   -0.1530   -0.1740   -0.3940 C   0  0  2  0  0  0  0  0  0  0  0  0
   -1.5210   -0.7340   -0.5720 C   0  0  0  0  0  0  0  0  0  0  0  0
   -1.9320   -1.6210    0.4820 N   0  0  0  0  0  0  0  0  0  0  0  0
   -3.2230   -2.2130    0.4110 C   0  0  0  0  0  0  0  0  0  0  0  0
   -4.0720   -1.8640   -0.4880 N   0  0  0  0  0  0  0  0  0  0  0  0
   -3.6460   -3.2240    1.3310 N   0  0  0  0  0  0  0  0  0  0  0  0
   -5.1020   -4.2320    1.0140 P   0  0  0  0  0  0  0  0  0  0  0  0
   -6.4280   -3.1400    0.7190 O   0  0  0  0  0  0  0  0  0  0  0  0
   -4.8350   -5.1020   -0.4870 O   0  0  0  0  0  0  0  0  0  0  0  0
    0.8350   -1.1790   -0.3400 O   0  0  0  0  0  0  0  0  0  0  0  0
    2.1720   -0.8640   -0.2540 C   0  0  0  0  0  0  0  0  0  0  0  0
    2.5590    0.3410   -0.2200 O   0  0  0  0  0  0  0  0  0  0  0  0
    3.2390   -1.9040   -0.1950 C   0  0  0  0  0  0  0  0  0  0  0  0
    4.6090   -1.3010   -0.1040 C   0  0  0  0  0  0  0  0  0  0  0  0
    5.5220   -2.3660   -0.0550 O   0  0  0  0  0  0  0  0  0  0  0  0
    7.1520   -1.8210    0.0520 P   0  0  0  0  0  0  0  0  0  0  0  0
    7.3700   -0.4350   -0.9600 O   0  0  0  0  0  0  0  0  0  0  0  0
    8.2030   -3.0840   -0.4990 O   0  0  0  0  0  0  0  0  0  0  0  0
    0.1350    0.6800   -1.6050 C   0  0  0  0  0  0  0  0  0  0  0  0
    0.8050    0.1440   -2.5190 O   0  0  0  0  0  0  0  0  0  0  0  0
   -0.3340    1.9910   -1.6710 N   0  0  0  0  0  0  0  0  0  0  0  0
   -0.7290    2.7240   -0.4880 C   0  0  0  0  0  0  0  0  0  0  0  0
   -1.1770    3.9430   -0.6680 C   0  0  0  0  0  0  0  0  0  0  0  0
   -1.6840    5.0240    0.0700 C   0  0  0  0  0  0  0  0  0  0  0  0
   -1.8780    5.1430    1.2670 O   0  0  0  0  0  0  0  0  0  0  0  0
   -2.0480    6.2100   -0.6660 O   0  0  0  0  0  0  0  0  0  0  0  0
   -2.5350    7.2390    0.0720 O   0  0  0  0  0  0  0  0  0  0  0  0
  1  2  1  0
  2  3  1  0
  2 26  1  0
  3  4  2  0
  3  5  1  0
  5  6  1  6
  5 14  1  0
  5 23  1  0
  6  7  1  0
  7  8  1  0
  8  9  2  0
  8 10  1  0
 10 11  1  0
 11 12  1  0
 11 13  1  0
 14 15  1  0
 15 16  2  0
 15 17  1  0
 17 18  1  0
 18 19  1  0
 19 20  1  0
 20 21  1  0
 20 22  1  0
 23 24  2  0
 23 25  1  0
 25 26  1  0
 26 27  2  3
 27 28  1  0
 28 29  2  0
 28 30  1  0
 30 31  1  0
M  END
