
     RDKit          3D

 36 39  0  0  0  0  0  0  0  0999 V2000
   -8.0210    0.9070   -1.4100 C   0  0  0  0  0  0  0  0  0  0  0  0
   -6.8780    0.6770   -0.4480 C   0  0  0  0  0  0  0  0  0  0  0  0
   -5.5820    0.7040   -0.8640 C   0  0  0  0  0  0  0  0  0  0  0  0
   -4.5040    0.4950    0.0080 C   0  0  0  0  0  0  0  0  0  0  0  0
   -3.2110    0.5640   -0.5490 N   0  0  0  0  0  0  0  0  0  0  0  0
   -2.0420    0.1680    0.1040 C   0  0  0  0  0  0  0  0  0  0  0  0
   -2.0700   -0.2930    1.2600 O   0  0  0  0  0  0  0  0  0  0  0  0
   -0.6980    0.2950   -0.5960 C   0  0  0  0  0  0  0  0  0  0  0  0
    0.3530   -0.1760    0.3320 N   0  0  0  0  0  0  0  0  0  0  0  0
    0.6430    0.7110    1.4040 C   0  0  0  0  0  0  0  0  0  0  0  0
    1.3620    1.9600    1.0250 C   0  0  0  0  0  0  0  0  0  0  0  0
    1.8180    2.1670   -0.2470 C   0  0  0  0  0  0  0  0  0  0  0  0
    2.5230    3.3570   -0.4890 C   0  0  0  0  0  0  0  0  0  0  0  0
    2.7690    4.3000    0.4790 C   0  0  0  0  0  0  0  0  0  0  0  0
    3.5180    5.5090    0.1390 C   0  0  2  0  0  0  0  0  0  0  0  0
    3.4180    6.0910   -1.2820 C   0  0  0  0  0  0  0  0  0  0  0  0
    4.7400    5.5330   -0.6880 C   0  0  2  0  0  0  0  0  0  0  0  0
    5.2730    4.3480   -1.4100 C   0  0  0  0  0  0  0  0  0  0  0  0
    2.2950    4.0440    1.7230 N   0  0  0  0  0  0  0  0  0  0  0  0
    1.6150    2.9120    1.9860 C   0  0  0  0  0  0  0  0  0  0  0  0
    1.2200    2.7820    3.1880 O   0  0  0  0  0  0  0  0  0  0  0  0
    0.8600   -1.4620    0.0700 C   0  0  0  0  0  0  0  0  0  0  0  0
    0.1110   -2.3570   -0.7150 C   0  0  0  0  0  0  0  0  0  0  0  0
    0.4870   -3.6350   -1.0090 C   0  0  0  0  0  0  0  0  0  0  0  0
    1.7000   -4.0990   -0.4970 C   0  0  0  0  0  0  0  0  0  0  0  0
    2.0910   -5.3780   -0.7810 O   0  0  0  0  0  0  0  0  0  0  0  0
    3.2330   -6.0530   -0.3920 C   0  0  1  0  0  0  0  0  0  0  0  0
    2.7910   -7.3450    0.3070 C   0  0  0  0  0  0  0  0  0  0  0  0
    4.0920   -6.5050   -1.5570 C   0  0  0  0  0  0  0  0  0  0  0  0
    2.4470   -3.2390    0.2740 C   0  0  0  0  0  0  0  0  0  0  0  0
    2.0450   -1.9260    0.5660 C   0  0  0  0  0  0  0  0  0  0  0  0
    2.9730   -1.1240    1.4050 C   0  0  0  0  0  0  0  0  0  0  0  0
   -4.7980    0.2580    1.3200 C   0  0  0  0  0  0  0  0  0  0  0  0
   -6.1070    0.2280    1.7500 C   0  0  0  0  0  0  0  0  0  0  0  0
   -7.1600    0.4340    0.8870 C   0  0  0  0  0  0  0  0  0  0  0  0
   -8.5170    0.4150    1.2780 N   0  0  0  0  0  0  0  0  0  0  0  0
  1  2  1  0
  2  3  2  0
  2 35  1  0
  3  4  1  0
  4  5  1  0
  4 33  2  0
  5  6  1  0
  6  7  2  0
  6  8  1  0
  8  9  1  0
  9 10  1  0
  9 22  1  0
 10 11  1  0
 11 12  2  0
 11 20  1  0
 12 13  1  0
 13 14  2  0
 15 14  1  6
 14 19  1  0
 15 16  1  0
 15 17  1  0
 16 17  1  0
 17 18  1  6
 19 20  1  0
 20 21  2  0
 22 23  2  0
 22 31  1  0
 23 24  1  0
 24 25  2  0
 25 26  1  0
 25 30  1  0
 26 27  1  0
 27 28  1  6
 27 29  1  0
 30 31  2  0
 31 32  1  0
 33 34  1  0
 34 35  2  0
 35 36  1  0
M  CHG  1  36   1
M  END
