
     RDKit          3D

 36 39  0  0  0  0  0  0  0  0999 V2000
    7.1330    2.4890    2.9440 C   0  0  0  0  0  0  0  0  0  0  0  0
    6.2140    1.5770    2.3970 O   0  0  0  0  0  0  0  0  0  0  0  0
    6.5150    0.7830    1.2940 C   0  0  0  0  0  0  0  0  0  0  0  0
    7.7320    0.8260    0.6510 C   0  0  0  0  0  0  0  0  0  0  0  0
    7.9810    0.0190   -0.4380 C   0  0  0  0  0  0  0  0  0  0  0  0
    7.0190   -0.8350   -0.8930 C   0  0  0  0  0  0  0  0  0  0  0  0
    7.2550   -1.6660   -2.0020 O   0  0  0  0  0  0  0  0  0  0  0  0
    8.5020   -1.6280   -2.6670 C   0  0  0  0  0  0  0  0  0  0  0  0
    5.7610   -0.9120   -0.2680 C   0  0  0  0  0  0  0  0  0  0  0  0
    4.8840   -1.7910   -0.8050 O   0  0  0  0  0  0  0  0  0  0  0  0
    3.5960   -2.1550   -0.5430 C   0  0  0  0  0  0  0  0  0  0  0  0
    2.5370   -1.0980   -0.6920 C   0  0  0  0  0  0  0  0  0  0  0  0
    1.2030   -1.7150   -0.3570 C   0  0  0  0  0  0  0  0  0  0  0  0
    1.1670   -2.9110   -0.0290 O   0  0  0  0  0  0  0  0  0  0  0  0
    0.0150   -0.9570   -0.4120 N   0  0  0  0  0  0  0  0  0  0  0  0
   -1.2950   -1.4090   -0.1210 C   0  0  0  0  0  0  0  0  0  0  0  0
   -1.5960   -2.6180    0.4620 C   0  0  0  0  0  0  0  0  0  0  0  0
   -2.8870   -2.9880    0.7660 C   0  0  0  0  0  0  0  0  0  0  0  0
   -3.9500   -2.1580    0.5000 C   0  0  0  0  0  0  0  0  0  0  0  0
   -5.2640   -2.5860    0.8330 N   0  0  0  0  0  0  0  0  0  0  0  0
   -6.1990   -2.7350   -0.0090 C   0  0  0  0  0  0  0  0  0  0  0  0
   -7.4460   -3.1540    0.4000 O   0  0  0  0  0  0  0  0  0  0  0  0
   -3.6560   -0.9510   -0.0820 C   0  0  0  0  0  0  0  0  0  0  0  0
   -2.3690   -0.5520   -0.4000 C   0  0  0  0  0  0  0  0  0  0  0  0
   -2.1830    0.7500   -1.0500 C   0  0  0  0  0  0  0  0  0  0  0  0
   -1.3270    0.8670   -1.9250 O   0  0  0  0  0  0  0  0  0  0  0  0
   -3.0490    1.8720   -0.6140 C   0  0  0  0  0  0  0  0  0  0  0  0
   -4.3190    1.3770    0.0500 C   0  0  1  0  0  0  0  0  0  0  0  0
   -5.4240    2.3500   -0.1880 C   0  0  0  0  0  0  0  0  0  0  0  0
   -6.5780    2.0100   -0.7270 C   0  0  0  0  0  0  0  0  0  0  0  0
   -7.6970    2.9460   -0.9760 C   0  0  0  0  0  0  0  0  0  0  0  0
   -7.3730    4.2550   -0.5630 O   0  0  0  0  0  0  0  0  0  0  0  0
   -6.1740    4.6390    0.0030 C   0  0  0  0  0  0  0  0  0  0  0  0
   -5.2150    3.7540    0.1990 C   0  0  0  0  0  0  0  0  0  0  0  0
   -4.7510    0.0160   -0.4050 C   0  0  0  0  0  0  0  0  0  0  0  0
    5.5450   -0.0930    0.8180 C   0  0  0  0  0  0  0  0  0  0  0  0
  1  2  1  0
  2  3  1  0
  3  4  2  0
  3 36  1  0
  4  5  1  0
  5  6  2  0
  6  7  1  0
  6  9  1  0
  7  8  1  0
  9 10  1  0
  9 36  2  0
 10 11  1  0
 11 12  1  0
 12 13  1  0
 13 14  2  0
 13 15  1  0
 15 16  1  0
 16 17  2  0
 16 24  1  0
 17 18  1  0
 18 19  2  0
 19 20  1  0
 19 23  1  0
 20 21  2  3
 21 22  1  0
 23 24  2  0
 23 35  1  0
 24 25  1  0
 25 26  2  0
 25 27  1  0
 27 28  1  0
 28 29  1  6
 28 35  1  0
 29 30  2  0
 29 34  1  0
 30 31  1  0
 31 32  1  0
 32 33  1  0
 33 34  2  0
M  CHG  1  20   1
M  END
