
     RDKit          3D

 36 39  0  0  0  0  0  0  0  0999 V2000
    8.9420    1.5030    1.1020 C   0  0  0  0  0  0  0  0  0  0  0  0
    8.8230    0.7400   -0.1910 C   0  0  1  0  0  0  0  0  0  0  0  0
    8.2600    1.6360   -1.2670 C   0  0  0  0  0  0  0  0  0  0  0  0
   10.2090    0.2920   -0.6250 C   0  0  0  0  0  0  0  0  0  0  0  0
   10.7290   -0.8200    0.2550 C   0  0  0  0  0  0  0  0  0  0  0  0
    9.7740   -1.9580    0.4230 C   0  0  0  0  0  0  0  0  0  0  0  0
    8.4470   -1.7440   -0.2730 C   0  0  0  0  0  0  0  0  0  0  0  0
    7.9380   -0.3940   -0.0320 N   0  0  0  0  0  0  0  0  0  0  0  0
    6.5910   -0.2540    0.3480 C   0  0  0  0  0  0  0  0  0  0  0  0
    5.8830   -1.2920    0.4630 O   0  0  0  0  0  0  0  0  0  0  0  0
    5.9270    0.9690    0.6240 N   0  0  0  0  0  0  0  0  0  0  0  0
    4.5500    1.0590    1.0080 C   0  0  0  0  0  0  0  0  0  0  0  0
    3.6060    0.5050   -0.0050 C   0  0  0  0  0  0  0  0  0  0  0  0
    2.1930    0.6680    0.5350 C   0  0  0  0  0  0  0  0  0  0  0  0
    2.0350    1.2020    1.6610 O   0  0  0  0  0  0  0  0  0  0  0  0
    1.1210    0.2130   -0.2480 N   0  0  0  0  0  0  0  0  0  0  0  0
   -0.2410    0.3050    0.1240 C   0  0  0  0  0  0  0  0  0  0  0  0
   -0.7500    1.0560    1.1540 C   0  0  0  0  0  0  0  0  0  0  0  0
   -2.0970    1.0710    1.4580 C   0  0  0  0  0  0  0  0  0  0  0  0
   -3.0190    0.3190    0.7290 C   0  0  0  0  0  0  0  0  0  0  0  0
   -2.5500   -0.4410   -0.3060 C   0  0  0  0  0  0  0  0  0  0  0  0
   -3.4230   -1.2120   -1.1630 C   0  0  0  0  0  0  0  0  0  0  0  0
   -2.7870   -2.0780   -1.9410 O   0  0  0  0  0  0  0  0  0  0  0  0
   -4.8060   -1.2110   -1.3240 C   0  0  0  0  0  0  0  0  0  0  0  0
   -5.7680   -0.5180   -0.8150 C   0  0  0  0  0  0  0  0  0  0  0  0
   -7.1610   -0.7800   -1.2070 N   0  0  0  0  0  0  0  0  0  0  0  0
   -7.9810   -0.6190   -0.0250 C   0  0  2  0  0  0  0  0  0  0  0  0
   -8.6050   -1.8960    0.4250 C   0  0  0  0  0  0  0  0  0  0  0  0
  -10.0590   -2.0520    0.1530 C   0  0  0  0  0  0  0  0  0  0  0  0
  -10.5540   -1.2780   -1.0530 C   0  0  0  0  0  0  0  0  0  0  0  0
  -10.2650    0.1490   -0.7840 C   0  0  0  0  0  0  0  0  0  0  0  0
  -10.9620    1.2500   -0.9180 C   0  0  0  0  0  0  0  0  0  0  0  0
  -10.1340    2.3990   -0.4790 C   0  0  0  0  0  0  0  0  0  0  0  0
   -8.8540    1.7940   -0.0750 C   0  0  0  0  0  0  0  0  0  0  0  0
   -8.9550    0.4890   -0.2590 C   0  0  0  0  0  0  0  0  0  0  0  0
   -1.1640   -0.4340   -0.5890 C   0  0  0  0  0  0  0  0  0  0  0  0
  2  1  1  1
  2  3  1  0
  2  4  1  0
  2  8  1  0
  4  5  1  0
  5  6  1  0
  6  7  1  0
  7  8  1  0
  8  9  1  0
  9 10  2  0
  9 11  1  0
 11 12  1  0
 12 13  1  0
 13 14  1  0
 14 15  2  0
 14 16  1  0
 16 17  1  0
 17 18  2  0
 17 36  1  0
 18 19  1  0
 19 20  2  0
 20 21  1  0
 21 22  1  0
 21 36  2  0
 22 23  2  0
 22 24  1  0
 24 25  2  3
 25 26  1  0
 27 26  1  6
 27 28  1  0
 27 35  1  0
 28 29  1  0
 29 30  1  0
 30 31  1  0
 31 32  2  0
 31 35  1  0
 32 33  1  0
 33 34  1  0
 34 35  2  0
M  CHG  1  26   1
M  END
