
     RDKit          3D

 36 39  0  0  0  0  0  0  0  0999 V2000
   -6.0360   -2.6980    1.1390 C   0  0  0  0  0  0  0  0  0  0  0  0
   -5.3980   -1.5150    1.7750 C   0  0  0  0  0  0  0  0  0  0  0  0
   -4.0460   -1.1400    1.2450 C   0  0  0  0  0  0  0  0  0  0  0  0
   -3.9890   -0.7610   -0.1900 C   0  0  2  0  0  0  0  0  0  0  0  0
   -4.8280    0.4240   -0.5160 C   0  0  0  0  0  0  0  0  0  0  0  0
   -4.2260    1.5130   -0.7140 O   0  0  0  0  0  0  0  0  0  0  0  0
   -6.2240    0.4440   -0.6210 N   0  0  0  0  0  0  0  0  0  0  0  0
   -6.9950    1.6350   -0.9360 C   0  0  0  0  0  0  0  0  0  0  0  0
   -8.4680    1.3030   -0.9680 C   0  0  0  0  0  0  0  0  0  0  0  0
   -4.0500   -1.8630   -1.2140 C   0  0  0  0  0  0  0  0  0  0  0  0
   -2.9510   -1.1100   -1.9780 C   0  0  1  0  0  0  0  0  0  0  0  0
   -1.9370   -2.0570   -2.5800 C   0  0  0  0  0  0  0  0  0  0  0  0
   -3.4480   -0.1370   -2.9950 C   0  0  0  0  0  0  0  0  0  0  0  0
   -2.5400   -0.5400   -0.6320 C   0  0  2  0  0  0  0  0  0  0  0  0
   -1.5670   -1.3750    0.0120 N   0  0  0  0  0  0  0  0  0  0  0  0
   -0.8690   -0.7650    1.1130 C   0  0  0  0  0  0  0  0  0  0  0  0
    0.4530   -0.2180    0.6800 C   0  0  0  0  0  0  0  0  0  0  0  0
    1.6070   -0.9570    0.7030 C   0  0  0  0  0  0  0  0  0  0  0  0
    2.8440   -0.4120    0.3000 C   0  0  0  0  0  0  0  0  0  0  0  0
    2.9710    0.8540   -0.1240 C   0  0  0  0  0  0  0  0  0  0  0  0
    4.1960    1.5300   -0.4380 C   0  0  0  0  0  0  0  0  0  0  0  0
    4.0240    2.5720   -1.2190 O   0  0  0  0  0  0  0  0  0  0  0  0
    5.5210    1.2200   -0.0200 C   0  0  0  0  0  0  0  0  0  0  0  0
    5.8450    0.2810    0.8440 C   0  0  0  0  0  0  0  0  0  0  0  0
    7.1480   -0.1300    1.3360 N   0  0  0  0  0  0  0  0  0  0  0  0
    8.3190    0.6590    1.4700 C   0  0  0  0  0  0  0  0  0  0  0  0
    9.1810    0.1750    2.4310 C   0  0  0  0  0  0  0  0  0  0  0  0
   10.3570    0.8530    2.6930 C   0  0  0  0  0  0  0  0  0  0  0  0
   10.6370    1.9930    1.9890 C   0  0  0  0  0  0  0  0  0  0  0  0
    9.7900    2.4910    1.0260 C   0  0  0  0  0  0  0  0  0  0  0  0
    8.6380    1.8210    0.7730 C   0  0  0  0  0  0  0  0  0  0  0  0
    7.8610    2.4520   -0.2660 N   0  0  0  0  0  0  0  0  0  0  0  0
    6.5450    2.1030   -0.6700 C   0  0  0  0  0  0  0  0  0  0  0  0
    6.1210    2.5910   -1.7440 O   0  0  0  0  0  0  0  0  0  0  0  0
    1.7730    1.6080   -0.1460 C   0  0  0  0  0  0  0  0  0  0  0  0
    0.5720    1.0820    0.2420 C   0  0  0  0  0  0  0  0  0  0  0  0
  1  2  1  0
  2  3  1  0
  4  3  1  1
  4  5  1  0
  4 10  1  0
  4 14  1  0
  5  6  2  0
  5  7  1  0
  7  8  1  0
  8  9  1  0
 10 11  1  0
 11 12  1  6
 11 13  1  0
 11 14  1  0
 14 15  1  1
 15 16  1  0
 16 17  1  0
 17 18  2  0
 17 36  1  0
 18 19  1  0
 19 20  2  0
 20 21  1  0
 20 35  1  0
 21 22  2  0
 21 23  1  0
 23 24  2  0
 23 33  1  0
 24 25  1  0
 25 26  1  0
 26 27  2  0
 26 31  1  0
 27 28  1  0
 28 29  2  0
 29 30  1  0
 30 31  2  0
 31 32  1  0
 32 33  1  0
 33 34  2  0
 35 36  2  0
M  CHG  1  15   1
M  END
