
     RDKit          3D

 36 39  0  0  0  0  0  0  0  0999 V2000
    8.3530   -2.2500    3.7470 C   0  0  0  0  0  0  0  0  0  0  0  0
    7.8160   -1.2500    2.7690 C   0  0  0  0  0  0  0  0  0  0  0  0
    8.4980   -0.1470    2.2730 C   0  0  0  0  0  0  0  0  0  0  0  0
    7.6890    0.4680    1.4520 O   0  0  0  0  0  0  0  0  0  0  0  0
    6.5340   -0.1400    1.3690 C   0  0  0  0  0  0  0  0  0  0  0  0
    5.4000    0.2380    0.5740 N   0  0  0  0  0  0  0  0  0  0  0  0
    4.2280   -0.5500    0.6150 C   0  0  0  0  0  0  0  0  0  0  0  0
    4.2400   -1.5740    1.3700 O   0  0  0  0  0  0  0  0  0  0  0  0
    3.0610   -0.2350   -0.1490 N   0  0  0  0  0  0  0  0  0  0  0  0
    1.8810   -1.1000   -0.0550 C   0  0  2  0  0  0  0  0  0  0  0  0
    1.4820   -1.6180   -1.4020 C   0  0  0  0  0  0  0  0  0  0  0  0
    1.0440   -0.5350   -2.2760 C   0  0  0  0  0  0  0  0  0  0  0  0
    1.2180   -0.6930   -3.6450 C   0  0  0  0  0  0  0  0  0  0  0  0
    0.8050    0.2800   -4.5410 C   0  0  0  0  0  0  0  0  0  0  0  0
    1.0200    0.0870   -6.2680 Cl  0  0  0  0  0  0  0  0  0  0  0  0
    0.2160    1.4120   -4.0180 C   0  0  0  0  0  0  0  0  0  0  0  0
    0.0370    1.5850   -2.6700 C   0  0  0  0  0  0  0  0  0  0  0  0
    0.4570    0.6010   -1.7860 C   0  0  0  0  0  0  0  0  0  0  0  0
    0.2890    0.8010   -0.3660 N   0  0  0  0  0  0  0  0  0  0  0  0
   -0.3260    1.9670    0.1540 C   0  0  0  0  0  0  0  0  0  0  0  0
   -1.8100    1.8260    0.3010 C   0  0  0  0  0  0  0  0  0  0  0  0
   -2.4230    2.8160    0.7540 O   0  0  0  0  0  0  0  0  0  0  0  0
   -2.4270    0.6220   -0.0670 N   0  0  0  0  0  0  0  0  0  0  0  0
   -3.8530    0.4460    0.0590 C   0  0  0  0  0  0  0  0  0  0  0  0
   -4.8320    1.2220    0.4800 C   0  0  0  0  0  0  0  0  0  0  0  0
   -6.1180    0.7770    0.4870 C   0  0  0  0  0  0  0  0  0  0  0  0
   -7.1260    1.5750    0.9220 C   0  0  0  0  0  0  0  0  0  0  0  0
   -6.9100    2.8320    1.3640 F   0  0  0  0  0  0  0  0  0  0  0  0
   -6.3740   -0.4770    0.0530 C   0  0  0  0  0  0  0  0  0  0  0  0
   -7.4100   -1.2590   -0.1030 C   0  0  0  0  0  0  0  0  0  0  0  0
   -8.8230   -1.0610    0.1540 C   0  0  0  0  0  0  0  0  0  0  0  0
   -9.1740   -1.0990    1.5250 O   0  0  0  0  0  0  0  0  0  0  0  0
   -4.6900   -1.0430   -0.3840 S   0  0  0  0  0  0  0  0  0  0  0  0
    0.7830   -0.2650    0.4510 C   0  0  0  0  0  0  0  0  0  0  0  0
    0.2910   -0.4850    1.5750 O   0  0  0  0  0  0  0  0  0  0  0  0
    6.6100   -1.2060    2.1850 N   0  0  0  0  0  0  0  0  0  0  0  0
  1  2  1  0
  2  3  2  0
  2 36  1  0
  3  4  1  0
  4  5  1  0
  5  6  1  0
  5 36  2  0
  6  7  1  0
  7  8  2  0
  7  9  1  0
 10  9  1  6
 10 11  1  0
 10 34  1  0
 11 12  1  0
 12 13  2  0
 12 18  1  0
 13 14  1  0
 14 15  1  0
 14 16  2  0
 16 17  1  0
 17 18  2  0
 18 19  1  0
 19 20  1  0
 19 34  1  0
 20 21  1  0
 21 22  2  0
 21 23  1  0
 23 24  1  0
 24 25  2  0
 24 33  1  0
 25 26  1  0
 26 27  2  3
 26 29  1  0
 27 28  1  0
 29 30  2  3
 29 33  1  0
 30 31  1  0
 31 32  1  0
 34 35  2  0
M  END
