
     RDKit          3D

 37 40  0  0  0  0  0  0  0  0999 V2000
    0.1320    2.3680    3.0260 C   0  0  0  0  0  0  0  0  0  0  0  0
    0.2560    0.9640    3.1170 O   0  0  0  0  0  0  0  0  0  0  0  0
    1.2650    0.2740    2.4660 C   0  0  0  0  0  0  0  0  0  0  0  0
    2.4600   -0.0330    3.0400 C   0  0  0  0  0  0  0  0  0  0  0  0
    2.7050    0.3510    4.3780 O   0  0  0  0  0  0  0  0  0  0  0  0
    3.4680   -0.7300    2.3710 C   0  0  0  0  0  0  0  0  0  0  0  0
    3.2540   -1.1150    1.1040 C   0  0  0  0  0  0  0  0  0  0  0  0
    4.4490   -1.3690    0.2030 C   0  0  0  0  0  0  0  0  0  0  0  0
    5.5840   -1.1490    0.6000 O   0  0  0  0  0  0  0  0  0  0  0  0
    4.2370   -1.8320   -1.1850 C   0  0  0  0  0  0  0  0  0  0  0  0
    5.2400   -1.6920   -1.9920 C   0  0  0  0  0  0  0  0  0  0  0  0
    6.5600   -1.1660   -1.9310 C   0  0  0  0  0  0  0  0  0  0  0  0
    7.4680   -1.1370   -2.9940 C   0  0  0  0  0  0  0  0  0  0  0  0
    8.6440   -0.5400   -2.5840 C   0  0  0  0  0  0  0  0  0  0  0  0
    8.4290   -0.2200   -1.2680 C   0  0  0  0  0  0  0  0  0  0  0  0
    9.4160    0.4470   -0.4120 C   0  0  0  0  0  0  0  0  0  0  0  0
    7.1950   -0.6170   -0.9590 O   0  0  0  0  0  0  0  0  0  0  0  0
    2.0470   -0.8460    0.4590 C   0  0  0  0  0  0  0  0  0  0  0  0
    1.0290   -0.1430    1.1190 C   0  0  0  0  0  0  0  0  0  0  0  0
   -0.0280    0.4910    0.4230 C   0  0  0  0  0  0  0  0  0  0  0  0
   -1.1370   -0.1070   -0.2120 N   0  0  0  0  0  0  0  0  0  0  0  0
   -1.9220    0.7230   -1.0840 C   0  0  0  0  0  0  0  0  0  0  0  0
   -1.4210    1.9170   -1.2370 O   0  0  0  0  0  0  0  0  0  0  0  0
   -3.1400    0.4370   -1.7730 C   0  0  1  0  0  0  0  0  0  0  0  0
   -3.2880   -0.9700   -2.3870 C   0  0  0  0  0  0  0  0  0  0  0  0
   -5.0500   -0.7910   -2.9300 S   0  0  0  0  0  0  0  0  0  0  0  0
   -5.3460    0.7970   -2.1180 C   0  0  0  0  0  0  0  0  0  0  0  0
   -4.3770    0.6220   -1.0270 N   0  0  0  0  0  0  0  0  0  0  0  0
   -4.6540    0.4690    0.3270 C   0  0  0  0  0  0  0  0  0  0  0  0
   -3.7300    0.4330    1.2340 O   0  0  0  0  0  0  0  0  0  0  0  0
   -5.9980    0.3140    0.8420 C   0  0  0  0  0  0  0  0  0  0  0  0
   -6.6090    0.2620    2.0760 C   0  0  0  0  0  0  0  0  0  0  0  0
   -7.8650   -0.1040    2.0560 N   0  0  0  0  0  0  0  0  0  0  0  0
   -8.6010   -0.4030    1.2300 C   0  0  0  0  0  0  0  0  0  0  0  0
   -9.9840   -0.8610    0.8650 C   0  0  0  0  0  0  0  0  0  0  0  0
  -10.0220   -1.3800   -0.4130 O   0  0  0  0  0  0  0  0  0  0  0  0
   -7.3900   -0.2080   -0.2680 S   0  0  0  0  0  0  0  0  0  0  0  0
  1  2  1  0
  2  3  1  0
  3  4  2  0
  3 19  1  0
  4  5  1  0
  4  6  1  0
  6  7  2  0
  7  8  1  0
  7 18  1  0
  8  9  2  0
  8 10  1  0
 10 11  2  3
 11 12  1  0
 12 13  2  0
 12 17  1  0
 13 14  1  0
 14 15  2  0
 15 16  1  0
 15 17  1  0
 18 19  2  0
 19 20  1  0
 20 21  1  0
 21 22  1  0
 22 23  2  0
 24 22  1  1
 24 25  1  0
 24 28  1  0
 25 26  1  0
 26 27  1  0
 27 28  1  0
 28 29  1  0
 29 30  2  0
 29 31  1  0
 31 32  2  0
 31 37  1  0
 32 33  1  0
 33 34  2  0
 34 35  1  0
 34 37  1  0
 35 36  1  0
M  END
