
     RDKit          3D

 37 40  0  0  0  0  0  0  0  0999 V2000
  -10.9390   -0.4170   -2.3610 C   0  0  0  0  0  0  0  0  0  0  0  0
  -10.5210    0.1960   -1.0440 C   0  0  0  0  0  0  0  0  0  0  0  0
   -9.1070    0.1960   -0.9940 O   0  0  0  0  0  0  0  0  0  0  0  0
   -8.3440    0.8590   -1.9090 C   0  0  0  0  0  0  0  0  0  0  0  0
   -8.9130    1.4910   -2.8260 O   0  0  0  0  0  0  0  0  0  0  0  0
   -6.9190    0.8120   -1.7920 C   0  0  0  0  0  0  0  0  0  0  0  0
   -6.0670    0.1930   -0.8920 C   0  0  0  0  0  0  0  0  0  0  0  0
   -4.7540    0.3240   -1.0250 C   0  0  0  0  0  0  0  0  0  0  0  0
   -3.7690   -0.3280   -0.0790 C   0  0  1  0  0  0  0  0  0  0  0  0
   -2.3970    0.2940   -0.2600 C   0  0  0  0  0  0  0  0  0  0  0  0
   -1.5770   -0.2780    0.7940 N   0  0  0  0  0  0  0  0  0  0  0  0
   -0.3020    0.2730    1.0830 C   0  0  0  0  0  0  0  0  0  0  0  0
    0.3480   -0.2810    2.0120 O   0  0  0  0  0  0  0  0  0  0  0  0
    0.2510    1.4260    0.3530 C   0  0  0  0  0  0  0  0  0  0  0  0
    1.5980    1.8040    0.8500 C   0  0  0  0  0  0  0  0  0  0  0  0
    2.8310    1.4050    0.5030 C   0  0  0  0  0  0  0  0  0  0  0  0
    3.8880    1.9410    1.1520 C   0  0  0  0  0  0  0  0  0  0  0  0
    5.2970    1.5320    0.8090 C   0  0  0  0  0  0  0  0  0  0  0  0
    6.2370    2.3550    0.8540 O   0  0  0  0  0  0  0  0  0  0  0  0
    5.5930    0.2080    0.4290 N   0  0  0  0  0  0  0  0  0  0  0  0
    6.9250   -0.2540    0.0880 C   0  0  0  0  0  0  0  0  0  0  0  0
    6.9480   -1.6710   -0.2760 C   0  0  0  0  0  0  0  0  0  0  0  0
    5.9090   -2.4690   -0.3070 O   0  0  0  0  0  0  0  0  0  0  0  0
    6.2830   -3.6820   -0.6770 C   0  0  0  0  0  0  0  0  0  0  0  0
    7.6530   -3.6900   -0.9060 C   0  0  0  0  0  0  0  0  0  0  0  0
    8.0640   -2.3900   -0.6430 C   0  0  0  0  0  0  0  0  0  0  0  0
    9.4120   -1.8670   -0.7330 C   0  0  0  0  0  0  0  0  0  0  0  0
    9.7000   -0.5150   -0.4340 N   0  0  0  0  0  0  0  0  0  0  0  0
   10.3370   -2.6400   -1.0850 O   0  0  0  0  0  0  0  0  0  0  0  0
    3.6770    2.8480    2.1130 C   0  0  0  0  0  0  0  0  0  0  0  0
    4.5000    3.6530    3.0330 C   0  0  0  0  0  0  0  0  0  0  0  0
    1.8750    2.9740    2.1270 S   0  0  0  0  0  0  0  0  0  0  0  0
   -2.1410   -1.4100    1.4980 C   0  0  0  0  0  0  0  0  0  0  0  0
   -3.5220   -1.0920    2.0420 C   0  0  0  0  0  0  0  0  0  0  0  0
   -4.2120   -0.1960    1.2350 O   0  0  0  0  0  0  0  0  0  0  0  0
   -4.2700    1.0890   -2.0800 C   0  0  0  0  0  0  0  0  0  0  0  0
   -5.7530    1.6400   -2.9110 S   0  0  0  0  0  0  0  0  0  0  0  0
  1  2  1  0
  2  3  1  0
  3  4  1  0
  4  5  2  0
  4  6  1  0
  6  7  2  0
  6 37  1  0
  7  8  1  0
  9  8  1  6
  8 36  2  0
  9 10  1  0
  9 35  1  0
 10 11  1  0
 11 12  1  0
 11 33  1  0
 12 13  2  0
 12 14  1  0
 14 15  1  0
 15 16  2  0
 15 32  1  0
 16 17  1  0
 17 18  1  0
 17 30  2  0
 18 19  2  0
 18 20  1  0
 20 21  1  0
 21 22  1  0
 22 23  1  0
 22 26  2  0
 23 24  1  0
 24 25  2  0
 25 26  1  0
 26 27  1  0
 27 28  1  0
 27 29  2  0
 30 31  1  0
 30 32  1  0
 33 34  1  0
 34 35  1  0
 36 37  1  0
M  END
