
     RDKit          3D

 40 43  0  0  0  0  0  0  0  0999 V2000
   -7.4580    4.6530    2.4380 C   0  0  0  0  0  0  0  0  0  0  0  0
   -7.2680    4.8880    0.9630 C   0  0  0  0  0  0  0  0  0  0  0  0
   -7.9750    5.7650    0.4440 O   0  0  0  0  0  0  0  0  0  0  0  0
   -6.2900    4.0870    0.2540 C   0  0  0  0  0  0  0  0  0  0  0  0
   -6.0600    4.2490   -1.0830 C   0  0  0  0  0  0  0  0  0  0  0  0
   -5.1110    3.4550   -1.7190 C   0  0  0  0  0  0  0  0  0  0  0  0
   -4.3950    2.5080   -1.0450 C   0  0  0  0  0  0  0  0  0  0  0  0
   -3.4080    1.7050   -1.7360 C   0  0  0  0  0  0  0  0  0  0  0  0
   -3.1600    1.8480   -2.9540 O   0  0  0  0  0  0  0  0  0  0  0  0
   -2.6810    0.7200   -1.0460 O   0  0  0  0  0  0  0  0  0  0  0  0
   -1.6930   -0.0870   -1.6970 C   0  0  2  0  0  0  0  0  0  0  0  0
   -1.9290   -1.5180   -1.5650 C   0  0  0  0  0  0  0  0  0  0  0  0
   -1.0530   -2.2840   -2.1030 O   0  0  0  0  0  0  0  0  0  0  0  0
   -2.9910   -2.1910   -0.9240 N   0  0  0  0  0  0  0  0  0  0  0  0
   -3.0140   -3.6670   -0.8640 C   0  0  0  0  0  0  0  0  0  0  0  0
   -3.5960   -4.1760    0.4290 C   0  0  0  0  0  0  0  0  0  0  0  0
   -4.9780   -3.6650    0.6820 C   0  0  0  0  0  0  0  0  0  0  0  0
   -5.3200   -2.4780   -0.1670 C   0  0  2  0  0  0  0  0  0  0  0  0
   -5.9280   -2.8190   -1.4950 C   0  0  0  0  0  0  0  0  0  0  0  0
   -4.1220   -1.5480   -0.3010 C   0  0  0  0  0  0  0  0  0  0  0  0
   -0.3370    0.3540   -1.1490 C   0  0  2  0  0  0  0  0  0  0  0  0
   -0.2800    1.8610   -1.4730 C   0  0  0  0  0  0  0  0  0  0  0  0
    0.7400   -0.3350   -1.7750 N   0  0  0  0  0  0  0  0  0  0  0  0
    2.0820   -0.2830   -1.3160 C   0  0  0  0  0  0  0  0  0  0  0  0
    2.3810    0.3840   -0.1540 C   0  0  0  0  0  0  0  0  0  0  0  0
    3.7060    0.4250    0.2930 C   0  0  0  0  0  0  0  0  0  0  0  0
    4.7350   -0.1900   -0.4030 C   0  0  0  0  0  0  0  0  0  0  0  0
    6.1170   -0.1600    0.0640 C   0  0  1  0  0  0  0  0  0  0  0  0
    6.9020    0.5910   -0.9200 N   0  0  0  0  0  0  0  0  0  0  0  0
    6.2840    0.5850    1.3630 C   0  0  2  0  0  0  0  0  0  0  0  0
    7.7320    0.5880    1.7890 C   0  0  0  0  0  0  0  0  0  0  0  0
    7.9910   -0.6420    2.6190 C   0  0  0  0  0  0  0  0  0  0  0  0
    6.9860   -0.5440    3.7770 C   0  0  2  0  0  0  0  0  0  0  0  0
    6.9070   -1.7910    4.5820 C   0  0  0  0  0  0  0  0  0  0  0  0
    5.4750   -0.2580    2.7670 S   0  0  0  0  0  0  0  0  0  0  0  0
    4.4140   -0.8550   -1.5710 C   0  0  0  0  0  0  0  0  0  0  0  0
    5.4480   -1.5200   -2.3460 C   0  0  0  0  0  0  0  0  0  0  0  0
    3.1010   -0.8870   -1.9990 C   0  0  0  0  0  0  0  0  0  0  0  0
   -4.6240    2.3400    0.3050 C   0  0  0  0  0  0  0  0  0  0  0  0
   -5.5670    3.1280    0.9460 C   0  0  0  0  0  0  0  0  0  0  0  0
  1  2  1  0
  2  3  2  0
  2  4  1  0
  4  5  2  0
  4 40  1  0
  5  6  1  0
  6  7  2  0
  7  8  1  0
  7 39  1  0
  8  9  2  0
  8 10  1  0
 11 10  1  1
 11 12  1  0
 11 21  1  0
 12 13  2  0
 12 14  1  0
 14 15  1  0
 14 20  1  0
 15 16  1  0
 16 17  1  0
 17 18  1  0
 18 19  1  6
 18 20  1  0
 21 22  1  6
 21 23  1  0
 23 24  1  0
 24 25  2  0
 24 38  1  0
 25 26  1  0
 26 27  2  0
 27 28  1  0
 27 36  1  0
 28 29  1  6
 28 30  1  0
 30 31  1  1
 30 35  1  0
 31 32  1  0
 32 33  1  0
 33 34  1  6
 33 35  1  0
 36 37  1  0
 36 38  2  0
 39 40  2  0
M  CHG  1  29   1
M  END
