
     RDKit          3D

 40 43  0  0  0  0  0  0  0  0999 V2000
   -1.8830   -5.7640   -0.9920 C   0  0  0  0  0  0  0  0  0  0  0  0
   -0.5030   -5.6570   -0.4510 C   0  0  0  0  0  0  0  0  0  0  0  0
   -0.0330   -4.2530   -0.3020 C   0  0  0  0  0  0  0  0  0  0  0  0
   -0.2170   -3.5140    0.8280 C   0  0  0  0  0  0  0  0  0  0  0  0
    0.2610   -2.1990    0.8790 C   0  0  0  0  0  0  0  0  0  0  0  0
    0.9110   -1.6420   -0.1900 C   0  0  0  0  0  0  0  0  0  0  0  0
    1.4040   -0.2470   -0.1020 C   0  0  1  0  0  0  0  0  0  0  0  0
    2.9140   -0.4130    0.1000 C   0  0  0  0  0  0  0  0  0  0  0  0
    3.6160    0.8400    0.2420 N   0  0  0  0  0  0  0  0  0  0  0  0
    5.0100    0.7870    0.4110 C   0  0  0  0  0  0  0  0  0  0  0  0
    5.5790   -0.3570    0.4310 O   0  0  0  0  0  0  0  0  0  0  0  0
    5.7950    2.0210    0.5610 C   0  0  0  0  0  0  0  0  0  0  0  0
    5.2330    3.1880    0.5420 C   0  0  0  0  0  0  0  0  0  0  0  0
    5.7860    4.5350    0.6690 C   0  0  1  0  0  0  0  0  0  0  0  0
    5.2250    5.1740    1.8080 O   0  0  0  0  0  0  0  0  0  0  0  0
    7.5470    4.5110    0.8870 S   0  0  0  0  0  0  0  0  0  0  0  0
    7.9320    5.1330    2.2170 O   0  0  0  0  0  0  0  0  0  0  0  0
    8.0860    2.8480    0.8810 C   0  0  0  0  0  0  0  0  0  0  0  0
    7.2550    1.8470    0.7340 C   0  0  0  0  0  0  0  0  0  0  0  0
    1.1010    0.4980   -1.3120 N   0  0  0  0  0  0  0  0  0  0  0  0
    0.1940    1.5800   -1.1700 C   0  0  2  0  0  0  0  0  0  0  0  0
   -1.0180    1.2380   -0.3720 C   0  0  0  0  0  0  0  0  0  0  0  0
   -1.4290    1.9930    0.5350 O   0  0  0  0  0  0  0  0  0  0  0  0
   -1.7330    0.0410   -0.6330 N   0  0  0  0  0  0  0  0  0  0  0  0
   -2.8840   -0.4260    0.0320 C   0  0  0  0  0  0  0  0  0  0  0  0
   -3.5680    0.2180    1.0190 C   0  0  0  0  0  0  0  0  0  0  0  0
   -4.7050   -0.3150    1.6370 C   0  0  0  0  0  0  0  0  0  0  0  0
   -5.1720   -1.5410    1.2490 C   0  0  0  0  0  0  0  0  0  0  0  0
   -6.3730   -2.1390    1.8800 C   0  0  2  0  0  0  0  0  0  0  0  0
   -7.6100   -1.2720    1.6250 C   0  0  0  0  0  0  0  0  0  0  0  0
   -6.2100   -2.3310    3.3660 C   0  0  0  0  0  0  0  0  0  0  0  0
   -4.5140   -2.2270    0.2560 C   0  0  0  0  0  0  0  0  0  0  0  0
   -3.3920   -1.6750   -0.3380 C   0  0  0  0  0  0  0  0  0  0  0  0
   -0.3090    1.8450   -2.6310 C   0  0  0  0  0  0  0  0  0  0  0  0
   -0.9760    3.1970   -2.5060 C   0  0  0  0  0  0  0  0  0  0  0  0
   -0.4640    3.8430   -1.2440 C   0  0  0  0  0  0  0  0  0  0  0  0
    0.6940    2.9200   -0.8520 C   0  0  2  0  0  0  0  0  0  0  0  0
    1.8340    3.3850   -1.7400 C   0  0  0  0  0  0  0  0  0  0  0  0
    1.1030   -2.3690   -1.3300 C   0  0  0  0  0  0  0  0  0  0  0  0
    0.6190   -3.6850   -1.3680 C   0  0  0  0  0  0  0  0  0  0  0  0
  1  2  1  0
  2  3  1  0
  3  4  2  0
  3 40  1  0
  4  5  1  0
  5  6  2  0
  6  7  1  0
  6 39  1  0
  7  8  1  6
  7 20  1  0
  8  9  1  0
  9 10  1  0
 10 11  2  0
 10 12  1  0
 12 13  2  0
 12 19  1  0
 13 14  1  0
 14 15  1  1
 14 16  1  0
 16 17  2  0
 16 18  1  1
 18 19  2  0
 21 20  1  6
 21 22  1  0
 21 34  1  0
 21 37  1  0
 22 23  2  0
 22 24  1  0
 24 25  1  0
 25 26  2  0
 25 33  1  0
 26 27  1  0
 27 28  2  0
 28 29  1  0
 28 32  1  0
 29 30  1  1
 29 31  1  0
 32 33  2  0
 34 35  1  0
 35 36  1  0
 36 37  1  0
 37 38  1  6
 39 40  2  0
M  CHG  1  20   1
M  END
