
     RDKit          3D

 37 40  0  0  0  0  0  0  0  0999 V2000
   -7.6880   -4.0650    0.7000 C   0  0  0  0  0  0  0  0  0  0  0  0
   -6.5780   -4.3020    1.3340 C   0  0  0  0  0  0  0  0  0  0  0  0
   -5.3870   -3.4680    1.1660 C   0  0  0  0  0  0  0  0  0  0  0  0
   -4.2320   -3.7530    1.8810 C   0  0  0  0  0  0  0  0  0  0  0  0
   -3.0900   -2.9920    1.7510 C   0  0  0  0  0  0  0  0  0  0  0  0
   -3.0310   -1.9090    0.9050 C   0  0  0  0  0  0  0  0  0  0  0  0
   -1.8450   -1.0990    0.7250 N   0  0  2  0  0  0  0  0  0  0  0  0
   -0.7870   -1.7290    1.5120 C   0  0  0  0  0  0  0  0  0  0  0  0
    0.5710   -1.2210    1.2310 C   0  0  0  0  0  0  0  0  0  0  0  0
    1.5450   -1.7090    1.9190 O   0  0  0  0  0  0  0  0  0  0  0  0
    0.9120   -0.2500    0.2760 N   0  0  0  0  0  0  0  0  0  0  0  0
    2.2880    0.1660    0.1060 C   0  0  2  0  0  0  0  0  0  0  0  0
    2.4670    1.6380    0.4070 C   0  0  0  0  0  0  0  0  0  0  0  0
    2.8250   -0.1370   -1.2850 C   0  0  0  0  0  0  0  0  0  0  0  0
    4.2390    0.3270   -1.3580 C   0  0  0  0  0  0  0  0  0  0  0  0
    4.5780    1.5970   -1.7690 C   0  0  0  0  0  0  0  0  0  0  0  0
    5.8910    2.0020   -1.8260 C   0  0  0  0  0  0  0  0  0  0  0  0
    6.8600    1.0970   -1.4590 C   0  0  0  0  0  0  0  0  0  0  0  0
    6.5420   -0.1880   -1.0420 C   0  0  0  0  0  0  0  0  0  0  0  0
    7.6130   -1.1130   -0.6600 C   0  0  0  0  0  0  0  0  0  0  0  0
    8.8060   -0.7390   -0.7140 O   0  0  0  0  0  0  0  0  0  0  0  0
    7.3260   -2.3890   -0.2420 O   0  0  0  0  0  0  0  0  0  0  0  0
    8.4160   -3.2460    0.1190 C   0  0  0  0  0  0  0  0  0  0  0  0
    5.2220   -0.5690   -0.9940 C   0  0  0  0  0  0  0  0  0  0  0  0
   -2.0460    0.2100    1.2370 C   0  0  0  0  0  0  0  0  0  0  0  0
   -2.3050    1.3120    0.3010 C   0  0  0  0  0  0  0  0  0  0  0  0
   -2.3600    1.2210   -1.0700 C   0  0  0  0  0  0  0  0  0  0  0  0
   -2.5960    2.2990   -1.9090 C   0  0  0  0  0  0  0  0  0  0  0  0
   -2.7900    3.5320   -1.3610 C   0  0  0  0  0  0  0  0  0  0  0  0
   -2.7420    3.6610    0.0070 C   0  0  0  0  0  0  0  0  0  0  0  0
   -2.5080    2.5940    0.8280 C   0  0  0  0  0  0  0  0  0  0  0  0
   -2.4630    2.7440    2.2190 O   0  0  0  0  0  0  0  0  0  0  0  0
   -2.9690    5.0260    0.3460 O   0  0  0  0  0  0  0  0  0  0  0  0
   -3.7700    5.5440   -0.7270 C   0  0  0  0  0  0  0  0  0  0  0  0
   -3.0620    4.9000   -1.8980 C   0  0  0  0  0  0  0  0  0  0  0  0
   -4.1820   -1.6330    0.2000 C   0  0  0  0  0  0  0  0  0  0  0  0
   -5.3420   -2.3920    0.3210 C   0  0  0  0  0  0  0  0  0  0  0  0
  1  2  2  0
  2  3  1  0
  3  4  2  0
  3 37  1  0
  4  5  1  0
  5  6  2  0
  6  7  1  0
  6 36  1  0
  7  8  1  1
  7 25  1  0
  8  9  1  0
  9 10  2  0
  9 11  1  0
 11 12  1  0
 12 13  1  6
 12 14  1  0
 14 15  1  0
 15 16  2  0
 15 24  1  0
 16 17  1  0
 17 18  2  0
 18 19  1  0
 19 20  1  0
 19 24  2  0
 20 21  2  0
 20 22  1  0
 22 23  1  0
 25 26  1  0
 26 27  2  0
 26 31  1  0
 27 28  1  0
 28 29  2  0
 29 30  1  0
 29 35  1  0
 30 31  2  0
 30 33  1  0
 31 32  1  0
 33 34  1  0
 34 35  1  0
 36 37  2  0
M  CHG  1   7   1
M  END
