
     RDKit          3D

 37 40  0  0  0  0  0  0  0  0999 V2000
    4.8920   -3.2920    1.9040 C   0  0  0  0  0  0  0  0  0  0  0  0
    3.4280   -3.4850    1.6270 C   0  0  0  0  0  0  0  0  0  0  0  0
    2.8730   -2.5070    0.6270 C   0  0  2  0  0  0  0  0  0  0  0  0
    3.6250   -2.6890   -0.6600 C   0  0  0  0  0  0  0  0  0  0  0  0
    3.0980   -2.0140   -1.7320 O   0  0  0  0  0  0  0  0  0  0  0  0
    2.7830   -1.1640    1.0940 N   0  0  0  0  0  0  0  0  0  0  0  0
    3.3070   -0.1870    0.2100 C   0  0  0  0  0  0  0  0  0  0  0  0
    4.6590    0.0330    0.1840 C   0  0  0  0  0  0  0  0  0  0  0  0
    5.1860    0.9770   -0.6680 C   0  0  0  0  0  0  0  0  0  0  0  0
    4.3190    1.6800   -1.4780 C   0  0  0  0  0  0  0  0  0  0  0  0
    2.9640    1.4600   -1.4530 C   0  0  0  0  0  0  0  0  0  0  0  0
    2.4010    0.5100   -0.6000 C   0  0  0  0  0  0  0  0  0  0  0  0
    1.0080    0.1990   -0.6110 C   0  0  0  0  0  0  0  0  0  0  0  0
    0.0300    1.0690   -0.2090 C   0  0  0  0  0  0  0  0  0  0  0  0
    0.4530    2.3440    0.2540 C   0  0  0  0  0  0  0  0  0  0  0  0
    1.7480    2.4630    0.4960 O   0  0  0  0  0  0  0  0  0  0  0  0
   -0.2530    3.5770    0.5160 C   0  0  0  0  0  0  0  0  0  0  0  0
    0.2880    4.5200    1.4090 C   0  0  0  0  0  0  0  0  0  0  0  0
   -0.2430    5.7670    1.6030 C   0  0  0  0  0  0  0  0  0  0  0  0
   -1.3610    6.1710    0.9150 C   0  0  0  0  0  0  0  0  0  0  0  0
   -1.9190    5.2890    0.0370 C   0  0  0  0  0  0  0  0  0  0  0  0
   -1.3700    4.0260   -0.1500 C   0  0  0  0  0  0  0  0  0  0  0  0
   -3.0240    5.9050   -0.5350 O   0  0  0  0  0  0  0  0  0  0  0  0
   -2.8920    7.3120   -0.2890 C   0  0  0  0  0  0  0  0  0  0  0  0
   -2.1080    7.3630    0.9110 O   0  0  0  0  0  0  0  0  0  0  0  0
   -1.3130    0.5060   -0.2250 C   0  0  0  0  0  0  0  0  0  0  0  0
   -2.5660    1.0220    0.2130 C   0  0  0  0  0  0  0  0  0  0  0  0
   -3.6470    0.3210    0.0520 O   0  0  0  0  0  0  0  0  0  0  0  0
   -1.3560   -0.7280   -0.7570 N   0  0  0  0  0  0  0  0  0  0  0  0
   -2.5190   -1.4710   -0.8820 C   0  0  0  0  0  0  0  0  0  0  0  0
   -3.3140   -1.4230   -2.0210 C   0  0  0  0  0  0  0  0  0  0  0  0
   -4.4400   -2.1860   -2.0940 C   0  0  0  0  0  0  0  0  0  0  0  0
   -4.8380   -3.0190   -1.0740 C   0  0  0  0  0  0  0  0  0  0  0  0
   -6.0730   -3.8310   -1.2080 C   0  0  0  0  0  0  0  0  0  0  0  0
   -4.0640   -3.0800    0.0610 C   0  0  0  0  0  0  0  0  0  0  0  0
   -4.5030   -3.9850    1.1560 C   0  0  0  0  0  0  0  0  0  0  0  0
   -2.9310   -2.3160    0.1410 C   0  0  0  0  0  0  0  0  0  0  0  0
  1  2  1  0
  3  2  1  1
  3  4  1  0
  3  6  1  0
  4  5  1  0
  6  7  1  0
  7  8  2  0
  7 12  1  0
  8  9  1  0
  9 10  2  0
 10 11  1  0
 11 12  2  0
 12 13  1  0
 13 14  2  3
 14 15  1  0
 14 26  1  0
 15 16  2  0
 15 17  1  0
 17 18  2  0
 17 22  1  0
 18 19  1  0
 19 20  2  0
 20 21  1  0
 20 25  1  0
 21 22  2  0
 21 23  1  0
 23 24  1  0
 24 25  1  0
 26 27  1  0
 26 29  2  3
 27 28  2  0
 29 30  1  0
 30 31  2  0
 30 37  1  0
 31 32  1  0
 32 33  2  0
 33 34  1  0
 33 35  1  0
 35 36  1  0
 35 37  2  0
M  CHG  1   6   1
M  END
