
     RDKit          3D

 37 40  0  0  0  0  0  0  0  0999 V2000
   -1.8090   -3.8890    0.7380 C   0  0  0  0  0  0  0  0  0  0  0  0
   -0.9500   -2.7090    0.7400 C   0  0  0  0  0  0  0  0  0  0  0  0
    0.4140   -2.8480    0.6690 C   0  0  0  0  0  0  0  0  0  0  0  0
    1.1700   -1.7400    0.6740 N   0  0  0  0  0  0  0  0  0  0  0  0
    0.6530   -0.5040    0.7440 C   0  0  0  0  0  0  0  0  0  0  0  0
    1.4090    0.6740    0.7510 N   0  0  0  0  0  0  0  0  0  0  0  0
    2.8070    0.7040    0.6790 C   0  0  0  0  0  0  0  0  0  0  0  0
    3.4150    1.9460    0.9030 C   0  0  0  0  0  0  0  0  0  0  0  0
    4.7740    2.0930    0.8460 C   0  0  0  0  0  0  0  0  0  0  0  0
    5.6350    1.0250    0.5640 C   0  0  0  0  0  0  0  0  0  0  0  0
    7.0110    1.2420    0.5190 N   0  0  0  0  0  0  0  0  0  0  0  0
    8.0150    0.6120    1.3260 C   0  0  0  0  0  0  0  0  0  0  0  0
    8.8660   -0.2600    0.4420 C   0  0  0  0  0  0  0  0  0  0  0  0
    9.0920    0.3280   -0.8490 N   0  0  1  0  0  0  0  0  0  0  0  0
    8.2470   -0.3520   -1.8110 C   0  0  0  0  0  0  0  0  0  0  0  0
    8.8370    1.7220   -0.9210 C   0  0  0  0  0  0  0  0  0  0  0  0
    7.5330    2.2100   -0.4170 C   0  0  0  0  0  0  0  0  0  0  0  0
    5.0440   -0.1920    0.3440 C   0  0  0  0  0  0  0  0  0  0  0  0
    5.8330   -1.2440    0.0710 F   0  0  0  0  0  0  0  0  0  0  0  0
    3.6510   -0.3330    0.4040 C   0  0  0  0  0  0  0  0  0  0  0  0
   -0.6950   -0.4140    0.8120 N   0  0  0  0  0  0  0  0  0  0  0  0
   -1.5470   -1.4440    0.8160 C   0  0  0  0  0  0  0  0  0  0  0  0
   -2.9450   -1.3240    0.8910 N   0  0  0  0  0  0  0  0  0  0  0  0
   -3.7340   -0.1710    0.9690 C   0  0  0  0  0  0  0  0  0  0  0  0
   -3.1970    1.0870    0.9320 C   0  0  0  0  0  0  0  0  0  0  0  0
   -4.0050    2.2160    1.0150 C   0  0  0  0  0  0  0  0  0  0  0  0
   -5.3690    2.1370    1.1380 C   0  0  0  0  0  0  0  0  0  0  0  0
   -5.9040    0.8590    1.1740 C   0  0  0  0  0  0  0  0  0  0  0  0
   -7.3110    0.7390    1.3000 N   0  0  0  0  0  0  0  0  0  0  0  0
   -8.2050   -0.3520    0.3200 S   0  0  2  0  0  0  0  0  0  0  0  0
   -9.6410   -0.2950    0.7550 O   0  0  0  0  0  0  0  0  0  0  0  0
   -7.7540   -1.7700    0.5280 O   0  0  0  0  0  0  0  0  0  0  0  0
   -8.0660    0.0380   -1.4150 C   0  0  1  0  0  0  0  0  0  0  0  0
   -8.5880    1.4330   -1.6830 C   0  0  0  0  0  0  0  0  0  0  0  0
   -6.6190   -0.0580   -1.8520 C   0  0  0  0  0  0  0  0  0  0  0  0
   -8.9240   -0.9480   -2.1790 C   0  0  0  0  0  0  0  0  0  0  0  0
   -5.1200   -0.2480    1.0930 C   0  0  0  0  0  0  0  0  0  0  0  0
  1  2  1  0
  2  3  2  0
  2 22  1  0
  3  4  1  0
  4  5  2  0
  5  6  1  0
  5 21  1  0
  6  7  1  0
  7  8  2  0
  7 20  1  0
  8  9  1  0
  9 10  2  0
 10 11  1  0
 10 18  1  0
 11 12  1  0
 11 17  1  0
 12 13  1  0
 13 14  1  0
 14 15  1  6
 14 16  1  0
 16 17  1  0
 18 19  1  0
 18 20  2  0
 21 22  2  0
 22 23  1  0
 23 24  1  0
 24 25  2  0
 24 37  1  0
 25 26  1  0
 26 27  2  0
 27 28  1  0
 28 29  1  0
 28 37  2  0
 30 29  1  1
 30 31  2  0
 30 32  2  0
 30 33  1  0
 33 34  1  1
 33 35  1  0
 33 36  1  0
M  CHG  1  14   1
M  END
