
     RDKit          3D

 33 36  0  0  0  0  0  0  0  0999 V2000
   -5.0970    4.4460   -1.8050 C   0  0  0  0  0  0  0  0  0  0  0  0
   -4.5610    3.3560   -1.2830 C   0  0  0  0  0  0  0  0  0  0  0  0
   -3.1760    3.1540   -1.3830 C   0  0  0  0  0  0  0  0  0  0  0  0
   -2.5800    2.0360   -0.8540 C   0  0  0  0  0  0  0  0  0  0  0  0
   -3.2880    1.0540   -0.2010 C   0  0  0  0  0  0  0  0  0  0  0  0
   -2.6540   -0.0950    0.3380 N   0  0  0  0  0  0  0  0  0  0  0  0
   -1.2310   -0.2320    0.1600 C   0  0  0  0  0  0  0  0  0  0  0  0
   -0.6630   -1.4800    0.7500 C   0  0  2  0  0  0  0  0  0  0  0  0
    0.4860   -2.0340   -0.0600 C   0  0  2  0  0  0  0  0  0  0  0  0
    1.0370   -3.2230    0.6620 C   0  0  0  0  0  0  0  0  0  0  0  0
    2.1390   -2.9190    1.6160 C   0  0  0  0  0  0  0  0  0  0  0  0
    3.4530   -3.0650    0.8780 C   0  0  0  0  0  0  0  0  0  0  0  0
    3.7700   -1.8870    0.0240 C   0  0  0  0  0  0  0  0  0  0  0  0
    2.6510   -1.4330   -0.8770 C   0  0  2  0  0  0  0  0  0  0  0  0
    3.2200   -0.4610   -1.8680 C   0  0  0  0  0  0  0  0  0  0  0  0
    3.8760    0.7480   -1.3180 C   0  0  2  0  0  0  0  0  0  0  0  0
    3.0210    1.6560   -0.4890 C   0  0  0  0  0  0  0  0  0  0  0  0
    4.5170    1.5520   -2.3510 N   0  0  0  0  0  0  0  0  0  0  0  0
    5.9100    1.8100   -2.0700 C   0  0  2  0  0  0  0  0  0  0  0  0
    6.4040    1.9300   -0.6820 C   0  0  0  0  0  0  0  0  0  0  0  0
    6.3190    3.1740   -1.5590 C   0  0  0  0  0  0  0  0  0  0  0  0
    1.4760   -0.9690   -0.2430 N   0  0  0  0  0  0  0  0  0  0  0  0
   -1.6540   -2.4820    0.9560 O   0  0  0  0  0  0  0  0  0  0  0  0
   -2.9440   -2.2010    1.3160 C   0  0  0  0  0  0  0  0  0  0  0  0
   -3.7750   -3.1950    2.0340 C   0  0  0  0  0  0  0  0  0  0  0  0
   -5.0580   -2.7040    2.3630 O   0  0  0  0  0  0  0  0  0  0  0  0
   -5.1640   -1.6050    3.1760 C   0  0  0  0  0  0  0  0  0  0  0  0
   -6.4570   -0.9900    3.5950 C   0  0  0  0  0  0  0  0  0  0  0  0
   -4.1130   -1.0690    3.6060 O   0  0  0  0  0  0  0  0  0  0  0  0
   -3.4350   -1.0590    1.0250 N   0  0  0  0  0  0  0  0  0  0  0  0
   -4.6430    1.2450   -0.0990 C   0  0  0  0  0  0  0  0  0  0  0  0
   -5.2780    2.3800   -0.6310 C   0  0  0  0  0  0  0  0  0  0  0  0
   -6.5870    2.4950   -0.4940 C   0  0  0  0  0  0  0  0  0  0  0  0
  1  2  2  0
  2  3  1  0
  2 32  1  0
  3  4  2  0
  4  5  1  0
  5  6  1  0
  5 31  2  0
  6  7  1  0
  6 30  1  0
  8  7  1  6
  8  9  1  0
  8 23  1  0
  9 10  1  1
  9 22  1  0
 10 11  1  0
 11 12  1  0
 12 13  1  0
 13 14  1  0
 14 15  1  1
 14 22  1  0
 15 16  1  0
 16 17  1  6
 16 18  1  0
 19 18  1  1
 19 20  1  0
 19 21  1  0
 20 21  1  0
 23 24  1  0
 24 25  1  0
 24 30  2  0
 25 26  1  0
 26 27  1  0
 27 28  1  0
 27 29  2  0
 31 32  1  0
 32 33  2  0
M  CHG  2  18   1  22   1
M  END
