
     RDKit          3D

 33 36  0  0  0  0  0  0  0  0999 V2000
   -2.1880   -2.3080   -2.0590 C   0  0  0  0  0  0  0  0  0  0  0  0
   -1.3190   -1.2230   -1.8020 O   0  0  0  0  0  0  0  0  0  0  0  0
   -1.7590   -0.2450   -0.9080 C   0  0  0  0  0  0  0  0  0  0  0  0
   -3.0210   -0.3470   -0.2910 C   0  0  0  0  0  0  0  0  0  0  0  0
   -3.5030    0.5790    0.5910 C   0  0  0  0  0  0  0  0  0  0  0  0
   -4.7640    0.5610    1.2530 C   0  0  0  0  0  0  0  0  0  0  0  0
   -4.9520    1.5850    2.0830 O   0  0  0  0  0  0  0  0  0  0  0  0
   -5.8270   -0.3150    1.1990 N   0  0  0  0  0  0  0  0  0  0  0  0
   -5.9670   -1.4900    0.4280 C   0  0  0  0  0  0  0  0  0  0  0  0
   -6.3990   -1.3190   -0.9900 C   0  0  0  0  0  0  0  0  0  0  0  0
   -7.6340   -0.4570   -1.1340 C   0  0  0  0  0  0  0  0  0  0  0  0
   -7.6890    0.6560   -0.1480 C   0  0  0  0  0  0  0  0  0  0  0  0
   -8.1320    0.3620    1.2190 C   0  0  1  0  0  0  0  0  0  0  0  0
   -9.2370   -0.6410    1.3720 C   0  0  0  0  0  0  0  0  0  0  0  0
   -6.9670    0.0880    2.1230 C   0  0  0  0  0  0  0  0  0  0  0  0
   -2.6060    1.6560    0.8280 C   0  0  0  0  0  0  0  0  0  0  0  0
   -1.3810    1.7630    0.2360 C   0  0  0  0  0  0  0  0  0  0  0  0
   -0.9370    0.8150   -0.6420 C   0  0  0  0  0  0  0  0  0  0  0  0
    0.2910    0.8670   -1.2740 O   0  0  0  0  0  0  0  0  0  0  0  0
    1.1510    1.9430   -1.0140 C   0  0  0  0  0  0  0  0  0  0  0  0
    2.3950    1.7140   -1.8570 C   0  0  0  0  0  0  0  0  0  0  0  0
    3.0710    0.4780   -1.5460 N   0  0  0  0  0  0  0  0  0  0  0  0
    3.6860    0.4530   -0.2340 C   0  0  2  0  0  0  0  0  0  0  0  0
    4.7300    1.5040   -0.2000 C   0  0  0  0  0  0  0  0  0  0  0  0
    5.7650    1.4390    0.9100 C   0  0  1  0  0  0  0  0  0  0  0  0
    5.5590    0.0900    1.5140 C   0  0  0  0  0  0  0  0  0  0  0  0
    5.5920   -0.8000    0.2760 C   0  0  2  0  0  0  0  0  0  0  0  0
    4.1900   -0.9950   -0.0640 C   0  0  0  0  0  0  0  0  0  0  0  0
    6.5500   -1.7650    0.5210 N   0  0  0  0  0  0  0  0  0  0  0  0
    7.8380   -1.0790    0.3970 C   0  0  1  0  0  0  0  0  0  0  0  0
    8.3240   -1.2010   -1.0550 C   0  0  0  0  0  0  0  0  0  0  0  0
    7.9400    0.3120    0.8120 C   0  0  0  0  0  0  0  0  0  0  0  0
    7.1140    1.3320    0.3220 N   0  0  0  0  0  0  0  0  0  0  0  0
  1  2  1  0
  2  3  1  0
  3  4  2  0
  3 18  1  0
  4  5  1  0
  5  6  1  0
  5 16  2  0
  6  7  2  0
  6  8  1  0
  8  9  1  0
  8 15  1  0
  9 10  1  0
 10 11  1  0
 11 12  1  0
 12 13  1  0
 13 14  1  6
 13 15  1  0
 16 17  1  0
 17 18  2  0
 18 19  1  0
 19 20  1  0
 20 21  1  0
 21 22  1  0
 23 22  1  6
 23 24  1  0
 23 28  1  0
 25 24  1  6
 25 26  1  0
 25 33  1  0
 26 27  1  0
 27 28  1  1
 27 29  1  0
 29 30  1  0
 30 31  1  6
 30 32  1  0
 32 33  1  0
M  CHG  2  29   1  33   1
M  END
