
     RDKit          3D

 41 44  0  0  0  0  0  0  0  0999 V2000
    3.0200    4.3040   -0.9980 C   0  0  0  0  0  0  0  0  0  0  0  0
    2.2960    3.0840   -1.4310 C   0  0  0  0  0  0  0  0  0  0  0  0
    2.6820    1.8900   -1.0440 C   0  0  0  0  0  0  0  0  0  0  0  0
    3.8230    1.6320   -0.1780 C   0  0  0  0  0  0  0  0  0  0  0  0
    4.4560    2.6300    0.2120 O   0  0  0  0  0  0  0  0  0  0  0  0
    4.1340    0.2680    0.1620 C   0  0  1  0  0  0  0  0  0  0  0  0
    3.8990   -0.7850   -0.8960 C   0  0  0  0  0  0  0  0  0  0  0  0
    3.3070   -1.9870   -0.3060 N   0  0  0  0  0  0  0  0  0  0  0  0
    2.3890   -2.6670   -1.1330 C   0  0  0  0  0  0  0  0  0  0  0  0
    0.9800   -2.2490   -0.9920 C   0  0  0  0  0  0  0  0  0  0  0  0
   -0.0610   -2.4710   -1.3970 N   0  0  0  0  0  0  0  0  0  0  0  0
   -1.2480   -1.9220   -1.0850 C   0  0  0  0  0  0  0  0  0  0  0  0
   -2.4570   -2.4460   -1.7890 C   0  0  0  0  0  0  0  0  0  0  0  0
   -2.3060   -2.7950   -3.2240 C   0  0  0  0  0  0  0  0  0  0  0  0
   -3.5630   -2.5560   -1.1580 C   0  0  0  0  0  0  0  0  0  0  0  0
   -4.8860   -3.0070   -1.5330 C   0  0  0  0  0  0  0  0  0  0  0  0
   -5.0890   -3.4640   -2.9260 C   0  0  0  0  0  0  0  0  0  0  0  0
   -1.2460   -0.9760   -0.1820 C   0  0  0  0  0  0  0  0  0  0  0  0
   -2.1200   -0.0180    0.5130 C   0  0  0  0  0  0  0  0  0  0  0  0
   -1.5860    0.6300    1.5070 O   0  0  0  0  0  0  0  0  0  0  0  0
   -3.4450    0.3150    0.2610 N   0  0  0  0  0  0  0  0  0  0  0  0
   -4.1050    1.2920    1.0630 C   0  0  0  0  0  0  0  0  0  0  0  0
   -3.4670    1.8940    2.0570 N   0  0  0  0  0  0  0  0  0  0  0  0
   -4.1060    2.8240    2.8150 C   0  0  0  0  0  0  0  0  0  0  0  0
   -3.3220    3.4560    3.9070 C   0  0  0  0  0  0  0  0  0  0  0  0
   -5.4210    3.1260    2.5310 C   0  0  0  0  0  0  0  0  0  0  0  0
   -6.2280    4.3360    3.5300 Cl  0  0  0  0  0  0  0  0  0  0  0  0
   -6.0850    2.5040    1.5020 C   0  0  0  0  0  0  0  0  0  0  0  0
   -7.4410    2.8260    1.2210 N   0  0  0  0  0  0  0  0  0  0  0  0
   -5.3990    1.5970    0.7930 N   0  0  0  0  0  0  0  0  0  0  0  0
    0.5430   -0.8890    0.2410 S   0  0  0  0  0  0  0  0  0  0  0  0
    3.5490   -2.5450    0.9790 C   0  0  0  0  0  0  0  0  0  0  0  0
    2.7470   -3.4190    1.3050 O   0  0  0  0  0  0  0  0  0  0  0  0
    4.5950   -2.2180    1.9230 N   0  0  0  0  0  0  0  0  0  0  0  0
    5.5440   -1.1500    1.7070 C   0  0  0  0  0  0  0  0  0  0  0  0
    6.7080   -1.3740    2.3780 C   0  0  0  0  0  0  0  0  0  0  0  0
    7.7500   -0.4830    2.2560 C   0  0  0  0  0  0  0  0  0  0  0  0
    7.5960    0.6250    1.4530 C   0  0  0  0  0  0  0  0  0  0  0  0
    8.6260    1.4920    1.3420 F   0  0  0  0  0  0  0  0  0  0  0  0
    6.4120    0.8860    0.7490 C   0  0  0  0  0  0  0  0  0  0  0  0
    5.3870   -0.0120    0.8870 C   0  0  0  0  0  0  0  0  0  0  0  0
  1  2  1  0
  2  3  2  3
  3  4  1  0
  4  5  2  0
  6  4  1  6
  6  7  1  0
  6 41  1  0
  7  8  1  0
  8  9  1  0
  8 32  1  0
  9 10  1  0
 10 11  2  0
 10 31  1  0
 11 12  1  0
 12 13  1  0
 12 18  2  0
 13 14  1  0
 13 15  2  3
 15 16  1  0
 16 17  1  0
 18 19  1  0
 18 31  1  0
 19 20  2  0
 19 21  1  0
 21 22  1  0
 22 23  2  0
 22 30  1  0
 23 24  1  0
 24 25  1  0
 24 26  2  0
 26 27  1  0
 26 28  1  0
 28 29  1  0
 28 30  2  0
 32 33  2  0
 32 34  1  0
 34 35  1  0
 35 36  2  0
 35 41  1  0
 36 37  1  0
 37 38  2  0
 38 39  1  0
 38 40  1  0
 40 41  2  0
M  CHG  1  29   1
M  END
