
     RDKit          3D

 41 44  0  0  0  0  0  0  0  0999 V2000
  -11.2080   -2.3580   -0.3300 C   0  0  0  0  0  0  0  0  0  0  0  0
  -10.2940   -1.7730   -1.4160 C   0  0  1  0  0  0  0  0  0  0  0  0
  -11.0930   -1.7830   -2.6930 C   0  0  0  0  0  0  0  0  0  0  0  0
  -10.0100   -0.4130   -1.0010 N   0  0  0  0  0  0  0  0  0  0  0  0
   -8.6920    0.0160   -0.6630 C   0  0  0  0  0  0  0  0  0  0  0  0
   -7.7920   -0.8320   -0.7400 O   0  0  0  0  0  0  0  0  0  0  0  0
   -8.3900    1.3280   -0.2580 N   0  0  0  0  0  0  0  0  0  0  0  0
   -7.1310    1.8530    0.0960 C   0  0  0  0  0  0  0  0  0  0  0  0
   -5.9560    1.1420    0.1080 C   0  0  0  0  0  0  0  0  0  0  0  0
   -4.7380    1.7380    0.4760 C   0  0  0  0  0  0  0  0  0  0  0  0
   -3.4650    1.2120    0.5540 C   0  0  0  0  0  0  0  0  0  0  0  0
   -3.0870   -0.1990    0.2440 C   0  0  0  0  0  0  0  0  0  0  0  0
   -1.6900   -0.3270    0.4520 N   0  0  0  0  0  0  0  0  0  0  0  0
   -0.8270    0.4810   -0.3080 C   0  0  0  0  0  0  0  0  0  0  0  0
    0.3360   -0.2600   -0.9290 C   0  0  0  0  0  0  0  0  0  0  0  0
    1.0110   -1.1660    0.0790 C   0  0  1  0  0  0  0  0  0  0  0  0
    1.4950   -0.3780    1.2560 C   0  0  1  0  0  0  0  0  0  0  0  0
    2.1730   -1.2240    2.3020 C   0  0  0  0  0  0  0  0  0  0  0  0
    2.3390    0.7020    0.8200 N   0  0  0  0  0  0  0  0  0  0  0  0
    3.6560    0.2850    0.4200 C   0  0  2  0  0  0  0  0  0  0  0  0
    4.6370    1.2780    1.0590 C   0  0  0  0  0  0  0  0  0  0  0  0
    6.0600    0.8940    0.7750 C   0  0  0  0  0  0  0  0  0  0  0  0
    6.2620    0.1610   -0.4120 N   0  0  0  0  0  0  0  0  0  0  0  0
    7.0570   -1.3190   -0.2620 S   0  0  1  0  0  0  0  0  0  0  0  0
    6.3420   -2.2520    0.6730 O   0  0  0  0  0  0  0  0  0  0  0  0
    7.1950   -1.9520   -1.6160 O   0  0  0  0  0  0  0  0  0  0  0  0
    8.6950   -1.0820    0.3830 C   0  0  0  0  0  0  0  0  0  0  0  0
    9.5290   -0.2050   -0.5060 C   0  0  0  0  0  0  0  0  0  0  0  0
   10.8940   -0.0670    0.1270 C   0  0  0  0  0  0  0  0  0  0  0  0
   11.7790    0.8160   -0.7360 C   0  0  0  0  0  0  0  0  0  0  0  0
   11.9490    0.3060   -1.9900 F   0  0  0  0  0  0  0  0  0  0  0  0
    5.3140    0.2800   -1.4420 C   0  0  0  0  0  0  0  0  0  0  0  0
    3.8880    0.4200   -1.0730 C   0  0  0  0  0  0  0  0  0  0  0  0
   -0.0790   -2.1600    0.4540 C   0  0  0  0  0  0  0  0  0  0  0  0
   -1.2050   -1.4320    1.1570 C   0  0  0  0  0  0  0  0  0  0  0  0
   -2.6720    2.2130    0.9570 N   0  0  0  0  0  0  0  0  0  0  0  0
   -3.3740    3.3200    1.1310 N   0  0  0  0  0  0  0  0  0  0  0  0
   -4.6610    3.0630    0.8420 C   0  0  0  0  0  0  0  0  0  0  0  0
   -5.8320    3.7770    0.8310 C   0  0  0  0  0  0  0  0  0  0  0  0
   -7.0240    3.1890    0.4700 C   0  0  0  0  0  0  0  0  0  0  0  0
   -8.4970    4.1420    0.4710 Cl  0  0  0  0  0  0  0  0  0  0  0  0
  2  1  1  1
  2  3  1  0
  2  4  1  0
  4  5  1  0
  5  6  2  0
  5  7  1  0
  7  8  1  0
  8  9  2  0
  8 40  1  0
  9 10  1  0
 10 11  1  0
 10 38  2  0
 11 12  1  0
 11 36  2  0
 12 13  1  0
 13 14  1  0
 13 35  1  0
 14 15  1  0
 16 15  1  6
 16 17  1  0
 16 34  1  0
 17 18  1  1
 17 19  1  0
 20 19  1  6
 20 21  1  0
 20 33  1  0
 21 22  1  0
 22 23  1  0
 23 24  1  0
 23 32  1  0
 24 25  2  0
 24 26  2  0
 24 27  1  1
 27 28  1  0
 28 29  1  0
 29 30  1  0
 30 31  1  0
 32 33  1  0
 34 35  1  0
 36 37  1  0
 37 38  1  0
 38 39  1  0
 39 40  2  0
 40 41  1  0
M  CHG  1  19   1
M  END
