
     RDKit          3D

 41 44  0  0  0  0  0  0  0  0999 V2000
   -3.3250   -3.3150   -1.0260 C   0  0  0  0  0  0  0  0  0  0  0  0
   -2.3640   -2.2160   -0.7550 C   0  0  0  0  0  0  0  0  0  0  0  0
   -1.0040   -2.4070   -0.7860 C   0  0  0  0  0  0  0  0  0  0  0  0
   -0.1620   -1.4210   -0.5430 N   0  0  0  0  0  0  0  0  0  0  0  0
   -0.5990   -0.1910   -0.2550 C   0  0  0  0  0  0  0  0  0  0  0  0
    0.2480    0.9190    0.0140 N   0  0  0  0  0  0  0  0  0  0  0  0
    1.6620    0.9060    0.0260 C   0  0  0  0  0  0  0  0  0  0  0  0
    2.3050    2.1500    0.1430 C   0  0  0  0  0  0  0  0  0  0  0  0
    3.6600    2.1770    0.1650 C   0  0  0  0  0  0  0  0  0  0  0  0
    4.4930    1.0620    0.0800 C   0  0  0  0  0  0  0  0  0  0  0  0
    5.9350    1.2380    0.1210 C   0  0  0  0  0  0  0  0  0  0  0  0
    6.3700    2.4320    0.1470 O   0  0  0  0  0  0  0  0  0  0  0  0
    6.9130    0.2430    0.1380 N   0  0  0  0  0  0  0  0  0  0  0  0
    8.3320    0.5300    0.1780 C   0  0  2  0  0  0  0  0  0  0  0  0
    8.9940   -0.0790   -1.0440 C   0  0  0  0  0  0  0  0  0  0  0  0
   10.4570    0.2020   -1.0630 C   0  0  0  0  0  0  0  0  0  0  0  0
   11.1450   -0.0650    0.1570 N   0  0  2  0  0  0  0  0  0  0  0  0
   11.4900   -1.4460    0.3620 C   0  0  0  0  0  0  0  0  0  0  0  0
   10.4590    0.3990    1.3400 C   0  0  0  0  0  0  0  0  0  0  0  0
    9.0160   -0.0910    1.3720 C   0  0  0  0  0  0  0  0  0  0  0  0
    3.8420   -0.1400   -0.0340 C   0  0  0  0  0  0  0  0  0  0  0  0
    4.5750   -1.2730   -0.1260 F   0  0  0  0  0  0  0  0  0  0  0  0
    2.4380   -0.2240   -0.0610 C   0  0  0  0  0  0  0  0  0  0  0  0
   -1.9400   -0.0090   -0.2260 N   0  0  0  0  0  0  0  0  0  0  0  0
   -2.8600   -0.9350   -0.4560 C   0  0  0  0  0  0  0  0  0  0  0  0
   -4.2600   -0.7520   -0.4450 N   0  0  0  0  0  0  0  0  0  0  0  0
   -4.8610    0.4830   -0.1420 C   0  0  0  0  0  0  0  0  0  0  0  0
   -4.2610    1.5680    0.4430 C   0  0  0  0  0  0  0  0  0  0  0  0
   -4.9500    2.7630    0.6840 C   0  0  0  0  0  0  0  0  0  0  0  0
   -6.2620    2.8620    0.3290 C   0  0  0  0  0  0  0  0  0  0  0  0
   -7.1700    4.3440    0.6100 Cl  0  0  0  0  0  0  0  0  0  0  0  0
   -6.9010    1.7850   -0.2640 C   0  0  0  0  0  0  0  0  0  0  0  0
   -8.2590    1.9310   -0.6460 N   0  0  0  0  0  0  0  0  0  0  0  0
   -9.5500    1.1940    0.1520 S   0  0  2  0  0  0  0  0  0  0  0  0
  -10.8510    1.6860   -0.4450 O   0  0  0  0  0  0  0  0  0  0  0  0
   -9.5350    1.6560    1.6110 O   0  0  0  0  0  0  0  0  0  0  0  0
   -9.5630   -0.5550    0.1930 C   0  0  1  0  0  0  0  0  0  0  0  0
   -9.5550   -1.1880   -1.1820 C   0  0  0  0  0  0  0  0  0  0  0  0
   -8.4880   -1.1740    1.0320 C   0  0  0  0  0  0  0  0  0  0  0  0
  -10.9070   -0.9900    0.8260 C   0  0  0  0  0  0  0  0  0  0  0  0
   -6.2080    0.6290   -0.4910 C   0  0  0  0  0  0  0  0  0  0  0  0
  1  2  1  0
  2  3  2  0
  2 25  1  0
  3  4  1  0
  4  5  2  0
  5  6  1  0
  5 24  1  0
  6  7  1  0
  7  8  2  0
  7 23  1  0
  8  9  1  0
  9 10  2  0
 10 11  1  0
 10 21  1  0
 11 12  2  0
 11 13  1  0
 14 13  1  1
 14 15  1  0
 14 20  1  0
 15 16  1  0
 16 17  1  0
 17 18  1  1
 17 19  1  0
 19 20  1  0
 21 22  1  0
 21 23  2  0
 24 25  2  0
 25 26  1  0
 26 27  1  0
 27 28  2  0
 27 41  1  0
 28 29  1  0
 29 30  2  0
 30 31  1  0
 30 32  1  0
 32 33  1  0
 32 41  2  0
 34 33  1  6
 34 35  2  0
 34 36  2  0
 34 37  1  0
 37 38  1  6
 37 39  1  0
 37 40  1  0
M  CHG  1  17   1
M  END
