
     RDKit          3D

 41 44  0  0  0  0  0  0  0  0999 V2000
   -2.4220    1.8070   -1.8360 C   0  0  0  0  0  0  0  0  0  0  0  0
   -2.5960    0.3440   -1.4370 C   0  0  2  0  0  0  0  0  0  0  0  0
   -4.0150   -0.0430   -1.2970 C   0  0  0  0  0  0  0  0  0  0  0  0
   -4.5990    0.5190   -0.1280 N   0  0  0  0  0  0  0  0  0  0  0  0
   -6.0120    0.6690   -0.0570 C   0  0  0  0  0  0  0  0  0  0  0  0
   -6.7210    1.3300    1.2820 S   0  0  0  0  0  0  0  0  0  0  0  0
   -6.8140    0.2520   -1.1380 N   0  0  0  0  0  0  0  0  0  0  0  0
   -8.2250    0.4200   -1.0490 C   0  0  0  0  0  0  0  0  0  0  0  0
   -8.7290    0.5850    0.1240 N   0  0  0  0  0  0  0  0  0  0  0  0
  -10.1120    0.7580    0.2970 C   0  0  0  0  0  0  0  0  0  0  0  0
  -10.5730    0.9300    1.5940 C   0  0  0  0  0  0  0  0  0  0  0  0
  -11.9040    1.1030    1.8160 C   0  0  0  0  0  0  0  0  0  0  0  0
  -12.7560    1.1000    0.7230 C   0  0  0  0  0  0  0  0  0  0  0  0
  -12.3010    0.9300   -0.5690 C   0  0  0  0  0  0  0  0  0  0  0  0
  -10.9630    0.7550   -0.7950 C   0  0  0  0  0  0  0  0  0  0  0  0
  -10.4060    0.5740   -2.0890 N   0  0  0  0  0  0  0  0  0  0  0  0
   -9.0440    0.4110   -2.1730 O   0  0  0  0  0  0  0  0  0  0  0  0
   -3.8600    0.9510    1.0350 C   0  0  0  0  0  0  0  0  0  0  0  0
   -2.4030    0.7830    1.0110 C   0  0  0  0  0  0  0  0  0  0  0  0
   -1.7990    0.1330   -0.1980 C   0  0  1  0  0  0  0  0  0  0  0  0
   -1.4350   -1.2180    0.0970 N   0  0  0  0  0  0  0  0  0  0  0  0
   -2.5120   -2.1930    0.4290 C   0  0  0  0  0  0  0  0  0  0  0  0
   -0.1270   -1.7730    0.1280 C   0  0  0  0  0  0  0  0  0  0  0  0
    0.0070   -3.0280    0.4170 O   0  0  0  0  0  0  0  0  0  0  0  0
    1.0030   -1.0000   -0.1430 N   0  0  0  0  0  0  0  0  0  0  0  0
    2.3540   -1.4570   -0.1370 C   0  0  0  0  0  0  0  0  0  0  0  0
    2.7610   -2.7340    0.1160 C   0  0  0  0  0  0  0  0  0  0  0  0
    4.1260   -3.0910    0.0980 C   0  0  0  0  0  0  0  0  0  0  0  0
    5.1170   -2.1870   -0.1730 C   0  0  0  0  0  0  0  0  0  0  0  0
    6.4800   -2.5820   -0.1860 N   0  0  0  0  0  0  0  0  0  0  0  0
    7.3700   -1.4630   -0.3790 C   0  0  0  0  0  0  0  0  0  0  0  0
    8.8080   -1.9130   -0.4050 C   0  0  0  0  0  0  0  0  0  0  0  0
    9.7020   -0.8860   -0.5880 O   0  0  0  0  0  0  0  0  0  0  0  0
    9.6770    0.0900    0.3820 C   0  0  0  0  0  0  0  0  0  0  0  0
   10.6840    1.1900    0.1160 C   0  0  0  0  0  0  0  0  0  0  0  0
   10.5550    2.1930    1.2610 C   0  0  0  0  0  0  0  0  0  0  0  0
   11.5570    3.3020    1.0030 C   0  0  0  0  0  0  0  0  0  0  0  0
   11.5010    4.2490    1.9920 F   0  0  0  0  0  0  0  0  0  0  0  0
    4.7160   -0.8870   -0.4320 C   0  0  0  0  0  0  0  0  0  0  0  0
    3.3840   -0.5510   -0.4110 C   0  0  0  0  0  0  0  0  0  0  0  0
    2.9040    1.1150   -0.7450 Cl  0  0  0  0  0  0  0  0  0  0  0  0
  2  1  1  1
  2  3  1  0
  2 20  1  0
  3  4  1  0
  4  5  1  0
  4 18  1  0
  5  6  2  0
  5  7  1  0
  7  8  1  0
  8  9  2  0
  8 17  1  0
  9 10  1  0
 10 11  2  0
 10 15  1  0
 11 12  1  0
 12 13  2  0
 13 14  1  0
 14 15  2  0
 15 16  1  0
 16 17  1  0
 18 19  1  0
 19 20  1  0
 20 21  1  1
 21 22  1  0
 21 23  1  0
 23 24  2  0
 23 25  1  0
 25 26  1  0
 26 27  2  0
 26 40  1  0
 27 28  1  0
 28 29  2  0
 29 30  1  0
 29 39  1  0
 30 31  1  0
 31 32  1  0
 32 33  1  0
 33 34  1  0
 34 35  1  0
 35 36  1  0
 36 37  1  0
 37 38  1  0
 39 40  2  0
 40 41  1  0
M  CHG  1  30   1
M  END
