
     RDKit          3D

 23 25  0  0  0  0  0  0  0  0999 V2000
    5.8330    0.5930    2.2570 N   0  0  0  0  0  0  0  0  0  0  0  0
    4.7770   -0.0540    1.5240 C   0  0  0  0  0  0  0  0  0  0  0  0
    4.9280   -1.2640    0.9750 N   0  0  0  0  0  0  0  0  0  0  0  0
    3.9900   -1.8620    0.2320 C   0  0  0  0  0  0  0  0  0  0  0  0
    2.8540   -1.2180    0.0260 N   0  0  0  0  0  0  0  0  0  0  0  0
    2.6110   -0.0100    0.5400 C   0  0  0  0  0  0  0  0  0  0  0  0
    3.5870    0.6000    1.3130 C   0  0  0  0  0  0  0  0  0  0  0  0
    3.1510    1.7850    1.7440 N   0  0  0  0  0  0  0  0  0  0  0  0
    1.9020    1.9110    1.2400 C   0  0  0  0  0  0  0  0  0  0  0  0
    1.5690    0.8510    0.5210 N   0  0  0  0  0  0  0  0  0  0  0  0
    0.3710    0.6020   -0.1750 C   0  0  2  0  0  0  0  0  0  0  0  0
   -0.3870   -0.4830    0.3940 O   0  0  0  0  0  0  0  0  0  0  0  0
   -1.3610   -0.5370   -0.5800 C   0  0  2  0  0  0  0  0  0  0  0  0
   -2.6300   -1.2400   -0.2370 C   0  0  0  0  0  0  0  0  0  0  0  0
   -3.0200   -0.5300    0.9100 O   0  0  0  0  0  0  0  0  0  0  0  0
   -4.2850    0.4720    0.7790 P   0  0  0  0  0  0  0  0  0  0  0  0
   -4.7920   -0.1090   -0.5030 O   0  0  0  0  0  0  0  0  0  0  0  0
   -3.9560    2.0100    0.2250 O   0  0  0  0  0  0  0  0  0  0  0  0
   -5.7620    0.2480    1.4970 O   0  0  0  0  0  0  0  0  0  0  0  0
   -0.5980   -0.8800   -1.7880 C   0  0  1  0  0  0  0  0  0  0  0  0
   -1.2860   -0.5330   -2.9650 O   0  0  0  0  0  0  0  0  0  0  0  0
    0.5420    0.1630   -1.6270 C   0  0  1  0  0  0  0  0  0  0  0  0
    0.2360    1.2440   -2.4190 O   0  0  0  0  0  0  0  0  0  0  0  0
  1  2  1  0
  2  3  2  0
  2  7  1  0
  3  4  1  0
  4  5  2  0
  5  6  1  0
  6  7  2  0
  6 10  1  0
  7  8  1  0
  8  9  2  0
  9 10  1  0
 11 10  1  1
 11 12  1  0
 11 22  1  0
 12 13  1  0
 13 14  1  1
 13 20  1  0
 14 15  1  0
 15 16  1  0
 16 17  1  0
 16 18  1  0
 16 19  1  0
 20 21  1  6
 20 22  1  0
 22 23  1  6
M  END
