
     RDKit          3D

 13 14  0  0  0  0  0  0  0  0999 V2000
   -3.4690   -1.1770   -0.6830 N   0  0  0  0  0  0  0  0  0  0  0  0
   -2.4450   -0.3090   -0.2330 C   0  0  0  0  0  0  0  0  0  0  0  0
   -2.7990    0.8730    0.3840 C   0  0  0  0  0  0  0  0  0  0  0  0
   -1.8280    1.7610    0.8450 C   0  0  0  0  0  0  0  0  0  0  0  0
   -0.5480    1.4400    0.6740 N   0  0  0  0  0  0  0  0  0  0  0  0
   -0.1880    0.3040    0.0810 C   0  0  0  0  0  0  0  0  0  0  0  0
    1.2490   -0.0260   -0.0940 C   0  0  0  0  0  0  0  0  0  0  0  0
    2.2140    0.8300    0.3500 C   0  0  0  0  0  0  0  0  0  0  0  0
    3.5780    0.5650    0.2080 C   0  0  0  0  0  0  0  0  0  0  0  0
    3.9110   -0.5820   -0.3900 N   0  0  0  0  0  0  0  0  0  0  0  0
    2.9900   -1.4500   -0.8410 C   0  0  0  0  0  0  0  0  0  0  0  0
    1.6270   -1.2000   -0.7070 C   0  0  0  0  0  0  0  0  0  0  0  0
   -1.1310   -0.5390   -0.3560 N   0  0  0  0  0  0  0  0  0  0  0  0
  1  2  1  0
  2  3  2  0
  2 13  1  0
  3  4  1  0
  4  5  2  0
  5  6  1  0
  6  7  1  0
  6 13  2  0
  7  8  2  0
  7 12  1  0
  8  9  1  0
  9 10  2  0
 10 11  1  0
 11 12  2  0
M  END
