
     RDKit          3D

 13 14  0  0  0  0  0  0  0  0999 V2000
   -3.6120   -1.5110    0.3940 C   0  0  0  0  0  0  0  0  0  0  0  0
   -2.4630   -0.5730    0.2000 C   0  0  0  0  0  0  0  0  0  0  0  0
   -1.1460   -0.9120    0.1890 C   0  0  0  0  0  0  0  0  0  0  0  0
   -0.4020    0.2310   -0.0170 C   0  0  0  0  0  0  0  0  0  0  0  0
    1.0620    0.3100   -0.0970 C   0  0  0  0  0  0  0  0  0  0  0  0
    1.8210    1.3940   -0.2950 N   0  0  0  0  0  0  0  0  0  0  0  0
    3.0910    1.0380   -0.3010 N   0  0  0  0  0  0  0  0  0  0  0  0
    3.1410   -0.2740   -0.1070 C   0  0  0  0  0  0  0  0  0  0  0  0
    4.3460   -1.1530   -0.0310 C   0  0  0  0  0  0  0  0  0  0  0  0
    1.8990   -0.7340    0.0200 N   0  0  0  0  0  0  0  0  0  0  0  0
   -1.2920    1.2770   -0.1320 C   0  0  0  0  0  0  0  0  0  0  0  0
   -0.9770    2.7250   -0.3640 C   0  0  0  0  0  0  0  0  0  0  0  0
   -2.5200    0.7480    0.0040 N   0  0  0  0  0  0  0  0  0  0  0  0
  1  2  1  0
  2  3  2  0
  2 13  1  0
  3  4  1  0
  4  5  1  0
  4 11  2  0
  5  6  2  0
  5 10  1  0
  6  7  1  0
  7  8  2  0
  8  9  1  0
  8 10  1  0
 11 12  1  0
 11 13  1  0
M  END
