
     RDKit          3D

 13 14  0  0  0  0  0  0  0  0999 V2000
    4.3090    0.6120   -0.0770 N   0  0  0  0  0  0  0  0  0  0  0  0
    2.8990    0.4360   -0.0610 C   0  0  0  0  0  0  0  0  0  0  0  0
    2.3320   -0.8000    0.2050 C   0  0  0  0  0  0  0  0  0  0  0  0
    0.9680   -0.9860    0.2240 C   0  0  0  0  0  0  0  0  0  0  0  0
    0.1390    0.0780   -0.0290 C   0  0  0  0  0  0  0  0  0  0  0  0
   -1.3280   -0.0970   -0.0140 C   0  0  0  0  0  0  0  0  0  0  0  0
   -2.1240    0.9570   -0.2640 N   0  0  0  0  0  0  0  0  0  0  0  0
   -3.4670    0.8900   -0.2720 C   0  0  0  0  0  0  0  0  0  0  0  0
   -4.0750   -0.3270   -0.0100 C   0  0  0  0  0  0  0  0  0  0  0  0
   -3.2380   -1.3940    0.2430 C   0  0  0  0  0  0  0  0  0  0  0  0
   -1.8850   -1.2750    0.2400 N   0  0  0  0  0  0  0  0  0  0  0  0
    0.7000    1.2680   -0.2850 N   0  0  0  0  0  0  0  0  0  0  0  0
    2.0310    1.4760   -0.3090 C   0  0  0  0  0  0  0  0  0  0  0  0
  1  2  1  0
  2  3  2  0
  2 13  1  0
  3  4  1  0
  4  5  2  0
  5  6  1  0
  5 12  1  0
  6  7  2  0
  6 11  1  0
  7  8  1  0
  8  9  2  0
  9 10  1  0
 10 11  2  0
 12 13  2  0
M  END
