
     RDKit          3D

 12 13  0  0  0  0  0  0  0  0999 V2000
    3.8800    0.1210    0.0450 N   0  0  0  0  0  0  0  0  0  0  0  0
    2.4480    0.0820    0.0260 C   0  0  0  0  0  0  0  0  0  0  0  0
    1.7510   -1.0220    0.4720 C   0  0  0  0  0  0  0  0  0  0  0  0
    0.3720   -1.0120    0.4330 C   0  0  0  0  0  0  0  0  0  0  0  0
   -0.3000    0.0940   -0.0470 C   0  0  0  0  0  0  0  0  0  0  0  0
   -1.7270    0.1110   -0.0900 N   0  0  0  0  0  0  0  0  0  0  0  0
   -2.6150   -0.0310    0.9080 C   0  0  0  0  0  0  0  0  0  0  0  0
   -3.9060    0.0570    0.3860 C   0  0  0  0  0  0  0  0  0  0  0  0
   -3.7620    0.2520   -0.9290 N   0  0  0  0  0  0  0  0  0  0  0  0
   -2.4310    0.2850   -1.2180 C   0  0  0  0  0  0  0  0  0  0  0  0
    0.4250    1.1360   -0.4660 N   0  0  0  0  0  0  0  0  0  0  0  0
    1.7400    1.1570   -0.4420 C   0  0  0  0  0  0  0  0  0  0  0  0
  1  2  1  0
  2  3  2  0
  2 12  1  0
  3  4  1  0
  4  5  2  0
  5  6  1  0
  5 11  1  0
  6  7  1  0
  6 10  1  0
  7  8  2  0
  8  9  1  0
  9 10  2  0
 11 12  2  0
M  END
