
     RDKit          3D

 13 14  0  0  0  0  0  0  0  0999 V2000
   -1.0940    1.4750   -1.0160 N   0  0  0  0  0  0  0  0  0  0  0  0
   -1.4160    0.3180   -0.2890 C   0  0  0  0  0  0  0  0  0  0  0  0
   -2.7510   -0.0680   -0.1840 C   0  0  0  0  0  0  0  0  0  0  0  0
   -3.0730   -1.1740    0.5090 N   0  0  0  0  0  0  0  0  0  0  0  0
   -2.0970   -1.8930    1.0930 C   0  0  0  0  0  0  0  0  0  0  0  0
   -0.7620   -1.5370    1.0090 C   0  0  0  0  0  0  0  0  0  0  0  0
   -0.4050   -0.4040    0.3020 C   0  0  0  0  0  0  0  0  0  0  0  0
    0.9850    0.0210    0.1780 C   0  0  0  0  0  0  0  0  0  0  0  0
    1.5170    0.4270   -1.0260 C   0  0  0  0  0  0  0  0  0  0  0  0
    2.8450    0.8330   -1.1450 C   0  0  0  0  0  0  0  0  0  0  0  0
    3.5890    0.8110   -0.0280 N   0  0  0  0  0  0  0  0  0  0  0  0
    3.0910    0.4200    1.1470 N   0  0  0  0  0  0  0  0  0  0  0  0
    1.8190    0.0270    1.2790 C   0  0  0  0  0  0  0  0  0  0  0  0
  1  2  1  0
  2  3  2  0
  2  7  1  0
  3  4  1  0
  4  5  2  0
  5  6  1  0
  6  7  2  0
  7  8  1  0
  8  9  2  0
  8 13  1  0
  9 10  1  0
 10 11  2  0
 11 12  1  0
 12 13  2  0
M  END
