
     RDKit          3D

 28 30  0  0  0  0  0  0  0  0999 V2000
    8.7030    0.8950   -0.2190 C   0  0  0  0  0  0  0  0  0  0  0  0
    7.6080    0.3000    0.1650 C   0  0  0  0  0  0  0  0  0  0  0  0
    7.0810    0.3390    1.5540 C   0  0  0  0  0  0  0  0  0  0  0  0
    5.6630    0.8480    1.4580 C   0  0  0  0  0  0  0  0  0  0  0  0
    4.8670    0.2910    0.4380 N   0  0  0  0  0  0  0  0  0  0  0  0
    3.6670   -0.2850    1.0890 C   0  0  0  0  0  0  0  0  0  0  0  0
    2.8180    0.7580    1.6130 C   0  0  0  0  0  0  0  0  0  0  0  0
    1.6110    1.0800    1.3460 C   0  0  0  0  0  0  0  0  0  0  0  0
    0.6180    0.5550    0.4340 C   0  0  0  0  0  0  0  0  0  0  0  0
    0.6670   -0.4050   -0.5330 C   0  0  0  0  0  0  0  0  0  0  0  0
   -0.6110   -0.5330   -1.0800 C   0  0  0  0  0  0  0  0  0  0  0  0
   -1.4380    0.3190   -0.4760 N   0  0  0  0  0  0  0  0  0  0  0  0
   -2.8250    0.5290   -0.7000 C   0  0  0  0  0  0  0  0  0  0  0  0
   -3.2950    1.6100   -1.4390 C   0  0  0  0  0  0  0  0  0  0  0  0
   -4.6390    1.7470   -1.6110 C   0  0  0  0  0  0  0  0  0  0  0  0
   -5.5460    0.8570   -1.0810 C   0  0  0  0  0  0  0  0  0  0  0  0
   -6.9870    1.0650   -1.3030 C   0  0  2  0  0  0  0  0  0  0  0  0
   -7.7380    1.2210    0.0150 C   0  0  0  0  0  0  0  0  0  0  0  0
   -7.5130   -0.1290   -2.0790 C   0  0  0  0  0  0  0  0  0  0  0  0
   -5.0470   -0.1990   -0.3570 C   0  0  0  0  0  0  0  0  0  0  0  0
   -3.6990   -0.3930   -0.1470 C   0  0  0  0  0  0  0  0  0  0  0  0
   -3.1770   -1.4790    0.6010 N   0  0  0  0  0  0  0  0  0  0  0  0
   -2.3910   -1.3270    1.8100 C   0  0  0  0  0  0  0  0  0  0  0  0
   -3.4470   -2.8260    0.1270 C   0  0  0  0  0  0  0  0  0  0  0  0
   -0.7220    0.9860    0.4390 C   0  0  0  0  0  0  0  0  0  0  0  0
    5.4040   -0.7350   -0.3730 C   0  0  0  0  0  0  0  0  0  0  0  0
    6.8060   -0.4690   -0.7770 C   0  0  0  0  0  0  0  0  0  0  0  0
    7.3000   -0.9180   -1.9350 C   0  0  0  0  0  0  0  0  0  0  0  0
  1  2  2  0
  2  3  1  0
  2 27  1  0
  3  4  1  0
  4  5  1  0
  5  6  1  0
  5 26  1  0
  6  7  1  0
  7  8  2  3
  8  9  1  0
  9 10  1  0
  9 25  2  0
 10 11  2  0
 11 12  1  0
 12 13  1  0
 12 25  1  0
 13 14  2  0
 13 21  1  0
 14 15  1  0
 15 16  2  0
 16 17  1  0
 16 20  1  0
 17 18  1  1
 17 19  1  0
 20 21  2  0
 21 22  1  0
 22 23  1  0
 22 24  1  0
 26 27  1  0
 27 28  2  0
M  END
