
     RDKit          3D

  8  7  0  0  0  0  0  0  0  0999 V2000
   -2.7710    0.8220    0.3840 C   0  0  0  0  0  0  0  0  0  0  0  0
   -1.8230   -0.1590    0.1840 O   0  0  0  0  0  0  0  0  0  0  0  0
   -0.5370    0.3100    0.0580 C   0  0  0  0  0  0  0  0  0  0  0  0
    0.3540   -0.8960   -0.1530 C   0  0  2  0  0  0  0  0  0  0  0  0
    0.1920   -1.7040    0.9820 O   0  0  0  0  0  0  0  0  0  0  0  0
    1.7950   -0.5280   -0.3460 C   0  0  0  0  0  0  0  0  0  0  0  0
    2.2040    0.1740    0.8040 O   0  0  0  0  0  0  0  0  0  0  0  0
    3.4840    0.4820    0.5970 O   0  0  0  0  0  0  0  0  0  0  0  0
  1  2  1  0
  2  3  1  0
  3  4  1  0
  4  5  1  1
  4  6  1  0
  6  7  1  0
  7  8  1  0
M  END
