
     RDKit          3D

  8  7  0  0  0  0  0  0  0  0999 V2000
    2.7290   -0.9690    0.7580 O   0  0  0  0  0  0  0  0  0  0  0  0
    2.5680    0.4300    0.7320 C   0  0  0  0  0  0  0  0  0  0  0  0
    1.5600    0.6830   -0.1960 O   0  0  0  0  0  0  0  0  0  0  0  0
    0.4080    0.0470    0.2210 C   0  0  0  0  0  0  0  0  0  0  0  0
   -0.7130    0.3140   -0.7890 C   0  0  0  0  0  0  0  0  0  0  0  0
   -1.9470   -0.4040   -0.2830 C   0  0  2  0  0  0  0  0  0  0  0  0
   -2.9760   -0.1810   -1.1750 O   0  0  0  0  0  0  0  0  0  0  0  0
   -2.2390   -0.1050    1.0220 O   0  0  0  0  0  0  0  0  0  0  0  0
  1  2  1  0
  2  3  1  0
  3  4  1  0
  4  5  1  0
  5  6  1  0
  6  7  1  6
  6  8  1  0
M  END
