
     RDKit          3D

  8  7  0  0  0  0  0  0  0  0999 V2000
   -2.4490    0.9790    0.5860 C   0  0  0  0  0  0  0  0  0  0  0  0
   -1.4950    0.6010   -0.3760 O   0  0  0  0  0  0  0  0  0  0  0  0
   -0.8660   -0.5460    0.1060 C   0  0  0  0  0  0  0  0  0  0  0  0
    0.1860   -1.0400   -0.8580 C   0  0  0  0  0  0  0  0  0  0  0  0
    1.1800   -0.1280   -1.1000 O   0  0  0  0  0  0  0  0  0  0  0  0
    1.8950    0.2620    0.0090 C   0  0  2  0  0  0  0  0  0  0  0  0
    1.7220    1.6310    0.2100 O   0  0  0  0  0  0  0  0  0  0  0  0
    3.2660    0.0500   -0.1280 O   0  0  0  0  0  0  0  0  0  0  0  0
  1  2  1  0
  2  3  1  0
  3  4  1  0
  4  5  1  0
  5  6  1  0
  6  7  1  6
  6  8  1  0
M  END
