
     RDKit          3D

  8  7  0  0  0  0  0  0  0  0999 V2000
    2.0190   -1.0810    0.2940 C   0  0  0  0  0  0  0  0  0  0  0  0
    1.3000    0.0640    0.6160 O   0  0  0  0  0  0  0  0  0  0  0  0
    0.7250    0.5630   -0.5210 C   0  0  2  0  0  0  0  0  0  0  0  0
    1.3010    1.8250   -0.7720 O   0  0  0  0  0  0  0  0  0  0  0  0
   -0.7660    0.7760   -0.4030 C   0  0  0  0  0  0  0  0  0  0  0  0
   -1.5030   -0.5010   -0.0990 C   0  0  1  0  0  0  0  0  0  0  0  0
   -1.0590   -1.0460    1.1100 O   0  0  0  0  0  0  0  0  0  0  0  0
   -2.8630   -0.1850   -0.0080 O   0  0  0  0  0  0  0  0  0  0  0  0
  1  2  1  0
  2  3  1  0
  3  4  1  1
  3  5  1  0
  5  6  1  0
  6  7  1  1
  6  8  1  0
M  END
