
     RDKit          3D

 35 39  0  0  0  0  0  0  0  0999 V2000
   -4.3750    3.6630    2.3850 C   0  0  0  0  0  0  0  0  0  0  0  0
   -4.0190    2.3590    1.9800 O   0  0  0  0  0  0  0  0  0  0  0  0
   -2.7040    1.8510    2.2030 C   0  0  0  0  0  0  0  0  0  0  0  0
   -1.9610    2.6650    2.7680 O   0  0  0  0  0  0  0  0  0  0  0  0
   -2.4090    0.5180    1.7660 C   0  0  0  0  0  0  0  0  0  0  0  0
   -1.0580   -0.0300    1.6370 C   0  0  2  0  0  0  0  0  0  0  0  0
   -0.1150    0.5580    0.6450 C   0  0  0  0  0  0  0  0  0  0  0  0
    0.3920    1.8840    0.4710 C   0  0  0  0  0  0  0  0  0  0  0  0
    1.1640    2.2960   -0.6150 C   0  0  0  0  0  0  0  0  0  0  0  0
    1.4410    1.3750   -1.6120 C   0  0  0  0  0  0  0  0  0  0  0  0
    2.0810    1.3730   -2.9970 C   0  0  0  0  0  0  0  0  0  0  0  0
    0.9260    0.0250   -1.4140 C   0  0  0  0  0  0  0  0  0  0  0  0
    0.2180   -0.3190   -0.3420 C   0  0  0  0  0  0  0  0  0  0  0  0
    0.0630   -1.5810    0.3780 C   0  0  0  0  0  0  0  0  0  0  0  0
    0.9130   -2.5140    0.4850 N   0  0  0  0  0  0  0  0  0  0  0  0
    2.1970   -2.6360   -0.0170 N   0  0  0  0  0  0  0  0  0  0  0  0
    2.5030   -3.8770   -0.8440 C   0  0  0  0  0  0  0  0  0  0  0  0
    3.2460   -1.7730    0.1250 C   0  0  0  0  0  0  0  0  0  0  0  0
    3.4850   -0.5850    0.8610 C   0  0  0  0  0  0  0  0  0  0  0  0
    2.8440    0.0660    1.7000 C   0  0  0  0  0  0  0  0  0  0  0  0
    2.8420    1.3250    1.6580 N   0  0  0  0  0  0  0  0  0  0  0  0
    3.7380    2.0990    0.8510 C   0  0  2  0  0  0  0  0  0  0  0  0
    3.2980    3.4240    0.3660 C   0  0  0  0  0  0  0  0  0  0  0  0
    2.0160    3.5700   -0.3880 C   0  0  0  0  0  0  0  0  0  0  0  0
    1.8800    4.7580   -0.7050 O   0  0  0  0  0  0  0  0  0  0  0  0
    4.5730    1.3240   -0.0270 N   0  0  0  0  0  0  0  0  0  0  0  0
    4.8480    0.0520    0.6150 C   0  0  0  0  0  0  0  0  0  0  0  0
   -1.2090   -1.4500    1.0820 C   0  0  2  0  0  0  0  0  0  0  0  0
   -2.4290   -1.6940    0.3360 C   0  0  0  0  0  0  0  0  0  0  0  0
   -2.5870   -1.3090   -0.9730 C   0  0  0  0  0  0  0  0  0  0  0  0
   -3.7990   -1.5730   -1.6320 C   0  0  0  0  0  0  0  0  0  0  0  0
   -4.8360   -2.2120   -0.9940 C   0  0  0  0  0  0  0  0  0  0  0  0
   -4.7010   -2.6070    0.3160 C   0  0  0  0  0  0  0  0  0  0  0  0
   -5.8300   -3.3040    1.0120 C   0  0  0  0  0  0  0  0  0  0  0  0
   -3.5130   -2.3430    0.9440 C   0  0  0  0  0  0  0  0  0  0  0  0
  1  2  1  0
  2  3  1  0
  3  4  2  0
  3  5  1  0
  6  5  1  6
  6  7  1  0
  6 28  1  0
  7  8  2  0
  7 13  1  0
  8  9  1  0
  9 10  2  0
  9 24  1  0
 10 11  1  0
 10 12  1  0
 12 13  2  0
 13 14  1  0
 14 15  2  0
 14 28  1  0
 15 16  1  0
 16 17  1  0
 16 18  1  0
 18 19  1  0
 19 20  2  0
 19 27  1  0
 20 21  2  0
 21 22  1  0
 22 23  1  6
 22 26  1  0
 23 24  1  0
 24 25  2  0
 26 27  1  0
 28 29  1  6
 29 30  2  0
 29 35  1  0
 30 31  1  0
 31 32  2  0
 32 33  1  0
 33 34  1  0
 33 35  2  0
M  CHG  1  26   1
M  END
