
     RDKit          3D

 35 39  0  0  0  0  0  0  0  0999 V2000
    4.3700   -0.4190    3.3380 C   0  0  0  0  0  0  0  0  0  0  0  0
    4.6630    0.3250    2.0650 C   0  0  1  0  0  0  0  0  0  0  0  0
    5.3620    1.6250    2.4380 C   0  0  0  0  0  0  0  0  0  0  0  0
    5.5090   -0.4420    1.1060 C   0  0  0  0  0  0  0  0  0  0  0  0
    5.0050   -0.4180   -0.3210 C   0  0  0  0  0  0  0  0  0  0  0  0
    3.6430   -1.1140   -0.4390 C   0  0  1  0  0  0  0  0  0  0  0  0
    3.9190   -2.5900   -0.2940 C   0  0  0  0  0  0  0  0  0  0  0  0
    5.0760   -3.0510   -0.1260 O   0  0  0  0  0  0  0  0  0  0  0  0
    2.8820   -3.5120   -0.3440 O   0  0  0  0  0  0  0  0  0  0  0  0
    2.8660   -0.6310    0.7260 C   0  0  1  0  0  0  0  0  0  0  0  0
    3.3450    0.6450    1.3270 C   0  0  0  0  0  0  0  0  0  0  0  0
    1.4330   -0.7250    0.4250 C   0  0  0  0  0  0  0  0  0  0  0  0
    0.6850   -1.1740    1.4080 C   0  0  0  0  0  0  0  0  0  0  0  0
   -0.7750   -1.3660    1.3750 C   0  0  0  0  0  0  0  0  0  0  0  0
   -1.2860   -0.3750    0.3720 C   0  0  2  0  0  0  0  0  0  0  0  0
   -2.7480   -0.1170    0.4500 C   0  0  1  0  0  0  0  0  0  0  0  0
   -3.5860   -1.3550    0.5980 C   0  0  0  0  0  0  0  0  0  0  0  0
   -2.9950    0.6940    1.7190 C   0  0  0  0  0  0  0  0  0  0  0  0
   -3.5080    2.0830    1.4150 C   0  0  0  0  0  0  0  0  0  0  0  0
   -4.8080    2.0000    0.6510 C   0  0  2  0  0  0  0  0  0  0  0  0
   -5.7540    1.3030    1.3760 O   0  0  0  0  0  0  0  0  0  0  0  0
   -4.5100    1.3410   -0.6730 C   0  0  1  0  0  0  0  0  0  0  0  0
   -5.5800    0.4090   -1.1370 C   0  0  0  0  0  0  0  0  0  0  0  0
   -4.4770    2.5050   -1.6770 C   0  0  0  0  0  0  0  0  0  0  0  0
   -5.7600    3.1000   -1.6080 O   0  0  0  0  0  0  0  0  0  0  0  0
   -3.1280    0.7540   -0.6920 C   0  0  2  0  0  0  0  0  0  0  0  0
   -2.8490   -0.0110   -1.9500 C   0  0  0  0  0  0  0  0  0  0  0  0
   -1.3160    0.0270   -2.0970 C   0  0  0  0  0  0  0  0  0  0  0  0
   -0.6750   -0.7280   -0.9400 C   0  0  2  0  0  0  0  0  0  0  0  0
   -0.8620   -2.1850   -1.3140 C   0  0  0  0  0  0  0  0  0  0  0  0
    0.8010   -0.3560   -0.8430 C   0  0  1  0  0  0  0  0  0  0  0  0
    0.9790    1.1320   -1.1760 C   0  0  0  0  0  0  0  0  0  0  0  0
    1.6040   -1.0480   -1.9300 C   0  0  0  0  0  0  0  0  0  0  0  0
    3.0650   -0.9120   -1.7890 C   0  0  1  0  0  0  0  0  0  0  0  0
    3.5970    0.2950   -2.2950 O   0  0  0  0  0  0  0  0  0  0  0  0
  2  1  1  1
  2  3  1  0
  2  4  1  0
  2 11  1  0
  4  5  1  0
  5  6  1  0
  6  7  1  1
  6 10  1  0
  6 34  1  0
  7  8  2  0
  7  9  1  0
 10 11  1  6
 10 12  1  0
 12 13  2  0
 12 31  1  0
 13 14  1  0
 15 14  1  1
 15 16  1  0
 15 29  1  0
 16 17  1  1
 16 18  1  0
 16 26  1  0
 18 19  1  0
 19 20  1  0
 20 21  1  1
 20 22  1  0
 22 23  1  6
 22 24  1  0
 22 26  1  0
 24 25  1  0
 26 27  1  6
 27 28  1  0
 28 29  1  0
 29 30  1  6
 29 31  1  0
 31 32  1  6
 31 33  1  0
 33 34  1  0
 34 35  1  1
M  END
