
     RDKit          3D

 35 38  0  0  0  0  0  0  0  0999 V2000
    1.3490   -0.6720   -3.4800 C   0  0  0  0  0  0  0  0  0  0  0  0
    1.2580   -1.2750   -2.2240 O   0  0  0  0  0  0  0  0  0  0  0  0
    1.5700   -0.6180   -1.0350 C   0  0  0  0  0  0  0  0  0  0  0  0
    2.8480   -0.6150   -0.6220 C   0  0  0  0  0  0  0  0  0  0  0  0
    3.8580   -1.2770   -1.3920 C   0  0  0  0  0  0  0  0  0  0  0  0
    5.1060   -1.4180   -1.2380 C   0  0  0  0  0  0  0  0  0  0  0  0
    6.0670   -1.0050   -0.2650 C   0  0  0  0  0  0  0  0  0  0  0  0
    7.2880   -1.3850   -0.5100 O   0  0  0  0  0  0  0  0  0  0  0  0
    5.9310   -0.2650    0.9030 N   0  0  0  0  0  0  0  0  0  0  0  0
    6.9780    0.1070    1.8050 C   0  0  0  0  0  0  0  0  0  0  0  0
    7.9750    1.0120    1.1810 C   0  0  1  0  0  0  0  0  0  0  0  0
    9.0750    1.4370    2.2080 C   0  0  0  0  0  0  0  0  0  0  0  0
    9.9780    1.5800    1.0030 C   0  0  0  0  0  0  0  0  0  0  0  0
    9.1110    0.4430    0.3810 C   0  0  0  0  0  0  0  0  0  0  0  0
    0.5510    0.0490   -0.2560 C   0  0  0  0  0  0  0  0  0  0  0  0
    0.8170    0.7780    0.8800 C   0  0  0  0  0  0  0  0  0  0  0  0
   -0.2300    1.3820    1.5980 C   0  0  0  0  0  0  0  0  0  0  0  0
   -1.4890    1.2090    1.1190 C   0  0  0  0  0  0  0  0  0  0  0  0
   -1.7590    0.4940    0.0040 N   0  0  0  0  0  0  0  0  0  0  0  0
   -3.1150    0.3580   -0.4370 C   0  0  0  0  0  0  0  0  0  0  0  0
   -3.7790   -0.7890   -0.8330 C   0  0  0  0  0  0  0  0  0  0  0  0
   -5.0750   -0.4770   -1.1810 C   0  0  0  0  0  0  0  0  0  0  0  0
   -6.1290   -1.4310   -1.6690 C   0  0  0  0  0  0  0  0  0  0  0  0
   -7.4020   -0.7910   -1.7980 N   0  0  0  0  0  0  0  0  0  0  0  0
   -8.0750   -0.2170   -0.6890 C   0  0  0  0  0  0  0  0  0  0  0  0
   -9.2880    0.4240   -0.8320 C   0  0  0  0  0  0  0  0  0  0  0  0
   -9.9470    0.9810    0.2440 C   0  0  0  0  0  0  0  0  0  0  0  0
   -9.3940    0.8990    1.4690 N   0  0  0  0  0  0  0  0  0  0  0  0
   -8.2200    0.2930    1.6820 C   0  0  0  0  0  0  0  0  0  0  0  0
   -7.7070    0.2500    3.0030 N   0  0  0  0  0  0  0  0  0  0  0  0
   -7.5630   -0.2640    0.6000 C   0  0  0  0  0  0  0  0  0  0  0  0
   -5.1840    0.8450   -0.9960 N   0  0  0  0  0  0  0  0  0  0  0  0
   -4.0230    1.3440   -0.5540 N   0  0  0  0  0  0  0  0  0  0  0  0
   -0.7780   -0.0880   -0.6940 C   0  0  0  0  0  0  0  0  0  0  0  0
   -1.0970   -0.7360   -1.7130 O   0  0  0  0  0  0  0  0  0  0  0  0
  1  2  1  0
  2  3  1  0
  3  4  2  3
  3 15  1  0
  4  5  1  0
  5  6  2  3
  6  7  1  0
  7  8  2  0
  7  9  1  0
  9 10  1  0
 11 10  1  1
 11 12  1  0
 11 14  1  0
 12 13  1  0
 13 14  1  0
 15 16  2  0
 15 34  1  0
 16 17  1  0
 17 18  2  0
 18 19  1  0
 19 20  1  0
 19 34  1  0
 20 21  1  0
 20 33  2  0
 21 22  2  0
 22 23  1  0
 22 32  1  0
 23 24  1  0
 24 25  1  0
 25 26  2  0
 25 31  1  0
 26 27  1  0
 27 28  2  0
 28 29  1  0
 29 30  1  0
 29 31  2  0
 32 33  1  0
 34 35  2  0
M  CHG  1  30   1
M  END
