
     RDKit          3D

 35 38  0  0  0  0  0  0  0  0999 V2000
   -5.6790    1.0350   -2.6710 N   0  0  0  0  0  0  0  0  0  0  0  0
   -6.1330    0.6340   -1.3820 C   0  0  0  0  0  0  0  0  0  0  0  0
   -7.4170    0.7740   -0.9700 C   0  0  0  0  0  0  0  0  0  0  0  0
   -7.8440    0.3870    0.2740 C   0  0  0  0  0  0  0  0  0  0  0  0
   -9.2560    0.5720    0.6530 C   0  0  0  0  0  0  0  0  0  0  0  0
   -9.8320    0.2590    1.7980 C   0  0  0  0  0  0  0  0  0  0  0  0
  -11.2520    0.6210    1.7310 C   0  0  0  0  0  0  0  0  0  0  0  0
  -12.1370    0.4840    2.6140 O   0  0  0  0  0  0  0  0  0  0  0  0
  -11.4180    1.1730    0.4220 N   0  0  0  0  0  0  0  0  0  0  0  0
  -10.2720    1.1480   -0.2050 C   0  0  0  0  0  0  0  0  0  0  0  0
   -6.9270   -0.1580    1.1180 C   0  0  0  0  0  0  0  0  0  0  0  0
   -5.5850   -0.3250    0.7410 C   0  0  0  0  0  0  0  0  0  0  0  0
   -5.1950    0.0710   -0.5050 C   0  0  0  0  0  0  0  0  0  0  0  0
   -3.8250   -0.0550   -1.0000 C   0  0  0  0  0  0  0  0  0  0  0  0
   -2.8590   -0.6270   -0.1150 N   0  0  0  0  0  0  0  0  0  0  0  0
   -1.4860   -0.7970   -0.4800 C   0  0  0  0  0  0  0  0  0  0  0  0
   -1.1400   -0.4230   -1.6220 O   0  0  0  0  0  0  0  0  0  0  0  0
   -0.4910   -1.3880    0.4360 C   0  0  0  0  0  0  0  0  0  0  0  0
    0.7880   -1.4140   -0.1930 N   0  0  0  0  0  0  0  0  0  0  0  0
    1.3340   -0.1160   -0.3630 C   0  0  0  0  0  0  0  0  0  0  0  0
    2.3320    0.3240    0.6620 C   0  0  0  0  0  0  0  0  0  0  0  0
    3.1330   -0.7280    1.1210 N   0  0  0  0  0  0  0  0  0  0  0  0
    4.4690   -0.5000    1.4720 C   0  0  0  0  0  0  0  0  0  0  0  0
    5.3480   -0.0110    0.4010 C   0  0  0  0  0  0  0  0  0  0  0  0
    6.5260    0.6090    0.7750 C   0  0  0  0  0  0  0  0  0  0  0  0
    7.4370    1.1050   -0.1470 C   0  0  0  0  0  0  0  0  0  0  0  0
    8.6860    1.7670    0.2990 C   0  0  0  0  0  0  0  0  0  0  0  0
    9.7540    0.8710    0.6090 N   0  0  0  0  0  0  0  0  0  0  0  0
   10.5360    0.2050   -0.3610 C   0  0  0  0  0  0  0  0  0  0  0  0
   10.2860    0.4060   -1.5710 O   0  0  0  0  0  0  0  0  0  0  0  0
    7.1140    0.9520   -1.4800 C   0  0  0  0  0  0  0  0  0  0  0  0
    5.9230    0.3250   -1.8220 C   0  0  0  0  0  0  0  0  0  0  0  0
    5.0620   -0.1450   -0.9050 N   0  0  0  0  0  0  0  0  0  0  0  0
    2.5500   -1.9890    1.3550 C   0  0  0  0  0  0  0  0  0  0  0  0
    1.6720   -2.4530    0.1910 C   0  0  0  0  0  0  0  0  0  0  0  0
  1  2  1  0
  2  3  2  0
  2 13  1  0
  3  4  1  0
  4  5  1  0
  4 11  2  0
  5  6  2  0
  5 10  1  0
  6  7  1  0
  7  8  2  0
  7  9  1  0
  9 10  2  0
 11 12  1  0
 12 13  2  0
 13 14  1  0
 14 15  1  0
 15 16  1  0
 16 17  2  0
 16 18  1  0
 18 19  1  0
 19 20  1  0
 19 35  1  0
 20 21  1  0
 21 22  1  0
 22 23  1  0
 22 34  1  0
 23 24  1  0
 24 25  2  0
 24 33  1  0
 25 26  1  0
 26 27  1  0
 26 31  2  0
 27 28  1  0
 28 29  1  0
 29 30  2  0
 31 32  1  0
 32 33  2  0
 34 35  1  0
M  CHG  1  33   1
M  END
