
     RDKit          3D

 23 25  0  0  0  0  0  0  0  0999 V2000
   -5.1730    0.2590    2.1380 C   0  0  0  0  0  0  0  0  0  0  0  0
   -4.6330    0.7380    0.8420 C   0  0  0  0  0  0  0  0  0  0  0  0
   -5.1830    1.7480    0.1010 C   0  0  0  0  0  0  0  0  0  0  0  0
   -4.6970    2.2080   -1.1040 C   0  0  0  0  0  0  0  0  0  0  0  0
   -5.2710    3.2130   -1.8080 F   0  0  0  0  0  0  0  0  0  0  0  0
   -3.5460    1.5600   -1.5700 C   0  0  0  0  0  0  0  0  0  0  0  0
   -2.9580    0.5470   -0.8710 C   0  0  0  0  0  0  0  0  0  0  0  0
   -3.4820    0.1310    0.3200 C   0  0  0  0  0  0  0  0  0  0  0  0
   -2.8650   -0.9610    1.0890 C   0  0  0  0  0  0  0  0  0  0  0  0
   -1.5030   -1.3930    0.5760 C   0  0  0  0  0  0  0  0  0  0  0  0
   -0.9390   -0.3090   -0.1280 N   0  0  0  0  0  0  0  0  0  0  0  0
    0.4250   -0.3270   -0.4820 C   0  0  1  0  0  0  0  0  0  0  0  0
    0.7070   -1.4770   -1.4090 C   0  0  0  0  0  0  0  0  0  0  0  0
    0.6940    0.9940   -1.2270 C   0  0  0  0  0  0  0  0  0  0  0  0
    1.3600   -0.3390    0.6490 C   0  0  0  0  0  0  0  0  0  0  0  0
    0.8780   -0.3330    1.8330 O   0  0  0  0  0  0  0  0  0  0  0  0
    2.7640   -0.3550    0.5070 N   0  0  0  0  0  0  0  0  0  0  0  0
    3.4870   -0.3560   -0.7410 C   0  0  0  0  0  0  0  0  0  0  0  0
    4.5460    0.7420   -0.6120 C   0  0  0  0  0  0  0  0  0  0  0  0
    5.6010    0.2290    0.3170 C   0  0  0  0  0  0  0  0  0  0  0  0
    5.0410   -0.6440    1.4130 C   0  0  0  0  0  0  0  0  0  0  0  0
    3.5930   -0.3770    1.6990 C   0  0  0  0  0  0  0  0  0  0  0  0
   -1.7430   -0.1350   -1.3550 C   0  0  0  0  0  0  0  0  0  0  0  0
  1  2  1  0
  2  3  2  0
  2  8  1  0
  3  4  1  0
  4  5  1  0
  4  6  2  0
  6  7  1  0
  7  8  2  0
  7 23  1  0
  8  9  1  0
  9 10  1  0
 10 11  1  0
 11 12  1  0
 11 23  1  0
 12 13  1  6
 12 14  1  0
 12 15  1  0
 15 16  2  0
 15 17  1  0
 17 18  1  0
 17 22  1  0
 18 19  1  0
 19 20  1  0
 20 21  1  0
 21 22  1  0
M  END
