
     RDKit          3D

 23 25  0  0  0  0  0  0  0  0999 V2000
   -5.8440    1.6310   -1.2980 C   0  0  0  0  0  0  0  0  0  0  0  0
   -5.6470    0.4010   -0.4290 C   0  0  1  0  0  0  0  0  0  0  0  0
   -6.8270   -0.5430   -0.5560 C   0  0  0  0  0  0  0  0  0  0  0  0
   -4.3990   -0.3370   -0.8240 C   0  0  1  0  0  0  0  0  0  0  0  0
   -3.2920    0.5820   -0.6520 N   0  0  0  0  0  0  0  0  0  0  0  0
   -2.0180    0.1830   -0.1720 C   0  0  0  0  0  0  0  0  0  0  0  0
   -0.8930    0.9760   -0.2520 C   0  0  0  0  0  0  0  0  0  0  0  0
    0.3330    0.5670    0.2210 C   0  0  0  0  0  0  0  0  0  0  0  0
    0.4790   -0.6740    0.8010 C   0  0  0  0  0  0  0  0  0  0  0  0
    1.7610   -1.0980    1.2940 N   0  0  0  0  0  0  0  0  0  0  0  0
    2.8810   -0.2170    1.1750 C   0  0  0  0  0  0  0  0  0  0  0  0
    4.1310   -0.8190    1.7380 C   0  0  0  0  0  0  0  0  0  0  0  0
    5.2880    0.1250    1.6000 C   0  0  0  0  0  0  0  0  0  0  0  0
    5.5240    0.4430    0.1430 C   0  0  0  0  0  0  0  0  0  0  0  0
    5.4670    1.6500   -0.3770 C   0  0  0  0  0  0  0  0  0  0  0  0
    5.7530    1.5540   -1.8170 C   0  0  0  0  0  0  0  0  0  0  0  0
    5.9830    0.1260   -2.0600 C   0  0  0  0  0  0  0  0  0  0  0  0
    5.8460   -0.5020   -0.9120 C   0  0  0  0  0  0  0  0  0  0  0  0
   -0.6190   -1.4920    0.8990 C   0  0  0  0  0  0  0  0  0  0  0  0
   -1.8320   -1.0650    0.4210 C   0  0  0  0  0  0  0  0  0  0  0  0
   -2.9660   -1.9180    0.5260 N   0  0  0  0  0  0  0  0  0  0  0  0
   -4.2600   -1.5270    0.0450 C   0  0  0  0  0  0  0  0  0  0  0  0
   -5.2100   -2.2580    0.4170 O   0  0  0  0  0  0  0  0  0  0  0  0
  2  1  1  6
  2  3  1  0
  2  4  1  0
  4  5  1  1
  4 22  1  0
  5  6  1  0
  6  7  2  0
  6 20  1  0
  7  8  1  0
  8  9  2  0
  9 10  1  0
  9 19  1  0
 10 11  1  0
 11 12  1  0
 12 13  1  0
 13 14  1  0
 14 15  2  0
 14 18  1  0
 15 16  1  0
 16 17  1  0
 17 18  2  0
 19 20  2  0
 20 21  1  0
 21 22  1  0
 22 23  2  0
M  END
