
     RDKit          3D

 23 25  0  0  0  0  0  0  0  0999 V2000
   -1.9810    4.1500   -1.5540 C   0  0  0  0  0  0  0  0  0  0  0  0
   -1.1100    4.0130   -0.3280 C   0  0  0  0  0  0  0  0  0  0  0  0
   -0.5800    2.7410   -0.1560 O   0  0  0  0  0  0  0  0  0  0  0  0
   -1.2920    1.5610    0.0140 C   0  0  0  0  0  0  0  0  0  0  0  0
   -2.6630    1.5140    0.0330 C   0  0  0  0  0  0  0  0  0  0  0  0
   -3.3540    0.3460    0.2010 C   0  0  0  0  0  0  0  0  0  0  0  0
   -2.6180   -0.8010    0.3520 C   0  0  0  0  0  0  0  0  0  0  0  0
   -1.2180   -0.7750    0.3360 C   0  0  0  0  0  0  0  0  0  0  0  0
   -0.5170    0.3940    0.1670 C   0  0  0  0  0  0  0  0  0  0  0  0
    0.8720    0.4540    0.2110 N   0  0  0  0  0  0  0  0  0  0  0  0
    1.8400   -0.5460    0.0330 C   0  0  0  0  0  0  0  0  0  0  0  0
    1.6190   -1.7040   -0.6750 C   0  0  0  0  0  0  0  0  0  0  0  0
    2.6260   -2.6480   -0.9090 C   0  0  0  0  0  0  0  0  0  0  0  0
    3.8920   -2.4510   -0.4370 C   0  0  0  0  0  0  0  0  0  0  0  0
    4.1470   -1.2880    0.2820 C   0  0  0  0  0  0  0  0  0  0  0  0
    5.4580   -1.0600    0.7590 N   0  0  0  0  0  0  0  0  0  0  0  0
    6.4970   -2.0750    0.5240 C   0  0  0  0  0  0  0  0  0  0  0  0
    3.1590   -0.3670    0.5110 C   0  0  0  0  0  0  0  0  0  0  0  0
    3.3700    0.8880    1.3000 C   0  0  0  0  0  0  0  0  0  0  0  0
   -3.3710   -2.0730    0.5350 C   0  0  0  0  0  0  0  0  0  0  0  0
   -4.6240   -1.9610   -0.3030 C   0  0  0  0  0  0  0  0  0  0  0  0
   -5.4610   -0.8770    0.0680 N   0  0  0  0  0  0  0  0  0  0  0  0
   -4.8280    0.3860    0.2080 C   0  0  0  0  0  0  0  0  0  0  0  0
  1  2  1  0
  2  3  1  0
  3  4  1  0
  4  5  2  0
  4  9  1  0
  5  6  1  0
  6  7  2  0
  6 23  1  0
  7  8  1  0
  7 20  1  0
  8  9  2  0
  9 10  1  0
 10 11  1  0
 11 12  2  0
 11 18  1  0
 12 13  1  0
 13 14  2  0
 14 15  1  0
 15 16  1  0
 15 18  2  0
 16 17  1  0
 18 19  1  0
 20 21  1  0
 21 22  1  0
 22 23  1  0
M  END
