
     RDKit          3D

 24 26  0  0  0  0  0  0  0  0999 V2000
    5.6130   -1.7820   -1.2750 C   0  0  0  0  0  0  0  0  0  0  0  0
    5.3550   -0.9430   -0.2920 C   0  0  0  0  0  0  0  0  0  0  0  0
    6.2790   -0.4680    0.7150 C   0  0  0  0  0  0  0  0  0  0  0  0
    5.6750    0.3700    1.5190 C   0  0  0  0  0  0  0  0  0  0  0  0
    6.1920    1.0290    2.5830 F   0  0  0  0  0  0  0  0  0  0  0  0
    4.2800    0.4840    1.0550 C   0  0  0  0  0  0  0  0  0  0  0  0
    4.0620   -0.2670    0.0060 C   0  0  0  0  0  0  0  0  0  0  0  0
    2.8760   -0.5130   -0.8210 C   0  0  0  0  0  0  0  0  0  0  0  0
    1.7020    0.1610   -0.3900 N   0  0  0  0  0  0  0  0  0  0  0  0
    0.7730    0.2190   -1.5930 C   0  0  0  0  0  0  0  0  0  0  0  0
   -0.0930    1.4060   -1.2970 C   0  0  0  0  0  0  0  0  0  0  0  0
   -0.7090    1.1720   -0.0370 N   0  0  0  0  0  0  0  0  0  0  0  0
   -1.6670    2.0950    0.3890 C   0  0  0  0  0  0  0  0  0  0  0  0
   -2.9540    2.1310   -0.3820 C   0  0  0  0  0  0  0  0  0  0  0  0
   -3.6440    0.8250   -0.2810 C   0  0  0  0  0  0  0  0  0  0  0  0
   -3.6970   -0.1970   -1.1880 C   0  0  0  0  0  0  0  0  0  0  0  0
   -4.4560   -1.2020   -0.6200 C   0  0  0  0  0  0  0  0  0  0  0  0
   -4.8110   -2.5290   -1.2020 C   0  0  0  0  0  0  0  0  0  0  0  0
   -4.8320   -0.7770    0.5740 O   0  0  0  0  0  0  0  0  0  0  0  0
   -4.3800    0.4170    0.8280 C   0  0  0  0  0  0  0  0  0  0  0  0
   -4.6310    1.1710    2.0840 C   0  0  0  0  0  0  0  0  0  0  0  0
   -0.5370   -0.0650    0.5700 C   0  0  0  0  0  0  0  0  0  0  0  0
    0.8820   -0.6020    0.5430 C   0  0  2  0  0  0  0  0  0  0  0  0
    1.4190   -0.7200    1.9150 C   0  0  0  0  0  0  0  0  0  0  0  0
  1  2  2  0
  2  3  1  0
  2  7  1  0
  3  4  2  0
  4  5  1  0
  4  6  1  0
  6  7  2  0
  7  8  1  0
  8  9  1  0
  9 10  1  0
  9 23  1  0
 10 11  1  0
 11 12  1  0
 12 13  1  0
 12 22  1  0
 13 14  1  0
 14 15  1  0
 15 16  1  0
 15 20  2  0
 16 17  2  0
 17 18  1  0
 17 19  1  0
 19 20  1  0
 20 21  1  0
 22 23  1  0
 23 24  1  1
M  END
