
     RDKit          3D

 23 25  0  0  0  0  0  0  0  0999 V2000
    3.8780   -4.2210   -2.6640 N   0  0  0  0  0  0  0  0  0  0  0  0
    3.5380   -3.2860   -2.0710 C   0  0  0  0  0  0  0  0  0  0  0  0
    3.1190   -2.1400   -1.3180 C   0  0  0  0  0  0  0  0  0  0  0  0
    1.8250   -1.6240   -1.3900 C   0  0  0  0  0  0  0  0  0  0  0  0
    1.4610   -0.5220   -0.6510 C   0  0  0  0  0  0  0  0  0  0  0  0
    0.1580    0.0430   -0.6870 N   0  0  0  0  0  0  0  0  0  0  0  0
   -0.8460   -0.5590   -1.5390 C   0  0  0  0  0  0  0  0  0  0  0  0
   -2.1770    0.0410   -1.5560 C   0  0  0  0  0  0  0  0  0  0  0  0
   -2.9960    0.1420   -0.3410 C   0  0  1  0  0  0  0  0  0  0  0  0
   -3.3160   -1.1400    0.3480 C   0  0  0  0  0  0  0  0  0  0  0  0
   -4.0310   -2.0250   -0.4570 O   0  0  0  0  0  0  0  0  0  0  0  0
   -2.6210    1.2350    0.6160 C   0  0  0  0  0  0  0  0  0  0  0  0
   -3.8700    1.9160    1.0570 C   0  0  0  0  0  0  0  0  0  0  0  0
   -4.9900    1.1680    0.4000 C   0  0  0  0  0  0  0  0  0  0  0  0
   -4.3750    0.6440   -0.8600 C   0  0  0  0  0  0  0  0  0  0  0  0
    2.4150    0.0430    0.1530 C   0  0  0  0  0  0  0  0  0  0  0  0
    3.7040   -0.4490    0.2420 C   0  0  0  0  0  0  0  0  0  0  0  0
    4.0510   -1.5430   -0.4970 C   0  0  0  0  0  0  0  0  0  0  0  0
    4.4600    0.3680    1.1720 C   0  0  0  0  0  0  0  0  0  0  0  0
    5.7270    0.1940    1.5050 C   0  0  0  0  0  0  0  0  0  0  0  0
    6.3680    1.0590    2.4300 N   0  0  0  0  0  0  0  0  0  0  0  0
    3.5370    1.3920    1.6410 C   0  0  0  0  0  0  0  0  0  0  0  0
    2.3660    1.2070    1.0580 C   0  0  0  0  0  0  0  0  0  0  0  0
  1  2  3  0
  2  3  1  0
  3  4  2  0
  3 18  1  0
  4  5  1  0
  5  6  1  0
  5 16  2  0
  6  7  1  0
  7  8  1  0
  9  8  1  6
  9 10  1  0
  9 12  1  0
  9 15  1  0
 10 11  1  0
 12 13  1  0
 13 14  1  0
 14 15  1  0
 16 17  1  0
 16 23  1  0
 17 18  2  0
 17 19  1  0
 19 20  2  3
 19 22  1  0
 20 21  1  0
 22 23  2  0
M  END
