
     RDKit          3D

 31 33  0  0  0  0  0  0  0  0999 V2000
   -5.2570    3.1570    0.2120 C   0  0  0  0  0  0  0  0  0  0  0  0
   -4.2320    2.0760    0.2170 C   0  0  0  0  0  0  0  0  0  0  0  0
   -4.5930    0.7760   -0.0690 C   0  0  0  0  0  0  0  0  0  0  0  0
   -3.6780   -0.2620   -0.0770 C   0  0  0  0  0  0  0  0  0  0  0  0
   -4.0900   -1.5210   -0.3680 N   0  0  0  0  0  0  0  0  0  0  0  0
   -3.1620   -2.4870   -0.3640 C   0  0  0  0  0  0  0  0  0  0  0  0
   -3.4820   -3.8100   -0.6480 C   0  0  0  0  0  0  0  0  0  0  0  0
   -4.6850   -4.0600   -0.9110 O   0  0  0  0  0  0  0  0  0  0  0  0
   -2.5090   -4.7270   -0.6270 N   0  0  0  0  0  0  0  0  0  0  0  0
   -1.2330   -4.4130   -0.3390 C   0  0  0  0  0  0  0  0  0  0  0  0
   -0.4090   -5.3900   -0.3550 O   0  0  0  0  0  0  0  0  0  0  0  0
   -0.8230   -3.1670   -0.0520 N   0  0  0  0  0  0  0  0  0  0  0  0
   -1.7750   -2.1880   -0.0590 C   0  0  0  0  0  0  0  0  0  0  0  0
   -1.3990   -0.9200    0.2270 N   0  0  0  0  0  0  0  0  0  0  0  0
   -0.0120   -0.6160    0.5290 C   0  0  0  0  0  0  0  0  0  0  0  0
    0.7790   -0.2430   -0.6750 C   0  0  2  0  0  0  0  0  0  0  0  0
    0.8560   -1.2170   -1.6460 O   0  0  0  0  0  0  0  0  0  0  0  0
    2.1320    0.2870   -0.2680 C   0  0  2  0  0  0  0  0  0  0  0  0
    2.7640    0.8780   -1.4040 O   0  0  0  0  0  0  0  0  0  0  0  0
    3.0410   -0.8050    0.1870 C   0  0  2  0  0  0  0  0  0  0  0  0
    2.6070   -1.4730    1.2980 O   0  0  0  0  0  0  0  0  0  0  0  0
    4.4210   -0.1800    0.4180 C   0  0  0  0  0  0  0  0  0  0  0  0
    4.7850    0.4690   -0.7410 O   0  0  0  0  0  0  0  0  0  0  0  0
    6.3090    1.1860   -0.5540 P   0  0  2  0  0  0  0  0  0  0  0  0
    6.7610    1.8070   -1.8510 O   0  0  0  0  0  0  0  0  0  0  0  0
    7.4340   -0.0100   -0.0890 O   0  0  0  0  0  0  0  0  0  0  0  0
    6.2230    2.4100    0.6100 O   0  0  0  0  0  0  0  0  0  0  0  0
   -2.3490    0.0310    0.2160 C   0  0  0  0  0  0  0  0  0  0  0  0
   -1.9690    1.3240    0.5040 C   0  0  0  0  0  0  0  0  0  0  0  0
   -2.9190    2.3340    0.5000 C   0  0  0  0  0  0  0  0  0  0  0  0
   -2.4830    3.7310    0.8160 C   0  0  0  0  0  0  0  0  0  0  0  0
  1  2  1  0
  2  3  2  0
  2 30  1  0
  3  4  1  0
  4  5  1  0
  4 28  2  0
  5  6  2  0
  6  7  1  0
  6 13  1  0
  7  8  2  0
  7  9  1  0
  9 10  1  0
 10 11  2  0
 10 12  1  0
 12 13  2  0
 13 14  1  0
 14 15  1  0
 14 28  1  0
 15 16  1  0
 16 17  1  6
 16 18  1  0
 18 19  1  6
 18 20  1  0
 20 21  1  1
 20 22  1  0
 22 23  1  0
 23 24  1  0
 24 25  2  0
 24 26  1  1
 24 27  1  0
 28 29  1  0
 29 30  2  0
 30 31  1  0
M  END
