
     RDKit          3D

 31 33  0  0  0  0  0  0  0  0999 V2000
   -4.8810   -1.3660   -3.1660 C   0  0  0  0  0  0  0  0  0  0  0  0
   -4.8130   -1.4620   -1.6630 C   0  0  1  0  0  0  0  0  0  0  0  0
   -3.4790   -1.0700   -1.1400 C   0  0  0  0  0  0  0  0  0  0  0  0
   -2.4010   -1.6050   -1.4820 O   0  0  0  0  0  0  0  0  0  0  0  0
   -3.6670   -0.0150   -0.2190 N   0  0  0  0  0  0  0  0  0  0  0  0
   -3.0550    0.9260    0.7030 C   0  0  0  0  0  0  0  0  0  0  0  0
   -1.6330    0.9990    0.9510 C   0  0  0  0  0  0  0  0  0  0  0  0
   -1.1370    1.8470    1.7750 O   0  0  0  0  0  0  0  0  0  0  0  0
   -0.6250    0.1940    0.3590 N   0  0  0  0  0  0  0  0  0  0  0  0
    0.7750    0.4410    0.7600 C   0  0  0  0  0  0  0  0  0  0  0  0
    1.6210   -0.5450   -0.0140 C   0  0  0  0  0  0  0  0  0  0  0  0
    2.9560   -0.3500    0.3310 O   0  0  0  0  0  0  0  0  0  0  0  0
    3.9620   -1.4690   -0.5420 P   0  0  0  0  0  0  0  0  0  0  0  0
    3.8890   -1.1860   -2.2330 O   0  0  0  0  0  0  0  0  0  0  0  0
    5.6680   -1.3890    0.1440 C   0  0  1  0  0  0  0  0  0  0  0  0
    6.6780   -1.3980   -0.9660 C   0  0  0  0  0  0  0  0  0  0  0  0
    8.0680   -1.3480   -0.3570 C   0  0  0  0  0  0  0  0  0  0  0  0
    8.0200   -0.6670    0.9880 C   0  0  0  0  0  0  0  0  0  0  0  0
    7.1110    0.3870    0.8830 O   0  0  0  0  0  0  0  0  0  0  0  0
    5.8300   -0.1230    0.9550 C   0  0  0  0  0  0  0  0  0  0  0  0
   -4.0000    1.6950    1.2710 C   0  0  0  0  0  0  0  0  0  0  0  0
   -3.8510    2.7460    2.2320 C   0  0  0  0  0  0  0  0  0  0  0  0
   -2.7180    3.2790    2.8550 N   0  0  0  0  0  0  0  0  0  0  0  0
   -4.9080    3.3790    2.6640 O   0  0  0  0  0  0  0  0  0  0  0  0
   -5.3060    1.3160    0.7630 N   0  0  0  0  0  0  0  0  0  0  0  0
   -6.5730    1.8390    1.0700 C   0  0  0  0  0  0  0  0  0  0  0  0
   -7.6010    1.3240    0.4760 O   0  0  0  0  0  0  0  0  0  0  0  0
   -6.9210    2.8390    1.9210 O   0  0  0  0  0  0  0  0  0  0  0  0
   -5.0560    0.2330   -0.1750 C   0  0  0  0  0  0  0  0  0  0  0  0
   -5.7370   -0.5660   -0.9790 C   0  0  0  0  0  0  0  0  0  0  0  0
   -7.1420   -0.5500   -1.1450 O   0  0  0  0  0  0  0  0  0  0  0  0
  2  1  1  6
  2  3  1  0
  2 30  1  0
  3  4  2  0
  3  5  1  0
  5  6  1  0
  5 29  1  0
  6  7  1  0
  6 21  2  0
  7  8  2  0
  7  9  1  0
  9 10  1  0
 10 11  1  0
 11 12  1  0
 12 13  1  0
 13 14  1  0
 15 13  1  6
 15 16  1  0
 15 20  1  0
 16 17  1  0
 17 18  1  0
 18 19  1  0
 19 20  1  0
 21 22  1  0
 21 25  1  0
 22 23  1  0
 22 24  2  0
 25 26  1  0
 25 29  1  0
 26 27  2  0
 26 28  1  0
 29 30  2  0
 30 31  1  0
M  END
