
     RDKit          3D

 31 33  0  0  0  0  0  0  0  0999 V2000
    8.1400   -0.1600    0.7540 O   0  0  0  0  0  0  0  0  0  0  0  0
    7.5440    0.4130   -0.1680 C   0  0  0  0  0  0  0  0  0  0  0  0
    8.2330    1.1800   -1.0930 O   0  0  0  0  0  0  0  0  0  0  0  0
    6.0940    0.3030   -0.3150 C   0  0  0  0  0  0  0  0  0  0  0  0
    5.3430   -0.4470    0.5720 C   0  0  0  0  0  0  0  0  0  0  0  0
    3.9550   -0.5430    0.4200 C   0  0  0  0  0  0  0  0  0  0  0  0
    3.2870    0.0830   -0.5900 C   0  0  0  0  0  0  0  0  0  0  0  0
    1.9010    0.0510   -0.8340 N   0  0  0  0  0  0  0  0  0  0  0  0
    0.9320   -0.6430   -0.0780 C   0  0  0  0  0  0  0  0  0  0  0  0
    1.2790   -1.3080    0.9110 O   0  0  0  0  0  0  0  0  0  0  0  0
   -0.5230   -0.5950   -0.4470 C   0  0  2  0  0  0  0  0  0  0  0  0
   -0.9630    0.8460   -0.4130 C   0  0  0  0  0  0  0  0  0  0  0  0
   -0.7670    1.4290    0.9700 C   0  0  0  0  0  0  0  0  0  0  0  0
   -1.3260    3.2080    0.9580 P   0  0  0  0  0  0  0  0  0  0  0  0
   -3.0370    3.3120    0.8510 O   0  0  0  0  0  0  0  0  0  0  0  0
   -0.5560    4.1200   -0.2830 O   0  0  0  0  0  0  0  0  0  0  0  0
   -1.2620   -1.3960    0.5050 N   0  0  0  0  0  0  0  0  0  0  0  0
   -2.6570   -1.5630    0.4460 C   0  0  0  0  0  0  0  0  0  0  0  0
   -3.4190   -1.0450   -0.4620 N   0  0  0  0  0  0  0  0  0  0  0  0
   -4.7820   -1.4110   -0.2290 C   0  0  0  0  0  0  0  0  0  0  0  0
   -5.9410   -1.1230   -0.8910 N   0  0  0  0  0  0  0  0  0  0  0  0
   -7.0890   -1.6300   -0.4080 C   0  0  0  0  0  0  0  0  0  0  0  0
   -8.1860   -1.3740   -1.0110 O   0  0  0  0  0  0  0  0  0  0  0  0
   -7.1540   -2.3850    0.6640 O   0  0  0  0  0  0  0  0  0  0  0  0
   -6.0750   -2.6960    1.3420 C   0  0  0  0  0  0  0  0  0  0  0  0
   -6.0620   -3.4030    2.3630 O   0  0  0  0  0  0  0  0  0  0  0  0
   -4.8490   -2.2050    0.8990 C   0  0  0  0  0  0  0  0  0  0  0  0
   -3.4770   -2.3380    1.3850 C   0  0  0  0  0  0  0  0  0  0  0  0
   -3.1270   -2.9860    2.3910 O   0  0  0  0  0  0  0  0  0  0  0  0
    4.0710    0.8290   -1.4670 C   0  0  0  0  0  0  0  0  0  0  0  0
    5.4350    0.9420   -1.3410 C   0  0  0  0  0  0  0  0  0  0  0  0
  1  2  2  0
  2  3  1  0
  2  4  1  0
  4  5  2  0
  4 31  1  0
  5  6  1  0
  6  7  2  0
  7  8  1  0
  7 30  1  0
  8  9  1  0
  9 10  2  0
  9 11  1  0
 11 12  1  1
 11 17  1  0
 12 13  1  0
 13 14  1  0
 14 15  1  0
 14 16  1  0
 17 18  1  0
 18 19  2  0
 18 28  1  0
 19 20  1  0
 20 21  1  0
 20 27  2  0
 21 22  1  0
 22 23  2  0
 22 24  1  0
 24 25  1  0
 25 26  2  0
 25 27  1  0
 27 28  1  0
 28 29  2  0
 30 31  2  0
M  END
