
     RDKit          3D

 31 33  0  0  0  0  0  0  0  0999 V2000
   -4.5110   -4.6090   -0.8570 O   0  0  0  0  0  0  0  0  0  0  0  0
   -5.5620   -3.9440   -0.8860 C   0  0  0  0  0  0  0  0  0  0  0  0
   -5.7090   -2.5320   -0.7860 C   0  0  0  0  0  0  0  0  0  0  0  0
   -4.7600   -1.6590   -0.6460 C   0  0  0  0  0  0  0  0  0  0  0  0
   -3.3640   -2.0010   -0.5650 C   0  0  0  0  0  0  0  0  0  0  0  0
   -2.4170   -1.1490   -0.4100 C   0  0  0  0  0  0  0  0  0  0  0  0
   -2.4540    0.3050   -0.2670 C   0  0  0  0  0  0  0  0  0  0  0  0
   -3.3390    1.0440    0.3640 C   0  0  0  0  0  0  0  0  0  0  0  0
   -3.2220    2.5020    0.4000 C   0  0  0  0  0  0  0  0  0  0  0  0
   -2.3430    3.2740   -0.1120 N   0  0  0  0  0  0  0  0  0  0  0  0
   -2.5940    4.5840    0.1520 O   0  0  0  0  0  0  0  0  0  0  0  0
   -3.9400    4.6660    0.5920 C   0  0  0  0  0  0  0  0  0  0  0  0
   -4.1370    3.3500    1.0600 O   0  0  0  0  0  0  0  0  0  0  0  0
   -1.2420    0.7910   -0.8870 N   0  0  0  0  0  0  0  0  0  0  0  0
   -0.5010   -0.3550   -1.3770 C   0  0  0  0  0  0  0  0  0  0  0  0
    0.2810   -0.4220   -2.3130 O   0  0  0  0  0  0  0  0  0  0  0  0
   -0.9420   -1.4380   -0.4380 C   0  0  1  0  0  0  0  0  0  0  0  0
   -0.2660   -1.2360    0.8750 C   0  0  0  0  0  0  0  0  0  0  0  0
    0.9450   -2.0110    0.7190 N   0  0  0  0  0  0  0  0  0  0  0  0
    2.1780   -1.7800    1.4380 C   0  0  0  0  0  0  0  0  0  0  0  0
    3.0710   -0.8390    0.7140 C   0  0  0  0  0  0  0  0  0  0  0  0
    2.6980   -0.3630   -0.3810 O   0  0  0  0  0  0  0  0  0  0  0  0
    4.3260   -0.4930    1.2690 N   0  0  0  0  0  0  0  0  0  0  0  0
    5.1670    0.4290    0.5380 C   0  0  0  0  0  0  0  0  0  0  0  0
    4.5230    1.7790    0.3440 C   0  0  0  0  0  0  0  0  0  0  0  0
    5.7710    2.8080   -0.6140 P   0  0  0  0  0  0  0  0  0  0  0  0
    6.9040    3.4580    0.5310 O   0  0  0  0  0  0  0  0  0  0  0  0
    6.6400    1.7390   -1.6680 O   0  0  0  0  0  0  0  0  0  0  0  0
    0.6410   -2.9980   -0.2560 C   0  0  0  0  0  0  0  0  0  0  0  0
    1.4180   -3.9610   -0.5250 O   0  0  0  0  0  0  0  0  0  0  0  0
   -0.6100   -2.7160   -0.8270 O   0  0  0  0  0  0  0  0  0  0  0  0
  1  2  2  0
  2  3  1  0
  3  4  2  3
  4  5  1  0
  5  6  2  3
  6  7  1  0
  6 17  1  0
  7  8  2  3
  7 14  1  0
  8  9  1  0
  9 10  2  0
  9 13  1  0
 10 11  1  0
 11 12  1  0
 12 13  1  0
 14 15  1  0
 15 16  2  0
 15 17  1  0
 17 18  1  1
 17 31  1  0
 18 19  1  0
 19 20  1  0
 19 29  1  0
 20 21  1  0
 21 22  2  0
 21 23  1  0
 23 24  1  0
 24 25  1  0
 25 26  1  0
 26 27  1  0
 26 28  1  0
 29 30  2  0
 29 31  1  0
M  END
