
     RDKit          3D

 30 32  0  0  0  0  0  0  0  0999 V2000
   -3.5220    3.9650   -1.3160 O   0  0  0  0  0  0  0  0  0  0  0  0
   -3.0850    2.8620   -0.9260 C   0  0  0  0  0  0  0  0  0  0  0  0
   -2.6270    1.8700   -1.8730 N   0  0  0  0  0  0  0  0  0  0  0  0
   -2.3980    0.5470   -1.4310 C   0  0  0  0  0  0  0  0  0  0  0  0
   -2.6220   -0.4080   -2.1850 O   0  0  0  0  0  0  0  0  0  0  0  0
   -1.8800    0.4050   -0.0140 C   0  0  2  0  0  0  0  0  0  0  0  0
   -1.8050   -1.0150    0.3390 C   0  0  0  0  0  0  0  0  0  0  0  0
   -2.8320   -1.5020    1.0040 O   0  0  0  0  0  0  0  0  0  0  0  0
   -0.8240   -1.9400    0.0890 N   0  0  0  0  0  0  0  0  0  0  0  0
   -1.1410   -3.3360    0.6120 C   0  0  0  0  0  0  0  0  0  0  0  0
   -1.5020   -4.1120   -0.6190 C   0  0  0  0  0  0  0  0  0  0  0  0
   -0.4640   -3.9610   -1.5440 O   0  0  0  0  0  0  0  0  0  0  0  0
    0.6690   -3.4520   -0.9730 C   0  0  0  0  0  0  0  0  0  0  0  0
    0.4620   -1.9530   -0.5340 C   0  0  1  0  0  0  0  0  0  0  0  0
    0.7100   -1.1940   -1.7600 C   0  0  0  0  0  0  0  0  0  0  0  0
    0.6760    0.1670   -1.7600 O   0  0  0  0  0  0  0  0  0  0  0  0
    1.5540   -1.7640    0.5200 C   0  0  0  0  0  0  0  0  0  0  0  0
    2.8700   -1.7300    0.1480 N   0  0  0  0  0  0  0  0  0  0  0  0
    3.5730   -0.6980   -0.4480 C   0  0  0  0  0  0  0  0  0  0  0  0
    3.8210    0.5080    0.4500 C   0  0  0  0  0  0  0  0  0  0  0  0
    4.5820    1.5180   -0.3800 C   0  0  0  0  0  0  0  0  0  0  0  0
    4.9710    3.0310    0.6240 P   0  0  0  0  0  0  0  0  0  0  0  0
    4.3190    2.8530    2.2240 O   0  0  0  0  0  0  0  0  0  0  0  0
    4.4030    4.4780   -0.1300 O   0  0  0  0  0  0  0  0  0  0  0  0
   -2.8100    1.1660    0.8090 N   0  0  0  0  0  0  0  0  0  0  0  0
   -3.5940    0.8470    1.9510 C   0  0  0  0  0  0  0  0  0  0  0  0
   -3.4310    0.0270    2.8790 O   0  0  0  0  0  0  0  0  0  0  0  0
   -4.8240    1.7350    1.9220 C   0  0  0  0  0  0  0  0  0  0  0  0
   -4.3130    2.9720    1.2160 C   0  0  0  0  0  0  0  0  0  0  0  0
   -3.0320    2.5580    0.5140 C   0  0  2  0  0  0  0  0  0  0  0  0
  1  2  2  0
  2  3  1  0
  2 30  1  0
  3  4  1  0
  4  5  2  0
  4  6  1  0
  6  7  1  1
  6 25  1  0
  7  8  2  0
  7  9  1  0
  9 10  1  0
  9 14  1  0
 10 11  1  0
 11 12  1  0
 12 13  1  0
 13 14  1  0
 14 15  1  6
 14 17  1  0
 15 16  1  0
 17 18  1  0
 18 19  1  0
 19 20  1  0
 20 21  1  0
 21 22  1  0
 22 23  1  0
 22 24  1  0
 25 26  1  0
 25 30  1  0
 26 27  2  0
 26 28  1  0
 28 29  1  0
 30 29  1  1
M  END
