
     RDKit          3D

 23 25  0  0  0  0  0  0  0  0999 V2000
   -6.3460   -0.7820   -1.1540 C   0  0  0  0  0  0  0  0  0  0  0  0
   -6.5190    0.1280    0.0310 C   0  0  0  0  0  0  0  0  0  0  0  0
   -5.8010   -0.3490    1.2550 C   0  0  0  0  0  0  0  0  0  0  0  0
   -4.3210   -0.4890    1.0220 C   0  0  0  0  0  0  0  0  0  0  0  0
   -3.7590   -1.6870    0.6150 C   0  0  0  0  0  0  0  0  0  0  0  0
   -2.4130   -1.4370    0.5060 C   0  0  0  0  0  0  0  0  0  0  0  0
   -2.1920   -0.0870    0.8470 C   0  0  0  0  0  0  0  0  0  0  0  0
   -0.8300    0.5350    0.8410 C   0  0  2  0  0  0  0  0  0  0  0  0
   -0.8170    1.8560    1.5460 C   0  0  0  0  0  0  0  0  0  0  0  0
    0.4490    2.5830    1.1520 C   0  0  0  0  0  0  0  0  0  0  0  0
    1.4710    1.4860    0.7590 C   0  0  0  0  0  0  0  0  0  0  0  0
    1.1310    0.9490   -0.4990 N   0  0  0  0  0  0  0  0  0  0  0  0
    1.8300   -0.2240   -0.8300 C   0  0  0  0  0  0  0  0  0  0  0  0
    3.3020   -0.1620   -0.6970 C   0  0  0  0  0  0  0  0  0  0  0  0
    4.1970    0.7370   -1.2150 C   0  0  0  0  0  0  0  0  0  0  0  0
    3.8300    1.9280   -1.9770 C   0  0  0  0  0  0  0  0  0  0  0  0
    5.4320    0.3520   -0.8800 N   0  0  0  0  0  0  0  0  0  0  0  0
    5.3610   -0.7430   -0.1790 N   0  0  0  0  0  0  0  0  0  0  0  0
    6.4810   -1.4730    0.3540 C   0  0  0  0  0  0  0  0  0  0  0  0
    4.0620   -1.1060   -0.0340 C   0  0  0  0  0  0  0  0  0  0  0  0
    3.6200   -2.3200    0.6640 C   0  0  0  0  0  0  0  0  0  0  0  0
   -0.3110    0.6910   -0.5810 C   0  0  0  0  0  0  0  0  0  0  0  0
   -3.3620    0.3890    1.1360 O   0  0  0  0  0  0  0  0  0  0  0  0
  1  2  1  0
  2  3  1  0
  3  4  1  0
  4  5  2  0
  4 23  1  0
  5  6  1  0
  6  7  2  0
  8  7  1  6
  7 23  1  0
  8  9  1  0
  8 22  1  0
  9 10  1  0
 10 11  1  0
 11 12  1  0
 12 13  1  0
 12 22  1  0
 13 14  1  0
 14 15  1  0
 14 20  2  0
 15 16  1  0
 15 17  2  0
 17 18  1  0
 18 19  1  0
 18 20  1  0
 20 21  1  0
M  END
