
     RDKit          3D

 23 25  0  0  0  0  0  0  0  0999 V2000
   -4.4550    3.0720   -0.9110 C   0  0  0  0  0  0  0  0  0  0  0  0
   -3.1830    2.5430   -0.3970 C   0  0  1  0  0  0  0  0  0  0  0  0
   -2.5600    3.3880    0.6760 C   0  0  0  0  0  0  0  0  0  0  0  0
   -1.2990    2.7860    1.2200 C   0  0  0  0  0  0  0  0  0  0  0  0
   -0.9440    1.5030    0.6570 N   0  0  0  0  0  0  0  0  0  0  0  0
   -1.8620    0.6730    0.1720 C   0  0  0  0  0  0  0  0  0  0  0  0
   -1.5350   -0.5990   -0.3190 C   0  0  0  0  0  0  0  0  0  0  0  0
   -2.5660   -1.3210   -1.0930 C   0  0  0  0  0  0  0  0  0  0  0  0
   -3.3310   -2.2970   -0.5110 N   0  0  0  0  0  0  0  0  0  0  0  0
   -2.9770   -3.1830    0.5000 C   0  0  0  0  0  0  0  0  0  0  0  0
   -4.7100   -2.3820   -0.8930 C   0  0  0  0  0  0  0  0  0  0  0  0
   -0.2200   -0.9670   -0.2860 C   0  0  0  0  0  0  0  0  0  0  0  0
    0.7620   -0.1050    0.2100 C   0  0  0  0  0  0  0  0  0  0  0  0
    2.1670   -0.3370   -0.0050 C   0  0  0  0  0  0  0  0  0  0  0  0
    3.1380   -0.6050    1.0430 C   0  0  0  0  0  0  0  0  0  0  0  0
    4.4380   -0.7570    0.6160 N   0  0  0  0  0  0  0  0  0  0  0  0
    5.5440   -1.1020    1.4130 C   0  0  0  0  0  0  0  0  0  0  0  0
    6.4950   -1.6160    0.2630 C   0  0  0  0  0  0  0  0  0  0  0  0
    6.1340   -0.7160   -0.9390 C   0  0  0  0  0  0  0  0  0  0  0  0
    5.0350    0.1380   -0.3270 C   0  0  0  0  0  0  0  0  0  0  0  0
    0.3800    1.1410    0.6880 C   0  0  0  0  0  0  0  0  0  0  0  0
    1.2610    1.9430    1.1590 O   0  0  0  0  0  0  0  0  0  0  0  0
   -3.3180    1.0920    0.1420 C   0  0  0  0  0  0  0  0  0  0  0  0
  2  1  1  1
  2  3  1  0
  2 23  1  0
  3  4  1  0
  4  5  1  0
  5  6  1  0
  5 21  1  0
  6  7  2  0
  6 23  1  0
  7  8  1  0
  7 12  1  0
  8  9  1  0
  9 10  1  0
  9 11  1  0
 12 13  2  0
 13 14  1  0
 13 21  1  0
 14 15  1  0
 15 16  1  0
 16 17  1  0
 16 20  1  0
 17 18  1  0
 18 19  1  0
 19 20  1  0
 21 22  2  0
M  END
