
     RDKit          3D

 34 37  0  0  0  0  0  0  0  0999 V2000
   10.1210    1.0970   -0.7240 C   0  0  0  0  0  0  0  0  0  0  0  0
    8.8510    0.3220   -0.4740 C   0  0  0  0  0  0  0  0  0  0  0  0
    8.8120   -1.0240   -0.2220 C   0  0  0  0  0  0  0  0  0  0  0  0
    7.4860   -1.3260   -0.0490 C   0  0  0  0  0  0  0  0  0  0  0  0
    6.7600   -0.1780   -0.1980 C   0  0  0  0  0  0  0  0  0  0  0  0
    5.2820   -0.0440   -0.1060 C   0  0  2  0  0  0  0  0  0  0  0  0
    4.8820    1.4250   -0.0820 C   0  0  0  0  0  0  0  0  0  0  0  0
    4.7380   -0.7750    1.0200 N   0  0  0  0  0  0  0  0  0  0  0  0
    3.6610   -0.0570    1.6620 C   0  0  0  0  0  0  0  0  0  0  0  0
    2.3960   -0.4000    0.9660 C   0  0  0  0  0  0  0  0  0  0  0  0
    2.4360   -1.2290    0.0090 O   0  0  0  0  0  0  0  0  0  0  0  0
    1.1470    0.1310    1.2920 N   0  0  0  0  0  0  0  0  0  0  0  0
   -0.0890   -0.2020    0.6490 C   0  0  0  0  0  0  0  0  0  0  0  0
   -1.3300    0.3000    0.8730 C   0  0  0  0  0  0  0  0  0  0  0  0
   -2.2230   -0.3210    0.0370 C   0  0  0  0  0  0  0  0  0  0  0  0
   -3.6200   -0.1190   -0.1100 N   0  0  0  0  0  0  0  0  0  0  0  0
   -4.3840   -0.8590   -1.1110 C   0  0  0  0  0  0  0  0  0  0  0  0
   -5.6110   -0.8820   -1.0410 N   0  0  0  0  0  0  0  0  0  0  0  0
   -6.6420   -1.4280   -1.7480 C   0  0  0  0  0  0  0  0  0  0  0  0
   -7.3360   -0.7940   -2.7090 C   0  0  0  0  0  0  0  0  0  0  0  0
   -8.3570   -1.7510   -3.2020 C   0  0  0  0  0  0  0  0  0  0  0  0
   -8.1740   -2.9540   -2.4500 N   0  0  0  0  0  0  0  0  0  0  0  0
   -7.2150   -2.7740   -1.6380 C   0  0  0  0  0  0  0  0  0  0  0  0
   -4.4090    0.7740    0.6550 C   0  0  0  0  0  0  0  0  0  0  0  0
   -4.9690    1.8560   -0.0300 C   0  0  0  0  0  0  0  0  0  0  0  0
   -5.7910    2.7920    0.5600 C   0  0  0  0  0  0  0  0  0  0  0  0
   -6.4580    4.1100   -0.3530 Cl  0  0  0  0  0  0  0  0  0  0  0  0
   -6.0910    2.6760    1.9020 C   0  0  0  0  0  0  0  0  0  0  0  0
   -5.5570    1.6250    2.6060 C   0  0  0  0  0  0  0  0  0  0  0  0
   -4.7230    0.6850    1.9750 C   0  0  0  0  0  0  0  0  0  0  0  0
   -4.2320   -0.4530    2.7810 C   0  0  0  0  0  0  0  0  0  0  0  0
   -1.4810   -1.2070   -0.6900 N   0  0  0  0  0  0  0  0  0  0  0  0
   -0.2190   -1.1250   -0.3160 N   0  0  0  0  0  0  0  0  0  0  0  0
    7.6030    0.8170   -0.4560 N   0  0  0  0  0  0  0  0  0  0  0  0
  1  2  1  0
  2  3  2  0
  2 34  1  0
  3  4  1  0
  4  5  2  0
  5  6  1  0
  5 34  1  0
  6  7  1  1
  6  8  1  0
  8  9  1  0
  9 10  1  0
 10 11  2  0
 10 12  1  0
 12 13  1  0
 13 14  1  0
 13 33  2  0
 14 15  2  0
 15 16  1  0
 15 32  1  0
 16 17  1  0
 16 24  1  0
 17 18  2  3
 18 19  1  0
 19 20  2  0
 19 23  1  0
 20 21  1  0
 21 22  1  0
 22 23  2  0
 24 25  2  0
 24 30  1  0
 25 26  1  0
 26 27  1  0
 26 28  2  0
 28 29  1  0
 29 30  2  0
 30 31  1  0
 32 33  1  0
M  CHG  1   8   1
M  END
