
     RDKit          3D

 35 39  0  0  0  0  0  0  0  0999 V2000
    4.2910   -3.8340    0.3200 C   0  0  0  0  0  0  0  0  0  0  0  0
    3.5090   -2.5610    0.1400 N   0  0  0  0  0  0  0  0  0  0  0  0
    2.2790   -2.5710    0.7720 C   0  0  0  0  0  0  0  0  0  0  0  0
    1.2450   -1.8330    0.9440 C   0  0  0  0  0  0  0  0  0  0  0  0
    0.8740   -0.5300    0.5050 C   0  0  0  0  0  0  0  0  0  0  0  0
   -0.2970   -0.1270    0.9100 C   0  0  0  0  0  0  0  0  0  0  0  0
   -1.0020    1.1350    0.6600 C   0  0  2  0  0  0  0  0  0  0  0  0
   -1.1160    1.8400    2.0570 C   0  0  0  0  0  0  0  0  0  0  0  0
   -1.5770    3.2930    1.8290 C   0  0  0  0  0  0  0  0  0  0  0  0
   -3.0250    3.1040    1.4050 C   0  0  0  0  0  0  0  0  0  0  0  0
   -3.9380    3.8820    1.8670 C   0  0  0  0  0  0  0  0  0  0  0  0
   -3.5820    4.9290    2.7800 N   0  0  0  0  0  0  0  0  0  0  0  0
   -3.2490    2.0130    0.4680 C   0  0  0  0  0  0  0  0  0  0  0  0
   -2.3190    1.1030    0.1120 C   0  0  0  0  0  0  0  0  0  0  0  0
   -2.3870   -0.0340   -0.7860 C   0  0  0  0  0  0  0  0  0  0  0  0
   -1.2760   -0.1370   -1.6340 C   0  0  0  0  0  0  0  0  0  0  0  0
   -0.4200    0.8120   -2.0750 C   0  0  0  0  0  0  0  0  0  0  0  0
    0.5770    0.2170   -2.8730 C   0  0  0  0  0  0  0  0  0  0  0  0
    0.2620   -1.1150   -2.8790 C   0  0  0  0  0  0  0  0  0  0  0  0
   -0.8340   -1.2960   -2.1420 N   0  0  0  0  0  0  0  0  0  0  0  0
   -3.3730   -0.9520   -0.9490 C   0  0  0  0  0  0  0  0  0  0  0  0
   -4.7030   -1.1530   -0.3330 C   0  0  0  0  0  0  0  0  0  0  0  0
   -5.6290   -0.2580    0.0520 C   0  0  0  0  0  0  0  0  0  0  0  0
   -5.6530    1.2260    0.0030 C   0  0  0  0  0  0  0  0  0  0  0  0
   -4.7120    2.1300    0.1660 C   0  0  0  0  0  0  0  0  0  0  0  0
   -0.8300   -1.2010    1.7020 C   0  0  0  0  0  0  0  0  0  0  0  0
   -1.9510   -1.2730    2.3110 O   0  0  0  0  0  0  0  0  0  0  0  0
    0.0930   -2.2740    1.7470 N   0  0  0  0  0  0  0  0  0  0  0  0
    4.1230   -1.5750   -0.6340 C   0  0  0  0  0  0  0  0  0  0  0  0
    3.5270   -0.4470   -0.8280 O   0  0  0  0  0  0  0  0  0  0  0  0
    5.4100   -1.6310   -1.2950 C   0  0  0  0  0  0  0  0  0  0  0  0
    6.3390   -2.6190   -1.3660 C   0  0  0  0  0  0  0  0  0  0  0  0
    7.4310   -2.1870   -2.1420 C   0  0  0  0  0  0  0  0  0  0  0  0
    7.1270   -0.9200   -2.5290 C   0  0  0  0  0  0  0  0  0  0  0  0
    5.9460   -0.5900   -2.0360 N   0  0  0  0  0  0  0  0  0  0  0  0
  1  2  1  0
  2  3  1  0
  2 29  1  0
  3  4  2  3
  4  5  1  0
  4 28  1  0
  5  6  2  0
  7  6  1  1
  6 26  1  0
  7  8  1  0
  7 14  1  0
  8  9  1  0
  9 10  1  0
 10 11  2  3
 10 13  1  0
 11 12  1  0
 13 14  2  0
 13 25  1  0
 14 15  1  0
 15 16  1  0
 15 21  2  0
 16 17  2  0
 16 20  1  0
 17 18  1  0
 18 19  2  0
 19 20  1  0
 21 22  1  0
 22 23  2  0
 23 24  1  0
 24 25  2  0
 26 27  2  0
 26 28  1  0
 29 30  2  0
 29 31  1  0
 31 32  2  0
 31 35  1  0
 32 33  1  0
 33 34  2  0
 34 35  1  0
M  CHG  1  12   1
M  END
