
     RDKit          3D

 35 39  0  0  0  0  0  0  0  0999 V2000
   -6.4600    3.7660    2.6900 C   0  0  0  0  0  0  0  0  0  0  0  0
   -5.7900    3.8260    1.4270 N   0  0  0  0  0  0  0  0  0  0  0  0
   -4.6290    3.0770    1.1010 C   0  0  0  0  0  0  0  0  0  0  0  0
   -4.0500    2.2120    2.0060 C   0  0  0  0  0  0  0  0  0  0  0  0
   -2.9060    1.4780    1.6770 C   0  0  0  0  0  0  0  0  0  0  0  0
   -2.3150    1.5910    0.4420 C   0  0  0  0  0  0  0  0  0  0  0  0
   -1.0860    0.8120    0.0720 C   0  0  1  0  0  0  0  0  0  0  0  0
   -0.1000    0.8070    1.1200 N   0  0  0  0  0  0  0  0  0  0  0  0
    1.1710    1.4020    0.9840 C   0  0  0  0  0  0  0  0  0  0  0  0
    1.4660    1.9660   -0.0930 O   0  0  0  0  0  0  0  0  0  0  0  0
    2.0770    1.3490    2.0500 N   0  0  0  0  0  0  0  0  0  0  0  0
    3.3840    1.9580    1.9220 C   0  0  0  0  0  0  0  0  0  0  0  0
    4.2100    1.0710    1.0620 C   0  0  0  0  0  0  0  0  0  0  0  0
    4.5140    1.4170   -0.2330 C   0  0  0  0  0  0  0  0  0  0  0  0
    5.2740    0.5960   -1.0310 C   0  0  0  0  0  0  0  0  0  0  0  0
    5.7780   -0.6300   -0.5770 C   0  0  0  0  0  0  0  0  0  0  0  0
    5.4630   -0.9590    0.7250 C   0  0  0  0  0  0  0  0  0  0  0  0
    4.6940   -0.1290    1.5360 C   0  0  0  0  0  0  0  0  0  0  0  0
    5.9660   -2.2080    1.2270 N   0  0  0  0  0  0  0  0  0  0  0  0
    6.7480   -2.9850    0.3180 C   0  0  0  0  0  0  0  0  0  0  0  0
    6.7480   -4.2230    0.4160 O   0  0  0  0  0  0  0  0  0  0  0  0
    7.5160   -2.2050   -0.6950 C   0  0  0  0  0  0  0  0  0  0  0  0
    6.5510   -1.4350   -1.4490 N   0  0  0  0  0  0  0  0  0  0  0  0
   -1.4840   -0.5420   -0.3580 C   0  0  0  0  0  0  0  0  0  0  0  0
   -1.7420   -1.5370    0.5580 C   0  0  0  0  0  0  0  0  0  0  0  0
   -2.1130   -2.7820    0.1330 C   0  0  0  0  0  0  0  0  0  0  0  0
   -2.2410   -3.0860   -1.2010 C   0  0  0  0  0  0  0  0  0  0  0  0
   -2.6460   -4.4520   -1.5910 C   0  0  2  0  0  0  0  0  0  0  0  0
   -1.9310   -5.0460   -2.7910 C   0  0  0  0  0  0  0  0  0  0  0  0
   -3.3680   -4.6680   -2.8780 C   0  0  0  0  0  0  0  0  0  0  0  0
   -1.9870   -2.1030   -2.1420 C   0  0  0  0  0  0  0  0  0  0  0  0
   -1.6120   -0.8440   -1.7180 C   0  0  0  0  0  0  0  0  0  0  0  0
   -2.8930    2.4560   -0.4630 C   0  0  0  0  0  0  0  0  0  0  0  0
   -4.0320    3.1880   -0.1370 C   0  0  0  0  0  0  0  0  0  0  0  0
   -4.6570    4.1230   -1.1140 C   0  0  0  0  0  0  0  0  0  0  0  0
  1  2  1  0
  2  3  1  0
  3  4  2  0
  3 34  1  0
  4  5  1  0
  5  6  2  0
  6  7  1  0
  6 33  1  0
  7  8  1  1
  7 24  1  0
  8  9  1  0
  9 10  2  0
  9 11  1  0
 11 12  1  0
 12 13  1  0
 13 14  2  0
 13 18  1  0
 14 15  1  0
 15 16  2  0
 16 17  1  0
 16 23  1  0
 17 18  2  0
 17 19  1  0
 19 20  1  0
 20 21  2  0
 20 22  1  0
 22 23  1  0
 24 25  2  0
 24 32  1  0
 25 26  1  0
 26 27  2  0
 28 27  1  6
 27 31  1  0
 28 29  1  0
 28 30  1  0
 29 30  1  0
 31 32  2  0
 33 34  2  0
 34 35  1  0
M  CHG  1  23   1
M  END
