
     RDKit          3D

 35 39  0  0  0  0  0  0  0  0999 V2000
    8.5330   -1.9350    0.1590 C   0  0  0  0  0  0  0  0  0  0  0  0
    7.2350   -1.1960    0.1400 C   0  0  0  0  0  0  0  0  0  0  0  0
    6.0530   -1.8240    0.4800 C   0  0  0  0  0  0  0  0  0  0  0  0
    4.8810   -1.0800    0.4420 C   0  0  0  0  0  0  0  0  0  0  0  0
    3.6730   -1.6280    0.7630 C   0  0  0  0  0  0  0  0  0  0  0  0
    2.4500   -0.9440    0.7490 C   0  0  0  0  0  0  0  0  0  0  0  0
    1.2700   -1.6120    1.1080 N   0  0  0  0  0  0  0  0  0  0  0  0
   -0.0420   -1.1180    1.0240 C   0  0  0  0  0  0  0  0  0  0  0  0
   -0.2370    0.0330    0.5870 O   0  0  0  0  0  0  0  0  0  0  0  0
   -1.2210   -1.9370    1.4460 C   0  0  0  0  0  0  0  0  0  0  0  0
   -2.5120   -1.2800    1.1110 C   0  0  0  0  0  0  0  0  0  0  0  0
   -2.6680   -1.1260   -0.3600 C   0  0  0  0  0  0  0  0  0  0  0  0
   -3.9820   -0.4630   -0.7310 C   0  0  2  0  0  0  0  0  0  0  0  0
   -4.1080    0.9070   -0.1410 C   0  0  0  0  0  0  0  0  0  0  0  0
   -5.4960    1.4210   -0.5460 C   0  0  0  0  0  0  0  0  0  0  0  0
   -6.4960    0.7290    0.2480 N   0  0  1  0  0  0  0  0  0  0  0  0
   -7.7680    0.6640   -0.4060 C   0  0  1  0  0  0  0  0  0  0  0  0
   -8.7220   -0.1390    0.4440 C   0  0  0  0  0  0  0  0  0  0  0  0
   -8.3270    2.0440   -0.5260 C   0  0  0  0  0  0  0  0  0  0  0  0
   -9.5880    2.2490   -1.1420 N   0  0  0  0  0  0  0  0  0  0  0  0
   -7.7260    3.0640   -0.1010 O   0  0  0  0  0  0  0  0  0  0  0  0
   -6.0250   -0.5500    0.7190 C   0  0  0  0  0  0  0  0  0  0  0  0
   -5.1820   -1.2640   -0.3320 C   0  0  0  0  0  0  0  0  0  0  0  0
    2.5330    0.3730    0.3760 C   0  0  0  0  0  0  0  0  0  0  0  0
    3.7530    0.9830    0.0360 C   0  0  0  0  0  0  0  0  0  0  0  0
    4.8940    0.2490    0.0750 C   0  0  0  0  0  0  0  0  0  0  0  0
    6.0970    0.8590   -0.2630 C   0  0  0  0  0  0  0  0  0  0  0  0
    6.3810    2.1050   -0.6450 N   0  0  0  0  0  0  0  0  0  0  0  0
    7.6940    2.2620   -0.8730 C   0  0  0  0  0  0  0  0  0  0  0  0
    8.4850    3.2760   -1.2630 N   0  0  0  0  0  0  0  0  0  0  0  0
    9.8150    3.1760   -1.4240 C   0  0  0  0  0  0  0  0  0  0  0  0
   10.4010    1.9570   -1.1720 C   0  0  0  0  0  0  0  0  0  0  0  0
    9.6280    0.8740   -0.7660 C   0  0  0  0  0  0  0  0  0  0  0  0
    8.2650    1.0130   -0.6110 C   0  0  0  0  0  0  0  0  0  0  0  0
    7.2600    0.1320   -0.2280 C   0  0  0  0  0  0  0  0  0  0  0  0
  1  2  1  0
  2  3  2  0
  2 35  1  0
  3  4  1  0
  4  5  2  0
  4 26  1  0
  5  6  1  0
  6  7  1  0
  6 24  2  0
  7  8  1  0
  8  9  2  0
  8 10  1  0
 10 11  1  0
 11 12  1  0
 13 12  1  1
 13 14  1  0
 13 23  1  0
 14 15  1  0
 16 15  1  6
 16 17  1  0
 16 22  1  0
 17 18  1  1
 17 19  1  0
 19 20  1  0
 19 21  2  0
 22 23  1  0
 24 25  1  0
 25 26  2  0
 26 27  1  0
 27 28  1  0
 27 35  2  0
 28 29  1  0
 29 30  2  0
 29 34  1  0
 30 31  1  0
 31 32  2  0
 32 33  1  0
 33 34  2  0
 34 35  1  0
M  CHG  1  16   1
M  END
