
     RDKit          3D

 35 39  0  0  0  0  0  0  0  0999 V2000
   -2.6070   -5.2030   -2.9140 C   0  0  0  0  0  0  0  0  0  0  0  0
   -1.6060   -4.6510   -2.2430 C   0  0  0  0  0  0  0  0  0  0  0  0
   -0.7430   -3.6100   -2.8320 C   0  0  0  0  0  0  0  0  0  0  0  0
   -0.7100   -2.3940   -2.1960 O   0  0  0  0  0  0  0  0  0  0  0  0
   -1.6600   -1.4640   -1.9250 C   0  0  0  0  0  0  0  0  0  0  0  0
   -2.9720   -1.6090   -2.3000 C   0  0  0  0  0  0  0  0  0  0  0  0
   -3.9260   -0.6440   -2.0120 C   0  0  0  0  0  0  0  0  0  0  0  0
   -3.5690    0.5020   -1.3320 C   0  0  0  0  0  0  0  0  0  0  0  0
   -2.2630    0.6310   -0.9680 C   0  0  0  0  0  0  0  0  0  0  0  0
   -1.2830   -0.2990   -1.2310 C   0  0  0  0  0  0  0  0  0  0  0  0
    0.0630   -0.0910   -0.8160 N   0  0  0  0  0  0  0  0  0  0  0  0
    0.5290   -0.5330    0.4580 C   0  0  0  0  0  0  0  0  0  0  0  0
   -0.2920   -1.1050    1.1840 O   0  0  0  0  0  0  0  0  0  0  0  0
    1.8610   -0.3320    0.8820 N   0  0  0  0  0  0  0  0  0  0  0  0
    2.3500   -0.7540    2.1270 C   0  0  0  0  0  0  0  0  0  0  0  0
    1.6880   -1.3800    3.1410 C   0  0  0  0  0  0  0  0  0  0  0  0
    2.5930   -1.5650    4.1330 N   0  0  0  0  0  0  0  0  0  0  0  0
    3.7600   -1.0770    3.7540 N   0  0  0  0  0  0  0  0  0  0  0  0
    3.6800   -0.5620    2.5240 C   0  0  0  0  0  0  0  0  0  0  0  0
    4.7840    0.0570    1.8160 C   0  0  0  0  0  0  0  0  0  0  0  0
    5.5760    0.9910    2.4900 C   0  0  0  0  0  0  0  0  0  0  0  0
    6.6480    1.6140    1.8820 C   0  0  0  0  0  0  0  0  0  0  0  0
    6.9700    1.3260    0.5750 C   0  0  0  0  0  0  0  0  0  0  0  0
    6.2080    0.4100   -0.1140 C   0  0  0  0  0  0  0  0  0  0  0  0
    6.5680    0.1090   -1.5280 C   0  0  0  0  0  0  0  0  0  0  0  0
    5.1340   -0.2060    0.5110 C   0  0  0  0  0  0  0  0  0  0  0  0
   -1.8310    1.8590   -0.2280 C   0  0  0  0  0  0  0  0  0  0  0  0
   -2.8910    2.2040    0.7550 C   0  0  0  0  0  0  0  0  0  0  0  0
   -2.5660    2.6580    2.0240 C   0  0  0  0  0  0  0  0  0  0  0  0
   -3.5440    2.9820    2.9490 C   0  0  0  0  0  0  0  0  0  0  0  0
   -4.8740    2.8390    2.5700 C   0  0  0  0  0  0  0  0  0  0  0  0
   -5.1620    2.3870    1.3040 C   0  0  0  0  0  0  0  0  0  0  0  0
   -4.2070    2.0580    0.3670 C   0  0  0  0  0  0  0  0  0  0  0  0
   -4.5470    1.5700   -0.9980 C   0  0  1  0  0  0  0  0  0  0  0  0
   -4.3550    2.6630   -1.9530 N   0  0  0  0  0  0  0  0  0  0  0  0
  1  2  2  0
  2  3  1  0
  3  4  1  0
  4  5  1  0
  5  6  2  0
  5 10  1  0
  6  7  1  0
  7  8  2  0
  8  9  1  0
  8 34  1  0
  9 10  2  0
  9 27  1  0
 10 11  1  0
 11 12  1  0
 12 13  2  0
 12 14  1  0
 14 15  1  0
 15 16  2  0
 15 19  1  0
 16 17  1  0
 17 18  1  0
 18 19  2  0
 19 20  1  0
 20 21  2  0
 20 26  1  0
 21 22  1  0
 22 23  2  0
 23 24  1  0
 24 25  1  0
 24 26  2  0
 27 28  1  0
 28 29  2  0
 28 33  1  0
 29 30  1  0
 30 31  2  0
 31 32  1  0
 32 33  2  0
 33 34  1  0
 34 35  1  6
M  CHG  1  35   1
M  END
