
     RDKit          3D

 34 37  0  0  0  0  0  0  0  0999 V2000
   -0.6030    0.2260   -1.0540 C   0  0  0  0  0  0  0  0  0  0  0  0
   -0.8300   -0.6500    0.1000 N   0  0  0  0  0  0  0  0  0  0  0  0
   -0.3610   -1.9920    0.0740 C   0  0  0  0  0  0  0  0  0  0  0  0
   -1.2240   -3.0190    0.0650 N   0  0  0  0  0  0  0  0  0  0  0  0
   -0.7590   -4.2770    0.0150 C   0  0  0  0  0  0  0  0  0  0  0  0
    0.5750   -4.5190   -0.0270 C   0  0  0  0  0  0  0  0  0  0  0  0
    1.4980   -3.4760   -0.0200 C   0  0  0  0  0  0  0  0  0  0  0  0
    1.0280   -2.1820    0.0320 C   0  0  0  0  0  0  0  0  0  0  0  0
    1.8510   -1.0450    0.0740 N   0  0  0  0  0  0  0  0  0  0  0  0
    3.2580   -1.0420   -0.0240 C   0  0  0  0  0  0  0  0  0  0  0  0
    3.9230   -2.0800   -0.1650 O   0  0  0  0  0  0  0  0  0  0  0  0
    4.0200    0.1820    0.0340 N   0  0  0  0  0  0  0  0  0  0  0  0
    5.4730    0.1800   -0.0680 C   0  0  1  0  0  0  0  0  0  0  0  0
    5.7970    0.9720   -1.3380 C   0  0  0  0  0  0  0  0  0  0  0  0
    7.2060    1.4720   -1.3110 C   0  0  0  0  0  0  0  0  0  0  0  0
    7.5590    2.1370   -0.1980 C   0  0  0  0  0  0  0  0  0  0  0  0
    6.4980    2.2770    0.8370 C   0  0  0  0  0  0  0  0  0  0  0  0
    6.0350    0.8530    1.1610 C   0  0  0  0  0  0  0  0  0  0  0  0
   -1.4930   -0.1740    1.2860 C   0  0  2  0  0  0  0  0  0  0  0  0
   -0.5980   -0.0640    2.4840 C   0  0  0  0  0  0  0  0  0  0  0  0
    0.0200   -1.2610    2.9270 N   0  0  0  0  0  0  0  0  0  0  0  0
   -2.8080   -0.8200    1.4990 C   0  0  0  0  0  0  0  0  0  0  0  0
   -3.7000   -0.5190    0.3490 C   0  0  0  0  0  0  0  0  0  0  0  0
   -3.9480   -1.1710   -0.8190 C   0  0  0  0  0  0  0  0  0  0  0  0
   -4.8540   -0.4540   -1.5240 N   0  0  0  0  0  0  0  0  0  0  0  0
   -5.2000    0.6220   -0.8710 N   0  0  0  0  0  0  0  0  0  0  0  0
   -6.1220    1.6100   -1.2930 C   0  0  0  0  0  0  0  0  0  0  0  0
   -6.0070    2.9450   -0.8940 C   0  0  0  0  0  0  0  0  0  0  0  0
   -6.9310    3.8690   -1.3320 C   0  0  0  0  0  0  0  0  0  0  0  0
   -7.9490    3.5150   -2.1410 N   0  0  0  0  0  0  0  0  0  0  0  0
   -8.0840    2.2510   -2.5370 C   0  0  0  0  0  0  0  0  0  0  0  0
   -7.1840    1.2820   -2.1260 C   0  0  0  0  0  0  0  0  0  0  0  0
   -7.3160   -0.3940   -2.6180 Cl  0  0  0  0  0  0  0  0  0  0  0  0
   -4.5180    0.6220    0.2820 C   0  0  0  0  0  0  0  0  0  0  0  0
  1  2  1  0
  2  3  1  0
  2 19  1  0
  3  4  2  0
  3  8  1  0
  4  5  1  0
  5  6  2  0
  6  7  1  0
  7  8  2  0
  8  9  1  0
  9 10  1  0
 10 11  2  0
 10 12  1  0
 13 12  1  1
 13 14  1  0
 13 18  1  0
 14 15  1  0
 15 16  2  0
 16 17  1  0
 17 18  1  0
 19 20  1  1
 19 22  1  0
 20 21  1  0
 22 23  1  0
 23 24  1  0
 23 34  2  0
 24 25  2  0
 25 26  1  0
 26 27  1  0
 26 34  1  0
 27 28  2  0
 27 32  1  0
 28 29  1  0
 29 30  2  0
 30 31  1  0
 31 32  2  0
 32 33  1  0
M  CHG  1  21   1
M  END
