
     RDKit          3D

 25 26  0  0  0  0  0  0  0  0999 V2000
    5.9300    0.3390   -1.6520 C   0  0  0  0  0  0  0  0  0  0  0  0
    4.9360   -0.0330   -0.7670 O   0  0  0  0  0  0  0  0  0  0  0  0
    3.8310    0.7960   -0.9370 C   0  0  0  0  0  0  0  0  0  0  0  0
    2.7120    0.3970    0.0410 C   0  0  2  0  0  0  0  0  0  0  0  0
    1.4510    1.1220   -0.2400 C   0  0  0  0  0  0  0  0  0  0  0  0
    0.4680    0.3670   -1.0690 C   0  0  0  0  0  0  0  0  0  0  0  0
   -0.7730    0.0750   -0.9860 C   0  0  0  0  0  0  0  0  0  0  0  0
   -1.8350    0.3630    0.0030 C   0  0  2  0  0  0  0  0  0  0  0  0
   -2.6950   -0.8650    0.3590 C   0  0  1  0  0  0  0  0  0  0  0  0
   -2.8900   -0.9230    1.8600 C   0  0  0  0  0  0  0  0  0  0  0  0
   -4.0430   -1.2660    2.2270 O   0  0  0  0  0  0  0  0  0  0  0  0
   -1.8360   -0.6110    2.7740 N   0  0  0  0  0  0  0  0  0  0  0  0
   -0.4530   -0.3230    2.5010 C   0  0  0  0  0  0  0  0  0  0  0  0
   -0.2160    0.9500    2.8080 O   0  0  0  0  0  0  0  0  0  0  0  0
    0.6350   -1.0340    2.0130 N   0  0  0  0  0  0  0  0  0  0  0  0
    1.9700   -1.3660    2.3540 C   0  0  0  0  0  0  0  0  0  0  0  0
    2.2040   -2.5610    2.7340 O   0  0  0  0  0  0  0  0  0  0  0  0
    3.1920   -0.5240    2.3370 C   0  0  0  0  0  0  0  0  0  0  0  0
    4.1450   -0.6950    3.1290 O   0  0  0  0  0  0  0  0  0  0  0  0
    3.3250    0.5670    1.3640 N   0  0  0  0  0  0  0  0  0  0  0  0
   -3.2870    0.2030   -0.4410 C   0  0  1  0  0  0  0  0  0  0  0  0
   -4.2740    0.9930    0.1450 O   0  0  0  0  0  0  0  0  0  0  0  0
   -3.5780   -0.1220   -1.8800 C   0  0  0  0  0  0  0  0  0  0  0  0
   -5.0920   -0.2190   -2.0210 C   0  0  0  0  0  0  0  0  0  0  0  0
   -5.6020    1.0450   -1.6450 O   0  0  0  0  0  0  0  0  0  0  0  0
  1  2  1  0
  2  3  1  0
  4  3  1  6
  4  5  1  0
  4 20  1  0
  5  6  1  0
  6  7  2  0
  8  7  1  6
  8  9  1  0
  8 21  1  0
  9 10  1  1
  9 21  1  0
 10 11  2  0
 10 12  1  0
 12 13  1  0
 13 14  2  0
 13 15  1  0
 15 16  1  0
 16 17  2  0
 16 18  1  0
 18 19  2  0
 18 20  1  0
 21 22  1  1
 21 23  1  0
 23 24  1  0
 24 25  1  0
M  END
