
     RDKit          3D

 17 18  0  0  0  0  0  0  0  0999 V2000
   -2.8910   -2.1110    1.8640 C   0  0  0  0  0  0  0  0  0  0  0  0
   -1.6830   -1.5950    1.3610 O   0  0  0  0  0  0  0  0  0  0  0  0
   -1.6080   -0.4750    0.5430 C   0  0  0  0  0  0  0  0  0  0  0  0
   -2.7500    0.2330    0.1550 C   0  0  0  0  0  0  0  0  0  0  0  0
   -2.6620    1.3460   -0.6600 C   0  0  0  0  0  0  0  0  0  0  0  0
   -3.8010    2.0450   -1.0430 O   0  0  0  0  0  0  0  0  0  0  0  0
   -1.3960    1.7210   -1.0680 C   0  0  0  0  0  0  0  0  0  0  0  0
   -0.2540    1.0250   -0.6870 C   0  0  0  0  0  0  0  0  0  0  0  0
   -0.3630   -0.0740    0.1190 C   0  0  0  0  0  0  0  0  0  0  0  0
    0.7540   -0.7800    0.5090 O   0  0  0  0  0  0  0  0  0  0  0  0
    2.0300   -0.4050    0.1000 C   0  0  0  0  0  0  0  0  0  0  0  0
    2.6640    0.7180    0.3430 C   0  0  0  0  0  0  0  0  0  0  0  0
    3.9790    0.6870   -0.2780 C   0  0  0  0  0  0  0  0  0  0  0  0
    4.0490   -0.6310   -0.9380 C   0  0  0  0  0  0  0  0  0  0  0  0
    5.4130   -1.2790   -1.8750 Cl  0  0  0  0  0  0  0  0  0  0  0  0
    2.9050   -1.2430   -0.7030 C   0  0  0  0  0  0  0  0  0  0  0  0
    2.5620   -2.8650   -1.3180 Cl  0  0  0  0  0  0  0  0  0  0  0  0
  1  2  1  0
  2  3  1  0
  3  4  2  0
  3  9  1  0
  4  5  1  0
  5  6  1  0
  5  7  2  0
  7  8  1  0
  8  9  2  0
  9 10  1  0
 10 11  1  0
 11 12  2  0
 11 16  1  0
 12 13  1  0
 13 14  1  0
 14 15  1  0
 14 16  2  0
 16 17  1  0
M  END
