
     RDKit          3D

 25 26  0  0  0  0  0  0  0  0999 V2000
   -3.7570   -2.5630    0.2480 N   0  0  0  0  0  0  0  0  0  0  0  0
   -3.9300   -1.1720    0.1530 C   0  0  1  0  0  0  0  0  0  0  0  0
   -4.8700   -0.7760    1.1190 O   0  0  0  0  0  0  0  0  0  0  0  0
   -2.6150   -0.3800    0.3760 C   0  0  2  0  0  0  0  0  0  0  0  0
   -2.2450   -0.7600    1.6800 O   0  0  0  0  0  0  0  0  0  0  0  0
   -2.9020    1.0510    0.3360 C   0  0  0  0  0  0  0  0  0  0  0  0
   -2.2040    2.0810   -0.0240 C   0  0  0  0  0  0  0  0  0  0  0  0
   -0.8600    2.2210   -0.5270 C   0  0  0  0  0  0  0  0  0  0  0  0
    0.2950    2.2040    0.0760 C   0  0  0  0  0  0  0  0  0  0  0  0
    0.5770    2.0330    1.5000 C   0  0  0  0  0  0  0  0  0  0  0  0
    0.3740    0.7570    1.9220 O   0  0  0  0  0  0  0  0  0  0  0  0
    1.0250   -0.4090    1.9110 C   0  0  0  0  0  0  0  0  0  0  0  0
    1.2150   -0.9940    3.0440 O   0  0  0  0  0  0  0  0  0  0  0  0
    1.5660   -1.1250    0.7350 C   0  0  2  0  0  0  0  0  0  0  0  0
    2.0150   -0.2720   -0.2720 O   0  0  0  0  0  0  0  0  0  0  0  0
    3.3840   -0.4060   -0.4890 C   0  0  0  0  0  0  0  0  0  0  0  0
    3.8710    0.4830   -1.5570 C   0  0  0  0  0  0  0  0  0  0  0  0
    5.1570    0.6730   -2.0050 C   0  0  0  0  0  0  0  0  0  0  0  0
    5.1050    1.6090   -3.0280 C   0  0  0  0  0  0  0  0  0  0  0  0
    3.8480    1.9310   -3.1510 O   0  0  0  0  0  0  0  0  0  0  0  0
    3.1070    1.2870   -2.3030 N   0  0  0  0  0  0  0  0  0  0  0  0
    0.6110   -2.0990    0.1550 C   0  0  0  0  0  0  0  0  0  0  0  0
    1.1630   -3.1430   -0.2930 O   0  0  0  0  0  0  0  0  0  0  0  0
   -0.7790   -2.0020    0.0490 N   0  0  0  0  0  0  0  0  0  0  0  0
   -1.5440   -0.8880   -0.5370 C   0  0  0  0  0  0  0  0  0  0  0  0
  2  1  1  1
  2  3  1  0
  2  4  1  0
  4  5  1  1
  4  6  1  0
  4 25  1  0
  6  7  2  0
  7  8  1  0
  8  9  2  0
  9 10  1  0
 10 11  1  0
 11 12  1  0
 12 13  2  0
 12 14  1  0
 14 15  1  6
 14 22  1  0
 15 16  1  0
 16 17  1  0
 17 18  1  0
 17 21  2  0
 18 19  2  0
 19 20  1  0
 20 21  1  0
 22 23  2  0
 22 24  1  0
 24 25  1  0
M  END
