
     RDKit          3D

 17 18  0  0  0  0  0  0  0  0999 V2000
    4.2770    0.9050    1.1810 C   0  0  0  0  0  0  0  0  0  0  0  0
    2.9440    1.2320    0.8370 O   0  0  0  0  0  0  0  0  0  0  0  0
    2.0240    0.2600    0.5080 C   0  0  0  0  0  0  0  0  0  0  0  0
    2.3670   -1.0690    0.5020 C   0  0  0  0  0  0  0  0  0  0  0  0
    1.4230   -2.0000    0.1690 C   0  0  0  0  0  0  0  0  0  0  0  0
    1.8680   -3.7030    0.1640 Cl  0  0  0  0  0  0  0  0  0  0  0  0
    0.1100   -1.6190   -0.1690 C   0  0  0  0  0  0  0  0  0  0  0  0
   -0.7530   -2.6410   -0.5010 O   0  0  0  0  0  0  0  0  0  0  0  0
   -0.2590   -0.3130   -0.1690 C   0  0  0  0  0  0  0  0  0  0  0  0
   -1.6180    0.1850   -0.3870 C   0  0  0  0  0  0  0  0  0  0  0  0
   -1.7610    1.4290   -0.8870 C   0  0  0  0  0  0  0  0  0  0  0  0
   -3.0340    2.0610   -1.1560 C   0  0  0  0  0  0  0  0  0  0  0  0
   -4.1110    1.3180   -0.7140 O   0  0  0  0  0  0  0  0  0  0  0  0
   -3.9890    0.0640   -0.2010 C   0  0  0  0  0  0  0  0  0  0  0  0
   -2.8040   -0.5510   -0.0140 C   0  0  0  0  0  0  0  0  0  0  0  0
   -2.8080   -2.1400    0.7510 Cl  0  0  0  0  0  0  0  0  0  0  0  0
    0.7370    0.6020    0.1770 C   0  0  0  0  0  0  0  0  0  0  0  0
  1  2  1  0
  2  3  1  0
  3  4  2  0
  3 17  1  0
  4  5  1  0
  5  6  1  0
  5  7  2  0
  7  8  1  0
  7  9  1  0
  9 10  1  0
  9 17  2  0
 10 11  2  0
 10 15  1  0
 11 12  1  0
 12 13  1  0
 13 14  1  0
 14 15  2  0
 15 16  1  0
M  END
