
     RDKit          3D

 15 15  0  0  0  0  0  0  0  0999 V2000
   -3.1950    2.2480   -0.5700 N   0  0  0  0  0  0  0  0  0  0  0  0
   -2.6900    0.8790   -0.4520 C   0  0  2  0  0  0  0  0  0  0  0  0
   -1.7670    0.7170    0.7070 C   0  0  0  0  0  0  0  0  0  0  0  0
   -0.3450    0.3000    0.2120 C   0  0  1  0  0  0  0  0  0  0  0  0
    0.0660    1.3880   -0.5650 O   0  0  0  0  0  0  0  0  0  0  0  0
    0.5020    0.2190    1.4360 C   0  0  0  0  0  0  0  0  0  0  0  0
    1.8050    0.1200    1.2870 O   0  0  0  0  0  0  0  0  0  0  0  0
    2.5300   -0.8330    0.7300 C   0  0  2  0  0  0  0  0  0  0  0  0
    3.3240   -1.5410    1.7010 O   0  0  0  0  0  0  0  0  0  0  0  0
    3.4740   -0.3540   -0.3630 C   0  0  0  0  0  0  0  0  0  0  0  0
    2.7640    0.2310   -1.3720 O   0  0  0  0  0  0  0  0  0  0  0  0
   -0.4780   -0.9490   -0.5930 C   0  0  1  0  0  0  0  0  0  0  0  0
   -0.7040   -2.0670    0.2050 O   0  0  0  0  0  0  0  0  0  0  0  0
   -1.7340   -0.8620   -1.4720 C   0  0  0  0  0  0  0  0  0  0  0  0
   -2.0750    0.4960   -1.6330 O   0  0  0  0  0  0  0  0  0  0  0  0
  2  1  1  6
  2  3  1  0
  2 15  1  0
  3  4  1  0
  4  5  1  6
  4  6  1  0
  4 12  1  0
  6  7  1  0
  7  8  1  0
  8  9  1  1
  8 10  1  0
 10 11  1  0
 12 13  1  1
 12 14  1  0
 14 15  1  0
M  END
