
     RDKit          3D

 15 15  0  0  0  0  0  0  0  0999 V2000
    4.2270    1.2670   -0.2090 C   0  0  0  0  0  0  0  0  0  0  0  0
    2.9250    1.0750    0.1970 O   0  0  0  0  0  0  0  0  0  0  0  0
    2.4230   -0.1690   -0.1260 C   0  0  0  0  0  0  0  0  0  0  0  0
    0.9990   -0.2630    0.3660 C   0  0  2  0  0  0  0  0  0  0  0  0
    1.0310   -0.0810    1.7510 O   0  0  0  0  0  0  0  0  0  0  0  0
    0.4500   -1.6290    0.0430 C   0  0  0  0  0  0  0  0  0  0  0  0
   -0.9240   -1.6870    0.0840 O   0  0  0  0  0  0  0  0  0  0  0  0
   -1.4590   -0.6290   -0.6480 C   0  0  1  0  0  0  0  0  0  0  0  0
   -2.9640   -0.7270   -0.7580 C   0  0  1  0  0  0  0  0  0  0  0  0
   -3.3770   -1.8950   -1.3850 O   0  0  0  0  0  0  0  0  0  0  0  0
   -3.5220   -0.6220    0.6480 C   0  0  0  0  0  0  0  0  0  0  0  0
   -3.1130    0.5410    1.2800 O   0  0  0  0  0  0  0  0  0  0  0  0
   -1.1810    0.5370    0.0670 O   0  0  0  0  0  0  0  0  0  0  0  0
    0.1680    0.8460   -0.2220 C   0  0  1  0  0  0  0  0  0  0  0  0
    0.4400    2.1050    0.4210 N   0  0  0  0  0  0  0  0  0  0  0  0
  1  2  1  0
  2  3  1  0
  3  4  1  0
  4  5  1  1
  4  6  1  0
  4 14  1  0
  6  7  1  0
  8  7  1  1
  8  9  1  0
  8 13  1  0
  9 10  1  1
  9 11  1  0
 11 12  1  0
 13 14  1  0
 14 15  1  1
M  END
