
     RDKit          3D

 15 15  0  0  0  0  0  0  0  0999 V2000
    4.4770   -0.0700   -0.2440 C   0  0  0  0  0  0  0  0  0  0  0  0
    3.0910    0.3910   -0.4100 C   0  0  0  0  0  0  0  0  0  0  0  0
    2.8100    1.5270   -0.8540 O   0  0  0  0  0  0  0  0  0  0  0  0
    2.0180   -0.4640   -0.0600 N   0  0  0  0  0  0  0  0  0  0  0  0
    0.6280   -0.0980   -0.1880 C   0  0  1  0  0  0  0  0  0  0  0  0
   -0.0820   -0.9980   -1.1340 C   0  0  2  0  0  0  0  0  0  0  0  0
   -0.1480   -0.3920   -2.3960 O   0  0  0  0  0  0  0  0  0  0  0  0
   -1.3030   -1.4550   -0.7030 O   0  0  0  0  0  0  0  0  0  0  0  0
   -2.1480   -0.4940   -0.2160 C   0  0  2  0  0  0  0  0  0  0  0  0
   -2.8350    0.3070   -1.3230 C   0  0  0  0  0  0  0  0  0  0  0  0
   -3.6620    1.2470   -0.7120 O   0  0  0  0  0  0  0  0  0  0  0  0
   -1.5270    0.4050    0.8080 C   0  0  1  0  0  0  0  0  0  0  0  0
   -2.2800    0.4810    1.9890 O   0  0  0  0  0  0  0  0  0  0  0  0
   -0.0960   -0.0570    1.1270 C   0  0  2  0  0  0  0  0  0  0  0  0
    0.4250    0.9090    1.9880 O   0  0  0  0  0  0  0  0  0  0  0  0
  1  2  1  0
  2  3  2  0
  2  4  1  0
  5  4  1  1
  5  6  1  0
  5 14  1  0
  6  7  1  6
  6  8  1  0
  8  9  1  0
  9 10  1  6
  9 12  1  0
 10 11  1  0
 12 13  1  1
 12 14  1  0
 14 15  1  1
M  END
