
     RDKit          3D

 15 15  0  0  0  0  0  0  0  0999 V2000
    3.9570    0.2710   -1.0060 N   0  0  0  0  0  0  0  0  0  0  0  0
    3.5230   -0.4560    0.1480 C   0  0  1  0  0  0  0  0  0  0  0  0
    4.2950   -0.2370    1.2750 O   0  0  0  0  0  0  0  0  0  0  0  0
    2.0590   -0.0650    0.4010 C   0  0  1  0  0  0  0  0  0  0  0  0
    2.0790    1.3190    0.6130 O   0  0  0  0  0  0  0  0  0  0  0  0
    1.3160   -0.3960   -0.8560 C   0  0  0  0  0  0  0  0  0  0  0  0
    0.0090    0.0250   -0.8470 O   0  0  0  0  0  0  0  0  0  0  0  0
   -0.6580   -0.5850    0.2060 C   0  0  0  0  0  0  0  0  0  0  0  0
   -2.0910   -0.0840    0.1600 C   0  0  2  0  0  0  0  0  0  0  0  0
   -2.6750   -0.4860   -1.1670 C   0  0  0  0  0  0  0  0  0  0  0  0
   -1.9690    0.0660   -2.2370 O   0  0  0  0  0  0  0  0  0  0  0  0
   -2.1540    1.3810    0.4220 C   0  0  0  0  0  0  0  0  0  0  0  0
   -3.0610    1.5600    1.4360 O   0  0  0  0  0  0  0  0  0  0  0  0
   -3.4900    0.3290    1.8590 C   0  0  0  0  0  0  0  0  0  0  0  0
   -2.8150   -0.6480    1.1780 O   0  0  0  0  0  0  0  0  0  0  0  0
  2  1  1  6
  2  3  1  0
  2  4  1  0
  4  5  1  6
  4  6  1  0
  6  7  1  0
  7  8  1  0
  9  8  1  6
  9 10  1  0
  9 12  1  0
  9 15  1  0
 10 11  1  0
 12 13  1  0
 13 14  1  0
 14 15  1  0
M  END
