
     RDKit          3D

 15 16  0  0  0  0  0  0  0  0999 V2000
   -3.8830    1.0610   -0.1040 C   0  0  0  0  0  0  0  0  0  0  0  0
   -2.8790    0.2810    0.5570 O   0  0  0  0  0  0  0  0  0  0  0  0
   -1.6270    0.0870   -0.0190 C   0  0  0  0  0  0  0  0  0  0  0  0
   -1.4370    0.6300   -1.1370 O   0  0  0  0  0  0  0  0  0  0  0  0
   -0.5440   -0.6830    0.5660 C   0  0  1  0  0  0  0  0  0  0  0  0
   -0.9840   -1.2070    1.7930 O   0  0  0  0  0  0  0  0  0  0  0  0
   -0.2730   -1.8770   -0.3680 C   0  0  0  0  0  0  0  0  0  0  0  0
    1.1210   -1.8470   -0.6250 O   0  0  0  0  0  0  0  0  0  0  0  0
    1.3610   -0.5190   -0.6740 C   0  0  2  0  0  0  0  0  0  0  0  0
    2.7360   -0.0190   -0.4460 C   0  0  0  0  0  0  0  0  0  0  0  0
    2.5900    1.1330    0.4470 N   0  0  0  0  0  0  0  0  0  0  0  0
    1.1430    1.2520    0.7290 C   0  0  1  0  0  0  0  0  0  0  0  0
    0.6310    2.0180   -0.3130 O   0  0  0  0  0  0  0  0  0  0  0  0
    0.7690   -0.1400    0.7080 C   0  0  1  0  0  0  0  0  0  0  0  0
    1.4870   -0.8430    1.6820 O   0  0  0  0  0  0  0  0  0  0  0  0
  1  2  1  0
  2  3  1  0
  3  4  2  0
  3  5  1  0
  5  6  1  1
  5  7  1  0
  5 14  1  0
  7  8  1  0
  8  9  1  0
  9 10  1  1
  9 14  1  0
 10 11  1  0
 11 12  1  0
 12 13  1  6
 12 14  1  0
 14 15  1  1
M  END
