
     RDKit          3D

 17 18  0  0  0  0  0  0  0  0999 V2000
    0.7170    3.7380   -0.4970 C   0  0  0  0  0  0  0  0  0  0  0  0
    0.4990    2.2650   -0.4280 C   0  0  0  0  0  0  0  0  0  0  0  0
    1.5770    1.4340   -0.2650 C   0  0  0  0  0  0  0  0  0  0  0  0
    1.3400    0.0590   -0.2050 C   0  0  0  0  0  0  0  0  0  0  0  0
    0.0700   -0.4700   -0.3050 C   0  0  0  0  0  0  0  0  0  0  0  0
   -1.0220    0.3810   -0.4690 C   0  0  0  0  0  0  0  0  0  0  0  0
   -2.3920   -0.1190   -0.5140 C   0  0  0  0  0  0  0  0  0  0  0  0
   -3.0520   -0.2680    0.8460 C   0  0  0  0  0  0  0  0  0  0  0  0
   -4.4320   -0.7940    0.6790 C   0  0  0  0  0  0  0  0  0  0  0  0
   -4.8430   -1.0360   -0.4330 O   0  0  0  0  0  0  0  0  0  0  0  0
   -0.8070    1.7500   -0.5310 C   0  0  0  0  0  0  0  0  0  0  0  0
   -1.8160    2.6780   -0.6910 O   0  0  0  0  0  0  0  0  0  0  0  0
   -0.1890   -1.9120   -0.2980 C   0  0  0  0  0  0  0  0  0  0  0  0
    0.8710   -2.7550    0.3400 C   0  0  0  0  0  0  0  0  0  0  0  0
    1.9780   -1.9390    0.9620 C   0  0  0  0  0  0  0  0  0  0  0  0
    2.4670   -0.8930   -0.0260 C   0  0  2  0  0  0  0  0  0  0  0  0
    3.6850   -0.2410    0.5530 C   0  0  0  0  0  0  0  0  0  0  0  0
  1  2  1  0
  2  3  2  0
  2 11  1  0
  3  4  1  0
  4  5  2  0
  4 16  1  0
  5  6  1  0
  5 13  1  0
  6  7  1  0
  6 11  2  0
  7  8  1  0
  8  9  1  0
  9 10  2  0
 11 12  1  0
 13 14  1  0
 14 15  1  0
 15 16  1  0
 16 17  1  1
M  END
