
     RDKit          3D

 17 18  0  0  0  0  0  0  0  0999 V2000
    4.7020    0.9410   -0.8710 C   0  0  0  0  0  0  0  0  0  0  0  0
    3.9120   -0.3530   -0.8250 C   0  0  1  0  0  0  0  0  0  0  0  0
    4.7660   -1.3680   -0.4620 O   0  0  0  0  0  0  0  0  0  0  0  0
    2.7840   -0.1900    0.1250 C   0  0  0  0  0  0  0  0  0  0  0  0
    3.0710   -0.2110    1.4660 C   0  0  0  0  0  0  0  0  0  0  0  0
    2.0310   -0.0610    2.3460 C   0  0  0  0  0  0  0  0  0  0  0  0
    0.7250    0.1070    1.8850 C   0  0  0  0  0  0  0  0  0  0  0  0
   -0.2590    0.2530    2.8580 O   0  0  0  0  0  0  0  0  0  0  0  0
    0.4480    0.1260    0.5510 C   0  0  0  0  0  0  0  0  0  0  0  0
   -0.9190    0.2910    0.0710 C   0  0  0  0  0  0  0  0  0  0  0  0
   -1.2330    0.3610   -1.2210 C   0  0  0  0  0  0  0  0  0  0  0  0
   -2.6940    0.5290   -1.3880 C   0  0  0  0  0  0  0  0  0  0  0  0
   -3.2250   -0.0550   -0.1070 C   0  0  2  0  0  0  0  0  0  0  0  0
   -3.3150   -1.5450   -0.1950 C   0  0  0  0  0  0  0  0  0  0  0  0
   -4.5610    0.5600    0.2400 C   0  0  0  0  0  0  0  0  0  0  0  0
   -2.1470    0.3890    0.8920 C   0  0  0  0  0  0  0  0  0  0  0  0
    1.5030   -0.0250   -0.3190 C   0  0  0  0  0  0  0  0  0  0  0  0
  2  1  1  1
  2  3  1  0
  2  4  1  0
  4  5  2  0
  4 17  1  0
  5  6  1  0
  6  7  2  0
  7  8  1  0
  7  9  1  0
  9 10  1  0
  9 17  2  0
 10 11  2  0
 10 16  1  0
 11 12  1  0
 12 13  1  0
 13 14  1  6
 13 15  1  0
 13 16  1  0
M  END
