
     RDKit          3D

 17 18  0  0  0  0  0  0  0  0999 V2000
   -3.3330    0.9520   -0.4260 C   0  0  0  0  0  0  0  0  0  0  0  0
   -2.4750    0.1170    0.5010 C   0  0  2  0  0  0  0  0  0  0  0  0
   -3.2960   -1.1390    0.8240 C   0  0  0  0  0  0  0  0  0  0  0  0
   -2.2620    0.8100    1.8290 C   0  0  0  0  0  0  0  0  0  0  0  0
   -1.2120   -0.2470   -0.1530 C   0  0  0  0  0  0  0  0  0  0  0  0
    0.0330    0.1070    0.3270 C   0  0  0  0  0  0  0  0  0  0  0  0
    1.2290   -0.2290   -0.2810 C   0  0  0  0  0  0  0  0  0  0  0  0
    2.5170    0.2000    0.3150 C   0  0  0  0  0  0  0  0  0  0  0  0
    3.6760   -0.0950   -0.2250 C   0  0  0  0  0  0  0  0  0  0  0  0
    5.0040    0.3180    0.3440 C   0  0  0  0  0  0  0  0  0  0  0  0
    4.8720    1.0560    1.5200 O   0  0  0  0  0  0  0  0  0  0  0  0
    3.6790    1.3770    2.1050 C   0  0  0  0  0  0  0  0  0  0  0  0
    2.5250    0.9780    1.5470 C   0  0  0  0  0  0  0  0  0  0  0  0
    1.1580   -0.9630   -1.4390 C   0  0  0  0  0  0  0  0  0  0  0  0
   -0.0820   -1.3460   -1.9660 C   0  0  0  0  0  0  0  0  0  0  0  0
   -1.2430   -0.9820   -1.3160 C   0  0  0  0  0  0  0  0  0  0  0  0
   -2.4390   -1.3960   -1.8930 O   0  0  0  0  0  0  0  0  0  0  0  0
  2  1  1  6
  2  3  1  0
  2  4  1  0
  2  5  1  0
  5  6  2  0
  5 16  1  0
  6  7  1  0
  7  8  1  0
  7 14  2  0
  8  9  2  0
  8 13  1  0
  9 10  1  0
 10 11  1  0
 11 12  1  0
 12 13  2  0
 14 15  1  0
 15 16  2  0
 16 17  1  0
M  END
