
     RDKit          3D

 17 18  0  0  0  0  0  0  0  0999 V2000
   -2.8540    2.1730   -1.3540 C   0  0  0  0  0  0  0  0  0  0  0  0
   -1.8000    1.3340   -0.7480 C   0  0  0  0  0  0  0  0  0  0  0  0
   -0.0380    1.6050   -0.8020 S   0  0  0  0  0  0  0  0  0  0  0  0
    0.4420    0.2620    0.0860 C   0  0  0  0  0  0  0  0  0  0  0  0
    1.8460   -0.1030    0.4130 C   0  0  0  0  0  0  0  0  0  0  0  0
    2.7420    0.8940   -0.1600 N   0  0  0  0  0  0  0  0  0  0  0  0
    4.3870    0.5150    0.1920 S   0  0  1  0  0  0  0  0  0  0  0  0
    5.0510   -0.4840   -1.0480 N   0  0  0  0  0  0  0  0  0  0  0  0
    5.1510    1.8250    0.1960 O   0  0  0  0  0  0  0  0  0  0  0  0
    4.5610   -0.0890    1.5450 O   0  0  0  0  0  0  0  0  0  0  0  0
   -0.7330   -0.3760    0.4120 C   0  0  0  0  0  0  0  0  0  0  0  0
   -1.8720    0.1570   -0.0040 C   0  0  0  0  0  0  0  0  0  0  0  0
   -3.1930   -0.4870    0.3180 C   0  0  0  0  0  0  0  0  0  0  0  0
   -3.1470   -1.8540    0.8270 C   0  0  0  0  0  0  0  0  0  0  0  0
   -2.0130   -2.2380    1.5210 O   0  0  0  0  0  0  0  0  0  0  0  0
   -0.8100   -1.6220    1.2060 C   0  0  0  0  0  0  0  0  0  0  0  0
    0.2190   -2.2020    1.6450 O   0  0  0  0  0  0  0  0  0  0  0  0
  1  2  1  0
  2  3  1  0
  2 12  2  0
  3  4  1  0
  4  5  1  0
  4 11  2  0
  5  6  1  0
  6  7  1  0
  7  8  1  6
  7  9  2  0
  7 10  2  0
 11 12  1  0
 11 16  1  0
 12 13  1  0
 13 14  1  0
 14 15  1  0
 15 16  1  0
 16 17  2  0
M  END
