
     RDKit          3D

 17 18  0  0  0  0  0  0  0  0999 V2000
    3.2080   -0.4030   -0.3630 C   0  0  0  0  0  0  0  0  0  0  0  0
    2.4780   -1.0890    0.7600 C   0  0  0  0  0  0  0  0  0  0  0  0
    1.3260    0.0030    1.5700 S   0  0  0  0  0  0  0  0  0  0  0  0
   -0.0460    0.4930    0.4840 C   0  0  0  0  0  0  0  0  0  0  0  0
    0.1040    1.6580   -0.2470 C   0  0  0  0  0  0  0  0  0  0  0  0
    1.1700    2.6380   -0.2890 C   0  0  0  0  0  0  0  0  0  0  0  0
    2.2040    2.5720    0.4020 O   0  0  0  0  0  0  0  0  0  0  0  0
    1.0220    3.7110   -1.1520 O   0  0  0  0  0  0  0  0  0  0  0  0
   -1.4230    1.7710   -1.2030 S   0  0  0  0  0  0  0  0  0  0  0  0
   -2.1150    0.2680   -0.5460 C   0  0  0  0  0  0  0  0  0  0  0  0
   -3.3360   -0.3600   -0.8050 C   0  0  0  0  0  0  0  0  0  0  0  0
   -4.1030    0.1810   -1.6240 O   0  0  0  0  0  0  0  0  0  0  0  0
   -3.6460   -1.5030   -0.1800 N   0  0  0  0  0  0  0  0  0  0  0  0
   -2.7410   -1.9630    0.6630 N   0  0  0  0  0  0  0  0  0  0  0  0
   -1.5680   -1.4090    0.9460 C   0  0  0  0  0  0  0  0  0  0  0  0
   -0.8400   -1.9930    1.7740 O   0  0  0  0  0  0  0  0  0  0  0  0
   -1.1780   -0.1940    0.3160 C   0  0  0  0  0  0  0  0  0  0  0  0
  1  2  1  0
  2  3  1  0
  3  4  1  0
  4  5  2  0
  4 17  1  0
  5  6  1  0
  5  9  1  0
  6  7  2  0
  6  8  1  0
  9 10  1  0
 10 11  1  0
 10 17  2  0
 11 12  2  0
 11 13  1  0
 13 14  1  0
 14 15  1  0
 15 16  2  0
 15 17  1  0
M  END
