
     RDKit          3D

 17 17  0  0  0  0  0  0  0  0999 V2000
   -5.3520    0.6230   -0.7510 C   0  0  0  0  0  0  0  0  0  0  0  0
   -3.9520    0.5660   -1.1560 C   0  0  0  0  0  0  0  0  0  0  0  0
   -2.9190    0.1200   -0.4430 C   0  0  0  0  0  0  0  0  0  0  0  0
   -1.6330    0.1670   -1.0680 C   0  0  0  0  0  0  0  0  0  0  0  0
   -0.4500   -0.1840   -0.7400 C   0  0  0  0  0  0  0  0  0  0  0  0
    0.0970   -0.8140    0.4660 C   0  0  0  0  0  0  0  0  0  0  0  0
    1.3360   -0.0070    0.6030 N   0  0  0  0  0  0  0  0  0  0  0  0
    1.7870    0.0880   -0.7440 C   0  0  0  0  0  0  0  0  0  0  0  0
    3.5010    0.3180   -1.2440 S   0  0  0  0  0  0  0  0  0  0  0  0
    4.5470    0.4140    0.2120 C   0  0  0  0  0  0  0  0  0  0  0  0
    5.9900    0.6060   -0.1080 C   0  0  0  0  0  0  0  0  0  0  0  0
    6.4400   -0.4680   -0.8790 O   0  0  0  0  0  0  0  0  0  0  0  0
    0.7700   -0.0120   -1.5560 N   0  0  0  0  0  0  0  0  0  0  0  0
   -3.2700   -0.3620    1.1910 S   0  0  1  0  0  0  0  0  0  0  0  0
   -2.4640    0.3670    2.2230 O   0  0  0  0  0  0  0  0  0  0  0  0
   -4.7200    0.0770    1.5560 O   0  0  0  0  0  0  0  0  0  0  0  0
   -3.2900   -2.0210    1.3710 O   0  0  0  0  0  0  0  0  0  0  0  0
  1  2  1  0
  2  3  2  3
  3  4  1  0
  3 14  1  0
  4  5  2  3
  5  6  1  0
  5 13  1  0
  6  7  1  0
  7  8  1  0
  8  9  1  0
  8 13  2  0
  9 10  1  0
 10 11  1  0
 11 12  1  0
 14 15  2  0
 14 16  2  0
 14 17  1  6
M  END
