
     RDKit          3D

 17 18  0  0  0  0  0  0  0  0999 V2000
   -4.5570   -1.9610   -0.9690 O   0  0  0  0  0  0  0  0  0  0  0  0
   -3.9000   -0.6230   -1.0710 S   0  0  1  0  0  0  0  0  0  0  0  0
   -4.3030    0.1540   -2.2720 O   0  0  0  0  0  0  0  0  0  0  0  0
   -4.1530    0.3110    0.4480 C   0  0  0  0  0  0  0  0  0  0  0  0
   -2.7960    0.0440    1.1170 C   0  0  0  0  0  0  0  0  0  0  0  0
   -1.8050    0.3290    0.0060 C   0  0  1  0  0  0  0  0  0  0  0  0
   -0.3910    0.1790    0.5120 C   0  0  0  0  0  0  0  0  0  0  0  0
    0.5690    0.4480   -0.5410 N   0  0  0  0  0  0  0  0  0  0  0  0
    1.9570    0.2590   -0.1980 C   0  0  0  0  0  0  0  0  0  0  0  0
    2.4150   -0.9700   -0.1560 C   0  0  0  0  0  0  0  0  0  0  0  0
    3.7610   -1.3310    0.1660 C   0  0  0  0  0  0  0  0  0  0  0  0
    4.7370   -0.4950    0.4660 C   0  0  0  0  0  0  0  0  0  0  0  0
    4.3850    1.2160    0.4790 S   0  0  1  0  0  0  0  0  0  0  0  0
    4.7410    1.8550    1.7930 O   0  0  0  0  0  0  0  0  0  0  0  0
    5.2130    1.8140   -0.6470 O   0  0  0  0  0  0  0  0  0  0  0  0
    2.7270    1.4120    0.0710 N   0  0  0  0  0  0  0  0  0  0  0  0
   -2.1250   -0.7670   -1.0260 C   0  0  0  0  0  0  0  0  0  0  0  0
  1  2  2  0
  2  3  2  0
  2  4  1  1
  2 17  1  0
  4  5  1  0
  5  6  1  0
  6  7  1  1
  6 17  1  0
  7  8  1  0
  8  9  1  0
  9 10  2  0
  9 16  1  0
 10 11  1  0
 11 12  2  0
 12 13  1  0
 13 14  2  0
 13 15  2  0
 13 16  1  6
M  END
