
     RDKit          3D

 17 18  0  0  0  0  0  0  0  0999 V2000
   -1.0220    2.5140   -1.6900 C   0  0  0  0  0  0  0  0  0  0  0  0
   -0.0350    1.6700   -1.0130 C   0  0  0  0  0  0  0  0  0  0  0  0
    1.5470    2.2350   -0.3670 S   0  0  0  0  0  0  0  0  0  0  0  0
    2.0370    0.6060    0.2440 C   0  0  0  0  0  0  0  0  0  0  0  0
    3.1690    0.2180    0.8900 N   0  0  0  0  0  0  0  0  0  0  0  0
    3.3190   -1.0700    1.2610 C   0  0  0  0  0  0  0  0  0  0  0  0
    4.3590   -1.4250    1.8540 O   0  0  0  0  0  0  0  0  0  0  0  0
    2.3330   -1.8980    0.9670 N   0  0  0  0  0  0  0  0  0  0  0  0
    1.2250   -1.5480    0.3420 C   0  0  0  0  0  0  0  0  0  0  0  0
    0.3780   -2.4420    0.1330 O   0  0  0  0  0  0  0  0  0  0  0  0
    1.0020   -0.2000   -0.0790 C   0  0  0  0  0  0  0  0  0  0  0  0
   -0.0600    0.3230   -0.7190 C   0  0  0  0  0  0  0  0  0  0  0  0
   -1.2790   -0.4630   -1.1360 C   0  0  0  0  0  0  0  0  0  0  0  0
   -2.4420   -0.2290   -0.2420 C   0  0  0  0  0  0  0  0  0  0  0  0
   -2.1590   -0.6660    1.4380 S   0  0  2  0  0  0  0  0  0  0  0  0
   -3.3900   -0.3760    2.2590 O   0  0  0  0  0  0  0  0  0  0  0  0
   -1.0250    0.0480    2.0600 O   0  0  0  0  0  0  0  0  0  0  0  0
  1  2  1  0
  2  3  1  0
  2 12  2  0
  3  4  1  0
  4  5  1  0
  4 11  2  0
  5  6  1  0
  6  7  2  0
  6  8  1  0
  8  9  1  0
  9 10  2  0
  9 11  1  0
 11 12  1  0
 12 13  1  0
 13 14  1  0
 15 14  1  6
 15 16  2  0
 15 17  2  0
M  END
