
     RDKit          3D

 17 17  0  0  0  0  0  0  0  0999 V2000
   -3.6860    2.8440    0.4690 C   0  0  0  0  0  0  0  0  0  0  0  0
   -3.4650    1.2950   -0.4330 S   0  0  0  0  0  0  0  0  0  0  0  0
   -1.7000    0.8430   -0.2890 C   0  0  0  0  0  0  0  0  0  0  0  0
   -1.3550   -0.3730   -0.0060 C   0  0  0  0  0  0  0  0  0  0  0  0
   -2.3970   -1.2540    0.1700 N   0  0  0  0  0  0  0  0  0  0  0  0
   -2.1670   -2.5380    0.4640 C   0  0  0  0  0  0  0  0  0  0  0  0
   -3.1410   -3.3130    0.6170 O   0  0  0  0  0  0  0  0  0  0  0  0
   -0.9240   -3.0010    0.5970 N   0  0  0  0  0  0  0  0  0  0  0  0
    0.1420   -2.1580    0.4310 C   0  0  0  0  0  0  0  0  0  0  0  0
    1.2630   -2.6780    0.5730 O   0  0  0  0  0  0  0  0  0  0  0  0
   -0.0540   -0.8050    0.1210 C   0  0  0  0  0  0  0  0  0  0  0  0
    0.9860   -0.0130   -0.0310 C   0  0  0  0  0  0  0  0  0  0  0  0
    0.7020    1.3520   -0.3420 O   0  0  0  0  0  0  0  0  0  0  0  0
    2.3900   -0.2970    0.0650 C   0  0  0  0  0  0  0  0  0  0  0  0
    2.9680   -1.3520    0.3130 O   0  0  0  0  0  0  0  0  0  0  0  0
    3.5310    1.1080   -0.2210 S   0  0  0  0  0  0  0  0  0  0  0  0
    5.2360    0.5980   -0.0680 C   0  0  0  0  0  0  0  0  0  0  0  0
  1  2  1  0
  2  3  1  0
  3  4  2  3
  4  5  1  0
  4 11  1  0
  5  6  1  0
  6  7  2  0
  6  8  1  0
  8  9  1  0
  9 10  2  0
  9 11  1  0
 11 12  2  3
 12 13  1  0
 12 14  1  0
 14 15  2  0
 14 16  1  0
 16 17  1  0
M  END
