
     RDKit          3D

 17 18  0  0  0  0  0  0  0  0999 V2000
    3.7760    2.1490   -0.2140 N   0  0  0  0  0  0  0  0  0  0  0  0
    3.7320    0.8130   -0.6600 C   0  0  0  0  0  0  0  0  0  0  0  0
    4.5380    0.4350   -1.5400 O   0  0  0  0  0  0  0  0  0  0  0  0
    2.7320   -0.1100   -0.0780 C   0  0  1  0  0  0  0  0  0  0  0  0
    1.3160    0.3090   -0.3890 C   0  0  0  0  0  0  0  0  0  0  0  0
    0.4080   -0.6020    0.2030 N   0  0  0  0  0  0  0  0  0  0  0  0
   -0.7920   -0.8240   -0.5500 C   0  0  0  0  0  0  0  0  0  0  0  0
   -1.7010    0.3730   -0.6080 C   0  0  2  0  0  0  0  0  0  0  0  0
   -2.1230    0.8750    0.7520 C   0  0  0  0  0  0  0  0  0  0  0  0
   -3.4180    1.6640    0.5040 C   0  0  0  0  0  0  0  0  0  0  0  0
   -4.3980    0.7070    0.2860 O   0  0  0  0  0  0  0  0  0  0  0  0
   -3.9240   -0.2890   -0.5470 C   0  0  1  0  0  0  0  0  0  0  0  0
   -4.9590   -0.6080   -1.4250 F   0  0  0  0  0  0  0  0  0  0  0  0
   -2.8550    0.1130   -1.3470 O   0  0  0  0  0  0  0  0  0  0  0  0
    0.8960   -1.8300    0.6960 C   0  0  0  0  0  0  0  0  0  0  0  0
    2.2910   -2.2160    0.3730 C   0  0  0  0  0  0  0  0  0  0  0  0
    2.8560   -1.4050   -0.6380 O   0  0  0  0  0  0  0  0  0  0  0  0
  1  2  1  0
  2  3  2  0
  4  2  1  6
  4  5  1  0
  4 17  1  0
  5  6  1  0
  6  7  1  0
  6 15  1  0
  8  7  1  1
  8  9  1  0
  8 14  1  0
  9 10  1  0
 10 11  1  0
 11 12  1  0
 12 13  1  6
 12 14  1  0
 15 16  1  0
 16 17  1  0
M  END
