
     RDKit          3D

 16 17  0  0  0  0  0  0  0  0999 V2000
    4.4070    1.4340   -0.6930 C   0  0  0  0  0  0  0  0  0  0  0  0
    3.1860    0.7000   -0.9130 N   0  0  0  0  0  0  0  0  0  0  0  0
    2.5180    0.0790    0.1930 C   0  0  0  0  0  0  0  0  0  0  0  0
    3.0190    0.1910    1.3400 O   0  0  0  0  0  0  0  0  0  0  0  0
    1.2860   -0.6690    0.0100 C   0  0  2  0  0  0  0  0  0  0  0  0
    0.1950    0.0560   -0.7050 C   0  0  0  0  0  0  0  0  0  0  0  0
   -1.1780   -0.1940   -0.1520 C   0  0  1  0  0  0  0  0  0  0  0  0
   -1.4710    0.9010    0.8620 C   0  0  0  0  0  0  0  0  0  0  0  0
   -2.9480    1.0290    1.1320 C   0  0  0  0  0  0  0  0  0  0  0  0
   -3.6570    1.2900   -0.0160 O   0  0  0  0  0  0  0  0  0  0  0  0
   -3.4520    0.4030   -0.9940 N   0  0  0  0  0  0  0  0  0  0  0  0
   -2.1690   -0.1180   -1.2410 C   0  0  0  0  0  0  0  0  0  0  0  0
   -1.8690   -0.5160   -2.3820 O   0  0  0  0  0  0  0  0  0  0  0  0
   -1.3380   -1.5050    0.5420 C   0  0  0  0  0  0  0  0  0  0  0  0
   -0.0680   -2.1690    0.9500 C   0  0  0  0  0  0  0  0  0  0  0  0
    0.8660   -1.1560    1.2460 O   0  0  0  0  0  0  0  0  0  0  0  0
  1  2  1  0
  2  3  1  0
  3  4  2  0
  5  3  1  1
  5  6  1  0
  5 16  1  0
  7  6  1  6
  7  8  1  0
  7 12  1  0
  7 14  1  0
  8  9  1  0
  9 10  1  0
 10 11  1  0
 11 12  1  0
 12 13  2  0
 14 15  1  0
 15 16  1  0
M  END
