
     RDKit          3D

 16 17  0  0  0  0  0  0  0  0999 V2000
    3.3660   -1.8540    0.2280 C   0  0  0  0  0  0  0  0  0  0  0  0
    2.3250   -0.7780   -0.0640 C   0  0  2  0  0  0  0  0  0  0  0  0
    2.9030    0.5420    0.0400 N   0  0  0  0  0  0  0  0  0  0  0  0
    2.1590    1.5890    0.6540 C   0  0  0  0  0  0  0  0  0  0  0  0
    2.8060    2.5620    1.1140 O   0  0  0  0  0  0  0  0  0  0  0  0
    0.6570    1.5230    0.7450 C   0  0  1  0  0  0  0  0  0  0  0  0
    0.1020    1.7770   -0.6070 C   0  0  0  0  0  0  0  0  0  0  0  0
   -1.2430    1.6690   -0.7790 O   0  0  0  0  0  0  0  0  0  0  0  0
   -2.1160    0.6630   -0.6160 C   0  0  0  0  0  0  0  0  0  0  0  0
   -1.9180   -0.6280   -0.7440 C   0  0  0  0  0  0  0  0  0  0  0  0
   -3.1810   -1.3850   -0.4670 C   0  0  0  0  0  0  0  0  0  0  0  0
   -3.9010   -0.4640    0.3900 N   0  0  0  0  0  0  0  0  0  0  0  0
   -3.5400    0.8140   -0.2420 C   0  0  0  0  0  0  0  0  0  0  0  0
    0.3640    0.2090    1.1860 O   0  0  0  0  0  0  0  0  0  0  0  0
    1.1890   -0.8600    0.8680 C   0  0  0  0  0  0  0  0  0  0  0  0
    0.9230   -1.9600    1.4300 O   0  0  0  0  0  0  0  0  0  0  0  0
  2  1  1  1
  2  3  1  0
  2 15  1  0
  3  4  1  0
  4  5  2  0
  4  6  1  0
  6  7  1  6
  6 14  1  0
  7  8  1  0
  8  9  1  0
  9 10  2  0
  9 13  1  0
 10 11  1  0
 11 12  1  0
 12 13  1  0
 14 15  1  0
 15 16  2  0
M  END
