
     RDKit          3D

 17 18  0  0  0  0  0  0  0  0999 V2000
    2.9950   -1.4830   -0.5640 O   0  0  0  0  0  0  0  0  0  0  0  0
    2.5030   -0.4490   -0.0510 C   0  0  0  0  0  0  0  0  0  0  0  0
    3.3270    0.3580    0.7000 O   0  0  0  0  0  0  0  0  0  0  0  0
    4.6660    0.1920    0.9750 C   0  0  0  0  0  0  0  0  0  0  0  0
    5.5890    0.2180   -0.2120 C   0  0  0  0  0  0  0  0  0  0  0  0
    5.3310   -0.7560   -1.1170 F   0  0  0  0  0  0  0  0  0  0  0  0
    1.1160   -0.1140   -0.2410 N   0  0  0  0  0  0  0  0  0  0  0  0
    0.4710    1.0590    0.3150 C   0  0  0  0  0  0  0  0  0  0  0  0
   -0.9260    0.5530    0.5680 C   0  0  1  0  0  0  0  0  0  0  0  0
   -1.9200    1.5940    0.5450 N   0  0  0  0  0  0  0  0  0  0  0  0
   -3.1500    0.9720    0.0510 C   0  0  0  0  0  0  0  0  0  0  0  0
   -3.1470   -0.5190    0.3280 C   0  0  1  0  0  0  0  0  0  0  0  0
   -4.4830   -1.0580   -0.1470 C   0  0  0  0  0  0  0  0  0  0  0  0
   -4.6580   -0.8350   -1.5130 O   0  0  0  0  0  0  0  0  0  0  0  0
   -2.1580   -1.1850   -0.3890 O   0  0  0  0  0  0  0  0  0  0  0  0
   -1.1710   -0.2840   -0.6940 C   0  0  2  0  0  0  0  0  0  0  0  0
    0.1580   -0.8860   -1.0080 C   0  0  0  0  0  0  0  0  0  0  0  0
  1  2  2  0
  2  3  1  0
  2  7  1  0
  3  4  1  0
  4  5  1  0
  5  6  1  0
  7  8  1  0
  7 17  1  0
  9  8  1  6
  9 10  1  0
  9 16  1  0
 10 11  1  0
 11 12  1  0
 12 13  1  6
 12 15  1  0
 13 14  1  0
 15 16  1  0
 16 17  1  1
M  END
