
     RDKit          3D

 26 28  0  0  0  0  0  0  0  0999 V2000
    7.2790    0.7000   -0.1310 C   0  0  0  0  0  0  0  0  0  0  0  0
    7.0830   -0.5330    0.7520 C   0  0  0  0  0  0  0  0  0  0  0  0
    6.0740   -1.4770    0.1080 C   0  0  0  0  0  0  0  0  0  0  0  0
    4.4810   -0.6710   -0.1060 S   0  0  0  0  0  0  0  0  0  0  0  0
    3.7020   -0.2960    1.4450 C   0  0  0  0  0  0  0  0  0  0  0  0
    2.4490   -0.1790    1.7170 C   0  0  0  0  0  0  0  0  0  0  0  0
    1.3200   -0.3220    0.8150 C   0  0  2  0  0  0  0  0  0  0  0  0
    1.7280   -0.6970   -0.5630 C   0  0  0  0  0  0  0  0  0  0  0  0
    0.5050   -0.8140   -1.4800 C   0  0  0  0  0  0  0  0  0  0  0  0
   -0.0980    0.5640   -1.5450 C   0  0  0  0  0  0  0  0  0  0  0  0
   -0.5010    0.9540   -0.2130 N   0  0  0  0  0  0  0  0  0  0  0  0
   -1.8520    1.3070    0.0590 C   0  0  0  0  0  0  0  0  0  0  0  0
   -2.0850    2.5570    0.5250 N   0  0  0  0  0  0  0  0  0  0  0  0
   -3.3230    2.9950    0.8100 C   0  0  0  0  0  0  0  0  0  0  0  0
   -4.3720    2.1140    0.6100 C   0  0  0  0  0  0  0  0  0  0  0  0
   -4.2000    0.8680    0.1520 N   0  0  0  0  0  0  0  0  0  0  0  0
   -5.2450   -0.0690   -0.0710 C   0  0  0  0  0  0  0  0  0  0  0  0
   -6.5160    0.1710    0.4020 C   0  0  0  0  0  0  0  0  0  0  0  0
   -7.5180   -0.7770    0.1610 C   0  0  0  0  0  0  0  0  0  0  0  0
   -7.2390   -1.9260   -0.5350 C   0  0  0  0  0  0  0  0  0  0  0  0
   -8.1250   -2.8090   -0.7720 O   0  0  0  0  0  0  0  0  0  0  0  0
   -5.9880   -2.1150   -0.9750 N   0  0  0  0  0  0  0  0  0  0  0  0
   -5.0480   -1.2160   -0.7430 N   0  0  0  0  0  0  0  0  0  0  0  0
   -2.9270    0.4820   -0.1190 C   0  0  0  0  0  0  0  0  0  0  0  0
   -2.7390   -0.6810   -0.5500 O   0  0  0  0  0  0  0  0  0  0  0  0
    0.5230    0.9780    0.8170 C   0  0  0  0  0  0  0  0  0  0  0  0
  1  2  1  0
  2  3  1  0
  3  4  1  0
  4  5  1  0
  5  6  2  3
  7  6  1  1
  7  8  1  0
  7 26  1  0
  8  9  1  0
  9 10  1  0
 10 11  1  0
 11 12  1  0
 11 26  1  0
 12 13  2  0
 12 24  1  0
 13 14  1  0
 14 15  2  0
 15 16  1  0
 16 17  1  0
 16 24  1  0
 17 18  1  0
 17 23  2  0
 18 19  2  0
 19 20  1  0
 20 21  2  0
 20 22  1  0
 22 23  1  0
 24 25  2  0
M  END
