
     RDKit          3D

 12 13  0  0  0  0  0  0  0  0999 V2000
    2.8140    1.0660    0.2780 N   0  0  0  0  0  0  0  0  0  0  0  0
    2.2650   -0.2470    0.0370 C   0  0  1  0  0  0  0  0  0  0  0  0
    1.4420   -0.7190    1.2000 C   0  0  0  0  0  0  0  0  0  0  0  0
    0.2780   -1.5450    0.6390 C   0  0  0  0  0  0  0  0  0  0  0  0
   -0.5770   -0.5650   -0.0470 N   0  0  0  0  0  0  0  0  0  0  0  0
   -1.9690   -0.5400    0.1560 C   0  0  0  0  0  0  0  0  0  0  0  0
   -2.4800   -1.3750    0.9400 O   0  0  0  0  0  0  0  0  0  0  0  0
   -2.7860    0.4670   -0.5570 C   0  0  2  0  0  0  0  0  0  0  0  0
   -3.7200    1.1930    0.3830 C   0  0  0  0  0  0  0  0  0  0  0  0
   -4.2080    0.3770   -0.6690 C   0  0  0  0  0  0  0  0  0  0  0  0
    0.1220    0.3520   -0.9310 C   0  0  0  0  0  0  0  0  0  0  0  0
    1.4910   -0.2180   -1.2440 C   0  0  0  0  0  0  0  0  0  0  0  0
  2  1  1  1
  2  3  1  0
  2 12  1  0
  3  4  1  0
  4  5  1  0
  5  6  1  0
  5 11  1  0
  6  7  2  0
  8  6  1  1
  8  9  1  0
  8 10  1  0
  9 10  2  0
 11 12  1  0
M  CHG  1   1   1
M  END
