
     RDKit          3D

 23 24  0  0  0  0  0  0  0  0999 V2000
   -2.0660    3.4100   -1.7490 C   0  0  0  0  0  0  0  0  0  0  0  0
   -2.1170    2.1320   -1.1810 O   0  0  0  0  0  0  0  0  0  0  0  0
   -1.1460    1.6160   -0.3320 C   0  0  0  0  0  0  0  0  0  0  0  0
   -0.1740    2.3370   -0.0620 O   0  0  0  0  0  0  0  0  0  0  0  0
   -1.2630    0.2690    0.2270 C   0  0  0  0  0  0  0  0  0  0  0  0
   -0.3250   -0.1830    1.0250 C   0  0  0  0  0  0  0  0  0  0  0  0
    0.8150    0.6260    1.3580 N   0  0  0  0  0  0  0  0  0  0  0  0
    2.0150    0.5740    0.5980 C   0  0  0  0  0  0  0  0  0  0  0  0
    2.1610   -0.2490   -0.5000 C   0  0  0  0  0  0  0  0  0  0  0  0
    3.3440   -0.2870   -1.2340 C   0  0  0  0  0  0  0  0  0  0  0  0
    3.4470   -1.1330   -2.3350 O   0  0  0  0  0  0  0  0  0  0  0  0
    4.4040    0.5090   -0.8700 C   0  0  0  0  0  0  0  0  0  0  0  0
    4.2810    1.3430    0.2280 C   0  0  0  0  0  0  0  0  0  0  0  0
    3.0850    1.3660    0.9510 C   0  0  0  0  0  0  0  0  0  0  0  0
    2.8980    2.4150    2.3510 Cl  0  0  0  0  0  0  0  0  0  0  0  0
   -0.4020   -1.5200    1.6050 C   0  0  0  0  0  0  0  0  0  0  0  0
   -1.5660   -2.3600    1.2680 C   0  0  0  0  0  0  0  0  0  0  0  0
   -2.5390   -1.7580    0.3780 C   0  0  0  0  0  0  0  0  0  0  0  0
   -3.7610   -2.5640   -0.0090 C   0  0  1  0  0  0  0  0  0  0  0  0
   -4.5590   -1.8460   -0.8440 F   0  0  0  0  0  0  0  0  0  0  0  0
   -3.3680   -3.7380   -0.5740 F   0  0  0  0  0  0  0  0  0  0  0  0
   -4.4520   -2.8270    1.1640 F   0  0  0  0  0  0  0  0  0  0  0  0
   -2.4280   -0.5560   -0.1150 C   0  0  0  0  0  0  0  0  0  0  0  0
  1  2  1  0
  2  3  1  0
  3  4  2  0
  3  5  1  0
  5  6  2  0
  5 23  1  0
  6  7  1  0
  6 16  1  0
  7  8  1  0
  8  9  2  0
  8 14  1  0
  9 10  1  0
 10 11  1  0
 10 12  2  0
 12 13  1  0
 13 14  2  0
 14 15  1  0
 16 17  1  0
 17 18  1  0
 18 19  1  0
 18 23  2  0
 19 20  1  6
 19 21  1  0
 19 22  1  0
M  END
