
     RDKit          3D

 23 24  0  0  0  0  0  0  0  0999 V2000
   -3.3180    3.0830    0.6310 O   0  0  0  0  0  0  0  0  0  0  0  0
   -2.5710    2.0970    0.4280 C   0  0  0  0  0  0  0  0  0  0  0  0
   -1.2090    2.2430    0.3890 C   0  0  0  0  0  0  0  0  0  0  0  0
   -0.5840    3.4090    0.5590 F   0  0  0  0  0  0  0  0  0  0  0  0
   -0.4300    1.1040    0.1590 C   0  0  0  0  0  0  0  0  0  0  0  0
    1.0550    1.2770    0.1310 C   0  0  0  0  0  0  0  0  0  0  0  0
    1.7050    0.1060   -0.1200 O   0  0  0  0  0  0  0  0  0  0  0  0
    3.0260   -0.1170   -0.2280 C   0  0  0  0  0  0  0  0  0  0  0  0
    4.1180    0.7750    0.0320 C   0  0  0  0  0  0  0  0  0  0  0  0
    4.2170    1.9870    0.4200 C   0  0  0  0  0  0  0  0  0  0  0  0
    3.3020    2.8910    0.7330 F   0  0  0  0  0  0  0  0  0  0  0  0
    5.5240    2.4910    0.5510 F   0  0  0  0  0  0  0  0  0  0  0  0
    3.3710   -1.3620   -0.6420 C   0  0  0  0  0  0  0  0  0  0  0  0
    2.3850   -2.3770   -0.9470 C   0  0  0  0  0  0  0  0  0  0  0  0
    2.5140   -3.5240   -0.1390 O   0  0  0  0  0  0  0  0  0  0  0  0
   -0.9910   -0.0840   -0.0180 N   0  0  0  0  0  0  0  0  0  0  0  0
   -2.3540   -0.2350    0.0200 C   0  0  0  0  0  0  0  0  0  0  0  0
   -2.9370   -1.4820   -0.1660 C   0  0  0  0  0  0  0  0  0  0  0  0
   -4.3180   -1.6210   -0.1260 C   0  0  0  0  0  0  0  0  0  0  0  0
   -5.0030   -3.2050   -0.3640 Cl  0  0  0  0  0  0  0  0  0  0  0  0
   -5.1250   -0.5250    0.0990 C   0  0  0  0  0  0  0  0  0  0  0  0
   -4.5310    0.7120    0.2820 C   0  0  0  0  0  0  0  0  0  0  0  0
   -3.1560    0.8560    0.2430 C   0  0  0  0  0  0  0  0  0  0  0  0
  1  2  2  0
  2  3  1  0
  2 23  1  0
  3  4  1  0
  3  5  2  0
  5  6  1  0
  5 16  1  0
  6  7  1  0
  7  8  1  0
  8  9  1  0
  8 13  2  3
  9 10  2  3
 10 11  1  0
 10 12  1  0
 13 14  1  0
 14 15  1  0
 16 17  1  0
 17 18  2  0
 17 23  1  0
 18 19  1  0
 19 20  1  0
 19 21  2  0
 21 22  1  0
 22 23  2  0
M  END
