
     RDKit          3D

 23 24  0  0  0  0  0  0  0  0999 V2000
    1.7030    1.4700   -0.8920 C   0  0  0  0  0  0  0  0  0  0  0  0
    2.4720    0.3740   -0.2080 C   0  0  0  0  0  0  0  0  0  0  0  0
    3.8150    0.6370    0.1240 C   0  0  0  0  0  0  0  0  0  0  0  0
    4.6380   -0.2920    0.7060 C   0  0  0  0  0  0  0  0  0  0  0  0
    5.9600   -0.0350    1.0330 O   0  0  0  0  0  0  0  0  0  0  0  0
    4.1390   -1.5440    0.9820 C   0  0  0  0  0  0  0  0  0  0  0  0
    4.9410   -2.4940    1.5630 F   0  0  0  0  0  0  0  0  0  0  0  0
    2.8490   -1.7980    0.6640 C   0  0  0  0  0  0  0  0  0  0  0  0
    1.9860   -0.8650    0.0690 C   0  0  0  0  0  0  0  0  0  0  0  0
    0.5850   -1.2290   -0.1870 C   0  0  0  0  0  0  0  0  0  0  0  0
    0.3110   -2.4280   -0.5140 O   0  0  0  0  0  0  0  0  0  0  0  0
   -0.5060   -0.3400   -0.0950 N   0  0  0  0  0  0  0  0  0  0  0  0
   -1.8700   -0.5710   -0.3510 C   0  0  0  0  0  0  0  0  0  0  0  0
   -2.2790   -1.7340   -0.9460 C   0  0  0  0  0  0  0  0  0  0  0  0
   -3.6370   -1.9290   -1.2500 C   0  0  0  0  0  0  0  0  0  0  0  0
   -4.1580   -3.4270   -2.0190 Cl  0  0  0  0  0  0  0  0  0  0  0  0
   -4.5330   -0.9500   -0.9450 C   0  0  0  0  0  0  0  0  0  0  0  0
   -4.1050    0.2370   -0.3350 C   0  0  0  0  0  0  0  0  0  0  0  0
   -2.7810    0.4390   -0.0320 C   0  0  0  0  0  0  0  0  0  0  0  0
   -2.2830    1.5650    0.5630 O   0  0  0  0  0  0  0  0  0  0  0  0
   -3.0640    2.6580    0.9130 C   0  0  1  0  0  0  0  0  0  0  0  0
   -3.2550    2.7350    2.3000 F   0  0  0  0  0  0  0  0  0  0  0  0
   -2.3540    3.8220    0.6010 F   0  0  0  0  0  0  0  0  0  0  0  0
  1  2  1  0
  2  3  2  0
  2  9  1  0
  3  4  1  0
  4  5  1  0
  4  6  2  0
  6  7  1  0
  6  8  1  0
  8  9  2  0
  9 10  1  0
 10 11  2  0
 10 12  1  0
 12 13  1  0
 13 14  2  0
 13 19  1  0
 14 15  1  0
 15 16  1  0
 15 17  2  0
 17 18  1  0
 18 19  2  0
 19 20  1  0
 20 21  1  0
 21 22  1  1
 21 23  1  0
M  END
