
     RDKit          3D

 20 22  0  0  0  0  0  0  0  0999 V2000
   -3.5600   -0.9440    1.8720 C   0  0  0  0  0  0  0  0  0  0  0  0
   -3.0490   -0.8370    0.4980 N   0  0  0  0  0  0  0  0  0  0  0  0
   -4.1570   -0.6500   -0.3780 C   0  0  0  0  0  0  0  0  0  0  0  0
   -4.4860    0.7540   -0.7640 C   0  0  0  0  0  0  0  0  0  0  0  0
   -3.0560    1.3690   -1.7540 S   0  0  0  0  0  0  0  0  0  0  0  0
   -1.6740    0.6250   -0.8360 C   0  0  0  0  0  0  0  0  0  0  0  0
   -0.5110    0.5300   -1.4010 C   0  0  0  0  0  0  0  0  0  0  0  0
    0.6930   -0.0370   -0.8160 C   0  0  0  0  0  0  0  0  0  0  0  0
    1.8790    0.7060   -0.8320 C   0  0  0  0  0  0  0  0  0  0  0  0
    1.8290    2.0020   -1.3970 N   0  0  0  0  0  0  0  0  0  0  0  0
    3.0640    0.2280   -0.3260 C   0  0  0  0  0  0  0  0  0  0  0  0
    4.2430    0.9400   -0.3290 C   0  0  0  0  0  0  0  0  0  0  0  0
    5.4180    0.4410    0.1830 C   0  0  0  0  0  0  0  0  0  0  0  0
    5.4100   -0.8350    0.7270 C   0  0  0  0  0  0  0  0  0  0  0  0
    4.2390   -1.5530    0.7360 C   0  0  0  0  0  0  0  0  0  0  0  0
    3.0500   -1.0420    0.2140 C   0  0  0  0  0  0  0  0  0  0  0  0
    1.9420   -1.7370    0.2290 O   0  0  0  0  0  0  0  0  0  0  0  0
    0.7890   -1.2880   -0.2570 C   0  0  0  0  0  0  0  0  0  0  0  0
   -0.2470   -2.0190   -0.2120 O   0  0  0  0  0  0  0  0  0  0  0  0
   -2.0980    0.2440    0.5190 C   0  0  0  0  0  0  0  0  0  0  0  0
  1  2  1  0
  2  3  1  0
  2 20  1  0
  3  4  1  0
  4  5  1  0
  5  6  1  0
  6  7  2  3
  6 20  1  0
  7  8  1  0
  8  9  2  0
  8 18  1  0
  9 10  1  0
  9 11  1  0
 11 12  2  0
 11 16  1  0
 12 13  1  0
 13 14  2  0
 14 15  1  0
 15 16  2  0
 16 17  1  0
 17 18  1  0
 18 19  2  0
M  END
