
     RDKit          3D

 20 22  0  0  0  0  0  0  0  0999 V2000
    0.9240   -2.6620   -1.2390 C   0  0  0  0  0  0  0  0  0  0  0  0
    1.8060   -1.5610   -0.6760 C   0  0  0  0  0  0  0  0  0  0  0  0
    3.5740   -1.6130   -0.5560 S   0  0  0  0  0  0  0  0  0  0  0  0
    3.7270   -0.0320    0.1620 C   0  0  0  0  0  0  0  0  0  0  0  0
    5.0140    0.6460    0.5690 C   0  0  0  0  0  0  0  0  0  0  0  0
    4.9810    1.9330    1.1400 N   0  0  0  0  0  0  0  0  0  0  0  0
    6.0810    0.0460    0.3860 O   0  0  0  0  0  0  0  0  0  0  0  0
    2.4850    0.4300    0.2680 C   0  0  0  0  0  0  0  0  0  0  0  0
    1.4870   -0.3570   -0.1630 C   0  0  0  0  0  0  0  0  0  0  0  0
    0.0520    0.0390   -0.1020 C   0  0  0  0  0  0  0  0  0  0  0  0
   -0.3110    1.3230   -0.5090 C   0  0  0  0  0  0  0  0  0  0  0  0
   -1.5930    1.7730   -0.4870 C   0  0  0  0  0  0  0  0  0  0  0  0
   -2.5860    0.9230   -0.0430 C   0  0  0  0  0  0  0  0  0  0  0  0
   -3.8410    1.3930   -0.0330 N   0  0  0  0  0  0  0  0  0  0  0  0
   -4.8000    0.5610    0.4000 C   0  0  0  0  0  0  0  0  0  0  0  0
   -6.0130    0.9490    0.4340 O   0  0  0  0  0  0  0  0  0  0  0  0
   -4.5360   -0.7270    0.8230 C   0  0  0  0  0  0  0  0  0  0  0  0
   -3.2420   -1.2000    0.8080 C   0  0  0  0  0  0  0  0  0  0  0  0
   -2.2550   -0.3600    0.3680 C   0  0  0  0  0  0  0  0  0  0  0  0
   -0.9240   -0.7940    0.3340 C   0  0  0  0  0  0  0  0  0  0  0  0
  1  2  1  0
  2  3  1  0
  2  9  2  0
  3  4  1  0
  4  5  1  0
  4  8  2  0
  5  6  1  0
  5  7  2  0
  8  9  1  0
  9 10  1  0
 10 11  2  0
 10 20  1  0
 11 12  1  0
 12 13  2  0
 13 14  1  0
 13 19  1  0
 14 15  1  0
 15 16  2  0
 15 17  1  0
 17 18  2  0
 18 19  1  0
 19 20  2  0
M  END
