
     RDKit          3D

 17 18  0  0  0  0  0  0  0  0999 V2000
    5.4360    0.1070   -0.1160 C   0  0  0  0  0  0  0  0  0  0  0  0
    4.3320   -0.7970   -0.1950 N   0  0  0  0  0  0  0  0  0  0  0  0
    3.0990   -0.4470   -0.0270 C   0  0  0  0  0  0  0  0  0  0  0  0
    2.7290    0.8150    0.2410 N   0  0  0  0  0  0  0  0  0  0  0  0
    1.4710    1.2410    0.4250 C   0  0  0  0  0  0  0  0  0  0  0  0
    1.3270    2.4920    0.6720 O   0  0  0  0  0  0  0  0  0  0  0  0
    0.3330    0.4920    0.3780 C   0  0  0  0  0  0  0  0  0  0  0  0
   -0.9020    1.1220    0.5980 C   0  0  0  0  0  0  0  0  0  0  0  0
   -2.0800    0.4170    0.5630 C   0  0  0  0  0  0  0  0  0  0  0  0
   -3.2810    1.0790    0.7860 O   0  0  0  0  0  0  0  0  0  0  0  0
   -3.3030    2.4610    1.0480 C   0  0  0  0  0  0  0  0  0  0  0  0
   -2.1060   -0.9170    0.3140 C   0  0  0  0  0  0  0  0  0  0  0  0
   -3.2950   -1.6090    0.2820 O   0  0  0  0  0  0  0  0  0  0  0  0
   -3.4240   -2.9760    0.0350 C   0  0  0  0  0  0  0  0  0  0  0  0
   -0.9140   -1.5630    0.0940 C   0  0  0  0  0  0  0  0  0  0  0  0
    0.2770   -0.8600    0.1280 C   0  0  0  0  0  0  0  0  0  0  0  0
    1.8230   -1.5690   -0.1330 S   0  0  0  0  0  0  0  0  0  0  0  0
  1  2  1  0
  2  3  2  3
  3  4  1  0
  3 17  1  0
  4  5  1  0
  5  6  2  0
  5  7  1  0
  7  8  2  0
  7 16  1  0
  8  9  1  0
  9 10  1  0
  9 12  2  0
 10 11  1  0
 12 13  1  0
 12 15  1  0
 13 14  1  0
 15 16  2  0
 16 17  1  0
M  END
