
     RDKit          3D

 18 19  0  0  0  0  0  0  0  0999 V2000
    0.0420   -1.9250   -1.6490 C   0  0  0  0  0  0  0  0  0  0  0  0
    0.6390   -1.2230   -0.7290 C   0  0  0  0  0  0  0  0  0  0  0  0
    2.0100   -1.3300   -0.6000 N   0  0  0  0  0  0  0  0  0  0  0  0
    2.6920   -0.6460    0.3130 C   0  0  0  0  0  0  0  0  0  0  0  0
    4.4560   -0.8830    0.3660 S   0  0  0  0  0  0  0  0  0  0  0  0
    5.3380    0.2730   -0.7040 C   0  0  0  0  0  0  0  0  0  0  0  0
    5.2240    1.7040   -0.2500 C   0  0  0  0  0  0  0  0  0  0  0  0
    2.0100    0.1600    1.1170 N   0  0  0  0  0  0  0  0  0  0  0  0
    0.6850    0.3160    1.0530 C   0  0  0  0  0  0  0  0  0  0  0  0
    0.1000    1.1050    1.8540 O   0  0  0  0  0  0  0  0  0  0  0  0
   -0.0700   -0.3940    0.0960 C   0  0  0  0  0  0  0  0  0  0  0  0
   -1.3510   -0.1790    0.1200 C   0  0  0  0  0  0  0  0  0  0  0  0
   -2.4960   -0.6140   -0.5760 C   0  0  0  0  0  0  0  0  0  0  0  0
   -3.7120   -0.1150   -0.2010 C   0  0  0  0  0  0  0  0  0  0  0  0
   -4.0200    0.8510    0.8700 C   0  0  0  0  0  0  0  0  0  0  0  0
   -5.3750    0.6340    1.1120 O   0  0  0  0  0  0  0  0  0  0  0  0
   -5.9370    0.3080   -0.1140 C   0  0  0  0  0  0  0  0  0  0  0  0
   -4.9250   -0.4440   -0.7900 O   0  0  0  0  0  0  0  0  0  0  0  0
  1  2  2  0
  2  3  1  0
  2 11  1  0
  3  4  1  0
  4  5  1  0
  4  8  2  0
  5  6  1  0
  6  7  1  0
  8  9  1  0
  9 10  2  0
  9 11  1  0
 11 12  2  3
 12 13  1  0
 13 14  2  3
 14 15  1  0
 14 18  1  0
 15 16  1  0
 16 17  1  0
 17 18  1  0
M  END
