
     RDKit          3D

 18 19  0  0  0  0  0  0  0  0999 V2000
   -2.6080   -2.7000   -0.6180 C   0  0  0  0  0  0  0  0  0  0  0  0
   -2.4050   -1.4020   -0.5240 C   0  0  0  0  0  0  0  0  0  0  0  0
   -3.5970   -0.5150   -0.7670 C   0  0  0  0  0  0  0  0  0  0  0  0
   -3.5170    0.6910    0.1020 C   0  0  0  0  0  0  0  0  0  0  0  0
   -4.5790    1.2150    0.5410 O   0  0  0  0  0  0  0  0  0  0  0  0
   -2.2260    1.2040    0.4020 N   0  0  0  0  0  0  0  0  0  0  0  0
   -2.1080    2.5650    0.8890 C   0  0  0  0  0  0  0  0  0  0  0  0
   -1.0180    0.4690    0.2580 C   0  0  0  0  0  0  0  0  0  0  0  0
    0.2180    1.0130    0.5620 C   0  0  0  0  0  0  0  0  0  0  0  0
    1.4070    0.2890    0.4190 C   0  0  0  0  0  0  0  0  0  0  0  0
    2.6590    0.8840    0.7400 N   0  0  0  0  0  0  0  0  0  0  0  0
    4.0700    0.8080   -0.2040 S   0  0  1  0  0  0  0  0  0  0  0  0
    4.6550   -0.8550   -0.4240 C   0  0  0  0  0  0  0  0  0  0  0  0
    3.8010    1.4660   -1.5310 O   0  0  0  0  0  0  0  0  0  0  0  0
    5.1610    1.5960    0.4610 O   0  0  0  0  0  0  0  0  0  0  0  0
    1.2790   -0.9990   -0.0430 C   0  0  0  0  0  0  0  0  0  0  0  0
    0.0400   -1.5720   -0.3580 C   0  0  0  0  0  0  0  0  0  0  0  0
   -1.1060   -0.8260   -0.2020 C   0  0  0  0  0  0  0  0  0  0  0  0
  1  2  2  0
  2  3  1  0
  2 18  1  0
  3  4  1  0
  4  5  2  0
  4  6  1  0
  6  7  1  0
  6  8  1  0
  8  9  2  0
  8 18  1  0
  9 10  1  0
 10 11  1  0
 10 16  2  0
 11 12  1  0
 12 13  1  6
 12 14  2  0
 12 15  2  0
 16 17  1  0
 17 18  2  0
M  END
