
     RDKit          3D

 18 19  0  0  0  0  0  0  0  0999 V2000
    5.0840   -0.3660   -0.9860 C   0  0  0  0  0  0  0  0  0  0  0  0
    4.9100   -0.7680    0.4610 C   0  0  0  0  0  0  0  0  0  0  0  0
    3.9820    0.0740    1.1330 O   0  0  0  0  0  0  0  0  0  0  0  0
    2.6670    0.1910    0.7200 C   0  0  0  0  0  0  0  0  0  0  0  0
    2.2730   -0.4610   -0.2730 O   0  0  0  0  0  0  0  0  0  0  0  0
    1.7470    1.0710    1.4440 C   0  0  0  0  0  0  0  0  0  0  0  0
    0.3920    1.0500    0.8550 N   0  0  0  0  0  0  0  0  0  0  0  0
   -0.3500   -0.1320    0.7860 C   0  0  0  0  0  0  0  0  0  0  0  0
    0.2820   -1.1530    1.2850 O   0  0  0  0  0  0  0  0  0  0  0  0
   -1.6570   -0.3520    0.2610 C   0  0  0  0  0  0  0  0  0  0  0  0
   -2.0770   -1.6460    0.3570 C   0  0  0  0  0  0  0  0  0  0  0  0
   -3.3700   -2.0610   -0.1200 C   0  0  0  0  0  0  0  0  0  0  0  0
   -4.1680   -1.1960   -0.6580 C   0  0  0  0  0  0  0  0  0  0  0  0
   -3.7950    0.2010   -0.7970 N   0  0  0  0  0  0  0  0  0  0  0  0
   -4.6890    1.1590   -1.3980 C   0  0  0  0  0  0  0  0  0  0  0  0
   -3.7550    2.6700   -1.3160 S   0  0  0  0  0  0  0  0  0  0  0  0
   -2.3010    1.9320   -0.5170 C   0  0  0  0  0  0  0  0  0  0  0  0
   -2.5640    0.6590   -0.3570 C   0  0  0  0  0  0  0  0  0  0  0  0
  1  2  1  0
  2  3  1  0
  3  4  1  0
  4  5  2  0
  4  6  1  0
  6  7  1  0
  7  8  1  0
  8  9  2  0
  8 10  1  0
 10 11  2  0
 10 18  1  0
 11 12  1  0
 12 13  2  0
 13 14  1  0
 14 15  1  0
 14 18  1  0
 15 16  1  0
 16 17  1  0
 17 18  2  0
M  END
