
     RDKit          3D

 18 19  0  0  0  0  0  0  0  0999 V2000
    3.2260   -0.0720    2.5050 C   0  0  0  0  0  0  0  0  0  0  0  0
    3.2400    0.2040    1.0250 C   0  0  0  0  0  0  0  0  0  0  0  0
    4.0790    1.1170    0.5620 C   0  0  0  0  0  0  0  0  0  0  0  0
    4.1020    1.3810   -0.7960 O   0  0  0  0  0  0  0  0  0  0  0  0
    3.2880    0.7410   -1.7330 C   0  0  0  0  0  0  0  0  0  0  0  0
    2.3790   -0.2660   -1.1300 C   0  0  0  0  0  0  0  0  0  0  0  0
    2.3320   -0.5410    0.1590 C   0  0  0  0  0  0  0  0  0  0  0  0
    1.4990   -1.4690    0.7370 O   0  0  0  0  0  0  0  0  0  0  0  0
    0.1360   -1.5430    0.4850 C   0  0  0  0  0  0  0  0  0  0  0  0
   -0.4530   -0.4250    0.2600 N   0  0  0  0  0  0  0  0  0  0  0  0
   -1.8100   -0.2580   -0.0160 N   0  0  0  0  0  0  0  0  0  0  0  0
   -2.3760    1.0800   -0.2580 C   0  0  2  0  0  0  0  0  0  0  0  0
   -3.3550    1.4070    0.8460 C   0  0  0  0  0  0  0  0  0  0  0  0
   -2.9520    1.2110   -1.6270 C   0  0  0  0  0  0  0  0  0  0  0  0
   -2.6680   -1.3580   -0.0690 C   0  0  0  0  0  0  0  0  0  0  0  0
   -3.8740   -1.2090    0.2190 O   0  0  0  0  0  0  0  0  0  0  0  0
   -2.2680   -2.7400   -0.4490 C   0  0  0  0  0  0  0  0  0  0  0  0
   -0.7460   -3.0940    0.4730 S   0  0  0  0  0  0  0  0  0  0  0  0
  1  2  1  0
  2  3  2  0
  2  7  1  0
  3  4  1  0
  4  5  1  0
  5  6  1  0
  6  7  2  0
  7  8  1  0
  8  9  1  0
  9 10  2  0
  9 18  1  0
 10 11  1  0
 11 12  1  0
 11 15  1  0
 12 13  1  1
 12 14  1  0
 15 16  2  0
 15 17  1  0
 17 18  1  0
M  END
