
     RDKit          3D

 18 19  0  0  0  0  0  0  0  0999 V2000
    1.9250   -1.7290    0.9070 O   0  0  0  0  0  0  0  0  0  0  0  0
    1.4730   -0.7710    0.2490 C   0  0  0  0  0  0  0  0  0  0  0  0
   -0.0230   -0.6900    0.0690 C   0  0  0  0  0  0  0  0  0  0  0  0
   -0.8290   -0.2360    1.5860 S   0  0  0  0  0  0  0  0  0  0  0  0
   -2.5710   -0.1630    1.5950 C   0  0  0  0  0  0  0  0  0  0  0  0
   -3.1030    0.1310    2.7430 O   0  0  0  0  0  0  0  0  0  0  0  0
   -3.4800   -0.3770    0.5470 N   0  0  0  0  0  0  0  0  0  0  0  0
   -3.3490   -0.7010   -0.8480 C   0  0  0  0  0  0  0  0  0  0  0  0
   -4.2550    0.3830   -1.4650 C   0  0  0  0  0  0  0  0  0  0  0  0
   -5.2350    0.7600   -0.3470 C   0  0  0  0  0  0  0  0  0  0  0  0
   -4.9540   -0.2960    0.7080 C   0  0  0  0  0  0  0  0  0  0  0  0
    2.3310    0.1980   -0.3030 N   0  0  0  0  0  0  0  0  0  0  0  0
    3.7580    0.2340   -0.1790 C   0  0  0  0  0  0  0  0  0  0  0  0
    4.4860   -0.5750    0.5270 C   0  0  0  0  0  0  0  0  0  0  0  0
    5.9370   -0.4330    0.5750 C   0  0  0  0  0  0  0  0  0  0  0  0
    6.5920    0.5160   -0.0860 C   0  0  0  0  0  0  0  0  0  0  0  0
    5.8090    1.3740   -0.8320 O   0  0  0  0  0  0  0  0  0  0  0  0
    4.4440    1.3160   -0.9750 C   0  0  0  0  0  0  0  0  0  0  0  0
  1  2  2  0
  2  3  1  0
  2 12  1  0
  3  4  1  0
  4  5  1  0
  5  6  2  0
  5  7  1  0
  7  8  1  0
  7 11  1  0
  8  9  1  0
  9 10  1  0
 10 11  1  0
 12 13  1  0
 13 14  2  0
 13 18  1  0
 14 15  1  0
 15 16  2  0
 16 17  1  0
 17 18  1  0
M  END
