
     RDKit          3D

 18 19  0  0  0  0  0  0  0  0999 V2000
   -4.8450    0.7250   -0.8480 C   0  0  0  0  0  0  0  0  0  0  0  0
   -3.5420    0.1650   -0.3320 C   0  0  0  0  0  0  0  0  0  0  0  0
   -3.7890   -0.4820    0.9900 C   0  0  0  0  0  0  0  0  0  0  0  0
   -2.5170   -1.0750    1.5820 C   0  0  0  0  0  0  0  0  0  0  0  0
   -1.4840   -0.0550    1.7940 C   0  0  0  0  0  0  0  0  0  0  0  0
   -0.2890   -0.0520    1.2450 C   0  0  0  0  0  0  0  0  0  0  0  0
    0.9010    1.2780    1.5940 S   0  0  0  0  0  0  0  0  0  0  0  0
    2.1940    0.6040    0.5410 C   0  0  0  0  0  0  0  0  0  0  0  0
    1.7370   -0.5330   -0.0160 C   0  0  0  0  0  0  0  0  0  0  0  0
    2.5980   -1.1890   -0.8570 N   0  0  0  0  0  0  0  0  0  0  0  0
    3.8120   -0.7110   -1.0950 C   0  0  0  0  0  0  0  0  0  0  0  0
    4.6130   -1.3110   -1.8700 O   0  0  0  0  0  0  0  0  0  0  0  0
    4.2550    0.4180   -0.5370 N   0  0  0  0  0  0  0  0  0  0  0  0
    5.5810    0.9650   -0.7800 C   0  0  0  0  0  0  0  0  0  0  0  0
    3.4560    1.1020    0.2940 C   0  0  0  0  0  0  0  0  0  0  0  0
    3.8500    2.1850    0.8430 O   0  0  0  0  0  0  0  0  0  0  0  0
    0.3960   -0.9200    0.3430 C   0  0  0  0  0  0  0  0  0  0  0  0
   -0.1810   -1.9790   -0.1060 O   0  0  0  0  0  0  0  0  0  0  0  0
  1  2  1  0
  2  3  1  0
  3  4  1  0
  4  5  1  0
  5  6  2  3
  6  7  1  0
  6 17  1  0
  7  8  1  0
  8  9  2  0
  8 15  1  0
  9 10  1  0
  9 17  1  0
 10 11  1  0
 11 12  2  0
 11 13  1  0
 13 14  1  0
 13 15  1  0
 15 16  2  0
 17 18  2  0
M  END
