
     RDKit          3D

 27 30  0  0  0  0  0  0  0  0999 V2000
    7.7870   -1.4520   -0.2180 C   0  0  0  0  0  0  0  0  0  0  0  0
    6.5730   -2.0850    0.0980 O   0  0  0  0  0  0  0  0  0  0  0  0
    5.3880   -1.3870    0.0040 C   0  0  0  0  0  0  0  0  0  0  0  0
    4.1610   -1.9530    0.3010 C   0  0  0  0  0  0  0  0  0  0  0  0
    2.9840   -1.2310    0.1990 C   0  0  0  0  0  0  0  0  0  0  0  0
    2.9810    0.0820   -0.2020 C   0  0  0  0  0  0  0  0  0  0  0  0
    4.2080    0.6510   -0.4990 C   0  0  0  0  0  0  0  0  0  0  0  0
    5.3870   -0.0700   -0.3980 C   0  0  0  0  0  0  0  0  0  0  0  0
    3.9340    1.9180   -0.8590 N   0  0  0  0  0  0  0  0  0  0  0  0
    2.6120    2.1050   -0.7820 C   0  0  0  0  0  0  0  0  0  0  0  0
    1.8890    3.3150   -1.0790 N   0  0  0  0  0  0  0  0  0  0  0  0
    1.9960    0.9810   -0.3770 N   0  0  0  0  0  0  0  0  0  0  0  0
    0.5890    0.8050   -0.1810 C   0  0  0  0  0  0  0  0  0  0  0  0
   -0.2020    1.8820   -0.0240 N   0  0  0  0  0  0  0  0  0  0  0  0
   -1.5390    1.7510    0.1630 C   0  0  0  0  0  0  0  0  0  0  0  0
   -2.1350    0.5090    0.1990 C   0  0  0  0  0  0  0  0  0  0  0  0
   -3.5790    0.4390    0.4030 C   0  0  1  0  0  0  0  0  0  0  0  0
   -4.3190   -0.2510   -0.7150 C   0  0  0  0  0  0  0  0  0  0  0  0
   -5.7060    0.1960   -0.6340 N   0  0  0  0  0  0  0  0  0  0  0  0
   -6.5520   -0.7660    0.0080 C   0  0  0  0  0  0  0  0  0  0  0  0
   -6.3110   -0.8980    1.4600 C   0  0  0  0  0  0  0  0  0  0  0  0
   -5.1870   -0.6980    2.1350 C   0  0  0  0  0  0  0  0  0  0  0  0
   -3.8710   -0.2940    1.6550 C   0  0  0  0  0  0  0  0  0  0  0  0
   -2.8420   -0.5990    2.3830 N   0  0  0  0  0  0  0  0  0  0  0  0
   -2.9870   -1.4540    3.8760 Cl  0  0  0  0  0  0  0  0  0  0  0  0
   -1.3110   -0.5790    0.0360 C   0  0  0  0  0  0  0  0  0  0  0  0
    0.0110   -0.3940   -0.1460 N   0  0  0  0  0  0  0  0  0  0  0  0
  1  2  1  0
  2  3  1  0
  3  4  2  0
  3  8  1  0
  4  5  1  0
  5  6  2  0
  6  7  1  0
  6 12  1  0
  7  8  2  0
  7  9  1  0
  9 10  2  0
 10 11  1  0
 10 12  1  0
 12 13  1  0
 13 14  2  0
 13 27  1  0
 14 15  1  0
 15 16  2  0
 17 16  1  6
 16 26  1  0
 17 18  1  0
 17 23  1  0
 18 19  1  0
 19 20  1  0
 20 21  1  0
 21 22  2  0
 22 23  1  0
 23 24  2  3
 24 25  1  0
 26 27  2  0
M  CHG  1   9   1
M  END
