
     RDKit          3D

 27 30  0  0  0  0  0  0  0  0999 V2000
   -1.6850    0.7260    1.8930 C   0  0  0  0  0  0  0  0  0  0  0  0
   -2.9860    0.5370    1.2100 C   0  0  0  0  0  0  0  0  0  0  0  0
   -3.1070   -0.3420    0.2140 C   0  0  0  0  0  0  0  0  0  0  0  0
   -1.9760   -1.1410   -0.2370 C   0  0  0  0  0  0  0  0  0  0  0  0
   -0.8200   -1.0160    0.3220 N   0  0  0  0  0  0  0  0  0  0  0  0
    0.2500   -1.8220   -0.1560 C   0  0  0  0  0  0  0  0  0  0  0  0
    0.4070   -3.1810   -0.0040 C   0  0  0  0  0  0  0  0  0  0  0  0
    1.5420   -3.5850   -0.5920 N   0  0  0  0  0  0  0  0  0  0  0  0
    2.1130   -2.4960   -1.1190 C   0  0  0  0  0  0  0  0  0  0  0  0
    1.3480   -1.4230   -0.8670 N   0  0  0  0  0  0  0  0  0  0  0  0
    1.6020   -0.0750   -1.2970 C   0  0  0  0  0  0  0  0  0  0  0  0
    2.2970    0.8270   -0.3710 C   0  0  0  0  0  0  0  0  0  0  0  0
    3.6490    0.5130    0.1180 C   0  0  1  0  0  0  0  0  0  0  0  0
    3.8040   -0.7570    0.9110 C   0  0  0  0  0  0  0  0  0  0  0  0
    4.7110    0.5710   -0.9650 C   0  0  0  0  0  0  0  0  0  0  0  0
    4.7970    2.0220   -1.1730 N   0  0  0  0  0  0  0  0  0  0  0  0
    4.6510    2.5170    0.1590 C   0  0  0  0  0  0  0  0  0  0  0  0
    4.0490    1.5740    0.9420 O   0  0  0  0  0  0  0  0  0  0  0  0
   -2.1910   -2.0890   -1.3420 C   0  0  0  0  0  0  0  0  0  0  0  0
   -3.3830   -2.2010   -1.9010 C   0  0  0  0  0  0  0  0  0  0  0  0
   -4.5300   -1.4140   -1.4700 C   0  0  0  0  0  0  0  0  0  0  0  0
   -6.0660   -1.6410   -2.2800 Cl  0  0  0  0  0  0  0  0  0  0  0  0
   -4.3760   -0.5500   -0.4780 C   0  0  0  0  0  0  0  0  0  0  0  0
   -5.5140    0.2090   -0.0740 N   0  0  0  0  0  0  0  0  0  0  0  0
   -5.5000    0.8230    1.2610 C   0  0  0  0  0  0  0  0  0  0  0  0
   -4.1640    1.2820    1.5840 N   0  0  0  0  0  0  0  0  0  0  0  0
   -3.9570    2.4950    2.2880 N   0  0  0  0  0  0  0  0  0  0  0  0
  1  2  1  0
  2  3  2  0
  2 26  1  0
  3  4  1  0
  3 23  1  0
  4  5  2  3
  4 19  1  0
  5  6  1  0
  6  7  2  0
  6 10  1  0
  7  8  1  0
  8  9  2  0
  9 10  1  0
 10 11  1  0
 11 12  1  0
 12 13  1  0
 13 14  1  1
 13 15  1  0
 13 18  1  0
 15 16  1  0
 16 17  1  0
 17 18  1  0
 19 20  2  0
 20 21  1  0
 21 22  1  0
 21 23  2  0
 23 24  1  0
 24 25  1  0
 25 26  1  0
 26 27  1  0
M  CHG  1  16   1
M  END
