
     RDKit          3D

 27 30  0  0  0  0  0  0  0  0999 V2000
    1.0800   -1.1860   -3.6440 N   0  0  0  0  0  0  0  0  0  0  0  0
    0.2220   -0.9050   -2.9440 C   0  0  0  0  0  0  0  0  0  0  0  0
   -0.8580   -0.5400   -2.0310 C   0  0  0  0  0  0  0  0  0  0  0  0
   -2.2040   -0.8510   -2.2380 C   0  0  0  0  0  0  0  0  0  0  0  0
   -2.8690   -0.3820   -1.1830 N   0  0  0  0  0  0  0  0  0  0  0  0
   -2.0370    0.2070   -0.3160 N   0  0  0  0  0  0  0  0  0  0  0  0
   -2.5600    0.7760    0.8950 C   0  0  1  0  0  0  0  0  0  0  0  0
   -3.5430    1.8650    0.4670 C   0  0  0  0  0  0  0  0  0  0  0  0
   -4.9730    1.5200    0.7650 C   0  0  0  0  0  0  0  0  0  0  0  0
   -5.2600    0.1520    0.2740 C   0  0  0  0  0  0  0  0  0  0  0  0
   -6.1190   -0.4720   -0.5160 N   0  0  0  0  0  0  0  0  0  0  0  0
   -5.8370   -1.7820   -0.5480 N   0  0  0  0  0  0  0  0  0  0  0  0
   -4.7700   -2.0310    0.2360 C   0  0  0  0  0  0  0  0  0  0  0  0
   -4.3870   -0.8220    0.7680 C   0  0  0  0  0  0  0  0  0  0  0  0
   -3.3380   -0.3020    1.6840 C   0  0  0  0  0  0  0  0  0  0  0  0
   -0.8040    0.1150   -0.8290 C   0  0  0  0  0  0  0  0  0  0  0  0
    0.3690    0.6930   -0.1860 C   0  0  0  0  0  0  0  0  0  0  0  0
    0.3480    1.0200    1.0490 O   0  0  0  0  0  0  0  0  0  0  0  0
    1.5840    0.9340   -0.8450 N   0  0  0  0  0  0  0  0  0  0  0  0
    2.7400    1.4690   -0.2990 N   0  0  0  0  0  0  0  0  0  0  0  0
    3.5710    0.5580    0.4310 C   0  0  1  0  0  0  0  0  0  0  0  0
    3.6820   -0.6970   -0.4120 C   0  0  0  0  0  0  0  0  0  0  0  0
    4.7700   -1.6300    0.0660 C   0  0  0  0  0  0  0  0  0  0  0  0
    6.0810   -0.8790   -0.0690 C   0  0  1  0  0  0  0  0  0  0  0  0
    6.0800   -0.1170   -1.6620 Cl  0  0  0  0  0  0  0  0  0  0  0  0
    6.0050    0.2370    0.9790 C   0  0  0  0  0  0  0  0  0  0  0  0
    4.9650    1.2080    0.5480 C   0  0  0  0  0  0  0  0  0  0  0  0
  1  2  3  0
  2  3  1  0
  3  4  1  0
  3 16  2  0
  4  5  2  0
  5  6  1  0
  7  6  1  6
  6 16  1  0
  7  8  1  0
  7 15  1  0
  8  9  1  0
  9 10  1  0
 10 11  1  0
 10 14  2  0
 11 12  1  0
 12 13  2  0
 13 14  1  0
 14 15  1  0
 16 17  1  0
 17 18  2  0
 17 19  1  0
 19 20  1  0
 21 20  1  6
 21 22  1  0
 21 27  1  0
 22 23  1  0
 23 24  1  0
 24 25  1  6
 24 26  1  0
 26 27  1  0
M  CHG  1  12   1
M  END
