
     RDKit          3D

 27 30  0  0  0  0  0  0  0  0999 V2000
    6.5630    0.9820    0.4830 C   0  0  0  0  0  0  0  0  0  0  0  0
    6.2040    0.7460   -0.7620 C   0  0  0  0  0  0  0  0  0  0  0  0
    7.2580    0.4000   -1.7480 C   0  0  0  0  0  0  0  0  0  0  0  0
    7.2780    1.6000   -3.0670 Cl  0  0  0  0  0  0  0  0  0  0  0  0
    4.8320    0.8320   -1.1090 N   0  0  0  0  0  0  0  0  0  0  0  0
    4.0800   -0.1820   -0.8570 C   0  0  0  0  0  0  0  0  0  0  0  0
    2.6610   -0.0580   -1.2300 C   0  0  0  0  0  0  0  0  0  0  0  0
    1.6970   -0.5180   -0.2300 C   0  0  0  0  0  0  0  0  0  0  0  0
    0.5930    0.2850   -0.2940 N   0  0  0  0  0  0  0  0  0  0  0  0
   -0.4720    0.1150    0.5010 C   0  0  0  0  0  0  0  0  0  0  0  0
   -1.6240    0.9750    0.4130 N   0  0  0  0  0  0  0  0  0  0  0  0
   -1.6750    2.0640   -0.5400 C   0  0  0  0  0  0  0  0  0  0  0  0
   -3.0800    2.6420   -0.4690 C   0  0  0  0  0  0  0  0  0  0  0  0
   -4.1290    1.5550   -0.6000 C   0  0  0  0  0  0  0  0  0  0  0  0
   -3.9790    0.4690    0.4160 C   0  0  2  0  0  0  0  0  0  0  0  0
   -3.8240   -0.8450   -0.3150 C   0  0  0  0  0  0  0  0  0  0  0  0
   -5.2430   -1.3880   -0.3140 C   0  0  0  0  0  0  0  0  0  0  0  0
   -5.7380   -1.0120    1.0000 N   0  0  0  0  0  0  0  0  0  0  0  0
   -5.1750    0.2870    1.2950 C   0  0  0  0  0  0  0  0  0  0  0  0
   -2.7720    0.7840    1.2740 C   0  0  0  0  0  0  0  0  0  0  0  0
   -0.4240   -0.8930    1.3860 N   0  0  0  0  0  0  0  0  0  0  0  0
    0.6350   -1.7170    1.4980 C   0  0  0  0  0  0  0  0  0  0  0  0
    1.7220   -1.5470    0.6880 C   0  0  0  0  0  0  0  0  0  0  0  0
    2.7810   -2.4730    0.8910 N   0  0  0  0  0  0  0  0  0  0  0  0
    4.1200   -2.4430    0.3850 C   0  0  0  0  0  0  0  0  0  0  0  0
    4.7990   -3.4780    0.5120 O   0  0  0  0  0  0  0  0  0  0  0  0
    4.7060   -1.3030   -0.2480 N   0  0  0  0  0  0  0  0  0  0  0  0
  1  2  2  0
  2  3  1  0
  2  5  1  0
  3  4  1  0
  5  6  2  3
  6  7  1  0
  6 27  1  0
  7  8  1  0
  8  9  2  0
  8 23  1  0
  9 10  1  0
 10 11  1  0
 10 21  2  0
 11 12  1  0
 11 20  1  0
 12 13  1  0
 13 14  1  0
 15 14  1  6
 15 16  1  0
 15 19  1  0
 15 20  1  0
 16 17  1  0
 17 18  1  0
 18 19  1  0
 21 22  1  0
 22 23  2  0
 23 24  1  0
 24 25  1  0
 25 26  2  0
 25 27  1  0
M  CHG  1  18   1
M  END
