
     RDKit          3D

 15 15  0  0  0  0  0  0  0  0999 V2000
   -2.5660   -2.9510   -0.7260 C   0  0  0  0  0  0  0  0  0  0  0  0
   -3.2070   -1.8140   -0.6280 C   0  0  0  0  0  0  0  0  0  0  0  0
   -2.7760   -0.6040    0.0040 C   0  0  0  0  0  0  0  0  0  0  0  0
   -1.4760   -0.4790    0.6570 C   0  0  0  0  0  0  0  0  0  0  0  0
   -0.2820   -0.4250   -0.2620 C   0  0  0  0  0  0  0  0  0  0  0  0
    0.9360   -0.3010    0.6280 C   0  0  0  0  0  0  0  0  0  0  0  0
    2.1680   -0.2370   -0.1230 N   0  0  0  0  0  0  0  0  0  0  0  0
    3.2420   -0.1220    0.8340 C   0  0  0  0  0  0  0  0  0  0  0  0
    4.5910    0.0200    0.2280 C   0  0  0  0  0  0  0  0  0  0  0  0
    4.4790    0.3520   -1.1800 N   0  0  0  0  0  0  0  0  0  0  0  0
    3.5250    1.4720   -1.2390 C   0  0  0  0  0  0  0  0  0  0  0  0
    2.1540    0.8560   -1.0720 C   0  0  0  0  0  0  0  0  0  0  0  0
   -3.6170    0.4440    0.0010 C   0  0  0  0  0  0  0  0  0  0  0  0
   -3.2790    1.7300    0.6190 C   0  0  0  0  0  0  0  0  0  0  0  0
   -4.9510    0.3230   -0.6470 C   0  0  0  0  0  0  0  0  0  0  0  0
  1  2  2  0
  2  3  1  0
  3  4  1  0
  3 13  2  3
  4  5  1  0
  5  6  1  0
  6  7  1  0
  7  8  1  0
  7 12  1  0
  8  9  1  0
  9 10  1  0
 10 11  1  0
 11 12  1  0
 13 14  1  0
 13 15  1  0
M  CHG  1  10   1
M  END
