
     RDKit          3D

 15 16  0  0  0  0  0  0  0  0999 V2000
    4.6880   -0.3340   -0.2620 C   0  0  0  0  0  0  0  0  0  0  0  0
    3.2510    0.2020   -0.3410 C   0  0  2  0  0  0  0  0  0  0  0  0
    3.1770    1.3080    0.6990 C   0  0  0  0  0  0  0  0  0  0  0  0
    2.3530   -0.9440   -0.0200 C   0  0  0  0  0  0  0  0  0  0  0  0
    0.9070   -0.6260   -0.0520 C   0  0  0  0  0  0  0  0  0  0  0  0
    0.0010   -1.6190    0.2620 C   0  0  0  0  0  0  0  0  0  0  0  0
   -1.3580   -1.4180    0.2530 C   0  0  0  0  0  0  0  0  0  0  0  0
   -1.8300   -0.1670   -0.0840 C   0  0  0  0  0  0  0  0  0  0  0  0
   -3.2320    0.0910   -0.1070 N   0  0  0  0  0  0  0  0  0  0  0  0
   -4.0130    0.1270    0.9890 C   0  0  0  0  0  0  0  0  0  0  0  0
   -5.3220    0.3990    0.6520 C   0  0  0  0  0  0  0  0  0  0  0  0
   -5.3430    0.5360   -0.7200 C   0  0  0  0  0  0  0  0  0  0  0  0
   -4.0340    0.3380   -1.1460 C   0  0  0  0  0  0  0  0  0  0  0  0
   -0.8910    0.7940   -0.3900 C   0  0  0  0  0  0  0  0  0  0  0  0
    0.4400    0.5900   -0.3810 N   0  0  0  0  0  0  0  0  0  0  0  0
  2  1  1  1
  2  3  1  0
  2  4  1  0
  4  5  1  0
  5  6  2  0
  5 15  1  0
  6  7  1  0
  7  8  2  0
  8  9  1  0
  8 14  1  0
  9 10  1  0
  9 13  1  0
 10 11  2  0
 11 12  1  0
 12 13  2  0
 14 15  2  0
M  CHG  1  15   1
M  END
