
     RDKit          3D

 22 24  0  0  0  0  0  0  0  0999 V2000
    6.8690    1.2060    0.3690 O   0  0  0  0  0  0  0  0  0  0  0  0
    5.6150    1.1620    0.2820 C   0  0  0  0  0  0  0  0  0  0  0  0
    4.6540    2.2560   -0.0540 C   0  0  0  0  0  0  0  0  0  0  0  0
    3.5760    1.5130   -0.5670 O   0  0  0  0  0  0  0  0  0  0  0  0
    3.4260    0.5170    0.3750 C   0  0  1  0  0  0  0  0  0  0  0  0
    2.5230   -0.5930   -0.0560 C   0  0  1  0  0  0  0  0  0  0  0  0
    2.5920   -1.6020    0.9190 O   0  0  0  0  0  0  0  0  0  0  0  0
    1.1040   -0.1410   -0.1330 C   0  0  1  0  0  0  0  0  0  0  0  0
    0.8630    0.8530   -1.0480 O   0  0  0  0  0  0  0  0  0  0  0  0
    0.1940   -1.3580   -0.3560 C   0  0  0  0  0  0  0  0  0  0  0  0
   -1.1430   -0.9510    0.0500 N   0  0  0  0  0  0  0  0  0  0  0  0
   -2.3000   -0.9950   -0.7770 C   0  0  0  0  0  0  0  0  0  0  0  0
   -2.1730   -1.4300   -1.9710 O   0  0  0  0  0  0  0  0  0  0  0  0
   -3.6290   -0.5810   -0.3770 C   0  0  0  0  0  0  0  0  0  0  0  0
   -4.6970   -0.6280   -1.1560 C   0  0  0  0  0  0  0  0  0  0  0  0
   -5.8720   -0.1270   -0.4090 C   0  0  0  0  0  0  0  0  0  0  0  0
   -5.2230    0.6850    0.6930 C   0  0  0  0  0  0  0  0  0  0  0  0
   -4.0240   -0.0660    0.8750 O   0  0  0  0  0  0  0  0  0  0  0  0
   -1.1090   -0.5160    1.4080 C   0  0  0  0  0  0  0  0  0  0  0  0
   -1.9560   -0.6630    2.3020 O   0  0  0  0  0  0  0  0  0  0  0  0
    0.4970    0.3260    1.5440 S   0  0  0  0  0  0  0  0  0  0  0  0
    4.7970    0.0130    0.4920 N   0  0  0  0  0  0  0  0  0  0  0  0
  1  2  2  0
  2  3  1  0
  2 22  1  0
  3  4  1  0
  4  5  1  0
  5  6  1  0
  5 22  1  6
  6  7  1  1
  6  8  1  0
  8  9  1  6
  8 10  1  0
  8 21  1  0
 10 11  1  0
 11 12  1  0
 11 19  1  0
 12 13  2  0
 12 14  1  0
 14 15  2  0
 14 18  1  0
 15 16  1  0
 16 17  1  0
 17 18  1  0
 19 20  2  0
 19 21  1  0
M  END
