
     RDKit          3D

 15 15  0  0  0  0  0  0  0  0999 V2000
   -5.1040   -1.3040    0.2620 C   0  0  0  0  0  0  0  0  0  0  0  0
   -4.3190   -0.4070   -0.3200 C   0  0  0  0  0  0  0  0  0  0  0  0
   -4.9470    0.7620   -0.9790 C   0  0  0  0  0  0  0  0  0  0  0  0
   -2.8210   -0.5910   -0.3010 C   0  0  0  0  0  0  0  0  0  0  0  0
   -2.2450    0.5290    0.3670 N   0  0  0  0  0  0  0  0  0  0  0  0
   -0.8830    0.4040    0.7680 C   0  0  2  0  0  0  0  0  0  0  0  0
   -0.1160    1.6050    0.1950 C   0  0  0  0  0  0  0  0  0  0  0  0
    1.2370    1.5620    0.7260 C   0  0  0  0  0  0  0  0  0  0  0  0
    1.9730    0.3380    0.7660 N   0  0  0  0  0  0  0  0  0  0  0  0
    3.1430    0.4860   -0.1110 C   0  0  0  0  0  0  0  0  0  0  0  0
    4.2310   -0.4540    0.0970 C   0  0  0  0  0  0  0  0  0  0  0  0
    4.2760   -1.3400    1.0450 C   0  0  0  0  0  0  0  0  0  0  0  0
    5.4030   -0.4000   -0.8610 C   0  0  0  0  0  0  0  0  0  0  0  0
    1.2710   -0.8250    0.3380 C   0  0  0  0  0  0  0  0  0  0  0  0
   -0.1970   -0.7780    0.1640 C   0  0  0  0  0  0  0  0  0  0  0  0
  1  2  2  0
  2  3  1  0
  2  4  1  0
  4  5  1  0
  6  5  1  6
  6  7  1  0
  6 15  1  0
  7  8  1  0
  8  9  1  0
  9 10  1  0
  9 14  1  0
 10 11  1  0
 11 12  2  0
 11 13  1  0
 14 15  1  0
M  CHG  1   5   1
M  END
