
     RDKit          3D

 15 16  0  0  0  0  0  0  0  0999 V2000
    3.6700    0.2170    1.0770 C   0  0  0  0  0  0  0  0  0  0  0  0
    2.6140    0.8630    0.1820 C   0  0  1  0  0  0  0  0  0  0  0  0
    3.2700    0.9230   -1.2090 C   0  0  0  0  0  0  0  0  0  0  0  0
    1.5030    0.0140    0.1260 N   0  0  0  0  0  0  0  0  0  0  0  0
    0.2770    0.5170   -0.4360 C   0  0  0  0  0  0  0  0  0  0  0  0
   -0.6840   -0.6470   -0.3290 C   0  0  0  0  0  0  0  0  0  0  0  0
   -0.2070   -1.8920   -0.7000 C   0  0  0  0  0  0  0  0  0  0  0  0
   -1.0050   -2.9990   -0.4830 C   0  0  0  0  0  0  0  0  0  0  0  0
   -2.2490   -2.8120    0.1200 C   0  0  0  0  0  0  0  0  0  0  0  0
   -2.6630   -1.6140    0.4880 N   0  0  0  0  0  0  0  0  0  0  0  0
   -1.8840   -0.4890    0.2530 C   0  0  0  0  0  0  0  0  0  0  0  0
   -2.6020    0.7710    0.3110 C   0  0  0  0  0  0  0  0  0  0  0  0
   -2.7280    1.8280   -0.4830 C   0  0  0  0  0  0  0  0  0  0  0  0
   -3.6210    2.4750    0.4730 C   0  0  0  0  0  0  0  0  0  0  0  0
   -3.4850    1.4010    1.2570 C   0  0  0  0  0  0  0  0  0  0  0  0
  2  1  1  1
  2  3  1  0
  2  4  1  0
  4  5  1  0
  5  6  1  0
  6  7  2  0
  6 11  1  0
  7  8  1  0
  8  9  2  0
  9 10  1  0
 10 11  2  0
 11 12  1  0
 12 13  2  0
 12 15  1  0
 13 14  1  0
 14 15  2  0
M  CHG  1  10   1
M  END
