
     RDKit          3D

 15 16  0  0  0  0  0  0  0  0999 V2000
    5.4680   -0.0190   -0.2640 C   0  0  0  0  0  0  0  0  0  0  0  0
    4.0410   -0.4810   -0.0910 C   0  0  0  0  0  0  0  0  0  0  0  0
    3.1500    0.6540   -0.2190 N   0  0  0  0  0  0  0  0  0  0  0  0
    1.7440    0.4710   -0.0940 C   0  0  0  0  0  0  0  0  0  0  0  0
    0.8770    1.5310   -0.2110 C   0  0  0  0  0  0  0  0  0  0  0  0
   -0.5080    1.3960   -0.0950 C   0  0  0  0  0  0  0  0  0  0  0  0
   -1.0340    0.1420    0.1490 C   0  0  0  0  0  0  0  0  0  0  0  0
   -2.4990   -0.0350    0.2780 C   0  0  0  0  0  0  0  0  0  0  0  0
   -3.3330    1.0340    0.1560 C   0  0  0  0  0  0  0  0  0  0  0  0
   -4.7100    0.8030    0.2880 C   0  0  0  0  0  0  0  0  0  0  0  0
   -5.1850   -0.4670    0.5310 C   0  0  0  0  0  0  0  0  0  0  0  0
   -4.3110   -1.5180    0.6470 C   0  0  0  0  0  0  0  0  0  0  0  0
   -2.9920   -1.2560    0.5140 N   0  0  0  0  0  0  0  0  0  0  0  0
   -0.1470   -0.8960    0.2620 C   0  0  0  0  0  0  0  0  0  0  0  0
    1.2310   -0.7800    0.1490 C   0  0  0  0  0  0  0  0  0  0  0  0
  1  2  1  0
  2  3  1  0
  3  4  1  0
  4  5  2  0
  4 15  1  0
  5  6  1  0
  6  7  2  0
  7  8  1  0
  7 14  1  0
  8  9  2  0
  8 13  1  0
  9 10  1  0
 10 11  2  0
 11 12  1  0
 12 13  2  0
 14 15  2  0
M  CHG  1  13   1
M  END
