
     RDKit          3D

 22 24  0  0  0  0  0  0  0  0999 V2000
    2.4800    0.7630    0.4830 O   0  0  0  0  0  0  0  0  0  0  0  0
    2.0660   -0.3840    0.2820 C   0  0  0  0  0  0  0  0  0  0  0  0
    0.7340   -0.6010   -0.3360 C   0  0  0  0  0  0  0  0  0  0  0  0
    0.0330    0.7020   -0.6500 C   0  0  1  0  0  0  0  0  0  0  0  0
   -1.5800    0.2400   -1.4000 S   0  0  0  0  0  0  0  0  0  0  0  0
   -2.5810    0.4420    0.1260 C   0  0  1  0  0  0  0  0  0  0  0  0
   -3.6310    1.4650   -0.1300 C   0  0  0  0  0  0  0  0  0  0  0  0
   -4.6970    0.7930   -1.0030 C   0  0  0  0  0  0  0  0  0  0  0  0
   -4.1540   -0.2820   -1.7010 O   0  0  0  0  0  0  0  0  0  0  0  0
   -3.8520   -1.3570   -0.9020 C   0  0  0  0  0  0  0  0  0  0  0  0
   -3.2740   -0.8760    0.4300 C   0  0  2  0  0  0  0  0  0  0  0  0
   -4.3550   -0.6010    1.2550 O   0  0  0  0  0  0  0  0  0  0  0  0
   -1.6030    0.8040    1.0950 N   0  0  0  0  0  0  0  0  0  0  0  0
   -0.4540    1.3850    0.5630 C   0  0  0  0  0  0  0  0  0  0  0  0
    0.1440    2.4040    1.0480 O   0  0  0  0  0  0  0  0  0  0  0  0
    2.8250   -1.4690    0.6230 O   0  0  0  0  0  0  0  0  0  0  0  0
    4.1060   -1.3890    1.2170 C   0  0  0  0  0  0  0  0  0  0  0  0
    5.0840   -0.6760    0.3910 C   0  0  0  0  0  0  0  0  0  0  0  0
    6.1860   -1.1990   -0.0540 N   0  0  0  0  0  0  0  0  0  0  0  0
    6.8990   -0.3120   -0.7900 O   0  0  0  0  0  0  0  0  0  0  0  0
    6.3340    0.9700   -0.5960 C   0  0  0  0  0  0  0  0  0  0  0  0
    5.0520    0.6140   -0.0610 O   0  0  0  0  0  0  0  0  0  0  0  0
  1  2  2  0
  2  3  1  0
  2 16  1  0
  4  3  1  1
  4  5  1  0
  4 14  1  0
  5  6  1  0
  6  7  1  6
  6 11  1  0
  6 13  1  0
  7  8  1  0
  8  9  1  0
  9 10  1  0
 10 11  1  0
 11 12  1  1
 13 14  1  0
 14 15  2  0
 16 17  1  0
 17 18  1  0
 18 19  2  0
 18 22  1  0
 19 20  1  0
 20 21  1  0
 21 22  1  0
M  END
