
     RDKit          3D

 22 24  0  0  0  0  0  0  0  0999 V2000
    3.5150   -2.7180    1.0720 O   0  0  0  0  0  0  0  0  0  0  0  0
    4.4330   -1.9230    0.9070 C   0  0  0  0  0  0  0  0  0  0  0  0
    5.7190   -2.4040    1.2360 O   0  0  0  0  0  0  0  0  0  0  0  0
    4.3100   -0.5690    0.4160 C   0  0  0  0  0  0  0  0  0  0  0  0
    3.2990    0.1710    0.0300 C   0  0  0  0  0  0  0  0  0  0  0  0
    1.8910   -0.3180    0.0260 C   0  0  0  0  0  0  0  0  0  0  0  0
    1.5490   -1.4630    0.3810 O   0  0  0  0  0  0  0  0  0  0  0  0
    0.8070    0.5250   -0.4010 N   0  0  0  0  0  0  0  0  0  0  0  0
   -0.5670    0.0450   -0.4040 C   0  0  2  0  0  0  0  0  0  0  0  0
   -1.0370    0.0440   -1.8190 C   0  0  0  0  0  0  0  0  0  0  0  0
   -2.4430   -0.2420   -1.9650 N   0  0  0  0  0  0  0  0  0  0  0  0
   -3.3390    0.3110   -1.0170 C   0  0  0  0  0  0  0  0  0  0  0  0
   -4.5160    0.5630   -1.4120 O   0  0  0  0  0  0  0  0  0  0  0  0
   -2.8930    0.5710    0.3650 C   0  0  1  0  0  0  0  0  0  0  0  0
   -3.7520    1.6020    1.0590 C   0  0  0  0  0  0  0  0  0  0  0  0
   -4.8250    0.8980    1.5870 O   0  0  0  0  0  0  0  0  0  0  0  0
   -4.5240   -0.4410    1.5140 C   0  0  0  0  0  0  0  0  0  0  0  0
   -3.2190   -0.5860    1.1100 O   0  0  0  0  0  0  0  0  0  0  0  0
   -1.4410    0.8440    0.5200 C   0  0  0  0  0  0  0  0  0  0  0  0
    3.5900    1.4520   -0.3800 O   0  0  0  0  0  0  0  0  0  0  0  0
    4.8490    1.6130   -0.9930 C   0  0  0  0  0  0  0  0  0  0  0  0
    5.7600    0.5270    0.1920 S   0  0  0  0  0  0  0  0  0  0  0  0
  1  2  2  0
  2  3  1  0
  2  4  1  0
  4  5  2  0
  4 22  1  0
  5  6  1  0
  5 20  1  0
  6  7  2  0
  6  8  1  0
  9  8  1  6
  9 10  1  0
  9 19  1  0
 10 11  1  0
 11 12  1  0
 12 13  2  0
 12 14  1  0
 14 15  1  1
 14 18  1  0
 14 19  1  0
 15 16  1  0
 16 17  1  0
 17 18  1  0
 20 21  1  0
 21 22  1  0
M  END
