
     RDKit          3D

 24 27  0  0  0  0  0  0  0  0999 V2000
   -7.0830   -1.3500   -0.1600 C   0  0  0  0  0  0  0  0  0  0  0  0
   -5.6420   -0.9860    0.0140 C   0  0  0  0  0  0  0  0  0  0  0  0
   -5.2900    0.2740   -0.0400 C   0  0  0  0  0  0  0  0  0  0  0  0
   -3.8750    0.5980    0.1260 N   0  0  0  0  0  0  0  0  0  0  0  0
   -3.3970    1.9630    0.0360 C   0  0  0  0  0  0  0  0  0  0  0  0
   -2.0660    2.1960    0.1360 C   0  0  0  0  0  0  0  0  0  0  0  0
   -1.1130    1.1370    0.3320 C   0  0  0  0  0  0  0  0  0  0  0  0
   -1.5640   -0.0890    0.4280 C   0  0  0  0  0  0  0  0  0  0  0  0
   -0.4480   -1.0190    0.6250 C   0  0  0  0  0  0  0  0  0  0  0  0
    0.7210   -0.1970    0.2860 N   0  0  0  0  0  0  0  0  0  0  0  0
    1.7590   -0.9650   -0.1140 C   0  0  0  0  0  0  0  0  0  0  0  0
    3.0710   -0.2570   -0.2460 C   0  0  0  0  0  0  0  0  0  0  0  0
    3.5740    0.3330   -1.3190 C   0  0  0  0  0  0  0  0  0  0  0  0
    4.9070    0.7330   -1.3660 C   0  0  0  0  0  0  0  0  0  0  0  0
    5.7000    0.5030   -0.2840 C   0  0  0  0  0  0  0  0  0  0  0  0
    7.1500    0.9090   -0.2450 C   0  0  0  0  0  0  0  0  0  0  0  0
    5.1820   -0.1140    0.8420 C   0  0  0  0  0  0  0  0  0  0  0  0
    6.2040   -0.3390    2.2420 Cl  0  0  0  0  0  0  0  0  0  0  0  0
    3.8830   -0.4990    0.8810 C   0  0  0  0  0  0  0  0  0  0  0  0
    3.1260   -1.2400    2.3040 Cl  0  0  0  0  0  0  0  0  0  0  0  0
    0.4320    1.1330    0.3230 C   0  0  0  0  0  0  0  0  0  0  0  0
   -2.9840   -0.4540    0.3250 C   0  0  0  0  0  0  0  0  0  0  0  0
   -3.3450   -1.6660    0.3670 N   0  0  0  0  0  0  0  0  0  0  0  0
   -4.7070   -2.0120    0.2150 N   0  0  0  0  0  0  0  0  0  0  0  0
  1  2  1  0
  2  3  2  0
  2 24  1  0
  3  4  1  0
  4  5  1  0
  4 22  1  0
  5  6  2  0
  6  7  1  0
  7  8  2  0
  7 21  1  0
  8  9  1  0
  8 22  1  0
  9 10  1  0
 10 11  1  0
 10 21  1  0
 11 12  1  0
 12 13  2  0
 12 19  1  0
 13 14  1  0
 14 15  2  0
 15 16  1  0
 15 17  1  0
 17 18  1  0
 17 19  2  0
 19 20  1  0
 22 23  2  0
 23 24  1  0
M  END
