
     RDKit          3D

 19 20  0  0  0  0  0  0  0  0999 V2000
   -0.2760   -2.1860    0.9580 C   0  0  0  0  0  0  0  0  0  0  0  0
   -0.5350   -0.8870    0.4260 N   0  0  0  0  0  0  0  0  0  0  0  0
    0.4160    0.0760    0.1360 C   0  0  0  0  0  0  0  0  0  0  0  0
   -0.0680    1.2050   -0.3500 O   0  0  0  0  0  0  0  0  0  0  0  0
    1.8540    0.0770    0.2680 C   0  0  0  0  0  0  0  0  0  0  0  0
    2.5570   -0.9300    0.7270 C   0  0  0  0  0  0  0  0  0  0  0  0
    3.9920   -0.9210    0.8550 N   0  0  0  0  0  0  0  0  0  0  0  0
    4.6920    0.2410    0.4650 C   0  0  0  0  0  0  0  0  0  0  0  0
    5.9390    0.2900    0.5600 O   0  0  0  0  0  0  0  0  0  0  0  0
    3.9740    1.3530   -0.0360 N   0  0  0  0  0  0  0  0  0  0  0  0
    2.5970    1.2600   -0.1270 N   0  0  0  0  0  0  0  0  0  0  0  0
   -1.9770   -0.5820    0.1730 C   0  0  1  0  0  0  0  0  0  0  0  0
   -2.3760    0.6170    0.9350 C   0  0  0  0  0  0  0  0  0  0  0  0
   -1.9450    0.8030    2.0990 O   0  0  0  0  0  0  0  0  0  0  0  0
   -3.2470    1.5800    0.3750 N   0  0  0  0  0  0  0  0  0  0  0  0
   -3.1600    1.9190   -1.0240 C   0  0  0  0  0  0  0  0  0  0  0  0
   -2.6950    0.7510   -1.7940 C   0  0  0  0  0  0  0  0  0  0  0  0
   -2.1800   -0.3380   -1.2730 C   0  0  0  0  0  0  0  0  0  0  0  0
   -1.7950   -1.3470   -2.1880 O   0  0  0  0  0  0  0  0  0  0  0  0
  1  2  1  0
  2  3  1  0
 12  2  1  6
  3  4  2  0
  3  5  1  0
  5  6  2  0
  5 11  1  0
  6  7  1  0
  7  8  1  0
  8  9  2  0
  8 10  1  0
 10 11  1  0
 12 13  1  0
 12 18  1  0
 13 14  2  0
 13 15  1  0
 15 16  1  0
 16 17  1  0
 17 18  2  0
 18 19  1  0
M  END
