
     RDKit          3D

 24 27  0  0  0  0  0  0  0  0999 V2000
   -4.6210    1.6510    0.3250 C   0  0  0  0  0  0  0  0  0  0  0  0
   -4.0040    0.2950    0.4710 C   0  0  1  0  0  0  0  0  0  0  0  0
   -4.2680   -0.3320    1.8180 C   0  0  0  0  0  0  0  0  0  0  0  0
   -4.5810   -0.6070   -0.5910 C   0  0  0  0  0  0  0  0  0  0  0  0
   -3.6610   -0.4020   -1.7310 C   0  0  0  0  0  0  0  0  0  0  0  0
   -4.0830   -0.8340   -3.4070 Cl  0  0  0  0  0  0  0  0  0  0  0  0
   -2.5420    0.1220   -1.3060 C   0  0  0  0  0  0  0  0  0  0  0  0
   -2.5120    0.3600    0.1720 C   0  0  2  0  0  0  0  0  0  0  0  0
   -1.8070   -0.7300    0.8890 C   0  0  0  0  0  0  0  0  0  0  0  0
   -0.3630   -0.7960    0.7480 C   0  0  0  0  0  0  0  0  0  0  0  0
    0.3700   -1.8060    1.3050 N   0  0  0  0  0  0  0  0  0  0  0  0
    1.6250   -1.6050    1.0680 N   0  0  0  0  0  0  0  0  0  0  0  0
    1.7790   -0.4720    0.3550 C   0  0  0  0  0  0  0  0  0  0  0  0
    2.7250    0.3590   -0.2380 C   0  0  0  0  0  0  0  0  0  0  0  0
    4.1640    0.1910   -0.2310 C   0  0  0  0  0  0  0  0  0  0  0  0
    4.9220    0.8120    0.7380 C   0  0  0  0  0  0  0  0  0  0  0  0
    6.3050    0.7220    0.7620 C   0  0  0  0  0  0  0  0  0  0  0  0
    6.9760   -0.0040   -0.2010 C   0  0  0  0  0  0  0  0  0  0  0  0
    6.2410   -0.6300   -1.1700 C   0  0  0  0  0  0  0  0  0  0  0  0
    4.8510   -0.5270   -1.1780 C   0  0  0  0  0  0  0  0  0  0  0  0
    3.9800   -1.3490   -2.4260 Cl  0  0  0  0  0  0  0  0  0  0  0  0
    1.9630    1.3770   -0.7940 C   0  0  0  0  0  0  0  0  0  0  0  0
    0.6760    1.1130   -0.5190 N   0  0  0  0  0  0  0  0  0  0  0  0
    0.5380    0.0100    0.1680 N   0  0  0  0  0  0  0  0  0  0  0  0
  2  1  1  1
  2  3  1  0
  2  4  1  0
  2  8  1  0
  4  5  1  0
  5  6  1  0
  5  7  2  0
  7  8  1  0
  8  9  1  1
  9 10  1  0
 10 11  2  0
 10 24  1  0
 11 12  1  0
 12 13  1  0
 13 14  2  0
 13 24  1  0
 14 15  1  0
 14 22  1  0
 15 16  2  0
 15 20  1  0
 16 17  1  0
 17 18  2  0
 18 19  1  0
 19 20  2  0
 20 21  1  0
 22 23  2  0
 23 24  1  0
M  END
