
     RDKit          3D

 19 20  0  0  0  0  0  0  0  0999 V2000
    3.6130    1.7680   -0.7070 C   0  0  0  0  0  0  0  0  0  0  0  0
    3.6250    0.5810    0.2480 C   0  0  2  0  0  0  0  0  0  0  0  0
    4.2070   -0.4730   -0.4210 O   0  0  0  0  0  0  0  0  0  0  0  0
    2.1930    0.2970    0.6120 C   0  0  0  0  0  0  0  0  0  0  0  0
    1.6750    0.3130    1.7800 N   0  0  0  0  0  0  0  0  0  0  0  0
    0.3120   -0.0020    1.7350 N   0  0  0  0  0  0  0  0  0  0  0  0
    0.0800   -0.5810    0.4630 C   0  0  1  0  0  0  0  0  0  0  0  0
   -1.2290   -0.7610   -0.0660 C   0  0  0  0  0  0  0  0  0  0  0  0
   -2.0550    0.2360   -0.2180 C   0  0  0  0  0  0  0  0  0  0  0  0
   -1.6340    1.5420    0.1520 C   0  0  0  0  0  0  0  0  0  0  0  0
   -2.6110    2.6010   -0.0450 N   0  0  0  0  0  0  0  0  0  0  0  0
   -0.5830    1.9940    0.6200 O   0  0  0  0  0  0  0  0  0  0  0  0
   -3.3820    0.1560   -0.7340 O   0  0  0  0  0  0  0  0  0  0  0  0
   -4.3130   -0.8460   -0.6440 N   0  0  0  0  0  0  0  0  0  0  0  0
   -4.0770   -2.1080   -0.6340 C   0  0  0  0  0  0  0  0  0  0  0  0
   -2.7780   -2.7640   -0.7150 C   0  0  0  0  0  0  0  0  0  0  0  0
   -2.7730   -3.9730   -1.0620 O   0  0  0  0  0  0  0  0  0  0  0  0
   -1.5270   -2.1530   -0.4350 N   0  0  0  0  0  0  0  0  0  0  0  0
    1.1690   -0.0580   -0.3980 C   0  0  0  0  0  0  0  0  0  0  0  0
  2  1  1  6
  2  3  1  0
  2  4  1  0
  4  5  2  0
  4 19  1  0
  5  6  1  0
  6  7  1  0
  7  8  1  6
  7 19  1  0
  8  9  2  0
  8 18  1  0
  9 10  1  0
  9 13  1  0
 10 11  1  0
 10 12  2  0
 13 14  1  0
 14 15  2  0
 15 16  1  0
 16 17  2  0
 16 18  1  0
M  END
