
     RDKit          3D

 24 27  0  0  0  0  0  0  0  0999 V2000
    1.7640   -1.8490    2.5440 Cl  0  0  0  0  0  0  0  0  0  0  0  0
    2.8520   -1.4080    1.2310 C   0  0  0  0  0  0  0  0  0  0  0  0
    2.4770   -0.5660    0.3010 C   0  0  0  0  0  0  0  0  0  0  0  0
    3.3400   -0.2080   -0.7520 N   0  0  0  0  0  0  0  0  0  0  0  0
    4.5210    0.2790   -0.5810 C   0  0  0  0  0  0  0  0  0  0  0  0
    5.1650    0.5430    0.6810 C   0  0  0  0  0  0  0  0  0  0  0  0
    6.3620    1.0380    0.3950 C   0  0  0  0  0  0  0  0  0  0  0  0
    6.5320    1.1110   -1.0630 C   0  0  0  0  0  0  0  0  0  0  0  0
    5.4330    0.6580   -1.6410 C   0  0  0  0  0  0  0  0  0  0  0  0
    1.1840   -0.0070    0.3520 N   0  0  0  0  0  0  0  0  0  0  0  0
    0.1020   -0.5750   -0.3850 C   0  0  0  0  0  0  0  0  0  0  0  0
    0.1520   -1.6930   -1.2120 C   0  0  0  0  0  0  0  0  0  0  0  0
   -1.0740   -1.9220   -1.7360 N   0  0  0  0  0  0  0  0  0  0  0  0
   -1.8920   -0.9940   -1.2710 N   0  0  0  0  0  0  0  0  0  0  0  0
   -1.2110   -0.1660   -0.4530 C   0  0  0  0  0  0  0  0  0  0  0  0
   -1.8980    0.9580    0.1960 C   0  0  0  0  0  0  0  0  0  0  0  0
   -3.3200    0.6940    0.4160 C   0  0  0  0  0  0  0  0  0  0  0  0
   -3.9710    1.3210    1.4810 C   0  0  0  0  0  0  0  0  0  0  0  0
   -5.3100    1.0810    1.6980 C   0  0  0  0  0  0  0  0  0  0  0  0
   -6.1650    1.8580    3.0350 Cl  0  0  0  0  0  0  0  0  0  0  0  0
   -5.9750    0.2170    0.8450 C   0  0  0  0  0  0  0  0  0  0  0  0
   -5.3230   -0.3990   -0.2060 C   0  0  0  0  0  0  0  0  0  0  0  0
   -3.9890   -0.1630   -0.4250 C   0  0  0  0  0  0  0  0  0  0  0  0
   -3.3020   -0.8220   -1.5440 C   0  0  0  0  0  0  0  0  0  0  0  0
  1  2  1  0
  2  3  2  3
  3  4  1  0
  3 10  1  0
  4  5  2  3
  5  6  1  0
  5  9  1  0
  6  7  2  0
  7  8  1  0
  8  9  2  0
 10 11  1  0
 11 12  1  0
 11 15  2  0
 12 13  2  0
 13 14  1  0
 14 15  1  0
 14 24  1  0
 15 16  1  0
 16 17  1  0
 17 18  2  0
 17 23  1  0
 18 19  1  0
 19 20  1  0
 19 21  2  0
 21 22  1  0
 22 23  2  0
 23 24  1  0
M  END
