
     RDKit          3D

 12 12  0  0  0  0  0  0  0  0999 V2000
   -3.0000    0.1630    1.2370 C   0  0  0  0  0  0  0  0  0  0  0  0
   -2.1140   -0.1600    0.0250 C   0  0  2  0  0  0  0  0  0  0  0  0
   -2.7800   -1.2770   -0.7860 C   0  0  0  0  0  0  0  0  0  0  0  0
   -0.8550   -0.5330    0.3780 O   0  0  0  0  0  0  0  0  0  0  0  0
    0.3610   -0.0380    0.0980 C   0  0  0  0  0  0  0  0  0  0  0  0
    1.4640   -0.7110    0.6580 C   0  0  0  0  0  0  0  0  0  0  0  0
    2.7540   -0.3180    0.4580 C   0  0  0  0  0  0  0  0  0  0  0  0
    3.8340   -1.0160    1.0350 N   0  0  0  0  0  0  0  0  0  0  0  0
    2.9830    0.7950   -0.3350 C   0  0  0  0  0  0  0  0  0  0  0  0
    1.9550    1.4870   -0.9030 C   0  0  0  0  0  0  0  0  0  0  0  0
    0.6550    1.0470   -0.6700 C   0  0  0  0  0  0  0  0  0  0  0  0
   -0.3760    1.7670   -1.2590 O   0  0  0  0  0  0  0  0  0  0  0  0
  2  1  1  1
  2  3  1  0
  2  4  1  0
  4  5  1  0
  5  6  2  0
  5 11  1  0
  6  7  1  0
  7  8  1  0
  7  9  2  0
  9 10  1  0
 10 11  2  0
 11 12  1  0
M  END
