
     RDKit          3D

 12 12  0  0  0  0  0  0  0  0999 V2000
   -0.6200   -2.3550   -1.0660 N   0  0  0  0  0  0  0  0  0  0  0  0
   -0.8880   -1.1740   -0.3200 C   0  0  0  0  0  0  0  0  0  0  0  0
   -2.0930   -0.9930    0.3060 C   0  0  0  0  0  0  0  0  0  0  0  0
   -2.3790    0.1350    1.0400 C   0  0  0  0  0  0  0  0  0  0  0  0
   -1.4200    1.1050    1.1410 C   0  0  0  0  0  0  0  0  0  0  0  0
   -1.6310    2.2850    1.8700 O   0  0  0  0  0  0  0  0  0  0  0  0
   -0.1870    0.9360    0.5080 C   0  0  0  0  0  0  0  0  0  0  0  0
    0.1120   -0.1740   -0.2190 C   0  0  0  0  0  0  0  0  0  0  0  0
    1.3110   -0.3960   -0.9550 C   0  0  0  0  0  0  0  0  0  0  0  0
    2.4800    0.1310   -0.8340 C   0  0  0  0  0  0  0  0  0  0  0  0
    2.9770    1.1040    0.0760 C   0  0  0  0  0  0  0  0  0  0  0  0
    4.2210    1.4560   -0.0880 O   0  0  0  0  0  0  0  0  0  0  0  0
  1  2  1  0
  2  3  2  0
  2  8  1  0
  3  4  1  0
  4  5  2  0
  5  6  1  0
  5  7  1  0
  7  8  2  0
  8  9  1  0
  9 10  2  3
 10 11  1  0
 11 12  2  0
M  END
