
     RDKit          3D

 12 12  0  0  0  0  0  0  0  0999 V2000
    2.7310   -0.6870   -0.7620 C   0  0  0  0  0  0  0  0  0  0  0  0
    1.5330   -1.2500   -0.1410 C   0  0  0  0  0  0  0  0  0  0  0  0
    0.4410   -0.6360    0.2260 C   0  0  0  0  0  0  0  0  0  0  0  0
   -0.6210   -1.4960    0.8330 C   0  0  0  0  0  0  0  0  0  0  0  0
   -1.9520   -0.8290    0.9350 C   0  0  0  0  0  0  0  0  0  0  0  0
   -2.5430   -0.3860   -0.3820 C   0  0  0  0  0  0  0  0  0  0  0  0
   -2.1350    1.0210   -0.6170 C   0  0  0  0  0  0  0  0  0  0  0  0
   -3.0230    1.8480   -0.9010 O   0  0  0  0  0  0  0  0  0  0  0  0
   -0.7910    1.4970   -0.5410 N   0  0  0  0  0  0  0  0  0  0  0  0
    0.3590    0.8100    0.0260 C   0  0  0  0  0  0  0  0  0  0  0  0
    1.3740    1.5060    0.4070 C   0  0  0  0  0  0  0  0  0  0  0  0
    1.3430    2.8740    0.2340 O   0  0  0  0  0  0  0  0  0  0  0  0
  1  2  1  0
  2  3  2  3
  3  4  1  0
  3 10  1  0
  4  5  1  0
  5  6  1  0
  6  7  1  0
  7  8  2  0
  7  9  1  0
  9 10  1  0
 10 11  2  3
 11 12  1  0
M  END
