
     RDKit          3D

 22 24  0  0  0  0  0  0  0  0999 V2000
   -7.0600   -0.1530   -1.2300 C   0  0  0  0  0  0  0  0  0  0  0  0
   -5.8660    0.4260   -1.7170 O   0  0  0  0  0  0  0  0  0  0  0  0
   -4.6620    0.3190   -1.0160 C   0  0  0  0  0  0  0  0  0  0  0  0
   -3.4960    0.8820   -1.4880 C   0  0  0  0  0  0  0  0  0  0  0  0
   -2.2960    0.7900   -0.8160 C   0  0  0  0  0  0  0  0  0  0  0  0
   -2.2350    0.1070    0.3890 C   0  0  0  0  0  0  0  0  0  0  0  0
   -0.9900    0.0190    1.0750 N   0  0  0  0  0  0  0  0  0  0  0  0
    0.2050   -0.1450    0.4580 C   0  0  0  0  0  0  0  0  0  0  0  0
    1.1990   -0.1900    1.4140 C   0  0  0  0  0  0  0  0  0  0  0  0
    2.6410   -0.3570    1.1560 C   0  0  0  0  0  0  0  0  0  0  0  0
    3.7000   -0.4120    2.0510 C   0  0  0  0  0  0  0  0  0  0  0  0
    4.9170   -0.5720    1.5450 C   0  0  0  0  0  0  0  0  0  0  0  0
    5.1300   -0.6780    0.2060 C   0  0  0  0  0  0  0  0  0  0  0  0
    6.5360   -0.8860   -0.7420 S   0  0  1  0  0  0  0  0  0  0  0  0
    6.6760    0.4740   -1.8260 N   0  0  0  0  0  0  0  0  0  0  0  0
    7.7430   -0.8900    0.1140 O   0  0  0  0  0  0  0  0  0  0  0  0
    6.3950   -2.1180   -1.5890 O   0  0  0  0  0  0  0  0  0  0  0  0
    3.4310   -0.5400   -0.4240 S   0  0  0  0  0  0  0  0  0  0  0  0
    0.5820   -0.0510    2.5830 N   0  0  0  0  0  0  0  0  0  0  0  0
   -0.7230    0.0720    2.3630 N   0  0  0  0  0  0  0  0  0  0  0  0
   -3.3770   -0.4630    0.8840 C   0  0  0  0  0  0  0  0  0  0  0  0
   -4.5810   -0.3570    0.1850 C   0  0  0  0  0  0  0  0  0  0  0  0
  1  2  1  0
  2  3  1  0
  3  4  2  0
  3 22  1  0
  4  5  1  0
  5  6  2  0
  6  7  1  0
  6 21  1  0
  7  8  1  0
  7 20  1  0
  8  9  2  0
  9 10  1  0
  9 19  1  0
 10 11  2  0
 10 18  1  0
 11 12  1  0
 12 13  2  0
 13 14  1  0
 13 18  1  0
 14 15  1  6
 14 16  2  0
 14 17  2  0
 19 20  2  0
 21 22  2  0
M  END
