
     RDKit          3D

 22 24  0  0  0  0  0  0  0  0999 V2000
    7.1380    1.3900   -0.1600 O   0  0  0  0  0  0  0  0  0  0  0  0
    6.1580    0.6240   -0.3360 C   0  0  0  0  0  0  0  0  0  0  0  0
    6.2380   -0.6620   -0.7120 N   0  0  0  0  0  0  0  0  0  0  0  0
    5.0010   -1.1050   -0.7830 N   0  0  0  0  0  0  0  0  0  0  0  0
    4.1110   -0.1480   -0.4650 C   0  0  0  0  0  0  0  0  0  0  0  0
    2.6590   -0.2750   -0.4340 C   0  0  0  0  0  0  0  0  0  0  0  0
    1.8450    0.7800   -0.0910 C   0  0  0  0  0  0  0  0  0  0  0  0
    0.4480    0.6170   -0.0740 C   0  0  0  0  0  0  0  0  0  0  0  0
   -0.1280   -0.5840   -0.3950 C   0  0  0  0  0  0  0  0  0  0  0  0
   -1.5720   -0.7450   -0.3750 C   0  0  0  0  0  0  0  0  0  0  0  0
   -2.0730   -2.0060   -0.7170 C   0  0  0  0  0  0  0  0  0  0  0  0
   -3.4330   -2.2270   -0.7180 C   0  0  0  0  0  0  0  0  0  0  0  0
   -4.2860   -1.2160   -0.3860 C   0  0  0  0  0  0  0  0  0  0  0  0
   -3.8500    0.0570   -0.0370 C   0  0  0  0  0  0  0  0  0  0  0  0
   -4.9290    1.2860    0.3690 S   0  0  0  0  0  0  0  0  0  0  0  0
   -5.4530    1.4740    2.3230 S   0  0  1  0  0  0  0  0  0  0  0  0
   -6.9000    1.1210    2.3500 O   0  0  0  0  0  0  0  0  0  0  0  0
   -4.7980    0.7300    3.4020 O   0  0  0  0  0  0  0  0  0  0  0  0
   -2.4600    0.2410   -0.0480 C   0  0  0  0  0  0  0  0  0  0  0  0
    0.7030   -1.5900   -0.7250 N   0  0  0  0  0  0  0  0  0  0  0  0
    2.0530   -1.4570   -0.7490 C   0  0  0  0  0  0  0  0  0  0  0  0
    4.8600    0.9400   -0.1840 N   0  0  0  0  0  0  0  0  0  0  0  0
  1  2  2  0
  2  3  1  0
  2 22  1  0
  3  4  1  0
  4  5  2  0
  5  6  1  0
  5 22  1  0
  6  7  2  0
  6 21  1  0
  7  8  1  0
  8  9  2  0
  9 10  1  0
  9 20  1  0
 10 11  2  0
 10 19  1  0
 11 12  1  0
 12 13  2  0
 13 14  1  0
 14 15  1  0
 14 19  2  0
 16 15  1  6
 16 17  2  0
 16 18  2  0
 20 21  2  0
M  END
