
     RDKit          3D

 21 23  0  0  0  0  0  0  0  0999 V2000
   -5.2210   -2.4230   -1.0360 O   0  0  0  0  0  0  0  0  0  0  0  0
   -4.8600   -1.2060   -0.8450 C   0  0  0  0  0  0  0  0  0  0  0  0
   -5.7020   -0.1120   -1.0310 N   0  0  0  0  0  0  0  0  0  0  0  0
   -5.1410    1.1640   -0.7740 C   0  0  0  0  0  0  0  0  0  0  0  0
   -5.8980    2.5950   -0.5480 S   0  0  0  0  0  0  0  0  0  0  0  0
   -3.3500    0.8470   -0.7420 S   0  0  0  0  0  0  0  0  0  0  0  0
   -3.5180   -0.9010   -0.4110 C   0  0  0  0  0  0  0  0  0  0  0  0
   -2.6170   -1.6740    0.1140 C   0  0  0  0  0  0  0  0  0  0  0  0
   -1.2780   -1.2580    0.5170 C   0  0  0  0  0  0  0  0  0  0  0  0
   -0.7630   -1.7920    1.7000 C   0  0  0  0  0  0  0  0  0  0  0  0
    0.5120   -1.4350    2.0790 C   0  0  0  0  0  0  0  0  0  0  0  0
    1.2340   -0.5930    1.3210 N   0  0  0  0  0  0  0  0  0  0  0  0
    0.7780   -0.0580    0.1810 C   0  0  0  0  0  0  0  0  0  0  0  0
    1.5580    0.8180   -0.6150 N   0  0  0  0  0  0  0  0  0  0  0  0
    2.8780    1.1650   -0.2630 C   0  0  0  0  0  0  0  0  0  0  0  0
    3.8320    0.2850   -0.4550 C   0  0  0  0  0  0  0  0  0  0  0  0
    5.2430    0.5810   -0.1080 C   0  0  0  0  0  0  0  0  0  0  0  0
    5.4280    1.8700    0.4260 O   0  0  0  0  0  0  0  0  0  0  0  0
    4.3940    2.7820    0.6180 C   0  0  0  0  0  0  0  0  0  0  0  0
    3.2040    2.4360    0.2900 N   0  0  0  0  0  0  0  0  0  0  0  0
   -0.5120   -0.3960   -0.2340 C   0  0  0  0  0  0  0  0  0  0  0  0
  1  2  2  0
  2  3  1  0
  2  7  1  0
  3  4  1  0
  4  5  2  0
  4  6  1  0
  6  7  1  0
  7  8  2  3
  8  9  1  0
  9 10  2  0
  9 21  1  0
 10 11  1  0
 11 12  2  0
 12 13  1  0
 13 14  1  0
 13 21  2  0
 14 15  1  0
 15 16  2  0
 15 20  1  0
 16 17  1  0
 17 18  1  0
 18 19  1  0
 19 20  2  0
M  END
