
     RDKit          3D

 21 23  0  0  0  0  0  0  0  0999 V2000
   -2.8030   -1.7460   -0.6700 C   0  0  0  0  0  0  0  0  0  0  0  0
   -3.2270   -0.4820   -0.0170 C   0  0  0  0  0  0  0  0  0  0  0  0
   -2.3400    0.3760    0.3830 C   0  0  0  0  0  0  0  0  0  0  0  0
   -0.9170    0.3960    0.3450 C   0  0  0  0  0  0  0  0  0  0  0  0
   -0.0890   -0.6140   -0.1600 N   0  0  0  0  0  0  0  0  0  0  0  0
    1.3290   -0.3880   -0.1870 C   0  0  0  0  0  0  0  0  0  0  0  0
    2.3680   -0.9280   -0.5090 N   0  0  0  0  0  0  0  0  0  0  0  0
    3.5790   -0.4860   -0.4250 C   0  0  0  0  0  0  0  0  0  0  0  0
    3.7570    0.7800    0.1030 C   0  0  0  0  0  0  0  0  0  0  0  0
    2.0070    1.2420    0.4540 S   0  0  0  0  0  0  0  0  0  0  0  0
    4.9400    1.5230    0.3190 C   0  0  0  0  0  0  0  0  0  0  0  0
    6.1510    0.6660    0.1880 C   0  0  0  0  0  0  0  0  0  0  0  0
    5.8920   -0.8000    0.1360 C   0  0  0  0  0  0  0  0  0  0  0  0
    4.8580   -1.2320   -0.8560 C   0  0  0  0  0  0  0  0  0  0  0  0
   -3.1090    1.8540    1.1100 S   0  0  1  0  0  0  0  0  0  0  0  0
   -2.1280    2.5620    1.9600 O   0  0  0  0  0  0  0  0  0  0  0  0
   -3.5520    2.6850   -0.0480 O   0  0  0  0  0  0  0  0  0  0  0  0
   -4.3950    1.2560    2.0530 N   0  0  0  0  0  0  0  0  0  0  0  0
   -5.1790    0.2690    1.3670 C   0  0  0  0  0  0  0  0  0  0  0  0
   -4.6190   -0.2430    0.1640 N   0  0  0  0  0  0  0  0  0  0  0  0
   -5.5420   -0.5550   -0.9370 C   0  0  0  0  0  0  0  0  0  0  0  0
  1  2  1  0
  2  3  2  0
  2 20  1  0
  3  4  1  0
  3 15  1  0
  4  5  1  0
  5  6  1  0
  6  7  2  0
  6 10  1  0
  7  8  1  0
  8  9  2  0
  8 14  1  0
  9 10  1  0
  9 11  1  0
 11 12  1  0
 12 13  1  0
 13 14  1  0
 15 16  2  0
 15 17  2  0
 15 18  1  1
 18 19  1  0
 19 20  1  0
 20 21  1  0
M  END
