
     RDKit          3D

 21 23  0  0  0  0  0  0  0  0999 V2000
   -2.2410   -3.9800    0.5880 C   0  0  0  0  0  0  0  0  0  0  0  0
   -1.7970   -2.5990    0.2950 C   0  0  0  0  0  0  0  0  0  0  0  0
   -2.5830   -1.5180    0.2850 N   0  0  0  0  0  0  0  0  0  0  0  0
   -1.8690   -0.4220   -0.0180 C   0  0  0  0  0  0  0  0  0  0  0  0
   -2.4900    0.9500   -0.1030 C   0  0  0  0  0  0  0  0  0  0  0  0
   -1.8270    2.0650   -0.3990 C   0  0  0  0  0  0  0  0  0  0  0  0
   -2.5070    3.2710   -0.4480 C   0  0  0  0  0  0  0  0  0  0  0  0
   -4.1980    2.8040   -0.0510 S   0  0  0  0  0  0  0  0  0  0  0  0
   -3.8600    1.0330    0.1500 C   0  0  0  0  0  0  0  0  0  0  0  0
   -0.6180   -0.7950   -0.2040 N   0  0  0  0  0  0  0  0  0  0  0  0
    0.5140   -0.0210   -0.5400 C   0  0  0  0  0  0  0  0  0  0  0  0
    1.4110    0.5110    0.2600 C   0  0  0  0  0  0  0  0  0  0  0  0
    1.3610    0.3620    1.7400 C   0  0  0  0  0  0  0  0  0  0  0  0
    2.3320    0.9400    2.5870 N   0  0  0  0  0  0  0  0  0  0  0  0
    0.4330   -0.2960    2.2940 O   0  0  0  0  0  0  0  0  0  0  0  0
    2.4480    1.2670   -0.3820 C   0  0  0  0  0  0  0  0  0  0  0  0
    3.1180    2.2530    0.1030 O   0  0  0  0  0  0  0  0  0  0  0  0
    2.7510    0.8230   -1.7690 C   0  0  1  0  0  0  0  0  0  0  0  0
    3.6200   -0.3930   -1.6950 C   0  0  0  0  0  0  0  0  0  0  0  0
    1.0140    0.3610   -2.2100 S   0  0  0  0  0  0  0  0  0  0  0  0
   -0.5820   -2.1390   -0.0100 N   0  0  0  0  0  0  0  0  0  0  0  0
  1  2  1  0
  2  3  1  0
  2 21  2  0
  3  4  2  0
  4  5  1  0
  4 10  1  0
  5  6  1  0
  5  9  2  0
  6  7  2  0
  7  8  1  0
  8  9  1  0
 10 11  1  0
 10 21  1  0
 11 12  2  0
 11 20  1  0
 12 13  1  0
 12 16  1  0
 13 14  1  0
 13 15  2  0
 16 17  2  0
 16 18  1  0
 18 19  1  1
 18 20  1  0
M  END
