
     RDKit          3D

 21 23  0  0  0  0  0  0  0  0999 V2000
    6.6210   -0.2550    1.1390 C   0  0  0  0  0  0  0  0  0  0  0  0
    5.0510   -0.8160    1.8910 S   0  0  0  0  0  0  0  0  0  0  0  0
    3.7030   -0.2300    0.8590 C   0  0  0  0  0  0  0  0  0  0  0  0
    3.2320   -0.9740   -0.1590 N   0  0  0  0  0  0  0  0  0  0  0  0
    2.2170   -0.5520   -0.9490 C   0  0  0  0  0  0  0  0  0  0  0  0
    1.6940   -1.3700   -2.0750 C   0  0  0  0  0  0  0  0  0  0  0  0
    1.6230    0.6740   -0.7350 C   0  0  0  0  0  0  0  0  0  0  0  0
    0.2800    1.2980   -1.7360 S   0  0  0  0  0  0  0  0  0  0  0  0
   -1.3030    0.8120   -1.0900 C   0  0  0  0  0  0  0  0  0  0  0  0
   -1.9900   -0.2910   -1.3870 N   0  0  0  0  0  0  0  0  0  0  0  0
   -3.1540   -0.3050   -0.6890 C   0  0  0  0  0  0  0  0  0  0  0  0
   -4.1840   -1.2010   -0.6450 C   0  0  0  0  0  0  0  0  0  0  0  0
   -5.2580   -0.9460    0.1730 C   0  0  0  0  0  0  0  0  0  0  0  0
   -5.2980    0.1880    0.9320 C   0  0  0  0  0  0  0  0  0  0  0  0
   -6.3680    0.4820    1.7720 O   0  0  0  0  0  0  0  0  0  0  0  0
   -4.2570    1.0920    0.8850 C   0  0  0  0  0  0  0  0  0  0  0  0
   -3.1650    0.8570    0.0700 C   0  0  0  0  0  0  0  0  0  0  0  0
   -2.0250    1.5090   -0.2000 N   0  0  0  0  0  0  0  0  0  0  0  0
    2.1070    1.4350    0.3090 C   0  0  0  0  0  0  0  0  0  0  0  0
    1.5820    2.5630    0.5300 O   0  0  0  0  0  0  0  0  0  0  0  0
    3.1240    0.9660    1.0700 N   0  0  0  0  0  0  0  0  0  0  0  0
  1  2  1  0
  2  3  1  0
  3  4  2  0
  3 21  1  0
  4  5  1  0
  5  6  1  0
  5  7  2  0
  7  8  1  0
  7 19  1  0
  8  9  1  0
  9 10  2  0
  9 18  1  0
 10 11  1  0
 11 12  2  0
 11 17  1  0
 12 13  1  0
 13 14  2  0
 14 15  1  0
 14 16  1  0
 16 17  2  0
 17 18  1  0
 19 20  2  0
 19 21  1  0
M  END
