
     RDKit          3D

 21 23  0  0  0  0  0  0  0  0999 V2000
    2.7820    0.6310    2.2590 O   0  0  0  0  0  0  0  0  0  0  0  0
    1.7050    0.4220    1.5780 C   0  0  0  0  0  0  0  0  0  0  0  0
    0.4700    0.9680    1.9220 N   0  0  0  0  0  0  0  0  0  0  0  0
   -0.6190    0.6590    1.0880 C   0  0  0  0  0  0  0  0  0  0  0  0
   -1.8050    1.1890    1.1170 N   0  0  0  0  0  0  0  0  0  0  0  0
   -2.7920    0.7540    0.1920 C   0  0  0  0  0  0  0  0  0  0  0  0
   -4.0120    0.3020    0.7010 C   0  0  0  0  0  0  0  0  0  0  0  0
   -5.0210   -0.1340   -0.1290 C   0  0  0  0  0  0  0  0  0  0  0  0
   -6.5810   -0.7030    0.5790 S   0  0  0  0  0  0  0  0  0  0  0  0
   -4.8100   -0.1170   -1.4770 C   0  0  0  0  0  0  0  0  0  0  0  0
   -3.6220    0.3210   -2.0160 C   0  0  0  0  0  0  0  0  0  0  0  0
   -2.6150    0.7570   -1.1700 C   0  0  0  0  0  0  0  0  0  0  0  0
   -1.4090    1.2040   -1.6750 O   0  0  0  0  0  0  0  0  0  0  0  0
   -0.0290   -0.6130   -0.0110 S   0  0  0  0  0  0  0  0  0  0  0  0
    1.7390   -0.4090    0.3940 C   0  0  0  0  0  0  0  0  0  0  0  0
    2.7260   -0.9470   -0.2900 C   0  0  0  0  0  0  0  0  0  0  0  0
    4.1410   -0.8570   -0.0360 C   0  0  0  0  0  0  0  0  0  0  0  0
    5.1170   -0.5240   -0.9750 C   0  0  0  0  0  0  0  0  0  0  0  0
    6.3600   -0.5710   -0.3930 C   0  0  0  0  0  0  0  0  0  0  0  0
    6.1340   -0.9290    0.8800 N   0  0  0  0  0  0  0  0  0  0  0  0
    4.8180   -1.1000    1.0950 N   0  0  0  0  0  0  0  0  0  0  0  0
  1  2  2  0
  2  3  1  0
  2 15  1  0
  3  4  1  0
  4  5  2  3
  4 14  1  0
  5  6  1  0
  6  7  2  0
  6 12  1  0
  7  8  1  0
  8  9  1  0
  8 10  2  0
 10 11  1  0
 11 12  2  0
 12 13  1  0
 14 15  1  0
 15 16  2  3
 16 17  1  0
 17 18  2  0
 17 21  1  0
 18 19  1  0
 19 20  2  0
 20 21  1  0
M  END
