
     RDKit          3D

 23 26  0  0  0  0  0  0  0  0999 V2000
   -6.6010    0.8430    0.6530 C   0  0  0  0  0  0  0  0  0  0  0  0
   -5.5660   -0.1270    0.9630 N   0  0  0  0  0  0  0  0  0  0  0  0
   -4.9730   -0.6860   -0.2360 C   0  0  0  0  0  0  0  0  0  0  0  0
   -3.5030   -0.8570   -0.0970 C   0  0  0  0  0  0  0  0  0  0  0  0
   -2.8390   -1.9660    0.3770 C   0  0  0  0  0  0  0  0  0  0  0  0
   -1.5130   -1.7560    0.3570 N   0  0  0  0  0  0  0  0  0  0  0  0
   -1.3470   -0.4950   -0.1370 C   0  0  0  0  0  0  0  0  0  0  0  0
   -0.0320    0.0970   -0.3100 C   0  0  0  0  0  0  0  0  0  0  0  0
    1.1050   -0.6170    0.0290 C   0  0  0  0  0  0  0  0  0  0  0  0
    2.3600   -0.0550   -0.1350 C   0  0  0  0  0  0  0  0  0  0  0  0
    3.4990   -0.7540    0.1990 C   0  0  0  0  0  0  0  0  0  0  0  0
    4.7530   -0.1580    0.0220 C   0  0  0  0  0  0  0  0  0  0  0  0
    4.8640    1.1210   -0.4820 C   0  0  0  0  0  0  0  0  0  0  0  0
    3.7160    1.7600   -0.7920 N   0  0  0  0  0  0  0  0  0  0  0  0
    2.4940    1.2240   -0.6370 C   0  0  0  0  0  0  0  0  0  0  0  0
    1.3840    1.9060   -0.9630 N   0  0  0  0  0  0  0  0  0  0  0  0
    0.1580    1.3620   -0.8050 C   0  0  0  0  0  0  0  0  0  0  0  0
   -0.8240    2.0740   -1.1350 O   0  0  0  0  0  0  0  0  0  0  0  0
    6.0210    1.6670   -0.6440 N   0  0  0  0  0  0  0  0  0  0  0  0
    7.1670    0.9990   -0.3230 O   0  0  0  0  0  0  0  0  0  0  0  0
    7.1570   -0.3020    0.1950 C   0  0  0  0  0  0  0  0  0  0  0  0
    5.8040   -0.8810    0.3600 C   0  0  0  0  0  0  0  0  0  0  0  0
   -2.5410    0.0400   -0.4080 N   0  0  0  0  0  0  0  0  0  0  0  0
  1  2  1  0
  2  3  1  0
  3  4  1  0
  4  5  2  0
  4 23  1  0
  5  6  1  0
  6  7  2  0
  7  8  1  0
  7 23  1  0
  8  9  2  0
  8 17  1  0
  9 10  1  0
 10 11  2  0
 10 15  1  0
 11 12  1  0
 12 13  1  0
 12 22  2  0
 13 14  1  0
 13 19  2  0
 14 15  2  0
 15 16  1  0
 16 17  1  0
 17 18  2  0
 19 20  1  0
 20 21  1  0
 21 22  1  0
M  CHG  1   2   1
M  END
