
     RDKit          3D

 16 18  0  0  0  0  0  0  0  0999 V2000
    0.0290    3.0280    0.7230 O   0  0  0  0  0  0  0  0  0  0  0  0
    0.7370    2.0400    0.3970 C   0  0  0  0  0  0  0  0  0  0  0  0
    1.8670    2.0490   -0.3340 N   0  0  0  0  0  0  0  0  0  0  0  0
    2.3380    0.7750   -0.4690 C   0  0  0  0  0  0  0  0  0  0  0  0
    3.4390    0.2440   -1.1100 C   0  0  0  0  0  0  0  0  0  0  0  0
    3.6580   -1.1170   -1.0710 C   0  0  0  0  0  0  0  0  0  0  0  0
    2.7460   -1.8880   -0.3800 C   0  0  0  0  0  0  0  0  0  0  0  0
    1.6410   -1.3750    0.2650 C   0  0  0  0  0  0  0  0  0  0  0  0
    1.4310   -0.0040    0.2200 C   0  0  0  0  0  0  0  0  0  0  0  0
    0.4540    0.7580    0.7500 N   0  0  0  0  0  0  0  0  0  0  0  0
   -0.6840    0.3580    1.5370 C   0  0  0  0  0  0  0  0  0  0  0  0
   -1.8740    0.0500    0.6720 C   0  0  0  0  0  0  0  0  0  0  0  0
   -1.9540    0.1110   -0.6350 C   0  0  0  0  0  0  0  0  0  0  0  0
   -3.3240   -0.2820   -1.0480 C   0  0  0  0  0  0  0  0  0  0  0  0
   -3.9870   -0.5700    0.2500 C   0  0  0  0  0  0  0  0  0  0  0  0
   -3.1430   -0.3770    1.2490 C   0  0  0  0  0  0  0  0  0  0  0  0
  1  2  2  0
  2  3  1  0
  2 10  1  0
  3  4  1  0
  4  5  2  0
  4  9  1  0
  5  6  1  0
  6  7  2  0
  7  8  1  0
  8  9  2  0
  9 10  1  0
 10 11  1  0
 11 12  1  0
 12 13  2  0
 12 16  1  0
 13 14  1  0
 14 15  1  0
 15 16  2  0
M  END
