
     RDKit          3D

 16 18  0  0  0  0  0  0  0  0999 V2000
   -1.8560   -3.2540   -0.2570 C   0  0  0  0  0  0  0  0  0  0  0  0
   -1.4060   -1.8430   -0.1570 C   0  0  0  0  0  0  0  0  0  0  0  0
   -0.0390   -1.5780   -0.1030 C   0  0  0  0  0  0  0  0  0  0  0  0
    0.4100   -0.2780   -0.0090 C   0  0  0  0  0  0  0  0  0  0  0  0
    1.8380    0.0420    0.0500 C   0  0  0  0  0  0  0  0  0  0  0  0
    2.9170   -0.7860    0.0290 C   0  0  0  0  0  0  0  0  0  0  0  0
    4.0680    0.0060    0.1100 C   0  0  0  0  0  0  0  0  0  0  0  0
    3.6000    1.2890    0.1770 C   0  0  0  0  0  0  0  0  0  0  0  0
    2.3120    1.2630    0.1400 O   0  0  0  0  0  0  0  0  0  0  0  0
   -0.5500    0.7210    0.0260 C   0  0  0  0  0  0  0  0  0  0  0  0
   -0.1260    1.9800    0.1160 N   0  0  0  0  0  0  0  0  0  0  0  0
   -1.0120    2.9840    0.1540 C   0  0  0  0  0  0  0  0  0  0  0  0
   -2.3610    2.7240    0.1000 C   0  0  0  0  0  0  0  0  0  0  0  0
   -2.8380    1.4390    0.0070 C   0  0  0  0  0  0  0  0  0  0  0  0
   -1.9080    0.4220   -0.0300 C   0  0  0  0  0  0  0  0  0  0  0  0
   -2.3050   -0.8360   -0.1200 N   0  0  0  0  0  0  0  0  0  0  0  0
  1  2  1  0
  2  3  2  0
  2 16  1  0
  3  4  1  0
  4  5  1  0
  4 10  2  0
  5  6  2  0
  5  9  1  0
  6  7  1  0
  7  8  2  0
  8  9  1  0
 10 11  1  0
 10 15  1  0
 11 12  2  0
 12 13  1  0
 13 14  2  0
 14 15  1  0
 15 16  2  0
M  END
