
     RDKit          3D

 16 18  0  0  0  0  0  0  0  0999 V2000
   -1.9800    2.1750   -1.3480 C   0  0  0  0  0  0  0  0  0  0  0  0
   -2.2910    1.1290   -0.6460 C   0  0  0  0  0  0  0  0  0  0  0  0
   -3.6280    0.7220   -0.5910 O   0  0  0  0  0  0  0  0  0  0  0  0
   -4.0910   -0.3680    0.1130 C   0  0  0  0  0  0  0  0  0  0  0  0
   -3.2030   -1.0760    0.7840 C   0  0  0  0  0  0  0  0  0  0  0  0
   -1.7870   -0.7030    0.7700 C   0  0  0  0  0  0  0  0  0  0  0  0
   -1.3100    0.3330    0.1050 C   0  0  0  0  0  0  0  0  0  0  0  0
    0.1190    0.6450    0.0280 C   0  0  0  0  0  0  0  0  0  0  0  0
    0.5640    1.8730   -0.2490 N   0  0  0  0  0  0  0  0  0  0  0  0
    1.8870    1.9170   -0.3180 C   0  0  0  0  0  0  0  0  0  0  0  0
    2.2740    0.5940   -0.0610 C   0  0  0  0  0  0  0  0  0  0  0  0
    3.5370    0.0450   -0.0240 C   0  0  0  0  0  0  0  0  0  0  0  0
    3.6800   -1.2930    0.2230 C   0  0  0  0  0  0  0  0  0  0  0  0
    2.5660   -2.0730    0.4300 C   0  0  0  0  0  0  0  0  0  0  0  0
    1.3130   -1.5000    0.3890 C   0  0  0  0  0  0  0  0  0  0  0  0
    1.1700   -0.1810    0.1490 N   0  0  0  0  0  0  0  0  0  0  0  0
  1  2  2  0
  2  3  1  0
  2  7  1  0
  3  4  1  0
  4  5  2  0
  5  6  1  0
  6  7  2  0
  7  8  1  0
  8  9  2  0
  8 16  1  0
  9 10  1  0
 10 11  2  0
 11 12  1  0
 11 16  1  0
 12 13  2  0
 13 14  1  0
 14 15  2  0
 15 16  1  0
M  END
