
     RDKit          3D

 27 29  0  0  0  0  0  0  0  0999 V2000
   -2.1290    2.3860   -0.3370 C   0  0  0  0  0  0  0  0  0  0  0  0
   -1.0440    1.6590    0.2970 C   0  0  0  0  0  0  0  0  0  0  0  0
   -0.4970    0.4640   -0.0950 C   0  0  0  0  0  0  0  0  0  0  0  0
   -0.6980   -0.4650   -1.1100 C   0  0  0  0  0  0  0  0  0  0  0  0
   -1.7600   -0.2580   -1.9980 N   0  0  0  0  0  0  0  0  0  0  0  0
   -2.0220   -1.0400   -3.1520 C   0  0  0  0  0  0  0  0  0  0  0  0
   -1.1530   -1.8920   -3.7630 C   0  0  0  0  0  0  0  0  0  0  0  0
   -1.4610   -2.5450   -4.9250 N   0  0  0  0  0  0  0  0  0  0  0  0
   -2.6560   -2.3810   -5.5400 C   0  0  0  0  0  0  0  0  0  0  0  0
   -3.5440   -1.5280   -4.9390 C   0  0  0  0  0  0  0  0  0  0  0  0
   -3.2660   -0.8600   -3.7770 C   0  0  0  0  0  0  0  0  0  0  0  0
   -4.5850    0.2920   -3.0270 Br  0  0  0  0  0  0  0  0  0  0  0  0
    0.0280   -1.5840   -1.2340 N   0  0  0  0  0  0  0  0  0  0  0  0
    1.0020   -1.8620   -0.3590 C   0  0  0  0  0  0  0  0  0  0  0  0
    1.2380   -0.9840    0.6490 C   0  0  0  0  0  0  0  0  0  0  0  0
    2.3360   -1.1690    1.5870 C   0  0  0  0  0  0  0  0  0  0  0  0
    3.0550   -2.2260    1.6570 N   0  0  0  0  0  0  0  0  0  0  0  0
    4.3340   -2.4480    2.7260 S   0  0  1  0  0  0  0  0  0  0  0  0
    4.1340   -4.0550    3.5000 C   0  0  0  0  0  0  0  0  0  0  0  0
    5.6870   -2.4320    2.0410 O   0  0  0  0  0  0  0  0  0  0  0  0
    4.4020   -1.3930    3.7950 O   0  0  0  0  0  0  0  0  0  0  0  0
    0.4980    0.1810    0.7950 C   0  0  0  0  0  0  0  0  0  0  0  0
    0.5340    1.1780    1.6840 N   0  0  0  0  0  0  0  0  0  0  0  0
   -0.3830    2.0620    1.3920 N   0  0  0  0  0  0  0  0  0  0  0  0
   -0.5880    3.2690    2.1950 C   0  0  0  0  0  0  0  0  0  0  0  0
    0.2490    4.4100    1.6890 C   0  0  0  0  0  0  0  0  0  0  0  0
    0.0080    5.5280    2.4840 O   0  0  0  0  0  0  0  0  0  0  0  0
  1  2  1  0
  2  3  2  0
  2 24  1  0
  3  4  1  0
  3 22  1  0
  4  5  1  0
  4 13  2  0
  5  6  1  0
  6  7  2  0
  6 11  1  0
  7  8  1  0
  8  9  2  0
  9 10  1  0
 10 11  2  0
 11 12  1  0
 13 14  1  0
 14 15  2  0
 15 16  1  0
 15 22  1  0
 16 17  2  3
 17 18  1  0
 18 19  1  1
 18 20  2  0
 18 21  2  0
 22 23  2  0
 23 24  1  0
 24 25  1  0
 25 26  1  0
 26 27  1  0
M  END
