
     RDKit          3D

 18 19  0  0  0  0  0  0  0  0999 V2000
    4.5360   -1.5840   -1.0370 O   0  0  0  0  0  0  0  0  0  0  0  0
    5.3180   -0.8220   -0.3970 C   0  0  0  0  0  0  0  0  0  0  0  0
    6.6760   -0.9880   -0.6270 O   0  0  0  0  0  0  0  0  0  0  0  0
    4.7680    0.1770    0.5330 C   0  0  0  0  0  0  0  0  0  0  0  0
    3.2890    0.0960    0.5470 C   0  0  0  0  0  0  0  0  0  0  0  0
    2.6180   -0.7390    1.4380 C   0  0  0  0  0  0  0  0  0  0  0  0
    1.2420   -0.8260    1.4630 C   0  0  0  0  0  0  0  0  0  0  0  0
    0.4790   -0.0820    0.5980 C   0  0  0  0  0  0  0  0  0  0  0  0
   -0.8950   -0.1300    0.5810 O   0  0  0  0  0  0  0  0  0  0  0  0
   -1.6970    0.6200   -0.2930 C   0  0  0  0  0  0  0  0  0  0  0  0
   -3.1330    0.3500   -0.0670 C   0  0  0  0  0  0  0  0  0  0  0  0
   -4.1070    0.9780   -0.8140 C   0  0  0  0  0  0  0  0  0  0  0  0
   -5.4590    0.7310   -0.6100 C   0  0  0  0  0  0  0  0  0  0  0  0
   -5.8790   -0.1600    0.3560 C   0  0  0  0  0  0  0  0  0  0  0  0
   -4.9000   -0.7850    1.1000 C   0  0  0  0  0  0  0  0  0  0  0  0
   -3.5490   -0.5440    0.9020 C   0  0  0  0  0  0  0  0  0  0  0  0
    1.1520    0.7450   -0.2830 C   0  0  0  0  0  0  0  0  0  0  0  0
    2.5190    0.8430   -0.3220 C   0  0  0  0  0  0  0  0  0  0  0  0
  1  2  2  0
  2  3  1  0
  2  4  1  0
  4  5  1  0
  5  6  2  0
  5 18  1  0
  6  7  1  0
  7  8  2  0
  8  9  1  0
  8 17  1  0
  9 10  1  0
 10 11  1  0
 11 12  2  0
 11 16  1  0
 12 13  1  0
 13 14  2  0
 14 15  1  0
 15 16  2  0
 17 18  2  0
M  END
