
     RDKit          3D

 27 29  0  0  0  0  0  0  0  0999 V2000
   -3.1990   -2.0830   -2.6500 C   0  0  0  0  0  0  0  0  0  0  0  0
   -2.2810   -1.4520   -1.6230 C   0  0  0  0  0  0  0  0  0  0  0  0
   -1.1970   -1.9760   -1.4690 O   0  0  0  0  0  0  0  0  0  0  0  0
   -2.7690   -0.2920   -0.9210 C   0  0  0  0  0  0  0  0  0  0  0  0
   -4.0820    0.1300   -1.2010 C   0  0  0  0  0  0  0  0  0  0  0  0
   -4.6300    1.2020   -0.5540 C   0  0  0  0  0  0  0  0  0  0  0  0
   -6.4170    1.7860   -0.9280 Br  0  0  0  0  0  0  0  0  0  0  0  0
   -3.9130    1.8910    0.3830 C   0  0  0  0  0  0  0  0  0  0  0  0
   -4.4920    3.0570    1.0960 C   0  0  0  0  0  0  0  0  0  0  0  0
   -2.6240    1.5060    0.6820 C   0  0  0  0  0  0  0  0  0  0  0  0
   -2.0510    0.4150    0.0300 C   0  0  0  0  0  0  0  0  0  0  0  0
   -0.7070    0.0410    0.2940 N   0  0  0  0  0  0  0  0  0  0  0  0
    0.1340    0.5100    1.3310 C   0  0  0  0  0  0  0  0  0  0  0  0
   -0.3000    1.3440    2.1410 O   0  0  0  0  0  0  0  0  0  0  0  0
    1.5330    0.0420    1.4960 C   0  0  0  0  0  0  0  0  0  0  0  0
    2.1130   -0.8370    0.7090 N   0  0  0  0  0  0  0  0  0  0  0  0
    3.1720   -1.2750    0.7290 C   0  0  0  0  0  0  0  0  0  0  0  0
    4.0640   -2.2230    0.0120 C   0  0  0  0  0  0  0  0  0  0  0  0
    4.8490   -1.5570   -1.0020 N   0  0  0  0  0  0  0  0  0  0  0  0
    6.0330   -1.0110   -0.8570 N   0  0  0  0  0  0  0  0  0  0  0  0
    6.4220   -0.4990   -2.0250 N   0  0  0  0  0  0  0  0  0  0  0  0
    5.4960   -0.7080   -2.9280 N   0  0  0  0  0  0  0  0  0  0  0  0
    4.5070   -1.3750   -2.2790 C   0  0  0  0  0  0  0  0  0  0  0  0
    3.4380   -1.7590   -2.8020 O   0  0  0  0  0  0  0  0  0  0  0  0
    3.8880   -0.3960    2.2100 S   0  0  0  0  0  0  0  0  0  0  0  0
    2.3260    0.5030    2.4960 C   0  0  0  0  0  0  0  0  0  0  0  0
    2.1020    1.4820    3.5970 C   0  0  0  0  0  0  0  0  0  0  0  0
  1  2  1  0
  2  3  2  0
  2  4  1  0
  4  5  2  0
  4 11  1  0
  5  6  1  0
  6  7  1  0
  6  8  2  0
  8  9  1  0
  8 10  1  0
 10 11  2  0
 11 12  1  0
 12 13  1  0
 13 14  2  0
 13 15  1  0
 15 16  1  0
 15 26  2  0
 16 17  2  0
 17 18  1  0
 17 25  1  0
 18 19  1  0
 19 20  1  0
 19 23  1  0
 20 21  2  0
 21 22  1  0
 22 23  1  0
 23 24  2  0
 25 26  1  0
 26 27  1  0
M  END
