
     RDKit          3D

 27 30  0  0  0  0  0  0  0  0999 V2000
   -5.5910   -0.6170   -3.2850 C   0  0  0  0  0  0  0  0  0  0  0  0
   -4.3050   -0.1680   -2.6490 C   0  0  0  0  0  0  0  0  0  0  0  0
   -3.6690   -0.6950   -1.5740 C   0  0  0  0  0  0  0  0  0  0  0  0
   -2.4990    0.0260   -1.3120 C   0  0  0  0  0  0  0  0  0  0  0  0
   -1.6010   -0.2940   -0.2250 N   0  0  0  0  0  0  0  0  0  0  0  0
   -0.4450    0.4640   -0.0110 C   0  0  0  0  0  0  0  0  0  0  0  0
   -0.1870    1.4650   -0.8060 O   0  0  0  0  0  0  0  0  0  0  0  0
    0.5180    0.2360    1.0380 C   0  0  0  0  0  0  0  0  0  0  0  0
    1.6740    1.2000    1.0430 C   0  0  0  0  0  0  0  0  0  0  0  0
    2.5990    1.1230    1.9070 N   0  0  0  0  0  0  0  0  0  0  0  0
    3.7090    1.9990    1.9630 C   0  0  0  0  0  0  0  0  0  0  0  0
    4.6420    1.9100    1.0490 C   0  0  0  0  0  0  0  0  0  0  0  0
    6.0990    2.9440    0.9880 S   0  0  0  0  0  0  0  0  0  0  0  0
    6.7840    2.1880   -0.4860 C   0  0  0  0  0  0  0  0  0  0  0  0
    7.8610    2.5480   -1.0030 O   0  0  0  0  0  0  0  0  0  0  0  0
    5.8860    1.1930   -0.8650 N   0  0  0  0  0  0  0  0  0  0  0  0
    4.7490    1.0280   -0.0690 C   0  0  0  0  0  0  0  0  0  0  0  0
    3.8440    0.1500   -0.3060 O   0  0  0  0  0  0  0  0  0  0  0  0
    0.5420   -0.6550    1.9620 C   0  0  0  0  0  0  0  0  0  0  0  0
    2.0360   -0.6580    3.2340 Br  0  0  0  0  0  0  0  0  0  0  0  0
   -0.3940   -1.6740    2.1990 N   0  0  0  0  0  0  0  0  0  0  0  0
   -0.4200   -2.9470    1.7370 C   0  0  0  0  0  0  0  0  0  0  0  0
   -1.5040   -3.5840    2.2950 C   0  0  0  0  0  0  0  0  0  0  0  0
   -2.1000   -2.6790    3.0760 N   0  0  0  0  0  0  0  0  0  0  0  0
   -1.4560   -1.5290    3.0350 C   0  0  0  0  0  0  0  0  0  0  0  0
   -2.4570    0.9970   -2.2630 C   0  0  0  0  0  0  0  0  0  0  0  0
   -3.5610    0.8660   -3.0660 N   0  0  0  0  0  0  0  0  0  0  0  0
  1  2  1  0
  2  3  2  0
  2 27  1  0
  3  4  1  0
  4  5  1  0
  4 26  2  0
  5  6  1  0
  6  7  2  0
  6  8  1  0
  8  9  1  0
  8 19  2  0
  9 10  2  0
 10 11  1  0
 11 12  2  3
 12 13  1  0
 12 17  1  0
 13 14  1  0
 14 15  2  0
 14 16  1  0
 16 17  1  0
 17 18  2  0
 19 20  1  0
 19 21  1  0
 21 22  1  0
 21 25  1  0
 22 23  2  0
 23 24  1  0
 24 25  2  0
 26 27  1  0
 20 10  1  0
M  CHG  1  10   1
M  END
