
     RDKit          3D

 21 22  0  0  0  0  0  0  0  0999 V2000
   -3.6920    2.0520    0.8210 N   0  0  0  0  0  0  0  0  0  0  0  0
   -3.2300    0.6280    0.8270 C   0  0  1  0  0  0  0  0  0  0  0  0
   -3.2250    0.2600    2.1490 O   0  0  0  0  0  0  0  0  0  0  0  0
   -4.3540   -0.1050    0.1370 C   0  0  0  0  0  0  0  0  0  0  0  0
   -5.5720    0.1160    0.8530 O   0  0  0  0  0  0  0  0  0  0  0  0
   -1.9520    0.5930    0.1250 C   0  0  0  0  0  0  0  0  0  0  0  0
   -1.1850   -0.6580   -0.0590 C   0  0  1  0  0  0  0  0  0  0  0  0
   -0.9310   -1.1550    1.2520 O   0  0  0  0  0  0  0  0  0  0  0  0
   -1.8130   -1.7550   -0.8090 C   0  0  0  0  0  0  0  0  0  0  0  0
   -0.9580   -2.5310   -1.6020 O   0  0  0  0  0  0  0  0  0  0  0  0
   -0.2390   -1.7270   -2.4810 C   0  0  0  0  0  0  0  0  0  0  0  0
    0.8280   -1.0970   -1.5570 C   0  0  0  0  0  0  0  0  0  0  0  0
    0.2050   -0.2290   -0.5510 C   0  0  2  0  0  0  0  0  0  0  0  0
    1.0400    0.0160    0.6560 C   0  0  0  0  0  0  0  0  0  0  0  0
    2.4370    0.4500    0.5150 C   0  0  2  0  0  0  0  0  0  0  0  0
    3.4120   -0.4240   -0.1670 C   0  0  0  0  0  0  0  0  0  0  0  0
    4.7080   -0.0250    0.2590 O   0  0  0  0  0  0  0  0  0  0  0  0
    4.7860    1.3120    0.5560 C   0  0  0  0  0  0  0  0  0  0  0  0
    3.9860    1.5420    1.8280 C   0  0  2  0  0  0  0  0  0  0  0  0
    4.8180    1.4150    2.9150 O   0  0  0  0  0  0  0  0  0  0  0  0
    2.9350    0.6250    1.8400 O   0  0  0  0  0  0  0  0  0  0  0  0
  2  1  1  1
  2  3  1  0
  2  4  1  0
  2  6  1  0
  4  5  1  0
  6  7  1  0
  7  8  1  1
  7  9  1  0
  7 13  1  0
  9 10  1  0
 10 11  1  0
 11 12  1  0
 12 13  1  0
 13 14  1  1
 15 14  1  1
 15 16  1  0
 15 21  1  0
 16 17  1  0
 17 18  1  0
 18 19  1  0
 19 20  1  1
 19 21  1  0
M  END
