
     RDKit          3D

 13 13  0  0  0  0  0  0  0  0999 V2000
   -1.7450   -1.0600    0.4680 C   0  0  0  0  0  0  0  0  0  0  0  0
   -0.8360    0.0210   -0.0060 C   0  0  0  0  0  0  0  0  0  0  0  0
   -1.4110    1.1110   -0.4590 C   0  0  0  0  0  0  0  0  0  0  0  0
   -2.8350    1.3270   -0.5250 C   0  0  0  0  0  0  0  0  0  0  0  0
   -3.2660    2.4380   -0.9920 O   0  0  0  0  0  0  0  0  0  0  0  0
   -3.7900    0.4210   -0.1210 O   0  0  0  0  0  0  0  0  0  0  0  0
    0.6200   -0.0930    0.0120 C   0  0  0  0  0  0  0  0  0  0  0  0
    1.4590    0.8900   -0.4560 C   0  0  0  0  0  0  0  0  0  0  0  0
    2.8590    0.7520   -0.4160 C   0  0  0  0  0  0  0  0  0  0  0  0
    3.4340   -0.3840    0.0980 C   0  0  0  0  0  0  0  0  0  0  0  0
    5.1950   -0.5580    0.1480 Cl  0  0  0  0  0  0  0  0  0  0  0  0
    2.5930   -1.3440    0.5560 C   0  0  0  0  0  0  0  0  0  0  0  0
    1.2010   -1.2320    0.5280 C   0  0  0  0  0  0  0  0  0  0  0  0
  1  2  1  0
  2  3  2  3
  2  7  1  0
  3  4  1  0
  4  5  2  0
  4  6  1  0
  7  8  2  0
  7 13  1  0
  8  9  1  0
  9 10  2  0
 10 11  1  0
 10 12  1  0
 12 13  2  0
M  END
