
     RDKit          3D

 12 12  0  0  0  0  0  0  0  0999 V2000
    1.7850   -0.1800    2.3350 F   0  0  0  0  0  0  0  0  0  0  0  0
    1.6100    0.1450    1.0170 C   0  0  0  0  0  0  0  0  0  0  0  0
    0.6610   -0.4480    0.3590 C   0  0  0  0  0  0  0  0  0  0  0  0
   -0.1560   -1.4480    1.1480 C   0  0  0  0  0  0  0  0  0  0  0  0
   -1.8030   -0.7270    1.3530 S   0  0  0  0  0  0  0  0  0  0  0  0
   -2.5450   -0.4160   -0.2530 C   0  0  0  0  0  0  0  0  0  0  0  0
   -1.7300    0.5530   -1.0780 C   0  0  0  0  0  0  0  0  0  0  0  0
   -0.6880   -0.0450   -1.7400 O   0  0  0  0  0  0  0  0  0  0  0  0
    0.4450   -0.1520   -1.0060 N   0  0  0  0  0  0  0  0  0  0  0  0
    2.4870    1.1530    0.4010 C   0  0  2  0  0  0  0  0  0  0  0  0
    3.8090    0.6870    0.3480 F   0  0  0  0  0  0  0  0  0  0  0  0
    2.5110    2.2540    1.2800 F   0  0  0  0  0  0  0  0  0  0  0  0
  1  2  1  0
  2  3  2  3
  2 10  1  0
  3  4  1  0
  3  9  1  0
  4  5  1  0
  5  6  1  0
  6  7  1  0
  7  8  1  0
  8  9  1  0
 10 11  1  1
 10 12  1  0
M  END
