
     RDKit          3D

 11 11  0  0  0  0  0  0  0  0999 V2000
    2.3410   -1.6460   -1.0470 F   0  0  0  0  0  0  0  0  0  0  0  0
    2.8960   -0.4470   -0.5890 C   0  0  2  0  0  0  0  0  0  0  0  0
    3.2270   -0.5040    0.7360 F   0  0  0  0  0  0  0  0  0  0  0  0
    1.9290    0.5870   -0.8060 O   0  0  0  0  0  0  0  0  0  0  0  0
    0.6740    0.5150   -0.2030 C   0  0  0  0  0  0  0  0  0  0  0  0
    0.3150   -0.6600    0.2330 N   0  0  0  0  0  0  0  0  0  0  0  0
   -0.9050   -1.0750    0.8990 C   0  0  0  0  0  0  0  0  0  0  0  0
   -2.1100   -0.9330    0.0290 C   0  0  0  0  0  0  0  0  0  0  0  0
   -2.6740    0.7430   -0.2190 S   0  0  0  0  0  0  0  0  0  0  0  0
   -1.3880    1.9600   -0.1310 C   0  0  0  0  0  0  0  0  0  0  0  0
   -0.0850    1.7560   -0.1330 C   0  0  0  0  0  0  0  0  0  0  0  0
  2  1  1  1
  2  3  1  0
  2  4  1  0
  4  5  1  0
  5  6  2  0
  5 11  1  0
  6  7  1  0
  7  8  1  0
  8  9  1  0
  9 10  1  0
 10 11  2  0
M  END
