
     RDKit          3D

 12 12  0  0  0  0  0  0  0  0999 V2000
    3.2870    0.0030    1.2260 F   0  0  0  0  0  0  0  0  0  0  0  0
    2.8450   -0.7250    0.1430 C   0  0  1  0  0  0  0  0  0  0  0  0
    3.1100   -0.0160   -1.0300 F   0  0  0  0  0  0  0  0  0  0  0  0
    3.5000   -1.9400    0.1310 F   0  0  0  0  0  0  0  0  0  0  0  0
    1.4390   -0.9210    0.1650 O   0  0  0  0  0  0  0  0  0  0  0  0
    0.5290    0.1080    0.1530 C   0  0  0  0  0  0  0  0  0  0  0  0
    0.8050    1.3620    0.2360 N   0  0  0  0  0  0  0  0  0  0  0  0
   -0.3970    2.1390    0.1910 C   0  0  0  0  0  0  0  0  0  0  0  0
   -1.4500    1.3460    0.0770 C   0  0  0  0  0  0  0  0  0  0  0  0
   -0.9220   -0.0070    0.0450 C   0  0  0  0  0  0  0  0  0  0  0  0
   -1.5770   -1.1520   -0.0590 C   0  0  0  0  0  0  0  0  0  0  0  0
   -3.3660   -1.0740   -0.1810 S   0  0  0  0  0  0  0  0  0  0  0  0
  2  1  1  1
  2  3  1  0
  2  4  1  0
  2  5  1  0
  5  6  1  0
  6  7  2  0
  6 10  1  0
  7  8  1  0
  8  9  2  0
  9 10  1  0
 10 11  2  3
 11 12  1  0
M  END
