
     RDKit          3D

 18 20  0  0  0  0  0  0  0  0999 V2000
   -4.3020    1.4540    0.2950 C   0  0  0  0  0  0  0  0  0  0  0  0
   -4.0410    0.1630   -0.3830 C   0  0  0  0  0  0  0  0  0  0  0  0
   -4.9720   -0.6480   -0.9050 N   0  0  0  0  0  0  0  0  0  0  0  0
   -4.3620   -1.6990   -1.4230 N   0  0  0  0  0  0  0  0  0  0  0  0
   -3.0150   -1.5730   -1.2370 C   0  0  0  0  0  0  0  0  0  0  0  0
   -2.7800   -0.3940   -0.5750 C   0  0  0  0  0  0  0  0  0  0  0  0
   -1.5200    0.2270   -0.1280 C   0  0  0  0  0  0  0  0  0  0  0  0
   -0.3690   -0.5750   -0.4630 N   0  0  0  0  0  0  0  0  0  0  0  0
    0.9580   -0.1850   -0.1350 C   0  0  0  0  0  0  0  0  0  0  0  0
    1.2300    0.9930    0.5290 C   0  0  0  0  0  0  0  0  0  0  0  0
    2.5280    1.3360    0.8280 C   0  0  0  0  0  0  0  0  0  0  0  0
    3.5700    0.5130    0.4720 C   0  0  0  0  0  0  0  0  0  0  0  0
    4.9190    0.5730    0.6220 N   0  0  0  0  0  0  0  0  0  0  0  0
    5.5080   -0.5070    0.0870 C   0  0  0  0  0  0  0  0  0  0  0  0
    6.7430   -0.7450    0.0650 O   0  0  0  0  0  0  0  0  0  0  0  0
    4.5230   -1.2730   -0.4150 N   0  0  0  0  0  0  0  0  0  0  0  0
    3.3360   -0.6800   -0.1970 C   0  0  0  0  0  0  0  0  0  0  0  0
    2.0200   -0.9920   -0.4810 C   0  0  0  0  0  0  0  0  0  0  0  0
  1  2  1  0
  2  3  1  0
  2  6  2  0
  3  4  1  0
  4  5  2  0
  5  6  1  0
  6  7  1  0
  7  8  1  0
  8  9  1  0
  9 10  2  0
  9 18  1  0
 10 11  1  0
 11 12  2  0
 12 13  1  0
 12 17  1  0
 13 14  1  0
 14 15  2  0
 14 16  1  0
 16 17  1  0
 17 18  2  0
M  END
