
     RDKit          3D

 18 20  0  0  0  0  0  0  0  0999 V2000
   -2.2760   -2.6760    0.2690 N   0  0  0  0  0  0  0  0  0  0  0  0
   -0.9820   -2.0400    0.2150 C   0  0  0  0  0  0  0  0  0  0  0  0
    0.2110   -2.6450    0.3540 N   0  0  0  0  0  0  0  0  0  0  0  0
    1.1740   -1.7310    0.2440 C   0  0  0  0  0  0  0  0  0  0  0  0
    2.5480   -1.8430    0.3120 C   0  0  0  0  0  0  0  0  0  0  0  0
    3.2670   -0.6680    0.1510 C   0  0  0  0  0  0  0  0  0  0  0  0
    2.6550    0.5440   -0.0640 C   0  0  0  0  0  0  0  0  0  0  0  0
    3.5090    1.7450   -0.2240 C   0  0  0  0  0  0  0  0  0  0  0  0
    4.8520    1.4110   -0.1220 O   0  0  0  0  0  0  0  0  0  0  0  0
    1.3150    0.5930   -0.1210 N   0  0  0  0  0  0  0  0  0  0  0  0
    0.5610   -0.5210    0.0290 C   0  0  0  0  0  0  0  0  0  0  0  0
   -0.7740   -0.7250    0.0130 N   0  0  0  0  0  0  0  0  0  0  0  0
   -1.8070    0.2170   -0.1750 C   0  0  0  0  0  0  0  0  0  0  0  0
   -2.6250    0.6120    0.8610 C   0  0  0  0  0  0  0  0  0  0  0  0
   -3.6350    1.5290    0.6940 C   0  0  0  0  0  0  0  0  0  0  0  0
   -3.8400    2.0710   -0.5440 C   0  0  0  0  0  0  0  0  0  0  0  0
   -3.0510    1.6930   -1.5550 N   0  0  0  0  0  0  0  0  0  0  0  0
   -2.0430    0.7830   -1.4040 C   0  0  0  0  0  0  0  0  0  0  0  0
  1  2  1  0
  2  3  2  0
  2 12  1  0
  3  4  1  0
  4  5  2  0
  4 11  1  0
  5  6  1  0
  6  7  2  0
  7  8  1  0
  7 10  1  0
  8  9  1  0
 10 11  2  0
 11 12  1  0
 12 13  1  0
 13 14  2  0
 13 18  1  0
 14 15  1  0
 15 16  2  0
 16 17  1  0
 17 18  2  0
M  END
