
     RDKit          3D

 22 23  0  0  0  0  0  0  0  0999 V2000
   -6.2420    0.7650   -1.5280 C   0  0  0  0  0  0  0  0  0  0  0  0
   -6.0180   -0.6960   -1.3340 C   0  0  0  0  0  0  0  0  0  0  0  0
   -4.6460   -1.0930   -1.4500 N   0  0  0  0  0  0  0  0  0  0  0  0
   -3.6330   -0.5590   -0.5700 C   0  0  0  0  0  0  0  0  0  0  0  0
   -4.0520    0.2520    0.2730 O   0  0  0  0  0  0  0  0  0  0  0  0
   -2.2900   -0.9450   -0.6820 N   0  0  0  0  0  0  0  0  0  0  0  0
   -1.2540   -0.4700    0.1430 C   0  0  0  0  0  0  0  0  0  0  0  0
   -1.4380    0.4250    1.1590 C   0  0  0  0  0  0  0  0  0  0  0  0
   -0.3450    0.8400    1.9270 C   0  0  0  0  0  0  0  0  0  0  0  0
   -0.4860    1.7440    2.9660 O   0  0  0  0  0  0  0  0  0  0  0  0
   -1.7810    2.2410    3.2330 C   0  0  0  0  0  0  0  0  0  0  0  0
    0.8830    0.2910    1.5850 C   0  0  0  0  0  0  0  0  0  0  0  0
    1.0730   -0.6070    0.5660 C   0  0  0  0  0  0  0  0  0  0  0  0
    2.3490   -1.1520    0.2410 N   0  0  0  0  0  0  0  0  0  0  0  0
    2.4040   -2.0820   -0.9030 C   0  0  0  0  0  0  0  0  0  0  0  0
    3.5790   -0.8960    0.8970 C   0  0  0  0  0  0  0  0  0  0  0  0
    4.5490   -0.0860    0.0380 C   0  0  0  0  0  0  0  0  0  0  0  0
    4.2690    0.3230   -1.1480 C   0  0  0  0  0  0  0  0  0  0  0  0
    5.2800    1.0980   -1.8920 C   0  0  0  0  0  0  0  0  0  0  0  0
    6.7650    0.7810   -0.8930 S   0  0  0  0  0  0  0  0  0  0  0  0
    5.8740    0.2410    0.6000 C   0  0  0  0  0  0  0  0  0  0  0  0
   -0.0110   -0.9680   -0.1360 N   0  0  0  0  0  0  0  0  0  0  0  0
  1  2  1  0
  2  3  1  0
  3  4  1  0
  4  5  2  0
  4  6  1  0
  6  7  1  0
  7  8  2  0
  7 22  1  0
  8  9  1  0
  9 10  1  0
  9 12  2  0
 10 11  1  0
 12 13  1  0
 13 14  1  0
 13 22  2  0
 14 15  1  0
 14 16  1  0
 16 17  1  0
 17 18  2  0
 17 21  1  0
 18 19  1  0
 19 20  1  0
 20 21  1  0
M  END
