
     RDKit          3D

 18 20  0  0  0  0  0  0  0  0999 V2000
    5.2310   -0.2620   -1.0350 N   0  0  0  0  0  0  0  0  0  0  0  0
    4.1930   -0.9670   -0.3020 C   0  0  2  0  0  0  0  0  0  0  0  0
    2.8510   -0.6020   -0.8180 C   0  0  0  0  0  0  0  0  0  0  0  0
    2.1570    0.0450    0.0860 C   0  0  0  0  0  0  0  0  0  0  0  0
    0.7710    0.5710   -0.0680 C   0  0  0  0  0  0  0  0  0  0  0  0
   -0.1430   -0.0530    0.9530 C   0  0  0  0  0  0  0  0  0  0  0  0
   -1.4880    0.4680    0.7900 N   0  0  0  0  0  0  0  0  0  0  0  0
   -2.0560    1.5450    1.3610 C   0  0  0  0  0  0  0  0  0  0  0  0
   -1.4430    2.2870    2.1690 O   0  0  0  0  0  0  0  0  0  0  0  0
   -3.3250    1.6840    0.9430 N   0  0  0  0  0  0  0  0  0  0  0  0
   -3.6100    0.6820    0.0750 C   0  0  0  0  0  0  0  0  0  0  0  0
   -4.7430    0.3570   -0.6350 C   0  0  0  0  0  0  0  0  0  0  0  0
   -4.7020   -0.7220   -1.4260 N   0  0  0  0  0  0  0  0  0  0  0  0
   -3.5810   -1.4780   -1.5300 C   0  0  0  0  0  0  0  0  0  0  0  0
   -2.4420   -1.1660   -0.8280 C   0  0  0  0  0  0  0  0  0  0  0  0
   -2.4450   -0.0610   -0.0010 C   0  0  0  0  0  0  0  0  0  0  0  0
    3.0170    0.1370    1.2470 C   0  0  0  0  0  0  0  0  0  0  0  0
    4.1570   -0.4260    1.0390 N   0  0  0  0  0  0  0  0  0  0  0  0
  2  1  1  6
  2  3  1  0
  2 18  1  0
  3  4  2  0
  4  5  1  0
  4 17  1  0
  5  6  1  0
  6  7  1  0
  7  8  1  0
  7 16  1  0
  8  9  2  0
  8 10  1  0
 10 11  1  0
 11 12  2  0
 11 16  1  0
 12 13  1  0
 13 14  2  0
 14 15  1  0
 15 16  2  0
 17 18  2  0
M  END
