
     RDKit          3D

 15 16  0  0  0  0  0  0  0  0999 V2000
    5.1370   -0.8580    0.0580 C   0  0  0  0  0  0  0  0  0  0  0  0
    3.9240    0.0520    0.1760 C   0  0  0  0  0  0  0  0  0  0  0  0
    4.0790    1.4570   -0.0640 C   0  0  0  0  0  0  0  0  0  0  0  0
    2.4390    2.0700    0.1870 S   0  0  0  0  0  0  0  0  0  0  0  0
    1.7060    0.3650    0.5920 C   0  0  0  0  0  0  0  0  0  0  0  0
    0.2680    0.2700    0.9050 C   0  0  0  0  0  0  0  0  0  0  0  0
   -0.5110   -0.0150   -0.2620 N   0  0  0  0  0  0  0  0  0  0  0  0
   -1.9300   -0.0620   -0.2170 C   0  0  0  0  0  0  0  0  0  0  0  0
   -2.5920    0.1220   -1.3490 C   0  0  0  0  0  0  0  0  0  0  0  0
   -4.0490    0.1020   -1.4620 C   0  0  0  0  0  0  0  0  0  0  0  0
   -4.6900   -0.1290   -0.2610 O   0  0  0  0  0  0  0  0  0  0  0  0
   -4.0630   -0.3250    0.9250 C   0  0  0  0  0  0  0  0  0  0  0  0
   -2.7220   -0.2970    0.9730 C   0  0  0  0  0  0  0  0  0  0  0  0
   -2.0630   -0.5020    2.2150 N   0  0  0  0  0  0  0  0  0  0  0  0
    2.7170   -0.2960    0.4790 N   0  0  0  0  0  0  0  0  0  0  0  0
  1  2  1  0
  2  3  2  0
  2 15  1  0
  3  4  1  0
  4  5  1  0
  5  6  1  0
  5 15  2  0
  6  7  1  0
  7  8  1  0
  8  9  2  0
  8 13  1  0
  9 10  1  0
 10 11  1  0
 11 12  1  0
 12 13  2  0
 13 14  1  0
M  END
