
     RDKit          3D

 15 16  0  0  0  0  0  0  0  0999 V2000
   -4.0450   -1.6620    1.2830 N   0  0  0  0  0  0  0  0  0  0  0  0
   -2.9940   -1.1200    0.8480 C   0  0  0  0  0  0  0  0  0  0  0  0
   -1.3240   -1.4350    1.3600 S   0  0  0  0  0  0  0  0  0  0  0  0
   -0.5680   -0.2590    0.2440 C   0  0  0  0  0  0  0  0  0  0  0  0
    0.8760   -0.0460    0.1900 C   0  0  0  0  0  0  0  0  0  0  0  0
    1.4290    0.8690   -0.6820 C   0  0  0  0  0  0  0  0  0  0  0  0
    2.7830    1.0980   -0.7620 C   0  0  0  0  0  0  0  0  0  0  0  0
    3.6140    0.3670    0.0800 C   0  0  0  0  0  0  0  0  0  0  0  0
    4.9930    0.6140   -0.0160 N   0  0  0  0  0  0  0  0  0  0  0  0
    3.0440   -0.5380    0.9410 C   0  0  0  0  0  0  0  0  0  0  0  0
    1.7160   -0.7260    0.9820 N   0  0  0  0  0  0  0  0  0  0  0  0
   -1.5220    0.2970   -0.4340 C   0  0  0  0  0  0  0  0  0  0  0  0
   -2.8630   -0.1040   -0.1760 C   0  0  0  0  0  0  0  0  0  0  0  0
   -3.9450    0.3730   -0.7870 C   0  0  0  0  0  0  0  0  0  0  0  0
   -5.2260   -0.0550   -0.4950 O   0  0  0  0  0  0  0  0  0  0  0  0
  1  2  2  0
  2  3  1  0
  2 13  1  0
  3  4  1  0
  4  5  1  0
  4 12  2  0
  5  6  2  0
  5 11  1  0
  6  7  1  0
  7  8  2  0
  8  9  1  0
  8 10  1  0
 10 11  2  0
 12 13  1  0
 13 14  2  3
 14 15  1  0
M  END
