
     RDKit          3D

 15 15  0  0  0  0  0  0  0  0999 V2000
    4.2350    0.2650    0.0170 C   0  0  0  0  0  0  0  0  0  0  0  0
    2.7170    0.3850    0.0490 C   0  0  0  0  0  0  0  0  0  0  0  0
    2.0390   -0.5090    0.7090 C   0  0  0  0  0  0  0  0  0  0  0  0
    2.8330   -1.6040    1.3940 C   0  0  0  0  0  0  0  0  0  0  0  0
    0.5880   -0.5520    0.8470 C   0  0  0  0  0  0  0  0  0  0  0  0
   -0.0840    0.4990    0.1830 N   0  0  0  0  0  0  0  0  0  0  0  0
   -1.5070    0.6540    0.1850 C   0  0  0  0  0  0  0  0  0  0  0  0
   -2.2520    0.0560   -0.8010 C   0  0  0  0  0  0  0  0  0  0  0  0
   -1.5290   -0.7320   -1.8320 C   0  0  0  0  0  0  0  0  0  0  0  0
   -3.6160    0.1850   -0.8290 N   0  0  0  0  0  0  0  0  0  0  0  0
   -4.2270    0.9080    0.1250 C   0  0  0  0  0  0  0  0  0  0  0  0
   -5.8700    1.0490    0.0730 S   0  0  0  0  0  0  0  0  0  0  0  0
   -3.5230    1.5040    1.1020 N   0  0  0  0  0  0  0  0  0  0  0  0
   -2.1610    1.3860    1.1450 C   0  0  0  0  0  0  0  0  0  0  0  0
   -1.4960    1.9420    2.0570 O   0  0  0  0  0  0  0  0  0  0  0  0
  1  2  1  0
  2  3  2  3
  3  4  1  0
  3  5  1  0
  5  6  1  0
  6  7  1  0
  7  8  2  0
  7 14  1  0
  8  9  1  0
  8 10  1  0
 10 11  1  0
 11 12  2  0
 11 13  1  0
 13 14  1  0
 14 15  2  0
M  END
