
     RDKit          3D

 15 16  0  0  0  0  0  0  0  0999 V2000
   -3.5750    2.0270   -0.3870 C   0  0  0  0  0  0  0  0  0  0  0  0
   -2.9670    0.7420   -1.5440 S   0  0  0  0  0  0  0  0  0  0  0  0
   -2.2640   -0.5560   -0.5180 C   0  0  0  0  0  0  0  0  0  0  0  0
   -2.9930   -1.6180   -0.0480 C   0  0  0  0  0  0  0  0  0  0  0  0
   -2.1760   -2.3920    0.6760 N   0  0  0  0  0  0  0  0  0  0  0  0
   -0.9310   -1.8120    0.6600 C   0  0  0  0  0  0  0  0  0  0  0  0
   -0.9340   -0.6660   -0.0710 C   0  0  0  0  0  0  0  0  0  0  0  0
    0.0580    0.2890   -0.3420 N   0  0  0  0  0  0  0  0  0  0  0  0
    1.4320    0.2540   -0.1700 C   0  0  0  0  0  0  0  0  0  0  0  0
    2.1420   -0.8830    0.0580 C   0  0  0  0  0  0  0  0  0  0  0  0
    3.5340   -0.8420    0.1760 C   0  0  0  0  0  0  0  0  0  0  0  0
    4.2360    0.3350    0.0660 C   0  0  0  0  0  0  0  0  0  0  0  0
    3.5150    1.4420   -0.1600 N   0  0  0  0  0  0  0  0  0  0  0  0
    2.1830    1.4330   -0.2760 C   0  0  0  0  0  0  0  0  0  0  0  0
    1.5940    2.5480   -0.4920 O   0  0  0  0  0  0  0  0  0  0  0  0
  1  2  1  0
  2  3  1  0
  3  4  2  0
  3  7  1  0
  4  5  1  0
  5  6  1  0
  6  7  2  0
  7  8  1  0
  8  9  1  0
  9 10  2  0
  9 14  1  0
 10 11  1  0
 11 12  2  0
 12 13  1  0
 13 14  1  0
 14 15  2  0
M  END
