
     RDKit          3D

 15 16  0  0  0  0  0  0  0  0999 V2000
   -2.1950    2.7120   -0.3650 N   0  0  0  0  0  0  0  0  0  0  0  0
   -2.5490    1.3110   -0.3050 C   0  0  0  0  0  0  0  0  0  0  0  0
   -3.6900    0.8800   -0.7990 C   0  0  0  0  0  0  0  0  0  0  0  0
   -4.2370   -0.8120   -0.7850 S   0  0  0  0  0  0  0  0  0  0  0  0
   -2.9190   -1.7430    0.0280 C   0  0  0  0  0  0  0  0  0  0  0  0
   -1.7990   -0.9020    0.4430 C   0  0  0  0  0  0  0  0  0  0  0  0
   -1.6180    0.3750    0.3170 C   0  0  0  0  0  0  0  0  0  0  0  0
   -0.4130    0.9220    0.8240 O   0  0  0  0  0  0  0  0  0  0  0  0
    0.8090    0.3930    0.4880 C   0  0  0  0  0  0  0  0  0  0  0  0
    1.9560    0.9570    1.0040 C   0  0  0  0  0  0  0  0  0  0  0  0
    3.1790    0.4010    0.6460 C   0  0  0  0  0  0  0  0  0  0  0  0
    3.2610   -0.6890   -0.2050 C   0  0  0  0  0  0  0  0  0  0  0  0
    4.4980   -1.2700   -0.5820 N   0  0  0  0  0  0  0  0  0  0  0  0
    2.0900   -1.2060   -0.6860 C   0  0  0  0  0  0  0  0  0  0  0  0
    0.9060   -0.6640   -0.3370 N   0  0  0  0  0  0  0  0  0  0  0  0
  1  2  1  0
  2  3  2  0
  2  7  1  0
  3  4  1  0
  4  5  1  0
  5  6  1  0
  6  7  2  0
  7  8  1  0
  8  9  1  0
  9 10  2  0
  9 15  1  0
 10 11  1  0
 11 12  2  0
 12 13  1  0
 12 14  1  0
 14 15  2  0
M  END
