
     RDKit          3D

 15 16  0  0  0  0  0  0  0  0999 V2000
    5.2770    0.6610    0.2220 C   0  0  0  0  0  0  0  0  0  0  0  0
    3.9210    0.0680   -0.0650 C   0  0  0  0  0  0  0  0  0  0  0  0
    3.8260   -1.1100   -0.7870 C   0  0  0  0  0  0  0  0  0  0  0  0
    1.9790   -1.3240   -0.8110 S   0  0  0  0  0  0  0  0  0  0  0  0
    1.7010    0.2190    0.1570 C   0  0  0  0  0  0  0  0  0  0  0  0
    0.2940    0.5850    0.4660 C   0  0  0  0  0  0  0  0  0  0  0  0
   -0.6640   -0.3400   -0.0500 N   0  0  0  0  0  0  0  0  0  0  0  0
   -2.0540   -0.2140    0.1080 C   0  0  0  0  0  0  0  0  0  0  0  0
   -2.6250    0.8390    0.7920 C   0  0  0  0  0  0  0  0  0  0  0  0
   -3.9930    0.9310    0.9280 C   0  0  0  0  0  0  0  0  0  0  0  0
   -4.8100   -0.0180    0.3890 N   0  0  0  0  0  0  0  0  0  0  0  0
   -4.2970   -1.0570   -0.2830 C   0  0  0  0  0  0  0  0  0  0  0  0
   -5.0930   -1.9000   -0.7570 O   0  0  0  0  0  0  0  0  0  0  0  0
   -2.9310   -1.1560   -0.4230 C   0  0  0  0  0  0  0  0  0  0  0  0
    2.7920    0.5860    0.3200 N   0  0  0  0  0  0  0  0  0  0  0  0
  1  2  1  0
  2  3  2  0
  2 15  1  0
  3  4  1  0
  4  5  1  0
  5  6  1  0
  5 15  2  0
  6  7  1  0
  7  8  1  0
  8  9  1  0
  8 14  2  0
  9 10  2  0
 10 11  1  0
 11 12  1  0
 12 13  2  0
 12 14  1  0
M  END
