
     RDKit          3D

 15 16  0  0  0  0  0  0  0  0999 V2000
    5.2130    1.1500   -0.4740 C   0  0  0  0  0  0  0  0  0  0  0  0
    3.8530    0.4250   -0.3410 C   0  0  0  0  0  0  0  0  0  0  0  0
    2.7530    0.5750   -0.2370 N   0  0  0  0  0  0  0  0  0  0  0  0
    1.7450   -0.2810   -0.1380 C   0  0  0  0  0  0  0  0  0  0  0  0
    0.3250    0.1820   -0.0040 C   0  0  0  0  0  0  0  0  0  0  0  0
   -0.5860   -0.9080   -0.0530 N   0  0  0  0  0  0  0  0  0  0  0  0
   -1.9830   -0.5780    0.0680 C   0  0  0  0  0  0  0  0  0  0  0  0
   -2.9490   -1.5620    0.0280 C   0  0  0  0  0  0  0  0  0  0  0  0
   -4.2940   -1.2260    0.1460 C   0  0  0  0  0  0  0  0  0  0  0  0
   -4.6900    0.0620    0.3010 N   0  0  0  0  0  0  0  0  0  0  0  0
   -3.7600    1.0340    0.3420 C   0  0  0  0  0  0  0  0  0  0  0  0
   -4.1930    2.3390    0.5000 O   0  0  0  0  0  0  0  0  0  0  0  0
   -2.4320    0.7170    0.2270 C   0  0  0  0  0  0  0  0  0  0  0  0
    2.1270   -1.5670   -0.1700 C   0  0  0  0  0  0  0  0  0  0  0  0
    3.9460   -1.4920   -0.3430 S   0  0  0  0  0  0  0  0  0  0  0  0
  1  2  1  0
  2  3  2  0
  2 15  1  0
  3  4  1  0
  4  5  1  0
  4 14  2  0
  5  6  1  0
  6  7  1  0
  7  8  2  0
  7 13  1  0
  8  9  1  0
  9 10  2  0
 10 11  1  0
 11 12  1  0
 11 13  2  0
 14 15  1  0
M  END
