
     RDKit          3D

 15 16  0  0  0  0  0  0  0  0999 V2000
    3.9150    2.1590    0.1780 N   0  0  0  0  0  0  0  0  0  0  0  0
    2.6480    1.4770    0.0210 C   0  0  0  0  0  0  0  0  0  0  0  0
    1.6810    2.2230   -0.2500 O   0  0  0  0  0  0  0  0  0  0  0  0
    2.5430    0.0970    0.1670 N   0  0  0  0  0  0  0  0  0  0  0  0
    1.3490   -0.6340    0.0360 C   0  0  0  0  0  0  0  0  0  0  0  0
    1.4660   -2.0310   -0.0620 C   0  0  0  0  0  0  0  0  0  0  0  0
    0.3210   -2.7580   -0.1720 C   0  0  0  0  0  0  0  0  0  0  0  0
   -0.8670   -2.1690   -0.1870 N   0  0  0  0  0  0  0  0  0  0  0  0
   -1.0530   -0.8450   -0.0980 C   0  0  0  0  0  0  0  0  0  0  0  0
   -2.4080   -0.2500   -0.1200 C   0  0  0  0  0  0  0  0  0  0  0  0
   -2.6410    1.0630   -0.0350 C   0  0  0  0  0  0  0  0  0  0  0  0
   -3.9020    1.5350   -0.0610 C   0  0  0  0  0  0  0  0  0  0  0  0
   -4.8960    0.0060   -0.2190 S   0  0  0  0  0  0  0  0  0  0  0  0
   -3.5120   -1.0780   -0.2330 C   0  0  0  0  0  0  0  0  0  0  0  0
    0.0990   -0.0650    0.0170 C   0  0  0  0  0  0  0  0  0  0  0  0
  1  2  1  0
  2  3  2  0
  2  4  1  0
  4  5  1  0
  5  6  2  0
  5 15  1  0
  6  7  1  0
  7  8  2  0
  8  9  1  0
  9 10  1  0
  9 15  2  0
 10 11  1  0
 10 14  2  0
 11 12  2  0
 12 13  1  0
 13 14  1  0
M  END
