
     RDKit          3D

 22 23  0  0  0  0  0  0  0  0999 V2000
   -4.0160   -1.7230    1.2480 O   0  0  0  0  0  0  0  0  0  0  0  0
   -3.9640   -1.2290   -0.0460 C   0  0  0  0  0  0  0  0  0  0  0  0
   -3.4480    0.1540   -0.0760 C   0  0  1  0  0  0  0  0  0  0  0  0
   -4.4290    0.9050    0.6770 O   0  0  0  0  0  0  0  0  0  0  0  0
   -4.2270    2.2500    0.4170 C   0  0  0  0  0  0  0  0  0  0  0  0
   -2.8430    2.5890    0.9870 C   0  0  0  0  0  0  0  0  0  0  0  0
   -1.9170    1.8700    0.2500 O   0  0  0  0  0  0  0  0  0  0  0  0
   -2.1050    0.4720    0.4230 C   0  0  2  0  0  0  0  0  0  0  0  0
   -0.9870   -0.2310   -0.2300 C   0  0  1  0  0  0  0  0  0  0  0  0
    0.3600    0.4840    0.2220 C   0  0  0  0  0  0  0  0  0  0  0  0
    1.3170   -0.3820   -0.5710 C   0  0  1  0  0  0  0  0  0  0  0  0
    1.3220    0.0810   -1.8690 O   0  0  0  0  0  0  0  0  0  0  0  0
    2.6920   -0.4220    0.0420 C   0  0  0  0  0  0  0  0  0  0  0  0
    3.3130    0.8040    0.0970 O   0  0  0  0  0  0  0  0  0  0  0  0
    4.5540    0.6570    0.6710 C   0  0  1  0  0  0  0  0  0  0  0  0
    5.2520    1.8590    0.7630 O   0  0  0  0  0  0  0  0  0  0  0  0
    4.4050    0.1650    1.9640 O   0  0  0  0  0  0  0  0  0  0  0  0
    5.3930   -0.2870   -0.0440 N   0  0  0  0  0  0  0  0  0  0  0  0
    5.6280    0.0530   -1.3110 O   0  0  0  0  0  0  0  0  0  0  0  0
    0.7350   -1.7900   -0.4580 C   0  0  0  0  0  0  0  0  0  0  0  0
   -0.6010   -1.5770    0.3000 C   0  0  2  0  0  0  0  0  0  0  0  0
   -1.3680   -2.6450    0.0060 O   0  0  0  0  0  0  0  0  0  0  0  0
  1  2  1  0
  3  2  1  1
  3  4  1  0
  3  8  1  0
  4  5  1  0
  5  6  1  0
  6  7  1  0
  8  7  1  6
  8  9  1  0
  9 10  1  1
  9 21  1  0
 10 11  1  0
 11 12  1  6
 11 13  1  0
 11 20  1  0
 13 14  1  0
 14 15  1  0
 15 16  1  1
 15 17  1  0
 15 18  1  0
 18 19  1  0
 20 21  1  0
 21 22  1  6
M  END
