
     RDKit          3D

 21 21  0  0  0  0  0  0  0  0999 V2000
    4.9210   -0.0920   -0.9240 C   0  0  0  0  0  0  0  0  0  0  0  0
    4.2090   -0.3210    0.2390 O   0  0  0  0  0  0  0  0  0  0  0  0
    2.8490   -0.2550    0.0090 C   0  0  2  0  0  0  0  0  0  0  0  0
    2.1510    0.7680    0.8800 C   0  0  0  0  0  0  0  0  0  0  0  0
    0.9980    0.3550    1.4600 O   0  0  0  0  0  0  0  0  0  0  0  0
    0.0700   -0.3020    0.7000 C   0  0  1  0  0  0  0  0  0  0  0  0
   -0.8990   -0.9420    1.7130 C   0  0  0  0  0  0  0  0  0  0  0  0
   -1.9030   -1.6420    1.1010 O   0  0  0  0  0  0  0  0  0  0  0  0
   -0.6720    0.7160   -0.1470 C   0  0  2  0  0  0  0  0  0  0  0  0
    0.2960    1.3430   -0.9770 O   0  0  0  0  0  0  0  0  0  0  0  0
   -1.2290    1.7720    0.7760 C   0  0  0  0  0  0  0  0  0  0  0  0
   -1.8430    2.8770    0.0630 N   0  0  0  0  0  0  0  0  0  0  0  0
   -1.6960    0.1240   -1.0180 C   0  0  0  0  0  0  0  0  0  0  0  0
   -1.3320   -0.7190   -2.0560 O   0  0  0  0  0  0  0  0  0  0  0  0
   -2.9830    0.3540   -0.8600 C   0  0  0  0  0  0  0  0  0  0  0  0
   -3.9910   -0.2500   -1.7440 C   0  0  0  0  0  0  0  0  0  0  0  0
   -3.6440   -1.0100   -2.6840 O   0  0  0  0  0  0  0  0  0  0  0  0
   -5.3490   -0.0200   -1.5950 O   0  0  0  0  0  0  0  0  0  0  0  0
    0.7230   -1.3790   -0.1170 C   0  0  2  0  0  0  0  0  0  0  0  0
    0.1090   -2.6180    0.0380 O   0  0  0  0  0  0  0  0  0  0  0  0
    2.1680   -1.5860    0.3590 C   0  0  0  0  0  0  0  0  0  0  0  0
  1  2  1  0
  3  2  1  1
  3  4  1  0
  3 21  1  0
  4  5  1  0
  5  6  1  0
  6  7  1  1
  6  9  1  0
  6 19  1  0
  7  8  1  0
  9 10  1  6
  9 11  1  0
  9 13  1  0
 11 12  1  0
 13 14  1  0
 13 15  2  3
 15 16  1  0
 16 17  2  0
 16 18  1  0
 19 20  1  1
 19 21  1  0
M  CHG  1  12   1
M  END
