
     RDKit          3D

 22 22  0  0  0  0  0  0  0  0999 V2000
   -4.4770    0.5690    1.3030 N   0  0  0  0  0  0  0  0  0  0  0  0
   -3.3910   -0.3690    0.8660 C   0  0  1  0  0  0  0  0  0  0  0  0
   -3.9960   -0.9680   -0.3950 C   0  0  0  0  0  0  0  0  0  0  0  0
   -5.1970   -1.6060   -0.0110 O   0  0  0  0  0  0  0  0  0  0  0  0
   -2.1590    0.4270    0.6350 C   0  0  1  0  0  0  0  0  0  0  0  0
   -2.3210    1.2970   -0.4370 O   0  0  0  0  0  0  0  0  0  0  0  0
   -2.0760    1.4610    1.8420 C   0  0  0  0  0  0  0  0  0  0  0  0
   -0.9850    2.2640    1.6140 O   0  0  0  0  0  0  0  0  0  0  0  0
   -0.8480   -0.2800    0.6010 C   0  0  0  0  0  0  0  0  0  0  0  0
   -0.7890   -1.3220   -0.4530 C   0  0  0  0  0  0  0  0  0  0  0  0
    0.4580   -1.9590   -0.5650 O   0  0  0  0  0  0  0  0  0  0  0  0
    1.4040   -1.0500   -0.9260 C   0  0  2  0  0  0  0  0  0  0  0  0
    2.0690   -1.4260   -2.1250 O   0  0  0  0  0  0  0  0  0  0  0  0
    2.5690   -0.2730   -2.6640 C   0  0  0  0  0  0  0  0  0  0  0  0
    3.0630    0.7480   -1.7190 C   0  0  0  0  0  0  0  0  0  0  0  0
    3.3550    0.2670   -0.3310 C   0  0  2  0  0  0  0  0  0  0  0  0
    4.8080    0.0440   -0.1420 C   0  0  0  0  0  0  0  0  0  0  0  0
    5.2430   -1.0690    0.1570 O   0  0  0  0  0  0  0  0  0  0  0  0
    5.6770    1.1050   -0.3070 O   0  0  0  0  0  0  0  0  0  0  0  0
    6.9900    1.0260   -0.1650 O   0  0  0  0  0  0  0  0  0  0  0  0
    2.5400   -0.9300    0.0780 C   0  0  1  0  0  0  0  0  0  0  0  0
    2.1090   -0.8930    1.3900 O   0  0  0  0  0  0  0  0  0  0  0  0
  2  1  1  6
  2  3  1  0
  2  5  1  0
  3  4  1  0
  5  6  1  6
  5  7  1  0
  5  9  1  0
  7  8  1  0
  9 10  1  0
 10 11  1  0
 12 11  1  1
 12 13  1  0
 12 21  1  0
 13 14  1  0
 14 15  1  0
 15 16  1  0
 16 17  1  6
 16 21  1  0
 17 18  2  0
 17 19  1  0
 19 20  1  0
 21 22  1  1
M  CHG  1   1   1
M  END
