
     RDKit          3D

 13 14  0  0  0  0  0  0  0  0999 V2000
   -1.9870    2.7410   -0.2980 C   0  0  0  0  0  0  0  0  0  0  0  0
   -1.4600    1.3440   -0.1410 C   0  0  0  0  0  0  0  0  0  0  0  0
   -2.2690    0.2990    0.1020 N   0  0  0  0  0  0  0  0  0  0  0  0
   -1.7660   -0.9530    0.2380 C   0  0  0  0  0  0  0  0  0  0  0  0
   -2.7040   -2.0790    0.5090 C   0  0  0  0  0  0  0  0  0  0  0  0
   -0.4300   -1.1700    0.1300 N   0  0  0  0  0  0  0  0  0  0  0  0
    0.3630   -0.1260   -0.1110 C   0  0  0  0  0  0  0  0  0  0  0  0
    1.8400   -0.2490   -0.2480 C   0  0  0  0  0  0  0  0  0  0  0  0
    2.7290   -0.9800    0.3260 C   0  0  0  0  0  0  0  0  0  0  0  0
    2.6670   -2.2130    1.5740 Cl  0  0  0  0  0  0  0  0  0  0  0  0
    3.7980   -0.3920   -0.4520 C   0  0  0  0  0  0  0  0  0  0  0  0
    2.7760    0.3810   -1.0460 N   0  0  0  0  0  0  0  0  0  0  0  0
   -0.1470    1.1060   -0.2430 N   0  0  0  0  0  0  0  0  0  0  0  0
  1  2  1  0
  2  3  2  0
  2 13  1  0
  3  4  1  0
  4  5  1  0
  4  6  2  0
  6  7  1  0
  7  8  1  0
  7 13  2  0
  8  9  2  0
  8 12  1  0
  9 10  1  0
  9 11  1  0
 11 12  1  0
M  END
