
     RDKit          3D

 13 14  0  0  0  0  0  0  0  0999 V2000
    2.2070   -2.1660    0.4920 Cl  0  0  0  0  0  0  0  0  0  0  0  0
    2.0420   -0.5190    1.1740 C   0  0  0  0  0  0  0  0  0  0  0  0
    1.7580    0.4990    0.1400 C   0  0  0  0  0  0  0  0  0  0  0  0
    2.6890    1.3910   -0.3910 C   0  0  0  0  0  0  0  0  0  0  0  0
    2.0130    2.1150   -1.2930 N   0  0  0  0  0  0  0  0  0  0  0  0
    0.7530    1.7230   -1.3380 N   0  0  0  0  0  0  0  0  0  0  0  0
    0.5340    0.7190   -0.4680 C   0  0  0  0  0  0  0  0  0  0  0  0
   -0.7210    0.0150   -0.2100 C   0  0  0  0  0  0  0  0  0  0  0  0
   -1.8640    0.3810   -0.9150 C   0  0  0  0  0  0  0  0  0  0  0  0
   -3.0440   -0.2310   -0.7120 N   0  0  0  0  0  0  0  0  0  0  0  0
   -3.1860   -1.2270    0.1790 C   0  0  0  0  0  0  0  0  0  0  0  0
   -2.0410   -1.5900    0.8810 C   0  0  0  0  0  0  0  0  0  0  0  0
   -0.8600   -0.9800    0.6800 N   0  0  0  0  0  0  0  0  0  0  0  0
  1  2  1  0
  2  3  1  0
  3  4  1  0
  3  7  2  0
  4  5  2  0
  5  6  1  0
  6  7  1  0
  7  8  1  0
  8  9  2  0
  8 13  1  0
  9 10  1  0
 10 11  2  0
 11 12  1  0
 12 13  2  0
M  END
