
     RDKit          3D

 13 14  0  0  0  0  0  0  0  0999 V2000
   -4.4180    0.8820    0.9460 Cl  0  0  0  0  0  0  0  0  0  0  0  0
   -2.8220    0.4370    0.3710 C   0  0  0  0  0  0  0  0  0  0  0  0
   -2.1660    1.1610   -0.6160 C   0  0  0  0  0  0  0  0  0  0  0  0
   -0.9080    0.7820   -1.0470 C   0  0  0  0  0  0  0  0  0  0  0  0
   -0.3080   -0.3200   -0.4910 C   0  0  0  0  0  0  0  0  0  0  0  0
    1.0410   -0.7000   -0.9740 C   0  0  0  0  0  0  0  0  0  0  0  0
    2.0700    0.0080   -0.1620 C   0  0  0  0  0  0  0  0  0  0  0  0
    2.5850    1.2340   -0.4680 N   0  0  0  0  0  0  0  0  0  0  0  0
    3.4630    1.4980    0.5020 N   0  0  0  0  0  0  0  0  0  0  0  0
    3.4860    0.4730    1.3690 N   0  0  0  0  0  0  0  0  0  0  0  0
    2.6330   -0.4440    0.9650 N   0  0  0  0  0  0  0  0  0  0  0  0
   -0.9230   -1.0630    0.4880 C   0  0  0  0  0  0  0  0  0  0  0  0
   -2.1790   -0.6660    0.9020 C   0  0  0  0  0  0  0  0  0  0  0  0
  1  2  1  0
  2  3  2  0
  2 13  1  0
  3  4  1  0
  4  5  2  0
  5  6  1  0
  5 12  1  0
  6  7  1  0
  7  8  2  0
  7 11  1  0
  8  9  1  0
  9 10  2  0
 10 11  1  0
 12 13  2  0
M  END
