
     RDKit          3D

 12 13  0  0  0  0  0  0  0  0999 V2000
    4.4450    1.2590   -0.9090 Cl  0  0  0  0  0  0  0  0  0  0  0  0
    2.9790    0.3750   -0.4900 C   0  0  0  0  0  0  0  0  0  0  0  0
    2.9460   -0.9620   -0.1460 C   0  0  0  0  0  0  0  0  0  0  0  0
    1.6460   -1.2640    0.1030 N   0  0  0  0  0  0  0  0  0  0  0  0
    0.8830   -0.1760   -0.0720 C   0  0  0  0  0  0  0  0  0  0  0  0
   -0.5680   -0.1020    0.1010 C   0  0  0  0  0  0  0  0  0  0  0  0
   -1.2890   -1.2130    0.4790 C   0  0  0  0  0  0  0  0  0  0  0  0
   -2.6360   -1.1190    0.6340 N   0  0  0  0  0  0  0  0  0  0  0  0
   -3.3080    0.0260    0.4320 C   0  0  0  0  0  0  0  0  0  0  0  0
   -2.5710    1.1330    0.0530 C   0  0  0  0  0  0  0  0  0  0  0  0
   -1.2300    1.0430   -0.1020 N   0  0  0  0  0  0  0  0  0  0  0  0
    1.7230    0.8090   -0.4340 N   0  0  0  0  0  0  0  0  0  0  0  0
  1  2  1  0
  2  3  2  0
  2 12  1  0
  3  4  1  0
  4  5  2  0
  5  6  1  0
  5 12  1  0
  6  7  2  0
  6 11  1  0
  7  8  1  0
  8  9  2  0
  9 10  1  0
 10 11  2  0
M  END
