
     RDKit          3D

 13 14  0  0  0  0  0  0  0  0999 V2000
   -5.0050   -0.1850    2.0740 Cl  0  0  0  0  0  0  0  0  0  0  0  0
   -3.4060   -0.1050    1.3670 C   0  0  0  0  0  0  0  0  0  0  0  0
   -3.1710    0.5710    0.1910 C   0  0  0  0  0  0  0  0  0  0  0  0
   -1.9340    0.6310   -0.3530 N   0  0  0  0  0  0  0  0  0  0  0  0
   -0.8760    0.0310    0.2340 C   0  0  0  0  0  0  0  0  0  0  0  0
    0.4510    0.1220   -0.3940 C   0  0  0  0  0  0  0  0  0  0  0  0
    0.6000    0.7980   -1.5390 C   0  0  0  0  0  0  0  0  0  0  0  0
    1.8600    0.8910   -2.1440 N   0  0  0  0  0  0  0  0  0  0  0  0
    2.9110    0.3340   -1.6260 C   0  0  0  0  0  0  0  0  0  0  0  0
    2.8930   -0.4310   -0.3830 C   0  0  0  0  0  0  0  0  0  0  0  0
    1.5640   -0.4910    0.1930 N   0  0  0  0  0  0  0  0  0  0  0  0
   -1.1150   -0.6430    1.4060 C   0  0  0  0  0  0  0  0  0  0  0  0
   -2.3610   -0.7060    1.9590 N   0  0  0  0  0  0  0  0  0  0  0  0
  1  2  1  0
  2  3  2  0
  2 13  1  0
  3  4  1  0
  4  5  2  0
  5  6  1  0
  5 12  1  0
  6  7  2  0
  6 11  1  0
  7  8  1  0
  8  9  2  0
  9 10  1  0
 10 11  1  0
 12 13  2  0
M  END
