
     RDKit          3D

 25 27  0  0  0  0  0  0  0  0999 V2000
   -4.4370    3.8490    5.0050 C   0  0  0  0  0  0  0  0  0  0  0  0
   -3.5540    3.0810    4.3190 C   0  0  0  0  0  0  0  0  0  0  0  0
   -4.0480    2.2480    3.3930 F   0  0  0  0  0  0  0  0  0  0  0  0
   -2.1710    3.1350    4.6580 C   0  0  0  0  0  0  0  0  0  0  0  0
   -1.2080    2.4860    4.0810 C   0  0  0  0  0  0  0  0  0  0  0  0
   -0.9390    1.5820    3.0580 C   0  0  0  0  0  0  0  0  0  0  0  0
    0.3280    1.2190    2.9380 O   0  0  0  0  0  0  0  0  0  0  0  0
   -1.8640    0.9830    2.0910 C   0  0  0  0  0  0  0  0  0  0  0  0
   -1.0520    0.1430    1.1580 N   0  0  0  0  0  0  0  0  0  0  0  0
   -0.8300   -1.1230    1.2630 N   0  0  0  0  0  0  0  0  0  0  0  0
   -0.0620   -1.4710    0.1880 C   0  0  0  0  0  0  0  0  0  0  0  0
    0.7880   -2.7770   -0.6760 S   0  0  0  0  0  0  0  0  0  0  0  0
    1.3930   -1.5910   -2.0300 C   0  0  0  0  0  0  0  0  0  0  0  0
    2.2260   -2.1780   -3.1190 C   0  0  0  0  0  0  0  0  0  0  0  0
    2.5860   -1.3100   -4.1030 C   0  0  0  0  0  0  0  0  0  0  0  0
    3.3760   -1.7770   -5.1860 C   0  0  0  0  0  0  0  0  0  0  0  0
    3.7760   -3.0990   -5.2410 C   0  0  0  0  0  0  0  0  0  0  0  0
    3.3840   -3.9280   -4.2200 C   0  0  0  0  0  0  0  0  0  0  0  0
    3.7340   -5.2290   -4.2350 F   0  0  0  0  0  0  0  0  0  0  0  0
    2.6070   -3.4740   -3.1560 C   0  0  0  0  0  0  0  0  0  0  0  0
    2.2340   -4.3140   -2.1540 F   0  0  0  0  0  0  0  0  0  0  0  0
    0.9090   -0.6230   -1.6300 N   0  0  0  0  0  0  0  0  0  0  0  0
    0.1880   -0.4130   -0.5830 N   0  0  0  0  0  0  0  0  0  0  0  0
   -0.4440    0.6240    0.0400 C   0  0  0  0  0  0  0  0  0  0  0  0
   -0.5130    1.8330   -0.2750 O   0  0  0  0  0  0  0  0  0  0  0  0
  1  2  2  0
  2  3  1  0
  2  4  1  0
  4  5  2  3
  5  6  1  0
  6  7  2  0
  6  8  1  0
  8  9  1  0
  9 10  1  0
  9 24  1  0
 10 11  2  0
 11 12  1  0
 11 23  1  0
 12 13  1  0
 13 14  1  0
 13 22  2  0
 14 15  2  0
 14 20  1  0
 15 16  1  0
 16 17  2  0
 17 18  1  0
 18 19  1  0
 18 20  2  0
 20 21  1  0
 22 23  1  0
 23 24  1  0
 24 25  2  0
M  END
