
     RDKit          3D

 25 27  0  0  0  0  0  0  0  0999 V2000
   -4.1100    3.1040   -0.1800 C   0  0  0  0  0  0  0  0  0  0  0  0
   -4.4490    2.9230    1.0510 N   0  0  0  0  0  0  0  0  0  0  0  0
   -4.9670    1.6410    1.4480 C   0  0  0  0  0  0  0  0  0  0  0  0
   -4.0890    0.4870    1.2650 C   0  0  0  0  0  0  0  0  0  0  0  0
   -2.9360    0.5890    2.2370 C   0  0  2  0  0  0  0  0  0  0  0  0
   -2.0810    2.1530    1.9220 S   0  0  0  0  0  0  0  0  0  0  0  0
   -0.7330    1.4540    0.9880 C   0  0  0  0  0  0  0  0  0  0  0  0
    0.3300    1.7920    0.2000 C   0  0  0  0  0  0  0  0  0  0  0  0
    0.7720    3.0270   -0.1650 F   0  0  0  0  0  0  0  0  0  0  0  0
    0.9220    0.5830   -0.1870 C   0  0  0  0  0  0  0  0  0  0  0  0
    2.1030    0.4950   -1.0560 C   0  0  0  0  0  0  0  0  0  0  0  0
    2.6320    1.5740   -1.4630 O   0  0  0  0  0  0  0  0  0  0  0  0
    2.6700   -0.7130   -1.4580 N   0  0  0  0  0  0  0  0  0  0  0  0
    2.2340   -2.0470   -1.1190 C   0  0  0  0  0  0  0  0  0  0  0  0
    3.3110   -2.6970   -0.2750 C   0  0  0  0  0  0  0  0  0  0  0  0
    4.6310   -1.9650   -0.3600 C   0  0  0  0  0  0  0  0  0  0  0  0
    4.8850   -1.5860   -1.8060 C   0  0  0  0  0  0  0  0  0  0  0  0
    3.8500   -0.6550   -2.3390 C   0  0  0  0  0  0  0  0  0  0  0  0
    0.1920   -0.3610    0.3790 N   0  0  0  0  0  0  0  0  0  0  0  0
   -0.8240    0.1440    1.1020 N   0  0  0  0  0  0  0  0  0  0  0  0
   -1.8520   -0.3690    1.8920 C   0  0  0  0  0  0  0  0  0  0  0  0
   -1.9580   -1.5730    2.3470 O   0  0  0  0  0  0  0  0  0  0  0  0
   -6.1750    1.5320    1.9080 C   0  0  0  0  0  0  0  0  0  0  0  0
   -6.6400    0.3250    2.2760 F   0  0  0  0  0  0  0  0  0  0  0  0
   -6.9670    2.6090    2.0160 F   0  0  0  0  0  0  0  0  0  0  0  0
  1  2  2  0
  2  3  1  0
  3  4  1  0
  3 23  2  3
  5  4  1  6
  5  6  1  0
  5 21  1  0
  6  7  1  0
  7  8  2  0
  7 20  1  0
  8  9  1  0
  8 10  1  0
 10 11  1  0
 10 19  2  0
 11 12  2  0
 11 13  1  0
 13 14  1  0
 13 18  1  0
 14 15  1  0
 15 16  1  0
 16 17  1  0
 17 18  1  0
 19 20  1  0
 20 21  1  0
 21 22  2  0
 23 24  1  0
 23 25  1  0
M  END
