
     RDKit          3D

 25 27  0  0  0  0  0  0  0  0999 V2000
   -6.4860    1.1310    0.4370 C   0  0  0  0  0  0  0  0  0  0  0  0
   -5.5570   -0.0680    0.2960 C   0  0  1  0  0  0  0  0  0  0  0  0
   -6.3310   -1.2270   -0.3140 C   0  0  0  0  0  0  0  0  0  0  0  0
   -4.4490    0.2320   -0.6230 C   0  0  0  0  0  0  0  0  0  0  0  0
   -4.4190    1.0020   -1.6610 O   0  0  0  0  0  0  0  0  0  0  0  0
   -3.1820    0.9530   -2.1760 C   0  0  0  0  0  0  0  0  0  0  0  0
   -2.4480    0.1290   -1.4200 N   0  0  0  0  0  0  0  0  0  0  0  0
   -3.2040   -0.3320   -0.4520 C   0  0  0  0  0  0  0  0  0  0  0  0
   -2.9220   -1.3510    0.6250 C   0  0  0  0  0  0  0  0  0  0  0  0
   -1.9750   -0.3800    1.8410 S   0  0  0  0  0  0  0  0  0  0  0  0
   -0.4630    0.2220    1.1920 C   0  0  0  0  0  0  0  0  0  0  0  0
   -0.2320    1.2300    0.3150 N   0  0  0  0  0  0  0  0  0  0  0  0
    1.0640    1.3400    0.1450 N   0  0  0  0  0  0  0  0  0  0  0  0
    1.6860    0.4160    0.9040 C   0  0  0  0  0  0  0  0  0  0  0  0
    3.1510    0.2060    1.0270 C   0  0  0  0  0  0  0  0  0  0  0  0
    3.7580   -0.1520   -0.1420 N   0  0  0  0  0  0  0  0  0  0  0  0
    4.1060   -1.5240   -0.3490 C   0  0  0  0  0  0  0  0  0  0  0  0
    5.6380   -1.5560   -0.2820 C   0  0  0  0  0  0  0  0  0  0  0  0
    6.0280   -0.1130   -0.1110 C   0  0  0  0  0  0  0  0  0  0  0  0
    4.7910    0.5830   -0.7300 C   0  0  2  0  0  0  0  0  0  0  0  0
    4.8790    2.0270   -0.4100 C   0  0  2  0  0  0  0  0  0  0  0  0
    5.9510    2.6100   -1.1000 F   0  0  0  0  0  0  0  0  0  0  0  0
    5.3140    2.1140    0.9360 F   0  0  0  0  0  0  0  0  0  0  0  0
    3.7980    2.7940   -0.5550 F   0  0  0  0  0  0  0  0  0  0  0  0
    0.7550   -0.2440    1.5170 O   0  0  0  0  0  0  0  0  0  0  0  0
  2  1  1  6
  2  3  1  0
  2  4  1  0
  4  5  1  0
  4  8  2  0
  5  6  1  0
  6  7  2  0
  7  8  1  0
  8  9  1  0
  9 10  1  0
 10 11  1  0
 11 12  2  0
 11 25  1  0
 12 13  1  0
 13 14  2  0
 14 15  1  0
 14 25  1  0
 15 16  1  0
 16 17  1  0
 16 20  1  0
 17 18  1  0
 18 19  1  0
 20 19  1  1
 20 21  1  0
 21 22  1  6
 21 23  1  0
 21 24  1  0
M  END
