
     RDKit          3D

 30 32  0  0  0  0  0  0  0  0999 V2000
   -8.2960    0.0380   -1.5250 C   0  0  0  0  0  0  0  0  0  0  0  0
   -6.8250   -0.0910   -1.8560 C   0  0  0  0  0  0  0  0  0  0  0  0
   -6.0130   -0.3210   -0.5950 C   0  0  0  0  0  0  0  0  0  0  0  0
   -4.5390   -0.4530   -0.9140 C   0  0  0  0  0  0  0  0  0  0  0  0
   -3.7380   -0.6750    0.3100 C   0  0  0  0  0  0  0  0  0  0  0  0
   -3.3810    0.2960    1.0250 O   0  0  0  0  0  0  0  0  0  0  0  0
   -3.3650   -1.9330    0.6960 O   0  0  0  0  0  0  0  0  0  0  0  0
   -2.6180   -2.2900    1.8050 C   0  0  0  0  0  0  0  0  0  0  0  0
   -1.2480   -1.7860    1.8740 C   0  0  0  0  0  0  0  0  0  0  0  0
   -0.5440   -2.0300    2.8930 O   0  0  0  0  0  0  0  0  0  0  0  0
   -0.6390   -1.0200    0.8430 N   0  0  0  0  0  0  0  0  0  0  0  0
    0.7250   -0.5700    1.0150 C   0  0  1  0  0  0  0  0  0  0  0  0
    1.5880   -1.0490   -0.0380 N   0  0  0  0  0  0  0  0  0  0  0  0
    2.8030   -0.4150   -0.4390 C   0  0  0  0  0  0  0  0  0  0  0  0
    3.8350   -1.1120   -0.8200 C   0  0  0  0  0  0  0  0  0  0  0  0
    5.0910   -0.5560   -1.2400 C   0  0  0  0  0  0  0  0  0  0  0  0
    5.2450    0.5080   -2.1040 C   0  0  0  0  0  0  0  0  0  0  0  0
    6.4920    1.0110   -2.4580 C   0  0  0  0  0  0  0  0  0  0  0  0
    7.5980    0.4050   -1.9100 C   0  0  0  0  0  0  0  0  0  0  0  0
    7.4570   -0.6550   -1.0490 C   0  0  0  0  0  0  0  0  0  0  0  0
    8.5640   -1.2940   -0.4760 O   0  0  0  0  0  0  0  0  0  0  0  0
    6.2400   -1.1020   -0.7410 N   0  0  0  0  0  0  0  0  0  0  0  0
    2.8340    1.0670   -0.3760 C   0  0  0  0  0  0  0  0  0  0  0  0
    1.9860    1.5380    0.7890 C   0  0  0  0  0  0  0  0  0  0  0  0
    2.4740    2.4730    1.4960 N   0  0  0  0  0  0  0  0  0  0  0  0
    1.8490    3.0350    2.6080 N   0  0  0  0  0  0  0  0  0  0  0  0
    0.5810    2.5140    2.9640 C   0  0  0  0  0  0  0  0  0  0  0  0
   -0.0740    2.9530    3.9530 O   0  0  0  0  0  0  0  0  0  0  0  0
    0.0290    1.4690    2.1900 N   0  0  0  0  0  0  0  0  0  0  0  0
    0.6870    0.9520    1.0460 C   0  0  2  0  0  0  0  0  0  0  0  0
  1  2  1  0
  2  3  1  0
  3  4  1  0
  4  5  1  0
  5  6  2  0
  5  7  1  0
  7  8  1  0
  8  9  1  0
  9 10  2  0
  9 11  1  0
 12 11  1  6
 12 13  1  0
 12 30  1  0
 13 14  1  0
 14 15  2  3
 14 23  1  0
 15 16  1  0
 16 17  2  0
 16 22  1  0
 17 18  1  0
 18 19  2  0
 19 20  1  0
 20 21  1  0
 20 22  2  0
 23 24  1  0
 24 25  2  0
 24 30  1  0
 25 26  1  0
 26 27  1  0
 27 28  2  0
 27 29  1  0
 30 29  1  1
M  END
