
     RDKit          3D

 30 32  0  0  0  0  0  0  0  0999 V2000
   -5.2350    1.1070    0.2460 C   0  0  0  0  0  0  0  0  0  0  0  0
   -4.0370    1.5210    0.0610 C   0  0  0  0  0  0  0  0  0  0  0  0
   -3.8190    3.0140    0.0060 C   0  0  0  0  0  0  0  0  0  0  0  0
   -2.8870    0.6460   -0.0380 C   0  0  0  0  0  0  0  0  0  0  0  0
   -1.6350    1.1060   -0.2970 C   0  0  0  0  0  0  0  0  0  0  0  0
   -0.5180    0.1800   -0.4110 C   0  0  0  0  0  0  0  0  0  0  0  0
    0.8230    0.6380   -0.6530 N   0  0  0  0  0  0  0  0  0  0  0  0
    1.2280    1.9610   -0.8100 C   0  0  0  0  0  0  0  0  0  0  0  0
    0.4290    2.9070   -0.7560 O   0  0  0  0  0  0  0  0  0  0  0  0
    2.6610    2.2720   -1.0530 C   0  0  1  0  0  0  0  0  0  0  0  0
    3.0250    3.5130   -0.3400 C   0  0  0  0  0  0  0  0  0  0  0  0
    3.4780    1.1090   -0.7690 N   0  0  0  0  0  0  0  0  0  0  0  0
    3.5090    0.7700    0.6330 C   0  0  0  0  0  0  0  0  0  0  0  0
    3.8230   -0.6160    0.9720 C   0  0  0  0  0  0  0  0  0  0  0  0
    3.2580   -1.0500    2.0350 O   0  0  0  0  0  0  0  0  0  0  0  0
    4.6320   -1.6370    0.3890 N   0  0  0  0  0  0  0  0  0  0  0  0
    5.2730   -1.6150   -0.8760 C   0  0  0  0  0  0  0  0  0  0  0  0
    6.0650   -2.5450   -1.0910 O   0  0  0  0  0  0  0  0  0  0  0  0
    5.0750   -0.6320   -1.8810 N   0  0  0  0  0  0  0  0  0  0  0  0
    4.1530    0.4820   -1.8370 C   0  0  0  0  0  0  0  0  0  0  0  0
    3.8850    1.0100   -2.9600 O   0  0  0  0  0  0  0  0  0  0  0  0
   -0.7140   -1.1230   -0.2890 C   0  0  0  0  0  0  0  0  0  0  0  0
    0.4650   -2.0300   -0.3980 C   0  0  0  0  0  0  0  0  0  0  0  0
   -2.0880   -1.6750   -0.1870 C   0  0  1  0  0  0  0  0  0  0  0  0
   -2.1510   -3.0070    0.5170 C   0  0  0  0  0  0  0  0  0  0  0  0
   -3.5760   -3.4050    0.8280 C   0  0  0  0  0  0  0  0  0  0  0  0
   -4.3100   -2.3750    1.5230 N   0  0  0  0  0  0  0  0  0  0  0  0
   -3.8320   -1.0450    1.4770 C   0  0  0  0  0  0  0  0  0  0  0  0
   -4.1430   -0.1510    2.3360 O   0  0  0  0  0  0  0  0  0  0  0  0
   -2.9440   -0.7080    0.3910 N   0  0  0  0  0  0  0  0  0  0  0  0
  1  2  2  0
  2  3  1  0
  2  4  1  0
  4  5  2  0
  4 30  1  0
  5  6  1  0
  6  7  1  0
  6 22  2  0
  7  8  1  0
  8  9  2  0
  8 10  1  0
 10 11  1  1
 10 12  1  0
 12 13  1  0
 12 20  1  0
 13 14  1  0
 14 15  2  0
 14 16  1  0
 16 17  1  0
 17 18  2  0
 17 19  1  0
 19 20  1  0
 20 21  2  0
 22 23  1  0
 22 24  1  0
 24 25  1  1
 24 30  1  0
 25 26  1  0
 26 27  1  0
 27 28  1  0
 28 29  2  0
 28 30  1  0
M  END
