
     RDKit          3D

 30 32  0  0  0  0  0  0  0  0999 V2000
   -5.8600   -5.0570    0.4840 N   0  0  0  0  0  0  0  0  0  0  0  0
   -5.3150   -3.9330    1.1590 C   0  0  0  0  0  0  0  0  0  0  0  0
   -5.5200   -3.8470    2.3840 O   0  0  0  0  0  0  0  0  0  0  0  0
   -4.5300   -2.8890    0.4570 C   0  0  0  0  0  0  0  0  0  0  0  0
   -4.1040   -1.8510    1.4510 C   0  0  0  0  0  0  0  0  0  0  0  0
   -3.3080   -0.7630    0.8240 C   0  0  0  0  0  0  0  0  0  0  0  0
   -1.9480   -0.8450    0.7300 C   0  0  0  0  0  0  0  0  0  0  0  0
   -1.1810    0.1770    0.1390 C   0  0  0  0  0  0  0  0  0  0  0  0
    0.2220    0.0260    0.0460 N   0  0  0  0  0  0  0  0  0  0  0  0
    1.1220    1.0780   -0.1270 C   0  0  0  0  0  0  0  0  0  0  0  0
    0.6710    2.2620   -0.1990 O   0  0  0  0  0  0  0  0  0  0  0  0
    2.6040    0.8920   -0.2330 C   0  0  0  0  0  0  0  0  0  0  0  0
    3.1800   -0.2720   -0.1730 C   0  0  0  0  0  0  0  0  0  0  0  0
    4.6320   -0.4810   -0.2760 C   0  0  1  0  0  0  0  0  0  0  0  0
    5.1150   -1.3160    0.8650 C   0  0  0  0  0  0  0  0  0  0  0  0
    6.0450   -2.1440    0.4180 C   0  0  0  0  0  0  0  0  0  0  0  0
    6.2230   -1.8970   -1.0380 C   0  0  0  0  0  0  0  0  0  0  0  0
    4.9330   -1.3690   -1.4210 N   0  0  0  0  0  0  0  0  0  0  0  0
    5.3470    0.7190   -0.4300 N   0  0  0  0  0  0  0  0  0  0  0  0
    4.7180    1.9770   -0.4960 C   0  0  0  0  0  0  0  0  0  0  0  0
    5.5150    3.1270   -0.6640 O   0  0  0  0  0  0  0  0  0  0  0  0
    3.4120    2.1090   -0.4070 C   0  0  0  0  0  0  0  0  0  0  0  0
   -1.8500    1.2660   -0.3440 C   0  0  0  0  0  0  0  0  0  0  0  0
   -3.2420    1.3360   -0.2410 C   0  0  0  0  0  0  0  0  0  0  0  0
   -3.8320    2.3960   -0.7160 N   0  0  0  0  0  0  0  0  0  0  0  0
   -3.1020    3.4490   -1.3190 C   0  0  0  0  0  0  0  0  0  0  0  0
   -2.6070    3.2570   -2.4550 O   0  0  0  0  0  0  0  0  0  0  0  0
   -2.8920    4.7660   -0.6770 C   0  0  0  0  0  0  0  0  0  0  0  0
   -3.4890    4.8450    0.5690 O   0  0  0  0  0  0  0  0  0  0  0  0
   -3.8890    0.3360    0.3270 N   0  0  0  0  0  0  0  0  0  0  0  0
  1  2  1  0
  2  3  2  0
  2  4  1  0
  4  5  1  0
  5  6  1  0
  6  7  2  0
  6 30  1  0
  7  8  1  0
  8  9  1  0
  8 23  2  0
  9 10  1  0
 10 11  2  0
 10 12  1  0
 12 13  2  0
 12 22  1  0
 13 14  1  0
 14 15  1  0
 14 18  1  6
 14 19  1  0
 15 16  2  0
 16 17  1  0
 17 18  1  0
 19 20  1  0
 20 21  1  0
 20 22  2  0
 23 24  1  0
 24 25  2  3
 24 30  1  0
 25 26  1  0
 26 27  2  0
 26 28  1  0
 28 29  1  0
M  END
