
     RDKit          3D

 34 38  0  0  0  0  0  0  0  0999 V2000
    8.8240   -0.7250   -0.8010 C   0  0  0  0  0  0  0  0  0  0  0  0
    8.4760    0.6660   -0.3630 C   0  0  0  0  0  0  0  0  0  0  0  0
    9.4850    1.5900   -0.2870 C   0  0  0  0  0  0  0  0  0  0  0  0
    9.2020    2.8820    0.1130 C   0  0  0  0  0  0  0  0  0  0  0  0
    7.9300    3.2400    0.4320 C   0  0  0  0  0  0  0  0  0  0  0  0
    6.9150    2.2810    0.3480 C   0  0  0  0  0  0  0  0  0  0  0  0
    7.1550    1.0060   -0.0410 C   0  0  0  0  0  0  0  0  0  0  0  0
    6.1590   -0.0450   -0.1520 C   0  0  0  0  0  0  0  0  0  0  0  0
    4.8450    0.3700    0.1880 N   0  0  0  0  0  0  0  0  0  0  0  0
    3.7310   -0.5570    0.1330 C   0  0  0  0  0  0  0  0  0  0  0  0
    3.8180   -1.8500   -0.2290 N   0  0  0  0  0  0  0  0  0  0  0  0
    2.5920   -2.4250   -0.1700 C   0  0  0  0  0  0  0  0  0  0  0  0
    2.3380   -3.8310   -0.5040 C   0  0  0  0  0  0  0  0  0  0  0  0
    1.7220   -1.4430    0.2450 C   0  0  0  0  0  0  0  0  0  0  0  0
    0.2680   -1.6320    0.4460 C   0  0  0  0  0  0  0  0  0  0  0  0
   -0.6220   -0.7090    0.8490 N   0  0  0  0  0  0  0  0  0  0  0  0
   -1.8570   -1.2380    0.9210 C   0  0  0  0  0  0  0  0  0  0  0  0
   -3.1060   -0.5420    1.3240 C   0  0  0  0  0  0  0  0  0  0  0  0
   -3.7950    0.0620    0.2180 N   0  0  0  0  0  0  0  0  0  0  0  0
   -4.1700   -0.8800   -0.7560 C   0  0  0  0  0  0  0  0  0  0  0  0
   -5.1500   -1.9260   -0.2800 C   0  0  0  0  0  0  0  0  0  0  0  0
   -6.4930   -1.2320   -0.2190 C   0  0  0  0  0  0  0  0  0  0  0  0
   -6.6740   -0.6750    1.1380 C   0  0  0  0  0  0  0  0  0  0  0  0
   -5.8200    0.4170    1.5930 C   0  0  0  0  0  0  0  0  0  0  0  0
   -4.7700    0.9660    0.7080 C   0  0  2  0  0  0  0  0  0  0  0  0
   -5.2690    1.9430   -0.3090 C   0  0  0  0  0  0  0  0  0  0  0  0
   -4.3680    2.5640   -1.1400 C   0  0  0  0  0  0  0  0  0  0  0  0
   -4.8500    3.4630   -2.0640 C   0  0  0  0  0  0  0  0  0  0  0  0
   -6.1680    3.7220   -2.1470 N   0  0  0  0  0  0  0  0  0  0  0  0
   -7.0520    3.1140   -1.3340 C   0  0  0  0  0  0  0  0  0  0  0  0
   -6.5930    2.2060   -0.3960 C   0  0  0  0  0  0  0  0  0  0  0  0
   -1.6780   -2.5520    0.5370 C   0  0  0  0  0  0  0  0  0  0  0  0
   -0.4100   -2.7380    0.2670 O   0  0  0  0  0  0  0  0  0  0  0  0
    2.4390   -0.3370    0.4170 N   0  0  0  0  0  0  0  0  0  0  0  0
  1  2  1  0
  2  3  2  0
  2  7  1  0
  3  4  1  0
  4  5  2  0
  5  6  1  0
  6  7  2  0
  7  8  1  0
  8  9  1  0
  9 10  1  0
 10 11  2  0
 10 34  1  0
 11 12  1  0
 12 13  1  0
 12 14  2  0
 14 15  1  0
 14 34  1  0
 15 16  2  0
 15 33  1  0
 16 17  1  0
 17 18  1  0
 17 32  2  0
 18 19  1  0
 19 20  1  0
 19 25  1  0
 20 21  1  0
 21 22  1  0
 22 23  1  0
 23 24  1  0
 24 25  1  0
 25 26  1  6
 26 27  2  0
 26 31  1  0
 27 28  1  0
 28 29  2  0
 29 30  1  0
 30 31  2  0
 32 33  1  0
M  END
