
     RDKit          3D

 34 38  0  0  0  0  0  0  0  0999 V2000
    1.1010   -2.2330   -2.5600 C   0  0  0  0  0  0  0  0  0  0  0  0
    0.7990   -1.5240   -1.2940 C   0  0  0  0  0  0  0  0  0  0  0  0
   -0.3000   -0.7640   -1.1400 N   0  0  0  0  0  0  0  0  0  0  0  0
   -0.5800   -0.1200    0.0030 C   0  0  0  0  0  0  0  0  0  0  0  0
   -1.7280    0.6780    0.1750 N   0  0  0  0  0  0  0  0  0  0  0  0
   -2.6420    0.8060   -0.9340 C   0  0  0  0  0  0  0  0  0  0  0  0
   -3.8050    1.6930   -0.5620 C   0  0  1  0  0  0  0  0  0  0  0  0
   -4.7790    1.8520   -1.7060 C   0  0  0  0  0  0  0  0  0  0  0  0
   -4.8890    0.6840   -2.6100 C   0  0  0  0  0  0  0  0  0  0  0  0
   -5.7780   -0.4270   -2.1720 C   0  0  0  0  0  0  0  0  0  0  0  0
   -5.7030   -0.8080   -0.7650 C   0  0  0  0  0  0  0  0  0  0  0  0
   -5.9940   -2.0310   -0.5310 O   0  0  0  0  0  0  0  0  0  0  0  0
   -5.3590   -0.0630    0.4430 C   0  0  0  0  0  0  0  0  0  0  0  0
   -5.9940   -0.5940    1.5720 C   0  0  0  0  0  0  0  0  0  0  0  0
   -5.7800    0.0090    2.7870 C   0  0  0  0  0  0  0  0  0  0  0  0
   -4.9540    1.1240    2.9170 C   0  0  0  0  0  0  0  0  0  0  0  0
   -4.3340    1.6310    1.7720 C   0  0  0  0  0  0  0  0  0  0  0  0
   -4.5400    1.0360    0.5510 C   0  0  0  0  0  0  0  0  0  0  0  0
    0.2990   -0.2500    1.0500 C   0  0  0  0  0  0  0  0  0  0  0  0
    1.4190   -1.0060    0.9410 N   0  0  0  0  0  0  0  0  0  0  0  0
    1.6740   -1.6440   -0.2270 C   0  0  0  0  0  0  0  0  0  0  0  0
    2.8220   -2.4340   -0.3720 N   0  0  0  0  0  0  0  0  0  0  0  0
    3.7440   -2.5690    0.7250 C   0  0  0  0  0  0  0  0  0  0  0  0
    4.3140   -1.2690    1.1150 C   0  0  0  0  0  0  0  0  0  0  0  0
    3.8190   -0.4880    2.0800 N   0  0  0  0  0  0  0  0  0  0  0  0
    4.3470    0.6890    2.4230 C   0  0  0  0  0  0  0  0  0  0  0  0
    5.4740    1.1390    1.7460 C   0  0  0  0  0  0  0  0  0  0  0  0
    5.9920    0.3500    0.7560 C   0  0  0  0  0  0  0  0  0  0  0  0
    7.1760    0.7920    0.0240 C   0  0  0  0  0  0  0  0  0  0  0  0
    7.7720    0.1190   -0.9550 C   0  0  0  0  0  0  0  0  0  0  0  0
    8.9080    0.9130   -1.4050 C   0  0  0  0  0  0  0  0  0  0  0  0
    8.8300    2.0380   -0.7200 C   0  0  0  0  0  0  0  0  0  0  0  0
    7.9110    2.0310    0.2290 C   0  0  0  0  0  0  0  0  0  0  0  0
    5.4110   -0.8170    0.4670 N   0  0  0  0  0  0  0  0  0  0  0  0
  1  2  1  0
  2  3  2  0
  2 21  1  0
  3  4  1  0
  4  5  1  0
  4 19  2  0
  5  6  1  0
  7  6  1  6
  7  8  1  0
  7 18  1  0
  8  9  1  0
  9 10  1  0
 10 11  1  0
 11 12  2  0
 11 13  1  0
 13 14  2  0
 13 18  1  0
 14 15  1  0
 15 16  2  0
 16 17  1  0
 17 18  2  0
 19 20  1  0
 20 21  2  0
 21 22  1  0
 22 23  1  0
 23 24  1  0
 24 25  2  0
 24 34  1  0
 25 26  1  0
 26 27  2  0
 27 28  1  0
 28 29  1  0
 28 34  2  0
 29 30  2  0
 29 33  1  0
 30 31  1  0
 31 32  2  0
 32 33  2  0
M  END
