
     RDKit          3D

 34 38  0  0  0  0  0  0  0  0999 V2000
   -3.5900    0.9890    0.4970 O   0  0  0  0  0  0  0  0  0  0  0  0
   -3.6670   -0.1820    0.1330 C   0  0  0  0  0  0  0  0  0  0  0  0
   -2.5370   -0.9400   -0.2110 N   0  0  0  0  0  0  0  0  0  0  0  0
   -1.1920   -0.4790   -0.1890 C   0  0  0  0  0  0  0  0  0  0  0  0
   -0.8550    0.7950    0.1640 C   0  0  0  0  0  0  0  0  0  0  0  0
    0.4750    1.2170    0.1720 C   0  0  0  0  0  0  0  0  0  0  0  0
    1.4980    0.3800   -0.1700 C   0  0  0  0  0  0  0  0  0  0  0  0
    2.8640    0.8020   -0.1650 N   0  0  0  0  0  0  0  0  0  0  0  0
    3.6360    0.4600    0.7990 C   0  0  0  0  0  0  0  0  0  0  0  0
    5.0430    0.8640    0.8550 C   0  0  0  0  0  0  0  0  0  0  0  0
    5.5970    1.6020   -0.0830 C   0  0  0  0  0  0  0  0  0  0  0  0
    6.9630    1.9570    0.0320 N   0  0  0  0  0  0  0  0  0  0  0  0
    8.0130    1.0100   -0.0320 C   0  0  0  0  0  0  0  0  0  0  0  0
    9.3350    1.3800    0.0810 C   0  0  0  0  0  0  0  0  0  0  0  0
   10.3450    0.4640    0.0190 C   0  0  0  0  0  0  0  0  0  0  0  0
   10.0090   -0.8560   -0.1630 C   0  0  0  0  0  0  0  0  0  0  0  0
    8.7270   -1.2040   -0.2720 N   0  0  0  0  0  0  0  0  0  0  0  0
    7.7130   -0.3350   -0.2150 C   0  0  0  0  0  0  0  0  0  0  0  0
    1.1400   -0.9100   -0.5250 C   0  0  0  0  0  0  0  0  0  0  0  0
    2.2050   -1.7560   -0.8730 C   0  0  0  0  0  0  0  0  0  0  0  0
    1.9330   -3.0550   -1.2370 C   0  0  0  0  0  0  0  0  0  0  0  0
    0.6340   -3.4870   -1.2510 C   0  0  0  0  0  0  0  0  0  0  0  0
   -0.4360   -2.6700   -0.9120 C   0  0  0  0  0  0  0  0  0  0  0  0
   -0.1720   -1.3650   -0.5450 C   0  0  0  0  0  0  0  0  0  0  0  0
   -5.0380   -0.7840    0.0670 C   0  0  1  0  0  0  0  0  0  0  0  0
   -5.1850   -1.9750    0.9620 C   0  0  0  0  0  0  0  0  0  0  0  0
   -6.1330   -1.5690    2.0680 C   0  0  0  0  0  0  0  0  0  0  0  0
   -6.5240   -0.1320    1.7980 C   0  0  0  0  0  0  0  0  0  0  0  0
   -6.0540    0.1680    0.4630 N   0  0  0  0  0  0  0  0  0  0  0  0
   -6.5310    1.2560   -0.3490 C   0  0  0  0  0  0  0  0  0  0  0  0
   -6.9420    2.4340    0.0920 C   0  0  0  0  0  0  0  0  0  0  0  0
   -7.3540    3.2830   -1.0450 C   0  0  0  0  0  0  0  0  0  0  0  0
   -7.1120    2.4040   -2.1950 C   0  0  0  0  0  0  0  0  0  0  0  0
   -6.6530    1.2870   -1.7470 N   0  0  0  0  0  0  0  0  0  0  0  0
  1  2  2  0
  2  3  1  0
 25  2  1  1
  3  4  1  0
  4  5  2  0
  4 24  1  0
  5  6  1  0
  6  7  2  0
  7  8  1  0
  7 19  1  0
  8  9  2  3
  9 10  1  0
 10 11  2  3
 11 12  1  0
 12 13  1  0
 13 14  2  0
 13 18  1  0
 14 15  1  0
 15 16  2  0
 16 17  1  0
 17 18  2  0
 19 20  2  0
 19 24  1  0
 20 21  1  0
 21 22  2  0
 22 23  1  0
 23 24  2  0
 25 26  1  0
 25 29  1  0
 26 27  1  0
 27 28  1  0
 28 29  1  0
 29 30  1  0
 30 31  2  0
 30 34  1  0
 31 32  1  0
 32 33  1  0
 33 34  2  0
M  END
