
     RDKit          3D

 34 38  0  0  0  0  0  0  0  0999 V2000
   -6.8830    2.5740   -0.8690 C   0  0  0  0  0  0  0  0  0  0  0  0
   -6.6640    2.9780    0.3480 C   0  0  0  0  0  0  0  0  0  0  0  0
   -5.4020    2.6850    1.0470 C   0  0  0  0  0  0  0  0  0  0  0  0
   -4.5600    1.7140    0.3150 C   0  0  2  0  0  0  0  0  0  0  0  0
   -5.2040    0.3670    0.1490 C   0  0  0  0  0  0  0  0  0  0  0  0
   -4.6220   -0.4450   -0.8370 N   0  0  0  0  0  0  0  0  0  0  0  0
   -5.3230   -0.8050   -1.9850 C   0  0  0  0  0  0  0  0  0  0  0  0
   -6.4850   -1.7450   -1.6320 C   0  0  0  0  0  0  0  0  0  0  0  0
   -3.3590   -1.0060   -0.5580 C   0  0  0  0  0  0  0  0  0  0  0  0
   -2.2170   -0.0140   -0.6160 C   0  0  0  0  0  0  0  0  0  0  0  0
   -2.1930    0.7120    0.6320 N   0  0  0  0  0  0  0  0  0  0  0  0
   -1.2050    0.7950    1.5050 C   0  0  0  0  0  0  0  0  0  0  0  0
    0.0410    0.1830    1.6640 N   0  0  0  0  0  0  0  0  0  0  0  0
    0.6080   -0.9710    1.0860 C   0  0  0  0  0  0  0  0  0  0  0  0
   -0.1360   -2.0950    0.8190 C   0  0  0  0  0  0  0  0  0  0  0  0
    0.4520   -3.2480    0.3790 C   0  0  0  0  0  0  0  0  0  0  0  0
    1.8060   -3.3620    0.1790 C   0  0  0  0  0  0  0  0  0  0  0  0
    2.5510   -2.2230    0.4520 C   0  0  0  0  0  0  0  0  0  0  0  0
    1.9960   -1.0470    0.8930 C   0  0  0  0  0  0  0  0  0  0  0  0
    2.8300    0.1000    1.1570 N   0  0  0  0  0  0  0  0  0  0  0  0
    4.1910    0.1190    0.7780 C   0  0  0  0  0  0  0  0  0  0  0  0
    5.1910    0.5720    1.6170 C   0  0  0  0  0  0  0  0  0  0  0  0
    6.5040    0.6350    1.2110 C   0  0  0  0  0  0  0  0  0  0  0  0
    6.8730    0.2460   -0.0570 C   0  0  0  0  0  0  0  0  0  0  0  0
    8.2710    0.3230   -0.4640 C   0  0  0  0  0  0  0  0  0  0  0  0
    8.7590   -0.0400   -1.7110 C   0  0  0  0  0  0  0  0  0  0  0  0
   10.1180    0.1790   -1.6970 C   0  0  0  0  0  0  0  0  0  0  0  0
   10.4200    0.6650   -0.4540 C   0  0  0  0  0  0  0  0  0  0  0  0
    9.3050    0.7270    0.2210 O   0  0  0  0  0  0  0  0  0  0  0  0
    5.8830   -0.2070   -0.8990 C   0  0  0  0  0  0  0  0  0  0  0  0
    4.5490   -0.2700   -0.4850 C   0  0  0  0  0  0  0  0  0  0  0  0
   -1.6810    1.6750    2.4630 N   0  0  0  0  0  0  0  0  0  0  0  0
   -2.8780    2.0700    2.1530 N   0  0  0  0  0  0  0  0  0  0  0  0
   -3.2530    1.5010    1.0150 C   0  0  0  0  0  0  0  0  0  0  0  0
  1  2  2  0
  2  3  1  0
  4  3  1  1
  4  5  1  0
  4 34  1  0
  5  6  1  0
  6  7  1  0
  6  9  1  0
  7  8  1  0
  9 10  1  0
 10 11  1  0
 11 12  1  0
 11 34  1  0
 12 13  1  0
 12 32  2  0
 13 14  1  0
 14 15  2  0
 14 19  1  0
 15 16  1  0
 16 17  2  0
 17 18  1  0
 18 19  2  0
 19 20  1  0
 20 21  1  0
 21 22  2  0
 21 31  1  0
 22 23  1  0
 23 24  2  0
 24 25  1  0
 24 30  1  0
 25 26  2  0
 25 29  1  0
 26 27  1  0
 27 28  2  0
 28 29  1  0
 30 31  2  0
 32 33  1  0
 33 34  2  0
M  END
