
     RDKit          3D

 39 42  0  0  0  0  0  0  0  0999 V2000
   -3.6920   -4.6880   -0.4270 C   0  0  0  0  0  0  0  0  0  0  0  0
   -2.2150   -4.3790   -0.7030 C   0  0  0  0  0  0  0  0  0  0  0  0
   -2.0420   -3.6140   -1.9240 C   0  0  0  0  0  0  0  0  0  0  0  0
   -1.5090   -2.4360   -2.0520 C   0  0  0  0  0  0  0  0  0  0  0  0
   -0.9430   -1.5760   -0.9790 C   0  0  0  0  0  0  0  0  0  0  0  0
   -1.6790   -0.2950   -0.9240 N   0  0  0  0  0  0  0  0  0  0  0  0
   -3.0010   -0.5280   -0.4570 C   0  0  0  0  0  0  0  0  0  0  0  0
   -3.9460    0.5810   -0.6970 C   0  0  0  0  0  0  0  0  0  0  0  0
   -5.1320    0.4500   -0.2220 O   0  0  0  0  0  0  0  0  0  0  0  0
   -3.7090    1.7690   -1.3910 N   0  0  0  0  0  0  0  0  0  0  0  0
   -4.6560    2.8220   -1.5910 C   0  0  0  0  0  0  0  0  0  0  0  0
   -5.8890    2.9360   -1.2160 C   0  0  0  0  0  0  0  0  0  0  0  0
   -6.4930    4.2260   -1.6570 C   0  0  0  0  0  0  0  0  0  0  0  0
   -5.3710    4.8630   -2.3700 C   0  0  0  0  0  0  0  0  0  0  0  0
   -4.3300    4.0600   -2.3300 C   0  0  0  0  0  0  0  0  0  0  0  0
   -3.1240    4.3640   -2.9050 F   0  0  0  0  0  0  0  0  0  0  0  0
   -0.9050    0.6280   -0.1030 C   0  0  0  0  0  0  0  0  0  0  0  0
   -0.6330    0.1650    1.2610 C   0  0  0  0  0  0  0  0  0  0  0  0
   -1.1940   -0.8320    1.9460 N   0  0  0  0  0  0  0  0  0  0  0  0
   -0.6500   -0.9230    3.1730 C   0  0  0  0  0  0  0  0  0  0  0  0
    0.2890    0.0880    3.2060 C   0  0  0  0  0  0  0  0  0  0  0  0
    0.3150    0.7640    2.0470 N   0  0  0  0  0  0  0  0  0  0  0  0
    1.1420    1.8630    1.7000 C   0  0  0  0  0  0  0  0  0  0  0  0
    0.6860    3.1680    1.7500 C   0  0  0  0  0  0  0  0  0  0  0  0
    1.5100    4.2040    1.4050 C   0  0  0  0  0  0  0  0  0  0  0  0
    1.0370    5.4730    1.4640 F   0  0  0  0  0  0  0  0  0  0  0  0
    2.7890    3.9030    1.0120 C   0  0  0  0  0  0  0  0  0  0  0  0
    3.2010    2.6300    0.9740 N   0  0  0  0  0  0  0  0  0  0  0  0
    2.4590    1.5690    1.2940 C   0  0  0  0  0  0  0  0  0  0  0  0
    2.8520    0.2190    1.2720 N   0  0  0  0  0  0  0  0  0  0  0  0
    4.1360   -0.2270    0.8850 C   0  0  0  0  0  0  0  0  0  0  0  0
    5.1610    0.5820    0.4600 C   0  0  0  0  0  0  0  0  0  0  0  0
    6.4120    0.0560    0.0870 C   0  0  0  0  0  0  0  0  0  0  0  0
    7.4000    0.9140   -0.3300 F   0  0  0  0  0  0  0  0  0  0  0  0
    6.6790   -1.2870    0.1250 C   0  0  0  0  0  0  0  0  0  0  0  0
    8.0080   -1.8060   -0.2760 C   0  0  0  0  0  0  0  0  0  0  0  0
    5.6560   -2.1060    0.5500 C   0  0  0  0  0  0  0  0  0  0  0  0
    4.4340   -1.5990    0.9150 C   0  0  0  0  0  0  0  0  0  0  0  0
    3.3510   -2.5350    1.3730 C   0  0  0  0  0  0  0  0  0  0  0  0
  1  2  1  0
  2  3  1  0
  3  4  2  3
  4  5  1  0
  5  6  1  0
  6  7  1  0
  6 17  1  0
  7  8  1  0
  8  9  2  0
  8 10  1  0
 10 11  1  0
 11 12  2  0
 11 15  1  0
 12 13  1  0
 13 14  1  0
 14 15  2  0
 15 16  1  0
 17 18  1  0
 18 19  2  0
 18 22  1  0
 19 20  1  0
 20 21  2  0
 21 22  1  0
 22 23  1  0
 23 24  2  0
 23 29  1  0
 24 25  1  0
 25 26  1  0
 25 27  2  0
 27 28  1  0
 28 29  2  0
 29 30  1  0
 30 31  1  0
 31 32  2  0
 31 38  1  0
 32 33  1  0
 33 34  1  0
 33 35  2  0
 35 36  1  0
 35 37  1  0
 37 38  2  0
 38 39  1  0
M  END
