
     RDKit          3D

 12 12  0  0  0  0  0  0  0  0999 V2000
   -4.3310   -0.2900   -0.5050 N   0  0  0  0  0  0  0  0  0  0  0  0
   -3.0040   -0.4330   -0.0250 C   0  0  0  0  0  0  0  0  0  0  0  0
   -2.5940   -1.5630    0.4080 O   0  0  0  0  0  0  0  0  0  0  0  0
   -2.0410    0.6100    0.0240 N   0  0  0  0  0  0  0  0  0  0  0  0
   -0.7430    0.4190    0.5080 N   0  0  0  0  0  0  0  0  0  0  0  0
    0.3480    0.5010   -0.3920 C   0  0  0  0  0  0  0  0  0  0  0  0
    0.0990    0.7430   -1.5960 O   0  0  0  0  0  0  0  0  0  0  0  0
    1.7380    0.3000    0.1050 C   0  0  0  0  0  0  0  0  0  0  0  0
    2.0510    0.0580    1.2910 N   0  0  0  0  0  0  0  0  0  0  0  0
    3.7290   -0.1420    1.6530 S   0  0  0  0  0  0  0  0  0  0  0  0
    4.4340   -0.4100   -0.0240 C   0  0  0  0  0  0  0  0  0  0  0  0
    3.1280    0.3960   -0.9960 S   0  0  0  0  0  0  0  0  0  0  0  0
  1  2  1  0
  2  3  2  0
  2  4  1  0
  4  5  1  0
  5  6  1  0
  6  7  2  0
  6  8  1  0
  8  9  2  0
  8 12  1  0
  9 10  1  0
 10 11  1  0
 11 12  1  0
M  END
