
     RDKit          3D

 13 13  0  0  0  0  0  0  0  0999 V2000
   -4.2930    1.2050    0.6630 N   0  0  0  0  0  0  0  0  0  0  0  0
   -3.2300    0.7110    0.1760 C   0  0  0  0  0  0  0  0  0  0  0  0
   -1.6980    1.5670   -0.2840 S   0  0  0  0  0  0  0  0  0  0  0  0
   -0.5780    0.1710   -0.3250 C   0  0  0  0  0  0  0  0  0  0  0  0
    0.8570    0.2850   -0.3850 N   0  0  0  0  0  0  0  0  0  0  0  0
    1.7110   -0.8760   -0.1660 C   0  0  0  0  0  0  0  0  0  0  0  0
    3.1380   -0.5340   -0.2730 C   0  0  0  0  0  0  0  0  0  0  0  0
    3.5770    0.7860   -0.5570 N   0  0  0  0  0  0  0  0  0  0  0  0
    4.0030   -1.4290   -0.1090 O   0  0  0  0  0  0  0  0  0  0  0  0
   -1.1590   -0.9440   -0.2970 N   0  0  0  0  0  0  0  0  0  0  0  0
   -2.8430   -0.9480   -0.2280 S   0  0  1  0  0  0  0  0  0  0  0  0
   -3.3080   -1.9040    0.8270 O   0  0  0  0  0  0  0  0  0  0  0  0
   -3.4990   -1.2500   -1.5450 O   0  0  0  0  0  0  0  0  0  0  0  0
  1  2  2  0
  2  3  1  0
  2 11  1  0
  3  4  1  0
  4  5  1  0
  4 10  2  0
  5  6  1  0
  6  7  1  0
  7  8  1  0
  7  9  2  0
 11 10  1  6
 11 12  2  0
 11 13  2  0
M  END
