
     RDKit          3D

 12 12  0  0  0  0  0  0  0  0999 V2000
    3.7630    0.7560    0.3820 O   0  0  0  0  0  0  0  0  0  0  0  0
    2.5640    0.4630    0.1710 C   0  0  0  0  0  0  0  0  0  0  0  0
    1.8090    1.2920   -0.5750 N   0  0  0  0  0  0  0  0  0  0  0  0
    0.5210    0.9980   -0.8150 C   0  0  0  0  0  0  0  0  0  0  0  0
   -0.2250    1.7570   -1.5170 O   0  0  0  0  0  0  0  0  0  0  0  0
    0.0050   -0.1350   -0.2960 N   0  0  0  0  0  0  0  0  0  0  0  0
   -1.3530   -0.5070   -0.5120 C   0  0  0  0  0  0  0  0  0  0  0  0
   -2.2630   -0.0030    0.4860 N   0  0  0  0  0  0  0  0  0  0  0  0
   -3.5280   -0.3480    0.2860 O   0  0  0  0  0  0  0  0  0  0  0  0
    0.7860   -0.9520    0.4510 C   0  0  0  0  0  0  0  0  0  0  0  0
    0.1950   -2.3370    1.0980 S   0  0  0  0  0  0  0  0  0  0  0  0
    2.0790   -0.6740    0.7030 N   0  0  0  0  0  0  0  0  0  0  0  0
  1  2  2  0
  2  3  1  0
  2 12  1  0
  3  4  1  0
  4  5  2  0
  4  6  1  0
  6  7  1  0
  6 10  1  0
  7  8  1  0
  8  9  1  0
 10 11  2  0
 10 12  1  0
M  END
