
     RDKit          3D

 12 12  0  0  0  0  0  0  0  0999 V2000
   -4.5900    0.2490   -0.1030 O   0  0  0  0  0  0  0  0  0  0  0  0
   -3.3170    0.1460   -0.1320 C   0  0  0  0  0  0  0  0  0  0  0  0
   -2.4830    1.1940   -0.2150 N   0  0  0  0  0  0  0  0  0  0  0  0
   -1.2640    0.7010   -0.2210 N   0  0  0  0  0  0  0  0  0  0  0  0
   -1.2810   -0.6480   -0.1430 C   0  0  0  0  0  0  0  0  0  0  0  0
   -0.1550   -1.5110   -0.1260 N   0  0  0  0  0  0  0  0  0  0  0  0
    1.1380   -0.9470   -0.1950 C   0  0  0  0  0  0  0  0  0  0  0  0
    2.4110   -1.9940   -0.1710 S   0  0  0  0  0  0  0  0  0  0  0  0
    1.3600    0.8190   -0.3020 S   0  0  0  0  0  0  0  0  0  0  0  0
    3.1610    1.1260   -0.3740 C   0  0  0  0  0  0  0  0  0  0  0  0
    3.7030    0.7390    0.8490 O   0  0  0  0  0  0  0  0  0  0  0  0
   -2.5930   -0.9790   -0.0880 N   0  0  0  0  0  0  0  0  0  0  0  0
  1  2  2  0
  2  3  1  0
  2 12  1  0
  3  4  1  0
  4  5  2  0
  5  6  1  0
  5 12  1  0
  6  7  1  0
  7  8  2  0
  7  9  1  0
  9 10  1  0
 10 11  1  0
M  END
