
     RDKit          3D

 12 12  0  0  0  0  0  0  0  0999 V2000
    3.6210   -0.6480   -0.1900 N   0  0  0  0  0  0  0  0  0  0  0  0
    2.2720   -0.2680    0.2550 C   0  0  1  0  0  0  0  0  0  0  0  0
    2.1210    1.5380    0.2870 S   0  0  0  0  0  0  0  0  0  0  0  0
    1.1410   -0.9480   -1.0070 S   0  0  0  0  0  0  0  0  0  0  0  0
   -0.5320   -0.5220   -0.5260 C   0  0  0  0  0  0  0  0  0  0  0  0
   -1.2690   -1.3330    0.2700 N   0  0  0  0  0  0  0  0  0  0  0  0
   -2.5020   -0.9820    0.6030 N   0  0  0  0  0  0  0  0  0  0  0  0
   -3.0210    0.1820    0.1490 C   0  0  0  0  0  0  0  0  0  0  0  0
   -4.1970    0.5560    0.4430 O   0  0  0  0  0  0  0  0  0  0  0  0
   -2.3090    1.0020   -0.6420 N   0  0  0  0  0  0  0  0  0  0  0  0
   -1.0580    0.6510   -0.9820 C   0  0  0  0  0  0  0  0  0  0  0  0
   -0.3510    1.4050   -1.7310 O   0  0  0  0  0  0  0  0  0  0  0  0
  2  1  1  6
  2  3  1  0
  2  4  1  0
  4  5  1  0
  5  6  2  0
  5 11  1  0
  6  7  1  0
  7  8  1  0
  8  9  2  0
  8 10  1  0
 10 11  1  0
 11 12  2  0
M  END
