
     RDKit          3D

 13 13  0  0  0  0  0  0  0  0999 V2000
   -0.5670   -0.8380    0.6540 O   0  0  0  0  0  0  0  0  0  0  0  0
   -0.5730    0.2490    0.0570 C   0  0  0  0  0  0  0  0  0  0  0  0
    0.6000    0.6890   -0.6010 N   0  0  0  0  0  0  0  0  0  0  0  0
    1.8210   -0.0370   -0.6360 C   0  0  0  0  0  0  0  0  0  0  0  0
    2.9360    0.3760   -1.2590 N   0  0  0  0  0  0  0  0  0  0  0  0
    3.8970   -0.5250   -1.1040 N   0  0  0  0  0  0  0  0  0  0  0  0
    3.4170   -1.5410   -0.3750 C   0  0  0  0  0  0  0  0  0  0  0  0
    4.0930   -2.5530   -0.0580 O   0  0  0  0  0  0  0  0  0  0  0  0
    2.1370   -1.2190   -0.0970 N   0  0  0  0  0  0  0  0  0  0  0  0
   -1.7540    0.9780    0.0760 O   0  0  0  0  0  0  0  0  0  0  0  0
   -2.9200    0.5630    0.7190 C   0  0  1  0  0  0  0  0  0  0  0  0
   -3.5180    1.7240    1.9550 S   0  0  0  0  0  0  0  0  0  0  0  0
   -4.1960    0.3260   -0.5710 S   0  0  0  0  0  0  0  0  0  0  0  0
  1  2  2  0
  2  3  1  0
  2 10  1  0
  3  4  1  0
  4  5  2  0
  4  9  1  0
  5  6  1  0
  6  7  1  0
  7  8  2  0
  7  9  1  0
 10 11  1  0
 11 12  1  1
 11 13  1  0
M  END
