
     RDKit          3D

 47 52  0  0  0  0  0  0  0  0999 V2000
    5.1080   -2.9680    1.0580 C   0  0  0  0  0  0  0  0  0  0  0  0
    4.8020   -3.2410   -0.3600 C   0  0  2  0  0  0  0  0  0  0  0  0
    5.6910   -4.4170   -0.8300 C   0  0  0  0  0  0  0  0  0  0  0  0
    4.8860   -2.1600   -1.3600 C   0  0  0  0  0  0  0  0  0  0  0  0
    4.0380   -0.9790   -1.1790 C   0  0  0  0  0  0  0  0  0  0  0  0
    2.6860   -1.1480   -1.5530 C   0  0  0  0  0  0  0  0  0  0  0  0
    1.7520   -0.1600   -1.3900 C   0  0  0  0  0  0  0  0  0  0  0  0
    2.0920    1.0630   -0.8470 C   0  0  0  0  0  0  0  0  0  0  0  0
    1.1250    2.0330   -0.7600 C   0  0  0  0  0  0  0  0  0  0  0  0
   -0.2570    1.7730   -1.0810 C   0  0  0  0  0  0  0  0  0  0  0  0
   -0.5860    2.0140   -2.2970 O   0  0  0  0  0  0  0  0  0  0  0  0
   -1.2480    1.2880   -0.1660 N   0  0  0  0  0  0  0  0  0  0  0  0
   -2.6000    1.0380   -0.5560 C   0  0  2  0  0  0  0  0  0  0  0  0
   -3.3710    2.3580   -0.3730 C   0  0  1  0  0  0  0  0  0  0  0  0
   -2.7030    3.5300   -0.9520 C   0  0  0  0  0  0  0  0  0  0  0  0
   -4.7110    2.0230   -1.0890 C   0  0  0  0  0  0  0  0  0  0  0  0
   -5.4140    1.2600    0.0070 C   0  0  0  0  0  0  0  0  0  0  0  0
   -6.5970    1.2020    0.5450 C   0  0  0  0  0  0  0  0  0  0  0  0
   -7.8290    1.9520    0.1950 C   0  0  0  0  0  0  0  0  0  0  0  0
   -7.8650    2.7160   -0.7960 O   0  0  0  0  0  0  0  0  0  0  0  0
   -8.9690    1.7320    1.0780 C   0  0  0  0  0  0  0  0  0  0  0  0
   -8.9140    0.9220    2.1190 C   0  0  0  0  0  0  0  0  0  0  0  0
   -7.6810    0.1770    2.4700 C   0  0  0  0  0  0  0  0  0  0  0  0
   -6.6050    0.3290    1.7170 C   0  0  0  0  0  0  0  0  0  0  0  0
   -5.1600   -0.0660    1.8500 C   0  0  0  0  0  0  0  0  0  0  0  0
   -4.7040   -0.3840    3.0100 O   0  0  0  0  0  0  0  0  0  0  0  0
   -4.6760    0.0410    0.5200 C   0  0  2  0  0  0  0  0  0  0  0  0
   -3.3000   -0.1370    0.0530 C   0  0  1  0  0  0  0  0  0  0  0  0
   -3.3800   -1.1910   -1.0820 C   0  0  1  0  0  0  0  0  0  0  0  0
   -2.5590   -0.9290   -2.2720 C   0  0  0  0  0  0  0  0  0  0  0  0
   -3.1250   -2.5920   -0.5990 C   0  0  0  0  0  0  0  0  0  0  0  0
   -1.7820   -2.8180    0.0160 C   0  0  0  0  0  0  0  0  0  0  0  0
   -1.2790   -1.5360    0.6510 C   0  0  0  0  0  0  0  0  0  0  0  0
   -2.4950   -0.7880    1.1680 C   0  0  2  0  0  0  0  0  0  0  0  0
   -3.2630   -1.8440    1.7360 O   0  0  0  0  0  0  0  0  0  0  0  0
    1.5240    3.2580   -0.2790 C   0  0  0  0  0  0  0  0  0  0  0  0
    2.8500    3.4800    0.0970 C   0  0  0  0  0  0  0  0  0  0  0  0
    3.2470    4.5870    0.5380 O   0  0  0  0  0  0  0  0  0  0  0  0
    3.7370    2.4590   -0.0210 N   0  0  0  0  0  0  0  0  0  0  0  0
    3.4190    1.2360   -0.4810 C   0  0  0  0  0  0  0  0  0  0  0  0
    4.3830    0.2320   -0.6410 C   0  0  0  0  0  0  0  0  0  0  0  0
    5.7700    0.5220   -0.3340 C   0  0  0  0  0  0  0  0  0  0  0  0
    6.4350    1.1180   -1.2990 O   0  0  0  0  0  0  0  0  0  0  0  0
    6.5500    0.2610    0.8540 C   0  0  1  0  0  0  0  0  0  0  0  0
    8.0150    0.8120    0.6340 C   0  0  0  0  0  0  0  0  0  0  0  0
    6.1450    0.8540    2.1550 C   0  0  0  0  0  0  0  0  0  0  0  0
    6.1370    2.2210    2.2360 O   0  0  0  0  0  0  0  0  0  0  0  0
  2  1  1  1
  2  3  1  0
  2  4  1  0
  4  5  1  0
  5  6  2  0
  5 41  1  0
  6  7  1  0
  7  8  2  0
  8  9  1  0
  8 40  1  0
  9 10  1  0
  9 36  2  0
 10 11  2  0
 10 12  1  0
 13 12  1  1
 13 14  1  0
 13 28  1  0
 14 15  1  6
 14 16  1  0
 16 17  1  0
 17 18  2  0
 17 27  1  0
 18 19  1  0
 18 24  1  0
 19 20  2  0
 19 21  1  0
 21 22  2  0
 22 23  1  0
 23 24  2  0
 24 25  1  0
 25 26  2  0
 27 25  1  1
 27 28  1  0
 28 29  1  6
 28 34  1  0
 29 30  1  6
 29 31  1  0
 31 32  1  0
 32 33  1  0
 33 34  1  0
 34 35  1  6
 36 37  1  0
 37 38  2  0
 37 39  1  0
 39 40  1  0
 40 41  2  0
 41 42  1  0
 42 43  2  0
 42 44  1  0
 44 45  1  6
 44 46  1  0
 46 47  1  0
M  END
