
     RDKit          3D

 47 51  0  0  0  0  0  0  0  0999 V2000
   -7.4850   -2.1080    1.4660 C   0  0  0  0  0  0  0  0  0  0  0  0
   -7.1490   -0.9350    0.7790 O   0  0  0  0  0  0  0  0  0  0  0  0
   -7.9830   -0.2310   -0.0620 C   0  0  0  0  0  0  0  0  0  0  0  0
   -9.1620   -0.6970   -0.2320 O   0  0  0  0  0  0  0  0  0  0  0  0
   -7.5760    0.9960   -0.7420 C   0  0  0  0  0  0  0  0  0  0  0  0
   -8.4450    1.6870   -1.5520 C   0  0  0  0  0  0  0  0  0  0  0  0
   -8.0900    2.8820   -2.1730 C   0  0  0  0  0  0  0  0  0  0  0  0
   -6.8120    3.3450   -1.9330 C   0  0  0  0  0  0  0  0  0  0  0  0
   -5.9350    2.6560   -1.1220 C   0  0  0  0  0  0  0  0  0  0  0  0
   -6.2990    1.4670   -0.5100 C   0  0  0  0  0  0  0  0  0  0  0  0
   -5.3920    0.6840    0.3040 C   0  0  0  0  0  0  0  0  0  0  0  0
   -4.6590   -0.3210   -0.3030 C   0  0  0  0  0  0  0  0  0  0  0  0
   -3.7520   -1.1030    0.3870 C   0  0  0  0  0  0  0  0  0  0  0  0
   -2.9400   -2.1510   -0.2540 C   0  0  0  0  0  0  0  0  0  0  0  0
   -1.5380   -1.6380   -0.6420 C   0  0  1  0  0  0  0  0  0  0  0  0
   -1.6550   -0.4920   -1.5780 C   0  0  0  0  0  0  0  0  0  0  0  0
   -0.2270    0.0930   -1.7030 C   0  0  0  0  0  0  0  0  0  0  0  0
    0.1000    0.5560   -0.3430 C   0  0  1  0  0  0  0  0  0  0  0  0
   -0.0800   -0.4240    0.7520 C   0  0  1  0  0  0  0  0  0  0  0  0
   -0.8170   -1.5150    0.4800 O   0  0  0  0  0  0  0  0  0  0  0  0
    1.4570   -0.5930    0.7780 C   0  0  1  0  0  0  0  0  0  0  0  0
    1.9550   -0.7000    2.1960 C   0  0  0  0  0  0  0  0  0  0  0  0
    1.7740   -1.8630    0.1050 C   0  0  0  0  0  0  0  0  0  0  0  0
    2.5660   -1.9260   -0.9890 C   0  0  0  0  0  0  0  0  0  0  0  0
    2.8490   -3.1670   -1.5780 C   0  0  0  0  0  0  0  0  0  0  0  0
    2.3140   -4.3200   -1.0390 C   0  0  0  0  0  0  0  0  0  0  0  0
    1.5060   -4.2660    0.0750 C   0  0  0  0  0  0  0  0  0  0  0  0
    1.2350   -3.0410    0.6470 C   0  0  0  0  0  0  0  0  0  0  0  0
    1.6050    0.6340    0.0360 C   0  0  2  0  0  0  0  0  0  0  0  0
    1.7730    1.9330    0.6090 N   0  0  0  0  0  0  0  0  0  0  0  0
    1.1370    2.3200    1.8760 C   0  0  0  0  0  0  0  0  0  0  0  0
    2.5230    2.9090   -0.0230 C   0  0  0  0  0  0  0  0  0  0  0  0
    2.5080    4.1060    0.5050 O   0  0  0  0  0  0  0  0  0  0  0  0
    3.3370    2.8020   -1.2090 C   0  0  0  0  0  0  0  0  0  0  0  0
    3.9900    1.6160   -1.5260 O   0  0  0  0  0  0  0  0  0  0  0  0
    5.0220    1.1180   -0.7200 C   0  0  0  0  0  0  0  0  0  0  0  0
    5.2660    1.8340    0.3120 O   0  0  0  0  0  0  0  0  0  0  0  0
    5.7750   -0.1010   -1.0180 C   0  0  0  0  0  0  0  0  0  0  0  0
    7.0000   -0.2370   -0.1000 C   0  0  1  0  0  0  0  0  0  0  0  0
    7.6540   -1.5550   -0.5400 C   0  0  0  0  0  0  0  0  0  0  0  0
    7.9270    0.8960   -0.4410 C   0  0  0  0  0  0  0  0  0  0  0  0
    9.2050    0.8560    0.4130 C   0  0  0  0  0  0  0  0  0  0  0  0
    8.8880    0.9410    1.7460 O   0  0  0  0  0  0  0  0  0  0  0  0
   -3.5840   -0.8520    1.7480 C   0  0  0  0  0  0  0  0  0  0  0  0
   -4.3170    0.1500    2.3380 C   0  0  0  0  0  0  0  0  0  0  0  0
   -5.2280    0.9390    1.6580 C   0  0  0  0  0  0  0  0  0  0  0  0
   -5.9710    1.9560    2.3110 N   0  0  0  0  0  0  0  0  0  0  0  0
  1  2  1  0
  2  3  1  0
  3  4  2  0
  3  5  1  0
  5  6  2  0
  5 10  1  0
  6  7  1  0
  7  8  2  0
  8  9  1  0
  9 10  2  0
 10 11  1  0
 11 12  2  0
 11 46  1  0
 12 13  1  0
 13 14  1  0
 13 44  2  0
 15 14  1  1
 15 16  1  0
 15 20  1  0
 16 17  1  0
 18 17  1  6
 18 19  1  0
 18 29  1  0
 19 20  1  6
 19 21  1  0
 21 22  1  1
 21 23  1  0
 21 29  1  0
 23 24  2  0
 23 28  1  0
 24 25  1  0
 25 26  2  0
 26 27  1  0
 27 28  2  0
 29 30  1  1
 30 31  1  0
 30 32  1  0
 32 33  2  0
 32 34  1  0
 34 35  1  0
 35 36  1  0
 36 37  2  0
 36 38  1  0
 38 39  1  0
 39 40  1  6
 39 41  1  0
 41 42  1  0
 42 43  1  0
 44 45  1  0
 45 46  2  0
 46 47  1  0
M  END
