
     RDKit          3D

 16 16  0  0  0  0  0  0  0  0999 V2000
    1.3180   -2.0860   -0.5980 C   0  0  0  0  0  0  0  0  0  0  0  0
    0.5640   -0.9620    0.0840 C   0  0  1  0  0  0  0  0  0  0  0  0
    0.5080   -1.2520    1.4420 O   0  0  0  0  0  0  0  0  0  0  0  0
    1.2070    0.2180   -0.1940 O   0  0  0  0  0  0  0  0  0  0  0  0
    2.5130    0.2720    0.2240 C   0  0  1  0  0  0  0  0  0  0  0  0
    3.4250    0.5150   -0.7930 O   0  0  0  0  0  0  0  0  0  0  0  0
    2.6110    1.4010    1.2580 C   0  0  0  0  0  0  0  0  0  0  0  0
    3.9090    1.5250    1.7360 O   0  0  0  0  0  0  0  0  0  0  0  0
   -0.8180   -0.8990   -0.5300 C   0  0  1  0  0  0  0  0  0  0  0  0
   -1.4030   -2.1500   -0.3400 O   0  0  0  0  0  0  0  0  0  0  0  0
   -1.6960    0.1150    0.1500 C   0  0  1  0  0  0  0  0  0  0  0  0
   -1.1330    1.5170    0.0780 C   0  0  0  0  0  0  0  0  0  0  0  0
   -2.2770    2.3290    0.1470 O   0  0  0  0  0  0  0  0  0  0  0  0
   -3.2270    1.7430   -0.6760 C   0  0  0  0  0  0  0  0  0  0  0  0
   -2.9590    0.2610   -0.6910 C   0  0  2  0  0  0  0  0  0  0  0  0
   -4.0020   -0.4880   -0.1700 O   0  0  0  0  0  0  0  0  0  0  0  0
  2  1  1  6
  2  3  1  0
  2  4  1  0
  2  9  1  0
  4  5  1  0
  5  6  1  6
  5  7  1  0
  7  8  1  0
  9 10  1  1
  9 11  1  0
 11 12  1  6
 11 15  1  0
 12 13  1  0
 13 14  1  0
 14 15  1  0
 15 16  1  1
M  END
