
     RDKit          3D

  6  5  0  0  0  0  0  0  0  0999 V2000
    2.1210    0.1750   -0.5090 C   0  0  0  0  0  0  0  0  0  0  0  0
    0.7360    0.2660   -0.4770 O   0  0  0  0  0  0  0  0  0  0  0  0
    0.2910   -0.3400    0.6940 C   0  0  0  0  0  0  0  0  0  0  0  0
   -1.1840   -0.2980    0.8280 C   0  0  0  0  0  0  0  0  0  0  0  0
   -2.0840    0.3240   -0.1810 C   0  0  0  0  0  0  0  0  0  0  0  0
   -1.6440   -0.8140    1.8350 O   0  0  0  0  0  0  0  0  0  0  0  0
  1  2  1  0
  2  3  1  0
  3  4  1  0
  4  5  1  0
  4  6  2  0
M  END
