
     RDKit          3D

  6  6  0  0  0  0  0  0  0  0999 V2000
    2.0280   -0.1260    0.1160 C   0  0  0  0  0  0  0  0  0  0  0  0
    0.5970    0.0690   -0.2550 C   0  0  1  0  0  0  0  0  0  0  0  0
   -0.1200   -1.0940   -0.4120 O   0  0  0  0  0  0  0  0  0  0  0  0
   -1.4490   -0.7550   -0.0930 C   0  0  0  0  0  0  0  0  0  0  0  0
   -1.3790    0.7430    0.2080 C   0  0  0  0  0  0  0  0  0  0  0  0
   -0.0740    0.8040    0.7510 O   0  0  0  0  0  0  0  0  0  0  0  0
  2  1  1  1
  2  3  1  0
  2  6  1  0
  3  4  1  0
  4  5  1  0
  5  6  1  0
M  END
