
     RDKit          3D

 10 10  0  0  0  0  0  0  0  0999 V2000
    2.8670   -0.4310    0.3550 C   0  0  0  0  0  0  0  0  0  0  0  0
    1.8090    0.9640   -0.2010 S   0  0  0  0  0  0  0  0  0  0  0  0
    0.1450    0.3270   -0.3360 C   0  0  1  0  0  0  0  0  0  0  0  0
   -0.4110   -0.0480    0.9270 O   0  0  0  0  0  0  0  0  0  0  0  0
   -1.7230   -0.5220    0.8870 C   0  0  0  0  0  0  0  0  0  0  0  0
   -2.1780   -1.3450    1.7430 O   0  0  0  0  0  0  0  0  0  0  0  0
   -2.6320   -0.0960   -0.1340 N   0  0  0  0  0  0  0  0  0  0  0  0
   -2.1330    0.8010   -1.0630 O   0  0  0  0  0  0  0  0  0  0  0  0
   -0.8150    1.2380   -0.9710 C   0  0  0  0  0  0  0  0  0  0  0  0
   -0.4750    2.3650   -1.4170 O   0  0  0  0  0  0  0  0  0  0  0  0
  1  2  1  0
  3  2  1  1
  3  4  1  0
  3  9  1  0
  4  5  1  0
  5  6  2  0
  5  7  1  0
  7  8  1  0
  8  9  1  0
  9 10  2  0
M  END
