
     RDKit          3D

 10 10  0  0  0  0  0  0  0  0999 V2000
    3.1450    0.4460   -0.4350 C   0  0  0  0  0  0  0  0  0  0  0  0
    1.8940    0.4460   -1.0570 O   0  0  0  0  0  0  0  0  0  0  0  0
    0.9170   -0.5450   -0.0770 S   0  0  2  0  0  0  0  0  0  0  0  0
    1.2750   -0.1920    1.3400 O   0  0  0  0  0  0  0  0  0  0  0  0
    1.2220   -1.9570   -0.4090 O   0  0  0  0  0  0  0  0  0  0  0  0
   -0.7700   -0.2260   -0.4050 C   0  0  0  0  0  0  0  0  0  0  0  0
   -1.4590   -0.8750   -1.3290 C   0  0  0  0  0  0  0  0  0  0  0  0
   -2.7430   -0.3860   -1.3290 O   0  0  0  0  0  0  0  0  0  0  0  0
   -2.9580    0.4040   -0.1720 C   0  0  0  0  0  0  0  0  0  0  0  0
   -1.6140    0.7300    0.2360 N   0  0  0  0  0  0  0  0  0  0  0  0
  1  2  1  0
  3  2  1  6
  3  4  2  0
  3  5  2  0
  3  6  1  0
  6  7  2  0
  6 10  1  0
  7  8  1  0
  8  9  1  0
  9 10  1  0
M  END
