
     RDKit          3D

 18 20  0  0  0  0  0  0  0  0999 V2000
    5.5450    0.0100    0.2180 O   0  0  0  0  0  0  0  0  0  0  0  0
    4.2940    0.1680    0.1990 C   0  0  0  0  0  0  0  0  0  0  0  0
    3.8200    1.4140    0.4270 N   0  0  0  0  0  0  0  0  0  0  0  0
    2.4900    1.5760    0.4050 C   0  0  0  0  0  0  0  0  0  0  0  0
    2.0420    2.7310    0.6160 O   0  0  0  0  0  0  0  0  0  0  0  0
    1.6000    0.5550    0.1670 C   0  0  0  0  0  0  0  0  0  0  0  0
    0.2300    0.7220    0.1450 C   0  0  0  0  0  0  0  0  0  0  0  0
   -0.6600   -0.3010   -0.0930 C   0  0  0  0  0  0  0  0  0  0  0  0
   -2.1010   -0.0790   -0.1070 C   0  0  0  0  0  0  0  0  0  0  0  0
   -2.9840   -1.0780    0.2930 C   0  0  0  0  0  0  0  0  0  0  0  0
   -4.3550   -0.8880    0.2860 C   0  0  0  0  0  0  0  0  0  0  0  0
   -4.8900    0.2730   -0.1080 N   0  0  0  0  0  0  0  0  0  0  0  0
   -4.0520    1.2690   -0.5050 C   0  0  0  0  0  0  0  0  0  0  0  0
   -2.6860    1.1040   -0.5070 C   0  0  0  0  0  0  0  0  0  0  0  0
   -0.1130   -1.5530   -0.3190 C   0  0  0  0  0  0  0  0  0  0  0  0
    1.2690   -1.7580   -0.3040 C   0  0  0  0  0  0  0  0  0  0  0  0
    2.1290   -0.7090   -0.0630 C   0  0  0  0  0  0  0  0  0  0  0  0
    3.4510   -0.8720   -0.0420 N   0  0  0  0  0  0  0  0  0  0  0  0
  1  2  2  0
  2  3  1  0
  2 18  1  0
  3  4  1  0
  4  5  2  0
  4  6  1  0
  6  7  2  0
  6 17  1  0
  7  8  1  0
  8  9  1  0
  8 15  2  0
  9 10  2  0
  9 14  1  0
 10 11  1  0
 11 12  2  0
 12 13  1  0
 13 14  2  0
 15 16  1  0
 16 17  2  0
 17 18  1  0
M  END
