
     RDKit          3D

 10 10  0  0  0  0  0  0  0  0999 V2000
    3.8490    1.2070   -0.0780 O   0  0  0  0  0  0  0  0  0  0  0  0
    3.3930   -0.1980    0.2080 S   0  0  0  0  0  0  0  0  0  0  0  0
    1.7000   -0.3290    0.5410 N   0  0  0  0  0  0  0  0  0  0  0  0
    0.7300    0.6060    0.1620 C   0  0  0  0  0  0  0  0  0  0  0  0
   -0.5530    0.2960    0.1120 C   0  0  0  0  0  0  0  0  0  0  0  0
   -1.1460   -0.9380    0.4070 O   0  0  0  0  0  0  0  0  0  0  0  0
   -2.4740   -0.9460   -0.0880 C   0  0  0  0  0  0  0  0  0  0  0  0
   -2.8360    0.4060   -0.1710 O   0  0  0  0  0  0  0  0  0  0  0  0
   -1.6710    1.1550   -0.2610 C   0  0  0  0  0  0  0  0  0  0  0  0
   -1.5680    2.3720   -0.6050 O   0  0  0  0  0  0  0  0  0  0  0  0
  1  2  2  0
  2  3  1  0
  3  4  1  0
  4  5  2  3
  5  6  1  0
  5  9  1  0
  6  7  1  0
  7  8  1  0
  8  9  1  0
  9 10  2  0
M  END
