
     RDKit          3D

 10 10  0  0  0  0  0  0  0  0999 V2000
   -2.5300   -1.3030   -0.0530 O   0  0  0  0  0  0  0  0  0  0  0  0
   -1.3900   -0.7270   -0.0940 C   0  0  0  0  0  0  0  0  0  0  0  0
   -1.4570    0.6980    0.2080 C   0  0  0  0  0  0  0  0  0  0  0  0
   -0.4010    1.4620   -0.2830 O   0  0  0  0  0  0  0  0  0  0  0  0
    0.9670    1.1970   -0.1170 C   0  0  0  0  0  0  0  0  0  0  0  0
    1.7450    2.1870   -0.0150 O   0  0  0  0  0  0  0  0  0  0  0  0
    1.6230   -0.1160   -0.0450 C   0  0  0  0  0  0  0  0  0  0  0  0
    3.2170   -0.1240    0.3280 S   0  0  0  0  0  0  0  0  0  0  0  0
    0.9800   -1.3690   -0.2740 N   0  0  0  0  0  0  0  0  0  0  0  0
   -0.3720   -1.6150   -0.4180 O   0  0  0  0  0  0  0  0  0  0  0  0
  1  2  2  0
  2  3  1  0
  2 10  1  0
  3  4  1  0
  4  5  1  0
  5  6  2  0
  5  7  1  0
  7  8  2  0
  7  9  1  0
  9 10  1  0
M  END
