
     RDKit          3D

 33 36  0  0  0  0  0  0  0  0999 V2000
    4.9480    3.1770    0.1470 C   0  0  0  0  0  0  0  0  0  0  0  0
    5.8240    2.2050    0.8740 C   0  0  0  0  0  0  0  0  0  0  0  0
    6.5130    1.3420   -0.1070 C   0  0  0  0  0  0  0  0  0  0  0  0
    7.8340    1.5420   -0.4590 N   0  0  0  0  0  0  0  0  0  0  0  0
    8.1680    0.6230   -1.3300 N   0  0  0  0  0  0  0  0  0  0  0  0
    7.1040   -0.1670   -1.5550 C   0  0  0  0  0  0  0  0  0  0  0  0
    6.0140    0.2680   -0.7810 C   0  0  0  0  0  0  0  0  0  0  0  0
    4.7280   -0.3640   -0.7890 C   0  0  0  0  0  0  0  0  0  0  0  0
    3.6200   -0.0340   -0.1540 C   0  0  0  0  0  0  0  0  0  0  0  0
    2.4540   -0.8670   -0.3510 C   0  0  0  0  0  0  0  0  0  0  0  0
    1.3050   -0.6490    0.2290 C   0  0  0  0  0  0  0  0  0  0  0  0
    1.2240    0.5230    1.1270 C   0  0  0  0  0  0  0  0  0  0  0  0
    0.1960   -1.6130    0.1150 C   0  0  0  0  0  0  0  0  0  0  0  0
    0.5840   -2.9350   -0.1810 C   0  0  0  0  0  0  0  0  0  0  0  0
   -0.3670   -3.9110   -0.2870 C   0  0  0  0  0  0  0  0  0  0  0  0
   -1.7010   -3.6710   -0.1170 C   0  0  0  0  0  0  0  0  0  0  0  0
   -2.6450   -4.6870   -0.2300 O   0  0  0  0  0  0  0  0  0  0  0  0
   -2.1910   -5.9940   -0.5290 C   0  0  0  0  0  0  0  0  0  0  0  0
   -2.0730   -2.3710    0.1710 C   0  0  0  0  0  0  0  0  0  0  0  0
   -1.1260   -1.3460    0.2840 C   0  0  0  0  0  0  0  0  0  0  0  0
   -1.6590    0.0450    0.3430 C   0  0  1  0  0  0  0  0  0  0  0  0
   -2.2050    0.1230   -1.0690 O   0  0  0  0  0  0  0  0  0  0  0  0
   -2.8730    0.1090    1.1960 C   0  0  0  0  0  0  0  0  0  0  0  0
   -3.6920    1.2990    0.9160 N   0  0  0  0  0  0  0  0  0  0  0  0
   -3.2640    2.6240    1.2400 C   0  0  0  0  0  0  0  0  0  0  0  0
   -4.2900    3.6380    0.8760 C   0  0  0  0  0  0  0  0  0  0  0  0
   -3.9930    4.9700    1.1680 O   0  0  0  0  0  0  0  0  0  0  0  0
   -5.4140    3.3920    0.3240 N   0  0  0  0  0  0  0  0  0  0  0  0
   -5.8530    2.0840   -0.0220 C   0  0  0  0  0  0  0  0  0  0  0  0
   -6.9440    1.6030   -0.5870 C   0  0  0  0  0  0  0  0  0  0  0  0
   -6.7800    0.1400   -0.6680 C   0  0  0  0  0  0  0  0  0  0  0  0
   -5.4980   -0.1100   -0.0850 N   0  0  0  0  0  0  0  0  0  0  0  0
   -4.9570    0.9830    0.2840 C   0  0  0  0  0  0  0  0  0  0  0  0
  1  2  1  0
  2  3  1  0
  3  4  2  0
  3  7  1  0
  4  5  1  0
  5  6  1  0
  6  7  2  0
  7  8  1  0
  8  9  2  3
  9 10  1  0
 10 11  2  3
 11 12  1  0
 11 13  1  0
 13 14  2  0
 13 20  1  0
 14 15  1  0
 15 16  2  0
 16 17  1  0
 16 19  1  0
 17 18  1  0
 19 20  2  0
 20 21  1  0
 21 22  1  6
 21 23  1  0
 23 24  1  0
 24 25  1  0
 24 33  1  0
 25 26  1  0
 26 27  1  0
 26 28  2  0
 28 29  1  0
 29 30  2  0
 29 33  1  0
 30 31  1  0
 31 32  1  0
 32 33  2  0
M  END
