
     RDKit          3D

 32 34  0  0  0  0  0  0  0  0999 V2000
   -3.8580    4.7050    2.5420 C   0  0  0  0  0  0  0  0  0  0  0  0
   -3.3220    3.9140    1.4040 C   0  0  0  0  0  0  0  0  0  0  0  0
   -3.1740    4.4220    0.2640 O   0  0  0  0  0  0  0  0  0  0  0  0
   -2.9650    2.5400    1.6090 N   0  0  0  0  0  0  0  0  0  0  0  0
   -2.4410    1.7210    0.5510 C   0  0  2  0  0  0  0  0  0  0  0  0
   -3.2840    0.4470    0.3690 C   0  0  0  0  0  0  0  0  0  0  0  0
   -2.3260   -0.4720   -0.4220 C   0  0  2  0  0  0  0  0  0  0  0  0
   -2.7960   -1.8830   -0.1380 C   0  0  1  0  0  0  0  0  0  0  0  0
   -4.2520   -2.0730   -0.5070 C   0  0  1  0  0  0  0  0  0  0  0  0
   -4.5270   -1.8180   -1.9590 C   0  0  0  0  0  0  0  0  0  0  0  0
   -4.5930   -3.5370   -0.2390 C   0  0  0  0  0  0  0  0  0  0  0  0
   -5.0990   -1.3230    0.3040 O   0  0  0  0  0  0  0  0  0  0  0  0
   -2.0000   -2.9450   -0.7960 C   0  0  0  0  0  0  0  0  0  0  0  0
   -0.5230   -2.7230   -0.8770 C   0  0  0  0  0  0  0  0  0  0  0  0
   -0.1300   -1.4760   -1.5860 C   0  0  0  0  0  0  0  0  0  0  0  0
    0.1970   -0.2910   -0.7140 C   0  0  2  0  0  0  0  0  0  0  0  0
    0.0330    0.9460   -1.5340 C   0  0  0  0  0  0  0  0  0  0  0  0
    0.8310    0.9310   -2.6690 O   0  0  0  0  0  0  0  0  0  0  0  0
    1.3160   -0.4080    0.1860 C   0  0  0  0  0  0  0  0  0  0  0  0
    2.7030   -0.6950   -0.1310 C   0  0  0  0  0  0  0  0  0  0  0  0
    3.4650    0.2480   -1.0060 C   0  0  1  0  0  0  0  0  0  0  0  0
    3.4990    1.5080   -0.4890 O   0  0  0  0  0  0  0  0  0  0  0  0
    4.5540    1.8880    0.2680 C   0  0  1  0  0  0  0  0  0  0  0  0
    4.0830    2.9550    1.2540 C   0  0  0  0  0  0  0  0  0  0  0  0
    5.2170    0.7960    1.0160 C   0  0  0  0  0  0  0  0  0  0  0  0
    5.6410    0.8590    2.4330 C   0  0  0  0  0  0  0  0  0  0  0  0
    5.4270   -0.3280    0.2920 C   0  0  0  0  0  0  0  0  0  0  0  0
    4.9410   -0.2120   -1.1050 C   0  0  1  0  0  0  0  0  0  0  0  0
    5.0750   -1.4630   -1.8990 C   0  0  0  0  0  0  0  0  0  0  0  0
   -1.0500   -0.2110    0.2600 C   0  0  2  0  0  0  0  0  0  0  0  0
   -0.8860   -1.1950    1.2590 O   0  0  0  0  0  0  0  0  0  0  0  0
   -1.1190    1.0930    0.9680 C   0  0  0  0  0  0  0  0  0  0  0  0
  1  2  1  0
  2  3  2  0
  2  4  1  0
  5  4  1  1
  5  6  1  0
  5 32  1  0
  7  6  1  1
  7  8  1  0
  7 30  1  0
  8  9  1  0
  8 13  1  6
  9 10  1  6
  9 11  1  0
  9 12  1  0
 13 14  1  0
 14 15  1  0
 15 16  1  0
 16 17  1  6
 16 19  1  0
 16 30  1  0
 17 18  1  0
 19 20  1  0
 21 20  1  1
 21 22  1  0
 21 28  1  0
 22 23  1  0
 23 24  1  1
 23 25  1  0
 25 26  1  0
 25 27  2  0
 27 28  1  0
 28 29  1  1
 30 31  1  1
 30 32  1  0
M  END
