
     RDKit          3D

 33 36  0  0  0  0  0  0  0  0999 V2000
   -6.9110   -2.0280    1.6750 C   0  0  0  0  0  0  0  0  0  0  0  0
   -5.4620   -2.1270    1.4890 C   0  0  0  0  0  0  0  0  0  0  0  0
   -4.6710   -1.2390    0.9850 C   0  0  0  0  0  0  0  0  0  0  0  0
   -5.0520    0.0590    0.4900 C   0  0  0  0  0  0  0  0  0  0  0  0
   -4.2140    0.9800   -0.0070 C   0  0  0  0  0  0  0  0  0  0  0  0
   -4.9570    2.1830   -0.4180 C   0  0  0  0  0  0  0  0  0  0  0  0
   -6.3520    1.8790   -0.1080 C   0  0  0  0  0  0  0  0  0  0  0  0
   -6.3830    0.6500    0.4140 C   0  0  0  0  0  0  0  0  0  0  0  0
   -3.2320   -1.6590    0.8640 C   0  0  1  0  0  0  0  0  0  0  0  0
   -2.8480   -1.9480   -0.5620 C   0  0  0  0  0  0  0  0  0  0  0  0
   -1.4760   -2.6400   -0.4620 C   0  0  1  0  0  0  0  0  0  0  0  0
   -1.1370   -3.3380   -1.6950 C   0  0  0  0  0  0  0  0  0  0  0  0
   -1.8820   -3.2220   -2.7090 O   0  0  0  0  0  0  0  0  0  0  0  0
   -0.0230   -4.1390   -1.8200 O   0  0  0  0  0  0  0  0  0  0  0  0
   -0.5130   -1.6250   -0.0050 C   0  0  0  0  0  0  0  0  0  0  0  0
    0.7610   -1.5790   -0.4600 C   0  0  0  0  0  0  0  0  0  0  0  0
    1.6240   -0.5870    0.0220 C   0  0  0  0  0  0  0  0  0  0  0  0
    1.2460    0.3400    0.9300 C   0  0  0  0  0  0  0  0  0  0  0  0
    2.0680    1.4000    1.4210 C   0  0  0  0  0  0  0  0  0  0  0  0
    1.6720    2.1920    2.4800 N   0  0  0  0  0  0  0  0  0  0  0  0
    2.5650    3.0950    2.7180 N   0  0  0  0  0  0  0  0  0  0  0  0
    3.5380    2.9070    1.8340 C   0  0  0  0  0  0  0  0  0  0  0  0
    3.2280    1.8460    1.0200 N   0  0  0  0  0  0  0  0  0  0  0  0
    4.1310    1.4660   -0.0240 C   0  0  0  0  0  0  0  0  0  0  0  0
    5.1470    0.4830    0.3570 C   0  0  0  0  0  0  0  0  0  0  0  0
    6.0840    0.0410   -0.6900 C   0  0  0  0  0  0  0  0  0  0  0  0
    6.9590    1.0100   -1.3650 C   0  0  0  0  0  0  0  0  0  0  0  0
    6.3490    2.0430   -2.2080 C   0  0  0  0  0  0  0  0  0  0  0  0
    6.9110    3.3450   -2.3770 N   0  0  0  0  0  0  0  0  0  0  0  0
    5.2900    1.8220   -2.8340 O   0  0  0  0  0  0  0  0  0  0  0  0
   -0.0700    0.2540    1.3680 C   0  0  0  0  0  0  0  0  0  0  0  0
   -0.9600   -0.7010    0.9280 C   0  0  0  0  0  0  0  0  0  0  0  0
   -2.3150   -0.7210    1.4240 N   0  0  0  0  0  0  0  0  0  0  0  0
  1  2  1  0
  2  3  2  3
  3  4  1  0
  9  3  1  6
  4  5  2  0
  4  8  1  0
  5  6  1  0
  6  7  1  0
  7  8  2  0
  9 10  1  0
  9 33  1  0
 10 11  1  0
 11 12  1  6
 11 15  1  0
 12 13  2  0
 12 14  1  0
 15 16  2  0
 15 32  1  0
 16 17  1  0
 17 18  2  0
 18 19  1  0
 18 31  1  0
 19 20  2  0
 19 23  1  0
 20 21  1  0
 21 22  2  0
 22 23  1  0
 23 24  1  0
 24 25  1  0
 25 26  1  0
 26 27  1  0
 27 28  1  0
 28 29  1  0
 28 30  2  0
 31 32  2  0
 32 33  1  0
M  END
