
     RDKit          3D

 33 35  0  0  0  0  0  0  0  0999 V2000
   10.0560   -1.3830    1.3010 C   0  0  0  0  0  0  0  0  0  0  0  0
   10.5840   -0.4660    0.5220 C   0  0  0  0  0  0  0  0  0  0  0  0
    9.8790    0.5140   -0.3090 C   0  0  0  0  0  0  0  0  0  0  0  0
    8.4580    0.4480   -0.3000 N   0  0  0  0  0  0  0  0  0  0  0  0
    7.7420   -0.6920   -0.7520 C   0  0  0  0  0  0  0  0  0  0  0  0
    8.3170   -1.7150   -1.1950 O   0  0  0  0  0  0  0  0  0  0  0  0
    6.2640   -0.7070   -0.7120 C   0  0  0  0  0  0  0  0  0  0  0  0
    5.4340   -1.7280   -1.1110 C   0  0  0  0  0  0  0  0  0  0  0  0
    4.1300   -1.3460   -0.9110 C   0  0  0  0  0  0  0  0  0  0  0  0
    2.9140   -1.9460   -1.1210 C   0  0  0  0  0  0  0  0  0  0  0  0
    1.7160   -1.2900   -0.8080 C   0  0  0  0  0  0  0  0  0  0  0  0
    1.7270   -0.0270   -0.2810 C   0  0  0  0  0  0  0  0  0  0  0  0
    0.5710    0.7160    0.0920 N   0  0  0  0  0  0  0  0  0  0  0  0
   -0.7320    0.2100    0.2360 C   0  0  0  0  0  0  0  0  0  0  0  0
   -0.9500   -1.0020    0.0370 O   0  0  0  0  0  0  0  0  0  0  0  0
   -1.8290    1.0570    0.6100 N   0  0  0  0  0  0  0  0  0  0  0  0
   -3.2020    0.5330    0.7570 C   0  0  0  0  0  0  0  0  0  0  0  0
   -3.6410    0.0010   -0.5640 C   0  0  0  0  0  0  0  0  0  0  0  0
   -4.9670   -0.5150   -0.5740 O   0  0  0  0  0  0  0  0  0  0  0  0
   -6.0040    0.3720   -0.2230 C   0  0  0  0  0  0  0  0  0  0  0  0
   -6.4580    1.2420   -1.1890 C   0  0  0  0  0  0  0  0  0  0  0  0
   -5.9420    1.1590   -2.5410 C   0  0  0  0  0  0  0  0  0  0  0  0
   -5.5600    0.0560   -3.1380 C   0  0  0  0  0  0  0  0  0  0  0  0
   -7.4410    2.1360   -0.9100 N   0  0  0  0  0  0  0  0  0  0  0  0
   -7.9870    2.1900    0.2950 C   0  0  0  0  0  0  0  0  0  0  0  0
   -7.5900    1.3410    1.3340 C   0  0  0  0  0  0  0  0  0  0  0  0
   -8.1690    1.4520    2.5090 C   0  0  0  0  0  0  0  0  0  0  0  0
   -6.5730    0.4150    1.0350 C   0  0  0  0  0  0  0  0  0  0  0  0
   -6.3110   -0.5090    1.9360 C   0  0  0  0  0  0  0  0  0  0  0  0
   -5.4560   -1.7020    1.8600 C   0  0  0  0  0  0  0  0  0  0  0  0
    2.9870    0.5620   -0.0780 C   0  0  0  0  0  0  0  0  0  0  0  0
    4.1570   -0.0800   -0.3840 C   0  0  0  0  0  0  0  0  0  0  0  0
    5.4710    0.2810   -0.2760 N   0  0  0  0  0  0  0  0  0  0  0  0
  1  2  2  0
  2  3  1  0
  3  4  1  0
  4  5  1  0
  5  6  2  0
  5  7  1  0
  7  8  2  0
  7 33  1  0
  8  9  1  0
  9 10  2  0
  9 32  1  0
 10 11  1  0
 11 12  2  0
 12 13  1  0
 12 31  1  0
 13 14  1  0
 14 15  2  0
 14 16  1  0
 16 17  1  0
 17 18  1  0
 18 19  1  0
 19 20  1  0
 20 21  2  0
 20 28  1  0
 21 22  1  0
 21 24  1  0
 22 23  2  0
 24 25  2  0
 25 26  1  0
 26 27  2  0
 26 28  1  0
 28 29  2  3
 29 30  1  0
 31 32  2  0
 32 33  1  0
M  END
