
     RDKit          3D

 32 35  0  0  0  0  0  0  0  0999 V2000
   -0.3520    3.5100    0.5510 C   0  0  0  0  0  0  0  0  0  0  0  0
    0.4500    3.0960   -0.6450 C   0  0  2  0  0  0  0  0  0  0  0  0
    0.5140    4.3050   -1.4560 O   0  0  0  0  0  0  0  0  0  0  0  0
   -0.7600    4.4700   -1.9370 C   0  0  0  0  0  0  0  0  0  0  0  0
   -1.2570    3.0890   -2.1960 C   0  0  0  0  0  0  0  0  0  0  0  0
   -0.2070    2.1360   -1.5630 C   0  0  2  0  0  0  0  0  0  0  0  0
   -0.8750    0.9350   -1.0890 C   0  0  0  0  0  0  0  0  0  0  0  0
   -0.1980   -0.1930   -0.3950 C   0  0  1  0  0  0  0  0  0  0  0  0
   -1.2990   -1.1810   -0.0690 C   0  0  2  0  0  0  0  0  0  0  0  0
   -0.6460   -2.3090    0.4130 O   0  0  0  0  0  0  0  0  0  0  0  0
   -2.0830   -1.7220   -1.2240 C   0  0  1  0  0  0  0  0  0  0  0  0
   -1.4040   -2.5570   -2.2530 C   0  0  0  0  0  0  0  0  0  0  0  0
   -3.1240   -2.7370   -0.6900 C   0  0  0  0  0  0  0  0  0  0  0  0
   -4.2040   -2.1280    0.0790 C   0  0  0  0  0  0  0  0  0  0  0  0
   -3.7400   -0.7780    0.4630 C   0  0  0  0  0  0  0  0  0  0  0  0
   -2.2870   -0.7490    0.9660 C   0  0  2  0  0  0  0  0  0  0  0  0
   -2.2370    0.5520    1.6450 C   0  0  0  0  0  0  0  0  0  0  0  0
   -2.3560   -1.7960    2.1120 C   0  0  0  0  0  0  0  0  0  0  0  0
    0.7930   -0.7100   -1.3970 C   0  0  0  0  0  0  0  0  0  0  0  0
    1.7510   -1.6070   -0.7100 C   0  0  0  0  0  0  0  0  0  0  0  0
    1.9780   -0.8660    0.5840 C   0  0  1  0  0  0  0  0  0  0  0  0
    1.8990   -1.9740    1.6800 C   0  0  0  0  0  0  0  0  0  0  0  0
    2.9610   -1.9020    2.6790 C   0  0  0  0  0  0  0  0  0  0  0  0
    3.4600   -2.9540    3.1230 O   0  0  0  0  0  0  0  0  0  0  0  0
    3.4170   -0.6090    3.1400 N   0  0  0  0  0  0  0  0  0  0  0  0
    3.5320    0.3050    2.0560 C   0  0  0  0  0  0  0  0  0  0  0  0
    3.7690    1.5040    2.2140 O   0  0  0  0  0  0  0  0  0  0  0  0
    3.3330   -0.3580    0.7090 C   0  0  2  0  0  0  0  0  0  0  0  0
    4.1580    0.3580   -0.2320 C   0  0  1  0  0  0  0  0  0  0  0  0
    3.8550    1.6790   -0.7900 C   0  0  0  0  0  0  0  0  0  0  0  0
    5.3920    0.5810    0.4810 O   0  0  0  0  0  0  0  0  0  0  0  0
    0.7660    0.0300    0.7010 C   0  0  0  0  0  0  0  0  0  0  0  0
  2  1  1  1
  2  3  1  0
  2  6  1  0
  3  4  1  0
  4  5  1  0
  5  6  1  0
  6  7  1  1
  8  7  1  6
  8  9  1  0
  8 19  1  0
  8 32  1  0
  9 10  1  1
  9 11  1  0
  9 16  1  0
 11 12  1  6
 11 13  1  0
 13 14  1  0
 14 15  1  0
 15 16  1  0
 16 17  1  1
 16 18  1  0
 19 20  1  0
 21 20  1  6
 21 22  1  0
 21 28  1  0
 21 32  1  0
 22 23  1  0
 23 24  2  0
 23 25  1  0
 25 26  1  0
 26 27  2  0
 28 26  1  1
 28 29  1  0
 29 30  1  1
 29 31  1  0
M  END
