
     RDKit          3D

  8  7  0  0  0  0  0  0  0  0999 V2000
   -0.9990   -1.2510   -0.6650 C   0  0  0  0  0  0  0  0  0  0  0  0
   -0.5900    0.0350   -0.0130 C   0  0  1  0  0  0  0  0  0  0  0  0
   -0.5360    1.1740   -0.9920 C   0  0  0  0  0  0  0  0  0  0  0  0
   -1.6710    0.3680    1.0250 C   0  0  0  0  0  0  0  0  0  0  0  0
   -1.2270    1.8940    1.8280 Cl  0  0  0  0  0  0  0  0  0  0  0  0
    0.7040   -0.0640    0.7440 C   0  0  0  0  0  0  0  0  0  0  0  0
    1.8690   -0.4600   -0.1180 C   0  0  0  0  0  0  0  0  0  0  0  0
    2.9950   -0.5110    0.7200 O   0  0  0  0  0  0  0  0  0  0  0  0
  2  1  1  6
  2  3  1  0
  2  4  1  0
  2  6  1  0
  4  5  1  0
  6  7  1  0
  7  8  1  0
M  END
