
     RDKit          3D

  8  8  0  0  0  0  0  0  0  0999 V2000
   -2.1990    0.3260   -0.2180 C   0  0  0  0  0  0  0  0  0  0  0  0
   -1.2480   -0.7860    0.1820 C   0  0  0  0  0  0  0  0  0  0  0  0
    0.1800   -0.3840   -0.0590 C   0  0  0  0  0  0  0  0  0  0  0  0
    0.9830    0.2540    0.8700 C   0  0  0  0  0  0  0  0  0  0  0  0
    2.2250    0.4620    0.2970 C   0  0  0  0  0  0  0  0  0  0  0  0
    3.6370    1.2250    1.0010 Cl  0  0  0  0  0  0  0  0  0  0  0  0
    2.1060   -0.0750   -0.9830 C   0  0  0  0  0  0  0  0  0  0  0  0
    0.8960   -0.5570   -1.1440 O   0  0  0  0  0  0  0  0  0  0  0  0
  1  2  1  0
  2  3  1  0
  3  4  2  0
  3  8  1  0
  4  5  1  0
  5  6  1  0
  5  7  2  0
  7  8  1  0
M  END
