
     RDKit          3D

  9  9  0  0  0  0  0  0  0  0999 V2000
    1.8920   -1.8710   -1.0350 Cl  0  0  0  0  0  0  0  0  0  0  0  0
    2.1640   -0.3210   -0.2470 C   0  0  1  0  0  0  0  0  0  0  0  0
    2.1460    1.0270   -1.4040 Cl  0  0  0  0  0  0  0  0  0  0  0  0
    1.1700   -0.0760    0.8790 C   0  0  0  0  0  0  0  0  0  0  0  0
   -0.2270   -0.0750    0.3770 C   0  0  0  0  0  0  0  0  0  0  0  0
   -0.9240    1.0240   -0.0780 C   0  0  0  0  0  0  0  0  0  0  0  0
   -2.1890    0.5940   -0.4520 C   0  0  0  0  0  0  0  0  0  0  0  0
   -2.2000   -0.7640   -0.2020 C   0  0  0  0  0  0  0  0  0  0  0  0
   -1.0410   -1.0900    0.2750 O   0  0  0  0  0  0  0  0  0  0  0  0
  2  1  1  6
  2  3  1  0
  2  4  1  0
  4  5  1  0
  5  6  2  0
  5  9  1  0
  6  7  1  0
  7  8  2  0
  8  9  1  0
M  END
