
     RDKit          3D

  9  8  0  0  0  0  0  0  0  0999 V2000
   -1.2580   -0.2230   -1.2320 C   0  0  0  0  0  0  0  0  0  0  0  0
   -1.0320   -0.3530    0.2660 C   0  0  1  0  0  0  0  0  0  0  0  0
   -2.1710    0.2410    1.0530 C   0  0  0  0  0  0  0  0  0  0  0  0
   -0.9800   -1.7070    0.5430 O   0  0  0  0  0  0  0  0  0  0  0  0
    0.2210    0.3750    0.6300 C   0  0  0  0  0  0  0  0  0  0  0  0
    1.4210   -0.1980   -0.0990 C   0  0  0  0  0  0  0  0  0  0  0  0
    2.6810    0.5470    0.2780 C   0  0  2  0  0  0  0  0  0  0  0  0
    2.4410    2.2550   -0.1850 Cl  0  0  0  0  0  0  0  0  0  0  0  0
    4.0300   -0.0900   -0.6810 Cl  0  0  0  0  0  0  0  0  0  0  0  0
  2  1  1  6
  2  3  1  0
  2  4  1  0
  2  5  1  0
  5  6  1  0
  6  7  1  0
  7  8  1  6
  7  9  1  0
M  END
