
     RDKit          3D

  9  9  0  0  0  0  0  0  0  0999 V2000
   -2.4020   -0.7630    0.0640 O   0  0  0  0  0  0  0  0  0  0  0  0
   -1.0740   -0.3780    0.1410 C   0  0  0  0  0  0  0  0  0  0  0  0
   -0.1030   -1.3520    0.0490 C   0  0  0  0  0  0  0  0  0  0  0  0
    1.2540   -1.0320    0.1180 C   0  0  0  0  0  0  0  0  0  0  0  0
    1.5620    0.3050    0.2840 C   0  0  0  0  0  0  0  0  0  0  0  0
    3.2740    0.7510    0.3770 Cl  0  0  0  0  0  0  0  0  0  0  0  0
    0.6320    1.3020    0.3800 C   0  0  0  0  0  0  0  0  0  0  0  0
   -0.7150    0.9400    0.3050 C   0  0  0  0  0  0  0  0  0  0  0  0
   -1.9010    2.1900    0.4250 Cl  0  0  0  0  0  0  0  0  0  0  0  0
  1  2  1  0
  2  3  2  0
  2  8  1  0
  3  4  1  0
  4  5  2  0
  5  6  1  0
  5  7  1  0
  7  8  2  0
  8  9  1  0
M  END
