
     RDKit          3D

  9  8  0  0  0  0  0  0  0  0999 V2000
   -2.6010   -0.0140   -1.1020 O   0  0  0  0  0  0  0  0  0  0  0  0
   -1.8220   -0.0680    0.0600 C   0  0  2  0  0  0  0  0  0  0  0  0
   -1.9960    1.2320    0.7650 C   0  0  0  0  0  0  0  0  0  0  0  0
   -1.4500    2.5700   -0.2970 Cl  0  0  0  0  0  0  0  0  0  0  0  0
   -0.4330   -0.4110   -0.3450 C   0  0  0  0  0  0  0  0  0  0  0  0
    0.5610   -0.5180    0.7580 C   0  0  0  0  0  0  0  0  0  0  0  0
    1.9260   -0.8720    0.2140 C   0  0  0  0  0  0  0  0  0  0  0  0
    2.4490    0.1620   -0.7610 C   0  0  0  0  0  0  0  0  0  0  0  0
    2.5740    1.7380    0.0560 Cl  0  0  0  0  0  0  0  0  0  0  0  0
  2  1  1  6
  2  3  1  0
  2  5  1  0
  3  4  1  0
  5  6  1  0
  6  7  1  0
  7  8  1  0
  8  9  1  0
M  END
