
     RDKit          3D

  9  9  0  0  0  0  0  0  0  0999 V2000
   -1.5990   -1.2790   -0.1830 C   0  0  0  0  0  0  0  0  0  0  0  0
   -0.1750   -0.8470   -0.0860 C   0  0  0  0  0  0  0  0  0  0  0  0
    0.8800   -1.5940   -0.1060 O   0  0  0  0  0  0  0  0  0  0  0  0
    1.9820   -0.8720    0.0030 C   0  0  0  0  0  0  0  0  0  0  0  0
    3.6490   -1.4400    0.0230 Cl  0  0  0  0  0  0  0  0  0  0  0  0
    1.6010    0.4250    0.1000 C   0  0  0  0  0  0  0  0  0  0  0  0
    2.6290    1.8090    0.2630 Cl  0  0  0  0  0  0  0  0  0  0  0  0
    0.2260    0.4770    0.0470 C   0  0  0  0  0  0  0  0  0  0  0  0
   -0.6540    1.6760    0.1140 C   0  0  0  0  0  0  0  0  0  0  0  0
  1  2  1  0
  2  3  1  0
  2  8  2  0
  3  4  1  0
  4  5  1  0
  4  6  2  0
  6  7  1  0
  6  8  1  0
  8  9  1  0
M  END
