
     RDKit          3D

 19 19  0  0  0  0  0  0  0  0999 V2000
    3.2190    2.6480    1.4100 C   0  0  0  0  0  0  0  0  0  0  0  0
    3.4870    1.1760    1.4660 C   0  0  0  0  0  0  0  0  0  0  0  0
    2.9060    0.4400    0.2520 C   0  0  0  0  0  0  0  0  0  0  0  0
    3.2390   -1.0050    0.4290 C   0  0  0  0  0  0  0  0  0  0  0  0
    2.7490   -1.8870   -0.6690 C   0  0  0  0  0  0  0  0  0  0  0  0
    1.2780   -1.8850   -0.8680 C   0  0  0  0  0  0  0  0  0  0  0  0
    0.5000   -2.3370    0.3440 C   0  0  0  0  0  0  0  0  0  0  0  0
   -0.8540   -2.3320    0.1520 O   0  0  0  0  0  0  0  0  0  0  0  0
   -1.4240   -1.1300   -0.1560 C   0  0  1  0  0  0  0  0  0  0  0  0
   -2.1470   -1.1590   -1.3270 O   0  0  0  0  0  0  0  0  0  0  0  0
   -2.6980    0.0440   -1.6620 C   0  0  2  0  0  0  0  0  0  0  0  0
   -1.7120    1.0440   -2.2260 C   0  0  0  0  0  0  0  0  0  0  0  0
   -2.4250    2.2050   -2.5150 O   0  0  0  0  0  0  0  0  0  0  0  0
   -3.4860    0.7140   -0.5830 C   0  0  1  0  0  0  0  0  0  0  0  0
   -4.8110    0.2440   -0.5300 O   0  0  0  0  0  0  0  0  0  0  0  0
   -2.8800    0.5990    0.7840 C   0  0  2  0  0  0  0  0  0  0  0  0
   -1.8380    1.4610    1.0180 O   0  0  0  0  0  0  0  0  0  0  0  0
   -2.4260   -0.8280    0.9680 C   0  0  2  0  0  0  0  0  0  0  0  0
   -1.7840   -1.0420    2.1720 O   0  0  0  0  0  0  0  0  0  0  0  0
  1  2  1  0
  2  3  1  0
  3  4  1  0
  4  5  1  0
  5  6  1  0
  6  7  1  0
  7  8  1  0
  9  8  1  1
  9 10  1  0
  9 18  1  0
 10 11  1  0
 11 12  1  1
 11 14  1  0
 12 13  1  0
 14 15  1  1
 14 16  1  0
 16 17  1  6
 16 18  1  0
 18 19  1  1
M  END
