
     RDKit          3D

 12 13  0  0  0  0  0  0  0  0999 V2000
    3.6450    0.1840   -0.0590 O   0  0  0  0  0  0  0  0  0  0  0  0
    2.3910    0.2640   -0.0300 C   0  0  0  0  0  0  0  0  0  0  0  0
    1.6370   -0.8170    0.1410 N   0  0  0  0  0  0  0  0  0  0  0  0
    0.3020   -0.7070    0.1690 C   0  0  0  0  0  0  0  0  0  0  0  0
   -0.2370    0.5700    0.0120 C   0  0  0  0  0  0  0  0  0  0  0  0
    0.5390    1.5970   -0.1530 O   0  0  0  0  0  0  0  0  0  0  0  0
    1.8390    1.5240   -0.1840 C   0  0  0  0  0  0  0  0  0  0  0  0
    2.5830    2.5230   -0.3440 O   0  0  0  0  0  0  0  0  0  0  0  0
   -1.6910    0.4600    0.0730 C   0  0  0  0  0  0  0  0  0  0  0  0
   -2.8150    1.8390   -0.0790 S   0  0  0  0  0  0  0  0  0  0  0  0
   -2.0450   -0.7990    0.2560 C   0  0  0  0  0  0  0  0  0  0  0  0
   -0.8250   -1.6470    0.3330 C   0  0  0  0  0  0  0  0  0  0  0  0
  1  2  2  0
  2  3  1  0
  2  7  1  0
  3  4  1  0
  4  5  2  0
  4 12  1  0
  5  6  1  0
  5  9  1  0
  6  7  1  0
  7  8  2  0
  9 10  1  0
  9 11  2  0
 11 12  1  0
M  END
