
     RDKit          3D

 12 13  0  0  0  0  0  0  0  0999 V2000
   -3.9660    1.0370    0.4610 O   0  0  0  0  0  0  0  0  0  0  0  0
   -2.8670    0.5650    0.0850 C   0  0  0  0  0  0  0  0  0  0  0  0
   -2.7830   -0.8680   -0.2620 C   0  0  0  0  0  0  0  0  0  0  0  0
   -1.4710   -1.3810   -0.1820 O   0  0  0  0  0  0  0  0  0  0  0  0
   -0.3280   -0.6110   -0.2890 C   0  0  0  0  0  0  0  0  0  0  0  0
   -0.4210    0.7060   -0.2140 C   0  0  0  0  0  0  0  0  0  0  0  0
   -1.6810    1.3420   -0.0260 N   0  0  0  0  0  0  0  0  0  0  0  0
    0.9370    1.8700   -0.3290 S   0  0  0  0  0  0  0  0  0  0  0  0
    2.2370    1.2170    0.7910 C   0  0  0  0  0  0  0  0  0  0  0  0
    2.6850   -0.1260    0.2400 C   0  0  0  0  0  0  0  0  0  0  0  0
    1.8060   -1.1440    0.5180 O   0  0  0  0  0  0  0  0  0  0  0  0
    0.9180   -1.4380   -0.4840 C   0  0  0  0  0  0  0  0  0  0  0  0
  1  2  2  0
  2  3  1  0
  2  7  1  0
  3  4  1  0
  4  5  1  0
  5  6  2  0
  5 12  1  0
  6  7  1  0
  6  8  1  0
  8  9  1  0
  9 10  1  0
 10 11  1  0
 11 12  1  0
M  END
