
     RDKit          3D

 12 13  0  0  0  0  0  0  0  0999 V2000
   -1.9740   -2.0530   -1.0550 O   0  0  0  0  0  0  0  0  0  0  0  0
   -1.1760   -1.1780   -0.5820 C   0  0  0  0  0  0  0  0  0  0  0  0
    0.1070   -1.6330   -0.3550 O   0  0  0  0  0  0  0  0  0  0  0  0
    1.2830   -0.8430   -0.1200 C   0  0  0  0  0  0  0  0  0  0  0  0
    2.4660   -1.5340   -0.2170 C   0  0  0  0  0  0  0  0  0  0  0  0
    3.6860   -0.3790    0.1020 S   0  0  0  0  0  0  0  0  0  0  0  0
    2.6220    1.0170    0.3630 C   0  0  0  0  0  0  0  0  0  0  0  0
    1.3300    0.4550    0.1730 C   0  0  0  0  0  0  0  0  0  0  0  0
    0.1870    1.3380    0.3180 N   0  0  0  0  0  0  0  0  0  0  0  0
   -1.1540    0.9730    0.6630 C   0  0  0  0  0  0  0  0  0  0  0  0
   -1.8220    0.1230   -0.3870 C   0  0  2  0  0  0  0  0  0  0  0  0
   -3.1250   -0.1380    0.0890 O   0  0  0  0  0  0  0  0  0  0  0  0
  1  2  2  0
  2  3  1  0
  2 11  1  0
  3  4  1  0
  4  5  2  0
  4  8  1  0
  5  6  1  0
  6  7  1  0
  7  8  2  0
  8  9  1  0
  9 10  1  0
 10 11  1  0
 11 12  1  1
M  END
