
     RDKit          3D

 12 12  0  0  0  0  0  0  0  0999 V2000
    3.6140    0.6070    0.5730 N   0  0  0  0  0  0  0  0  0  0  0  0
    3.0700   -0.1100   -0.5120 C   0  0  0  0  0  0  0  0  0  0  0  0
    4.0470   -0.7420   -1.6510 S   0  0  0  0  0  0  0  0  0  0  0  0
    1.6390   -0.2920   -0.6220 C   0  0  0  0  0  0  0  0  0  0  0  0
    1.1660   -0.9380   -1.6020 O   0  0  0  0  0  0  0  0  0  0  0  0
    0.8220    0.2520    0.3560 O   0  0  0  0  0  0  0  0  0  0  0  0
   -0.5620    0.0720    0.2410 C   0  0  0  0  0  0  0  0  0  0  0  0
   -1.3040    0.9420   -0.4090 C   0  0  0  0  0  0  0  0  0  0  0  0
   -2.7660    0.8060   -0.5630 C   0  0  0  0  0  0  0  0  0  0  0  0
   -3.2310   -0.3420    0.0610 O   0  0  0  0  0  0  0  0  0  0  0  0
   -2.4780   -1.2590    0.7420 C   0  0  0  0  0  0  0  0  0  0  0  0
   -1.1700   -1.0870    0.8490 C   0  0  0  0  0  0  0  0  0  0  0  0
  1  2  1  0
  2  3  2  0
  2  4  1  0
  4  5  2  0
  4  6  1  0
  6  7  1  0
  7  8  2  0
  7 12  1  0
  8  9  1  0
  9 10  1  0
 10 11  1  0
 11 12  2  0
M  END
