
     RDKit          3D

 16 16  0  0  0  0  0  0  0  0999 V2000
    2.7680   -1.9500   -0.1450 C   0  0  0  0  0  0  0  0  0  0  0  0
    2.3920   -0.6420   -0.3310 O   0  0  0  0  0  0  0  0  0  0  0  0
    1.5790   -0.1040    0.6290 C   0  0  1  0  0  0  0  0  0  0  0  0
    2.4330    0.7850    1.3680 O   0  0  0  0  0  0  0  0  0  0  0  0
    0.4090    0.7000    0.1440 C   0  0  2  0  0  0  0  0  0  0  0  0
    0.9380    1.8690   -0.6850 C   0  0  0  0  0  0  0  0  0  0  0  0
    1.6660    1.4460   -1.7770 O   0  0  0  0  0  0  0  0  0  0  0  0
   -0.1920    1.3420    1.3900 C   0  0  0  0  0  0  0  0  0  0  0  0
   -1.4180    0.7680    1.7440 O   0  0  0  0  0  0  0  0  0  0  0  0
   -2.3550    0.9670    0.7290 C   0  0  2  0  0  0  0  0  0  0  0  0
   -3.5020    0.0160    0.9380 C   0  0  0  0  0  0  0  0  0  0  0  0
   -1.8330    0.7760   -0.5150 O   0  0  0  0  0  0  0  0  0  0  0  0
   -0.6720   -0.0370   -0.5430 C   0  0  2  0  0  0  0  0  0  0  0  0
   -0.9030   -1.3860    0.0580 C   0  0  0  0  0  0  0  0  0  0  0  0
   -0.4330   -0.2490   -2.0270 C   0  0  0  0  0  0  0  0  0  0  0  0
    0.6450   -1.0170   -2.3440 O   0  0  0  0  0  0  0  0  0  0  0  0
  1  2  1  0
  2  3  1  0
  3  4  1  1
  3  5  1  0
  5  6  1  6
  5  8  1  0
  5 13  1  0
  6  7  1  0
  8  9  1  0
  9 10  1  0
 10 11  1  1
 10 12  1  0
 12 13  1  0
 13 14  1  1
 13 15  1  0
 15 16  1  0
M  END
