
     RDKit          3D

 16 16  0  0  0  0  0  0  0  0999 V2000
   -4.3020   -0.2600    1.2250 C   0  0  0  0  0  0  0  0  0  0  0  0
   -3.3420    0.5990    0.4220 C   0  0  2  0  0  0  0  0  0  0  0  0
   -4.0940    0.9920   -0.8500 C   0  0  0  0  0  0  0  0  0  0  0  0
   -4.5010   -0.1490   -1.5460 O   0  0  0  0  0  0  0  0  0  0  0  0
   -2.2730   -0.1170    0.0780 O   0  0  0  0  0  0  0  0  0  0  0  0
   -1.0230    0.2210    0.3860 C   0  0  2  0  0  0  0  0  0  0  0  0
   -0.2800    0.6270   -0.8860 C   0  0  0  0  0  0  0  0  0  0  0  0
    1.0100    1.0000   -0.4650 O   0  0  0  0  0  0  0  0  0  0  0  0
    1.7630   -0.1620   -0.3590 C   0  0  1  0  0  0  0  0  0  0  0  0
    2.9700    0.0060    0.2600 O   0  0  0  0  0  0  0  0  0  0  0  0
    4.0670   -0.2510   -0.5430 C   0  0  0  0  0  0  0  0  0  0  0  0
    5.3100   -0.0170    0.2950 C   0  0  0  0  0  0  0  0  0  0  0  0
    6.4780   -0.2530   -0.4320 O   0  0  0  0  0  0  0  0  0  0  0  0
    0.9600   -1.2590    0.2740 C   0  0  0  0  0  0  0  0  0  0  0  0
   -0.1650   -0.7000    1.1530 C   0  0  1  0  0  0  0  0  0  0  0  0
    0.4810   -0.0840    2.2340 O   0  0  0  0  0  0  0  0  0  0  0  0
  2  1  1  1
  2  3  1  0
  2  5  1  0
  3  4  1  0
  6  5  1  6
  6  7  1  0
  6 15  1  0
  7  8  1  0
  8  9  1  0
  9 10  1  1
  9 14  1  0
 10 11  1  0
 11 12  1  0
 12 13  1  0
 14 15  1  0
 15 16  1  1
M  END
