
     RDKit          3D

 16 16  0  0  0  0  0  0  0  0999 V2000
    6.0500    0.1310    0.3410 C   0  0  0  0  0  0  0  0  0  0  0  0
    4.6670    0.1380   -0.2430 C   0  0  0  0  0  0  0  0  0  0  0  0
    3.6700    0.0610    0.7460 O   0  0  0  0  0  0  0  0  0  0  0  0
    2.4470    0.0770    0.0750 C   0  0  0  0  0  0  0  0  0  0  0  0
    1.3750    0.0040    0.9590 O   0  0  0  0  0  0  0  0  0  0  0  0
    0.1940    0.0210    0.2730 C   0  0  1  0  0  0  0  0  0  0  0  0
   -0.6070   -1.2710    0.4670 C   0  0  0  0  0  0  0  0  0  0  0  0
   -1.7560   -1.1680   -0.5290 C   0  0  1  0  0  0  0  0  0  0  0  0
   -2.4640   -2.3380   -0.6510 O   0  0  0  0  0  0  0  0  0  0  0  0
   -2.7010   -0.1080    0.0390 C   0  0  2  0  0  0  0  0  0  0  0  0
   -3.7810   -0.0570   -0.8470 O   0  0  0  0  0  0  0  0  0  0  0  0
   -4.9680   -0.4460   -0.2470 C   0  0  0  0  0  0  0  0  0  0  0  0
   -5.2730    0.3890    0.8350 O   0  0  0  0  0  0  0  0  0  0  0  0
   -1.9930    1.2030    0.0060 C   0  0  0  0  0  0  0  0  0  0  0  0
   -0.6530    1.2100    0.6540 C   0  0  2  0  0  0  0  0  0  0  0  0
    0.0320    2.3530    0.1790 O   0  0  0  0  0  0  0  0  0  0  0  0
  1  2  1  0
  2  3  1  0
  3  4  1  0
  4  5  1  0
  6  5  1  1
  6  7  1  0
  6 15  1  0
  7  8  1  0
  8  9  1  1
  8 10  1  0
 10 11  1  6
 10 14  1  0
 11 12  1  0
 12 13  1  0
 14 15  1  0
 15 16  1  6
M  END
