
     RDKit          3D

 16 16  0  0  0  0  0  0  0  0999 V2000
   -1.0390   -1.9000    0.2980 C   0  0  0  0  0  0  0  0  0  0  0  0
   -1.6640   -0.5290    0.2510 C   0  0  1  0  0  0  0  0  0  0  0  0
   -2.2750   -0.3980   -1.1310 C   0  0  0  0  0  0  0  0  0  0  0  0
   -1.2560   -0.3180   -2.1020 O   0  0  0  0  0  0  0  0  0  0  0  0
   -2.7080   -0.6200    1.2080 O   0  0  0  0  0  0  0  0  0  0  0  0
   -3.5050    0.4750    1.2660 C   0  0  0  0  0  0  0  0  0  0  0  0
   -2.6290    1.6700    1.6450 C   0  0  0  0  0  0  0  0  0  0  0  0
   -1.6120    1.7700    0.7490 O   0  0  0  0  0  0  0  0  0  0  0  0
   -0.8270    0.6100    0.6470 C   0  0  2  0  0  0  0  0  0  0  0  0
    0.3460    0.9990   -0.1680 C   0  0  0  0  0  0  0  0  0  0  0  0
    1.4720    0.0350   -0.3300 C   0  0  2  0  0  0  0  0  0  0  0  0
    2.0690   -0.3130    0.8650 O   0  0  0  0  0  0  0  0  0  0  0  0
    2.5790    0.6580   -1.1990 C   0  0  0  0  0  0  0  0  0  0  0  0
    3.5600   -0.2110   -1.4640 O   0  0  0  0  0  0  0  0  0  0  0  0
    4.3100   -0.7760   -0.5010 C   0  0  0  0  0  0  0  0  0  0  0  0
    5.0120    0.1400    0.2910 O   0  0  0  0  0  0  0  0  0  0  0  0
  2  1  1  6
  2  3  1  0
  2  5  1  0
  2  9  1  0
  3  4  1  0
  5  6  1  0
  6  7  1  0
  7  8  1  0
  8  9  1  0
  9 10  1  6
 10 11  1  0
 11 12  1  1
 11 13  1  0
 13 14  1  0
 14 15  1  0
 15 16  1  0
M  END
