
     RDKit          3D

 13 13  0  0  0  0  0  0  0  0999 V2000
    4.9770   -0.2170   -0.7630 N   0  0  0  0  0  0  0  0  0  0  0  0
    3.6580   -0.7470   -0.7700 C   0  0  0  0  0  0  0  0  0  0  0  0
    3.4870   -1.9170   -1.1840 O   0  0  0  0  0  0  0  0  0  0  0  0
    2.5020    0.0480   -0.3040 C   0  0  0  0  0  0  0  0  0  0  0  0
    1.2400   -0.7550   -0.4220 C   0  0  0  0  0  0  0  0  0  0  0  0
    0.0650    0.0050    0.0350 C   0  0  0  0  0  0  0  0  0  0  0  0
    0.2140    1.1880    0.4560 O   0  0  0  0  0  0  0  0  0  0  0  0
   -1.2290   -0.5630    0.0100 N   0  0  0  0  0  0  0  0  0  0  0  0
   -2.4110    0.1320    0.4420 C   0  0  0  0  0  0  0  0  0  0  0  0
   -3.2090   -0.2590    1.4190 C   0  0  0  0  0  0  0  0  0  0  0  0
   -4.2980    0.7220    1.5460 C   0  0  0  0  0  0  0  0  0  0  0  0
   -4.0280    1.6940    0.5470 N   0  0  0  0  0  0  0  0  0  0  0  0
   -2.9570    1.3650   -0.0840 C   0  0  0  0  0  0  0  0  0  0  0  0
  1  2  1  0
  2  3  2  0
  2  4  1  0
  4  5  1  0
  5  6  1  0
  6  7  2  0
  6  8  1  0
  8  9  1  0
  9 10  2  0
  9 13  1  0
 10 11  1  0
 11 12  1  0
 12 13  2  0
M  END
