
     RDKit          3D

 13 13  0  0  0  0  0  0  0  0999 V2000
   -3.4550    1.6220    0.2790 C   0  0  0  0  0  0  0  0  0  0  0  0
   -3.1890    0.1640    0.0750 C   0  0  0  0  0  0  0  0  0  0  0  0
   -4.0680   -0.7640   -0.0410 N   0  0  0  0  0  0  0  0  0  0  0  0
   -3.4460   -2.0280   -0.2230 C   0  0  0  0  0  0  0  0  0  0  0  0
   -1.9990   -1.6930   -0.1950 C   0  0  0  0  0  0  0  0  0  0  0  0
   -1.8250   -0.4000   -0.0190 C   0  0  0  0  0  0  0  0  0  0  0  0
   -0.6120    0.3580    0.0700 N   0  0  0  0  0  0  0  0  0  0  0  0
    0.6890   -0.1730   -0.0200 C   0  0  0  0  0  0  0  0  0  0  0  0
    0.8260   -1.4030   -0.1900 O   0  0  0  0  0  0  0  0  0  0  0  0
    1.8680    0.6250    0.0760 N   0  0  0  0  0  0  0  0  0  0  0  0
    3.1660   -0.0350   -0.0310 C   0  0  0  0  0  0  0  0  0  0  0  0
    4.2990    0.9280    0.0870 C   0  0  0  0  0  0  0  0  0  0  0  0
    5.4860    0.2280   -0.0240 O   0  0  0  0  0  0  0  0  0  0  0  0
  1  2  1  0
  2  3  2  0
  2  6  1  0
  3  4  1  0
  4  5  1  0
  5  6  2  0
  6  7  1  0
  7  8  1  0
  8  9  2  0
  8 10  1  0
 10 11  1  0
 11 12  1  0
 12 13  1  0
M  END
