
     RDKit          3D

 13 13  0  0  0  0  0  0  0  0999 V2000
   -0.0180    2.6140    0.4280 C   0  0  0  0  0  0  0  0  0  0  0  0
   -0.9940    1.7960    0.1860 C   0  0  0  0  0  0  0  0  0  0  0  0
   -0.9860    0.3710   -0.0260 C   0  0  0  0  0  0  0  0  0  0  0  0
   -2.1730   -0.2600   -0.2480 C   0  0  0  0  0  0  0  0  0  0  0  0
   -3.3740    0.4620   -0.2690 N   0  0  0  0  0  0  0  0  0  0  0  0
   -2.2060   -1.6280   -0.4560 O   0  0  0  0  0  0  0  0  0  0  0  0
   -1.2390   -2.4920    0.1310 C   0  0  0  0  0  0  0  0  0  0  0  0
    0.0220   -1.7850    0.5290 C   0  0  0  0  0  0  0  0  0  0  0  0
    0.1590   -0.4660   -0.0530 N   0  0  0  0  0  0  0  0  0  0  0  0
    1.3590   -0.0350   -0.6640 C   0  0  0  0  0  0  0  0  0  0  0  0
    2.5220    0.1230    0.2110 C   0  0  0  0  0  0  0  0  0  0  0  0
    3.7570    0.5530   -0.3350 N   0  0  0  0  0  0  0  0  0  0  0  0
    2.4790   -0.1070    1.4410 O   0  0  0  0  0  0  0  0  0  0  0  0
  1  2  2  0
  2  3  1  0
  3  4  2  0
  3  9  1  0
  4  5  1  0
  4  6  1  0
  6  7  1  0
  7  8  1  0
  8  9  1  0
  9 10  1  0
 10 11  1  0
 11 12  1  0
 11 13  2  0
M  END
