
     RDKit          3D

 13 13  0  0  0  0  0  0  0  0999 V2000
   -2.4870   -1.1250   -1.2910 C   0  0  0  0  0  0  0  0  0  0  0  0
   -2.1320    0.3120   -0.9950 C   0  0  0  0  0  0  0  0  0  0  0  0
   -1.5350    0.4310    0.3240 N   0  0  0  0  0  0  0  0  0  0  0  0
   -0.2220    0.3380    0.5950 C   0  0  0  0  0  0  0  0  0  0  0  0
    0.8190    0.1040   -0.3850 C   0  0  0  0  0  0  0  0  0  0  0  0
    2.0830    0.0330    0.0080 C   0  0  0  0  0  0  0  0  0  0  0  0
    3.1540   -0.2050   -0.9820 C   0  0  0  0  0  0  0  0  0  0  0  0
    4.4880   -0.2740   -0.5220 N   0  0  0  0  0  0  0  0  0  0  0  0
    2.8590   -0.3390   -2.1970 O   0  0  0  0  0  0  0  0  0  0  0  0
   -0.0470    0.5020    1.9420 C   0  0  0  0  0  0  0  0  0  0  0  0
   -1.2870    0.6940    2.4650 N   0  0  0  0  0  0  0  0  0  0  0  0
   -2.1990    0.6500    1.4700 C   0  0  0  0  0  0  0  0  0  0  0  0
   -3.4440    0.7880    1.5910 O   0  0  0  0  0  0  0  0  0  0  0  0
  1  2  1  0
  2  3  1  0
  3  4  1  0
  3 12  1  0
  4  5  1  0
  4 10  2  0
  5  6  2  3
  6  7  1  0
  7  8  1  0
  7  9  2  0
 10 11  1  0
 11 12  1  0
 12 13  2  0
M  END
