
     RDKit          3D

 26 25  0  0  0  0  0  0  0  0999 V2000
    4.4410    1.2600   -0.2830 C   0  0  0  0  0  0  0  0  0  0  0  0
    5.4570    0.6480   -0.8020 C   0  0  0  0  0  0  0  0  0  0  0  0
    6.6350    1.3380   -1.2810 C   0  0  0  0  0  0  0  0  0  0  0  0
    6.7350    2.6010   -1.2170 N   0  0  0  0  0  0  0  0  0  0  0  0
    7.6870    0.6230   -1.8260 O   0  0  0  0  0  0  0  0  0  0  0  0
    5.4530   -0.8190   -0.9280 C   0  0  0  0  0  0  0  0  0  0  0  0
    6.4600   -1.4150   -1.4410 O   0  0  0  0  0  0  0  0  0  0  0  0
    4.3980   -1.6450   -0.5160 N   0  0  0  0  0  0  0  0  0  0  0  0
    4.4180   -3.0640   -0.6500 C   0  0  0  0  0  0  0  0  0  0  0  0
    5.4790   -3.5570   -1.1600 O   0  0  0  0  0  0  0  0  0  0  0  0
    3.3440   -3.9820   -0.2540 C   0  0  0  0  0  0  0  0  0  0  0  0
    2.1650   -3.3780    0.2710 N   0  0  0  0  0  0  0  0  0  0  0  0
    1.3230   -2.4950   -0.4590 C   0  0  0  0  0  0  0  0  0  0  0  0
    1.6480   -2.2450   -1.6550 O   0  0  0  0  0  0  0  0  0  0  0  0
    0.1040   -1.8840    0.1470 C   0  0  0  0  0  0  0  0  0  0  0  0
   -0.5390   -1.0130   -0.9010 C   0  0  0  0  0  0  0  0  0  0  0  0
   -1.7380   -0.3550   -0.4360 N   0  0  0  0  0  0  0  0  0  0  0  0
   -2.8670   -1.0690    0.0080 C   0  0  0  0  0  0  0  0  0  0  0  0
   -2.8570   -2.3220    0.0070 O   0  0  0  0  0  0  0  0  0  0  0  0
   -4.1140   -0.4080    0.4940 C   0  0  0  0  0  0  0  0  0  0  0  0
   -3.9390    1.3890    0.4200 S   0  0  0  0  0  0  0  0  0  0  0  0
   -2.8330    1.8500    1.3590 O   0  0  0  0  0  0  0  0  0  0  0  0
   -5.4810    2.1080    1.0220 C   0  0  2  0  0  0  0  0  0  0  0  0
   -5.6990    1.6430    2.4400 C   0  0  0  0  0  0  0  0  0  0  0  0
   -6.6130    1.5790    0.1680 C   0  0  0  0  0  0  0  0  0  0  0  0
   -5.4220    3.6220    0.9860 C   0  0  0  0  0  0  0  0  0  0  0  0
  1  2  2  0
  2  3  1  0
  2  6  1  0
  3  4  2  0
  3  5  1  0
  6  7  2  0
  6  8  1  0
  8  9  1  0
  9 10  2  0
  9 11  1  0
 11 12  1  0
 12 13  1  0
 13 14  2  0
 13 15  1  0
 15 16  1  0
 16 17  1  0
 17 18  1  0
 18 19  2  0
 18 20  1  0
 21 20  1  1
 21 22  2  0
 21 23  1  0
 23 24  1  1
 23 25  1  0
 23 26  1  0
M  CHG  1   4   1
M  END
