
     RDKit          3D

 26 25  0  0  0  0  0  0  0  0999 V2000
    8.4670    0.7600    1.5460 C   0  0  0  0  0  0  0  0  0  0  0  0
    8.6580    0.6240    0.0540 C   0  0  2  0  0  0  0  0  0  0  0  0
    8.5570    1.8220   -0.6220 O   0  0  0  0  0  0  0  0  0  0  0  0
    7.6370   -0.3350   -0.5180 C   0  0  0  0  0  0  0  0  0  0  0  0
    6.2950    0.1500   -0.3850 N   0  0  0  0  0  0  0  0  0  0  0  0
    5.2360   -0.6600   -0.8850 C   0  0  0  0  0  0  0  0  0  0  0  0
    5.5060   -1.7640   -1.4230 O   0  0  0  0  0  0  0  0  0  0  0  0
    3.8390   -0.1480   -0.7430 C   0  0  0  0  0  0  0  0  0  0  0  0
    2.9280   -1.1910   -1.3490 C   0  0  0  0  0  0  0  0  0  0  0  0
    1.5450   -0.8300   -1.2830 N   0  0  0  0  0  0  0  0  0  0  0  0
    0.8490   -0.5870   -0.0670 C   0  0  0  0  0  0  0  0  0  0  0  0
    1.5010   -0.7000    0.9940 O   0  0  0  0  0  0  0  0  0  0  0  0
   -0.5130   -0.2320    0.0130 N   0  0  0  0  0  0  0  0  0  0  0  0
   -1.1840    0.0090    1.2940 C   0  0  0  0  0  0  0  0  0  0  0  0
   -2.6380    0.3720    1.0720 C   0  0  0  0  0  0  0  0  0  0  0  0
   -3.3450   -0.7350    0.3680 C   0  0  0  0  0  0  0  0  0  0  0  0
   -4.8050   -0.3730    0.1540 C   0  0  0  0  0  0  0  0  0  0  0  0
   -5.2890    0.7590    0.5760 C   0  0  0  0  0  0  0  0  0  0  0  0
   -6.6850    1.2170    0.4210 C   0  0  0  0  0  0  0  0  0  0  0  0
   -7.3620    1.3850    1.7380 C   0  0  0  0  0  0  0  0  0  0  0  0
   -8.7080    1.8200    1.7480 N   0  0  0  0  0  0  0  0  0  0  0  0
   -6.7340    1.1410    2.7860 O   0  0  0  0  0  0  0  0  0  0  0  0
   -5.7450   -1.5760   -0.6850 S   0  0  2  0  0  0  0  0  0  0  0  0
   -5.8200   -1.2640   -2.4320 C   0  0  0  0  0  0  0  0  0  0  0  0
   -7.1100   -1.6570   -0.1000 O   0  0  0  0  0  0  0  0  0  0  0  0
   -5.0300   -2.9110   -0.5410 O   0  0  0  0  0  0  0  0  0  0  0  0
  2  1  1  1
  2  3  1  0
  2  4  1  0
  4  5  1  0
  5  6  1  0
  6  7  2  0
  6  8  1  0
  8  9  1  0
  9 10  1  0
 10 11  1  0
 11 12  2  0
 11 13  1  0
 13 14  1  0
 14 15  1  0
 15 16  1  0
 16 17  1  0
 17 18  2  3
 17 23  1  0
 18 19  1  0
 19 20  1  0
 20 21  1  0
 20 22  2  0
 23 24  1  6
 23 25  2  0
 23 26  2  0
M  END
