
     RDKit          3D

 10 10  0  0  0  0  0  0  0  0999 V2000
    2.5230   -0.4280   -0.7030 C   0  0  0  0  0  0  0  0  0  0  0  0
    1.4910    0.5460   -0.8090 N   0  0  0  0  0  0  0  0  0  0  0  0
    0.2520    0.3700   -0.5100 C   0  0  0  0  0  0  0  0  0  0  0  0
   -0.1580   -0.9400   -0.0140 C   0  0  0  0  0  0  0  0  0  0  0  0
   -0.9730   -0.7200    1.2320 C   0  0  0  0  0  0  0  0  0  0  0  0
   -0.7710   -1.3680    2.2650 O   0  0  0  0  0  0  0  0  0  0  0  0
   -1.9860    0.2770    1.1390 N   0  0  0  0  0  0  0  0  0  0  0  0
   -1.8790    1.3460    0.2000 C   0  0  0  0  0  0  0  0  0  0  0  0
   -2.7580    2.2100    0.1210 O   0  0  0  0  0  0  0  0  0  0  0  0
   -0.7320    1.3890   -0.6400 N   0  0  0  0  0  0  0  0  0  0  0  0
  1  2  1  0
  2  3  2  3
  3  4  1  0
  3 10  1  0
  4  5  1  0
  5  6  2  0
  5  7  1  0
  7  8  1  0
  8  9  2  0
  8 10  1  0
M  END
