
     RDKit          3D

 21 21  0  0  0  0  0  0  0  0999 V2000
    0.7000   -1.6380    0.8340 O   0  0  0  0  0  0  0  0  0  0  0  0
    0.9840   -0.5680    0.2760 C   0  0  0  0  0  0  0  0  0  0  0  0
    2.3480   -0.2290   -0.0260 N   0  0  0  0  0  0  0  0  0  0  0  0
    3.4050   -1.1780    0.3400 C   0  0  0  0  0  0  0  0  0  0  0  0
    4.7190   -0.5640   -0.0920 C   0  0  0  0  0  0  0  0  0  0  0  0
    4.6920   -0.3580   -1.4640 O   0  0  0  0  0  0  0  0  0  0  0  0
    6.1750    0.3440   -2.0070 P   0  0  0  0  0  0  0  0  0  0  0  0
    7.0370    0.9740   -0.6490 O   0  0  0  0  0  0  0  0  0  0  0  0
    5.8650    1.6260   -3.1480 O   0  0  0  0  0  0  0  0  0  0  0  0
   -0.0760    0.3440   -0.0720 N   0  0  0  0  0  0  0  0  0  0  0  0
   -1.4550    0.0770    0.1950 C   0  0  2  0  0  0  0  0  0  0  0  0
   -2.3110    0.0880   -1.0670 C   0  0  0  0  0  0  0  0  0  0  0  0
   -3.3930   -0.7520   -0.8130 O   0  0  0  0  0  0  0  0  0  0  0  0
   -4.5310   -0.0680   -0.4580 C   0  0  0  0  0  0  0  0  0  0  0  0
   -4.6340    0.2270    1.0110 C   0  0  1  0  0  0  0  0  0  0  0  0
   -5.5130    1.3270    1.1430 O   0  0  0  0  0  0  0  0  0  0  0  0
   -5.3000   -0.8500    1.6170 O   0  0  0  0  0  0  0  0  0  0  0  0
   -4.6810   -1.9800    1.4630 O   0  0  0  0  0  0  0  0  0  0  0  0
   -3.3380    0.4870    1.6490 C   0  0  0  0  0  0  0  0  0  0  0  0
   -3.2730    0.1510    2.8190 O   0  0  0  0  0  0  0  0  0  0  0  0
   -2.0760    1.0880    1.1380 C   0  0  0  0  0  0  0  0  0  0  0  0
  1  2  2  0
  2  3  1  0
  2 10  1  0
  3  4  1  0
  4  5  1  0
  5  6  1  0
  6  7  1  0
  7  8  1  0
  7  9  1  0
 11 10  1  6
 11 12  1  0
 11 21  1  0
 12 13  1  0
 13 14  1  0
 14 15  1  0
 15 16  1  6
 15 17  1  0
 15 19  1  0
 17 18  1  0
 19 20  2  0
 19 21  1  0
M  END
