
     RDKit          3D

 20 21  0  0  0  0  0  0  0  0999 V2000
   -2.1340   -1.0880   -2.1730 O   0  0  0  0  0  0  0  0  0  0  0  0
   -2.5620   -0.3230   -1.2650 C   0  0  0  0  0  0  0  0  0  0  0  0
   -3.4830    0.7170   -1.4930 N   0  0  0  0  0  0  0  0  0  0  0  0
   -4.2410    1.1680   -0.3470 C   0  0  0  0  0  0  0  0  0  0  0  0
   -4.4260    0.0660    0.6720 C   0  0  2  0  0  0  0  0  0  0  0  0
   -5.0070    0.6150    1.8100 O   0  0  0  0  0  0  0  0  0  0  0  0
   -3.2010   -0.6730    1.0480 C   0  0  0  0  0  0  0  0  0  0  0  0
   -2.0970   -0.5190    0.0580 N   0  0  0  0  0  0  0  0  0  0  0  0
   -0.7660   -0.6460    0.4600 C   0  0  0  0  0  0  0  0  0  0  0  0
   -0.6170   -1.0320    1.6840 O   0  0  0  0  0  0  0  0  0  0  0  0
    0.4180   -0.3940   -0.3290 C   0  0  0  0  0  0  0  0  0  0  0  0
    0.6160    0.0500   -1.5520 C   0  0  0  0  0  0  0  0  0  0  0  0
    2.0040    0.1030   -1.8300 O   0  0  0  0  0  0  0  0  0  0  0  0
    2.5520   -0.8380   -0.9330 C   0  0  1  0  0  0  0  0  0  0  0  0
    4.0070   -0.5560   -0.6350 C   0  0  0  0  0  0  0  0  0  0  0  0
    4.1890    0.6940   -0.0640 O   0  0  0  0  0  0  0  0  0  0  0  0
    5.8740    0.9420    0.2450 P   0  0  0  0  0  0  0  0  0  0  0  0
    6.1680    2.5250    0.8860 O   0  0  0  0  0  0  0  0  0  0  0  0
    6.4230   -0.2870    1.3600 O   0  0  0  0  0  0  0  0  0  0  0  0
    1.7310   -0.6270    0.1940 O   0  0  0  0  0  0  0  0  0  0  0  0
  1  2  2  0
  2  3  1  0
  2  8  1  0
  3  4  1  0
  4  5  1  0
  5  6  1  1
  5  7  1  0
  7  8  1  0
  8  9  1  0
  9 10  2  0
  9 11  1  0
 11 12  2  0
 11 20  1  0
 12 13  1  0
 13 14  1  0
 14 15  1  1
 14 20  1  0
 15 16  1  0
 16 17  1  0
 17 18  1  0
 17 19  1  0
M  END
