
     RDKit          3D

 20 21  0  0  0  0  0  0  0  0999 V2000
   -4.2660   -2.6460   -0.2590 O   0  0  0  0  0  0  0  0  0  0  0  0
   -4.3210   -1.4400   -0.2470 C   0  0  0  0  0  0  0  0  0  0  0  0
   -3.8020   -0.5160    0.8320 C   0  0  0  0  0  0  0  0  0  0  0  0
   -3.2960    0.5900   -0.0610 C   0  0  2  0  0  0  0  0  0  0  0  0
   -4.4250    0.7380   -1.0190 C   0  0  0  0  0  0  0  0  0  0  0  0
   -4.8700   -0.6080   -1.2020 O   0  0  0  0  0  0  0  0  0  0  0  0
   -2.0850    0.2210   -0.6640 O   0  0  0  0  0  0  0  0  0  0  0  0
   -1.0860    0.6510    0.2100 C   0  0  1  0  0  0  0  0  0  0  0  0
    0.2190    0.8130   -0.4470 C   0  0  0  0  0  0  0  0  0  0  0  0
    0.3850    1.5000   -1.4960 O   0  0  0  0  0  0  0  0  0  0  0  0
    1.3670    0.1690    0.1350 N   0  0  0  0  0  0  0  0  0  0  0  0
    2.6460    0.3590   -0.4640 C   0  0  0  0  0  0  0  0  0  0  0  0
    3.4220   -0.8320   -0.8420 C   0  0  0  0  0  0  0  0  0  0  0  0
    3.6030   -1.6000    0.3810 O   0  0  0  0  0  0  0  0  0  0  0  0
    5.2850   -1.6540    0.6260 P   0  0  0  0  0  0  0  0  0  0  0  0
    6.0780   -0.2220    0.0960 O   0  0  0  0  0  0  0  0  0  0  0  0
    6.0870   -3.0860    0.6220 O   0  0  0  0  0  0  0  0  0  0  0  0
   -1.5900    2.0750    0.3660 N   0  0  0  0  0  0  0  0  0  0  0  0
   -2.9670    1.8330    0.6520 C   0  0  0  0  0  0  0  0  0  0  0  0
   -3.7310    2.5050    1.3400 O   0  0  0  0  0  0  0  0  0  0  0  0
  1  2  2  0
  2  3  1  0
  2  6  1  0
  4  3  1  1
  4  5  1  0
  4  7  1  0
  4 19  1  0
  5  6  1  0
  7  8  1  0
  8  9  1  6
  8 18  1  0
  9 10  2  0
  9 11  1  0
 11 12  1  0
 12 13  1  0
 13 14  1  0
 14 15  1  0
 15 16  1  0
 15 17  1  0
 18 19  1  0
 19 20  2  0
M  END
