
     RDKit          3D

 21 22  0  0  0  0  0  0  0  0999 V2000
    0.4680    0.6020    1.9180 O   0  0  0  0  0  0  0  0  0  0  0  0
    0.3180   -0.0740    0.8620 C   0  0  0  0  0  0  0  0  0  0  0  0
    1.4860   -0.3470    0.1560 O   0  0  0  0  0  0  0  0  0  0  0  0
    2.7560    0.1280    0.6310 C   0  0  0  0  0  0  0  0  0  0  0  0
    3.8640   -0.2900   -0.2960 C   0  0  0  0  0  0  0  0  0  0  0  0
    5.0550    0.2150    0.2460 O   0  0  0  0  0  0  0  0  0  0  0  0
    6.3720   -0.2220   -0.7590 P   0  0  0  0  0  0  0  0  0  0  0  0
    7.8520   -0.3260    0.1380 O   0  0  0  0  0  0  0  0  0  0  0  0
    6.5980    0.9050   -2.0520 O   0  0  0  0  0  0  0  0  0  0  0  0
   -0.9560   -0.5250    0.4260 N   0  0  0  0  0  0  0  0  0  0  0  0
   -1.1490   -1.2990   -0.7760 C   0  0  0  0  0  0  0  0  0  0  0  0
   -2.1800   -0.7290   -1.6920 C   0  0  0  0  0  0  0  0  0  0  0  0
   -2.9380    0.3550   -0.9950 C   0  0  1  0  0  0  0  0  0  0  0  0
   -4.0080    0.8500   -1.6970 O   0  0  0  0  0  0  0  0  0  0  0  0
   -4.3290    2.0250   -1.1510 O   0  0  0  0  0  0  0  0  0  0  0  0
   -4.8820    1.7590    0.0780 N   0  0  0  0  0  0  0  0  0  0  0  0
   -4.4190    0.6740    0.8670 C   0  0  0  0  0  0  0  0  0  0  0  0
   -4.9280    0.4600    1.9890 O   0  0  0  0  0  0  0  0  0  0  0  0
   -3.3460   -0.1970    0.3780 C   0  0  1  0  0  0  0  0  0  0  0  0
   -3.8070   -1.5010    0.2270 O   0  0  0  0  0  0  0  0  0  0  0  0
   -2.1120   -0.1920    1.2270 C   0  0  0  0  0  0  0  0  0  0  0  0
  1  2  2  0
  2  3  1  0
  2 10  1  0
  3  4  1  0
  4  5  1  0
  5  6  1  0
  6  7  1  0
  7  8  1  0
  7  9  1  0
 10 11  1  0
 10 21  1  0
 11 12  1  0
 13 12  1  6
 13 14  1  0
 13 19  1  0
 14 15  1  0
 15 16  1  0
 16 17  1  0
 17 18  2  0
 17 19  1  0
 19 20  1  6
 19 21  1  0
M  END
