
     RDKit          3D

 20 21  0  0  0  0  0  0  0  0999 V2000
   -2.5390   -1.5290   -2.9380 N   0  0  0  0  0  0  0  0  0  0  0  0
   -2.5650   -0.9930   -1.7430 C   0  0  0  0  0  0  0  0  0  0  0  0
   -1.3490   -1.0230   -0.9900 N   0  0  0  0  0  0  0  0  0  0  0  0
   -1.1820   -0.7820    0.2670 C   0  0  0  0  0  0  0  0  0  0  0  0
    0.1920   -0.8940    0.7520 C   0  0  0  0  0  0  0  0  0  0  0  0
    0.6130   -0.6960    1.9900 C   0  0  0  0  0  0  0  0  0  0  0  0
    1.9940   -0.8960    2.0650 O   0  0  0  0  0  0  0  0  0  0  0  0
    2.4680   -1.2600    0.8060 C   0  0  2  0  0  0  0  0  0  0  0  0
    3.4600   -0.3050    0.2200 C   0  0  0  0  0  0  0  0  0  0  0  0
    4.5990   -0.1380    0.9760 O   0  0  0  0  0  0  0  0  0  0  0  0
    5.6230    0.9910    0.1520 P   0  0  0  0  0  0  0  0  0  0  0  0
    6.3500    0.1830   -1.1960 O   0  0  0  0  0  0  0  0  0  0  0  0
    4.7290    2.3850   -0.3480 O   0  0  0  0  0  0  0  0  0  0  0  0
    1.3020   -1.2270    0.0000 O   0  0  0  0  0  0  0  0  0  0  0  0
   -2.1360   -0.4320    1.2130 O   0  0  0  0  0  0  0  0  0  0  0  0
   -3.5480   -0.6290    1.0510 C   0  0  0  0  0  0  0  0  0  0  0  0
   -4.0790    0.2100   -0.1030 C   0  0  1  0  0  0  0  0  0  0  0  0
   -3.3550    1.5580   -0.0200 C   0  0  0  0  0  0  0  0  0  0  0  0
   -3.7560    2.3500   -1.1000 O   0  0  0  0  0  0  0  0  0  0  0  0
   -3.7570   -0.4480   -1.3140 O   0  0  0  0  0  0  0  0  0  0  0  0
  1  2  2  0
  2  3  1  0
  2 20  1  0
  3  4  2  0
  4  5  1  0
  4 15  1  0
  5  6  2  0
  5 14  1  0
  6  7  1  0
  7  8  1  0
  8  9  1  6
  8 14  1  0
  9 10  1  0
 10 11  1  0
 11 12  1  0
 11 13  1  0
 15 16  1  0
 16 17  1  0
 17 18  1  6
 17 20  1  0
 18 19  1  0
M  END
