
     RDKit          3D

 20 20  0  0  0  0  0  0  0  0999 V2000
   -2.6370    0.8140    1.5880 N   0  0  0  0  0  0  0  0  0  0  0  0
   -2.5310    1.2060    0.2090 C   0  0  2  0  0  0  0  0  0  0  0  0
   -3.8140    0.9510   -0.5110 C   0  0  0  0  0  0  0  0  0  0  0  0
   -4.5170   -0.0660    0.1260 O   0  0  0  0  0  0  0  0  0  0  0  0
   -3.8630   -1.6250   -0.1750 P   0  0  0  0  0  0  0  0  0  0  0  0
   -4.6340   -2.4370   -1.4840 O   0  0  0  0  0  0  0  0  0  0  0  0
   -2.1500   -1.6360   -0.2940 O   0  0  0  0  0  0  0  0  0  0  0  0
   -1.6460   -0.7040   -1.1640 C   0  0  0  0  0  0  0  0  0  0  0  0
   -1.3210    0.6250   -0.4820 C   0  0  1  0  0  0  0  0  0  0  0  0
   -0.9690    1.5050   -1.5030 O   0  0  0  0  0  0  0  0  0  0  0  0
   -0.2160    0.3700    0.4500 C   0  0  0  0  0  0  0  0  0  0  0  0
   -0.3760   -0.3990    1.4200 O   0  0  0  0  0  0  0  0  0  0  0  0
    1.0410    0.9900    0.2620 N   0  0  0  0  0  0  0  0  0  0  0  0
    2.1680    0.7770    1.1470 C   0  0  0  0  0  0  0  0  0  0  0  0
    2.5790   -0.6720    1.2000 C   0  0  0  0  0  0  0  0  0  0  0  0
    2.9840   -1.1920   -0.1600 C   0  0  0  0  0  0  0  0  0  0  0  0
    4.0730   -0.4720   -0.6940 O   0  0  0  0  0  0  0  0  0  0  0  0
    5.3220   -0.3700   -0.1310 C   0  0  0  0  0  0  0  0  0  0  0  0
    5.5400   -0.9620    0.9550 O   0  0  0  0  0  0  0  0  0  0  0  0
    6.3540    0.3750   -0.7350 O   0  0  0  0  0  0  0  0  0  0  0  0
  2  1  1  1
  2  3  1  0
  2  9  1  0
  3  4  1  0
  4  5  1  0
  5  6  1  0
  5  7  1  0
  7  8  1  0
  8  9  1  0
  9 10  1  6
  9 11  1  0
 11 12  2  0
 11 13  1  0
 13 14  1  0
 14 15  1  0
 15 16  1  0
 16 17  1  0
 17 18  1  0
 18 19  2  0
 18 20  1  0
M  END
