
     RDKit          3D

 21 22  0  0  0  0  0  0  0  0999 V2000
    5.8640    1.6630   -1.1010 O   0  0  0  0  0  0  0  0  0  0  0  0
    4.4000    2.0640   -1.4430 P   0  0  0  0  0  0  0  0  0  0  0  0
    3.0580    1.4800   -0.4880 O   0  0  0  0  0  0  0  0  0  0  0  0
    3.5320    0.5450    0.4280 C   0  0  0  0  0  0  0  0  0  0  0  0
    2.3750    0.0370    1.2570 C   0  0  0  0  0  0  0  0  0  0  0  0
    1.3610   -0.5990    0.4060 N   0  0  0  0  0  0  0  0  0  0  0  0
    1.4090   -1.9940    0.1030 C   0  0  0  0  0  0  0  0  0  0  0  0
    2.3530   -2.7080    0.5800 O   0  0  0  0  0  0  0  0  0  0  0  0
    0.4380   -2.5710   -0.7050 O   0  0  0  0  0  0  0  0  0  0  0  0
   -0.6030   -1.8130   -1.2390 C   0  0  0  0  0  0  0  0  0  0  0  0
   -1.1580   -2.2340   -2.2710 O   0  0  0  0  0  0  0  0  0  0  0  0
   -0.9550   -0.5710   -0.5250 C   0  0  2  0  0  0  0  0  0  0  0  0
   -1.7090   -0.8580    0.7680 C   0  0  0  0  0  0  0  0  0  0  0  0
   -2.1870    0.4230    1.0450 O   0  0  0  0  0  0  0  0  0  0  0  0
   -2.5290    0.9990   -0.1620 C   0  0  2  0  0  0  0  0  0  0  0  0
   -3.9950    1.0290   -0.2810 C   0  0  0  0  0  0  0  0  0  0  0  0
   -4.5640    0.4430   -1.2320 O   0  0  0  0  0  0  0  0  0  0  0  0
   -4.7750    1.6970    0.6440 O   0  0  0  0  0  0  0  0  0  0  0  0
   -1.8880    0.2590   -1.2110 N   0  0  0  0  0  0  0  0  0  0  0  0
    0.2890    0.1490   -0.1510 C   0  0  0  0  0  0  0  0  0  0  0  0
    0.4310    1.3890   -0.3080 O   0  0  0  0  0  0  0  0  0  0  0  0
  1  2  2  0
  2  3  1  0
  3  4  1  0
  4  5  1  0
  5  6  1  0
  6  7  1  0
  6 20  1  0
  7  8  2  0
  7  9  1  0
  9 10  1  0
 10 11  2  0
 10 12  1  0
 12 13  1  1
 12 19  1  0
 12 20  1  0
 13 14  1  0
 14 15  1  0
 15 16  1  6
 15 19  1  0
 16 17  2  0
 16 18  1  0
 20 21  2  0
M  END
