
     RDKit          3D

 35 37  0  0  0  0  0  0  0  0999 V2000
    7.7940    2.4670   -0.6410 N   0  0  0  0  0  0  0  0  0  0  0  0
    6.7000    1.5620   -0.6420 C   0  0  0  0  0  0  0  0  0  0  0  0
    5.4460    1.9580   -0.3620 N   0  0  0  0  0  0  0  0  0  0  0  0
    4.3990    1.1220   -0.3570 C   0  0  0  0  0  0  0  0  0  0  0  0
    4.6290   -0.2050   -0.6540 C   0  0  0  0  0  0  0  0  0  0  0  0
    3.4900   -1.1710   -0.6600 C   0  0  0  0  0  0  0  0  0  0  0  0
    2.3260   -0.4790   -0.3360 O   0  0  0  0  0  0  0  0  0  0  0  0
    1.0840   -1.0590   -0.2500 C   0  0  0  0  0  0  0  0  0  0  0  0
    0.9530   -2.2790   -0.4680 O   0  0  0  0  0  0  0  0  0  0  0  0
   -0.0390   -0.2790    0.0830 N   0  0  0  0  0  0  0  0  0  0  0  0
    0.1280    1.1340    0.3340 C   0  0  0  0  0  0  0  0  0  0  0  0
   -0.8600    1.6830    1.3090 C   0  0  1  0  0  0  0  0  0  0  0  0
   -0.8760    3.0830    1.1640 O   0  0  0  0  0  0  0  0  0  0  0  0
   -2.2480    1.2210    1.1000 C   0  0  0  0  0  0  0  0  0  0  0  0
   -3.1540    1.7250    1.7250 O   0  0  0  0  0  0  0  0  0  0  0  0
   -2.5200    0.1410    0.1240 C   0  0  2  0  0  0  0  0  0  0  0  0
   -2.5860    0.7750   -1.2310 C   0  0  0  0  0  0  0  0  0  0  0  0
   -1.8290    0.4700   -2.1740 O   0  0  0  0  0  0  0  0  0  0  0  0
   -3.5540    1.7520   -1.4160 O   0  0  0  0  0  0  0  0  0  0  0  0
   -3.7790    2.6010   -2.9340 P   0  0  0  0  0  0  0  0  0  0  0  0
   -5.3850    2.2630   -3.5060 O   0  0  0  0  0  0  0  0  0  0  0  0
   -3.7150    4.3130   -2.5840 O   0  0  0  0  0  0  0  0  0  0  0  0
   -3.8190   -0.5830    0.3920 C   0  0  0  0  0  0  0  0  0  0  0  0
   -3.7950   -1.8910   -0.0750 O   0  0  0  0  0  0  0  0  0  0  0  0
   -2.8230   -2.6830    0.4690 C   0  0  1  0  0  0  0  0  0  0  0  0
   -3.0590   -3.0080    1.9260 C   0  0  0  0  0  0  0  0  0  0  0  0
   -4.3060   -3.6180    2.1160 O   0  0  0  0  0  0  0  0  0  0  0  0
   -4.4350   -3.8660    3.3970 O   0  0  0  0  0  0  0  0  0  0  0  0
   -2.8060   -4.2900   -0.4890 P   0  0  0  0  0  0  0  0  0  0  0  0
   -2.2570   -5.5970    0.1440 O   0  0  0  0  0  0  0  0  0  0  0  0
   -1.5270   -2.0600    0.3480 N   0  0  0  0  0  0  0  0  0  0  0  0
   -1.3570   -0.8000    0.1930 C   0  0  0  0  0  0  0  0  0  0  0  0
    5.9050   -0.6340   -0.9440 C   0  0  0  0  0  0  0  0  0  0  0  0
    6.0770   -1.8420   -1.2080 O   0  0  0  0  0  0  0  0  0  0  0  0
    6.9050    0.2530   -0.9310 N   0  0  0  0  0  0  0  0  0  0  0  0
  1  2  1  0
  2  3  2  0
  2 35  1  0
  3  4  1  0
  4  5  2  0
  5  6  1  0
  5 33  1  0
  6  7  1  0
  7  8  1  0
  8  9  2  0
  8 10  1  0
 10 11  1  0
 10 32  1  0
 11 12  1  0
 12 13  1  6
 12 14  1  0
 14 15  2  0
 14 16  1  0
 16 17  1  6
 16 23  1  0
 16 32  1  0
 17 18  2  0
 17 19  1  0
 19 20  1  0
 20 21  1  0
 20 22  1  0
 23 24  1  0
 24 25  1  0
 25 26  1  1
 25 29  1  0
 25 31  1  0
 26 27  1  0
 27 28  1  0
 29 30  2  0
 31 32  2  0
 33 34  2  0
 33 35  1  0
M  END
