
     RDKit          3D

 35 36  0  0  0  0  0  0  0  0999 V2000
   -3.6950   -5.0090    0.1590 C   0  0  0  0  0  0  0  0  0  0  0  0
   -3.3300   -3.5980   -0.3200 C   0  0  2  0  0  0  0  0  0  0  0  0
   -4.4970   -2.8320   -0.3700 O   0  0  0  0  0  0  0  0  0  0  0  0
   -2.8730   -3.7530   -1.6300 O   0  0  0  0  0  0  0  0  0  0  0  0
   -1.5340   -4.1400   -1.5280 C   0  0  0  0  0  0  0  0  0  0  0  0
   -0.6960   -2.8710   -1.2450 C   0  0  0  0  0  0  0  0  0  0  0  0
   -1.0700   -2.4220    0.0720 N   0  0  0  0  0  0  0  0  0  0  0  0
   -0.3680   -1.5100    0.8760 C   0  0  0  0  0  0  0  0  0  0  0  0
   -0.9110   -1.2580    2.0250 O   0  0  0  0  0  0  0  0  0  0  0  0
    0.9040   -0.8370    0.5200 C   0  0  2  0  0  0  0  0  0  0  0  0
    0.9370   -0.2340   -0.8350 C   0  0  0  0  0  0  0  0  0  0  0  0
   -0.1860    0.7600   -0.9370 C   0  0  0  0  0  0  0  0  0  0  0  0
   -1.0110    0.8750    0.0230 O   0  0  0  0  0  0  0  0  0  0  0  0
   -0.3570    1.5730   -2.0710 N   0  0  0  0  0  0  0  0  0  0  0  0
   -1.4370    2.5210   -2.1590 C   0  0  0  0  0  0  0  0  0  0  0  0
   -1.4320    3.5790   -1.1030 C   0  0  0  0  0  0  0  0  0  0  0  0
   -2.5400    4.4350   -1.3130 O   0  0  0  0  0  0  0  0  0  0  0  0
   -2.5380    5.3740   -0.3770 O   0  0  0  0  0  0  0  0  0  0  0  0
    1.9700   -1.9410    0.6330 C   0  0  0  0  0  0  0  0  0  0  0  0
    2.6020   -2.2760   -0.3430 O   0  0  0  0  0  0  0  0  0  0  0  0
    2.0750   -2.4390    1.9320 O   0  0  0  0  0  0  0  0  0  0  0  0
    1.5810   -1.7310    3.0200 C   0  0  0  0  0  0  0  0  0  0  0  0
    1.3520   -2.2980    4.1400 O   0  0  0  0  0  0  0  0  0  0  0  0
    1.3060   -0.2810    2.8980 C   0  0  0  0  0  0  0  0  0  0  0  0
    1.3670    0.0910    1.5110 N   0  0  0  0  0  0  0  0  0  0  0  0
    1.9080    1.3240    1.1610 C   0  0  0  0  0  0  0  0  0  0  0  0
    3.1570    1.3190    0.7640 N   0  0  0  0  0  0  0  0  0  0  0  0
    1.2680    2.5910    1.2030 N   0  0  0  0  0  0  0  0  0  0  0  0
    2.0660    4.0280    0.5600 P   0  0  0  0  0  0  0  0  0  0  0  0
    2.2750    5.2810    1.7060 O   0  0  0  0  0  0  0  0  0  0  0  0
    3.8100    3.6220   -0.6480 P   0  0  0  0  0  0  0  0  0  0  0  0
    4.1810    4.8330   -1.7930 O   0  0  0  0  0  0  0  0  0  0  0  0
    5.1550    3.0210    0.2070 O   0  0  0  0  0  0  0  0  0  0  0  0
   -2.3030   -3.0030    0.5670 C   0  0  0  0  0  0  0  0  0  0  0  0
   -2.5370   -3.0150    1.8090 O   0  0  0  0  0  0  0  0  0  0  0  0
  2  1  1  1
  2  3  1  0
  2  4  1  0
  2 34  1  0
  4  5  1  0
  5  6  1  0
  6  7  1  0
  7  8  1  0
  7 34  1  0
  8  9  2  0
  8 10  1  0
 10 11  1  6
 10 19  1  0
 10 25  1  0
 11 12  1  0
 12 13  2  0
 12 14  1  0
 14 15  1  0
 15 16  1  0
 16 17  1  0
 17 18  1  0
 19 20  2  0
 19 21  1  0
 21 22  1  0
 22 23  2  0
 22 24  1  0
 24 25  1  0
 25 26  1  0
 26 27  2  0
 26 28  1  0
 28 29  1  0
 29 30  1  0
 29 31  1  0
 31 32  1  0
 31 33  1  0
 34 35  2  0
M  END
