
     RDKit          3D

 35 38  0  0  0  0  0  0  0  0999 V2000
    0.4140    4.6380    2.1550 N   0  0  0  0  0  0  0  0  0  0  0  0
   -0.5690    5.3370    1.4270 C   0  0  0  0  0  0  0  0  0  0  0  0
   -0.9640    6.4470    1.8500 O   0  0  0  0  0  0  0  0  0  0  0  0
   -1.1110    4.7420    0.1810 C   0  0  0  0  0  0  0  0  0  0  0  0
   -0.5000    3.4550   -0.1000 N   0  0  0  0  0  0  0  0  0  0  0  0
   -0.9760    2.8250   -1.2910 C   0  0  0  0  0  0  0  0  0  0  0  0
   -1.5210    1.6200   -0.5130 C   0  0  1  0  0  0  0  0  0  0  0  0
   -3.0150    1.5680   -0.6930 C   0  0  0  0  0  0  0  0  0  0  0  0
   -3.6700    0.9120    0.3800 O   0  0  0  0  0  0  0  0  0  0  0  0
   -3.1370   -0.1490    1.1010 C   0  0  0  0  0  0  0  0  0  0  0  0
   -3.8410   -0.5850    2.0330 O   0  0  0  0  0  0  0  0  0  0  0  0
   -1.8090   -0.8320    0.8860 C   0  0  1  0  0  0  0  0  0  0  0  0
   -2.0420   -2.2600    1.2420 C   0  0  0  0  0  0  0  0  0  0  0  0
   -1.5490   -2.9440    2.3180 N   0  0  0  0  0  0  0  0  0  0  0  0
   -1.9950   -4.1820    2.2610 C   0  0  0  0  0  0  0  0  0  0  0  0
   -2.7810   -4.2920    1.1380 C   0  0  0  0  0  0  0  0  0  0  0  0
   -2.7770   -3.0970    0.5530 O   0  0  0  0  0  0  0  0  0  0  0  0
   -3.3400   -5.5640    0.9330 N   0  0  0  0  0  0  0  0  0  0  0  0
   -2.5960   -6.5980    1.3780 O   0  0  0  0  0  0  0  0  0  0  0  0
   -2.1030   -5.9120    2.9350 P   0  0  0  0  0  0  0  0  0  0  0  0
   -3.5150   -5.9460    3.9440 O   0  0  0  0  0  0  0  0  0  0  0  0
   -1.5340   -0.7700   -0.4630 O   0  0  0  0  0  0  0  0  0  0  0  0
   -0.8400    0.3420   -0.8810 C   0  0  2  0  0  0  0  0  0  0  0  0
    0.5690    0.2620   -0.5350 C   0  0  0  0  0  0  0  0  0  0  0  0
    1.3230    1.2430   -0.8470 O   0  0  0  0  0  0  0  0  0  0  0  0
    1.2190   -0.8100    0.1280 N   0  0  0  0  0  0  0  0  0  0  0  0
    2.6170   -0.7840    0.4210 C   0  0  0  0  0  0  0  0  0  0  0  0
    3.4980   -0.6620   -0.7830 C   0  0  0  0  0  0  0  0  0  0  0  0
    3.3280   -1.7220   -1.6780 O   0  0  0  0  0  0  0  0  0  0  0  0
    4.3780   -1.5110   -3.0390 P   0  0  0  0  0  0  0  0  0  0  0  0
    4.6180    0.1590   -3.4110 O   0  0  0  0  0  0  0  0  0  0  0  0
    5.9320   -2.2300   -2.7590 O   0  0  0  0  0  0  0  0  0  0  0  0
    6.8690   -1.3290   -2.5650 O   0  0  0  0  0  0  0  0  0  0  0  0
    7.1680   -1.2830   -1.3030 O   0  0  0  0  0  0  0  0  0  0  0  0
   -1.0210    2.3490    0.6790 C   0  0  0  0  0  0  0  0  0  0  0  0
  1  2  1  0
  2  3  2  0
  2  4  1  0
  4  5  1  0
  5  6  1  0
  5 35  1  0
  7  6  1  6
  7  8  1  0
  7 23  1  0
  7 35  1  0
  8  9  1  0
  9 10  1  0
 10 11  2  0
 10 12  1  0
 12 13  1  6
 12 22  1  0
 13 14  2  0
 13 17  1  0
 14 15  1  0
 15 16  2  0
 15 20  1  0
 16 17  1  0
 16 18  1  0
 18 19  1  0
 19 20  1  0
 20 21  1  0
 22 23  1  0
 23 24  1  1
 24 25  2  0
 24 26  1  0
 26 27  1  0
 27 28  1  0
 28 29  1  0
 29 30  1  0
 30 31  1  0
 30 32  1  0
 32 33  1  0
 33 34  1  0
M  END
