
     RDKit          3D

 35 36  0  0  0  0  0  0  0  0999 V2000
   -0.5750   -3.6830    2.1740 C   0  0  0  0  0  0  0  0  0  0  0  0
   -0.0770   -3.9330    0.8430 N   0  0  0  0  0  0  0  0  0  0  0  0
    0.7120   -5.1380    0.7000 C   0  0  0  0  0  0  0  0  0  0  0  0
    1.2290   -5.4440   -0.5720 N   0  0  0  0  0  0  0  0  0  0  0  0
    0.9240   -5.8750    1.6650 O   0  0  0  0  0  0  0  0  0  0  0  0
   -0.3070   -3.0960   -0.2720 C   0  0  0  0  0  0  0  0  0  0  0  0
    0.2160   -3.5670   -1.3690 O   0  0  0  0  0  0  0  0  0  0  0  0
   -0.9980   -1.8870   -0.3350 N   0  0  0  0  0  0  0  0  0  0  0  0
   -1.4950   -1.3200    0.8390 N   0  0  0  0  0  0  0  0  0  0  0  0
   -2.8110   -0.7490    1.0370 C   0  0  0  0  0  0  0  0  0  0  0  0
   -3.1810   -0.6300    2.2240 O   0  0  0  0  0  0  0  0  0  0  0  0
   -3.7510   -0.3010    0.0410 N   0  0  0  0  0  0  0  0  0  0  0  0
   -3.5290   -0.4870   -1.4040 C   0  0  0  0  0  0  0  0  0  0  0  0
   -2.1040   -0.1410   -1.6730 C   0  0  2  0  0  0  0  0  0  0  0  0
   -1.7070    0.8700   -0.7950 O   0  0  0  0  0  0  0  0  0  0  0  0
   -2.4800    1.9930   -1.0740 C   0  0  0  0  0  0  0  0  0  0  0  0
   -2.1250    3.1560   -0.1730 C   0  0  0  0  0  0  0  0  0  0  0  0
   -2.9720    4.2160   -0.5560 O   0  0  0  0  0  0  0  0  0  0  0  0
   -2.6350    5.6190    0.4370 P   0  0  0  0  0  0  0  0  0  0  0  0
   -2.4000    6.9580   -0.6120 O   0  0  0  0  0  0  0  0  0  0  0  0
   -3.9430    5.8630    1.5490 O   0  0  0  0  0  0  0  0  0  0  0  0
   -1.8670    0.3640   -2.9740 O   0  0  0  0  0  0  0  0  0  0  0  0
   -0.5040    0.2560   -3.1950 C   0  0  0  0  0  0  0  0  0  0  0  0
    0.1440    0.9490   -3.9890 O   0  0  0  0  0  0  0  0  0  0  0  0
    0.0500   -0.8220   -2.3290 C   0  0  1  0  0  0  0  0  0  0  0  0
    1.1580   -0.3530   -1.4550 C   0  0  0  0  0  0  0  0  0  0  0  0
    0.8600    0.6440   -0.5800 O   0  0  0  0  0  0  0  0  0  0  0  0
    1.8660    1.0810    0.2190 C   0  0  0  0  0  0  0  0  0  0  0  0
    2.4650    0.0280    1.1230 C   0  0  0  0  0  0  0  0  0  0  0  0
    3.5730    0.6320    1.9680 C   0  0  0  0  0  0  0  0  0  0  0  0
    4.5920    1.1510    1.1730 O   0  0  0  0  0  0  0  0  0  0  0  0
    5.8630    1.8420    2.0860 P   0  0  0  0  0  0  0  0  0  0  0  0
    6.6900    3.0210    1.1190 O   0  0  0  0  0  0  0  0  0  0  0  0
    6.9470    0.6920    2.7550 O   0  0  0  0  0  0  0  0  0  0  0  0
   -1.1700   -1.3330   -1.6580 C   0  0  1  0  0  0  0  0  0  0  0  0
  1  2  1  0
  2  3  1  0
  2  6  1  0
  3  4  1  0
  3  5  2  0
  6  7  2  0
  6  8  1  0
  8  9  1  0
 35  8  1  1
  9 10  1  0
 10 11  2  0
 10 12  1  0
 12 13  1  0
 13 14  1  0
 14 15  1  1
 14 22  1  0
 14 35  1  0
 15 16  1  0
 16 17  1  0
 17 18  1  0
 18 19  1  0
 19 20  1  0
 19 21  1  0
 22 23  1  0
 23 24  2  0
 23 25  1  0
 25 26  1  1
 25 35  1  0
 26 27  1  0
 27 28  1  0
 28 29  1  0
 29 30  1  0
 30 31  1  0
 31 32  1  0
 32 33  1  0
 32 34  1  0
M  END
