
     RDKit          3D

 36 39  0  0  0  0  0  0  0  0999 V2000
    9.2110   -2.2860    0.3360 N   0  0  0  0  0  0  0  0  0  0  0  0
    8.5470   -1.1390    0.9030 C   0  0  0  0  0  0  0  0  0  0  0  0
    9.1650   -0.0350    1.3010 N   0  0  0  0  0  0  0  0  0  0  0  0
    8.4350    1.0880    1.5900 C   0  0  0  0  0  0  0  0  0  0  0  0
    7.0920    1.1250    1.4760 N   0  0  0  0  0  0  0  0  0  0  0  0
    6.4520    0.0410    1.0770 C   0  0  0  0  0  0  0  0  0  0  0  0
    7.1420   -1.1280    0.7840 C   0  0  0  0  0  0  0  0  0  0  0  0
    6.2470   -2.0400    0.4140 N   0  0  0  0  0  0  0  0  0  0  0  0
    5.0590   -1.4740    0.4630 C   0  0  0  0  0  0  0  0  0  0  0  0
    5.1370   -0.1930    0.8510 N   0  0  0  0  0  0  0  0  0  0  0  0
    4.1180    0.7990    0.6340 C   0  0  2  0  0  0  0  0  0  0  0  0
    2.8620    0.5440    1.0870 O   0  0  0  0  0  0  0  0  0  0  0  0
    2.0920    1.2920    0.2930 C   0  0  2  0  0  0  0  0  0  0  0  0
    0.5950    1.2370    0.2860 C   0  0  0  0  0  0  0  0  0  0  0  0
    0.1840   -0.0520    0.0110 O   0  0  0  0  0  0  0  0  0  0  0  0
   -1.1720    0.0900   -0.9130 P   0  0  0  0  0  0  0  0  0  0  0  0
   -1.3730    1.4830   -1.7820 O   0  0  0  0  0  0  0  0  0  0  0  0
   -2.0540   -1.2420   -1.3230 O   0  0  0  0  0  0  0  0  0  0  0  0
   -2.0710    0.4480    0.1860 O   0  0  0  0  0  0  0  0  0  0  0  0
   -2.6260   -0.1350    1.4460 P   0  0  0  0  0  0  0  0  0  0  0  0
   -2.6860   -1.6410    0.6350 O   0  0  0  0  0  0  0  0  0  0  0  0
   -2.9880   -0.9080    2.7710 O   0  0  0  0  0  0  0  0  0  0  0  0
   -4.0030    0.6660    1.4270 O   0  0  0  0  0  0  0  0  0  0  0  0
   -4.6270    1.0090    0.2670 C   0  0  0  0  0  0  0  0  0  0  0  0
   -5.2170   -0.2800   -0.3320 C   0  0  1  0  0  0  0  0  0  0  0  0
   -5.7030   -1.1070    0.6420 O   0  0  0  0  0  0  0  0  0  0  0  0
   -6.9700   -0.7880    0.9970 C   0  0  2  0  0  0  0  0  0  0  0  0
   -7.7220   -1.9700    1.1580 O   0  0  0  0  0  0  0  0  0  0  0  0
   -7.5620   -0.0340   -0.1830 C   0  0  2  0  0  0  0  0  0  0  0  0
   -8.6770   -0.6940   -0.6890 O   0  0  0  0  0  0  0  0  0  0  0  0
   -6.4340    0.0230   -1.1760 C   0  0  2  0  0  0  0  0  0  0  0  0
   -6.6380   -0.9960   -2.1200 O   0  0  0  0  0  0  0  0  0  0  0  0
    2.5040    0.6920   -1.1090 C   0  0  1  0  0  0  0  0  0  0  0  0
    2.0510    1.5890   -2.0570 O   0  0  0  0  0  0  0  0  0  0  0  0
    3.9780    0.7450   -0.9490 C   0  0  1  0  0  0  0  0  0  0  0  0
    4.6280    1.7860   -1.5410 O   0  0  0  0  0  0  0  0  0  0  0  0
  1  2  1  0
  2  3  2  0
  2  7  1  0
  3  4  1  0
  4  5  2  0
  5  6  1  0
  6  7  2  0
  6 10  1  0
  7  8  1  0
  8  9  2  0
  9 10  1  0
 11 10  1  1
 11 12  1  0
 11 35  1  0
 12 13  1  0
 13 14  1  1
 13 33  1  0
 14 15  1  0
 15 16  1  0
 16 17  1  0
 16 18  1  0
 16 19  1  0
 19 20  1  0
 20 21  1  0
 20 22  1  0
 20 23  1  0
 23 24  1  0
 25 24  1  1
 25 26  1  0
 25 31  1  0
 26 27  1  0
 27 28  1  6
 27 29  1  0
 29 30  1  6
 29 31  1  0
 31 32  1  6
 33 34  1  6
 33 35  1  0
 35 36  1  6
M  END
