
     RDKit          3D

 35 37  0  0  0  0  0  0  0  0999 V2000
    2.9880   -0.8050    1.3900 O   0  0  0  0  0  0  0  0  0  0  0  0
    2.5850   -0.2710    0.3390 C   0  0  0  0  0  0  0  0  0  0  0  0
    3.4630   -0.1240   -0.7670 N   0  0  0  0  0  0  0  0  0  0  0  0
    4.8290   -0.5510   -0.7810 C   0  0  0  0  0  0  0  0  0  0  0  0
    5.5960    0.1820    0.2910 C   0  0  0  0  0  0  0  0  0  0  0  0
    5.4890    1.5520   -0.0180 O   0  0  0  0  0  0  0  0  0  0  0  0
    6.3370    2.5080    1.1540 P   0  0  0  0  0  0  0  0  0  0  0  0
    6.3010    1.7120    2.6860 O   0  0  0  0  0  0  0  0  0  0  0  0
    7.9470    2.8910    0.6470 O   0  0  0  0  0  0  0  0  0  0  0  0
    8.6340    1.6240   -0.3110 P   0  0  0  0  0  0  0  0  0  0  0  0
   10.0610    0.9960    0.4370 O   0  0  0  0  0  0  0  0  0  0  0  0
    9.0270    2.2430   -1.8770 O   0  0  0  0  0  0  0  0  0  0  0  0
    1.2000    0.2390    0.1650 C   0  0  1  0  0  0  0  0  0  0  0  0
    0.5500   -0.5280   -0.9880 C   0  0  0  0  0  0  0  0  0  0  0  0
   -0.7230   -0.0230   -1.1630 O   0  0  0  0  0  0  0  0  0  0  0  0
   -1.5950   -0.4070   -0.1060 C   0  0  2  0  0  0  0  0  0  0  0  0
   -2.2400   -1.6650   -0.5430 C   0  0  0  0  0  0  0  0  0  0  0  0
   -3.1790   -2.2670    0.3360 N   0  0  0  0  0  0  0  0  0  0  0  0
   -3.3990   -3.6850   -0.0790 C   0  0  0  0  0  0  0  0  0  0  0  0
   -4.3630   -4.2330    0.9480 C   0  0  0  0  0  0  0  0  0  0  0  0
   -5.6280   -3.7500    0.6330 O   0  0  0  0  0  0  0  0  0  0  0  0
   -5.6100   -2.5670   -0.0520 C   0  0  0  0  0  0  0  0  0  0  0  0
   -4.4910   -1.6340    0.3430 C   0  0  0  0  0  0  0  0  0  0  0  0
   -2.4540    0.7660    0.1700 C   0  0  0  0  0  0  0  0  0  0  0  0
   -3.1890    0.8260    1.1920 O   0  0  0  0  0  0  0  0  0  0  0  0
   -2.5050    1.8550   -0.6620 O   0  0  0  0  0  0  0  0  0  0  0  0
   -3.2330    3.0290   -0.5980 C   0  0  0  0  0  0  0  0  0  0  0  0
   -4.6820    2.9590   -0.7090 C   0  0  0  0  0  0  0  0  0  0  0  0
   -5.3610    3.3540   -1.7740 N   0  0  0  0  0  0  0  0  0  0  0  0
   -6.6940    3.1660   -1.5820 O   0  0  0  0  0  0  0  0  0  0  0  0
   -6.8920    3.1460   -0.2040 N   0  0  0  0  0  0  0  0  0  0  0  0
   -5.6730    2.5020    0.1780 N   0  0  0  0  0  0  0  0  0  0  0  0
   -0.8600   -0.6620    1.0790 O   0  0  0  0  0  0  0  0  0  0  0  0
    0.3500   -0.0390    1.3530 C   0  0  0  0  0  0  0  0  0  0  0  0
    0.7410    0.2850    2.4940 O   0  0  0  0  0  0  0  0  0  0  0  0
  1  2  2  0
  2  3  1  0
 13  2  1  1
  3  4  1  0
  4  5  1  0
  5  6  1  0
  6  7  1  0
  7  8  1  0
  7  9  1  0
  9 10  1  0
 10 11  1  0
 10 12  1  0
 13 14  1  0
 13 34  1  0
 14 15  1  0
 15 16  1  0
 16 17  1  6
 16 24  1  0
 16 33  1  0
 17 18  1  0
 18 19  1  0
 18 23  1  0
 19 20  1  0
 20 21  1  0
 21 22  1  0
 22 23  1  0
 24 25  2  0
 24 26  1  0
 26 27  1  0
 27 28  1  0
 28 29  2  0
 28 32  1  0
 29 30  1  0
 30 31  1  0
 31 32  1  0
 33 34  1  0
 34 35  2  0
M  END
