
     RDKit          3D

 35 39  0  0  0  0  0  0  0  0999 V2000
    1.2510   -0.4520    1.6800 O   0  0  0  0  0  0  0  0  0  0  0  0
    1.0270   -0.7710    0.4970 C   0  0  0  0  0  0  0  0  0  0  0  0
    2.0520   -1.1750   -0.3120 O   0  0  0  0  0  0  0  0  0  0  0  0
    3.4000   -1.2680    0.0830 C   0  0  0  0  0  0  0  0  0  0  0  0
    3.8820    0.0860    0.5220 C   0  0  2  0  0  0  0  0  0  0  0  0
    3.7480    0.9620   -0.5750 O   0  0  0  0  0  0  0  0  0  0  0  0
    4.8870    0.8090   -1.3430 C   0  0  0  0  0  0  0  0  0  0  0  0
    5.3890    1.0280   -2.5880 N   0  0  0  0  0  0  0  0  0  0  0  0
    6.6420    0.5960   -2.6020 N   0  0  0  0  0  0  0  0  0  0  0  0
    6.9850    0.0990   -1.4110 C   0  0  0  0  0  0  0  0  0  0  0  0
    8.1990   -0.4680   -0.9570 N   0  0  0  0  0  0  0  0  0  0  0  0
    9.4200    0.6250   -0.2330 P   0  0  0  0  0  0  0  0  0  0  0  0
    8.6840    1.9210    0.6500 O   0  0  0  0  0  0  0  0  0  0  0  0
   10.5320   -0.2760    0.7540 O   0  0  0  0  0  0  0  0  0  0  0  0
    5.8810    0.2370   -0.6340 N   0  0  0  0  0  0  0  0  0  0  0  0
    5.3560    0.0070    0.6680 C   0  0  0  0  0  0  0  0  0  0  0  0
    5.9540   -0.2180    1.7440 O   0  0  0  0  0  0  0  0  0  0  0  0
   -0.3230   -0.7140   -0.0250 C   0  0  0  0  0  0  0  0  0  0  0  0
   -0.6290   -1.0560   -1.3290 C   0  0  0  0  0  0  0  0  0  0  0  0
   -1.8780   -1.0080   -1.8240 N   0  0  0  0  0  0  0  0  0  0  0  0
   -2.9220   -0.6170   -1.0680 C   0  0  0  0  0  0  0  0  0  0  0  0
   -2.6840   -0.2620    0.2430 C   0  0  0  0  0  0  0  0  0  0  0  0
   -1.4040   -0.3120    0.7520 C   0  0  0  0  0  0  0  0  0  0  0  0
   -3.9160    0.1030    0.8140 O   0  0  0  0  0  0  0  0  0  0  0  0
   -4.9300   -0.3540   -0.0920 C   0  0  1  0  0  0  0  0  0  0  0  0
   -5.4740   -1.6460    0.4450 C   0  0  0  0  0  0  0  0  0  0  0  0
   -6.0370   -1.3930    1.6940 O   0  0  0  0  0  0  0  0  0  0  0  0
   -7.0580   -0.4390    1.5700 C   0  0  0  0  0  0  0  0  0  0  0  0
   -6.5290    0.7930    1.1870 O   0  0  0  0  0  0  0  0  0  0  0  0
   -5.9960    0.7400   -0.1060 C   0  0  2  0  0  0  0  0  0  0  0  0
   -6.9610    0.4980   -1.0590 O   0  0  0  0  0  0  0  0  0  0  0  0
   -6.9540    1.8020   -2.2020 P   0  0  0  0  0  0  0  0  0  0  0  0
   -6.3110    3.2280   -1.4530 O   0  0  0  0  0  0  0  0  0  0  0  0
   -8.5880    2.1470   -2.6730 O   0  0  0  0  0  0  0  0  0  0  0  0
   -4.2990   -0.4790   -1.3330 O   0  0  0  0  0  0  0  0  0  0  0  0
  1  2  2  0
  2  3  1  0
  2 18  1  0
  3  4  1  0
  5  4  1  6
  5  6  1  0
  5 16  1  0
  6  7  1  0
  7  8  2  0
  7 15  1  0
  8  9  1  0
  9 10  2  0
 10 11  1  0
 10 15  1  0
 11 12  1  0
 12 13  1  0
 12 14  1  0
 15 16  1  0
 16 17  2  0
 18 19  2  0
 18 23  1  0
 19 20  1  0
 20 21  2  0
 21 22  1  0
 21 35  1  0
 22 23  2  0
 22 24  1  0
 24 25  1  0
 25 26  1  1
 25 30  1  0
 25 35  1  0
 26 27  1  0
 27 28  1  0
 28 29  1  0
 29 30  1  0
 30 31  1  6
 31 32  1  0
 32 33  1  0
 32 34  1  0
M  END
