
     RDKit          3D

 46 50  0  0  0  0  0  0  0  0999 V2000
    1.5920    0.3570    3.8420 C   0  0  0  0  0  0  0  0  0  0  0  0
    2.2650    0.0720    2.5460 C   0  0  0  0  0  0  0  0  0  0  0  0
    3.0630   -1.0310    2.3910 C   0  0  0  0  0  0  0  0  0  0  0  0
    3.7010   -1.3170    1.2020 C   0  0  0  0  0  0  0  0  0  0  0  0
    3.5670   -0.5020    0.0980 C   0  0  0  0  0  0  0  0  0  0  0  0
    4.2700   -0.7730   -1.1160 N   0  0  0  0  0  0  0  0  0  0  0  0
    5.6130   -1.2390   -1.0280 C   0  0  0  0  0  0  0  0  0  0  0  0
    6.1830   -1.3830    0.0910 O   0  0  0  0  0  0  0  0  0  0  0  0
    6.3930   -1.5620   -2.1880 N   0  0  0  0  0  0  0  0  0  0  0  0
    7.7400   -2.0000   -2.0330 C   0  0  0  0  0  0  0  0  0  0  0  0
    7.9570   -3.2320   -1.2230 C   0  0  1  0  0  0  0  0  0  0  0  0
    7.4670   -4.5060   -1.8510 C   0  0  0  0  0  0  0  0  0  0  0  0
    8.4830   -5.5600   -1.4490 C   0  0  0  0  0  0  0  0  0  0  0  0
    9.4360   -4.7300   -0.6040 C   0  0  0  0  0  0  0  0  0  0  0  0
    9.3680   -3.4450   -1.2010 O   0  0  0  0  0  0  0  0  0  0  0  0
    2.7660    0.6080    0.2480 C   0  0  0  0  0  0  0  0  0  0  0  0
    2.1190    0.9100    1.4320 C   0  0  0  0  0  0  0  0  0  0  0  0
    1.3140    2.0880    1.5730 C   0  0  0  0  0  0  0  0  0  0  0  0
    0.0730    2.3060    1.8010 C   0  0  0  0  0  0  0  0  0  0  0  0
   -0.3660    3.7390    1.8890 C   0  0  0  0  0  0  0  0  0  0  0  0
   -1.3640    4.0920    0.9080 N   0  0  0  0  0  0  0  0  0  0  0  0
   -1.8500    5.4250    0.8960 C   0  0  0  0  0  0  0  0  0  0  0  0
   -1.3580    6.2310    1.7680 O   0  0  0  0  0  0  0  0  0  0  0  0
   -2.8500    5.9350   -0.0250 C   0  0  2  0  0  0  0  0  0  0  0  0
   -3.3490    4.9820   -0.9250 O   0  0  0  0  0  0  0  0  0  0  0  0
   -3.8710    5.7480   -1.9840 C   0  0  0  0  0  0  0  0  0  0  0  0
   -4.7420    5.3840   -2.8120 O   0  0  0  0  0  0  0  0  0  0  0  0
   -3.2720    6.9970   -1.9830 O   0  0  0  0  0  0  0  0  0  0  0  0
   -2.2690    6.9670   -0.9950 C   0  0  2  0  0  0  0  0  0  0  0  0
   -1.0040    6.4570   -1.6300 C   0  0  0  0  0  0  0  0  0  0  0  0
   -0.9770    1.3160    1.8690 C   0  0  0  0  0  0  0  0  0  0  0  0
   -2.2490    1.6770    2.3300 C   0  0  0  0  0  0  0  0  0  0  0  0
   -3.2930    0.8090    2.3660 C   0  0  0  0  0  0  0  0  0  0  0  0
   -3.1310   -0.4890    1.9400 C   0  0  0  0  0  0  0  0  0  0  0  0
   -4.2490   -1.3180    2.0080 O   0  0  0  0  0  0  0  0  0  0  0  0
   -5.1890   -1.2650    0.9570 C   0  0  0  0  0  0  0  0  0  0  0  0
   -4.9210   -0.4580    0.0420 O   0  0  0  0  0  0  0  0  0  0  0  0
   -6.3610   -2.1010    0.9750 C   0  0  0  0  0  0  0  0  0  0  0  0
   -7.3230   -2.1860    0.1150 C   0  0  0  0  0  0  0  0  0  0  0  0
   -7.4340   -1.4090   -1.1290 C   0  0  0  0  0  0  0  0  0  0  0  0
   -7.4150   -2.3980   -2.2820 C   0  0  0  0  0  0  0  0  0  0  0  0
   -6.9750   -4.0740   -1.6780 S   0  0  0  0  0  0  0  0  0  0  0  0
   -7.9610   -4.4820   -0.2080 C   0  0  0  0  0  0  0  0  0  0  0  0
   -8.4510   -3.1610    0.3610 C   0  0  0  0  0  0  0  0  0  0  0  0
   -1.9050   -0.9110    1.4730 C   0  0  0  0  0  0  0  0  0  0  0  0
   -0.8530    0.0120    1.4500 C   0  0  0  0  0  0  0  0  0  0  0  0
  1  2  1  0
  2  3  2  0
  2 17  1  0
  3  4  1  0
  4  5  2  0
  5  6  1  0
  5 16  1  0
  6  7  1  0
  7  8  2  0
  7  9  1  0
  9 10  1  0
 11 10  1  6
 11 12  1  0
 11 15  1  0
 12 13  1  0
 13 14  1  0
 14 15  1  0
 16 17  2  0
 17 18  1  0
 18 19  2  3
 19 20  1  0
 19 31  1  0
 20 21  1  0
 21 22  1  0
 22 23  2  0
 24 22  1  1
 24 25  1  0
 24 29  1  0
 25 26  1  0
 26 27  2  0
 26 28  1  0
 28 29  1  0
 29 30  1  6
 31 32  2  0
 31 46  1  0
 32 33  1  0
 33 34  2  0
 34 35  1  0
 34 45  1  0
 35 36  1  0
 36 37  2  0
 36 38  1  0
 38 39  2  3
 39 40  1  0
 39 44  1  0
 40 41  1  0
 41 42  1  0
 42 43  1  0
 43 44  1  0
 45 46  2  0
M  END
