
     RDKit          3D

 41 44  0  0  0  0  0  0  0  0999 V2000
   -1.3820    3.2320   -3.4630 C   0  0  0  0  0  0  0  0  0  0  0  0
   -2.0410    2.9460   -2.1660 C   0  0  0  0  0  0  0  0  0  0  0  0
   -1.9120    3.7470   -1.1920 O   0  0  0  0  0  0  0  0  0  0  0  0
   -2.8160    1.7970   -1.9770 N   0  0  0  0  0  0  0  0  0  0  0  0
   -3.4680    1.5110   -0.6880 C   0  0  1  0  0  0  0  0  0  0  0  0
   -4.9630    1.4920   -0.8600 C   0  0  0  0  0  0  0  0  0  0  0  0
   -5.2490    0.4280   -1.9450 C   0  0  0  0  0  0  0  0  0  0  0  0
   -4.5230   -0.8290   -1.4790 C   0  0  0  0  0  0  0  0  0  0  0  0
   -4.0720   -0.6780   -0.1830 O   0  0  0  0  0  0  0  0  0  0  0  0
   -2.9850    0.1960   -0.1460 C   0  0  2  0  0  0  0  0  0  0  0  0
   -2.4720    0.3400    1.2350 C   0  0  0  0  0  0  0  0  0  0  0  0
   -2.9130    1.3390    2.0300 C   0  0  0  0  0  0  0  0  0  0  0  0
   -2.4750    1.4250    3.3370 C   0  0  0  0  0  0  0  0  0  0  0  0
   -1.6050    0.4980    3.8070 C   0  0  0  0  0  0  0  0  0  0  0  0
   -1.1850   -0.4900    2.9780 C   0  0  0  0  0  0  0  0  0  0  0  0
   -1.5660   -0.6590    1.6550 C   0  0  0  0  0  0  0  0  0  0  0  0
   -1.0740   -1.7660    0.9040 C   0  0  2  0  0  0  0  0  0  0  0  0
   -0.6370   -2.9600    1.7390 C   0  0  0  0  0  0  0  0  0  0  0  0
    0.5780   -3.5380    1.6380 C   0  0  0  0  0  0  0  0  0  0  0  0
    0.9780   -4.6170    2.4090 C   0  0  0  0  0  0  0  0  0  0  0  0
    0.0930   -5.1320    3.3300 C   0  0  0  0  0  0  0  0  0  0  0  0
   -1.1090   -4.5740    3.4430 N   0  0  0  0  0  0  0  0  0  0  0  0
   -1.4780   -3.5330    2.6910 C   0  0  0  0  0  0  0  0  0  0  0  0
   -0.4770   -1.7550   -0.4070 C   0  0  0  0  0  0  0  0  0  0  0  0
   -0.8810   -2.6530   -1.4300 C   0  0  0  0  0  0  0  0  0  0  0  0
   -1.8830   -3.6180   -1.1350 N   0  0  0  0  0  0  0  0  0  0  0  0
   -0.3620   -2.6490   -2.6960 C   0  0  0  0  0  0  0  0  0  0  0  0
    0.6090   -1.7410   -3.0400 C   0  0  0  0  0  0  0  0  0  0  0  0
    1.1920   -1.7290   -4.4410 C   0  0  0  0  0  0  0  0  0  0  0  0
    1.0230   -0.8710   -2.1010 C   0  0  0  0  0  0  0  0  0  0  0  0
    0.4860   -0.8870   -0.8170 C   0  0  0  0  0  0  0  0  0  0  0  0
    1.0820    0.0620    0.0580 C   0  0  0  0  0  0  0  0  0  0  0  0
    1.2800   -0.1700    1.2590 O   0  0  0  0  0  0  0  0  0  0  0  0
    1.4620    1.3050   -0.4000 O   0  0  0  0  0  0  0  0  0  0  0  0
    2.0420    2.3540    0.2780 C   0  0  0  0  0  0  0  0  0  0  0  0
    3.3900    2.1240    0.8740 C   0  0  0  0  0  0  0  0  0  0  0  0
    4.4070    1.7730   -0.1520 C   0  0  0  0  0  0  0  0  0  0  0  0
    5.9920    1.5580    0.7840 S   0  0  0  0  0  0  0  0  0  0  0  0
    6.5730    3.2770    1.0120 C   0  0  0  0  0  0  0  0  0  0  0  0
    5.4490    1.0510    2.4250 C   0  0  0  0  0  0  0  0  0  0  0  0
    6.9860    0.6310    0.0960 O   0  0  0  0  0  0  0  0  0  0  0  0
  1  2  1  0
  2  3  2  0
  2  4  1  0
  5  4  1  6
  5  6  1  0
  5 10  1  0
  6  7  1  0
  7  8  1  0
  8  9  1  0
  9 10  1  0
 10 11  1  1
 11 12  2  0
 11 16  1  0
 12 13  1  0
 13 14  2  0
 14 15  1  0
 15 16  2  0
 17 16  1  1
 17 18  1  0
 17 24  1  0
 18 19  2  0
 18 23  1  0
 19 20  1  0
 20 21  2  0
 21 22  1  0
 22 23  2  0
 24 25  2  0
 24 31  1  0
 25 26  1  0
 25 27  1  0
 27 28  2  0
 28 29  1  0
 28 30  1  0
 30 31  2  0
 31 32  1  0
 32 33  2  0
 32 34  1  0
 34 35  1  0
 35 36  1  0
 36 37  1  0
 37 38  1  0
 38 39  1  0
 38 40  1  0
 38 41  2  0
M  END
