
     RDKit          3D

 41 46  0  0  0  0  0  0  0  0999 V2000
   -6.4680    0.3690   -2.2440 C   0  0  0  0  0  0  0  0  0  0  0  0
   -6.6830   -0.8960   -1.5660 N   0  0  1  0  0  0  0  0  0  0  0  0
   -5.8360   -1.9370   -2.0830 C   0  0  0  0  0  0  0  0  0  0  0  0
   -4.3660   -1.5800   -1.9320 C   0  0  0  0  0  0  0  0  0  0  0  0
   -4.1990   -1.1400   -0.5500 N   0  0  0  0  0  0  0  0  0  0  0  0
   -2.9890   -0.5550   -0.1600 C   0  0  0  0  0  0  0  0  0  0  0  0
   -1.8950   -0.7050   -0.9900 C   0  0  0  0  0  0  0  0  0  0  0  0
   -0.6660   -0.1560   -0.6980 C   0  0  0  0  0  0  0  0  0  0  0  0
   -0.4910    0.5850    0.4780 C   0  0  0  0  0  0  0  0  0  0  0  0
    0.8340    1.1430    0.7010 C   0  0  0  0  0  0  0  0  0  0  0  0
    1.0600    1.8480    1.7180 O   0  0  0  0  0  0  0  0  0  0  0  0
    1.9470    0.9730   -0.1410 N   0  0  0  0  0  0  0  0  0  0  0  0
    3.2420    1.5380    0.0750 C   0  0  0  0  0  0  0  0  0  0  0  0
    3.6380    2.3320    1.0760 N   0  0  0  0  0  0  0  0  0  0  0  0
    4.9240    2.6750    0.9360 N   0  0  0  0  0  0  0  0  0  0  0  0
    5.4070    2.1090   -0.1690 C   0  0  0  0  0  0  0  0  0  0  0  0
    6.6500    2.1350   -0.7690 C   0  0  0  0  0  0  0  0  0  0  0  0
    6.8600    1.4230   -1.9530 C   0  0  0  0  0  0  0  0  0  0  0  0
    5.8070    0.7130   -2.4890 C   0  0  0  0  0  0  0  0  0  0  0  0
    5.9790   -0.0590   -3.7500 C   0  0  0  0  0  0  0  0  0  0  0  0
    6.5320   -1.3860   -3.3890 C   0  0  0  0  0  0  0  0  0  0  0  0
    5.7580   -2.4930   -3.1540 C   0  0  0  0  0  0  0  0  0  0  0  0
    6.2830   -3.7200   -2.8170 C   0  0  0  0  0  0  0  0  0  0  0  0
    5.4630   -4.7630   -2.5960 F   0  0  0  0  0  0  0  0  0  0  0  0
    7.6420   -3.8800   -2.7010 C   0  0  0  0  0  0  0  0  0  0  0  0
    8.4480   -2.7870   -2.9300 C   0  0  0  0  0  0  0  0  0  0  0  0
    9.7880   -2.9420   -2.8150 F   0  0  0  0  0  0  0  0  0  0  0  0
    7.9160   -1.5650   -3.2660 C   0  0  0  0  0  0  0  0  0  0  0  0
    4.5580    0.6950   -1.8770 C   0  0  0  0  0  0  0  0  0  0  0  0
    4.3620    1.3950   -0.7170 C   0  0  0  0  0  0  0  0  0  0  0  0
   -1.5530    0.7450    1.3100 C   0  0  0  0  0  0  0  0  0  0  0  0
   -1.4770    1.4650    2.5050 N   0  0  0  0  0  0  0  0  0  0  0  0
   -2.6020    1.6020    3.4470 C   0  0  2  0  0  0  0  0  0  0  0  0
   -2.1380    2.4860    4.5760 C   0  0  0  0  0  0  0  0  0  0  0  0
   -3.0130    2.5200    5.7740 C   0  0  0  0  0  0  0  0  0  0  0  0
   -3.5930    1.3020    6.0920 O   0  0  0  0  0  0  0  0  0  0  0  0
   -2.7980    0.3000    5.5550 C   0  0  0  0  0  0  0  0  0  0  0  0
   -2.9920    0.2620    4.0320 C   0  0  0  0  0  0  0  0  0  0  0  0
   -2.7720    0.1850    0.9910 C   0  0  0  0  0  0  0  0  0  0  0  0
   -5.2850   -1.3410    0.3520 C   0  0  0  0  0  0  0  0  0  0  0  0
   -6.5650   -0.7190   -0.1610 C   0  0  0  0  0  0  0  0  0  0  0  0
  2  1  1  6
  2  3  1  0
  2 41  1  0
  3  4  1  0
  4  5  1  0
  5  6  1  0
  5 40  1  0
  6  7  2  0
  6 39  1  0
  7  8  1  0
  8  9  2  0
  9 10  1  0
  9 31  1  0
 10 11  2  0
 10 12  1  0
 12 13  1  0
 13 14  1  0
 13 30  2  0
 14 15  1  0
 15 16  2  0
 16 17  1  0
 16 30  1  0
 17 18  2  0
 18 19  1  0
 19 20  1  0
 19 29  2  0
 20 21  1  0
 21 22  2  0
 21 28  1  0
 22 23  1  0
 23 24  1  0
 23 25  2  0
 25 26  1  0
 26 27  1  0
 26 28  2  0
 29 30  1  0
 31 32  1  0
 31 39  2  0
 33 32  1  6
 33 34  1  0
 33 38  1  0
 34 35  1  0
 35 36  1  0
 36 37  1  0
 37 38  1  0
 40 41  1  0
M  CHG  1   2   1
M  END
