
     RDKit          3D

 41 44  0  0  0  0  0  0  0  0999 V2000
    9.8980   -1.3370    0.1410 C   0  0  0  0  0  0  0  0  0  0  0  0
    8.5960   -1.4970   -0.0610 C   0  0  0  0  0  0  0  0  0  0  0  0
    8.0230   -2.8540    0.3120 C   0  0  0  0  0  0  0  0  0  0  0  0
    6.6080   -2.7000    0.6270 C   0  0  0  0  0  0  0  0  0  0  0  0
    5.8640   -1.6670    0.3690 C   0  0  0  0  0  0  0  0  0  0  0  0
    4.4120   -1.7030    0.7410 C   0  0  0  0  0  0  0  0  0  0  0  0
    3.9430   -2.6950    1.2800 O   0  0  0  0  0  0  0  0  0  0  0  0
    3.6870   -0.5160    0.4340 N   0  0  0  0  0  0  0  0  0  0  0  0
    2.3080   -0.3320    0.8060 C   0  0  0  0  0  0  0  0  0  0  0  0
    1.7240    0.9350    0.3780 C   0  0  0  0  0  0  0  0  0  0  0  0
    2.3740    1.8010   -0.4600 C   0  0  0  0  0  0  0  0  0  0  0  0
    1.8180    3.0250   -0.8090 C   0  0  0  0  0  0  0  0  0  0  0  0
    0.5850    3.3680   -0.2950 C   0  0  0  0  0  0  0  0  0  0  0  0
   -0.0620    2.4670    0.5590 C   0  0  0  0  0  0  0  0  0  0  0  0
    0.4630    1.2690    0.9120 C   0  0  0  0  0  0  0  0  0  0  0  0
   -0.1940    0.3080    1.7920 C   0  0  1  0  0  0  0  0  0  0  0  0
   -0.2290    0.9670    3.2300 C   0  0  0  0  0  0  0  0  0  0  0  0
   -1.0140    0.1020    4.1600 C   0  0  0  0  0  0  0  0  0  0  0  0
   -2.4970    0.2010    3.8800 C   0  0  0  0  0  0  0  0  0  0  0  0
   -2.5660    0.7750    2.4500 C   0  0  0  0  0  0  0  0  0  0  0  0
   -1.6230   -0.0170    1.5880 C   0  0  1  0  0  0  0  0  0  0  0  0
   -2.1290   -0.2240    0.2180 C   0  0  0  0  0  0  0  0  0  0  0  0
   -1.3160   -0.2380   -0.7350 O   0  0  0  0  0  0  0  0  0  0  0  0
   -3.4960   -0.4100   -0.0760 N   0  0  0  0  0  0  0  0  0  0  0  0
   -4.1130   -0.6130   -1.3080 C   0  0  0  0  0  0  0  0  0  0  0  0
   -3.5180   -1.0600   -2.4410 C   0  0  0  0  0  0  0  0  0  0  0  0
   -4.2780   -1.1910   -3.6300 C   0  0  0  0  0  0  0  0  0  0  0  0
   -5.6040   -0.8730   -3.6490 C   0  0  0  0  0  0  0  0  0  0  0  0
   -6.2480   -0.4080   -2.4970 C   0  0  0  0  0  0  0  0  0  0  0  0
   -7.6740   -0.0850   -2.6030 C   0  0  0  0  0  0  0  0  0  0  0  0
   -8.3780   -0.7520   -3.3800 O   0  0  0  0  0  0  0  0  0  0  0  0
   -8.2650    0.9610   -1.8460 N   0  0  0  0  0  0  0  0  0  0  0  0
   -9.6960    1.1970   -2.0290 C   0  0  0  0  0  0  0  0  0  0  0  0
  -10.5460    0.0210   -1.6590 C   0  0  0  0  0  0  0  0  0  0  0  0
  -10.2900   -0.4220    0.0900 S   0  0  0  0  0  0  0  0  0  0  0  0
   -5.4890   -0.2980   -1.3850 C   0  0  0  0  0  0  0  0  0  0  0  0
    6.3810   -0.5430   -0.1910 O   0  0  0  0  0  0  0  0  0  0  0  0
    7.7790   -0.4000   -0.4680 C   0  0  0  0  0  0  0  0  0  0  0  0
    8.1290    0.6930   -1.0630 C   0  0  0  0  0  0  0  0  0  0  0  0
    9.2350    1.3900   -1.5930 C   0  0  0  0  0  0  0  0  0  0  0  0
   10.5110    0.9970   -1.6350 O   0  0  0  0  0  0  0  0  0  0  0  0
  1  2  2  0
  2  3  1  0
  2 38  1  0
  3  4  1  0
  4  5  2  0
  5  6  1  0
  5 37  1  0
  6  7  2  0
  6  8  1  0
  8  9  1  0
  9 10  1  0
 10 11  2  0
 10 15  1  0
 11 12  1  0
 12 13  2  0
 13 14  1  0
 14 15  2  0
 16 15  1  6
 16 17  1  0
 16 21  1  0
 17 18  1  0
 18 19  1  0
 19 20  1  0
 20 21  1  0
 21 22  1  6
 22 23  2  0
 22 24  1  0
 24 25  1  0
 25 26  2  0
 25 36  1  0
 26 27  1  0
 27 28  2  0
 28 29  1  0
 29 30  1  0
 29 36  2  0
 30 31  2  0
 30 32  1  0
 32 33  1  0
 33 34  1  0
 34 35  1  0
 37 38  1  0
 38 39  2  3
 39 40  1  0
 40 41  1  0
M  END
