
     RDKit          3D

 34 36  0  0  0  0  0  0  0  0999 V2000
    7.2990   -0.4960   -1.1120 C   0  0  0  0  0  0  0  0  0  0  0  0
    6.1670   -1.2050   -0.7210 O   0  0  0  0  0  0  0  0  0  0  0  0
    5.0130   -0.5030   -0.3950 C   0  0  0  0  0  0  0  0  0  0  0  0
    4.8980    0.8420   -0.4350 C   0  0  0  0  0  0  0  0  0  0  0  0
    3.7290    1.4800   -0.1000 C   0  0  0  0  0  0  0  0  0  0  0  0
    2.6000    0.7900    0.2980 C   0  0  0  0  0  0  0  0  0  0  0  0
    1.4380    1.5710    0.6340 C   0  0  0  0  0  0  0  0  0  0  0  0
    1.4980    2.6190    1.5620 C   0  0  0  0  0  0  0  0  0  0  0  0
    0.3840    3.3890    1.8440 C   0  0  0  0  0  0  0  0  0  0  0  0
    0.5060    4.6920    3.0150 Cl  0  0  0  0  0  0  0  0  0  0  0  0
   -0.8010    3.1240    1.2040 C   0  0  0  0  0  0  0  0  0  0  0  0
   -1.9110    3.8940    1.4860 O   0  0  0  0  0  0  0  0  0  0  0  0
   -0.8450    2.1200    0.3200 N   0  0  0  0  0  0  0  0  0  0  0  0
    0.2280    1.3490    0.0250 C   0  0  0  0  0  0  0  0  0  0  0  0
    0.1360    0.2550   -0.9350 C   0  0  0  0  0  0  0  0  0  0  0  0
    0.9340    0.3940   -2.0570 C   0  0  0  0  0  0  0  0  0  0  0  0
    0.9560   -0.6190   -2.9840 C   0  0  0  0  0  0  0  0  0  0  0  0
    1.9310   -0.5450   -4.4490 Cl  0  0  0  0  0  0  0  0  0  0  0  0
    0.1850   -1.7560   -2.7840 C   0  0  0  0  0  0  0  0  0  0  0  0
   -0.5960   -1.8660   -1.6610 C   0  0  0  0  0  0  0  0  0  0  0  0
   -0.6440   -0.8480   -0.6910 C   0  0  0  0  0  0  0  0  0  0  0  0
   -1.5550   -1.0160    0.4360 C   0  0  0  0  0  0  0  0  0  0  0  0
   -1.4040   -1.9820    1.2580 O   0  0  0  0  0  0  0  0  0  0  0  0
   -2.6540   -0.1710    0.7230 N   0  0  0  0  0  0  0  0  0  0  0  0
   -3.5420   -0.3420    1.8530 C   0  0  0  0  0  0  0  0  0  0  0  0
   -4.6150    0.7210    1.8890 C   0  0  0  0  0  0  0  0  0  0  0  0
   -5.4670    0.7300    0.7340 N   0  0  0  0  0  0  0  0  0  0  0  0
   -6.3190   -0.4600    0.6600 C   0  0  0  0  0  0  0  0  0  0  0  0
   -7.1580   -0.3560   -0.5830 C   0  0  0  0  0  0  0  0  0  0  0  0
   -6.7050   -0.7030   -1.7390 N   0  0  0  0  0  0  0  0  0  0  0  0
    2.7270   -0.5670    0.3360 C   0  0  0  0  0  0  0  0  0  0  0  0
    3.8630   -1.2430    0.0140 C   0  0  0  0  0  0  0  0  0  0  0  0
    4.0270   -2.6120    0.0380 O   0  0  0  0  0  0  0  0  0  0  0  0
    3.0450   -3.5360    0.4000 C   0  0  0  0  0  0  0  0  0  0  0  0
  1  2  1  0
  2  3  1  0
  3  4  2  0
  3 32  1  0
  4  5  1  0
  5  6  2  0
  6  7  1  0
  6 31  1  0
  7  8  2  0
  7 14  1  0
  8  9  1  0
  9 10  1  0
  9 11  2  0
 11 12  1  0
 11 13  1  0
 13 14  2  0
 14 15  1  0
 15 16  2  0
 15 21  1  0
 16 17  1  0
 17 18  1  0
 17 19  2  0
 19 20  1  0
 20 21  2  0
 21 22  1  0
 22 23  2  0
 22 24  1  0
 24 25  1  0
 25 26  1  0
 26 27  1  0
 27 28  1  0
 28 29  1  0
 29 30  2  0
 31 32  2  0
 32 33  1  0
 33 34  1  0
M  END
