
     RDKit          3D

 34 37  0  0  0  0  0  0  0  0999 V2000
   -2.6030    2.5860   -1.1650 O   0  0  0  0  0  0  0  0  0  0  0  0
   -1.9300    1.5360   -1.0690 C   0  0  0  0  0  0  0  0  0  0  0  0
   -0.5580    1.6390   -0.7310 N   0  0  0  0  0  0  0  0  0  0  0  0
    0.1240    2.8840   -0.4880 C   0  0  0  0  0  0  0  0  0  0  0  0
   -0.3640    4.1560   -0.5260 C   0  0  0  0  0  0  0  0  0  0  0  0
    0.6680    5.0030   -0.2240 C   0  0  0  0  0  0  0  0  0  0  0  0
    1.7300    4.2290   -0.0160 N   0  0  0  0  0  0  0  0  0  0  0  0
    1.4330    2.9580   -0.1680 N   0  0  0  0  0  0  0  0  0  0  0  0
    2.3120    1.8280   -0.0260 C   0  0  0  0  0  0  0  0  0  0  0  0
    2.5060    0.8870   -1.0100 C   0  0  0  0  0  0  0  0  0  0  0  0
    3.3650   -0.1760   -0.8110 C   0  0  0  0  0  0  0  0  0  0  0  0
    4.0530   -0.3160    0.3920 C   0  0  0  0  0  0  0  0  0  0  0  0
    4.9330   -1.4050    0.5980 N   0  0  0  0  0  0  0  0  0  0  0  0
    5.1150   -2.3740   -0.4520 C   0  0  0  0  0  0  0  0  0  0  0  0
    6.0760   -3.4620   -0.0820 C   0  0  2  0  0  0  0  0  0  0  0  0
    5.6210   -4.1350    1.0240 F   0  0  0  0  0  0  0  0  0  0  0  0
    7.3090   -2.8730    0.1920 F   0  0  0  0  0  0  0  0  0  0  0  0
    6.1900   -4.3340   -1.1440 F   0  0  0  0  0  0  0  0  0  0  0  0
    3.8650    0.6160    1.3760 C   0  0  0  0  0  0  0  0  0  0  0  0
    2.9990    1.6730    1.1550 C   0  0  0  0  0  0  0  0  0  0  0  0
   -2.5620    0.2750   -1.3000 N   0  0  0  0  0  0  0  0  0  0  0  0
   -3.9660    0.2790   -1.6380 C   0  0  0  0  0  0  0  0  0  0  0  0
   -4.8460    0.1970   -0.4640 C   0  0  0  0  0  0  0  0  0  0  0  0
   -5.3410    1.2490    0.2570 C   0  0  0  0  0  0  0  0  0  0  0  0
   -6.1170    0.6880    1.2660 C   0  0  0  0  0  0  0  0  0  0  0  0
   -6.0510   -0.6740    1.1040 C   0  0  0  0  0  0  0  0  0  0  0  0
   -5.2940   -0.8960    0.0780 O   0  0  0  0  0  0  0  0  0  0  0  0
   -1.8500   -0.9580   -1.2080 C   0  0  0  0  0  0  0  0  0  0  0  0
   -1.8820   -1.5440    0.1710 C   0  0  0  0  0  0  0  0  0  0  0  0
   -1.2600   -2.7350    0.4740 C   0  0  0  0  0  0  0  0  0  0  0  0
   -1.4810   -2.9760    1.7990 C   0  0  0  0  0  0  0  0  0  0  0  0
   -2.2290   -1.9260    2.2590 C   0  0  0  0  0  0  0  0  0  0  0  0
   -2.7780   -1.7680    3.9150 Cl  0  0  0  0  0  0  0  0  0  0  0  0
   -2.4350   -1.1120    1.2540 O   0  0  0  0  0  0  0  0  0  0  0  0
  1  2  2  0
  2  3  1  0
  2 21  1  0
  3  4  1  0
  4  5  2  0
  4  8  1  0
  5  6  1  0
  6  7  2  0
  7  8  1  0
  8  9  1  0
  9 10  2  0
  9 20  1  0
 10 11  1  0
 11 12  2  0
 12 13  1  0
 12 19  1  0
 13 14  1  0
 14 15  1  0
 15 16  1  1
 15 17  1  0
 15 18  1  0
 19 20  2  0
 21 22  1  0
 21 28  1  0
 22 23  1  0
 23 24  2  0
 23 27  1  0
 24 25  1  0
 25 26  2  0
 26 27  1  0
 28 29  1  0
 29 30  2  0
 29 34  1  0
 30 31  1  0
 31 32  2  0
 32 33  1  0
 32 34  1  0
M  END
