
     RDKit          3D

 34 37  0  0  0  0  0  0  0  0999 V2000
   -4.0080   -0.1120    2.8140 C   0  0  0  0  0  0  0  0  0  0  0  0
   -4.5060   -0.8330    1.6200 C   0  0  0  0  0  0  0  0  0  0  0  0
   -5.5950   -1.5550    1.7170 C   0  0  0  0  0  0  0  0  0  0  0  0
   -6.1350   -2.2780    0.6080 N   0  0  0  0  0  0  0  0  0  0  0  0
   -3.8700   -0.7800    0.3890 O   0  0  0  0  0  0  0  0  0  0  0  0
   -3.2570    0.4200   -0.0500 C   0  0  0  0  0  0  0  0  0  0  0  0
   -2.6270    0.2560   -1.4090 C   0  0  0  0  0  0  0  0  0  0  0  0
   -1.6110   -0.7650   -1.4040 N   0  0  0  0  0  0  0  0  0  0  0  0
   -1.8530   -2.0330   -1.7150 N   0  0  0  0  0  0  0  0  0  0  0  0
   -0.7380   -2.7450   -1.6380 C   0  0  0  0  0  0  0  0  0  0  0  0
   -0.5550   -3.9590   -1.8530 O   0  0  0  0  0  0  0  0  0  0  0  0
    0.2480   -1.8450   -1.2540 C   0  0  0  0  0  0  0  0  0  0  0  0
    1.5580   -2.0150   -1.0160 N   0  0  0  0  0  0  0  0  0  0  0  0
    2.3580   -1.0110   -0.6350 C   0  0  0  0  0  0  0  0  0  0  0  0
    3.7250   -1.3100   -0.4100 N   0  0  0  0  0  0  0  0  0  0  0  0
    4.6100   -0.2360   -0.0280 C   0  0  0  0  0  0  0  0  0  0  0  0
    6.0630   -0.6790   -0.0500 C   0  0  0  0  0  0  0  0  0  0  0  0
    6.1920   -1.8500    0.8740 C   0  0  1  0  0  0  0  0  0  0  0  0
    7.4820   -2.3510    0.7720 F   0  0  0  0  0  0  0  0  0  0  0  0
    6.0650   -1.3630    2.1710 F   0  0  0  0  0  0  0  0  0  0  0  0
    5.1590   -2.9120    0.6670 C   0  0  0  0  0  0  0  0  0  0  0  0
    4.2630   -2.6400   -0.5470 C   0  0  0  0  0  0  0  0  0  0  0  0
    1.8350    0.2420   -0.4800 C   0  0  0  0  0  0  0  0  0  0  0  0
    0.4550    0.5240   -0.7110 C   0  0  0  0  0  0  0  0  0  0  0  0
   -0.0090    1.6900   -0.5590 O   0  0  0  0  0  0  0  0  0  0  0  0
   -0.4820    2.8800   -0.4040 C   0  0  0  0  0  0  0  0  0  0  0  0
   -0.9780    3.6030   -1.4970 C   0  0  0  0  0  0  0  0  0  0  0  0
   -1.4900    4.8620   -1.4000 C   0  0  0  0  0  0  0  0  0  0  0  0
   -2.1060    5.7350   -2.8130 Cl  0  0  0  0  0  0  0  0  0  0  0  0
   -1.5340    5.4780   -0.1670 C   0  0  0  0  0  0  0  0  0  0  0  0
   -1.0560    4.8100    0.9550 C   0  0  0  0  0  0  0  0  0  0  0  0
   -0.5490    3.5510    0.8280 C   0  0  0  0  0  0  0  0  0  0  0  0
   -0.0800    2.8810    1.8920 F   0  0  0  0  0  0  0  0  0  0  0  0
   -0.2970   -0.5840   -1.1030 C   0  0  0  0  0  0  0  0  0  0  0  0
  1  2  1  0
  2  3  2  3
  2  5  1  0
  3  4  1  0
  5  6  1  0
  6  7  1  0
  7  8  1  0
  8  9  1  0
  8 34  1  0
  9 10  1  0
 10 11  2  0
 10 12  1  0
 12 13  2  0
 12 34  1  0
 13 14  1  0
 14 15  1  0
 14 23  2  0
 15 16  1  0
 15 22  1  0
 16 17  1  0
 17 18  1  0
 18 19  1  1
 18 20  1  0
 18 21  1  0
 21 22  1  0
 23 24  1  0
 24 25  1  0
 24 34  2  0
 25 26  1  0
 26 27  2  0
 26 32  1  0
 27 28  1  0
 28 29  1  0
 28 30  2  0
 30 31  1  0
 31 32  2  0
 32 33  1  0
M  END
