
     RDKit          3D

 34 37  0  0  0  0  0  0  0  0999 V2000
   -3.6480   -0.1420   -1.7150 O   0  0  0  0  0  0  0  0  0  0  0  0
   -2.6420   -0.1850   -0.9950 C   0  0  0  0  0  0  0  0  0  0  0  0
   -2.8390   -0.1770    0.4920 C   0  0  0  0  0  0  0  0  0  0  0  0
   -4.2770   -0.1170    0.7920 C   0  0  0  0  0  0  0  0  0  0  0  0
   -5.2960   -0.0770   -0.0800 N   0  0  0  0  0  0  0  0  0  0  0  0
   -6.4190   -0.0290    0.5710 O   0  0  0  0  0  0  0  0  0  0  0  0
   -6.2220   -0.0340    1.8640 C   0  0  0  0  0  0  0  0  0  0  0  0
   -7.0780    0.0040    2.9600 C   0  0  0  0  0  0  0  0  0  0  0  0
   -6.5210   -0.0160    4.2220 C   0  0  0  0  0  0  0  0  0  0  0  0
   -5.1610   -0.0710    4.4020 C   0  0  0  0  0  0  0  0  0  0  0  0
   -4.3260   -0.1080    3.3110 C   0  0  0  0  0  0  0  0  0  0  0  0
   -2.9980   -0.1620    3.5330 F   0  0  0  0  0  0  0  0  0  0  0  0
   -4.8380   -0.0910    2.0390 C   0  0  0  0  0  0  0  0  0  0  0  0
   -1.3580   -0.2380   -1.5780 N   0  0  0  0  0  0  0  0  0  0  0  0
   -1.0360   -0.2510   -2.9460 C   0  0  0  0  0  0  0  0  0  0  0  0
   -1.9360   -0.2130   -3.9750 C   0  0  0  0  0  0  0  0  0  0  0  0
   -1.5060   -0.2300   -5.3160 C   0  0  0  0  0  0  0  0  0  0  0  0
   -0.1790   -0.2860   -5.6580 C   0  0  0  0  0  0  0  0  0  0  0  0
    0.7290   -0.3240   -4.6280 C   0  0  0  0  0  0  0  0  0  0  0  0
    0.3140   -0.3080   -3.2950 C   0  0  0  0  0  0  0  0  0  0  0  0
    1.2420   -0.3470   -2.2660 O   0  0  0  0  0  0  0  0  0  0  0  0
    2.6130   -0.4040   -2.6070 C   0  0  0  0  0  0  0  0  0  0  0  0
    3.4800   -0.4410   -1.4010 C   0  0  0  0  0  0  0  0  0  0  0  0
    3.8940   -1.5000   -0.7130 N   0  0  0  0  0  0  0  0  0  0  0  0
    4.6760   -1.0860    0.3200 N   0  0  0  0  0  0  0  0  0  0  0  0
    4.7710    0.2180    0.3070 C   0  0  0  0  0  0  0  0  0  0  0  0
    5.4740    1.1260    1.1680 C   0  0  0  0  0  0  0  0  0  0  0  0
    5.2490    2.4870    0.7310 F   0  0  0  0  0  0  0  0  0  0  0  0
    6.2210    1.0720    2.1850 C   0  0  0  0  0  0  0  0  0  0  0  0
    6.8190    0.1500    3.0850 C   0  0  0  0  0  0  0  0  0  0  0  0
    6.6600   -1.5610    3.0330 Cl  0  0  0  0  0  0  0  0  0  0  0  0
    7.5890    0.6440    4.0810 C   0  0  0  0  0  0  0  0  0  0  0  0
    7.7820    1.9910    4.2100 F   0  0  0  0  0  0  0  0  0  0  0  0
    4.0100    0.6110   -0.7880 N   0  0  0  0  0  0  0  0  0  0  0  0
  1  2  2  0
  2  3  1  0
  2 14  1  0
  3  4  1  0
  4  5  2  0
  4 13  1  0
  5  6  1  0
  6  7  1  0
  7  8  2  0
  7 13  1  0
  8  9  1  0
  9 10  2  0
 10 11  1  0
 11 12  1  0
 11 13  2  0
 14 15  1  0
 15 16  2  0
 15 20  1  0
 16 17  1  0
 17 18  2  0
 18 19  1  0
 19 20  2  0
 20 21  1  0
 21 22  1  0
 22 23  1  0
 23 24  2  0
 23 34  1  0
 24 25  1  0
 25 26  1  0
 26 27  1  0
 26 34  2  0
 27 28  1  0
 27 29  2  3
 29 30  1  0
 30 31  1  0
 30 32  2  3
 32 33  1  0
M  END
