
     RDKit          3D

 33 36  0  0  0  0  0  0  0  0999 V2000
   -3.7780   -5.5050   -0.4750 C   0  0  0  0  0  0  0  0  0  0  0  0
   -3.1780   -4.1690   -0.7270 C   0  0  0  0  0  0  0  0  0  0  0  0
   -2.4750   -3.9750   -1.8930 C   0  0  0  0  0  0  0  0  0  0  0  0
   -1.9270   -2.7690   -2.1330 N   0  0  0  0  0  0  0  0  0  0  0  0
   -2.0800   -1.8120   -1.2430 N   0  0  0  0  0  0  0  0  0  0  0  0
   -2.7590   -1.9510   -0.0860 C   0  0  0  0  0  0  0  0  0  0  0  0
   -2.9000   -0.8220    0.8890 C   0  0  0  0  0  0  0  0  0  0  0  0
   -2.0690    0.2540    0.6140 O   0  0  0  0  0  0  0  0  0  0  0  0
   -0.6890    0.1880    0.5950 C   0  0  0  0  0  0  0  0  0  0  0  0
   -0.0400   -0.9910    0.8700 C   0  0  0  0  0  0  0  0  0  0  0  0
    1.3320   -1.0720    0.8540 C   0  0  0  0  0  0  0  0  0  0  0  0
    2.1180    0.0130    0.5620 C   0  0  0  0  0  0  0  0  0  0  0  0
    3.5310    0.0090    0.4900 N   0  0  0  0  0  0  0  0  0  0  0  0
    4.3660   -1.0120    0.0200 C   0  0  0  0  0  0  0  0  0  0  0  0
    3.9430   -2.1150   -0.6640 C   0  0  0  0  0  0  0  0  0  0  0  0
    4.8210   -3.0930   -1.1450 C   0  0  0  0  0  0  0  0  0  0  0  0
    4.2020   -4.4840   -2.0130 Cl  0  0  0  0  0  0  0  0  0  0  0  0
    6.1610   -2.9690   -0.9400 C   0  0  0  0  0  0  0  0  0  0  0  0
    7.0630   -3.9040   -1.3940 F   0  0  0  0  0  0  0  0  0  0  0  0
    6.6180   -1.8670   -0.2550 C   0  0  0  0  0  0  0  0  0  0  0  0
    5.7470   -0.9170    0.2110 C   0  0  0  0  0  0  0  0  0  0  0  0
    6.2250    0.1610    0.8850 F   0  0  0  0  0  0  0  0  0  0  0  0
    1.4420    1.2140    0.2830 C   0  0  0  0  0  0  0  0  0  0  0  0
    0.0740    1.3090    0.2970 C   0  0  0  0  0  0  0  0  0  0  0  0
   -0.5960    2.4850    0.0230 O   0  0  0  0  0  0  0  0  0  0  0  0
   -0.9300    3.3970    0.9880 C   0  0  0  0  0  0  0  0  0  0  0  0
   -0.6170    3.1640    2.1810 O   0  0  0  0  0  0  0  0  0  0  0  0
   -1.6410    4.6250    0.6370 C   0  0  0  0  0  0  0  0  0  0  0  0
   -2.0040    5.5650    1.5170 C   0  0  0  0  0  0  0  0  0  0  0  0
   -2.6690    6.6170    0.8600 N   0  0  0  0  0  0  0  0  0  0  0  0
   -3.1680    6.0600   -0.3810 C   0  0  0  0  0  0  0  0  0  0  0  0
   -2.0810    5.0570   -0.7030 C   0  0  0  0  0  0  0  0  0  0  0  0
   -3.3040   -3.1550    0.1480 N   0  0  0  0  0  0  0  0  0  0  0  0
  1  2  1  0
  2  3  2  0
  2 33  1  0
  3  4  1  0
  4  5  2  0
  5  6  1  0
  6  7  1  0
  6 33  2  0
  7  8  1  0
  8  9  1  0
  9 10  2  0
  9 24  1  0
 10 11  1  0
 11 12  2  0
 12 13  1  0
 12 23  1  0
 13 14  1  0
 14 15  2  0
 14 21  1  0
 15 16  1  0
 16 17  1  0
 16 18  2  0
 18 19  1  0
 18 20  1  0
 20 21  2  0
 21 22  1  0
 23 24  2  0
 24 25  1  0
 25 26  1  0
 26 27  2  0
 26 28  1  0
 28 29  2  0
 28 32  1  0
 29 30  1  0
 30 31  1  0
 31 32  1  0
M  END
