
     RDKit          3D

 34 37  0  0  0  0  0  0  0  0999 V2000
   -1.2770   -1.1190   -2.0870 O   0  0  0  0  0  0  0  0  0  0  0  0
   -1.3160   -1.1660   -0.8360 C   0  0  0  0  0  0  0  0  0  0  0  0
   -2.4720   -1.8740   -0.2660 C   0  0  0  0  0  0  0  0  0  0  0  0
   -3.7190   -1.3950   -1.0850 C   0  0  0  0  0  0  0  0  0  0  0  0
   -3.7790    0.0470   -0.8080 N   0  0  0  0  0  0  0  0  0  0  0  0
   -3.1580    1.0390   -1.4390 C   0  0  0  0  0  0  0  0  0  0  0  0
   -3.3910    2.2230   -0.7590 C   0  0  0  0  0  0  0  0  0  0  0  0
   -4.1900    1.9230    0.3180 C   0  0  0  0  0  0  0  0  0  0  0  0
   -4.7940    3.0540    1.5460 Cl  0  0  0  0  0  0  0  0  0  0  0  0
   -4.4110    0.5710    0.2520 C   0  0  0  0  0  0  0  0  0  0  0  0
   -5.2570   -0.2230    1.1890 C   0  0  0  0  0  0  0  0  0  0  0  0
   -6.5360    0.4820    1.3610 N   0  0  0  0  0  0  0  0  0  0  0  0
   -7.6130   -0.1170    0.5690 C   0  0  0  0  0  0  0  0  0  0  0  0
   -8.8180    0.8170    0.7630 C   0  0  0  0  0  0  0  0  0  0  0  0
   -9.8900    0.3720    0.0490 F   0  0  0  0  0  0  0  0  0  0  0  0
   -0.2890   -0.5440   -0.0990 N   0  0  0  0  0  0  0  0  0  0  0  0
    0.7080    0.1090   -0.7900 O   0  0  0  0  0  0  0  0  0  0  0  0
    2.0420   -0.0570   -0.4990 C   0  0  0  0  0  0  0  0  0  0  0  0
    2.5110   -1.2120    0.0960 C   0  0  0  0  0  0  0  0  0  0  0  0
    3.8620   -1.3320    0.3710 C   0  0  0  0  0  0  0  0  0  0  0  0
    4.6970   -0.2760    0.0300 C   0  0  0  0  0  0  0  0  0  0  0  0
    6.0560   -0.1800    0.1740 C   0  0  0  0  0  0  0  0  0  0  0  0
    7.0370   -1.0000    0.6800 C   0  0  0  0  0  0  0  0  0  0  0  0
    8.2730   -0.5860    0.6580 N   0  0  0  0  0  0  0  0  0  0  0  0
    8.6150    0.6190    0.1520 C   0  0  0  0  0  0  0  0  0  0  0  0
   10.0440    0.9950    0.1680 C   0  0  0  0  0  0  0  0  0  0  0  0
   10.8970    0.0540   -0.1830 C   0  0  0  0  0  0  0  0  0  0  0  0
   10.4400   -1.1960   -0.5340 F   0  0  0  0  0  0  0  0  0  0  0  0
   12.2270    0.2570   -0.2210 F   0  0  0  0  0  0  0  0  0  0  0  0
    7.7080    1.4060   -0.3300 O   0  0  0  0  0  0  0  0  0  0  0  0
    6.4150    1.1330   -0.3800 C   0  0  0  0  0  0  0  0  0  0  0  0
    5.3010    1.7000   -0.7900 N   0  0  0  0  0  0  0  0  0  0  0  0
    4.2250    0.8870   -0.5700 C   0  0  0  0  0  0  0  0  0  0  0  0
    2.8910    0.9920   -0.8320 C   0  0  0  0  0  0  0  0  0  0  0  0
  1  2  2  0
  2  3  1  0
  2 16  1  0
  3  4  1  0
  4  5  1  0
  5  6  1  0
  5 10  1  0
  6  7  2  0
  7  8  1  0
  8  9  1  0
  8 10  2  0
 10 11  1  0
 11 12  1  0
 12 13  1  0
 13 14  1  0
 14 15  1  0
 16 17  1  0
 17 18  1  0
 18 19  2  0
 18 34  1  0
 19 20  1  0
 20 21  2  0
 21 22  1  0
 21 33  1  0
 22 23  2  0
 22 31  1  0
 23 24  1  0
 24 25  2  0
 25 26  1  0
 25 30  1  0
 26 27  2  3
 27 28  1  0
 27 29  1  0
 30 31  1  0
 31 32  2  0
 32 33  1  0
 33 34  2  0
M  END
