
     RDKit          3D

 34 37  0  0  0  0  0  0  0  0999 V2000
    9.0020   -1.3560    2.3010 C   0  0  0  0  0  0  0  0  0  0  0  0
    8.3700   -2.0980    1.2760 O   0  0  0  0  0  0  0  0  0  0  0  0
    8.3320   -1.4700    0.0620 C   0  0  0  0  0  0  0  0  0  0  0  0
    7.3430   -0.4080   -0.1460 C   0  0  0  0  0  0  0  0  0  0  0  0
    6.0870   -0.6170   -0.5550 O   0  0  0  0  0  0  0  0  0  0  0  0
    5.4310    0.5220   -0.6990 C   0  0  0  0  0  0  0  0  0  0  0  0
    4.0450    0.7420   -1.1550 C   0  0  0  0  0  0  0  0  0  0  0  0
    3.0250    1.1560   -0.4820 C   0  0  0  0  0  0  0  0  0  0  0  0
    1.7230    1.3490   -1.0010 N   0  0  0  0  0  0  0  0  0  0  0  0
    0.5660    0.6300   -0.6080 C   0  0  0  0  0  0  0  0  0  0  0  0
    0.7680   -0.3060    0.2560 O   0  0  0  0  0  0  0  0  0  0  0  0
   -0.7930    0.8770   -1.0940 C   0  0  0  0  0  0  0  0  0  0  0  0
   -1.9310    0.2600   -0.4980 C   0  0  0  0  0  0  0  0  0  0  0  0
   -3.0520    0.7190   -1.1650 C   0  0  0  0  0  0  0  0  0  0  0  0
   -4.4110    0.3300   -0.7790 C   0  0  0  0  0  0  0  0  0  0  0  0
   -5.5400    0.9380   -1.2450 C   0  0  0  0  0  0  0  0  0  0  0  0
   -6.8360    0.5230   -0.8710 C   0  0  0  0  0  0  0  0  0  0  0  0
   -7.0480   -0.5360    0.0030 C   0  0  0  0  0  0  0  0  0  0  0  0
   -8.3230   -1.0230    0.4400 N   0  0  0  0  0  0  0  0  0  0  0  0
   -9.2980   -1.6590   -0.2550 C   0  0  0  0  0  0  0  0  0  0  0  0
  -10.2950   -1.9760    0.6050 C   0  0  0  0  0  0  0  0  0  0  0  0
   -9.9260   -1.5160    1.8810 C   0  0  0  0  0  0  0  0  0  0  0  0
   -8.7150   -0.9520    1.6970 N   0  0  0  0  0  0  0  0  0  0  0  0
   -5.8740   -1.1570    0.4720 C   0  0  0  0  0  0  0  0  0  0  0  0
   -4.6170   -0.7380    0.0950 C   0  0  0  0  0  0  0  0  0  0  0  0
   -2.5740    1.5480   -2.0980 N   0  0  0  0  0  0  0  0  0  0  0  0
   -1.2740    1.6360   -2.0590 N   0  0  0  0  0  0  0  0  0  0  0  0
    3.2360    1.4700    0.9440 C   0  0  1  0  0  0  0  0  0  0  0  0
    2.3000    0.9150    1.7990 F   0  0  0  0  0  0  0  0  0  0  0  0
    4.4630    1.0290    1.4340 F   0  0  0  0  0  0  0  0  0  0  0  0
    3.1110    3.2410    1.1110 Cl  0  0  0  0  0  0  0  0  0  0  0  0
    6.3190    1.5500   -0.3480 C   0  0  0  0  0  0  0  0  0  0  0  0
    7.5240    0.9390   -0.0020 C   0  0  0  0  0  0  0  0  0  0  0  0
    8.6090    1.6500    0.3900 F   0  0  0  0  0  0  0  0  0  0  0  0
  1  2  1  0
  2  3  1  0
  3  4  1  0
  4  5  1  0
  4 33  2  0
  5  6  1  0
  6  7  1  0
  6 32  2  0
  7  8  2  3
  8  9  1  0
  8 28  1  0
  9 10  1  0
 10 11  2  0
 10 12  1  0
 12 13  2  0
 12 27  1  0
 13 14  1  0
 14 15  1  0
 14 26  2  0
 15 16  2  0
 15 25  1  0
 16 17  1  0
 17 18  2  0
 18 19  1  0
 18 24  1  0
 19 20  1  0
 19 23  1  0
 20 21  2  0
 21 22  1  0
 22 23  2  0
 24 25  2  0
 26 27  1  0
 28 29  1  1
 28 30  1  0
 28 31  1  0
 32 33  1  0
 33 34  1  0
M  END
