
     RDKit          3D

 38 41  0  0  0  0  0  0  0  0999 V2000
    4.4500   -3.7310   -0.7860 C   0  0  0  0  0  0  0  0  0  0  0  0
    4.2160   -3.2930   -2.0750 O   0  0  0  0  0  0  0  0  0  0  0  0
    4.6790   -2.0330   -2.3600 C   0  0  0  0  0  0  0  0  0  0  0  0
    3.9950   -1.0250   -1.5320 C   0  0  0  0  0  0  0  0  0  0  0  0
    4.3460    0.1920   -1.5270 O   0  0  0  0  0  0  0  0  0  0  0  0
    2.9350   -1.3510   -0.7170 O   0  0  0  0  0  0  0  0  0  0  0  0
    2.2540   -0.4290    0.1070 C   0  0  0  0  0  0  0  0  0  0  0  0
    2.8400   -0.3060    1.4660 C   0  0  0  0  0  0  0  0  0  0  0  0
    1.2290    0.2040   -0.3160 C   0  0  0  0  0  0  0  0  0  0  0  0
    0.6950   -0.0200   -1.7070 C   0  0  0  0  0  0  0  0  0  0  0  0
    1.4800    0.1390   -2.6360 O   0  0  0  0  0  0  0  0  0  0  0  0
   -0.7830   -0.4330   -1.8790 C   0  0  0  0  0  0  0  0  0  0  0  0
   -1.2180   -0.5980   -0.4210 C   0  0  2  0  0  0  0  0  0  0  0  0
   -2.5530   -0.8630   -0.0440 C   0  0  0  0  0  0  0  0  0  0  0  0
   -3.2530   -0.0770    0.8410 C   0  0  0  0  0  0  0  0  0  0  0  0
   -4.5030   -0.4080    1.3810 C   0  0  0  0  0  0  0  0  0  0  0  0
   -5.1450    0.4210    2.2540 F   0  0  0  0  0  0  0  0  0  0  0  0
   -5.0940   -1.5920    1.0260 C   0  0  0  0  0  0  0  0  0  0  0  0
   -6.4190   -1.9350    1.6090 C   0  0  0  0  0  0  0  0  0  0  0  0
   -4.4250   -2.4150    0.1400 C   0  0  0  0  0  0  0  0  0  0  0  0
   -3.2080   -2.0770   -0.3790 C   0  0  0  0  0  0  0  0  0  0  0  0
   -2.5880   -2.8950   -1.2390 O   0  0  0  0  0  0  0  0  0  0  0  0
   -1.7120   -3.9420   -1.1390 C   0  0  2  0  0  0  0  0  0  0  0  0
   -2.1990   -5.0160   -0.3980 F   0  0  0  0  0  0  0  0  0  0  0  0
   -0.4680   -3.6730   -0.6410 F   0  0  0  0  0  0  0  0  0  0  0  0
   -1.4740   -4.6360   -2.8000 Cl  0  0  0  0  0  0  0  0  0  0  0  0
   -0.9460    0.9150   -0.1030 C   0  0  0  0  0  0  0  0  0  0  0  0
   -1.8010    1.8130   -0.3350 C   0  0  0  0  0  0  0  0  0  0  0  0
   -1.4830    3.1740   -0.0510 N   0  0  0  0  0  0  0  0  0  0  0  0
   -0.2130    3.5170    0.4520 C   0  0  0  0  0  0  0  0  0  0  0  0
    0.0530    4.8810    0.6520 C   0  0  0  0  0  0  0  0  0  0  0  0
    1.2940    5.2690    1.0680 C   0  0  0  0  0  0  0  0  0  0  0  0
    1.5850    6.6060    1.2760 O   0  0  0  0  0  0  0  0  0  0  0  0
    2.2660    4.3290    1.2860 C   0  0  0  0  0  0  0  0  0  0  0  0
    3.5450    4.7010    1.7120 O   0  0  0  0  0  0  0  0  0  0  0  0
    2.0100    2.9820    1.0920 C   0  0  0  0  0  0  0  0  0  0  0  0
    0.7570    2.5350    0.6690 C   0  0  0  0  0  0  0  0  0  0  0  0
    0.4190    1.1430    0.5020 C   0  0  2  0  0  0  0  0  0  0  0  0
  1  2  1  0
  2  3  1  0
  3  4  1  0
  4  5  2  0
  4  6  1  0
  6  7  1  0
  7  8  1  0
  7  9  2  3
  9 10  1  0
 38  9  1  6
 10 11  2  0
 10 12  1  0
 12 13  1  0
 13 14  1  6
 13 27  1  0
 14 15  2  0
 14 21  1  0
 15 16  1  0
 16 17  1  0
 16 18  2  0
 18 19  1  0
 18 20  1  0
 20 21  2  0
 21 22  1  0
 22 23  1  0
 23 24  1  1
 23 25  1  0
 23 26  1  0
 27 28  2  0
 27 38  1  0
 28 29  1  0
 29 30  1  0
 30 31  2  0
 30 37  1  0
 31 32  1  0
 32 33  1  0
 32 34  2  0
 34 35  1  0
 34 36  1  0
 36 37  2  0
 37 38  1  0
M  END
