
     RDKit          3D

 38 42  0  0  0  0  0  0  0  0999 V2000
   -8.8390   -0.6880   -0.9810 C   0  0  0  0  0  0  0  0  0  0  0  0
   -7.7020    0.1720   -0.5810 C   0  0  0  0  0  0  0  0  0  0  0  0
   -6.4420   -0.3380   -0.4270 C   0  0  0  0  0  0  0  0  0  0  0  0
   -5.3300    0.4130   -0.0560 C   0  0  0  0  0  0  0  0  0  0  0  0
   -4.0610   -0.2460    0.1060 N   0  0  0  0  0  0  0  0  0  0  0  0
   -2.8030    0.3470    0.1140 C   0  0  0  0  0  0  0  0  0  0  0  0
   -2.7590    1.6070   -0.0590 O   0  0  0  0  0  0  0  0  0  0  0  0
   -1.5100   -0.3230    0.3010 C   0  0  0  0  0  0  0  0  0  0  0  0
   -1.2240   -1.6160    0.6860 C   0  0  0  0  0  0  0  0  0  0  0  0
   -2.1810   -2.6780    1.0340 C   0  0  0  0  0  0  0  0  0  0  0  0
    0.1090   -1.7640    0.6980 O   0  0  0  0  0  0  0  0  0  0  0  0
    0.6810   -0.6750    0.3530 C   0  0  0  0  0  0  0  0  0  0  0  0
   -0.3120    0.2940    0.0830 C   0  0  0  0  0  0  0  0  0  0  0  0
    0.1870    1.6150   -0.3380 C   0  0  0  0  0  0  0  0  0  0  0  0
    1.1410    1.5290   -1.3450 O   0  0  0  0  0  0  0  0  0  0  0  0
    2.0020    0.4750   -1.2650 C   0  0  0  0  0  0  0  0  0  0  0  0
    2.0550   -0.1250    0.1520 C   0  0  2  0  0  0  0  0  0  0  0  0
    3.0630   -1.0830    0.1570 O   0  0  0  0  0  0  0  0  0  0  0  0
    4.1870   -0.9010    0.9410 C   0  0  0  0  0  0  0  0  0  0  0  0
    4.2490    0.1480    1.6290 O   0  0  0  0  0  0  0  0  0  0  0  0
    5.2490   -1.9330    0.9350 C   0  0  0  0  0  0  0  0  0  0  0  0
    6.4910   -1.3350    0.4030 C   0  0  0  0  0  0  0  0  0  0  0  0
    6.8100   -1.4900   -0.9220 C   0  0  0  0  0  0  0  0  0  0  0  0
    7.9650   -0.9230   -1.4670 C   0  0  0  0  0  0  0  0  0  0  0  0
    8.8000   -0.1920   -0.6540 C   0  0  0  0  0  0  0  0  0  0  0  0
    8.4840   -0.0280    0.6960 C   0  0  0  0  0  0  0  0  0  0  0  0
    7.3220   -0.6080    1.2120 C   0  0  0  0  0  0  0  0  0  0  0  0
    9.4930    0.7410    1.2430 O   0  0  0  0  0  0  0  0  0  0  0  0
   10.0670    1.4810    0.1550 C   0  0  0  0  0  0  0  0  0  0  0  0
   10.0030    0.4900   -0.8810 O   0  0  0  0  0  0  0  0  0  0  0  0
   -5.4990    1.7440    0.1720 C   0  0  0  0  0  0  0  0  0  0  0  0
   -6.7710    2.3010    0.0250 C   0  0  0  0  0  0  0  0  0  0  0  0
   -7.0180    4.0240    0.3170 Cl  0  0  0  0  0  0  0  0  0  0  0  0
   -7.8530    1.5290   -0.3440 C   0  0  0  0  0  0  0  0  0  0  0  0
   -9.1700    2.1740   -0.4750 C   0  0  1  0  0  0  0  0  0  0  0  0
   -9.7050    2.0690   -1.7400 F   0  0  0  0  0  0  0  0  0  0  0  0
  -10.0780    1.5620    0.3790 F   0  0  0  0  0  0  0  0  0  0  0  0
   -9.0780    3.5180   -0.1870 F   0  0  0  0  0  0  0  0  0  0  0  0
  1  2  1  0
  2  3  2  0
  2 34  1  0
  3  4  1  0
  4  5  1  0
  4 31  2  0
  5  6  1  0
  6  7  2  0
  6  8  1  0
  8  9  2  0
  8 13  1  0
  9 10  1  0
  9 11  1  0
 11 12  1  0
 12 13  2  0
 12 17  1  0
 13 14  1  0
 14 15  1  0
 15 16  1  0
 16 17  1  0
 17 18  1  6
 18 19  1  0
 19 20  2  0
 19 21  1  0
 21 22  1  0
 22 23  2  0
 22 27  1  0
 23 24  1  0
 24 25  2  0
 25 26  1  0
 25 30  1  0
 26 27  2  0
 26 28  1  0
 28 29  1  0
 29 30  1  0
 31 32  1  0
 32 33  1  0
 32 34  2  0
 34 35  1  0
 35 36  1  6
 35 37  1  0
 35 38  1  0
M  END
