
     RDKit          3D

 38 42  0  0  0  0  0  0  0  0999 V2000
   -3.3690   -1.6690   -0.8940 O   0  0  0  0  0  0  0  0  0  0  0  0
   -2.1880   -1.8320   -0.4990 C   0  0  0  0  0  0  0  0  0  0  0  0
   -1.6540   -3.1420   -0.6570 N   0  0  0  0  0  0  0  0  0  0  0  0
   -2.4590   -4.2170   -1.2500 C   0  0  1  0  0  0  0  0  0  0  0  0
   -1.8090   -5.4120   -1.8040 C   0  0  0  0  0  0  0  0  0  0  0  0
   -2.4210   -5.4970   -0.4170 C   0  0  0  0  0  0  0  0  0  0  0  0
   -1.4160   -0.7360    0.0880 C   0  0  0  0  0  0  0  0  0  0  0  0
   -2.0180    0.4450    0.1860 C   0  0  0  0  0  0  0  0  0  0  0  0
   -1.2610    1.5420    0.7670 C   0  0  0  0  0  0  0  0  0  0  0  0
   -1.7600    2.7600    0.9130 C   0  0  0  0  0  0  0  0  0  0  0  0
   -3.1050    3.1260    0.5110 C   0  0  0  0  0  0  0  0  0  0  0  0
   -3.9350    3.9830    1.2230 C   0  0  0  0  0  0  0  0  0  0  0  0
   -5.1340    4.1000    0.5460 C   0  0  0  0  0  0  0  0  0  0  0  0
   -6.3130    4.9090    0.9390 C   0  0  2  0  0  0  0  0  0  0  0  0
   -6.0760    5.5720    2.1170 F   0  0  0  0  0  0  0  0  0  0  0  0
   -7.4260    4.0940    0.9920 F   0  0  0  0  0  0  0  0  0  0  0  0
   -6.5580    5.8860   -0.0230 F   0  0  0  0  0  0  0  0  0  0  0  0
   -4.9780    3.2970   -0.5640 C   0  0  0  0  0  0  0  0  0  0  0  0
   -6.0500    3.1290   -1.5830 C   0  0  0  0  0  0  0  0  0  0  0  0
   -5.6140    2.2630   -2.5920 O   0  0  0  0  0  0  0  0  0  0  0  0
   -3.7790    2.7510   -0.5380 O   0  0  0  0  0  0  0  0  0  0  0  0
    0.0320    1.2820    1.1770 O   0  0  0  0  0  0  0  0  0  0  0  0
    0.6660    0.0540    1.0790 C   0  0  0  0  0  0  0  0  0  0  0  0
    2.0330   -0.1870    1.5210 C   0  0  0  0  0  0  0  0  0  0  0  0
    2.5170   -1.3320    1.3940 O   0  0  0  0  0  0  0  0  0  0  0  0
    2.8300    0.7770    2.0740 O   0  0  0  0  0  0  0  0  0  0  0  0
    4.1400    0.6240    2.5200 C   0  0  0  0  0  0  0  0  0  0  0  0
    5.0810    0.1850    1.4860 C   0  0  0  0  0  0  0  0  0  0  0  0
    5.5010   -1.1290    1.3010 C   0  0  0  0  0  0  0  0  0  0  0  0
    6.3800   -1.1510    0.2390 C   0  0  0  0  0  0  0  0  0  0  0  0
    7.1030   -2.1270   -0.3980 C   0  0  0  0  0  0  0  0  0  0  0  0
    7.9140   -1.8160   -1.4610 C   0  0  0  0  0  0  0  0  0  0  0  0
    8.8250   -3.0840   -2.2520 Cl  0  0  0  0  0  0  0  0  0  0  0  0
    8.0160   -0.5020   -1.9110 C   0  0  0  0  0  0  0  0  0  0  0  0
    7.2790    0.4620   -1.2550 C   0  0  0  0  0  0  0  0  0  0  0  0
    6.4540    0.1830   -0.1830 C   0  0  0  0  0  0  0  0  0  0  0  0
    5.6770    0.9220    0.5790 O   0  0  0  0  0  0  0  0  0  0  0  0
   -0.0470   -0.9330    0.5440 C   0  0  0  0  0  0  0  0  0  0  0  0
  1  2  2  0
  2  3  1  0
  2  7  1  0
  4  3  1  1
  4  5  1  0
  4  6  1  0
  5  6  1  0
  7  8  2  0
  7 38  1  0
  8  9  1  0
  9 10  2  3
  9 22  1  0
 10 11  1  0
 11 12  2  0
 11 21  1  0
 12 13  1  0
 13 14  1  0
 13 18  2  0
 14 15  1  1
 14 16  1  0
 14 17  1  0
 18 19  1  0
 18 21  1  0
 19 20  1  0
 22 23  1  0
 23 24  1  0
 23 38  2  0
 24 25  2  0
 24 26  1  0
 26 27  1  0
 27 28  1  0
 28 29  2  0
 28 37  1  0
 29 30  1  0
 30 31  2  0
 30 36  1  0
 31 32  1  0
 32 33  1  0
 32 34  2  0
 34 35  1  0
 35 36  2  0
 36 37  1  0
M  END
