
     RDKit          3D

 37 41  0  0  0  0  0  0  0  0999 V2000
    5.8480   -0.2980    4.4350 C   0  0  0  0  0  0  0  0  0  0  0  0
    5.8310   -1.5990    3.8620 O   0  0  0  0  0  0  0  0  0  0  0  0
    5.4370   -1.7970    2.5300 C   0  0  0  0  0  0  0  0  0  0  0  0
    5.4490   -3.0640    2.0110 C   0  0  0  0  0  0  0  0  0  0  0  0
    5.0710   -3.3150    0.7070 C   0  0  0  0  0  0  0  0  0  0  0  0
    4.6630   -2.2660   -0.1220 C   0  0  0  0  0  0  0  0  0  0  0  0
    4.2660   -2.2310   -1.3600 O   0  0  0  0  0  0  0  0  0  0  0  0
    3.9680   -0.9880   -1.7510 C   0  0  0  0  0  0  0  0  0  0  0  0
    3.4930   -0.6150   -3.0820 C   0  0  0  0  0  0  0  0  0  0  0  0
    3.3610   -1.6070   -3.9380 O   0  0  0  0  0  0  0  0  0  0  0  0
    3.1820    0.5250   -3.5550 O   0  0  0  0  0  0  0  0  0  0  0  0
    2.8310    1.5500   -4.1990 C   0  0  0  0  0  0  0  0  0  0  0  0
    1.4270    1.6820   -4.7220 C   0  0  0  0  0  0  0  0  0  0  0  0
    0.3530    1.6930   -3.8080 N   0  0  0  0  0  0  0  0  0  0  0  0
   -0.0780    0.6620   -2.9570 C   0  0  0  0  0  0  0  0  0  0  0  0
    0.4910   -0.4300   -2.9550 O   0  0  0  0  0  0  0  0  0  0  0  0
   -1.2330    0.9360   -2.0690 C   0  0  0  0  0  0  0  0  0  0  0  0
   -1.6520   -0.0190   -1.2720 C   0  0  0  0  0  0  0  0  0  0  0  0
   -2.7790    0.1340   -0.3540 C   0  0  0  0  0  0  0  0  0  0  0  0
   -3.1970   -0.8850    0.4590 C   0  0  0  0  0  0  0  0  0  0  0  0
   -4.2630   -0.7070    1.3050 C   0  0  0  0  0  0  0  0  0  0  0  0
   -4.8500   -1.5190    2.1700 O   0  0  0  0  0  0  0  0  0  0  0  0
   -5.8460   -0.9440    2.7820 C   0  0  0  0  0  0  0  0  0  0  0  0
   -6.7700   -1.4890    3.8220 C   0  0  0  0  0  0  0  0  0  0  0  0
   -5.9220    0.3460    2.2820 C   0  0  0  0  0  0  0  0  0  0  0  0
   -6.8990    1.4030    2.6680 C   0  0  2  0  0  0  0  0  0  0  0  0
   -6.6770    2.5500    1.9850 F   0  0  0  0  0  0  0  0  0  0  0  0
   -6.8480    1.6390    4.0410 F   0  0  0  0  0  0  0  0  0  0  0  0
   -8.1540    0.8490    2.3750 F   0  0  0  0  0  0  0  0  0  0  0  0
   -4.9270    0.5020    1.3510 C   0  0  0  0  0  0  0  0  0  0  0  0
   -4.4890    1.5130    0.5260 C   0  0  0  0  0  0  0  0  0  0  0  0
   -3.4200    1.3570   -0.3350 C   0  0  0  0  0  0  0  0  0  0  0  0
   -2.9740    2.3580   -1.1670 O   0  0  0  0  0  0  0  0  0  0  0  0
   -1.9150    2.2440   -2.0780 C   0  0  0  0  0  0  0  0  0  0  0  0
    4.2110   -0.2120   -0.6460 C   0  0  0  0  0  0  0  0  0  0  0  0
    4.6510   -0.9880    0.4000 C   0  0  0  0  0  0  0  0  0  0  0  0
    5.0390   -0.7690    1.7240 C   0  0  0  0  0  0  0  0  0  0  0  0
  1  2  1  0
  2  3  1  0
  3  4  2  0
  3 37  1  0
  4  5  1  0
  5  6  2  0
  6  7  1  0
  6 36  1  0
  7  8  1  0
  8  9  1  0
  8 35  2  0
  9 10  2  0
  9 11  1  0
 11 12  1  0
 12 13  1  0
 13 14  1  0
 14 15  1  0
 15 16  2  0
 15 17  1  0
 17 18  2  0
 17 34  1  0
 18 19  1  0
 19 20  2  0
 19 32  1  0
 20 21  1  0
 21 22  1  0
 21 30  2  0
 22 23  1  0
 23 24  1  0
 23 25  2  0
 25 26  1  0
 25 30  1  0
 26 27  1  6
 26 28  1  0
 26 29  1  0
 30 31  1  0
 31 32  2  0
 32 33  1  0
 33 34  1  0
 35 36  1  0
 36 37  2  0
M  END
