
     RDKit          3D

 25 27  0  0  0  0  0  0  0  0999 V2000
   -5.8320   -0.9070   -0.4940 C   0  0  0  0  0  0  0  0  0  0  0  0
   -4.7780   -1.8210   -1.0650 C   0  0  0  0  0  0  0  0  0  0  0  0
   -3.5020   -1.1550   -1.4210 C   0  0  0  0  0  0  0  0  0  0  0  0
   -2.8040   -0.4950   -0.3310 N   0  0  1  0  0  0  0  0  0  0  0  0
   -3.2110   -0.9650    0.9680 C   0  0  0  0  0  0  0  0  0  0  0  0
   -1.3920   -0.7000   -0.4560 C   0  0  0  0  0  0  0  0  0  0  0  0
   -0.5170    0.4290   -0.8250 C   0  0  0  0  0  0  0  0  0  0  0  0
   -0.4790    1.5930    0.0730 C   0  0  0  0  0  0  0  0  0  0  0  0
   -1.2560    2.7260    0.1230 C   0  0  0  0  0  0  0  0  0  0  0  0
   -2.3200    3.1000   -0.8480 C   0  0  0  0  0  0  0  0  0  0  0  0
   -0.9030    3.4930    1.1630 N   0  0  0  0  0  0  0  0  0  0  0  0
    0.0970    2.9060    1.8190 C   0  0  0  0  0  0  0  0  0  0  0  0
    0.7670    3.2950    2.9510 C   0  0  0  0  0  0  0  0  0  0  0  0
    1.7590    2.5210    3.4880 C   0  0  0  0  0  0  0  0  0  0  0  0
    2.0500    1.3460    2.8460 C   0  0  0  0  0  0  0  0  0  0  0  0
    3.3170    0.3300    3.5190 Cl  0  0  0  0  0  0  0  0  0  0  0  0
    1.3840    0.9190    1.6830 C   0  0  0  0  0  0  0  0  0  0  0  0
    1.8340   -0.6280    1.0000 S   0  0  0  0  0  0  0  0  0  0  0  0
    3.2590   -0.6060   -0.0400 N   0  0  2  0  0  0  0  0  0  0  0  0
    2.9510   -1.0870   -1.3210 C   0  0  0  0  0  0  0  0  0  0  0  0
    3.9410   -1.8710   -2.0860 C   0  0  0  0  0  0  0  0  0  0  0  0
    5.2670   -1.5970   -1.5540 N   0  0  0  0  0  0  0  0  0  0  0  0
    5.2020   -2.1250   -0.1890 C   0  0  0  0  0  0  0  0  0  0  0  0
    4.3260   -1.2680    0.6660 C   0  0  0  0  0  0  0  0  0  0  0  0
    0.3960    1.7040    1.1630 C   0  0  0  0  0  0  0  0  0  0  0  0
  1  2  1  0
  2  3  1  0
  3  4  1  0
  4  5  1  1
  4  6  1  0
  6  7  1  0
  7  8  1  0
  8  9  2  0
  8 25  1  0
  9 10  1  0
  9 11  1  0
 11 12  1  0
 12 13  2  0
 12 25  1  0
 13 14  1  0
 14 15  2  0
 15 16  1  0
 15 17  1  0
 17 18  1  0
 17 25  2  0
 19 18  1  1
 19 20  1  0
 19 24  1  0
 20 21  1  0
 21 22  1  0
 22 23  1  0
 23 24  1  0
M  CHG  3   4   1  19   1  22   1
M  END
