
     RDKit          3D

 25 27  0  0  0  0  0  0  0  0999 V2000
    7.4180    0.8040   -0.2750 C   0  0  0  0  0  0  0  0  0  0  0  0
    7.0930   -0.4450   -0.9540 N   0  0  0  0  0  0  0  0  0  0  0  0
    6.0270   -1.1540   -0.3070 C   0  0  0  0  0  0  0  0  0  0  0  0
    4.6990   -0.4920   -0.5240 C   0  0  0  0  0  0  0  0  0  0  0  0
    4.6230    0.6550   -1.2840 C   0  0  0  0  0  0  0  0  0  0  0  0
    3.4260    1.2930   -1.5110 C   0  0  0  0  0  0  0  0  0  0  0  0
    3.3420    2.7610   -2.4860 Cl  0  0  0  0  0  0  0  0  0  0  0  0
    2.2580    0.7700   -0.9620 C   0  0  0  0  0  0  0  0  0  0  0  0
    2.3130   -0.3710   -0.2040 C   0  0  0  0  0  0  0  0  0  0  0  0
    1.1990   -0.9210    0.4100 N   0  0  0  0  0  0  0  0  0  0  0  0
   -0.1470   -0.6850    0.1870 C   0  0  0  0  0  0  0  0  0  0  0  0
   -0.9530   -0.0650   -0.6010 N   0  0  0  0  0  0  0  0  0  0  0  0
   -2.2580   -0.0390   -0.4490 C   0  0  0  0  0  0  0  0  0  0  0  0
   -2.7740   -0.7270    0.6290 C   0  0  0  0  0  0  0  0  0  0  0  0
   -1.4190   -1.3930    1.4020 S   0  0  0  0  0  0  0  0  0  0  0  0
   -4.2720   -0.7040    0.8130 C   0  0  1  0  0  0  0  0  0  0  0  0
   -4.5970   -1.4040    2.0330 N   0  0  0  0  0  0  0  0  0  0  0  0
   -5.8620   -2.1040    1.8570 C   0  0  0  0  0  0  0  0  0  0  0  0
   -4.6130    0.7720    0.9110 C   0  0  0  0  0  0  0  0  0  0  0  0
   -4.1490    1.4770   -0.3300 C   0  0  1  0  0  0  0  0  0  0  0  0
   -5.3900    1.9620   -1.0620 C   0  0  0  0  0  0  0  0  0  0  0  0
   -3.2800    2.6910    0.0280 C   0  0  0  0  0  0  0  0  0  0  0  0
   -3.3670    0.6330   -1.2660 C   0  0  0  0  0  0  0  0  0  0  0  0
    3.5510   -1.0130    0.0210 C   0  0  0  0  0  0  0  0  0  0  0  0
    3.6430   -2.2470    0.8390 C   0  0  0  0  0  0  0  0  0  0  0  0
  1  2  1  0
  2  3  1  0
  3  4  1  0
  4  5  2  0
  4 24  1  0
  5  6  1  0
  6  7  1  0
  6  8  2  0
  8  9  1  0
  9 10  1  0
  9 24  2  0
 10 11  1  0
 11 12  2  0
 11 15  1  0
 12 13  1  0
 13 14  2  0
 13 23  1  0
 14 15  1  0
 14 16  1  0
 16 17  1  1
 16 19  1  0
 17 18  1  0
 19 20  1  0
 20 21  1  6
 20 22  1  0
 20 23  1  0
 24 25  1  0
M  CHG  3   2   1  12   1  17   1
M  END
