
     RDKit          3D

 25 27  0  0  0  0  0  0  0  0999 V2000
   -5.7030   -0.7000    0.4300 C   0  0  0  0  0  0  0  0  0  0  0  0
   -4.5890   -0.0070    0.1760 C   0  0  0  0  0  0  0  0  0  0  0  0
   -4.4250    1.3370    0.4310 C   0  0  0  0  0  0  0  0  0  0  0  0
   -5.2310    2.2400    0.9420 C   0  0  0  0  0  0  0  0  0  0  0  0
   -6.8490    1.9700    1.4800 Cl  0  0  0  0  0  0  0  0  0  0  0  0
   -3.1370    1.5980    0.0130 N   0  0  0  0  0  0  0  0  0  0  0  0
   -2.5770    0.4820   -0.4580 C   0  0  0  0  0  0  0  0  0  0  0  0
   -1.3780    0.4490   -0.9100 N   0  0  0  0  0  0  0  0  0  0  0  0
   -0.5150    1.6060   -0.9570 C   0  0  0  0  0  0  0  0  0  0  0  0
   -0.8330    2.7320   -1.5920 C   0  0  0  0  0  0  0  0  0  0  0  0
    0.0160    3.7910   -1.6060 C   0  0  0  0  0  0  0  0  0  0  0  0
    1.4220    3.1350   -0.6170 S   0  0  0  0  0  0  0  0  0  0  0  0
    0.7020    1.5670   -0.3240 C   0  0  0  0  0  0  0  0  0  0  0  0
    1.3480    0.4980    0.4530 C   0  0  0  0  0  0  0  0  0  0  0  0
    2.6460    0.9080    0.9370 N   0  0  2  0  0  0  0  0  0  0  0  0
    3.5880    1.0240   -0.1250 C   0  0  0  0  0  0  0  0  0  0  0  0
    4.9460    0.4540    0.2010 C   0  0  0  0  0  0  0  0  0  0  0  0
    4.9110   -0.9740    0.6280 C   0  0  2  0  0  0  0  0  0  0  0  0
    5.0760   -1.9210   -0.5690 C   0  0  0  0  0  0  0  0  0  0  0  0
    3.6130   -1.3160    1.2820 C   0  0  0  0  0  0  0  0  0  0  0  0
    3.0460   -0.0880    1.9310 C   0  0  0  0  0  0  0  0  0  0  0  0
   -3.4530   -0.5330   -0.3700 N   0  0  0  0  0  0  0  0  0  0  0  0
   -3.2560   -1.9090   -0.7700 C   0  0  2  0  0  0  0  0  0  0  0  0
   -2.2530   -2.6070    0.1410 C   0  0  0  0  0  0  0  0  0  0  0  0
   -2.7300   -2.0130   -2.1790 C   0  0  0  0  0  0  0  0  0  0  0  0
  1  2  2  0
  2  3  1  0
  2 22  1  0
  3  4  2  3
  3  6  1  0
  4  5  1  0
  6  7  1  0
  7  8  2  3
  7 22  1  0
  8  9  1  0
  9 10  1  0
  9 13  2  0
 10 11  2  0
 11 12  1  0
 12 13  1  0
 13 14  1  0
 15 14  1  6
 15 16  1  0
 15 21  1  0
 16 17  1  0
 17 18  1  0
 18 19  1  6
 18 20  1  0
 20 21  1  0
 22 23  1  0
 23 24  1  1
 23 25  1  0
M  CHG  2   8   1  15   1
M  END
