
     RDKit          3D

 25 27  0  0  0  0  0  0  0  0999 V2000
   -7.0590    1.5880   -0.0720 C   0  0  0  0  0  0  0  0  0  0  0  0
   -5.7240    2.2760   -0.3570 C   0  0  0  0  0  0  0  0  0  0  0  0
   -4.6110    1.3180   -0.3900 C   0  0  0  0  0  0  0  0  0  0  0  0
   -3.2550    1.5730   -0.5230 C   0  0  0  0  0  0  0  0  0  0  0  0
   -2.5300    0.4530   -0.4710 N   0  0  0  0  0  0  0  0  0  0  0  0
   -1.1300    0.1630   -0.6120 C   0  0  0  0  0  0  0  0  0  0  0  0
   -0.3120    0.0230    0.6310 C   0  0  0  0  0  0  0  0  0  0  0  0
    1.0410   -0.4960    0.3080 N   0  0  2  0  0  0  0  0  0  0  0  0
    1.7080   -0.9560    1.4760 C   0  0  0  0  0  0  0  0  0  0  0  0
    1.7540    0.2530   -0.6410 C   0  0  0  0  0  0  0  0  0  0  0  0
    3.1910    0.4790   -0.5410 C   0  0  0  0  0  0  0  0  0  0  0  0
    4.3240   -0.2720   -0.5930 C   0  0  0  0  0  0  0  0  0  0  0  0
    5.5270    0.2430   -0.5540 C   0  0  0  0  0  0  0  0  0  0  0  0
    6.8600   -0.4100   -0.8380 C   0  0  0  0  0  0  0  0  0  0  0  0
    7.4580   -1.1890    0.2000 N   0  0  0  0  0  0  0  0  0  0  0  0
    5.6090    1.6710   -0.4510 C   0  0  0  0  0  0  0  0  0  0  0  0
    6.8250    2.5050   -0.3270 C   0  0  0  0  0  0  0  0  0  0  0  0
    3.8890    2.1470   -0.4220 S   0  0  0  0  0  0  0  0  0  0  0  0
   -3.4520   -0.5490   -0.3010 C   0  0  0  0  0  0  0  0  0  0  0  0
   -4.7260   -0.0670   -0.2540 C   0  0  0  0  0  0  0  0  0  0  0  0
   -5.5930   -0.9990   -0.2060 N   0  0  0  0  0  0  0  0  0  0  0  0
   -4.8610   -2.2700   -0.0160 C   0  0  2  0  0  0  0  0  0  0  0  0
   -5.1140   -2.5350    1.5060 C   0  0  0  0  0  0  0  0  0  0  0  0
   -3.4540   -1.8590   -0.1680 C   0  0  0  0  0  0  0  0  0  0  0  0
   -2.1270   -2.9710   -0.1780 Cl  0  0  0  0  0  0  0  0  0  0  0  0
  1  2  1  0
  2  3  1  0
  3  4  2  0
  3 20  1  0
  4  5  1  0
  5  6  1  0
  5 19  1  0
  6  7  1  0
  7  8  1  0
  8  9  1  1
  8 10  1  0
 10 11  1  0
 11 12  2  0
 11 18  1  0
 12 13  1  0
 13 14  1  0
 13 16  2  0
 14 15  1  0
 16 17  1  0
 16 18  1  0
 19 20  1  0
 19 24  2  0
 20 21  2  0
 21 22  1  0
 22 23  1  1
 22 24  1  0
 24 25  1  0
M  CHG  3   8   1  15   1  21   1
M  END
