
     RDKit          3D

 25 27  0  0  0  0  0  0  0  0999 V2000
   -5.2430   -2.3490    1.4480 C   0  0  0  0  0  0  0  0  0  0  0  0
   -4.0100   -2.2690    0.6960 N   0  0  0  0  0  0  0  0  0  0  0  0
   -3.5030   -3.4700    0.0600 C   0  0  0  0  0  0  0  0  0  0  0  0
   -3.2890   -1.0220    0.5730 C   0  0  0  0  0  0  0  0  0  0  0  0
   -3.2450   -0.1800    1.5260 N   0  0  0  0  0  0  0  0  0  0  0  0
   -2.6120   -0.7360   -0.6320 N   0  0  0  0  0  0  0  0  0  0  0  0
   -1.5590    0.1990   -0.8090 C   0  0  2  0  0  0  0  0  0  0  0  0
   -0.3740   -0.0570    0.0290 C   0  0  0  0  0  0  0  0  0  0  0  0
    0.7960    0.8300   -0.3900 C   0  0  2  0  0  0  0  0  0  0  0  0
    2.0290    0.4150    0.2440 N   0  0  2  0  0  0  0  0  0  0  0  0
    2.0240    0.7200    1.6590 C   0  0  0  0  0  0  0  0  0  0  0  0
    3.1150    1.0540   -0.4510 C   0  0  0  0  0  0  0  0  0  0  0  0
    4.3030    0.1920   -0.6920 C   0  0  1  0  0  0  0  0  0  0  0  0
    4.9630   -0.3530    0.5290 C   0  0  0  0  0  0  0  0  0  0  0  0
    4.5710   -1.7910    0.6270 C   0  0  0  0  0  0  0  0  0  0  0  0
    4.3110   -2.2230   -0.7810 C   0  0  0  0  0  0  0  0  0  0  0  0
    4.0190   -0.9820   -1.5960 C   0  0  0  0  0  0  0  0  0  0  0  0
    0.4920    2.2640   -0.0920 C   0  0  0  0  0  0  0  0  0  0  0  0
   -0.9360    2.6000   -0.3880 C   0  0  0  0  0  0  0  0  0  0  0  0
   -1.1610    3.9180   -0.3200 C   0  0  0  0  0  0  0  0  0  0  0  0
   -2.7610    4.6490   -0.6180 S   0  0  0  0  0  0  0  0  0  0  0  0
   -3.8500    3.3050   -1.0420 C   0  0  0  0  0  0  0  0  0  0  0  0
   -3.2100    1.9850   -1.0340 C   0  0  0  0  0  0  0  0  0  0  0  0
   -4.3300    0.6890   -1.5400 Cl  0  0  0  0  0  0  0  0  0  0  0  0
   -1.9670    1.6500   -0.7430 C   0  0  0  0  0  0  0  0  0  0  0  0
  1  2  1  0
  2  3  1  0
  2  4  1  0
  4  5  2  0
  4  6  1  0
  7  6  1  1
  7  8  1  0
  7 25  1  0
  9  8  1  1
  9 10  1  0
  9 18  1  0
 10 11  1  1
 10 12  1  0
 13 12  1  1
 13 14  1  0
 13 17  1  0
 14 15  1  0
 15 16  1  0
 16 17  1  0
 18 19  1  0
 19 20  2  0
 19 25  1  0
 20 21  1  0
 21 22  1  0
 22 23  1  0
 23 24  1  0
 23 25  2  0
M  CHG  2   5   1  10   1
M  END
