
     RDKit          3D

 13 12  0  0  0  0  0  0  0  0999 V2000
   -2.8680    1.6890   -0.4700 C   0  0  0  0  0  0  0  0  0  0  0  0
   -2.2030    0.5820   -0.0770 C   0  0  0  0  0  0  0  0  0  0  0  0
   -2.9630   -0.4870    0.5260 C   0  0  0  0  0  0  0  0  0  0  0  0
   -4.4000   -0.2620    0.6530 N   0  0  0  0  0  0  0  0  0  0  0  0
   -2.5130   -1.5700    0.9430 O   0  0  0  0  0  0  0  0  0  0  0  0
   -0.7810    0.5490   -0.2880 C   0  0  0  0  0  0  0  0  0  0  0  0
   -0.1220    1.6580   -0.8930 O   0  0  0  0  0  0  0  0  0  0  0  0
   -0.0420   -0.4830    0.0600 C   0  0  0  0  0  0  0  0  0  0  0  0
    1.4210   -0.4660   -0.1800 C   0  0  0  0  0  0  0  0  0  0  0  0
    2.0040    0.6730   -0.7870 N   0  0  0  0  0  0  0  0  0  0  0  0
    2.1720   -1.4850    0.1600 C   0  0  0  0  0  0  0  0  0  0  0  0
    3.5720   -1.5000   -0.0560 N   0  0  0  0  0  0  0  0  0  0  0  0
    4.2660   -0.5440    0.3850 N   0  0  0  0  0  0  0  0  0  0  0  0
  1  2  2  0
  2  3  1  0
  2  6  1  0
  3  4  1  0
  3  5  2  0
  6  7  1  0
  6  8  2  3
  8  9  1  0
  9 10  1  0
  9 11  2  3
 11 12  1  0
 12 13  2  0
M  CHG  2  12   1  13   1
M  END
