
     RDKit          3D

 22 22  0  0  0  0  0  0  0  0999 V2000
    3.6990   -2.1160    0.0060 C   0  0  0  0  0  0  0  0  0  0  0  0
    2.8490   -0.9380   -0.2240 C   0  0  0  0  0  0  0  0  0  0  0  0
    3.3880    0.4230    0.0330 C   0  0  0  0  0  0  0  0  0  0  0  0
    4.6010    0.6380    0.4550 C   0  0  0  0  0  0  0  0  0  0  0  0
    5.0760    1.9820    0.6930 C   0  0  0  0  0  0  0  0  0  0  0  0
    6.2800    2.1600    1.0980 O   0  0  0  0  0  0  0  0  0  0  0  0
    4.3110    3.1620    0.5170 N   0  0  0  0  0  0  0  0  0  0  0  0
    4.8620    4.4010    0.7750 O   0  0  0  0  0  0  0  0  0  0  0  0
    1.6050   -1.0080   -0.6590 C   0  0  0  0  0  0  0  0  0  0  0  0
    0.7760   -2.1390   -1.0110 C   0  0  1  0  0  0  0  0  0  0  0  0
    1.3970   -3.4510   -1.2910 C   0  0  0  0  0  0  0  0  0  0  0  0
   -0.4350   -2.2200   -0.1420 C   0  0  0  0  0  0  0  0  0  0  0  0
   -0.4380   -3.2440    0.6350 O   0  0  0  0  0  0  0  0  0  0  0  0
   -1.5150   -1.2710   -0.1310 C   0  0  0  0  0  0  0  0  0  0  0  0
   -1.5960   -0.2370   -1.0080 C   0  0  0  0  0  0  0  0  0  0  0  0
   -2.6360    0.6930   -0.9770 C   0  0  0  0  0  0  0  0  0  0  0  0
   -3.6270    0.5620   -0.0200 C   0  0  0  0  0  0  0  0  0  0  0  0
   -4.6890    1.5070    0.0150 N   0  0  0  0  0  0  0  0  0  0  0  0
   -5.8330    1.3220   -0.8750 C   0  0  0  0  0  0  0  0  0  0  0  0
   -4.5880    2.6110    0.9460 C   0  0  0  0  0  0  0  0  0  0  0  0
   -3.5530   -0.4960    0.8820 C   0  0  0  0  0  0  0  0  0  0  0  0
   -2.5020   -1.4020    0.8220 C   0  0  0  0  0  0  0  0  0  0  0  0
  1  2  1  0
  2  3  1  0
  2  9  2  3
  3  4  2  3
  4  5  1  0
  5  6  2  0
  5  7  1  0
  7  8  1  0
  9 10  1  0
 10 11  1  1
 10 12  1  0
 12 13  2  0
 12 14  1  0
 14 15  2  0
 14 22  1  0
 15 16  1  0
 16 17  2  0
 17 18  1  0
 17 21  1  0
 18 19  1  0
 18 20  1  0
 21 22  2  0
M  END
