
     RDKit          3D

 13 12  0  0  0  0  0  0  0  0999 V2000
    4.5700    2.6630   -0.3060 N   0  0  0  0  0  0  0  0  0  0  0  0
    3.1950    2.3060   -0.3320 C   0  0  0  0  0  0  0  0  0  0  0  0
    2.2930    3.1740   -0.4080 O   0  0  0  0  0  0  0  0  0  0  0  0
    2.7980    0.8860   -0.2670 C   0  0  0  0  0  0  0  0  0  0  0  0
    1.3040    0.7400   -0.3080 C   0  0  0  0  0  0  0  0  0  0  0  0
    0.5690    1.7550   -0.3890 O   0  0  0  0  0  0  0  0  0  0  0  0
    0.6690   -0.5230   -0.2600 N   0  0  0  0  0  0  0  0  0  0  0  0
   -0.7550   -0.7120   -0.2960 C   0  0  2  0  0  0  0  0  0  0  0  0
   -1.2810   -1.4410    0.8770 C   0  0  0  0  0  0  0  0  0  0  0  0
   -2.1290   -0.9320    1.7500 C   0  0  0  0  0  0  0  0  0  0  0  0
   -2.6390    0.3950    1.6570 N   0  0  0  0  0  0  0  0  0  0  0  0
   -1.1280   -1.4700   -1.5530 C   0  0  0  0  0  0  0  0  0  0  0  0
   -2.5370   -1.7020   -1.6690 N   0  0  0  0  0  0  0  0  0  0  0  0
  1  2  1  0
  2  3  2  0
  2  4  1  0
  4  5  1  0
  5  6  2  0
  5  7  1  0
  7  8  1  0
  8  9  1  0
  8 12  1  6
  9 10  2  3
 10 11  1  0
 12 13  1  0
M  CHG  2  11   1  13   1
M  END
