
     RDKit          3D

 22 23  0  0  0  0  0  0  0  0999 V2000
    0.7070    2.8940    1.7880 C   0  0  0  0  0  0  0  0  0  0  0  0
    0.9340    1.4510    1.4390 C   0  0  1  0  0  0  0  0  0  0  0  0
    0.4510    0.5790    2.5490 C   0  0  0  0  0  0  0  0  0  0  0  0
    0.3540    1.1770    0.1750 O   0  0  0  0  0  0  0  0  0  0  0  0
    0.3620   -0.0640   -0.4420 C   0  0  0  0  0  0  0  0  0  0  0  0
   -0.7070   -0.7770   -0.5790 C   0  0  0  0  0  0  0  0  0  0  0  0
   -2.0890   -0.5370   -0.1950 C   0  0  0  0  0  0  0  0  0  0  0  0
   -3.0370   -1.4770   -0.4040 C   0  0  0  0  0  0  0  0  0  0  0  0
   -4.2940   -1.0130    0.0540 N   0  0  0  0  0  0  0  0  0  0  0  0
   -4.2330    0.4120   -0.0510 C   0  0  0  0  0  0  0  0  0  0  0  0
   -2.7450    0.6420    0.3530 C   0  0  1  0  0  0  0  0  0  0  0  0
   -2.7750    0.7630    1.8390 C   0  0  0  0  0  0  0  0  0  0  0  0
   -2.3370    1.9660   -0.2790 C   0  0  0  0  0  0  0  0  0  0  0  0
    1.6520   -0.5870   -0.9660 C   0  0  0  0  0  0  0  0  0  0  0  0
    2.8160    0.0450   -0.9240 C   0  0  0  0  0  0  0  0  0  0  0  0
    3.8560   -0.7940   -1.5370 C   0  0  0  0  0  0  0  0  0  0  0  0
    3.3660   -1.9290   -1.9580 C   0  0  0  0  0  0  0  0  0  0  0  0
    3.9950   -3.0240   -2.6010 N   0  0  0  0  0  0  0  0  0  0  0  0
    5.3690   -3.0880   -2.9260 C   0  0  0  0  0  0  0  0  0  0  0  0
    6.1070   -2.1350   -2.6430 O   0  0  0  0  0  0  0  0  0  0  0  0
    1.9240   -1.8460   -1.6080 C   0  0  0  0  0  0  0  0  0  0  0  0
    1.1330   -2.7930   -1.8770 O   0  0  0  0  0  0  0  0  0  0  0  0
  2  1  1  1
  2  3  1  0
  2  4  1  0
  4  5  1  0
  5  6  2  3
  5 14  1  0
  6  7  1  0
  7  8  2  0
  7 11  1  0
  8  9  1  0
  9 10  1  0
 10 11  1  0
 11 12  1  1
 11 13  1  0
 14 15  2  0
 14 21  1  0
 15 16  1  0
 16 17  2  0
 17 18  1  0
 17 21  1  0
 18 19  1  0
 19 20  2  0
 21 22  2  0
M  END
