
     RDKit          3D

 22 22  0  0  0  0  0  0  0  0999 V2000
   -5.2080    2.8200   -0.4260 C   0  0  0  0  0  0  0  0  0  0  0  0
   -4.3710    1.9550   -1.3420 C   0  0  0  0  0  0  0  0  0  0  0  0
   -4.9320    0.5850   -1.2910 C   0  0  0  0  0  0  0  0  0  0  0  0
   -4.2090   -0.4460   -0.8860 C   0  0  0  0  0  0  0  0  0  0  0  0
   -4.9090   -1.7410   -0.8910 C   0  0  0  0  0  0  0  0  0  0  0  0
   -4.5960   -2.7900   -0.1280 C   0  0  0  0  0  0  0  0  0  0  0  0
   -3.5260   -2.8920    0.8550 C   0  0  0  0  0  0  0  0  0  0  0  0
   -2.4730   -2.0670    1.0370 C   0  0  0  0  0  0  0  0  0  0  0  0
   -1.5850   -2.4760    2.1280 C   0  0  0  0  0  0  0  0  0  0  0  0
   -2.1060   -0.8620    0.3230 C   0  0  0  0  0  0  0  0  0  0  0  0
   -0.7530   -0.3840    0.5480 C   0  0  0  0  0  0  0  0  0  0  0  0
    0.0990   -0.8990    1.2740 O   0  0  0  0  0  0  0  0  0  0  0  0
   -0.3770    0.7780   -0.1280 O   0  0  0  0  0  0  0  0  0  0  0  0
    0.9030    1.3110    0.0280 C   0  0  0  0  0  0  0  0  0  0  0  0
    1.9780    0.3850   -0.3840 C   0  0  0  0  0  0  0  0  0  0  0  0
    1.7390   -0.7490   -0.8210 O   0  0  0  0  0  0  0  0  0  0  0  0
    3.3260    0.8040   -0.2760 N   0  0  0  0  0  0  0  0  0  0  0  0
    4.4370   -0.0710   -0.6690 C   0  0  0  0  0  0  0  0  0  0  0  0
    5.7110    0.7010   -0.4190 C   0  0  1  0  0  0  0  0  0  0  0  0
    5.8650    1.0930    1.0350 C   0  0  0  0  0  0  0  0  0  0  0  0
    6.9260   -0.0970   -0.8110 C   0  0  0  0  0  0  0  0  0  0  0  0
   -2.8510   -0.1660   -0.5020 N   0  0  0  0  0  0  0  0  0  0  0  0
  1  2  1  0
  2  3  1  0
  3  4  2  3
  4  5  1  0
  4 22  1  0
  5  6  2  0
  6  7  1  0
  7  8  2  0
  8  9  1  0
  8 10  1  0
 10 11  1  0
 10 22  2  0
 11 12  2  0
 11 13  1  0
 13 14  1  0
 14 15  1  0
 15 16  2  0
 15 17  1  0
 17 18  1  0
 18 19  1  0
 19 20  1  1
 19 21  1  0
M  END
