
     RDKit          3D

 23 25  0  0  0  0  0  0  0  0999 V2000
   -4.0200    3.4180   -0.0650 C   0  0  0  0  0  0  0  0  0  0  0  0
   -4.0300    2.0410   -0.6510 C   0  0  0  0  0  0  0  0  0  0  0  0
   -2.9450    1.2260   -0.0160 C   0  0  0  0  0  0  0  0  0  0  0  0
   -2.8930   -0.1840   -0.5600 C   0  0  2  0  0  0  0  0  0  0  0  0
   -4.1670   -0.9350   -0.3380 C   0  0  0  0  0  0  0  0  0  0  0  0
   -3.9700   -2.3540   -0.8240 C   0  0  0  0  0  0  0  0  0  0  0  0
   -2.9070   -3.0920   -0.0650 C   0  0  0  0  0  0  0  0  0  0  0  0
   -2.1480   -2.1050    0.8150 C   0  0  0  0  0  0  0  0  0  0  0  0
   -1.8090   -0.9450    0.0170 N   0  0  0  0  0  0  0  0  0  0  0  0
   -0.4680   -0.5540   -0.2010 C   0  0  0  0  0  0  0  0  0  0  0  0
   -0.1330    0.4330   -0.8790 O   0  0  0  0  0  0  0  0  0  0  0  0
    0.6080   -1.3660    0.4120 C   0  0  0  0  0  0  0  0  0  0  0  0
    1.9250   -0.8450    0.1010 N   0  0  0  0  0  0  0  0  0  0  0  0
    2.5810    0.1160    0.9150 C   0  0  0  0  0  0  0  0  0  0  0  0
    3.7940    0.5950    0.6270 C   0  0  0  0  0  0  0  0  0  0  0  0
    4.4280    1.5900    1.5040 C   0  0  0  0  0  0  0  0  0  0  0  0
    5.6300    2.0660    1.2210 C   0  0  0  0  0  0  0  0  0  0  0  0
    6.4060    1.6550    0.0450 C   0  0  0  0  0  0  0  0  0  0  0  0
    5.7370    0.6680   -0.7950 C   0  0  0  0  0  0  0  0  0  0  0  0
    4.5300    0.1630   -0.5470 C   0  0  0  0  0  0  0  0  0  0  0  0
    3.9410   -0.8280   -1.4560 C   0  0  0  0  0  0  0  0  0  0  0  0
    2.6050   -1.3000   -1.0600 C   0  0  0  0  0  0  0  0  0  0  0  0
    2.0250   -2.1530   -1.7850 O   0  0  0  0  0  0  0  0  0  0  0  0
  1  2  1  0
  2  3  1  0
  4  3  1  1
  4  5  1  0
  4  9  1  0
  5  6  1  0
  6  7  1  0
  7  8  1  0
  8  9  1  0
  9 10  1  0
 10 11  2  0
 10 12  1  0
 12 13  1  0
 13 14  1  0
 13 22  1  0
 14 15  2  0
 15 16  1  0
 15 20  1  0
 16 17  2  0
 17 18  1  0
 18 19  1  0
 19 20  2  0
 20 21  1  0
 21 22  1  0
 22 23  2  0
M  END
