
     RDKit          3D

 22 22  0  0  0  0  0  0  0  0999 V2000
   -5.4580   -1.8420    0.0230 C   0  0  0  0  0  0  0  0  0  0  0  0
   -4.8080   -2.1190    1.0940 C   0  0  0  0  0  0  0  0  0  0  0  0
   -3.4600   -1.5630    1.4700 C   0  0  0  0  0  0  0  0  0  0  0  0
   -3.0090   -1.9950    2.5990 C   0  0  0  0  0  0  0  0  0  0  0  0
   -1.7920   -1.7520    3.3650 C   0  0  0  0  0  0  0  0  0  0  0  0
   -2.8940   -0.7270    0.5350 N   0  0  0  0  0  0  0  0  0  0  0  0
   -1.5910   -0.2240    0.3910 C   0  0  0  0  0  0  0  0  0  0  0  0
   -0.7010   -0.5240    1.1770 O   0  0  0  0  0  0  0  0  0  0  0  0
   -1.2160    0.7090   -0.7340 C   0  0  0  0  0  0  0  0  0  0  0  0
    0.2080    1.1060   -0.6740 C   0  0  1  0  0  0  0  0  0  0  0  0
    1.1550    0.0380   -0.7560 N   0  0  0  0  0  0  0  0  0  0  0  0
    2.1520   -0.2400    0.2120 C   0  0  0  0  0  0  0  0  0  0  0  0
    2.2130    0.5070    1.2180 O   0  0  0  0  0  0  0  0  0  0  0  0
    3.0810   -1.3790    0.0190 C   0  0  2  0  0  0  0  0  0  0  0  0
    2.3230   -2.6940   -0.0730 C   0  0  0  0  0  0  0  0  0  0  0  0
    4.0000   -1.4570    1.2200 C   0  0  0  0  0  0  0  0  0  0  0  0
    3.8850   -1.2450   -1.2480 C   0  0  0  0  0  0  0  0  0  0  0  0
    0.4350    2.1630   -1.7540 C   0  0  1  0  0  0  0  0  0  0  0  0
   -0.5850    3.2520   -1.4810 C   0  0  0  0  0  0  0  0  0  0  0  0
    0.1600    4.5120   -1.8670 C   0  0  0  0  0  0  0  0  0  0  0  0
    1.5840    4.0910   -1.5500 C   0  0  0  0  0  0  0  0  0  0  0  0
    1.6740    2.7340   -1.6770 O   0  0  0  0  0  0  0  0  0  0  0  0
  1  2  2  0
  2  3  1  0
  3  4  2  3
  3  6  1  0
  4  5  1  0
  6  7  1  0
  7  8  2  0
  7  9  1  0
 10  9  1  6
 10 11  1  0
 10 18  1  0
 11 12  1  0
 12 13  2  0
 12 14  1  0
 14 15  1  6
 14 16  1  0
 14 17  1  0
 18 19  1  1
 18 22  1  0
 19 20  1  0
 20 21  1  0
 21 22  1  0
M  END
