
     RDKit          3D

 22 22  0  0  0  0  0  0  0  0999 V2000
    3.5600   -1.5760    0.6480 C   0  0  0  0  0  0  0  0  0  0  0  0
    2.8620   -0.4270    0.0710 C   0  0  0  0  0  0  0  0  0  0  0  0
    3.5030    0.8730   -0.0490 C   0  0  0  0  0  0  0  0  0  0  0  0
    4.7230    1.1850    0.3210 C   0  0  0  0  0  0  0  0  0  0  0  0
    5.2740    2.5220    0.1580 C   0  0  0  0  0  0  0  0  0  0  0  0
    4.6240    3.4700   -0.3460 O   0  0  0  0  0  0  0  0  0  0  0  0
    6.5990    2.7750    0.5830 N   0  0  0  0  0  0  0  0  0  0  0  0
    7.1130    4.0160    0.4330 O   0  0  0  0  0  0  0  0  0  0  0  0
    1.6000   -0.5940   -0.3540 C   0  0  0  0  0  0  0  0  0  0  0  0
    0.9700   -1.9110   -0.2260 C   0  0  2  0  0  0  0  0  0  0  0  0
    0.5960   -2.4230   -1.6070 C   0  0  0  0  0  0  0  0  0  0  0  0
   -0.2530   -1.9370    0.6110 C   0  0  0  0  0  0  0  0  0  0  0  0
   -0.1910   -2.6620    1.6460 O   0  0  0  0  0  0  0  0  0  0  0  0
   -1.4840   -1.2270    0.3620 C   0  0  0  0  0  0  0  0  0  0  0  0
   -1.7090   -0.4230   -0.7430 C   0  0  0  0  0  0  0  0  0  0  0  0
   -2.9440    0.2050   -0.8440 C   0  0  0  0  0  0  0  0  0  0  0  0
   -3.9430    0.0710    0.0870 C   0  0  0  0  0  0  0  0  0  0  0  0
   -5.1850    0.7320   -0.0590 N   0  0  0  0  0  0  0  0  0  0  0  0
   -6.2210    0.5850    0.9200 C   0  0  0  0  0  0  0  0  0  0  0  0
   -5.4020    1.5640   -1.2170 C   0  0  0  0  0  0  0  0  0  0  0  0
   -3.7050   -0.7300    1.1790 C   0  0  0  0  0  0  0  0  0  0  0  0
   -2.5100   -1.3570    1.3070 C   0  0  0  0  0  0  0  0  0  0  0  0
  1  2  1  0
  2  3  1  0
  2  9  2  3
  3  4  2  3
  4  5  1  0
  5  6  2  0
  5  7  1  0
  7  8  1  0
  9 10  1  0
 10 11  1  6
 10 12  1  0
 12 13  2  0
 12 14  1  0
 14 15  2  0
 14 22  1  0
 15 16  1  0
 16 17  2  0
 17 18  1  0
 17 21  1  0
 18 19  1  0
 18 20  1  0
 21 22  2  0
M  END
