
     RDKit          3D

 22 21  0  0  0  0  0  0  0  0999 V2000
    1.5690    3.0830    0.4570 C   0  0  0  0  0  0  0  0  0  0  0  0
    2.4330    2.2330    0.8630 C   0  0  0  0  0  0  0  0  0  0  0  0
    2.6610    0.8180    0.8560 C   0  0  0  0  0  0  0  0  0  0  0  0
    3.8370    0.5320    1.5460 C   0  0  0  0  0  0  0  0  0  0  0  0
    4.3520   -0.8090    1.7210 C   0  0  2  0  0  0  0  0  0  0  0  0
    5.5900   -0.7420    2.4330 F   0  0  0  0  0  0  0  0  0  0  0  0
    4.7120   -1.4110    0.5310 F   0  0  0  0  0  0  0  0  0  0  0  0
    3.5730   -1.6010    2.5360 F   0  0  0  0  0  0  0  0  0  0  0  0
    1.9450   -0.3230    0.3860 C   0  0  0  0  0  0  0  0  0  0  0  0
    0.8950   -0.5340   -0.3080 C   0  0  0  0  0  0  0  0  0  0  0  0
    0.4700   -1.9720   -0.5570 C   0  0  0  0  0  0  0  0  0  0  0  0
    1.2810   -2.9840   -0.0670 N   0  0  0  0  0  0  0  0  0  0  0  0
    2.5310   -3.2530   -0.6850 C   0  0  0  0  0  0  0  0  0  0  0  0
    0.1190    0.4740   -1.0370 C   0  0  0  0  0  0  0  0  0  0  0  0
   -1.2050    0.6420   -0.6630 O   0  0  0  0  0  0  0  0  0  0  0  0
   -1.6990    1.0020    0.5790 C   0  0  0  0  0  0  0  0  0  0  0  0
   -0.8500    1.2030    1.4820 O   0  0  0  0  0  0  0  0  0  0  0  0
   -3.1520    1.1520    0.8580 C   0  0  0  0  0  0  0  0  0  0  0  0
   -4.0020    0.8440   -0.3360 C   0  0  2  0  0  0  0  0  0  0  0  0
   -3.7860   -0.5600   -0.7970 C   0  0  0  0  0  0  0  0  0  0  0  0
   -3.7060    1.8320   -1.4510 C   0  0  0  0  0  0  0  0  0  0  0  0
   -5.3430    0.9950    0.0820 O   0  0  0  0  0  0  0  0  0  0  0  0
  1  2  2  0
  2  3  1  0
  3  4  2  3
  3  9  1  0
  4  5  1  0
  5  6  1  1
  5  7  1  0
  5  8  1  0
  9 10  2  3
 10 11  1  0
 10 14  1  0
 11 12  1  0
 12 13  1  0
 14 15  1  0
 15 16  1  0
 16 17  2  0
 16 18  1  0
 18 19  1  0
 19 20  1  6
 19 21  1  0
 19 22  1  0
M  END
