
     RDKit          3D

 22 22  0  0  0  0  0  0  0  0999 V2000
   -1.7790    4.3410   -0.6480 C   0  0  0  0  0  0  0  0  0  0  0  0
   -0.9480    3.0880   -0.5780 C   0  0  0  0  0  0  0  0  0  0  0  0
    0.4210    3.1710   -0.6980 C   0  0  0  0  0  0  0  0  0  0  0  0
    1.2270    2.0260   -0.6370 C   0  0  0  0  0  0  0  0  0  0  0  0
    2.6940    2.1310   -0.7670 C   0  0  0  0  0  0  0  0  0  0  0  0
    0.6600    0.7870   -0.4540 C   0  0  0  0  0  0  0  0  0  0  0  0
    1.5150   -0.3620   -0.3970 N   0  0  0  0  0  0  0  0  0  0  0  0
    2.1170   -0.8210    0.7940 C   0  0  0  0  0  0  0  0  0  0  0  0
    2.9300   -2.0100    0.7740 C   0  0  0  0  0  0  0  0  0  0  0  0
    3.5270   -2.3970    2.1280 C   0  0  0  0  0  0  0  0  0  0  0  0
    2.5060   -2.6190    3.0130 F   0  0  0  0  0  0  0  0  0  0  0  0
    3.2110   -2.7740   -0.2260 C   0  0  0  0  0  0  0  0  0  0  0  0
    2.7580   -2.5630   -1.4860 F   0  0  0  0  0  0  0  0  0  0  0  0
    4.0310   -3.8900   -0.0140 F   0  0  0  0  0  0  0  0  0  0  0  0
   -0.7050    0.7000   -0.3350 C   0  0  0  0  0  0  0  0  0  0  0  0
   -1.3150   -0.6080   -0.1590 C   0  0  0  0  0  0  0  0  0  0  0  0
   -0.5800   -1.6180   -0.1250 O   0  0  0  0  0  0  0  0  0  0  0  0
   -2.6830   -0.7920   -0.0260 O   0  0  0  0  0  0  0  0  0  0  0  0
   -3.2070   -2.1090    0.1440 C   0  0  0  0  0  0  0  0  0  0  0  0
   -4.6950   -2.0910    0.2680 C   0  0  0  0  0  0  0  0  0  0  0  0
   -5.3320   -1.5550   -0.8390 O   0  0  0  0  0  0  0  0  0  0  0  0
   -1.5060    1.8520   -0.3970 C   0  0  0  0  0  0  0  0  0  0  0  0
  1  2  1  0
  2  3  2  0
  2 22  1  0
  3  4  1  0
  4  5  1  0
  4  6  2  0
  6  7  1  0
  6 15  1  0
  7  8  1  0
  8  9  1  0
  9 10  1  0
  9 12  2  3
 10 11  1  0
 12 13  1  0
 12 14  1  0
 15 16  1  0
 15 22  2  0
 16 17  2  0
 16 18  1  0
 18 19  1  0
 19 20  1  0
 20 21  1  0
M  END
