
     RDKit          3D

 22 22  0  0  0  0  0  0  0  0999 V2000
   -3.6510    2.7850    1.7760 C   0  0  0  0  0  0  0  0  0  0  0  0
   -2.7310    1.6640    1.3460 C   0  0  0  0  0  0  0  0  0  0  0  0
   -3.0390    0.9550    0.2860 C   0  0  0  0  0  0  0  0  0  0  0  0
   -2.2490   -0.1240   -0.2040 C   0  0  0  0  0  0  0  0  0  0  0  0
   -2.6840   -0.7350   -1.3350 C   0  0  0  0  0  0  0  0  0  0  0  0
   -3.9010   -0.3310   -2.0440 C   0  0  2  0  0  0  0  0  0  0  0  0
   -4.0140   -1.1410   -3.1820 F   0  0  0  0  0  0  0  0  0  0  0  0
   -3.8270    0.9710   -2.4920 F   0  0  0  0  0  0  0  0  0  0  0  0
   -5.0440   -0.4820   -1.2840 F   0  0  0  0  0  0  0  0  0  0  0  0
   -1.0490   -0.6580    0.2970 N   0  0  0  0  0  0  0  0  0  0  0  0
   -1.0500   -1.5090    1.4320 C   0  0  0  0  0  0  0  0  0  0  0  0
   -0.7920   -0.9540    2.7740 C   0  0  0  0  0  0  0  0  0  0  0  0
   -0.8460   -2.0760    3.6660 O   0  0  0  0  0  0  0  0  0  0  0  0
    0.1530   -0.3890   -0.4650 C   0  0  0  0  0  0  0  0  0  0  0  0
    0.1110    0.2900   -1.5210 O   0  0  0  0  0  0  0  0  0  0  0  0
    1.4590   -0.9020   -0.0270 C   0  0  0  0  0  0  0  0  0  0  0  0
    2.5250   -0.4830   -0.9860 C   0  0  2  0  0  0  0  0  0  0  0  0
    2.3110   -0.9490   -2.2700 O   0  0  0  0  0  0  0  0  0  0  0  0
    3.9050   -0.8940   -0.5640 C   0  0  0  0  0  0  0  0  0  0  0  0
    4.7760    0.2400   -1.0850 C   0  0  0  0  0  0  0  0  0  0  0  0
    3.9610    1.4490   -0.6800 C   0  0  0  0  0  0  0  0  0  0  0  0
    2.5640    1.0300   -1.0090 C   0  0  0  0  0  0  0  0  0  0  0  0
  1  2  1  0
  2  3  2  3
  3  4  1  0
  4  5  2  3
  4 10  1  0
  5  6  1  0
  6  7  1  6
  6  8  1  0
  6  9  1  0
 10 11  1  0
 10 14  1  0
 11 12  1  0
 12 13  1  0
 14 15  2  0
 14 16  1  0
 16 17  1  0
 17 18  1  6
 17 19  1  0
 17 22  1  0
 19 20  1  0
 20 21  1  0
 21 22  1  0
M  END
