
     RDKit          3D

 22 22  0  0  0  0  0  0  0  0999 V2000
   -2.3880    0.2700   -2.2160 N   0  0  0  0  0  0  0  0  0  0  0  0
   -3.8020    0.2390   -1.9580 C   0  0  0  0  0  0  0  0  0  0  0  0
   -4.1310   -0.2140   -0.5880 C   0  0  0  0  0  0  0  0  0  0  0  0
   -5.4430   -0.2880   -0.2180 C   0  0  0  0  0  0  0  0  0  0  0  0
   -6.4730    0.0360   -1.0520 F   0  0  0  0  0  0  0  0  0  0  0  0
   -5.7640   -0.7130    1.0700 C   0  0  0  0  0  0  0  0  0  0  0  0
   -4.7820   -1.0580    1.9730 C   0  0  0  0  0  0  0  0  0  0  0  0
   -3.4690   -0.9650    1.5460 C   0  0  0  0  0  0  0  0  0  0  0  0
   -3.1190   -0.5520    0.2900 C   0  0  0  0  0  0  0  0  0  0  0  0
   -1.8080   -0.4530   -0.1550 O   0  0  0  0  0  0  0  0  0  0  0  0
   -0.7800   -0.8060    0.7660 C   0  0  0  0  0  0  0  0  0  0  0  0
    0.5590   -0.6590    0.1790 C   0  0  0  0  0  0  0  0  0  0  0  0
    0.9280   -1.3770   -0.9450 O   0  0  0  0  0  0  0  0  0  0  0  0
    1.4260    0.1650    0.7250 C   0  0  0  0  0  0  0  0  0  0  0  0
    2.7700    0.3590    0.1950 C   0  0  0  0  0  0  0  0  0  0  0  0
    3.6060    1.1910    0.7700 C   0  0  0  0  0  0  0  0  0  0  0  0
    4.9590    1.4180    0.2770 C   0  0  0  0  0  0  0  0  0  0  0  0
    5.7840    2.2580    0.8680 C   0  0  0  0  0  0  0  0  0  0  0  0
    7.0240    2.4630    0.4120 F   0  0  0  0  0  0  0  0  0  0  0  0
    5.3990    0.7320   -0.8480 O   0  0  0  0  0  0  0  0  0  0  0  0
    5.9370   -0.5550   -0.7880 C   0  0  0  0  0  0  0  0  0  0  0  0
    7.0710   -0.5590    0.0160 F   0  0  0  0  0  0  0  0  0  0  0  0
  1  2  1  0
  2  3  1  0
  3  4  2  0
  3  9  1  0
  4  5  1  0
  4  6  1  0
  6  7  2  0
  7  8  1  0
  8  9  2  0
  9 10  1  0
 10 11  1  0
 11 12  1  0
 12 13  1  0
 12 14  2  3
 14 15  1  0
 15 16  2  3
 16 17  1  0
 17 18  2  3
 17 20  1  0
 18 19  1  0
 20 21  1  0
 21 22  1  0
M  END
