
     RDKit          3D

 22 22  0  0  0  0  0  0  0  0999 V2000
   -4.9520    3.0650   -1.5300 C   0  0  0  0  0  0  0  0  0  0  0  0
   -4.4020    2.0800   -0.7850 C   0  0  0  0  0  0  0  0  0  0  0  0
   -3.6310    2.4580    0.2930 O   0  0  0  0  0  0  0  0  0  0  0  0
   -4.6320    0.7060   -1.1330 C   0  0  0  0  0  0  0  0  0  0  0  0
   -4.1710   -0.3500   -0.5140 C   0  0  0  0  0  0  0  0  0  0  0  0
   -3.3290   -0.3430    0.6540 C   0  0  0  0  0  0  0  0  0  0  0  0
   -2.9240   -1.4800    1.1920 C   0  0  0  0  0  0  0  0  0  0  0  0
   -2.1080   -1.4940    2.3250 O   0  0  0  0  0  0  0  0  0  0  0  0
   -0.9250   -0.7210    2.3610 C   0  0  0  0  0  0  0  0  0  0  0  0
    0.0350   -1.1230    1.2600 C   0  0  0  0  0  0  0  0  0  0  0  0
    1.2710   -0.3330    1.2780 C   0  0  0  0  0  0  0  0  0  0  0  0
    1.4930    0.5860    2.1340 O   0  0  0  0  0  0  0  0  0  0  0  0
    2.2740   -0.5700    0.3280 N   0  0  0  0  0  0  0  0  0  0  0  0
    3.5250    0.1390    0.2470 C   0  0  1  0  0  0  0  0  0  0  0  0
    4.7210   -0.7780    0.2960 C   0  0  0  0  0  0  0  0  0  0  0  0
    5.8410    0.1870   -0.1180 C   0  0  0  0  0  0  0  0  0  0  0  0
    5.1740    1.1900   -1.0360 C   0  0  0  0  0  0  0  0  0  0  0  0
    3.7180    0.8060   -1.0990 C   0  0  0  0  0  0  0  0  0  0  0  0
   -3.3380   -2.7610    0.5880 C   0  0  1  0  0  0  0  0  0  0  0  0
   -4.7180   -2.9350    0.6100 F   0  0  0  0  0  0  0  0  0  0  0  0
   -2.9220   -2.9230   -0.7120 F   0  0  0  0  0  0  0  0  0  0  0  0
   -2.8030   -3.8140    1.3360 F   0  0  0  0  0  0  0  0  0  0  0  0
  1  2  2  0
  2  3  1  0
  2  4  1  0
  4  5  2  3
  5  6  1  0
  6  7  2  3
  7  8  1  0
  7 19  1  0
  8  9  1  0
  9 10  1  0
 10 11  1  0
 11 12  2  0
 11 13  1  0
 14 13  1  6
 14 15  1  0
 14 18  1  0
 15 16  1  0
 16 17  1  0
 17 18  1  0
 19 20  1  6
 19 21  1  0
 19 22  1  0
M  END
