
     RDKit          3D

 22 22  0  0  0  0  0  0  0  0999 V2000
   -1.7970   -1.6740   -1.6770 C   0  0  0  0  0  0  0  0  0  0  0  0
   -3.0510   -1.0080   -1.9960 C   0  0  0  0  0  0  0  0  0  0  0  0
   -3.6350   -0.0350   -1.2850 C   0  0  0  0  0  0  0  0  0  0  0  0
   -4.8610    0.4400   -1.8210 N   0  0  0  0  0  0  0  0  0  0  0  0
   -3.0610    0.4730   -0.1120 C   0  0  0  0  0  0  0  0  0  0  0  0
   -3.5550    1.4080    0.6530 C   0  0  0  0  0  0  0  0  0  0  0  0
   -4.7960    2.1500    0.4950 C   0  0  2  0  0  0  0  0  0  0  0  0
   -4.7050    3.1360   -0.4770 F   0  0  0  0  0  0  0  0  0  0  0  0
   -5.0460    2.8140    1.7360 F   0  0  0  0  0  0  0  0  0  0  0  0
   -5.9280    1.4270    0.2830 F   0  0  0  0  0  0  0  0  0  0  0  0
   -1.7940   -0.0540    0.3410 O   0  0  0  0  0  0  0  0  0  0  0  0
   -0.7690    0.9170    0.3450 C   0  0  0  0  0  0  0  0  0  0  0  0
    0.5420    0.4420    0.9020 C   0  0  0  0  0  0  0  0  0  0  0  0
    1.0870   -0.6900    0.1250 C   0  0  0  0  0  0  0  0  0  0  0  0
    2.2940   -1.2250    0.5100 O   0  0  0  0  0  0  0  0  0  0  0  0
    3.5480   -0.7540    0.6030 C   0  0  0  0  0  0  0  0  0  0  0  0
    3.9550    0.5200    0.2760 C   0  0  0  0  0  0  0  0  0  0  0  0
    5.2830    0.8820    0.4200 C   0  0  0  0  0  0  0  0  0  0  0  0
    6.2390    0.0080    0.8850 C   0  0  0  0  0  0  0  0  0  0  0  0
    5.8290   -1.2580    1.2070 C   0  0  0  0  0  0  0  0  0  0  0  0
    4.5210   -1.6470    1.0760 C   0  0  0  0  0  0  0  0  0  0  0  0
    4.1870   -2.9500    1.4260 O   0  0  0  0  0  0  0  0  0  0  0  0
  1  2  1  0
  2  3  2  3
  3  4  1  0
  3  5  1  0
  5  6  2  3
  5 11  1  0
  6  7  1  0
  7  8  1  6
  7  9  1  0
  7 10  1  0
 11 12  1  0
 12 13  1  0
 13 14  1  0
 14 15  1  0
 15 16  1  0
 16 17  2  0
 16 21  1  0
 17 18  1  0
 18 19  2  0
 19 20  1  0
 20 21  2  0
 21 22  1  0
M  END
