
     RDKit          3D

 22 22  0  0  0  0  0  0  0  0999 V2000
    2.0570    0.1820   -0.9530 O   0  0  0  0  0  0  0  0  0  0  0  0
    2.2600    0.6700    0.1710 C   0  0  0  0  0  0  0  0  0  0  0  0
    1.0990    1.2990    0.9100 C   0  0  0  0  0  0  0  0  0  0  0  0
   -0.1590    1.0300    0.1690 C   0  0  0  0  0  0  0  0  0  0  0  0
   -0.4540   -0.4240    0.1130 C   0  0  0  0  0  0  0  0  0  0  0  0
   -1.7340   -0.7180   -0.6470 C   0  0  0  0  0  0  0  0  0  0  0  0
   -2.9480   -0.0620   -0.0270 C   0  0  0  0  0  0  0  0  0  0  0  0
   -4.1320   -0.4510   -0.8920 C   0  0  0  0  0  0  0  0  0  0  0  0
   -5.4200    0.1440   -0.3780 C   0  0  1  0  0  0  0  0  0  0  0  0
   -5.7110   -0.2760    0.9220 O   0  0  0  0  0  0  0  0  0  0  0  0
   -5.4460    1.5250   -0.4910 O   0  0  0  0  0  0  0  0  0  0  0  0
   -6.5320   -0.3870   -1.2820 C   0  0  1  0  0  0  0  0  0  0  0  0
   -6.5870   -1.7660   -1.2340 F   0  0  0  0  0  0  0  0  0  0  0  0
   -7.7570    0.0950   -0.9090 F   0  0  0  0  0  0  0  0  0  0  0  0
   -6.3150   -0.0250   -2.5960 F   0  0  0  0  0  0  0  0  0  0  0  0
    3.5330    0.6420    0.7500 N   0  0  0  0  0  0  0  0  0  0  0  0
    4.6810    0.0800    0.1590 C   0  0  0  0  0  0  0  0  0  0  0  0
    4.6910   -0.7170   -0.9590 C   0  0  0  0  0  0  0  0  0  0  0  0
    5.8750   -1.2280   -1.4960 C   0  0  0  0  0  0  0  0  0  0  0  0
    7.0670   -0.9240   -0.8890 C   0  0  0  0  0  0  0  0  0  0  0  0
    7.0970   -0.1330    0.2280 C   0  0  0  0  0  0  0  0  0  0  0  0
    5.9400    0.3470    0.7270 C   0  0  0  0  0  0  0  0  0  0  0  0
  1  2  2  0
  2  3  1  0
  2 16  1  0
  3  4  1  0
  4  5  1  0
  5  6  1  0
  6  7  1  0
  7  8  1  0
  8  9  1  0
  9 10  1  1
  9 11  1  0
  9 12  1  0
 12 13  1  6
 12 14  1  0
 12 15  1  0
 16 17  1  0
 17 18  2  0
 17 22  1  0
 18 19  1  0
 19 20  2  0
 20 21  1  0
 21 22  2  0
M  END
