
     RDKit          3D

 30 34  0  0  0  0  0  0  0  0999 V2000
   -6.5180   -0.1970   -0.3370 C   0  0  0  0  0  0  0  0  0  0  0  0
   -5.9560    0.2020    1.0250 C   0  0  2  0  0  0  0  0  0  0  0  0
   -5.3670    1.6140    0.9670 C   0  0  0  0  0  0  0  0  0  0  0  0
   -4.5440    1.6580   -0.2700 C   0  0  0  0  0  0  0  0  0  0  0  0
   -4.6320    2.6450   -1.0740 O   0  0  0  0  0  0  0  0  0  0  0  0
   -3.6450    0.5390   -0.5180 C   0  0  0  0  0  0  0  0  0  0  0  0
   -3.7700   -0.5530    0.2120 C   0  0  0  0  0  0  0  0  0  0  0  0
   -2.8510   -1.7020   -0.0390 C   0  0  0  0  0  0  0  0  0  0  0  0
   -1.9470   -1.3700   -1.1020 N   0  0  0  0  0  0  0  0  0  0  0  0
   -2.3160   -1.6740   -2.4650 C   0  0  0  0  0  0  0  0  0  0  0  0
   -0.6970   -0.7430   -0.7900 C   0  0  0  0  0  0  0  0  0  0  0  0
   -0.3780   -0.4790    0.4000 O   0  0  0  0  0  0  0  0  0  0  0  0
    0.2030   -0.4200   -1.9240 C   0  0  0  0  0  0  0  0  0  0  0  0
    1.3960    0.1070   -1.4180 O   0  0  0  0  0  0  0  0  0  0  0  0
    2.2060   -0.7000   -0.6170 C   0  0  0  0  0  0  0  0  0  0  0  0
    1.8850   -2.0190   -0.3220 C   0  0  0  0  0  0  0  0  0  0  0  0
    2.6990   -2.8020    0.4700 C   0  0  0  0  0  0  0  0  0  0  0  0
    3.8440   -2.2710    0.9750 C   0  0  0  0  0  0  0  0  0  0  0  0
    4.1710   -0.9670    0.6890 C   0  0  0  0  0  0  0  0  0  0  0  0
    5.2500   -0.1920    1.0610 C   0  0  0  0  0  0  0  0  0  0  0  0
    6.3810   -0.2920    1.7920 N   0  0  0  0  0  0  0  0  0  0  0  0
    7.2150    0.7920    1.8980 C   0  0  0  0  0  0  0  0  0  0  0  0
    6.9520    2.0090    1.2830 C   0  0  0  0  0  0  0  0  0  0  0  0
    5.7810    2.1330    0.5180 C   0  0  0  0  0  0  0  0  0  0  0  0
    5.0260    1.0120    0.4740 C   0  0  0  0  0  0  0  0  0  0  0  0
    3.9120    1.0640   -0.2290 N   0  0  0  0  0  0  0  0  0  0  0  0
    3.3490   -0.1630   -0.1160 C   0  0  0  0  0  0  0  0  0  0  0  0
    3.8220    2.4200   -0.7910 C   0  0  0  0  0  0  0  0  0  0  0  0
    5.0780    3.1320   -0.2870 C   0  0  0  0  0  0  0  0  0  0  0  0
   -4.7830   -0.7180    1.2860 C   0  0  0  0  0  0  0  0  0  0  0  0
  2  1  1  6
  2  3  1  0
  2 30  1  0
  3  4  1  0
  4  5  2  0
  4  6  1  0
  6  7  2  0
  7  8  1  0
  7 30  1  0
  8  9  1  0
  9 10  1  0
  9 11  1  0
 11 12  2  0
 11 13  1  0
 13 14  1  0
 14 15  1  0
 15 16  2  0
 15 27  1  0
 16 17  1  0
 17 18  2  0
 18 19  1  0
 19 20  1  0
 19 27  2  0
 20 21  2  0
 20 25  1  0
 21 22  1  0
 22 23  2  0
 23 24  1  0
 24 25  2  0
 24 29  1  0
 25 26  1  0
 26 27  1  0
 26 28  1  0
 28 29  1  0
M  END
