
     RDKit          3D

 30 34  0  0  0  0  0  0  0  0999 V2000
   -1.5270    3.8290    1.0710 C   0  0  0  0  0  0  0  0  0  0  0  0
   -2.3210    2.7920    0.8540 C   0  0  0  0  0  0  0  0  0  0  0  0
   -3.7550    3.0610    0.7230 C   0  0  0  0  0  0  0  0  0  0  0  0
   -4.5170    1.8260    0.4830 C   0  0  0  0  0  0  0  0  0  0  0  0
   -4.0120    0.6120    0.3910 C   0  0  0  0  0  0  0  0  0  0  0  0
   -5.0650   -0.3640    0.1500 C   0  0  0  0  0  0  0  0  0  0  0  0
   -4.7220   -1.4370   -0.8390 C   0  0  0  0  0  0  0  0  0  0  0  0
   -3.5520   -2.2670   -0.4690 C   0  0  0  0  0  0  0  0  0  0  0  0
   -2.2150   -1.6680   -0.7260 C   0  0  1  0  0  0  0  0  0  0  0  0
   -2.0980   -0.8530   -1.9760 C   0  0  0  0  0  0  0  0  0  0  0  0
   -0.6980   -0.2780   -2.0130 C   0  0  0  0  0  0  0  0  0  0  0  0
    0.1380   -0.7670   -0.9300 N   0  0  0  0  0  0  0  0  0  0  0  0
    1.4050   -1.3860   -1.1520 C   0  0  0  0  0  0  0  0  0  0  0  0
    1.7700   -1.4920   -2.3270 O   0  0  0  0  0  0  0  0  0  0  0  0
    2.1940   -1.8580   -0.0260 C   0  0  0  0  0  0  0  0  0  0  0  0
    3.6220   -2.1560   -0.2600 C   0  0  0  0  0  0  0  0  0  0  0  0
    4.3900   -1.0270   -0.6670 N   0  0  0  0  0  0  0  0  0  0  0  0
    4.7690   -0.6140   -1.8590 C   0  0  0  0  0  0  0  0  0  0  0  0
    4.5810   -1.1280   -2.9740 O   0  0  0  0  0  0  0  0  0  0  0  0
    5.4490    0.5290   -1.7360 O   0  0  0  0  0  0  0  0  0  0  0  0
    5.5200    0.8650   -0.4820 C   0  0  0  0  0  0  0  0  0  0  0  0
    6.0980    1.9360    0.1990 C   0  0  0  0  0  0  0  0  0  0  0  0
    5.9990    2.0120    1.5690 C   0  0  0  0  0  0  0  0  0  0  0  0
    5.3350    1.0470    2.3020 C   0  0  0  0  0  0  0  0  0  0  0  0
    4.7780    0.0040    1.5810 C   0  0  0  0  0  0  0  0  0  0  0  0
    4.8580   -0.1000    0.2290 C   0  0  0  0  0  0  0  0  0  0  0  0
   -0.3400   -0.6140    0.4150 C   0  0  0  0  0  0  0  0  0  0  0  0
   -1.8290   -0.8290    0.4660 C   0  0  1  0  0  0  0  0  0  0  0  0
   -2.5730    0.4410    0.5360 C   0  0  0  0  0  0  0  0  0  0  0  0
   -1.8170    1.4720    0.7490 N   0  0  0  0  0  0  0  0  0  0  0  0
  1  2  2  0
  2  3  1  0
  2 30  1  0
  3  4  1  0
  4  5  2  0
  5  6  1  0
  5 29  1  0
  6  7  1  0
  7  8  1  0
  9  8  1  1
  9 10  1  0
  9 28  1  0
 10 11  1  0
 11 12  1  0
 12 13  1  0
 12 27  1  0
 13 14  2  0
 13 15  1  0
 15 16  1  0
 16 17  1  0
 17 18  1  0
 17 26  1  0
 18 19  2  0
 18 20  1  0
 20 21  1  0
 21 22  2  0
 21 26  1  0
 22 23  1  0
 23 24  2  0
 24 25  1  0
 25 26  2  0
 28 27  1  6
 28 29  1  0
 29 30  2  0
M  END
