
     RDKit          3D

 29 33  0  0  0  0  0  0  0  0999 V2000
   -5.8130   -0.1610    0.2090 C   0  0  0  0  0  0  0  0  0  0  0  0
   -4.8590   -1.0860    0.3190 C   0  0  0  0  0  0  0  0  0  0  0  0
   -3.8520   -1.0130    1.3490 C   0  0  0  0  0  0  0  0  0  0  0  0
   -2.5000   -0.9650    1.0030 N   0  0  0  0  0  0  0  0  0  0  0  0
   -1.9660   -2.2440    0.4910 C   0  0  0  0  0  0  0  0  0  0  0  0
   -0.6880   -1.8500   -0.2090 C   0  0  0  0  0  0  0  0  0  0  0  0
   -0.6820   -0.4050   -0.0810 N   0  0  0  0  0  0  0  0  0  0  0  0
    0.4490    0.4310    0.0310 C   0  0  0  0  0  0  0  0  0  0  0  0
    0.3200    1.7070   -0.0090 O   0  0  0  0  0  0  0  0  0  0  0  0
    1.8340   -0.0410    0.2070 C   0  0  0  0  0  0  0  0  0  0  0  0
    2.3210   -1.2420    0.6770 C   0  0  0  0  0  0  0  0  0  0  0  0
    3.6830   -1.2850    0.4630 C   0  0  0  0  0  0  0  0  0  0  0  0
    4.6690   -2.2260    0.7090 C   0  0  0  0  0  0  0  0  0  0  0  0
    5.9540   -1.9190    0.3260 C   0  0  0  0  0  0  0  0  0  0  0  0
    6.2720   -0.7100   -0.2870 C   0  0  0  0  0  0  0  0  0  0  0  0
    5.2600    0.2200   -0.5220 C   0  0  0  0  0  0  0  0  0  0  0  0
    5.4770    1.4270   -1.1240 C   0  0  0  0  0  0  0  0  0  0  0  0
    6.6360    1.7640   -1.4980 O   0  0  0  0  0  0  0  0  0  0  0  0
    4.3710    2.2480   -1.2970 C   0  0  0  0  0  0  0  0  0  0  0  0
    3.0900    1.8520   -0.8770 C   0  0  0  0  0  0  0  0  0  0  0  0
    2.8990    0.6610   -0.2940 N   0  0  0  0  0  0  0  0  0  0  0  0
    4.0010   -0.1080   -0.1320 C   0  0  0  0  0  0  0  0  0  0  0  0
   -2.0810   -0.0740   -0.0530 C   0  0  1  0  0  0  0  0  0  0  0  0
   -2.6300   -0.4120   -1.4190 C   0  0  0  0  0  0  0  0  0  0  0  0
   -2.3710    1.3110    0.2040 C   0  0  0  0  0  0  0  0  0  0  0  0
   -2.2180    2.3140   -0.7780 C   0  0  0  0  0  0  0  0  0  0  0  0
   -2.5750    3.4920   -0.2360 C   0  0  0  0  0  0  0  0  0  0  0  0
   -2.9390    3.2190    1.0630 C   0  0  0  0  0  0  0  0  0  0  0  0
   -2.8020    1.9370    1.2730 O   0  0  0  0  0  0  0  0  0  0  0  0
  1  2  2  0
  2  3  1  0
  3  4  1  0
  4  5  1  0
  4 23  1  0
  5  6  1  0
  6  7  1  0
  7  8  1  0
  7 23  1  0
  8  9  2  0
  8 10  1  0
 10 11  2  0
 10 21  1  0
 11 12  1  0
 12 13  2  0
 12 22  1  0
 13 14  1  0
 14 15  2  0
 15 16  1  0
 16 17  1  0
 16 22  2  0
 17 18  2  0
 17 19  1  0
 19 20  2  0
 20 21  1  0
 21 22  1  0
 23 24  1  6
 23 25  1  0
 25 26  2  0
 25 29  1  0
 26 27  1  0
 27 28  2  0
 28 29  1  0
M  END
