
     RDKit          3D

 27 28  0  0  0  0  0  0  0  0999 V2000
   -6.3260   -1.7210   -1.7510 C   0  0  0  0  0  0  0  0  0  0  0  0
   -6.7450   -0.9130   -0.6320 C   0  0  0  0  0  0  0  0  0  0  0  0
   -6.1330   -0.0610    0.0910 C   0  0  0  0  0  0  0  0  0  0  0  0
   -7.1020    0.5460    1.2150 C   0  0  0  0  0  0  0  0  0  0  0  0
   -4.8300    0.4620    0.1280 C   0  0  0  0  0  0  0  0  0  0  0  0
   -3.7030    0.3600   -0.4840 C   0  0  0  0  0  0  0  0  0  0  0  0
   -3.3510   -0.3940   -1.5120 N   0  0  0  0  0  0  0  0  0  0  0  0
   -2.0390   -0.1450   -1.7980 C   0  0  0  0  0  0  0  0  0  0  0  0
   -1.5490    0.7900   -0.9270 C   0  0  0  0  0  0  0  0  0  0  0  0
   -2.5440    1.1310   -0.0970 C   0  0  0  0  0  0  0  0  0  0  0  0
   -2.3910    2.0290    0.8720 C   0  0  0  0  0  0  0  0  0  0  0  0
   -1.0970    2.6500    1.0220 C   0  0  0  0  0  0  0  0  0  0  0  0
   -0.0660    2.3650    0.2430 C   0  0  0  0  0  0  0  0  0  0  0  0
    1.2150    3.0650    0.4830 C   0  0  0  0  0  0  0  0  0  0  0  0
    2.3190    2.8060   -0.3190 N   0  0  0  0  0  0  0  0  0  0  0  0
    1.2890    3.8920    1.4120 O   0  0  0  0  0  0  0  0  0  0  0  0
   -0.1660    1.3740   -0.8120 C   0  0  1  0  0  0  0  0  0  0  0  0
    0.7290    0.3010   -0.6350 O   0  0  0  0  0  0  0  0  0  0  0  0
    1.4880    0.0490   -1.7330 C   0  0  0  0  0  0  0  0  0  0  0  0
    2.4110   -1.1350   -1.4340 C   0  0  0  0  0  0  0  0  0  0  0  0
    3.5350   -0.7930    0.0000 P   0  0  0  0  0  0  0  0  0  0  0  0
    4.2630   -2.2330    0.5770 O   0  0  0  0  0  0  0  0  0  0  0  0
    3.7870   -2.6150    1.8290 C   0  0  0  0  0  0  0  0  0  0  0  0
    4.4260   -3.8710    2.3280 C   0  0  0  0  0  0  0  0  0  0  0  0
    4.8180    0.2380   -0.6080 O   0  0  0  0  0  0  0  0  0  0  0  0
    5.9150    0.1480    0.2240 C   0  0  0  0  0  0  0  0  0  0  0  0
    7.0140    1.0400   -0.3080 C   0  0  0  0  0  0  0  0  0  0  0  0
  1  2  1  0
  2  3  2  3
  3  4  1  0
  3  5  1  0
  5  6  2  3
  6  7  1  0
  6 10  1  0
  7  8  1  0
  8  9  2  0
  9 10  1  0
  9 17  1  0
 10 11  2  0
 11 12  1  0
 12 13  2  0
 13 14  1  0
 13 17  1  0
 14 15  1  0
 14 16  2  0
 17 18  1  1
 18 19  1  0
 19 20  1  0
 20 21  1  0
 21 22  1  0
 21 25  1  0
 22 23  1  0
 23 24  1  0
 25 26  1  0
 26 27  1  0
M  END
