
     RDKit          3D

 27 28  0  0  0  0  0  0  0  0999 V2000
    7.7710    1.1000    1.6150 C   0  0  0  0  0  0  0  0  0  0  0  0
    6.4290    0.6240    1.1320 C   0  0  0  0  0  0  0  0  0  0  0  0
    5.4060    0.6050    2.2560 C   0  0  0  0  0  0  0  0  0  0  0  0
    4.0840    0.1370    1.7860 C   0  0  0  0  0  0  0  0  0  0  0  0
    3.1680    0.0710    2.5800 O   0  0  0  0  0  0  0  0  0  0  0  0
    3.8840   -0.3180    0.0500 P   0  0  0  0  0  0  0  0  0  0  0  0
    4.8140   -1.8380   -0.4150 C   0  0  0  0  0  0  0  0  0  0  0  0
    2.1320   -0.4010   -0.4820 C   0  0  0  0  0  0  0  0  0  0  0  0
    1.6560    0.3840   -1.5090 C   0  0  0  0  0  0  0  0  0  0  0  0
    0.3170    0.3240   -1.9200 C   0  0  0  0  0  0  0  0  0  0  0  0
   -0.5770   -0.5220   -1.3140 C   0  0  0  0  0  0  0  0  0  0  0  0
   -2.0160   -0.5980   -1.7410 C   0  0  0  0  0  0  0  0  0  0  0  0
   -2.8740    0.3780   -0.9740 C   0  0  2  0  0  0  0  0  0  0  0  0
   -2.5120    1.7530   -1.1340 N   0  0  0  0  0  0  0  0  0  0  0  0
   -2.6680    2.2650   -2.4730 C   0  0  0  0  0  0  0  0  0  0  0  0
   -4.1270    2.3620   -2.8750 C   0  0  0  0  0  0  0  0  0  0  0  0
   -4.1670    2.8710   -4.1930 O   0  0  0  0  0  0  0  0  0  0  0  0
   -2.9020   -0.0050    0.4510 C   0  0  1  0  0  0  0  0  0  0  0  0
   -3.7220    0.9770    1.3240 C   0  0  0  0  0  0  0  0  0  0  0  0
   -3.6170    0.2240    2.6630 C   0  0  1  0  0  0  0  0  0  0  0  0
   -4.7510    0.4000    3.4270 O   0  0  0  0  0  0  0  0  0  0  0  0
   -3.4560   -1.2540    2.2540 C   0  0  0  0  0  0  0  0  0  0  0  0
   -3.6450   -1.1940    0.7910 N   0  0  0  0  0  0  0  0  0  0  0  0
   -4.3990   -2.1130    0.0550 C   0  0  0  0  0  0  0  0  0  0  0  0
   -4.9760   -3.1150    0.6300 O   0  0  0  0  0  0  0  0  0  0  0  0
   -0.0990   -1.3090   -0.2840 C   0  0  0  0  0  0  0  0  0  0  0  0
    1.2200   -1.2440    0.1160 C   0  0  0  0  0  0  0  0  0  0  0  0
  1  2  1  0
  2  3  1  0
  3  4  1  0
  4  5  2  0
  4  6  1  0
  6  7  1  0
  6  8  1  0
  8  9  2  0
  8 27  1  0
  9 10  1  0
 10 11  2  0
 11 12  1  0
 11 26  1  0
 13 12  1  6
 13 14  1  0
 13 18  1  0
 14 15  1  0
 15 16  1  0
 16 17  1  0
 18 19  1  1
 18 23  1  0
 19 20  1  0
 20 21  1  1
 20 22  1  0
 22 23  1  0
 23 24  1  0
 24 25  2  0
 26 27  2  0
M  END
