
     RDKit          3D

 27 27  0  0  0  0  0  0  0  0999 V2000
   -7.6060    1.6230    0.9110 C   0  0  0  0  0  0  0  0  0  0  0  0
   -7.3120    1.3970   -0.5720 C   0  0  0  0  0  0  0  0  0  0  0  0
   -5.7970    1.3940   -0.7970 C   0  0  0  0  0  0  0  0  0  0  0  0
   -5.2340    0.2720    0.0440 C   0  0  0  0  0  0  0  0  0  0  0  0
   -3.7260    0.1770   -0.1070 C   0  0  0  0  0  0  0  0  0  0  0  0
   -3.1640   -0.9300    0.7350 C   0  0  0  0  0  0  0  0  0  0  0  0
   -1.7170   -1.0180    0.5720 N   0  0  0  0  0  0  0  0  0  0  0  0
   -0.8290    0.0230    0.9070 C   0  0  0  0  0  0  0  0  0  0  0  0
   -1.4080    1.0850    1.3780 O   0  0  0  0  0  0  0  0  0  0  0  0
    0.6390    0.0290    0.7790 C   0  0  2  0  0  0  0  0  0  0  0  0
    1.1560    1.3360    0.4530 N   0  0  0  0  0  0  0  0  0  0  0  0
    2.5080    1.7270    0.4680 C   0  0  0  0  0  0  0  0  0  0  0  0
    3.4450    1.0070    1.1520 C   0  0  0  0  0  0  0  0  0  0  0  0
    4.7890    1.4050    1.1280 C   0  0  0  0  0  0  0  0  0  0  0  0
    5.2110    2.5120    0.4310 C   0  0  0  0  0  0  0  0  0  0  0  0
    6.9880    3.0080    0.4160 P   0  0  0  0  0  0  0  0  0  0  0  0
    7.3810    3.7430    1.9450 O   0  0  0  0  0  0  0  0  0  0  0  0
    7.2450    4.1480   -0.8740 O   0  0  0  0  0  0  0  0  0  0  0  0
    4.2610    3.2400   -0.2590 C   0  0  0  0  0  0  0  0  0  0  0  0
    2.9310    2.8540   -0.2410 C   0  0  0  0  0  0  0  0  0  0  0  0
    1.2190   -1.0910   -0.0430 C   0  0  2  0  0  0  0  0  0  0  0  0
    0.6390   -1.0910   -1.3980 C   0  0  0  0  0  0  0  0  0  0  0  0
    1.3250   -2.3200    0.7560 C   0  0  0  0  0  0  0  0  0  0  0  0
    1.8770   -3.5410    0.1150 C   0  0  1  0  0  0  0  0  0  0  0  0
    1.1600   -4.0890   -1.0580 C   0  0  0  0  0  0  0  0  0  0  0  0
    3.3540   -3.4170   -0.2120 C   0  0  0  0  0  0  0  0  0  0  0  0
    3.7200   -4.6340   -0.8030 O   0  0  0  0  0  0  0  0  0  0  0  0
  1  2  1  0
  2  3  1  0
  3  4  1  0
  4  5  1  0
  5  6  1  0
  6  7  1  0
  7  8  1  0
  8  9  2  0
  8 10  1  0
 10 11  1  6
 10 21  1  0
 11 12  1  0
 12 13  2  0
 12 20  1  0
 13 14  1  0
 14 15  2  0
 15 16  1  0
 15 19  1  0
 16 17  1  0
 16 18  1  0
 19 20  2  0
 21 22  1  6
 21 23  1  0
 23 24  1  0
 24 25  1  6
 24 26  1  0
 26 27  1  0
M  END
