
     RDKit          3D

 27 28  0  0  0  0  0  0  0  0999 V2000
   -5.0880   -3.3930    2.6760 C   0  0  0  0  0  0  0  0  0  0  0  0
   -4.9080   -1.9430    2.3590 C   0  0  0  0  0  0  0  0  0  0  0  0
   -4.6970   -1.7200    0.9800 O   0  0  0  0  0  0  0  0  0  0  0  0
   -4.5110   -0.0350    0.7650 P   0  0  0  0  0  0  0  0  0  0  0  0
   -5.5310    0.6840   -0.3600 O   0  0  0  0  0  0  0  0  0  0  0  0
   -5.0650    1.7620   -1.0620 C   0  0  0  0  0  0  0  0  0  0  0  0
   -6.2080    2.1900   -1.9950 C   0  0  0  0  0  0  0  0  0  0  0  0
   -2.7790    0.5060    0.8080 C   0  0  2  0  0  0  0  0  0  0  0  0
   -2.5950    1.8640    0.8610 O   0  0  0  0  0  0  0  0  0  0  0  0
   -1.9160   -0.1080   -0.3040 C   0  0  0  0  0  0  0  0  0  0  0  0
   -0.5260    0.1830   -0.0150 N   0  0  0  0  0  0  0  0  0  0  0  0
    0.3670   -0.3480   -1.0160 C   0  0  2  0  0  0  0  0  0  0  0  0
    0.2650   -1.8290   -1.0440 C   0  0  1  0  0  0  0  0  0  0  0  0
   -0.8110   -2.1560   -1.9030 O   0  0  0  0  0  0  0  0  0  0  0  0
    1.4830   -2.5160   -1.5840 C   0  0  0  0  0  0  0  0  0  0  0  0
    2.1740   -1.5630   -2.5310 C   0  0  0  0  0  0  0  0  0  0  0  0
    2.7390   -0.3650   -1.7990 C   0  0  0  0  0  0  0  0  0  0  0  0
    1.7690    0.1870   -0.7860 C   0  0  1  0  0  0  0  0  0  0  0  0
    1.7180    1.6810   -0.9500 C   0  0  0  0  0  0  0  0  0  0  0  0
    2.2120   -0.1060    0.5610 N   0  0  0  0  0  0  0  0  0  0  0  0
    3.4600    0.3170    1.0420 C   0  0  0  0  0  0  0  0  0  0  0  0
    3.8660   -0.0630    2.3220 C   0  0  0  0  0  0  0  0  0  0  0  0
    5.0620    0.3040    2.8790 C   0  0  0  0  0  0  0  0  0  0  0  0
    5.9280    1.0830    2.1730 C   0  0  0  0  0  0  0  0  0  0  0  0
    5.5770    1.4870    0.9020 C   0  0  0  0  0  0  0  0  0  0  0  0
    6.5160    2.3350    0.1330 C   0  0  0  0  0  0  0  0  0  0  0  0
    4.3510    1.1020    0.3510 C   0  0  0  0  0  0  0  0  0  0  0  0
  1  2  1  0
  2  3  1  0
  3  4  1  0
  4  5  1  0
  4  8  1  0
  5  6  1  0
  6  7  1  0
  8  9  1  6
  8 10  1  0
 10 11  1  0
 12 11  1  1
 12 13  1  0
 12 18  1  0
 13 14  1  6
 13 15  1  0
 15 16  1  0
 16 17  1  0
 17 18  1  0
 18 19  1  1
 18 20  1  0
 20 21  1  0
 21 22  2  0
 21 27  1  0
 22 23  1  0
 23 24  2  0
 24 25  1  0
 25 26  1  0
 25 27  2  0
M  END
