
     RDKit          3D

 11 10  0  0  0  0  0  0  0  0999 V2000
   -2.1800    1.6830   -0.5950 C   0  0  0  0  0  0  0  0  0  0  0  0
   -1.9930    0.5710    0.0300 C   0  0  0  0  0  0  0  0  0  0  0  0
   -0.7360    0.0030    0.3830 C   0  0  0  0  0  0  0  0  0  0  0  0
   -0.6730   -1.1480    1.0250 N   0  0  0  0  0  0  0  0  0  0  0  0
    0.5290    0.6460    0.0630 C   0  0  0  0  0  0  0  0  0  0  0  0
    0.5690    1.7320   -0.5410 O   0  0  0  0  0  0  0  0  0  0  0  0
    1.7800    0.0440    0.4350 N   0  0  0  0  0  0  0  0  0  0  0  0
    2.2420   -0.9940   -0.1680 C   0  0  0  0  0  0  0  0  0  0  0  0
    1.4140   -1.7850   -1.4930 Cl  0  0  0  0  0  0  0  0  0  0  0  0
    3.4560   -1.4930    0.2710 O   0  0  0  0  0  0  0  0  0  0  0  0
    4.4960   -0.5250    1.5130 Br  0  0  0  0  0  0  0  0  0  0  0  0
  1  2  2  0
  2  3  1  0
  3  4  2  0
  3  5  1  0
  5  6  2  0
  5  7  1  0
  7  8  2  3
  8  9  1  0
  8 10  1  0
 10 11  1  0
M  CHG  1   4   1
M  END
