
     RDKit          3D

 24 25  0  0  0  0  0  0  0  0999 V2000
    1.6620    4.4320    1.3390 C   0  0  0  0  0  0  0  0  0  0  0  0
    1.1120    3.1790    0.8420 N   0  0  0  0  0  0  0  0  0  0  0  0
    1.1440    1.9660    1.6360 C   0  0  0  0  0  0  0  0  0  0  0  0
    2.1750    1.0620    1.6980 C   0  0  0  0  0  0  0  0  0  0  0  0
    3.3630    1.1980    0.9070 N   0  0  0  0  0  0  0  0  0  0  0  0
    1.8520    0.0810    2.5220 N   0  0  0  0  0  0  0  0  0  0  0  0
    0.5910    0.2520    3.0670 C   0  0  0  0  0  0  0  0  0  0  0  0
   -0.1030   -0.4640    4.0620 C   0  0  0  0  0  0  0  0  0  0  0  0
   -0.6730   -1.0290    4.8680 N   0  0  0  0  0  0  0  0  0  0  0  0
    0.1870    1.4720    2.4750 C   0  0  0  0  0  0  0  0  0  0  0  0
   -1.0830    2.1800    2.6920 C   0  0  0  0  0  0  0  0  0  0  0  0
   -2.0670    1.8970    1.8640 C   0  0  0  0  0  0  0  0  0  0  0  0
   -1.8990    0.9030    0.7860 C   0  0  0  0  0  0  0  0  0  0  0  0
   -2.9430    0.6500   -0.1530 N   0  0  0  0  0  0  0  0  0  0  0  0
   -0.8280    0.1770    0.7600 N   0  0  0  0  0  0  0  0  0  0  0  0
   -0.6420   -0.7770   -0.2540 C   0  0  0  0  0  0  0  0  0  0  0  0
   -1.4920   -1.5980   -0.7890 C   0  0  0  0  0  0  0  0  0  0  0  0
   -0.9580   -2.4950   -1.8830 C   0  0  0  0  0  0  0  0  0  0  0  0
    0.3870   -2.7870   -1.8880 C   0  0  0  0  0  0  0  0  0  0  0  0
    0.9360   -3.3400   -3.0870 C   0  0  0  0  0  0  0  0  0  0  0  0
    0.0840   -3.5250   -4.0850 C   0  0  0  0  0  0  0  0  0  0  0  0
    0.7160   -4.1060   -5.3110 O   0  0  0  0  0  0  0  0  0  0  0  0
   -1.2070   -3.2890   -4.1850 C   0  0  0  0  0  0  0  0  0  0  0  0
   -1.7700   -2.7170   -2.9500 C   0  0  0  0  0  0  0  0  0  0  0  0
  1  2  1  0
  2  3  1  0
  3  4  2  0
  3 10  1  0
  4  5  1  0
  4  6  1  0
  6  7  1  0
  7  8  1  0
  7 10  2  0
  8  9  3  0
 10 11  1  0
 11 12  2  3
 12 13  1  0
 13 14  1  0
 13 15  2  3
 15 16  1  0
 16 17  2  3
 17 18  1  0
 18 19  2  0
 18 24  1  0
 19 20  1  0
 20 21  2  0
 21 22  1  0
 21 23  1  0
 23 24  2  0
M  END
