
     RDKit          3D

 24 25  0  0  0  0  0  0  0  0999 V2000
    0.4010   -3.7480    1.1540 C   0  0  0  0  0  0  0  0  0  0  0  0
    0.1300   -2.3490    0.7150 C   0  0  0  0  0  0  0  0  0  0  0  0
   -1.1080   -1.7420    0.9250 C   0  0  0  0  0  0  0  0  0  0  0  0
   -1.3500   -0.4480    0.5160 C   0  0  0  0  0  0  0  0  0  0  0  0
   -2.6850    0.1480    0.7650 C   0  0  0  0  0  0  0  0  0  0  0  0
   -3.4270    0.1460   -0.5580 C   0  0  0  0  0  0  0  0  0  0  0  0
   -4.8080    0.7330   -0.4320 C   0  0  1  0  0  0  0  0  0  0  0  0
   -5.6690   -0.0300    0.5460 C   0  0  0  0  0  0  0  0  0  0  0  0
   -4.7940    2.1740    0.0000 C   0  0  0  0  0  0  0  0  0  0  0  0
   -5.4650    0.6560   -1.7920 C   0  0  0  0  0  0  0  0  0  0  0  0
   -0.3810    0.3000   -0.1160 C   0  0  0  0  0  0  0  0  0  0  0  0
   -0.6130    1.6430   -0.5470 N   0  0  0  0  0  0  0  0  0  0  0  0
    0.8520   -0.2770   -0.3360 C   0  0  0  0  0  0  0  0  0  0  0  0
    1.8870    0.5010   -1.0030 C   0  0  0  0  0  0  0  0  0  0  0  0
    1.6500    1.6750   -1.3680 O   0  0  0  0  0  0  0  0  0  0  0  0
    3.1510   -0.1080   -1.2210 N   0  0  0  0  0  0  0  0  0  0  0  0
    4.1680    0.2080   -0.5070 C   0  0  0  0  0  0  0  0  0  0  0  0
    4.1950    1.0950    0.4850 N   0  0  0  0  0  0  0  0  0  0  0  0
    5.4390    1.1410    0.9830 N   0  0  0  0  0  0  0  0  0  0  0  0
    6.1810    0.2700    0.2870 C   0  0  0  0  0  0  0  0  0  0  0  0
    7.6280   -0.0620    0.4400 C   0  0  0  0  0  0  0  0  0  0  0  0
    8.3590    0.8620   -0.4330 N   0  0  0  0  0  0  0  0  0  0  0  0
    5.3950   -0.3030   -0.6310 N   0  0  0  0  0  0  0  0  0  0  0  0
    1.0880   -1.5860    0.0810 C   0  0  0  0  0  0  0  0  0  0  0  0
  1  2  1  0
  2  3  2  0
  2 24  1  0
  3  4  1  0
  4  5  1  0
  4 11  2  0
  5  6  1  0
  6  7  1  0
  7  8  1  1
  7  9  1  0
  7 10  1  0
 11 12  1  0
 11 13  1  0
 13 14  1  0
 13 24  2  0
 14 15  2  0
 14 16  1  0
 16 17  2  3
 17 18  1  0
 17 23  1  0
 18 19  1  0
 19 20  2  0
 20 21  1  0
 20 23  1  0
 21 22  1  0
M  END
