
     RDKit          3D

 22 23  0  0  0  0  0  0  0  0999 V2000
    5.0070    1.9530   -0.9120 C   0  0  0  0  0  0  0  0  0  0  0  0
    3.8420    2.8640   -1.1050 C   0  0  0  0  0  0  0  0  0  0  0  0
    2.6630    2.1710   -1.4780 O   0  0  0  0  0  0  0  0  0  0  0  0
    2.0890    1.2000   -0.6700 C   0  0  0  0  0  0  0  0  0  0  0  0
    2.6780    0.9710    0.4160 O   0  0  0  0  0  0  0  0  0  0  0  0
    0.8690    0.4680   -1.0300 C   0  0  0  0  0  0  0  0  0  0  0  0
    0.3260    0.5460   -2.2850 C   0  0  0  0  0  0  0  0  0  0  0  0
   -0.7560   -0.1310   -2.6400 N   0  0  0  0  0  0  0  0  0  0  0  0
   -1.3730   -0.9420   -1.7480 C   0  0  0  0  0  0  0  0  0  0  0  0
   -2.4920   -1.6350   -2.1330 C   0  0  0  0  0  0  0  0  0  0  0  0
   -3.1240   -2.4560   -1.2400 C   0  0  0  0  0  0  0  0  0  0  0  0
   -2.6530   -2.6090    0.0730 C   0  0  0  0  0  0  0  0  0  0  0  0
   -3.3200   -3.4420    0.9270 O   0  0  0  0  0  0  0  0  0  0  0  0
   -4.4700   -4.1340    0.4780 C   0  0  0  0  0  0  0  0  0  0  0  0
   -1.5210   -1.8910    0.4150 C   0  0  0  0  0  0  0  0  0  0  0  0
   -0.8760   -1.0640   -0.4670 C   0  0  0  0  0  0  0  0  0  0  0  0
    0.2500   -0.3540   -0.1080 C   0  0  0  0  0  0  0  0  0  0  0  0
    0.8130   -0.5110    1.5800 S   0  0  0  0  0  0  0  0  0  0  0  0
   -0.0230    0.6900    2.6580 C   0  0  0  0  0  0  0  0  0  0  0  0
    0.3510    2.1180    2.3420 C   0  0  0  0  0  0  0  0  0  0  0  0
   -0.3490    3.0100    3.1990 C   0  0  0  0  0  0  0  0  0  0  0  0
   -0.9580    3.7540    3.9340 N   0  0  0  0  0  0  0  0  0  0  0  0
  1  2  1  0
  2  3  1  0
  3  4  1  0
  4  5  2  0
  4  6  1  0
  6  7  2  0
  6 17  1  0
  7  8  1  0
  8  9  2  0
  9 10  1  0
  9 16  1  0
 10 11  2  0
 11 12  1  0
 12 13  1  0
 12 15  2  0
 13 14  1  0
 15 16  1  0
 16 17  2  0
 17 18  1  0
 18 19  1  0
 19 20  1  0
 20 21  1  0
 21 22  3  0
M  END
