
     RDKit          3D

 24 25  0  0  0  0  0  0  0  0999 V2000
   -6.5430   -0.1650    0.0730 C   0  0  0  0  0  0  0  0  0  0  0  0
   -5.0750   -0.3920    0.0410 C   0  0  0  0  0  0  0  0  0  0  0  0
   -4.2140    0.5690    0.3620 C   0  0  0  0  0  0  0  0  0  0  0  0
   -4.6150    1.9390    0.7780 C   0  0  0  0  0  0  0  0  0  0  0  0
   -3.3130    2.6440    1.0560 C   0  0  0  0  0  0  0  0  0  0  0  0
   -2.2140    1.6080    0.9780 C   0  0  0  0  0  0  0  0  0  0  0  0
   -2.8110    0.4410    0.3590 N   0  0  0  0  0  0  0  0  0  0  0  0
   -1.9980   -0.6390   -0.1530 C   0  0  0  0  0  0  0  0  0  0  0  0
   -1.9740   -1.9010    0.4930 N   0  0  0  0  0  0  0  0  0  0  0  0
   -1.2790   -0.4760   -1.2050 N   0  0  0  0  0  0  0  0  0  0  0  0
   -0.4950   -1.5480   -1.6810 C   0  0  0  0  0  0  0  0  0  0  0  0
   -1.1000   -2.8380   -1.7400 N   0  0  0  0  0  0  0  0  0  0  0  0
    0.7470   -1.3240   -2.0490 C   0  0  0  0  0  0  0  0  0  0  0  0
    1.5170   -2.4350   -2.5280 N   0  0  0  0  0  0  0  0  0  0  0  0
    1.2660   -0.0100   -1.9570 N   0  0  0  0  0  0  0  0  0  0  0  0
    2.3690    0.2080   -1.0910 C   0  0  0  0  0  0  0  0  0  0  0  0
    2.8820    1.4820   -0.9940 C   0  0  0  0  0  0  0  0  0  0  0  0
    3.9620    1.7190   -0.1530 C   0  0  0  0  0  0  0  0  0  0  0  0
    4.5190    0.6840    0.5830 C   0  0  0  0  0  0  0  0  0  0  0  0
    5.5960    0.8590    1.4390 O   0  0  0  0  0  0  0  0  0  0  0  0
    6.2240    2.1040    1.6390 C   0  0  0  0  0  0  0  0  0  0  0  0
    4.0090   -0.6010    0.4920 C   0  0  0  0  0  0  0  0  0  0  0  0
    4.5510   -1.7520    1.2460 C   0  0  0  0  0  0  0  0  0  0  0  0
    2.9340   -0.8080   -0.3530 C   0  0  0  0  0  0  0  0  0  0  0  0
  1  2  1  0
  2  3  2  3
  3  4  1  0
  3  7  1  0
  4  5  1  0
  5  6  1  0
  6  7  1  0
  7  8  1  0
  8  9  1  0
  8 10  2  3
 10 11  1  0
 11 12  1  0
 11 13  2  3
 13 14  1  0
 13 15  1  0
 15 16  1  0
 16 17  2  0
 16 24  1  0
 17 18  1  0
 18 19  2  0
 19 20  1  0
 19 22  1  0
 20 21  1  0
 22 23  1  0
 22 24  2  0
M  END
