
     RDKit          3D

 36 39  0  0  0  0  0  0  0  0999 V2000
    4.6580   -2.2770    3.0420 C   0  0  0  0  0  0  0  0  0  0  0  0
    5.2520   -2.8520    2.0500 C   0  0  0  0  0  0  0  0  0  0  0  0
    6.1330   -4.0610    2.2410 C   0  0  0  0  0  0  0  0  0  0  0  0
    7.0760   -3.9510    1.0880 C   0  0  0  0  0  0  0  0  0  0  0  0
    6.3080   -3.2400    0.0610 C   0  0  0  0  0  0  0  0  0  0  0  0
    6.5620   -3.2010   -1.3090 C   0  0  0  0  0  0  0  0  0  0  0  0
    5.7390   -2.4730   -2.1050 C   0  0  0  0  0  0  0  0  0  0  0  0
    4.6630   -1.7840   -1.5310 C   0  0  0  0  0  0  0  0  0  0  0  0
    4.3970   -1.8110   -0.1820 C   0  0  0  0  0  0  0  0  0  0  0  0
    3.2890   -1.0500    0.4320 C   0  0  0  0  0  0  0  0  0  0  0  0
    2.4550   -0.3580   -0.5380 N   0  0  1  0  0  0  0  0  0  0  0  0
    1.1050   -0.1620    0.0130 C   0  0  0  0  0  0  0  0  0  0  0  0
    0.1590    0.2980   -1.0410 C   0  0  0  0  0  0  0  0  0  0  0  0
   -1.2450    0.5470   -0.4600 C   0  0  0  0  0  0  0  0  0  0  0  0
   -1.7490   -0.6940    0.1010 C   0  0  0  0  0  0  0  0  0  0  0  0
   -3.0220   -0.9020    0.7650 C   0  0  0  0  0  0  0  0  0  0  0  0
   -4.3610   -0.6810    0.2090 C   0  0  2  0  0  0  0  0  0  0  0  0
   -5.2410   -1.2740    1.4090 C   0  0  0  0  0  0  0  0  0  0  0  0
   -4.9320   -2.6430    1.6460 N   0  0  0  0  0  0  0  0  0  0  0  0
   -4.7590   -1.4260   -0.9710 C   0  0  0  0  0  0  0  0  0  0  0  0
   -4.4780   -2.6260   -1.2550 O   0  0  0  0  0  0  0  0  0  0  0  0
   -5.5520   -0.8340   -1.9820 O   0  0  0  0  0  0  0  0  0  0  0  0
   -5.9550   -1.5290   -3.1440 C   0  0  0  0  0  0  0  0  0  0  0  0
   -4.9080    0.6350    0.1450 N   0  0  0  0  0  0  0  0  0  0  0  0
   -4.3350    1.7080   -0.4990 C   0  0  0  0  0  0  0  0  0  0  0  0
   -5.3000    2.8940   -0.5920 C   0  0  0  0  0  0  0  0  0  0  0  0
   -6.2390    3.0030    0.5730 C   0  0  0  0  0  0  0  0  0  0  0  0
   -6.9200    1.6720    0.8510 C   0  0  0  0  0  0  0  0  0  0  0  0
   -6.3370    0.6320   -0.1070 C   0  0  0  0  0  0  0  0  0  0  0  0
    2.9710    0.8870   -0.9820 C   0  0  0  0  0  0  0  0  0  0  0  0
    2.7170    2.0570   -0.0630 C   0  0  0  0  0  0  0  0  0  0  0  0
    3.3230    3.2230   -0.6960 N   0  0  0  0  0  0  0  0  0  0  0  0
    3.8060    4.1690    0.2920 C   0  0  2  0  0  0  0  0  0  0  0  0
    3.6310    5.6160    0.0570 C   0  0  0  0  0  0  0  0  0  0  0  0
    4.9550    5.0270   -0.2210 C   0  0  0  0  0  0  0  0  0  0  0  0
    5.2320   -2.5520    0.6260 C   0  0  0  0  0  0  0  0  0  0  0  0
  1  2  2  0
  2  3  1  0
  2 36  1  0
  3  4  1  0
  4  5  1  0
  5  6  2  0
  5 36  1  0
  6  7  1  0
  7  8  2  0
  8  9  1  0
  9 10  1  0
  9 36  2  0
 11 10  1  1
 11 12  1  0
 11 30  1  0
 12 13  1  0
 13 14  1  0
 14 15  1  0
 15 16  1  0
 17 16  1  1
 17 18  1  0
 17 20  1  0
 17 24  1  0
 18 19  1  0
 20 21  2  0
 20 22  1  0
 22 23  1  0
 24 25  1  0
 24 29  1  0
 25 26  1  0
 26 27  1  0
 27 28  1  0
 28 29  1  0
 30 31  1  0
 31 32  1  0
 33 32  1  6
 33 34  1  0
 33 35  1  0
 34 35  1  0
M  CHG  3  11   1  19   1  32   1
M  END
