
     RDKit          3D

 36 39  0  0  0  0  0  0  0  0999 V2000
   -1.6930   -4.8210   -0.6770 C   0  0  0  0  0  0  0  0  0  0  0  0
   -2.4960   -3.7800   -1.3980 C   0  0  2  0  0  0  0  0  0  0  0  0
   -2.5240   -4.2100   -2.8770 C   0  0  0  0  0  0  0  0  0  0  0  0
   -1.9420   -2.4180   -1.3680 C   0  0  0  0  0  0  0  0  0  0  0  0
   -1.7540   -1.7900   -0.1180 N   0  0  2  0  0  0  0  0  0  0  0  0
   -0.4660   -2.0400    0.4970 C   0  0  0  0  0  0  0  0  0  0  0  0
    0.5260   -0.9510    0.1450 C   0  0  0  0  0  0  0  0  0  0  0  0
    1.8430   -1.2350    0.7970 C   0  0  0  0  0  0  0  0  0  0  0  0
    2.1430   -2.3270    1.6020 C   0  0  0  0  0  0  0  0  0  0  0  0
    3.4610   -2.1580    1.9650 C   0  0  0  0  0  0  0  0  0  0  0  0
    3.9150   -0.9920    1.3830 C   0  0  0  0  0  0  0  0  0  0  0  0
    5.2840   -0.4170    1.5060 C   0  0  2  0  0  0  0  0  0  0  0  0
    5.2480    0.6040    2.6100 C   0  0  0  0  0  0  0  0  0  0  0  0
    5.8340    0.0400    0.2730 N   0  0  0  0  0  0  0  0  0  0  0  0
    5.5380    1.3870   -0.0930 C   0  0  0  0  0  0  0  0  0  0  0  0
    6.6640    2.3460    0.2660 C   0  0  0  0  0  0  0  0  0  0  0  0
    7.8910    2.0120   -0.3820 N   0  0  0  0  0  0  0  0  0  0  0  0
    7.9180    2.1910   -1.8000 C   0  0  0  0  0  0  0  0  0  0  0  0
    9.2690    1.7390   -2.3130 C   0  0  0  0  0  0  0  0  0  0  0  0
    9.9690    1.0870   -1.3190 O   0  0  0  0  0  0  0  0  0  0  0  0
   10.2640    1.9250   -0.2420 C   0  0  0  0  0  0  0  0  0  0  0  0
    9.0310    2.6680    0.2080 C   0  0  0  0  0  0  0  0  0  0  0  0
    2.9060   -0.5040    0.7110 O   0  0  0  0  0  0  0  0  0  0  0  0
   -2.8320   -1.9560    0.8250 C   0  0  0  0  0  0  0  0  0  0  0  0
   -3.8880   -0.9170    0.7050 C   0  0  0  0  0  0  0  0  0  0  0  0
   -5.0240   -1.1280   -0.0460 C   0  0  0  0  0  0  0  0  0  0  0  0
   -6.0390   -0.1980   -0.1950 C   0  0  0  0  0  0  0  0  0  0  0  0
   -5.9040    1.0100    0.4480 C   0  0  0  0  0  0  0  0  0  0  0  0
   -6.9440    1.9830    0.3240 N   0  0  0  0  0  0  0  0  0  0  0  0
   -8.2310    1.7500   -0.2420 C   0  0  1  0  0  0  0  0  0  0  0  0
   -9.0780    0.7910    0.5530 C   0  0  0  0  0  0  0  0  0  0  0  0
   -8.9770    3.0600   -0.3400 C   0  0  2  0  0  0  0  0  0  0  0  0
   -9.2560    3.8380    0.8820 C   0  0  0  0  0  0  0  0  0  0  0  0
  -10.3640    3.1320    0.1440 C   0  0  0  0  0  0  0  0  0  0  0  0
   -4.7740    1.2590    1.2140 C   0  0  0  0  0  0  0  0  0  0  0  0
   -3.7780    0.3140    1.3440 C   0  0  0  0  0  0  0  0  0  0  0  0
  2  1  1  1
  2  3  1  0
  2  4  1  0
  5  4  1  6
  5  6  1  0
  5 24  1  0
  6  7  1  0
  7  8  1  0
  8  9  2  0
  8 23  1  0
  9 10  1  0
 10 11  2  0
 11 12  1  0
 11 23  1  0
 12 13  1  1
 12 14  1  0
 14 15  1  0
 15 16  1  0
 16 17  1  0
 17 18  1  0
 17 22  1  0
 18 19  1  0
 19 20  1  0
 20 21  1  0
 21 22  1  0
 24 25  1  0
 25 26  2  0
 25 36  1  0
 26 27  1  0
 27 28  2  0
 28 29  1  0
 28 35  1  0
 29 30  1  0
 30 31  1  1
 30 32  1  0
 32 33  1  1
 32 34  1  0
 33 34  1  0
 35 36  2  0
M  CHG  2   5   1  14   1
M  END
