
     RDKit          3D

 37 41  0  0  0  0  0  0  0  0999 V2000
   10.7150   -0.8060   -0.1550 C   0  0  0  0  0  0  0  0  0  0  0  0
    9.7890    0.3290    0.1920 C   0  0  0  0  0  0  0  0  0  0  0  0
    8.4390   -0.0960    0.0760 O   0  0  0  0  0  0  0  0  0  0  0  0
    7.3650    0.7210    0.3300 C   0  0  0  0  0  0  0  0  0  0  0  0
    7.5720    2.0260    0.7180 C   0  0  0  0  0  0  0  0  0  0  0  0
    6.5110    2.8680    0.9790 C   0  0  0  0  0  0  0  0  0  0  0  0
    5.2270    2.3540    0.8360 C   0  0  0  0  0  0  0  0  0  0  0  0
    4.0120    2.9110    1.0130 N   0  0  0  0  0  0  0  0  0  0  0  0
    3.0530    2.0050    0.7510 C   0  0  0  0  0  0  0  0  0  0  0  0
    3.6600    0.8260    0.3930 C   0  0  0  0  0  0  0  0  0  0  0  0
    5.0110    1.0500    0.4480 C   0  0  0  0  0  0  0  0  0  0  0  0
    6.1000    0.2140    0.1890 C   0  0  0  0  0  0  0  0  0  0  0  0
    2.9000   -0.3900    0.0360 C   0  0  0  0  0  0  0  0  0  0  0  0
    1.4740   -0.2740    0.3560 N   0  0  0  0  0  0  0  0  0  0  0  0
    0.5580   -1.1340   -0.3480 C   0  0  0  0  0  0  0  0  0  0  0  0
    1.0170   -1.9320   -1.1930 O   0  0  0  0  0  0  0  0  0  0  0  0
   -0.8450   -1.1180   -0.1270 N   0  0  0  0  0  0  0  0  0  0  0  0
   -1.8180   -1.9210   -0.7480 C   0  0  0  0  0  0  0  0  0  0  0  0
   -1.4290   -3.1470   -1.2420 C   0  0  0  0  0  0  0  0  0  0  0  0
   -2.4030   -4.0100   -1.7560 C   0  0  0  0  0  0  0  0  0  0  0  0
   -1.9340   -5.2360   -2.2400 O   0  0  0  0  0  0  0  0  0  0  0  0
   -2.9020   -6.1240   -2.7640 C   0  0  0  0  0  0  0  0  0  0  0  0
   -3.7150   -3.6600   -1.7740 C   0  0  0  0  0  0  0  0  0  0  0  0
   -4.1050   -2.4340   -1.2810 C   0  0  0  0  0  0  0  0  0  0  0  0
   -5.4570   -2.1360   -1.3260 O   0  0  0  0  0  0  0  0  0  0  0  0
   -3.1660   -1.5420   -0.7610 C   0  0  0  0  0  0  0  0  0  0  0  0
   -3.5680   -0.2390   -0.2880 C   0  0  0  0  0  0  0  0  0  0  0  0
   -2.6870    0.5540    0.1590 O   0  0  0  0  0  0  0  0  0  0  0  0
   -4.8900    0.2900   -0.2620 N   0  0  0  0  0  0  0  0  0  0  0  0
   -5.0900    1.6590    0.2670 C   0  0  0  0  0  0  0  0  0  0  0  0
   -6.5600    1.9450    0.1740 C   0  0  2  0  0  0  0  0  0  0  0  0
   -6.9570    3.2220    0.8460 C   0  0  0  0  0  0  0  0  0  0  0  0
   -8.4260    2.9970    1.1370 C   0  0  0  0  0  0  0  0  0  0  0  0
   -8.5350    1.4920    1.0570 C   0  0  0  0  0  0  0  0  0  0  0  0
   -7.2600    0.9940    0.9460 O   0  0  0  0  0  0  0  0  0  0  0  0
    1.1260    0.6910    1.3450 C   0  0  0  0  0  0  0  0  0  0  0  0
    1.5700    2.0530    0.7790 C   0  0  0  0  0  0  0  0  0  0  0  0
  1  2  1  0
  2  3  1  0
  3  4  1  0
  4  5  2  0
  4 12  1  0
  5  6  1  0
  6  7  2  0
  7  8  1  0
  7 11  1  0
  8  9  1  0
  9 10  2  0
  9 37  1  0
 10 11  1  0
 10 13  1  0
 11 12  2  0
 13 14  1  0
 14 15  1  0
 14 36  1  0
 15 16  2  0
 15 17  1  0
 17 18  1  0
 18 19  2  0
 18 26  1  0
 19 20  1  0
 20 21  1  0
 20 23  2  0
 21 22  1  0
 23 24  1  0
 24 25  1  0
 24 26  2  0
 26 27  1  0
 27 28  2  0
 27 29  1  0
 29 30  1  0
 31 30  1  1
 31 32  1  0
 31 35  1  0
 32 33  1  0
 33 34  1  0
 34 35  1  0
 36 37  1  0
M  END
