
     RDKit          3D

 36 39  0  0  0  0  0  0  0  0999 V2000
   -2.2900   -5.1050    1.0030 C   0  0  0  0  0  0  0  0  0  0  0  0
   -1.5590   -5.4030   -0.1680 O   0  0  0  0  0  0  0  0  0  0  0  0
   -1.1540   -4.3790   -1.0480 C   0  0  0  0  0  0  0  0  0  0  0  0
   -1.4630   -3.0700   -0.7610 C   0  0  0  0  0  0  0  0  0  0  0  0
   -1.0910   -1.9970   -1.5870 C   0  0  0  0  0  0  0  0  0  0  0  0
   -1.5100   -0.6030   -1.1930 C   0  0  0  0  0  0  0  0  0  0  0  0
   -0.6590    0.0490   -0.1990 C   0  0  1  0  0  0  0  0  0  0  0  0
    0.6700    0.3650   -0.3530 N   0  0  0  0  0  0  0  0  0  0  0  0
    1.5640   -0.3710   -1.1970 C   0  0  0  0  0  0  0  0  0  0  0  0
    2.9990    0.1650   -0.9610 C   0  0  0  0  0  0  0  0  0  0  0  0
    3.4750   -0.0200    0.4050 C   0  0  0  0  0  0  0  0  0  0  0  0
    3.3940    1.0610    1.2600 C   0  0  0  0  0  0  0  0  0  0  0  0
    3.8190    0.8980    2.5570 C   0  0  0  0  0  0  0  0  0  0  0  0
    4.3170   -0.3320    2.9940 C   0  0  0  0  0  0  0  0  0  0  0  0
    4.3870   -1.3880    2.1230 C   0  0  0  0  0  0  0  0  0  0  0  0
    4.8860   -2.6150    2.5250 C   0  0  0  0  0  0  0  0  0  0  0  0
    4.9770   -3.6730    1.6880 N   0  0  0  0  0  0  0  0  0  0  0  0
    4.5620   -3.5390    0.3910 C   0  0  0  0  0  0  0  0  0  0  0  0
    4.0590   -2.3420   -0.0590 C   0  0  0  0  0  0  0  0  0  0  0  0
    3.9680   -1.2700    0.7930 C   0  0  0  0  0  0  0  0  0  0  0  0
   -1.4220    1.2560    0.4130 C   0  0  1  0  0  0  0  0  0  0  0  0
   -0.5780    1.8800    1.4550 C   0  0  0  0  0  0  0  0  0  0  0  0
   -1.1090    3.0270    2.2450 C   0  0  0  0  0  0  0  0  0  0  0  0
   -1.4220    4.2170    1.4270 C   0  0  0  0  0  0  0  0  0  0  0  0
   -1.9080    5.3590    2.3330 C   0  0  0  0  0  0  0  0  0  0  0  0
   -2.1980    6.4910    1.4820 N   0  0  0  0  0  0  0  0  0  0  0  0
   -2.0200    2.0340   -0.5860 N   0  0  0  0  0  0  0  0  0  0  0  0
   -1.2980    2.6820   -1.5790 C   0  0  0  0  0  0  0  0  0  0  0  0
   -2.2470    3.4700   -2.4710 C   0  0  0  0  0  0  0  0  0  0  0  0
   -3.2460    4.1170   -1.7980 O   0  0  0  0  0  0  0  0  0  0  0  0
   -4.0890    3.1830   -1.2480 C   0  0  0  0  0  0  0  0  0  0  0  0
   -3.3940    1.8930   -0.8500 C   0  0  0  0  0  0  0  0  0  0  0  0
   -0.3940   -2.3100   -2.7190 C   0  0  0  0  0  0  0  0  0  0  0  0
   -0.0770   -3.6340   -3.0180 C   0  0  0  0  0  0  0  0  0  0  0  0
   -0.4500   -4.6770   -2.1900 C   0  0  0  0  0  0  0  0  0  0  0  0
   -0.1100   -6.0980   -2.5080 C   0  0  0  0  0  0  0  0  0  0  0  0
  1  2  1  0
  2  3  1  0
  3  4  2  0
  3 35  1  0
  4  5  1  0
  5  6  1  0
  5 33  2  0
  7  6  1  6
  7  8  1  0
  7 21  1  0
  8  9  1  0
  9 10  1  0
 10 11  1  0
 11 12  2  0
 11 20  1  0
 12 13  1  0
 13 14  2  0
 14 15  1  0
 15 16  2  0
 15 20  1  0
 16 17  1  0
 17 18  2  0
 18 19  1  0
 19 20  2  0
 21 22  1  6
 21 27  1  0
 22 23  1  0
 23 24  1  0
 24 25  1  0
 25 26  1  0
 27 28  1  0
 27 32  1  0
 28 29  1  0
 29 30  1  0
 30 31  1  0
 31 32  1  0
 33 34  1  0
 34 35  2  0
 35 36  1  0
M  CHG  2   8   1  17   1
M  END
