
     RDKit          3D

 36 39  0  0  0  0  0  0  0  0999 V2000
    7.3880   -0.4450   -1.6390 C   0  0  0  0  0  0  0  0  0  0  0  0
    7.5940   -0.3770   -0.1120 C   0  0  2  0  0  0  0  0  0  0  0  0
    7.5920   -1.7300    0.4010 N   0  0  0  0  0  0  0  0  0  0  0  0
    8.8480   -2.1810    0.9700 C   0  0  0  0  0  0  0  0  0  0  0  0
    8.8570   -1.8020    2.4770 C   0  0  0  0  0  0  0  0  0  0  0  0
    8.7990   -0.5500    2.7360 C   0  0  0  0  0  0  0  0  0  0  0  0
    8.7350    0.7780    3.0290 N   0  0  0  0  0  0  0  0  0  0  0  0
    6.3630    0.3450    0.4220 C   0  0  0  0  0  0  0  0  0  0  0  0
    6.3270    1.5160    1.0220 C   0  0  0  0  0  0  0  0  0  0  0  0
    5.1890    2.0940    1.5390 C   0  0  0  0  0  0  0  0  0  0  0  0
    3.9940    1.3540    1.3870 C   0  0  0  0  0  0  0  0  0  0  0  0
    3.9910    0.1520    0.7640 C   0  0  0  0  0  0  0  0  0  0  0  0
    2.6930   -0.5930    0.6080 C   0  0  0  0  0  0  0  0  0  0  0  0
    1.8120    0.0860   -0.4360 C   0  0  0  0  0  0  0  0  0  0  0  0
    0.6180   -0.7380   -0.7610 C   0  0  0  0  0  0  0  0  0  0  0  0
   -0.4270    0.0460   -1.5300 C   0  0  0  0  0  0  0  0  0  0  0  0
   -1.0870    1.0650   -0.6450 C   0  0  0  0  0  0  0  0  0  0  0  0
   -1.8160    0.5190    0.5420 C   0  0  0  0  0  0  0  0  0  0  0  0
   -2.9330   -0.4030    0.2900 C   0  0  0  0  0  0  0  0  0  0  0  0
   -2.7490   -1.7990    0.3250 C   0  0  0  0  0  0  0  0  0  0  0  0
   -3.8530   -2.6070    0.0210 C   0  0  0  0  0  0  0  0  0  0  0  0
   -5.0330   -2.2100   -0.2770 C   0  0  0  0  0  0  0  0  0  0  0  0
   -5.2320   -0.8290   -0.3130 C   0  0  0  0  0  0  0  0  0  0  0  0
   -4.2620    0.0640   -0.0570 C   0  0  0  0  0  0  0  0  0  0  0  0
   -4.5060    1.5020   -0.0770 C   0  0  0  0  0  0  0  0  0  0  0  0
   -5.9630    1.9190   -0.2690 C   0  0  1  0  0  0  0  0  0  0  0  0
   -5.8660    3.4950   -0.1320 C   0  0  0  0  0  0  0  0  0  0  0  0
   -7.0820    3.9730   -0.8470 C   0  0  2  0  0  0  0  0  0  0  0  0
   -8.0850    4.5170    0.0570 N   0  0  0  0  0  0  0  0  0  0  0  0
   -7.6250    2.7410   -1.5280 C   0  0  0  0  0  0  0  0  0  0  0  0
   -6.4300    1.8720   -1.6290 N   0  0  0  0  0  0  0  0  0  0  0  0
   -6.0980   -3.0770   -0.5560 O   0  0  0  0  0  0  0  0  0  0  0  0
   -5.8220   -4.4360   -0.1330 C   0  0  0  0  0  0  0  0  0  0  0  0
   -4.4550   -4.7880   -0.7580 C   0  0  0  0  0  0  0  0  0  0  0  0
   -3.5350   -4.0460    0.0780 O   0  0  0  0  0  0  0  0  0  0  0  0
    5.1520   -0.4060    0.2600 C   0  0  0  0  0  0  0  0  0  0  0  0
  2  1  1  6
  2  3  1  0
  2  8  1  0
  3  4  1  0
  4  5  1  0
  5  6  1  0
  6  7  3  0
  8  9  2  0
  8 36  1  0
  9 10  1  0
 10 11  2  0
 11 12  1  0
 12 13  1  0
 12 36  2  0
 13 14  1  0
 14 15  1  0
 15 16  1  0
 16 17  1  0
 17 18  1  0
 18 19  1  0
 19 20  2  0
 19 24  1  0
 20 21  1  0
 21 22  2  0
 21 35  1  0
 22 23  1  0
 22 32  1  0
 23 24  2  0
 24 25  1  0
 26 25  1  6
 26 27  1  0
 26 31  1  0
 27 28  1  0
 28 29  1  1
 28 30  1  0
 30 31  1  0
 32 33  1  0
 33 34  1  0
 34 35  1  0
M  CHG  2   3   1  31   1
M  END
