
     RDKit          3D

 36 39  0  0  0  0  0  0  0  0999 V2000
   -3.4110   -2.4730   -4.0410 C   0  0  0  0  0  0  0  0  0  0  0  0
   -2.4770   -2.0400   -3.2210 C   0  0  0  0  0  0  0  0  0  0  0  0
   -2.7990   -1.4860   -1.8620 C   0  0  0  0  0  0  0  0  0  0  0  0
   -2.3240   -0.1400   -1.8350 N   0  0  0  0  0  0  0  0  0  0  0  0
   -3.3620    0.8490   -2.2930 C   0  0  0  0  0  0  0  0  0  0  0  0
   -4.2520    1.0580   -1.1090 C   0  0  0  0  0  0  0  0  0  0  0  0
   -3.8650    1.7690   -0.0040 C   0  0  0  0  0  0  0  0  0  0  0  0
   -4.7700    1.9070    1.0410 C   0  0  0  0  0  0  0  0  0  0  0  0
   -4.3380    2.6900    2.2540 C   0  0  0  0  0  0  0  0  0  0  0  0
   -2.9890    3.1760    2.0890 N   0  0  0  0  0  0  0  0  0  0  0  0
   -6.0370    1.3730    1.0380 C   0  0  0  0  0  0  0  0  0  0  0  0
   -6.4180    0.6620   -0.0730 C   0  0  0  0  0  0  0  0  0  0  0  0
   -5.5410    0.5160   -1.1100 C   0  0  0  0  0  0  0  0  0  0  0  0
   -7.8050    0.1950    0.1590 C   0  0  0  0  0  0  0  0  0  0  0  0
   -7.8420    0.2120    1.6880 C   0  0  0  0  0  0  0  0  0  0  0  0
   -7.0990    1.3860    1.9640 O   0  0  0  0  0  0  0  0  0  0  0  0
   -1.0730    0.3380   -1.4320 C   0  0  0  0  0  0  0  0  0  0  0  0
   -0.9220    1.6310   -1.6340 O   0  0  0  0  0  0  0  0  0  0  0  0
    0.0960   -0.3280   -0.8330 C   0  0  2  0  0  0  0  0  0  0  0  0
    1.0600   -0.5730   -1.9710 C   0  0  0  0  0  0  0  0  0  0  0  0
    2.3440   -1.2200   -1.6390 C   0  0  1  0  0  0  0  0  0  0  0  0
    3.0900   -1.3630   -2.9930 C   0  0  0  0  0  0  0  0  0  0  0  0
    3.2720   -0.2980   -0.8330 C   0  0  0  0  0  0  0  0  0  0  0  0
    4.5650   -1.0210   -0.5180 C   0  0  0  0  0  0  0  0  0  0  0  0
    5.4920   -0.1670    0.2580 C   0  0  0  0  0  0  0  0  0  0  0  0
    6.4080    0.6430   -0.3780 C   0  0  0  0  0  0  0  0  0  0  0  0
    7.2540    1.4260    0.4000 C   0  0  0  0  0  0  0  0  0  0  0  0
    7.2140    1.4250    1.7770 C   0  0  0  0  0  0  0  0  0  0  0  0
    8.1420    2.2840    2.5670 C   0  0  0  0  0  0  0  0  0  0  0  0
    6.2880    0.6070    2.4020 C   0  0  0  0  0  0  0  0  0  0  0  0
    6.2160    0.5790    3.8180 N   0  0  0  0  0  0  0  0  0  0  0  0
    5.4360   -0.1810    1.6190 C   0  0  0  0  0  0  0  0  0  0  0  0
   -0.2260   -1.4860   -0.0740 N   0  0  0  0  0  0  0  0  0  0  0  0
    0.7100   -1.5480    1.0610 C   0  0  1  0  0  0  0  0  0  0  0  0
    0.1300   -2.4470    2.2060 C   0  0  0  0  0  0  0  0  0  0  0  0
    1.3760   -2.7790    1.4680 C   0  0  0  0  0  0  0  0  0  0  0  0
  1  2  2  0
  2  3  1  0
  3  4  1  0
  4  5  1  0
  4 17  1  0
  5  6  1  0
  6  7  2  0
  6 13  1  0
  7  8  1  0
  8  9  1  0
  8 11  2  0
  9 10  1  0
 11 12  1  0
 11 16  1  0
 12 13  2  0
 12 14  1  0
 14 15  1  0
 15 16  1  0
 17 18  2  0
 17 19  1  0
 19 20  1  6
 19 33  1  0
 20 21  1  0
 21 22  1  6
 21 23  1  0
 23 24  1  0
 24 25  1  0
 25 26  2  0
 25 32  1  0
 26 27  1  0
 27 28  2  0
 28 29  1  0
 28 30  1  0
 30 31  1  0
 30 32  2  0
 34 33  1  6
 34 35  1  0
 34 36  1  0
 35 36  1  0
M  CHG  2  10   1  33   1
M  END
