
     RDKit          3D

 20 22  0  0  0  0  0  0  0  0999 V2000
    5.2860    1.0120    0.0490 C   0  0  0  0  0  0  0  0  0  0  0  0
    4.0690    0.2330    0.5320 C   0  0  2  0  0  0  0  0  0  0  0  0
    4.4640   -0.5540    1.7440 C   0  0  0  0  0  0  0  0  0  0  0  0
    3.6000   -0.6150   -0.6150 C   0  0  0  0  0  0  0  0  0  0  0  0
    2.4000   -1.4460   -0.2940 C   0  0  0  0  0  0  0  0  0  0  0  0
    1.1990   -0.6660    0.1090 C   0  0  2  0  0  0  0  0  0  0  0  0
    0.0800   -1.6740    0.3960 C   0  0  0  0  0  0  0  0  0  0  0  0
   -1.1260   -1.0300    1.0450 C   0  0  0  0  0  0  0  0  0  0  0  0
   -1.3820    0.3530    0.5010 C   0  0  1  0  0  0  0  0  0  0  0  0
   -0.7630    0.5350   -0.8330 C   0  0  0  0  0  0  0  0  0  0  0  0
   -1.7010    0.9180   -1.6590 C   0  0  0  0  0  0  0  0  0  0  0  0
   -2.9780    1.0190   -0.9780 C   0  0  0  0  0  0  0  0  0  0  0  0
   -2.7990    0.6870    0.2900 C   0  0  0  0  0  0  0  0  0  0  0  0
   -3.9810    0.7250    1.1530 C   0  0  0  0  0  0  0  0  0  0  0  0
   -3.8520    1.1070    2.3260 O   0  0  0  0  0  0  0  0  0  0  0  0
   -5.2800    0.3100    0.6080 C   0  0  0  0  0  0  0  0  0  0  0  0
   -5.4080    0.4930   -0.8650 C   0  0  0  0  0  0  0  0  0  0  0  0
   -4.3540    1.4090   -1.4400 C   0  0  0  0  0  0  0  0  0  0  0  0
    0.6870    0.2430   -0.9360 C   0  0  0  0  0  0  0  0  0  0  0  0
    1.3130    0.7720   -1.8600 O   0  0  0  0  0  0  0  0  0  0  0  0
  2  1  1  6
  2  3  1  0
  2  4  1  0
  4  5  1  0
  6  5  1  6
  6  7  1  0
  6 19  1  0
  7  8  1  0
  9  8  1  6
  9 10  1  0
  9 13  1  0
 10 11  2  0
 10 19  1  0
 11 12  1  0
 12 13  2  0
 12 18  1  0
 13 14  1  0
 14 15  2  0
 14 16  1  0
 16 17  1  0
 17 18  1  0
 19 20  2  0
M  END
