
     RDKit          3D

 23 26  0  0  0  0  0  0  0  0999 V2000
   -1.8050   -2.8980   -1.6230 C   0  0  0  0  0  0  0  0  0  0  0  0
   -1.3470   -2.4350   -0.2350 C   0  0  1  0  0  0  0  0  0  0  0  0
    0.0290   -2.1190   -0.2650 N   0  0  0  0  0  0  0  0  0  0  0  0
    0.5730   -0.7640   -0.4410 C   0  0  0  0  0  0  0  0  0  0  0  0
    1.7260   -0.5790   -0.7420 N   0  0  0  0  0  0  0  0  0  0  0  0
    2.8560    0.0300   -1.0480 C   0  0  0  0  0  0  0  0  0  0  0  0
    3.0910    0.3600   -2.2750 O   0  0  0  0  0  0  0  0  0  0  0  0
    3.9320    0.3930   -0.1140 C   0  0  0  0  0  0  0  0  0  0  0  0
    5.1110    1.0240   -0.3980 C   0  0  0  0  0  0  0  0  0  0  0  0
    5.7810    1.1410    0.8020 C   0  0  0  0  0  0  0  0  0  0  0  0
    4.9750    0.5730    1.7670 C   0  0  0  0  0  0  0  0  0  0  0  0
    3.8860    0.1440    1.1650 O   0  0  0  0  0  0  0  0  0  0  0  0
   -0.3580    0.2820   -0.2390 N   0  0  0  0  0  0  0  0  0  0  0  0
    0.2290    1.6010   -0.3980 C   0  0  0  0  0  0  0  0  0  0  0  0
   -0.1260    2.3250    0.9150 C   0  0  0  0  0  0  0  0  0  0  0  0
   -1.4200    3.0260    0.8990 C   0  0  0  0  0  0  0  0  0  0  0  0
   -2.5570    2.4070    0.1850 C   0  0  0  0  0  0  0  0  0  0  0  0
   -2.6920    0.9480    0.2960 C   0  0  0  0  0  0  0  0  0  0  0  0
   -1.7510    0.0460    0.1130 C   0  0  0  0  0  0  0  0  0  0  0  0
   -2.1860   -1.3170    0.2620 C   0  0  0  0  0  0  0  0  0  0  0  0
   -3.2570   -1.8520    0.7920 C   0  0  0  0  0  0  0  0  0  0  0  0
   -3.1330   -3.3520    0.6500 C   0  0  0  0  0  0  0  0  0  0  0  0
   -1.7180   -3.4480    0.6450 O   0  0  0  0  0  0  0  0  0  0  0  0
  2  1  1  6
  2  3  1  0
  2 20  1  0
  2 23  1  0
  3  4  1  0
  4  5  2  3
  4 13  1  0
  5  6  1  0
  6  7  2  0
  6  8  1  0
  8  9  2  0
  8 12  1  0
  9 10  1  0
 10 11  2  0
 11 12  1  0
 13 14  1  0
 13 19  1  0
 14 15  1  0
 15 16  1  0
 16 17  1  0
 17 18  1  0
 18 19  2  0
 19 20  1  0
 20 21  2  0
 21 22  1  0
 22 23  1  0
M  END
