
     RDKit          3D

 23 25  0  0  0  0  0  0  0  0999 V2000
    2.7980   -1.0980    1.9040 C   0  0  0  0  0  0  0  0  0  0  0  0
    2.3360   -1.8850    0.7230 C   0  0  0  0  0  0  0  0  0  0  0  0
    1.7300   -1.0760   -0.3210 N   0  0  0  0  0  0  0  0  0  0  0  0
    2.7800   -0.2420   -0.9300 C   0  0  0  0  0  0  0  0  0  0  0  0
    2.0210    1.0220   -1.3790 C   0  0  0  0  0  0  0  0  0  0  0  0
    1.4150    1.4790   -0.2200 O   0  0  0  0  0  0  0  0  0  0  0  0
    0.6120    2.5280    0.0660 C   0  0  0  0  0  0  0  0  0  0  0  0
    0.7890    3.5710    0.8560 C   0  0  0  0  0  0  0  0  0  0  0  0
   -0.3970    4.4310    0.8160 C   0  0  0  0  0  0  0  0  0  0  0  0
   -1.2830    3.7350   -0.1100 C   0  0  0  0  0  0  0  0  0  0  0  0
   -0.7010    2.6260   -0.5480 C   0  0  0  0  0  0  0  0  0  0  0  0
   -1.2480    1.6780   -1.4550 N   0  0  0  0  0  0  0  0  0  0  0  0
   -1.3000    0.2930   -1.3520 C   0  0  0  0  0  0  0  0  0  0  0  0
   -1.1040   -0.3620   -2.4420 O   0  0  0  0  0  0  0  0  0  0  0  0
   -1.5490   -0.5420   -0.1730 C   0  0  1  0  0  0  0  0  0  0  0  0
   -1.2000    0.0530    1.1420 C   0  0  0  0  0  0  0  0  0  0  0  0
   -3.0790   -0.7510   -0.1320 C   0  0  0  0  0  0  0  0  0  0  0  0
   -3.1810   -1.9360    0.7590 C   0  0  0  0  0  0  0  0  0  0  0  0
   -1.9370   -2.7200    0.5930 C   0  0  0  0  0  0  0  0  0  0  0  0
   -1.1290   -1.9040   -0.3370 N   0  0  0  0  0  0  0  0  0  0  0  0
   -0.1390   -2.3920   -1.2230 C   0  0  0  0  0  0  0  0  0  0  0  0
   -0.4270   -3.3800   -2.0000 O   0  0  0  0  0  0  0  0  0  0  0  0
    1.2300   -1.9010   -1.3810 C   0  0  0  0  0  0  0  0  0  0  0  0
  1  2  1  0
  2  3  1  0
  3  4  1  0
  3 23  1  0
  4  5  1  0
  5  6  1  0
  6  7  1  0
  7  8  2  0
  7 11  1  0
  8  9  1  0
  9 10  1  0
 10 11  2  0
 11 12  1  0
 12 13  1  0
 13 14  2  0
 13 15  1  0
 15 16  1  1
 15 17  1  0
 15 20  1  0
 17 18  1  0
 18 19  1  0
 19 20  1  0
 20 21  1  0
 21 22  2  0
 21 23  1  0
M  END
