
     RDKit          3D

 13 13  0  0  0  0  0  0  0  0999 V2000
    3.6140    1.0620   -0.5510 C   0  0  0  0  0  0  0  0  0  0  0  0
    2.4480    0.6040   -1.2390 O   0  0  0  0  0  0  0  0  0  0  0  0
    1.4570   -0.0150   -0.4480 C   0  0  0  0  0  0  0  0  0  0  0  0
    0.1990    0.3850   -0.5560 C   0  0  0  0  0  0  0  0  0  0  0  0
   -0.8540   -0.2130    0.2290 C   0  0  0  0  0  0  0  0  0  0  0  0
   -2.1140    0.1400    0.1670 C   0  0  0  0  0  0  0  0  0  0  0  0
   -3.0650   -0.5120    0.9810 O   0  0  0  0  0  0  0  0  0  0  0  0
   -2.6800    1.1930   -0.6980 C   0  0  0  0  0  0  0  0  0  0  0  0
   -3.6430    0.6130   -1.5560 O   0  0  0  0  0  0  0  0  0  0  0  0
   -0.4600   -1.2830    1.1480 C   0  0  0  0  0  0  0  0  0  0  0  0
   -1.3250   -1.8440    1.8580 O   0  0  0  0  0  0  0  0  0  0  0  0
    0.9290   -1.7100    1.2520 C   0  0  0  0  0  0  0  0  0  0  0  0
    1.8020   -1.0840    0.4800 C   0  0  0  0  0  0  0  0  0  0  0  0
  1  2  1  0
  2  3  1  0
  3  4  2  0
  3 13  1  0
  4  5  1  0
  5  6  2  3
  5 10  1  0
  6  7  1  0
  6  8  1  0
  8  9  1  0
 10 11  2  0
 10 12  1  0
 12 13  2  0
M  END
