
     RDKit          3D

 15 16  0  0  0  0  0  0  0  0999 V2000
    3.0230    1.9020   -0.9190 C   0  0  0  0  0  0  0  0  0  0  0  0
    2.4470    1.0380   -0.1280 C   0  0  0  0  0  0  0  0  0  0  0  0
    1.0430    1.1930    0.2440 C   0  0  0  0  0  0  0  0  0  0  0  0
    0.1810    0.0490   -0.1740 C   0  0  0  0  0  0  0  0  0  0  0  0
    0.5140   -1.0930   -0.8680 C   0  0  0  0  0  0  0  0  0  0  0  0
   -0.6130   -1.8010   -0.9900 N   0  0  0  0  0  0  0  0  0  0  0  0
   -1.6400   -1.1520   -0.4030 C   0  0  0  0  0  0  0  0  0  0  0  0
   -2.9810   -1.4790   -0.2700 C   0  0  0  0  0  0  0  0  0  0  0  0
   -3.8170   -0.6080    0.3940 C   0  0  0  0  0  0  0  0  0  0  0  0
   -3.3460    0.5740    0.9230 C   0  0  0  0  0  0  0  0  0  0  0  0
   -2.0200    0.9120    0.8000 C   0  0  0  0  0  0  0  0  0  0  0  0
   -1.1790    0.0470    0.1390 C   0  0  0  0  0  0  0  0  0  0  0  0
    3.2160   -0.0770    0.3780 C   0  0  0  0  0  0  0  0  0  0  0  0
    4.4230   -0.1990    0.0510 O   0  0  0  0  0  0  0  0  0  0  0  0
    2.7030   -1.0530    1.2250 O   0  0  0  0  0  0  0  0  0  0  0  0
  1  2  2  0
  2  3  1  0
  2 13  1  0
  3  4  1  0
  4  5  2  0
  4 12  1  0
  5  6  1  0
  6  7  1  0
  7  8  2  0
  7 12  1  0
  8  9  1  0
  9 10  2  0
 10 11  1  0
 11 12  2  0
 13 14  2  0
 13 15  1  0
M  END
