
     RDKit          3D

 13 14  0  0  0  0  0  0  0  0999 V2000
    3.4420    1.1490   -3.0190 O   0  0  0  0  0  0  0  0  0  0  0  0
    2.4360    0.1790   -3.2870 C   0  0  0  0  0  0  0  0  0  0  0  0
    1.8410   -0.2560   -2.0680 C   0  0  0  0  0  0  0  0  0  0  0  0
    1.3160   -0.6510   -0.9400 C   0  0  0  0  0  0  0  0  0  0  0  0
    0.7670   -1.0800    0.2220 C   0  0  0  0  0  0  0  0  0  0  0  0
    0.8810   -2.1360    1.1030 C   0  0  0  0  0  0  0  0  0  0  0  0
    0.0000   -2.0970    2.0980 O   0  0  0  0  0  0  0  0  0  0  0  0
   -0.7550   -1.0120    1.9410 C   0  0  0  0  0  0  0  0  0  0  0  0
   -0.3560   -0.3700    0.8590 C   0  0  0  0  0  0  0  0  0  0  0  0
   -0.9970    0.8130    0.4660 O   0  0  0  0  0  0  0  0  0  0  0  0
   -2.3570    1.0200    0.9330 C   0  0  0  0  0  0  0  0  0  0  0  0
   -2.4390    0.7200    2.4000 C   0  0  0  0  0  0  0  0  0  0  0  0
   -1.8180   -0.5140    2.7280 O   0  0  0  0  0  0  0  0  0  0  0  0
  1  2  1  0
  2  3  1  0
  3  4  3  0
  4  5  1  0
  5  6  2  0
  5  9  1  0
  6  7  1  0
  7  8  1  0
  8  9  2  0
  8 13  1  0
  9 10  1  0
 10 11  1  0
 11 12  1  0
 12 13  1  0
M  END
