
     RDKit          3D

 23 26  0  0  0  0  0  0  0  0999 V2000
   -4.1690    1.8930    1.3380 C   0  0  0  0  0  0  0  0  0  0  0  0
   -2.8180    1.3050    1.2160 C   0  0  0  0  0  0  0  0  0  0  0  0
   -1.8530    1.5060    2.0610 N   0  0  0  0  0  0  0  0  0  0  0  0
   -0.5590    0.9300    1.9540 C   0  0  0  0  0  0  0  0  0  0  0  0
   -0.2900    0.1120    0.9540 C   0  0  0  0  0  0  0  0  0  0  0  0
    0.9980   -0.5070    0.7490 C   0  0  0  0  0  0  0  0  0  0  0  0
    1.2100   -1.2760   -0.2340 O   0  0  0  0  0  0  0  0  0  0  0  0
    2.0660   -0.2780    1.6380 N   0  0  0  0  0  0  0  0  0  0  0  0
    3.3920   -0.7770    1.5720 C   0  0  0  0  0  0  0  0  0  0  0  0
    4.2230   -0.2700    0.4850 C   0  0  1  0  0  0  0  0  0  0  0  0
    3.7660   -0.3570   -0.9390 C   0  0  0  0  0  0  0  0  0  0  0  0
    4.9990    0.3290   -1.5960 C   0  0  0  0  0  0  0  0  0  0  0  0
    5.3520    1.3010   -0.5020 C   0  0  0  0  0  0  0  0  0  0  0  0
    4.4400    1.1340    0.5450 O   0  0  0  0  0  0  0  0  0  0  0  0
   -1.4100   -0.3240    0.1100 N   0  0  0  0  0  0  0  0  0  0  0  0
   -1.6980   -1.5240   -0.5700 C   0  0  0  0  0  0  0  0  0  0  0  0
   -0.9360   -2.5070   -0.7420 O   0  0  0  0  0  0  0  0  0  0  0  0
   -3.0830   -1.4590   -1.0690 C   0  0  0  0  0  0  0  0  0  0  0  0
   -4.0370   -2.0990   -1.7200 C   0  0  0  0  0  0  0  0  0  0  0  0
   -5.2340   -1.2410   -1.7830 C   0  0  0  0  0  0  0  0  0  0  0  0
   -4.8690   -0.0020   -1.0720 C   0  0  0  0  0  0  0  0  0  0  0  0
   -3.5880   -0.1600   -0.6670 C   0  0  0  0  0  0  0  0  0  0  0  0
   -2.4950    0.5680   -0.0290 C   0  0  1  0  0  0  0  0  0  0  0  0
  1  2  1  0
  2  3  2  0
 23  2  1  1
  3  4  1  0
  4  5  2  0
  5  6  1  0
  5 15  1  0
  6  7  2  0
  6  8  1  0
  8  9  1  0
 10  9  1  1
 10 11  1  0
 10 14  1  0
 11 12  1  0
 12 13  1  0
 13 14  1  0
 15 16  1  0
 15 23  1  0
 16 17  2  0
 16 18  1  0
 18 19  2  0
 18 22  1  0
 19 20  1  0
 20 21  1  0
 21 22  2  0
 22 23  1  0
M  END
