
     RDKit          3D

 13 14  0  0  0  0  0  0  0  0999 V2000
    1.0880    0.3970    2.4270 O   0  0  0  0  0  0  0  0  0  0  0  0
    1.6410   -0.0150    1.3900 C   0  0  0  0  0  0  0  0  0  0  0  0
    3.0580   -0.2590    1.4220 O   0  0  0  0  0  0  0  0  0  0  0  0
    3.5960    0.0400    0.1380 C   0  0  0  0  0  0  0  0  0  0  0  0
    2.4080    0.3030   -0.7780 C   0  0  0  0  0  0  0  0  0  0  0  0
    1.2830   -0.3560    0.0420 C   0  0  2  0  0  0  0  0  0  0  0  0
   -0.0100   -0.0400   -0.5590 C   0  0  0  0  0  0  0  0  0  0  0  0
   -1.2700   -0.5960   -0.0150 C   0  0  1  0  0  0  0  0  0  0  0  0
   -1.2230   -1.9960   -0.0110 O   0  0  0  0  0  0  0  0  0  0  0  0
   -1.9250    0.0270    1.1350 C   0  0  0  0  0  0  0  0  0  0  0  0
   -2.5400    1.2800    0.5120 C   0  0  0  0  0  0  0  0  0  0  0  0
   -2.4320    1.1340   -0.8600 O   0  0  0  0  0  0  0  0  0  0  0  0
   -2.3580   -0.2210   -1.1090 C   0  0  0  0  0  0  0  0  0  0  0  0
  1  2  2  0
  2  3  1  0
  2  6  1  0
  3  4  1  0
  4  5  1  0
  5  6  1  0
  6  7  1  6
  7  8  1  0
  8  9  1  1
  8 10  1  0
  8 13  1  0
 10 11  1  0
 11 12  1  0
 12 13  1  0
M  END
