
     RDKit          3D

 18 19  0  0  0  0  0  0  0  0999 V2000
   -0.8810    2.8660    1.3480 O   0  0  0  0  0  0  0  0  0  0  0  0
   -0.8530    1.7840    0.2670 S   0  0  1  0  0  0  0  0  0  0  0  0
   -1.1010    2.5590   -1.0250 O   0  0  0  0  0  0  0  0  0  0  0  0
    0.7240    1.1960    0.1850 N   0  0  0  0  0  0  0  0  0  0  0  0
    1.0140    0.2740   -0.8780 C   0  0  0  0  0  0  0  0  0  0  0  0
    2.4730   -0.1290   -0.7810 C   0  0  0  0  0  0  0  0  0  0  0  0
    2.8180   -1.3820   -0.6070 C   0  0  0  0  0  0  0  0  0  0  0  0
    4.1630   -1.9560   -0.4920 C   0  0  0  0  0  0  0  0  0  0  0  0
    5.4800   -0.7460   -0.6120 S   0  0  0  0  0  0  0  0  0  0  0  0
    4.7230    0.8470   -0.8430 C   0  0  0  0  0  0  0  0  0  0  0  0
    5.7300    2.2720   -1.0000 Cl  0  0  0  0  0  0  0  0  0  0  0  0
    3.4150    0.9700   -0.8980 C   0  0  0  0  0  0  0  0  0  0  0  0
   -2.1310    0.6380    0.5250 C   0  0  2  0  0  0  0  0  0  0  0  0
   -2.0750   -0.1610    1.7770 C   0  0  0  0  0  0  0  0  0  0  0  0
   -3.3940   -0.8330    2.0630 C   0  0  0  0  0  0  0  0  0  0  0  0
   -4.6230   -0.3140    0.8280 S   0  0  0  0  0  0  0  0  0  0  0  0
   -3.8530   -0.5170   -0.8190 C   0  0  0  0  0  0  0  0  0  0  0  0
   -2.3520   -0.2410   -0.7040 C   0  0  0  0  0  0  0  0  0  0  0  0
  1  2  2  0
  2  3  2  0
  2  4  1  6
  2 13  1  0
  4  5  1  0
  5  6  1  0
  6  7  2  0
  6 12  1  0
  7  8  1  0
  8  9  1  0
  9 10  1  0
 10 11  1  0
 10 12  2  0
 13 14  1  1
 13 18  1  0
 14 15  1  0
 15 16  1  0
 16 17  1  0
 17 18  1  0
M  END
