
     RDKit          3D

 18 19  0  0  0  0  0  0  0  0999 V2000
    0.5870    1.7550    0.4590 O   0  0  0  0  0  0  0  0  0  0  0  0
    0.4330    0.5400    0.1130 C   0  0  0  0  0  0  0  0  0  0  0  0
    1.5650   -0.2150   -0.2880 N   0  0  0  0  0  0  0  0  0  0  0  0
    2.8990    0.3980   -0.3040 C   0  0  0  0  0  0  0  0  0  0  0  0
    3.6880    0.3530    0.7780 C   0  0  0  0  0  0  0  0  0  0  0  0
    3.2460   -0.4430    2.3740 S   0  0  0  0  0  0  0  0  0  0  0  0
    4.9490    0.9750    0.6490 C   0  0  0  0  0  0  0  0  0  0  0  0
    4.9600    1.5930   -0.9950 S   0  0  0  0  0  0  0  0  0  0  0  0
    3.3290    1.0160   -1.4360 C   0  0  0  0  0  0  0  0  0  0  0  0
    2.5540    1.2380   -2.9770 Cl  0  0  0  0  0  0  0  0  0  0  0  0
   -0.9370   -0.0530    0.1410 C   0  0  1  0  0  0  0  0  0  0  0  0
   -1.8590    1.0480    0.6160 C   0  0  0  0  0  0  0  0  0  0  0  0
   -3.2900    0.6550    0.7160 C   0  0  0  0  0  0  0  0  0  0  0  0
   -3.8090    0.2430   -0.5080 O   0  0  0  0  0  0  0  0  0  0  0  0
   -1.2440   -0.5170   -1.2170 C   0  0  0  0  0  0  0  0  0  0  0  0
   -1.9430   -1.8060   -1.2920 C   0  0  0  0  0  0  0  0  0  0  0  0
   -2.4740   -2.0900    0.4210 S   0  0  0  0  0  0  0  0  0  0  0  0
   -1.0490   -1.1700    1.1350 C   0  0  0  0  0  0  0  0  0  0  0  0
  1  2  2  0
  2  3  1  0
  2 11  1  0
  3  4  1  0
  4  5  1  0
  4  9  2  0
  5  6  1  0
  5  7  2  0
  7  8  1  0
  8  9  1  0
  9 10  1  0
 11 12  1  1
 11 15  1  0
 11 18  1  0
 12 13  1  0
 13 14  1  0
 15 16  1  0
 16 17  1  0
 17 18  1  0
M  END
