
     RDKit          3D

 17 17  0  0  0  0  0  0  0  0999 V2000
    3.0680    1.9130   -0.6780 C   0  0  0  0  0  0  0  0  0  0  0  0
    1.7060    1.2060   -0.6820 C   0  0  0  0  0  0  0  0  0  0  0  0
    1.9280   -0.2570   -0.5790 C   0  0  0  0  0  0  0  0  0  0  0  0
    1.4750   -1.1140    0.2660 C   0  0  0  0  0  0  0  0  0  0  0  0
    0.5970   -1.0330    1.4040 C   0  0  0  0  0  0  0  0  0  0  0  0
   -0.6970   -0.3610    1.3700 C   0  0  0  0  0  0  0  0  0  0  0  0
   -1.2350    0.2230    0.3250 C   0  0  0  0  0  0  0  0  0  0  0  0
   -2.5750    0.8830    0.4330 C   0  0  0  0  0  0  0  0  0  0  0  0
   -3.4850    0.2490   -0.4900 N   0  0  0  0  0  0  0  0  0  0  0  0
   -4.8260    0.6860   -0.5880 C   0  0  0  0  0  0  0  0  0  0  0  0
   -5.8250   -0.0530   -1.6400 S   0  0  0  0  0  0  0  0  0  0  0  0
   -5.4180    2.0130    0.4120 Cl  0  0  0  0  0  0  0  0  0  0  0  0
    0.9770   -1.6270    2.5200 C   0  0  0  0  0  0  0  0  0  0  0  0
    2.5620   -2.4720    2.4030 S   0  0  0  0  0  0  0  0  0  0  0  0
    2.1860   -2.7800    0.2850 S   0  0  1  0  0  0  0  0  0  0  0  0
    1.1810   -3.8160    0.1710 O   0  0  0  0  0  0  0  0  0  0  0  0
    3.4280   -2.8690   -0.4530 O   0  0  0  0  0  0  0  0  0  0  0  0
  1  2  1  0
  2  3  1  0
  3  4  2  3
  4  5  1  0
  4 15  1  0
  5  6  1  0
  5 13  2  0
  6  7  2  3
  7  8  1  0
  8  9  1  0
  9 10  1  0
 10 11  2  0
 10 12  1  0
 13 14  1  0
 15 14  1  1
 15 16  2  0
 15 17  2  0
M  END
