
     RDKit          3D

 12 13  0  0  0  0  0  0  0  0999 V2000
   -2.1060   -2.0190   -0.0580 N   0  0  0  0  0  0  0  0  0  0  0  0
   -1.6040   -0.6930    0.0300 C   0  0  0  0  0  0  0  0  0  0  0  0
   -2.4400    0.3720    0.1340 C   0  0  0  0  0  0  0  0  0  0  0  0
   -1.9320    1.6380    0.2170 C   0  0  0  0  0  0  0  0  0  0  0  0
   -0.5770    1.8840    0.2000 C   0  0  0  0  0  0  0  0  0  0  0  0
    0.2740    0.7970    0.0940 C   0  0  0  0  0  0  0  0  0  0  0  0
    1.6360    0.9860    0.0720 C   0  0  0  0  0  0  0  0  0  0  0  0
    2.4680   -0.1000   -0.0330 C   0  0  0  0  0  0  0  0  0  0  0  0
    3.8410    0.1260   -0.0520 O   0  0  0  0  0  0  0  0  0  0  0  0
    1.9360   -1.3540   -0.1150 C   0  0  0  0  0  0  0  0  0  0  0  0
    0.6160   -1.5340   -0.0930 N   0  0  0  0  0  0  0  0  0  0  0  0
   -0.2130   -0.4900    0.0090 C   0  0  0  0  0  0  0  0  0  0  0  0
  1  2  1  0
  2  3  2  0
  2 12  1  0
  3  4  1  0
  4  5  2  0
  5  6  1  0
  6  7  2  0
  6 12  1  0
  7  8  1  0
  8  9  1  0
  8 10  2  0
 10 11  1  0
 11 12  2  0
M  END
