
     RDKit          3D

 14 14  0  0  0  0  0  0  0  0999 V2000
    1.1540    0.4440   -1.8520 N   0  0  0  0  0  0  0  0  0  0  0  0
    0.3680    0.2700   -0.6590 C   0  0  1  0  0  0  0  0  0  0  0  0
   -0.5580   -0.7270   -0.9310 O   0  0  0  0  0  0  0  0  0  0  0  0
   -1.8650   -0.3130   -0.9580 C   0  0  0  0  0  0  0  0  0  0  0  0
   -2.3420    0.2510    0.3580 C   0  0  2  0  0  0  0  0  0  0  0  0
   -2.2510   -0.7180    1.3600 O   0  0  0  0  0  0  0  0  0  0  0  0
   -3.8340    0.5710    0.2410 C   0  0  0  0  0  0  0  0  0  0  0  0
   -4.2870    1.0500    1.4640 O   0  0  0  0  0  0  0  0  0  0  0  0
    1.1510   -0.0330    0.5840 C   0  0  1  0  0  0  0  0  0  0  0  0
    1.7270   -1.3940    0.6450 C   0  0  0  0  0  0  0  0  0  0  0  0
    3.0350   -1.5280    0.2360 O   0  0  0  0  0  0  0  0  0  0  0  0
    3.8640   -0.5480    0.7820 C   0  0  0  0  0  0  0  0  0  0  0  0
    3.2620    0.7800    0.3010 C   0  0  0  0  0  0  0  0  0  0  0  0
    2.0620    0.9430    0.9310 O   0  0  0  0  0  0  0  0  0  0  0  0
  2  1  1  6
  2  3  1  0
  2  9  1  0
  3  4  1  0
  4  5  1  0
  5  6  1  1
  5  7  1  0
  7  8  1  0
  9 10  1  6
  9 14  1  0
 10 11  1  0
 11 12  1  0
 12 13  1  0
 13 14  1  0
M  END
