
     RDKit          3D

 14 14  0  0  0  0  0  0  0  0999 V2000
    4.5770   -0.5070    1.2400 N   0  0  0  0  0  0  0  0  0  0  0  0
    3.2080   -0.4790    1.0740 O   0  0  0  0  0  0  0  0  0  0  0  0
    2.6340    0.0510   -0.0770 C   0  0  0  0  0  0  0  0  0  0  0  0
    3.4630    0.4990   -0.9410 O   0  0  0  0  0  0  0  0  0  0  0  0
    1.1990    0.1060   -0.3050 C   0  0  1  0  0  0  0  0  0  0  0  0
    0.5300   -1.2590   -0.3050 C   0  0  0  0  0  0  0  0  0  0  0  0
   -0.8070   -1.0350   -1.0040 C   0  0  0  0  0  0  0  0  0  0  0  0
   -1.6480   -0.0070   -0.3380 C   0  0  1  0  0  0  0  0  0  0  0  0
   -2.5560    0.4710   -1.3150 O   0  0  0  0  0  0  0  0  0  0  0  0
   -2.5150   -0.7110    0.6980 C   0  0  0  0  0  0  0  0  0  0  0  0
   -3.4330    0.1470    1.2700 O   0  0  0  0  0  0  0  0  0  0  0  0
   -0.9290    1.1670    0.2100 C   0  0  1  0  0  0  0  0  0  0  0  0
   -1.7180    1.7330    1.2370 O   0  0  0  0  0  0  0  0  0  0  0  0
    0.4410    0.9190    0.7220 C   0  0  0  0  0  0  0  0  0  0  0  0
  1  2  1  0
  2  3  1  0
  3  4  2  0
  5  3  1  1
  5  6  1  0
  5 14  1  0
  6  7  1  0
  7  8  1  0
  8  9  1  6
  8 10  1  0
  8 12  1  0
 10 11  1  0
 12 13  1  1
 12 14  1  0
M  END
