
     RDKit          3D

 13 14  0  0  0  0  0  0  0  0999 V2000
   -3.6130    0.6640    0.0260 C   0  0  0  0  0  0  0  0  0  0  0  0
   -2.7070   -0.5280   -0.0410 C   0  0  0  0  0  0  0  0  0  0  0  0
   -1.2810   -0.1080   -0.0240 C   0  0  0  0  0  0  0  0  0  0  0  0
   -0.9510    1.2310    0.0460 C   0  0  0  0  0  0  0  0  0  0  0  0
    0.3840    1.5690    0.0590 C   0  0  0  0  0  0  0  0  0  0  0  0
    0.7430    2.7920    0.1230 O   0  0  0  0  0  0  0  0  0  0  0  0
    1.3790    0.6000    0.0040 C   0  0  0  0  0  0  0  0  0  0  0  0
    2.7010    0.9450    0.0180 C   0  0  0  0  0  0  0  0  0  0  0  0
    3.6610   -0.0510   -0.0390 C   0  0  0  0  0  0  0  0  0  0  0  0
    3.3060   -1.3780   -0.1080 C   0  0  0  0  0  0  0  0  0  0  0  0
    1.9780   -1.6960   -0.1200 C   0  0  0  0  0  0  0  0  0  0  0  0
    0.9880   -0.7200   -0.0640 C   0  0  0  0  0  0  0  0  0  0  0  0
   -0.3210   -1.0490   -0.0770 N   0  0  0  0  0  0  0  0  0  0  0  0
  1  2  1  0
  2  3  1  0
  3  4  2  0
  3 13  1  0
  4  5  1  0
  5  6  2  0
  5  7  1  0
  7  8  2  0
  7 12  1  0
  8  9  1  0
  9 10  2  0
 10 11  1  0
 11 12  2  0
 12 13  1  0
M  END
