
     RDKit          3D

 15 15  0  0  0  0  0  0  0  0999 V2000
   -1.9830    1.6060    0.9660 N   0  0  0  0  0  0  0  0  0  0  0  0
   -1.0650    0.7400    0.2590 C   0  0  1  0  0  0  0  0  0  0  0  0
   -1.3680    0.7800   -1.1800 C   0  0  0  0  0  0  0  0  0  0  0  0
   -2.3070    1.4950   -1.6190 O   0  0  0  0  0  0  0  0  0  0  0  0
   -0.6610    0.0520   -2.1340 O   0  0  0  0  0  0  0  0  0  0  0  0
    0.3560    1.1930    0.5570 C   0  0  0  0  0  0  0  0  0  0  0  0
    1.1440   -0.0520    0.3630 C   0  0  1  0  0  0  0  0  0  0  0  0
    2.4420    0.0050    0.8050 O   0  0  0  0  0  0  0  0  0  0  0  0
    3.3970   -0.2100   -0.1570 C   0  0  0  0  0  0  0  0  0  0  0  0
    3.3200    0.7420   -1.1990 O   0  0  0  0  0  0  0  0  0  0  0  0
    0.3130   -1.1170    0.9960 C   0  0  0  0  0  0  0  0  0  0  0  0
   -1.1010   -0.6500    0.8350 C   0  0  2  0  0  0  0  0  0  0  0  0
   -1.9130   -1.5810    0.0160 C   0  0  0  0  0  0  0  0  0  0  0  0
   -1.3400   -2.5890   -0.4610 O   0  0  0  0  0  0  0  0  0  0  0  0
   -3.2550   -1.4060   -0.2530 O   0  0  0  0  0  0  0  0  0  0  0  0
  2  1  1  1
  2  3  1  0
  2  6  1  0
  2 12  1  0
  3  4  2  0
  3  5  1  0
  6  7  1  0
  7  8  1  1
  7 11  1  0
  8  9  1  0
  9 10  1  0
 11 12  1  0
 12 13  1  6
 13 14  2  0
 13 15  1  0
M  END
