
     RDKit          3D

 18 20  0  0  0  0  0  0  0  0999 V2000
    1.1460   -2.5300   -1.8720 C   0  0  0  0  0  0  0  0  0  0  0  0
    0.8880   -1.2600   -1.1350 C   0  0  0  0  0  0  0  0  0  0  0  0
   -0.3200   -0.6040   -1.1970 C   0  0  0  0  0  0  0  0  0  0  0  0
   -0.5760    0.5840   -0.5140 C   0  0  0  0  0  0  0  0  0  0  0  0
   -1.9080    1.2290   -0.6360 C   0  0  0  0  0  0  0  0  0  0  0  0
   -2.6870    1.0590    0.5700 N   0  0  0  0  0  0  0  0  0  0  0  0
   -2.9040   -0.3300    0.8290 C   0  0  0  0  0  0  0  0  0  0  0  0
   -4.1740   -0.5920    0.0060 C   0  0  0  0  0  0  0  0  0  0  0  0
   -5.0150    0.6090    0.4330 C   0  0  0  0  0  0  0  0  0  0  0  0
   -3.9720    1.6980    0.4820 C   0  0  0  0  0  0  0  0  0  0  0  0
    0.4250    1.1340    0.2650 C   0  0  0  0  0  0  0  0  0  0  0  0
    1.6420    0.5020    0.3480 C   0  0  0  0  0  0  0  0  0  0  0  0
    1.8540   -0.6740   -0.3460 C   0  0  0  0  0  0  0  0  0  0  0  0
    3.0840   -1.4370   -0.3450 C   0  0  0  0  0  0  0  0  0  0  0  0
    4.2460   -1.1930    0.2440 C   0  0  0  0  0  0  0  0  0  0  0  0
    4.6420   -0.0950    1.0650 N   0  0  0  0  0  0  0  0  0  0  0  0
    3.9920    1.1370    0.6480 C   0  0  0  0  0  0  0  0  0  0  0  0
    2.6030    1.2500    1.2430 C   0  0  0  0  0  0  0  0  0  0  0  0
  1  2  1  0
  2  3  2  0
  2 13  1  0
  3  4  1  0
  4  5  1  0
  4 11  2  0
  5  6  1  0
  6  7  1  0
  6 10  1  0
  7  8  1  0
  8  9  1  0
  9 10  1  0
 11 12  1  0
 12 13  2  0
 12 18  1  0
 13 14  1  0
 14 15  2  0
 15 16  1  0
 16 17  1  0
 17 18  1  0
M  CHG  1  16   1
M  END
