
     RDKit          3D

 18 20  0  0  0  0  0  0  0  0999 V2000
   -4.2010   -0.4200    0.7170 C   0  0  0  0  0  0  0  0  0  0  0  0
   -3.4410    0.5440   -0.1370 C   0  0  1  0  0  0  0  0  0  0  0  0
   -3.7590    1.9480    0.3290 C   0  0  0  0  0  0  0  0  0  0  0  0
   -2.0010    0.3340   -0.0850 N   0  0  0  0  0  0  0  0  0  0  0  0
   -1.7070   -0.9820   -0.5800 C   0  0  0  0  0  0  0  0  0  0  0  0
   -0.2300   -1.2700   -0.6410 C   0  0  0  0  0  0  0  0  0  0  0  0
    0.6370   -0.3540   -0.2610 C   0  0  0  0  0  0  0  0  0  0  0  0
    0.5500    0.9920    0.2500 N   0  0  0  0  0  0  0  0  0  0  0  0
    1.7310    1.4580    0.4710 C   0  0  0  0  0  0  0  0  0  0  0  0
    2.1130    2.6870    0.9550 C   0  0  0  0  0  0  0  0  0  0  0  0
    3.4370    3.0050    1.1240 C   0  0  0  0  0  0  0  0  0  0  0  0
    4.3820    2.0590    0.7970 C   0  0  0  0  0  0  0  0  0  0  0  0
    4.0200    0.8300    0.3140 C   0  0  0  0  0  0  0  0  0  0  0  0
    2.6870    0.5140    0.1450 C   0  0  0  0  0  0  0  0  0  0  0  0
    2.0740   -0.5800   -0.2960 C   0  0  0  0  0  0  0  0  0  0  0  0
    2.6440   -1.8670   -0.7620 C   0  0  0  0  0  0  0  0  0  0  0  0
    1.6140   -2.9710   -0.6700 C   0  0  0  0  0  0  0  0  0  0  0  0
    0.2660   -2.5690   -1.1270 C   0  0  0  0  0  0  0  0  0  0  0  0
  2  1  1  1
  2  3  1  0
  2  4  1  0
  4  5  1  0
  5  6  1  0
  6  7  2  0
  6 18  1  0
  7  8  1  0
  7 15  1  0
  8  9  2  0
  9 10  1  0
  9 14  1  0
 10 11  2  0
 11 12  1  0
 12 13  2  0
 13 14  1  0
 14 15  2  0
 15 16  1  0
 16 17  1  0
 17 18  1  0
M  CHG  1   4   1
M  END
