
     RDKit          3D

 18 20  0  0  0  0  0  0  0  0999 V2000
   -3.0660    1.7340   -0.1590 C   0  0  0  0  0  0  0  0  0  0  0  0
   -2.9750    0.2670   -0.4130 C   0  0  2  0  0  0  0  0  0  0  0  0
   -3.4510   -0.0910   -1.8260 C   0  0  0  0  0  0  0  0  0  0  0  0
   -3.8430   -0.5390    0.5340 C   0  0  0  0  0  0  0  0  0  0  0  0
   -2.8720   -1.5390    1.1730 C   0  0  0  0  0  0  0  0  0  0  0  0
   -1.6160   -0.6890    1.2060 C   0  0  0  0  0  0  0  0  0  0  0  0
   -1.5720   -0.2820   -0.2790 C   0  0  2  0  0  0  0  0  0  0  0  0
   -0.5530    0.6860   -0.4410 N   0  0  0  0  0  0  0  0  0  0  0  0
    0.8070    0.2690   -0.4360 C   0  0  0  0  0  0  0  0  0  0  0  0
    1.1360   -1.0660   -0.4260 C   0  0  0  0  0  0  0  0  0  0  0  0
    2.4350   -1.5320   -0.4130 C   0  0  0  0  0  0  0  0  0  0  0  0
    3.4500   -0.6000   -0.4110 C   0  0  0  0  0  0  0  0  0  0  0  0
    4.7300   -1.0380   -0.3990 N   0  0  0  0  0  0  0  0  0  0  0  0
    5.7450   -0.1600   -0.3960 C   0  0  0  0  0  0  0  0  0  0  0  0
    5.4950    1.1910   -0.4060 C   0  0  0  0  0  0  0  0  0  0  0  0
    4.2000    1.6520   -0.4180 C   0  0  0  0  0  0  0  0  0  0  0  0
    3.1530    0.7480   -0.4210 C   0  0  0  0  0  0  0  0  0  0  0  0
    1.8470    1.1810   -0.4340 C   0  0  0  0  0  0  0  0  0  0  0  0
  2  1  1  1
  2  3  1  0
  2  4  1  0
  2  7  1  0
  4  5  1  0
  5  6  1  0
  6  7  1  0
  7  8  1  1
  8  9  1  0
  9 10  2  0
  9 18  1  0
 10 11  1  0
 11 12  2  0
 12 13  1  0
 12 17  1  0
 13 14  2  0
 14 15  1  0
 15 16  2  0
 16 17  1  0
 17 18  2  0
M  CHG  1  13   1
M  END
