
     RDKit          3D

 19 21  0  0  0  0  0  0  0  0999 V2000
   -2.8040   -3.0410   -0.1650 C   0  0  0  0  0  0  0  0  0  0  0  0
   -1.3840   -2.5560   -0.1940 C   0  0  0  0  0  0  0  0  0  0  0  0
   -0.3490   -3.4440   -0.1480 C   0  0  0  0  0  0  0  0  0  0  0  0
    0.9490   -3.0260   -0.0220 C   0  0  0  0  0  0  0  0  0  0  0  0
    1.1720   -1.6820    0.0570 N   0  0  0  0  0  0  0  0  0  0  0  0
    2.3510   -1.0740    0.1820 C   0  0  0  0  0  0  0  0  0  0  0  0
    2.1340    0.3200    0.2170 C   0  0  0  0  0  0  0  0  0  0  0  0
    3.2270    1.2930    0.4870 C   0  0  0  0  0  0  0  0  0  0  0  0
    4.5090    0.7900   -0.1540 C   0  0  0  0  0  0  0  0  0  0  0  0
    5.6490    1.7110    0.2450 C   0  0  0  0  0  0  0  0  0  0  0  0
    6.8320    1.2380   -0.3000 F   0  0  0  0  0  0  0  0  0  0  0  0
    0.7840    0.4780    0.1070 C   0  0  0  0  0  0  0  0  0  0  0  0
    0.1490   -0.7660    0.0140 C   0  0  0  0  0  0  0  0  0  0  0  0
   -1.1470   -1.1640   -0.1150 C   0  0  0  0  0  0  0  0  0  0  0  0
   -2.3210   -0.2990   -0.3390 C   0  0  0  0  0  0  0  0  0  0  0  0
   -2.8040    0.4830    0.7270 N   0  0  0  0  0  0  0  0  0  0  0  0
   -2.9340    1.8730    0.5860 C   0  0  2  0  0  0  0  0  0  0  0  0
   -4.1990    2.5180    0.1340 C   0  0  0  0  0  0  0  0  0  0  0  0
   -3.0120    2.4510   -0.8110 C   0  0  0  0  0  0  0  0  0  0  0  0
  1  2  1  0
  2  3  1  0
  2 14  2  0
  3  4  2  0
  4  5  1  0
  5  6  1  0
  5 13  1  0
  6  7  2  0
  7  8  1  0
  7 12  1  0
  8  9  1  0
  9 10  1  0
 10 11  1  0
 12 13  2  0
 13 14  1  0
 14 15  1  0
 15 16  1  0
 17 16  1  6
 17 18  1  0
 17 19  1  0
 18 19  1  0
M  CHG  1  16   1
M  END
