
     RDKit          3D

 20 21  0  0  0  0  0  0  0  0999 V2000
   -0.5830    3.9150    0.7490 C   0  0  0  0  0  0  0  0  0  0  0  0
   -0.1380    2.5460    0.3080 C   0  0  0  0  0  0  0  0  0  0  0  0
    1.1940    2.3020    0.1260 C   0  0  0  0  0  0  0  0  0  0  0  0
    1.6300    1.0570   -0.2800 C   0  0  0  0  0  0  0  0  0  0  0  0
    0.7350    0.0500   -0.5050 C   0  0  0  0  0  0  0  0  0  0  0  0
   -0.6520    0.2980   -0.3180 C   0  0  0  0  0  0  0  0  0  0  0  0
   -1.4710   -0.8550   -0.6160 C   0  0  0  0  0  0  0  0  0  0  0  0
   -2.8720   -0.9120   -0.4900 N   0  0  2  0  0  0  0  0  0  0  0  0
   -3.2590   -1.4460    0.8420 C   0  0  0  0  0  0  0  0  0  0  0  0
   -3.3130   -2.0470   -1.3730 C   0  0  0  0  0  0  0  0  0  0  0  0
   -1.0920    1.5350    0.0860 C   0  0  0  0  0  0  0  0  0  0  0  0
   -2.5230    1.8690    0.2940 C   0  0  0  0  0  0  0  0  0  0  0  0
    1.0790   -1.3120   -0.9220 C   0  0  0  0  0  0  0  0  0  0  0  0
    2.0640   -1.8240    0.0960 C   0  0  0  0  0  0  0  0  0  0  0  0
    3.2730   -1.2920    0.2940 C   0  0  0  0  0  0  0  0  0  0  0  0
    4.1170   -1.9300    1.3460 C   0  0  2  0  0  0  0  0  0  0  0  0
    4.3980   -0.9590    2.3020 F   0  0  0  0  0  0  0  0  0  0  0  0
    5.2990   -2.3090    0.7330 F   0  0  0  0  0  0  0  0  0  0  0  0
    3.9020   -0.1320   -0.4080 C   0  0  0  0  0  0  0  0  0  0  0  0
    3.0700    1.0360   -0.4050 N   0  0  0  0  0  0  0  0  0  0  0  0
  1  2  1  0
  2  3  2  0
  2 11  1  0
  3  4  1  0
  4  5  2  0
  4 20  1  0
  5  6  1  0
  5 13  1  0
  6  7  1  0
  6 11  2  0
  7  8  1  0
  8  9  1  1
  8 10  1  0
 11 12  1  0
 13 14  1  0
 14 15  2  0
 15 16  1  0
 15 19  1  0
 16 17  1  1
 16 18  1  0
 19 20  1  0
M  CHG  1   8   1
M  END
