
     RDKit          3D

 20 21  0  0  0  0  0  0  0  0999 V2000
   -2.5930    3.6370   -0.8050 C   0  0  0  0  0  0  0  0  0  0  0  0
   -1.5430    2.8490   -0.6800 C   0  0  0  0  0  0  0  0  0  0  0  0
   -1.6550    1.4030   -0.6090 C   0  0  0  0  0  0  0  0  0  0  0  0
   -0.4960    0.7800   -0.4860 C   0  0  0  0  0  0  0  0  0  0  0  0
   -0.2290   -0.6380   -0.3880 C   0  0  0  0  0  0  0  0  0  0  0  0
    1.0330   -1.0040   -0.4140 C   0  0  0  0  0  0  0  0  0  0  0  0
    2.0600   -0.0470   -0.5330 N   0  0  0  0  0  0  0  0  0  0  0  0
    3.1110   -0.0160    0.4160 C   0  0  0  0  0  0  0  0  0  0  0  0
    3.1110   -0.9310    1.4370 C   0  0  0  0  0  0  0  0  0  0  0  0
    4.1180   -0.9210    2.3710 C   0  0  0  0  0  0  0  0  0  0  0  0
    5.1390    0.0060    2.2910 C   0  0  0  0  0  0  0  0  0  0  0  0
    6.1590    0.0560    3.1910 F   0  0  0  0  0  0  0  0  0  0  0  0
    5.1570    0.9370    1.2680 C   0  0  0  0  0  0  0  0  0  0  0  0
    6.1470    1.8500    1.1750 F   0  0  0  0  0  0  0  0  0  0  0  0
    4.1420    0.9140    0.3420 C   0  0  0  0  0  0  0  0  0  0  0  0
   -1.2390   -1.7340   -0.2590 C   0  0  0  0  0  0  0  0  0  0  0  0
   -2.3260   -1.3800   -1.1510 N   0  0  1  0  0  0  0  0  0  0  0  0
   -2.9990   -2.6360   -1.4900 C   0  0  0  0  0  0  0  0  0  0  0  0
   -3.2840   -0.5110   -0.5520 C   0  0  0  0  0  0  0  0  0  0  0  0
   -3.0450    0.9350   -0.6870 C   0  0  0  0  0  0  0  0  0  0  0  0
  1  2  2  0
  2  3  1  0
  3  4  2  0
  3 20  1  0
  4  5  1  0
  5  6  2  3
  5 16  1  0
  6  7  1  0
  7  8  1  0
  8  9  2  0
  8 15  1  0
  9 10  1  0
 10 11  2  0
 11 12  1  0
 11 13  1  0
 13 14  1  0
 13 15  2  0
 16 17  1  0
 17 18  1  1
 17 19  1  0
 19 20  1  0
M  CHG  1  17   1
M  END
