
     RDKit          3D

 20 22  0  0  0  0  0  0  0  0999 V2000
    3.8930   -0.6300    0.2710 C   0  0  0  0  0  0  0  0  0  0  0  0
    2.3880   -0.8890    0.0730 C   0  0  2  0  0  0  0  0  0  0  0  0
    2.3310   -1.4660   -1.3530 C   0  0  0  0  0  0  0  0  0  0  0  0
    3.1490   -2.7230   -1.4120 C   0  0  1  0  0  0  0  0  0  0  0  0
    2.6730   -3.6620   -0.5380 F   0  0  0  0  0  0  0  0  0  0  0  0
    3.0490   -3.2060   -2.7210 F   0  0  0  0  0  0  0  0  0  0  0  0
    1.7360    0.4060    0.1110 N   0  0  0  0  0  0  0  0  0  0  0  0
    0.3390    0.5710    0.1670 C   0  0  0  0  0  0  0  0  0  0  0  0
   -0.4530   -0.5160    0.2380 N   0  0  0  0  0  0  0  0  0  0  0  0
   -1.8020   -0.4690    0.3140 C   0  0  0  0  0  0  0  0  0  0  0  0
   -2.5270   -1.7520    0.3870 C   0  0  1  0  0  0  0  0  0  0  0  0
   -3.6560   -1.7440    1.4460 C   0  0  0  0  0  0  0  0  0  0  0  0
   -3.9520   -1.8590    0.0020 C   0  0  0  0  0  0  0  0  0  0  0  0
   -2.3910    0.7530    0.3190 C   0  0  0  0  0  0  0  0  0  0  0  0
   -1.6620    1.9120    0.2500 C   0  0  0  0  0  0  0  0  0  0  0  0
   -2.2710    3.1560    0.2540 C   0  0  0  0  0  0  0  0  0  0  0  0
   -1.4720    4.2530    0.1810 C   0  0  0  0  0  0  0  0  0  0  0  0
   -0.1080    4.2010    0.1040 C   0  0  0  0  0  0  0  0  0  0  0  0
    0.5110    2.9450    0.0990 C   0  0  0  0  0  0  0  0  0  0  0  0
   -0.2570    1.8090    0.1710 C   0  0  0  0  0  0  0  0  0  0  0  0
  2  1  1  6
  2  3  1  0
  2  7  1  0
  3  4  1  0
  4  5  1  1
  4  6  1  0
  7  8  1  0
  8  9  2  0
  8 20  1  0
  9 10  1  0
 11 10  1  6
 10 14  2  0
 11 12  1  0
 11 13  1  0
 12 13  1  0
 14 15  1  0
 15 16  2  0
 15 20  1  0
 16 17  1  0
 17 18  2  0
 18 19  1  0
 19 20  2  0
M  CHG  1   9   1
M  END
