
     RDKit          3D

 20 22  0  0  0  0  0  0  0  0999 V2000
   -3.9040    0.4500    2.7310 C   0  0  0  0  0  0  0  0  0  0  0  0
   -2.9660    0.2720    1.5750 C   0  0  0  0  0  0  0  0  0  0  0  0
   -1.6500    0.5270    1.6690 N   0  0  0  0  0  0  0  0  0  0  0  0
   -0.8290    0.3600    0.6180 C   0  0  0  0  0  0  0  0  0  0  0  0
    0.6060    0.6690    0.8270 C   0  0  0  0  0  0  0  0  0  0  0  0
    1.3850    0.4490   -0.3780 N   0  0  0  0  0  0  0  0  0  0  0  0
    2.7540    0.8000   -0.0690 C   0  0  1  0  0  0  0  0  0  0  0  0
    3.4730   -0.3470    0.6530 C   0  0  0  0  0  0  0  0  0  0  0  0
    4.7210    0.1210   -0.1090 C   0  0  1  0  0  0  0  0  0  0  0  0
    5.6480   -0.9710   -0.5200 C   0  0  0  0  0  0  0  0  0  0  0  0
    3.7400    0.5730   -1.1990 C   0  0  0  0  0  0  0  0  0  0  0  0
   -1.2690   -0.0760   -0.6010 C   0  0  0  0  0  0  0  0  0  0  0  0
   -2.6200   -0.3500   -0.7370 C   0  0  0  0  0  0  0  0  0  0  0  0
   -3.0730   -0.7860   -1.9510 C   0  0  0  0  0  0  0  0  0  0  0  0
   -4.4240   -1.0600   -2.0880 C   0  0  0  0  0  0  0  0  0  0  0  0
   -4.9130   -1.4910   -3.2640 F   0  0  0  0  0  0  0  0  0  0  0  0
   -5.2560   -0.8800   -0.9890 C   0  0  0  0  0  0  0  0  0  0  0  0
   -6.5640   -1.1560   -1.1580 F   0  0  0  0  0  0  0  0  0  0  0  0
   -4.7860   -0.4400    0.2290 C   0  0  0  0  0  0  0  0  0  0  0  0
   -3.4350   -0.1670    0.3600 C   0  0  0  0  0  0  0  0  0  0  0  0
  1  2  1  0
  2  3  2  0
  2 20  1  0
  3  4  1  0
  4  5  1  0
  4 12  2  0
  5  6  1  0
  7  6  1  6
  7  8  1  0
  7 11  1  0
  8  9  1  0
  9 10  1  6
  9 11  1  0
 12 13  1  0
 13 14  2  0
 13 20  1  0
 14 15  1  0
 15 16  1  0
 15 17  2  0
 17 18  1  0
 17 19  1  0
 19 20  2  0
M  CHG  1   6   1
M  END
