
     RDKit          3D

 22 24  0  0  0  0  0  0  0  0999 V2000
    5.8160    2.6180    2.0930 F   0  0  0  0  0  0  0  0  0  0  0  0
    4.8700    1.8810    1.4380 C   0  0  0  0  0  0  0  0  0  0  0  0
    3.6370    2.4200    1.2290 C   0  0  0  0  0  0  0  0  0  0  0  0
    2.6430    1.6910    0.5610 C   0  0  0  0  0  0  0  0  0  0  0  0
    1.4490    2.2760    0.3850 F   0  0  0  0  0  0  0  0  0  0  0  0
    2.9160    0.4310    0.1160 C   0  0  0  0  0  0  0  0  0  0  0  0
    1.9530   -0.3950   -0.5840 C   0  0  0  0  0  0  0  0  0  0  0  0
    0.9420   -0.9500    0.4360 C   0  0  0  0  0  0  0  0  0  0  0  0
   -0.0090   -1.8220   -0.0950 N   0  0  0  0  0  0  0  0  0  0  0  0
    0.2560   -3.1690   -0.1940 C   0  0  0  0  0  0  0  0  0  0  0  0
   -0.8220   -3.8040   -0.7580 C   0  0  0  0  0  0  0  0  0  0  0  0
   -1.7090   -2.8380   -0.9860 N   0  0  0  0  0  0  0  0  0  0  0  0
   -1.2110   -1.6210   -0.5790 C   0  0  0  0  0  0  0  0  0  0  0  0
   -1.9840   -0.4220   -0.7090 C   0  0  1  0  0  0  0  0  0  0  0  0
   -2.5130    0.0320    0.6470 C   0  0  0  0  0  0  0  0  0  0  0  0
   -3.7080    0.9040    0.5000 C   0  0  0  0  0  0  0  0  0  0  0  0
   -3.8830    1.2910   -0.9430 C   0  0  0  0  0  0  0  0  0  0  0  0
   -2.6210    1.7140   -1.6120 C   0  0  0  0  0  0  0  0  0  0  0  0
   -1.4390    0.7850   -1.3580 C   0  0  0  0  0  0  0  0  0  0  0  0
    4.1880   -0.0820    0.3500 C   0  0  0  0  0  0  0  0  0  0  0  0
    5.1590    0.6170    0.9970 C   0  0  0  0  0  0  0  0  0  0  0  0
    6.3870    0.0600    1.1950 F   0  0  0  0  0  0  0  0  0  0  0  0
  1  2  1  0
  2  3  2  0
  2 21  1  0
  3  4  1  0
  4  5  1  0
  4  6  2  0
  6  7  1  0
  6 20  1  0
  7  8  1  0
  8  9  1  0
  9 10  1  0
  9 13  1  0
 10 11  2  0
 11 12  1  0
 12 13  2  0
 14 13  1  1
 14 15  1  0
 14 19  1  0
 15 16  1  0
 16 17  1  0
 17 18  1  0
 18 19  1  0
 20 21  2  0
 21 22  1  0
M  CHG  1  12   1
M  END
