
     RDKit          3D

 22 24  0  0  0  0  0  0  0  0999 V2000
    4.9160   -0.1350    0.1830 C   0  0  0  0  0  0  0  0  0  0  0  0
    3.3960   -0.1490    0.0030 C   0  0  2  0  0  0  0  0  0  0  0  0
    2.8180    0.2010    1.3560 C   0  0  0  0  0  0  0  0  0  0  0  0
    2.9090   -1.5030   -0.4140 C   0  0  0  0  0  0  0  0  0  0  0  0
    2.0680   -1.3770   -1.6380 C   0  0  0  0  0  0  0  0  0  0  0  0
    0.9860   -0.4370   -1.4720 N   0  0  0  0  0  0  0  0  0  0  0  0
   -0.0020   -0.9230   -0.5880 C   0  0  0  0  0  0  0  0  0  0  0  0
   -1.1980   -0.1250   -0.3800 C   0  0  0  0  0  0  0  0  0  0  0  0
   -1.5530    1.0470   -0.9350 C   0  0  0  0  0  0  0  0  0  0  0  0
   -2.7540    1.4050   -0.4510 N   0  0  0  0  0  0  0  0  0  0  0  0
   -3.1990    0.4840    0.4180 C   0  0  0  0  0  0  0  0  0  0  0  0
   -2.2420   -0.5100    0.4970 C   0  0  0  0  0  0  0  0  0  0  0  0
   -2.2130   -1.6160    1.2020 C   0  0  0  0  0  0  0  0  0  0  0  0
   -3.2350   -2.0870    2.1220 C   0  0  1  0  0  0  0  0  0  0  0  0
   -4.3500   -2.5560    1.4230 F   0  0  0  0  0  0  0  0  0  0  0  0
   -2.7460   -3.1990    2.8650 F   0  0  0  0  0  0  0  0  0  0  0  0
   -4.3810    0.8480    0.8840 C   0  0  0  0  0  0  0  0  0  0  0  0
   -5.1460    0.1650    1.7880 F   0  0  0  0  0  0  0  0  0  0  0  0
   -4.8070    2.1370    0.2890 C   0  0  0  0  0  0  0  0  0  0  0  0
   -3.6890    2.5050   -0.6120 C   0  0  0  0  0  0  0  0  0  0  0  0
    1.4720    0.8950   -1.2160 C   0  0  0  0  0  0  0  0  0  0  0  0
    2.9790    0.8380   -1.0390 C   0  0  0  0  0  0  0  0  0  0  0  0
  2  1  1  1
  2  3  1  0
  2  4  1  0
  2 22  1  0
  4  5  1  0
  5  6  1  0
  6  7  1  0
  6 21  1  0
  7  8  1  0
  8  9  2  0
  8 12  1  0
  9 10  1  0
 10 11  1  0
 10 20  1  0
 11 12  1  0
 11 17  2  0
 12 13  2  3
 13 14  1  0
 14 15  1  6
 14 16  1  0
 17 18  1  0
 17 19  1  0
 19 20  1  0
 21 22  1  0
M  END
