
     RDKit          3D

 46 49  0  0  0  0  0  0  0  0999 V2000
   -4.9060    2.4420    2.2750 C   0  0  0  0  0  0  0  0  0  0  0  0
   -3.5910    1.9480    1.6850 C   0  0  0  0  0  0  0  0  0  0  0  0
   -3.8980    0.6620    0.9650 C   0  0  0  0  0  0  0  0  0  0  0  0
   -2.6400    0.0530    0.3430 C   0  0  2  0  0  0  0  0  0  0  0  0
   -2.1300    0.9580   -0.5530 O   0  0  0  0  0  0  0  0  0  0  0  0
   -1.4820    2.1230   -0.5740 C   0  0  0  0  0  0  0  0  0  0  0  0
   -1.9110    3.0760   -1.5210 C   0  0  0  0  0  0  0  0  0  0  0  0
   -2.9510    2.8160   -2.3950 O   0  0  0  0  0  0  0  0  0  0  0  0
   -3.3620    3.7730   -3.3270 C   0  0  0  0  0  0  0  0  0  0  0  0
   -1.3270    4.3190   -1.6380 C   0  0  0  0  0  0  0  0  0  0  0  0
   -0.2970    4.6670   -0.8260 C   0  0  0  0  0  0  0  0  0  0  0  0
    0.3210    6.0190   -0.9690 C   0  0  0  0  0  0  0  0  0  0  0  0
    0.1370    3.7520    0.1040 C   0  0  0  0  0  0  0  0  0  0  0  0
   -0.4330    2.4990    0.2390 C   0  0  0  0  0  0  0  0  0  0  0  0
    0.1800    1.6490    1.2510 C   0  0  0  0  0  0  0  0  0  0  0  0
    0.4140    2.1710    2.3820 O   0  0  0  0  0  0  0  0  0  0  0  0
    0.5530    0.2880    1.1270 N   0  0  0  0  0  0  0  0  0  0  0  0
    1.1650   -0.2600   -0.1280 C   0  0  1  0  0  0  0  0  0  0  0  0
    2.4300    0.4170   -0.3820 C   0  0  2  0  0  0  0  0  0  0  0  0
    3.1790    0.1160   -1.6450 C   0  0  0  0  0  0  0  0  0  0  0  0
    3.9000    1.3980   -2.0300 C   0  0  0  0  0  0  0  0  0  0  0  0
    4.6060    2.0490   -0.9050 C   0  0  0  0  0  0  0  0  0  0  0  0
    3.9380    1.9610    0.4120 C   0  0  0  0  0  0  0  0  0  0  0  0
    3.3220    0.6820    0.7260 N   0  0  2  0  0  0  0  0  0  0  0  0
    4.2100   -0.3300    1.1340 C   0  0  1  0  0  0  0  0  0  0  0  0
    5.6290   -0.0200    1.3270 C   0  0  0  0  0  0  0  0  0  0  0  0
    6.0860   -0.4750    2.6980 C   0  0  0  0  0  0  0  0  0  0  0  0
    5.1370   -1.5760    2.9980 C   0  0  0  0  0  0  0  0  0  0  0  0
    3.8500   -1.0020    2.4520 C   0  0  0  0  0  0  0  0  0  0  0  0
    0.9540   -1.7010   -0.0310 C   0  0  0  0  0  0  0  0  0  0  0  0
    1.2570   -2.5590   -1.1200 N   0  0  0  0  0  0  0  0  0  0  0  0
    0.6740   -3.7630   -1.5450 C   0  0  0  0  0  0  0  0  0  0  0  0
    1.5010   -4.7960   -1.5570 O   0  0  0  0  0  0  0  0  0  0  0  0
   -0.6430   -4.1340   -1.9820 C   0  0  0  0  0  0  0  0  0  0  0  0
   -0.6680   -5.1280   -2.8960 O   0  0  0  0  0  0  0  0  0  0  0  0
   -1.9490   -3.6970   -1.6770 N   0  0  0  0  0  0  0  0  0  0  0  0
   -2.7140   -3.2360   -2.8820 C   0  0  0  0  0  0  0  0  0  0  0  0
   -2.6950   -3.6920   -0.4600 C   0  0  1  0  0  0  0  0  0  0  0  0
   -2.3730   -4.7720    0.5360 C   0  0  0  0  0  0  0  0  0  0  0  0
   -1.0400   -4.8590    1.0720 C   0  0  0  0  0  0  0  0  0  0  0  0
   -0.2730   -5.7880    0.7210 O   0  0  0  0  0  0  0  0  0  0  0  0
   -0.5140   -3.9610    1.9840 O   0  0  0  0  0  0  0  0  0  0  0  0
   -2.9770   -2.4350    0.2600 C   0  0  2  0  0  0  0  0  0  0  0  0
   -4.3780   -2.5920    0.8920 C   0  0  0  0  0  0  0  0  0  0  0  0
   -3.0360   -1.1720   -0.5370 C   0  0  1  0  0  0  0  0  0  0  0  0
   -4.2520   -0.8330   -1.0550 O   0  0  0  0  0  0  0  0  0  0  0  0
  1  2  1  0
  2  3  1  0
  4  3  1  6
  4  5  1  0
  4 45  1  0
  5  6  1  0
  6  7  2  0
  6 14  1  0
  7  8  1  0
  7 10  1  0
  8  9  1  0
 10 11  2  0
 11 12  1  0
 11 13  1  0
 13 14  2  0
 14 15  1  0
 15 16  2  0
 15 17  1  0
 17 18  1  0
 18 19  1  0
 18 30  1  1
 19 20  1  6
 19 24  1  0
 20 21  1  0
 21 22  1  0
 22 23  1  0
 24 23  1  6
 24 25  1  0
 25 26  1  1
 25 29  1  0
 26 27  1  0
 27 28  1  0
 28 29  1  0
 30 31  1  0
 31 32  1  0
 32 33  2  0
 32 34  1  0
 34 35  2  0
 34 36  1  0
 36 37  1  0
 36 38  1  0
 38 39  1  1
 38 43  1  0
 39 40  1  0
 40 41  2  0
 40 42  1  0
 43 44  1  6
 43 45  1  0
 45 46  1  1
M  CHG  1  24   1
M  END
