
     RDKit          3D

 45 51  0  0  0  0  0  0  0  0999 V2000
   -8.0660    4.2390    1.3910 C   0  0  0  0  0  0  0  0  0  0  0  0
   -6.8570    3.3820    1.1450 C   0  0  0  0  0  0  0  0  0  0  0  0
   -7.2280    2.1840    0.2420 C   0  0  2  0  0  0  0  0  0  0  0  0
   -8.2560    1.3570    0.8640 C   0  0  0  0  0  0  0  0  0  0  0  0
   -8.1450    0.0520    0.9200 C   0  0  0  0  0  0  0  0  0  0  0  0
   -9.1960   -0.7980    1.5540 C   0  0  0  0  0  0  0  0  0  0  0  0
   -9.0980   -2.2150    1.0780 C   0  0  2  0  0  0  0  0  0  0  0  0
  -10.0660   -3.2730    2.1760 S   0  0  0  0  0  0  0  0  0  0  0  0
   -7.7330   -2.7510    0.9270 C   0  0  0  0  0  0  0  0  0  0  0  0
   -6.7700   -1.8780    0.3510 N   0  0  0  0  0  0  0  0  0  0  0  0
   -6.9770   -0.5690    0.3610 C   0  0  0  0  0  0  0  0  0  0  0  0
   -5.9530    0.0950   -0.2320 C   0  0  0  0  0  0  0  0  0  0  0  0
   -5.0650   -0.8670   -0.6320 C   0  0  0  0  0  0  0  0  0  0  0  0
   -3.8630   -0.7560   -1.2840 C   0  0  0  0  0  0  0  0  0  0  0  0
   -3.0900   -1.8820   -1.6150 C   0  0  0  0  0  0  0  0  0  0  0  0
   -1.8710   -1.6620   -2.3040 N   0  0  0  0  0  0  0  0  0  0  0  0
   -0.6840   -1.3710   -1.5440 C   0  0  0  0  0  0  0  0  0  0  0  0
   -0.7960   -1.3500   -0.2950 O   0  0  0  0  0  0  0  0  0  0  0  0
    0.6010   -1.1070   -2.2650 C   0  0  0  0  0  0  0  0  0  0  0  0
    1.6390   -0.8470   -1.3060 N   0  0  0  0  0  0  0  0  0  0  0  0
    1.9630    0.4260   -0.7180 C   0  0  0  0  0  0  0  0  0  0  0  0
    1.7140    1.5460   -1.1770 O   0  0  0  0  0  0  0  0  0  0  0  0
    2.6730    0.1250    0.5840 C   0  0  0  0  0  0  0  0  0  0  0  0
    3.4980   -1.0190    0.1350 N   0  0  0  0  0  0  0  0  0  0  0  0
    4.8520   -1.3020    0.4820 C   0  0  0  0  0  0  0  0  0  0  0  0
    5.7720   -0.2510    0.5880 C   0  0  0  0  0  0  0  0  0  0  0  0
    7.0880   -0.4870    0.9050 C   0  0  0  0  0  0  0  0  0  0  0  0
    7.5690   -1.7610    1.1350 C   0  0  0  0  0  0  0  0  0  0  0  0
    9.3040   -2.0360    1.5390 S   0  0  0  0  0  0  0  0  0  0  0  0
   10.1500   -0.4710    1.5710 C   0  0  0  0  0  0  0  0  0  0  0  0
   10.1940    0.2840    0.4910 C   0  0  0  0  0  0  0  0  0  0  0  0
   10.8470    1.5730    0.3900 C   0  0  0  0  0  0  0  0  0  0  0  0
   10.8600    2.3170   -0.7780 C   0  0  0  0  0  0  0  0  0  0  0  0
   11.4810    3.5500   -0.8440 C   0  0  0  0  0  0  0  0  0  0  0  0
   12.0910    4.0640    0.2240 N   0  0  0  0  0  0  0  0  0  0  0  0
   12.0910    3.3630    1.3620 C   0  0  0  0  0  0  0  0  0  0  0  0
   11.4780    2.1080    1.4840 C   0  0  0  0  0  0  0  0  0  0  0  0
    6.6720   -2.8070    1.0350 C   0  0  0  0  0  0  0  0  0  0  0  0
    5.3400   -2.5650    0.7130 C   0  0  0  0  0  0  0  0  0  0  0  0
    2.6210   -1.7430   -0.7500 C   0  0  0  0  0  0  0  0  0  0  0  0
    2.7140   -2.9670   -0.9860 O   0  0  0  0  0  0  0  0  0  0  0  0
   -3.5980   -3.0960   -1.2520 C   0  0  0  0  0  0  0  0  0  0  0  0
   -4.8240   -3.2060   -0.5860 C   0  0  0  0  0  0  0  0  0  0  0  0
   -5.5860   -2.1090   -0.2600 C   0  0  0  0  0  0  0  0  0  0  0  0
   -6.0160    1.5550   -0.3010 C   0  0  0  0  0  0  0  0  0  0  0  0
  1  2  1  0
  3  2  1  1
  3  4  1  0
  3 45  1  0
  4  5  2  0
  5  6  1  0
  5 11  1  0
  6  7  1  0
  7  8  1  1
  7  9  1  0
  9 10  1  0
 10 11  1  0
 10 44  1  0
 11 12  2  0
 12 13  1  0
 12 45  1  0
 13 14  2  0
 13 44  1  0
 14 15  1  0
 15 16  1  0
 15 42  2  0
 16 17  1  0
 17 18  2  0
 17 19  1  0
 19 20  1  0
 20 21  1  0
 20 40  1  0
 21 22  2  0
 21 23  1  0
 23 24  1  0
 24 25  1  0
 24 40  1  0
 25 26  2  0
 25 39  1  0
 26 27  1  0
 27 28  2  0
 28 29  1  0
 28 38  1  0
 29 30  1  0
 30 31  2  3
 31 32  1  0
 32 33  2  0
 32 37  1  0
 33 34  1  0
 34 35  2  0
 35 36  1  0
 36 37  2  0
 38 39  2  0
 40 41  2  0
 42 43  1  0
 43 44  2  0
M  CHG  1  35   1
M  END
