
     RDKit          3D

 19 18  0  0  0  0  0  0  0  0999 V2000
    1.0440   -0.5500   -3.0620 C   0  0  0  0  0  0  0  0  0  0  0  0
    0.3260    0.2760   -2.1630 N   0  0  0  0  0  0  0  0  0  0  0  0
    0.0470   -0.3920   -0.8720 C   0  0  1  0  0  0  0  0  0  0  0  0
   -0.4720   -1.7440   -1.2220 C   0  0  0  0  0  0  0  0  0  0  0  0
   -0.8350   -2.6640   -0.1310 C   0  0  0  0  0  0  0  0  0  0  0  0
   -1.8190   -2.2910    0.7350 O   0  0  0  0  0  0  0  0  0  0  0  0
    1.2880   -0.4810   -0.0470 C   0  0  0  0  0  0  0  0  0  0  0  0
    1.8990    0.8480    0.2850 C   0  0  0  0  0  0  0  0  0  0  0  0
    3.0600    0.6270    1.0640 O   0  0  0  0  0  0  0  0  0  0  0  0
    3.8690    1.6270    1.5450 C   0  0  0  0  0  0  0  0  0  0  0  0
    5.0050    1.2820    2.3130 N   0  0  0  0  0  0  0  0  0  0  0  0
    3.5650    2.8270    1.2800 O   0  0  0  0  0  0  0  0  0  0  0  0
   -1.0220    0.4180   -0.2720 C   0  0  0  0  0  0  0  0  0  0  0  0
   -1.6390    1.3380   -0.8700 O   0  0  0  0  0  0  0  0  0  0  0  0
   -1.4260    0.2070    1.0410 O   0  0  0  0  0  0  0  0  0  0  0  0
   -2.4310    0.9450    1.6630 C   0  0  0  0  0  0  0  0  0  0  0  0
   -3.7420    0.8080    0.9430 C   0  0  0  0  0  0  0  0  0  0  0  0
   -4.8770    1.4990    1.4480 N   0  0  0  0  0  0  0  0  0  0  0  0
   -3.8250    0.0970   -0.0820 O   0  0  0  0  0  0  0  0  0  0  0  0
  1  2  1  0
  2  3  1  0
  3  4  1  6
  3  7  1  0
  3 13  1  0
  4  5  1  0
  5  6  1  0
  7  8  1  0
  8  9  1  0
  9 10  1  0
 10 11  1  0
 10 12  2  0
 13 14  2  0
 13 15  1  0
 15 16  1  0
 16 17  1  0
 17 18  1  0
 17 19  2  0
M  CHG  1   2   1
M  END
