
     RDKit          3D

 20 19  0  0  0  0  0  0  0  0999 V2000
   -3.3550   -3.0110    0.8570 C   0  0  0  0  0  0  0  0  0  0  0  0
   -2.9550   -1.8060    0.2670 O   0  0  0  0  0  0  0  0  0  0  0  0
   -2.0400   -1.1330    1.0750 C   0  0  0  0  0  0  0  0  0  0  0  0
   -1.6770    0.1460    0.3460 C   0  0  1  0  0  0  0  0  0  0  0  0
   -1.0690   -0.1580   -0.9870 C   0  0  0  0  0  0  0  0  0  0  0  0
    0.1340   -0.9400   -0.9150 N   0  0  0  0  0  0  0  0  0  0  0  0
    1.2480   -0.2740   -0.3260 C   0  0  0  0  0  0  0  0  0  0  0  0
    2.7220   -1.3020   -0.5780 S   0  0  0  0  0  0  0  0  0  0  0  0
    4.1940   -0.5460    0.1310 C   0  0  2  0  0  0  0  0  0  0  0  0
    4.1230   -0.4660    1.6400 C   0  0  0  0  0  0  0  0  0  0  0  0
    3.0600    0.2710    2.1010 O   0  0  0  0  0  0  0  0  0  0  0  0
    4.5540    0.7400   -0.5020 C   0  0  0  0  0  0  0  0  0  0  0  0
    4.8230    0.7240   -1.8970 N   0  0  0  0  0  0  0  0  0  0  0  0
    4.6290    1.8190    0.1280 O   0  0  0  0  0  0  0  0  0  0  0  0
   -2.9370    0.9080    0.1390 C   0  0  0  0  0  0  0  0  0  0  0  0
   -4.0580    0.4810    0.5340 O   0  0  0  0  0  0  0  0  0  0  0  0
   -2.9480    2.1770   -0.5250 N   0  0  0  0  0  0  0  0  0  0  0  0
   -4.1700    2.8800   -0.7070 C   0  0  0  0  0  0  0  0  0  0  0  0
   -5.2550    2.4290   -0.3040 O   0  0  0  0  0  0  0  0  0  0  0  0
   -4.1790    4.1210   -1.3570 O   0  0  0  0  0  0  0  0  0  0  0  0
  1  2  1  0
  2  3  1  0
  4  3  1  6
  4  5  1  0
  4 15  1  0
  5  6  1  0
  6  7  1  0
  7  8  1  0
  8  9  1  0
  9 10  1  1
  9 12  1  0
 10 11  1  0
 12 13  1  0
 12 14  2  0
 15 16  2  0
 15 17  1  0
 17 18  1  0
 18 19  2  0
 18 20  1  0
M  CHG  1   6   1
M  END
