
     RDKit          3D

 20 19  0  0  0  0  0  0  0  0999 V2000
   -4.4650   -2.3120   -0.0370 C   0  0  0  0  0  0  0  0  0  0  0  0
   -3.1470   -2.1030    0.6260 C   0  0  0  0  0  0  0  0  0  0  0  0
   -2.2850   -1.0790   -0.1240 C   0  0  2  0  0  0  0  0  0  0  0  0
   -2.0360   -1.5000   -1.4220 O   0  0  0  0  0  0  0  0  0  0  0  0
   -0.9780   -0.9970    0.6360 C   0  0  0  0  0  0  0  0  0  0  0  0
   -0.0480   -0.0330    0.0090 C   0  0  0  0  0  0  0  0  0  0  0  0
   -0.4070    0.5770   -1.0180 O   0  0  0  0  0  0  0  0  0  0  0  0
    1.2300    0.1920    0.5650 N   0  0  0  0  0  0  0  0  0  0  0  0
    2.1530    1.1430   -0.0500 C   0  0  0  0  0  0  0  0  0  0  0  0
    3.4330    1.2010    0.7230 C   0  0  1  0  0  0  0  0  0  0  0  0
    4.3040    2.2800    0.1290 C   0  0  0  0  0  0  0  0  0  0  0  0
    3.1110    1.6130    2.0280 O   0  0  0  0  0  0  0  0  0  0  0  0
    4.1520   -0.0880    0.7830 C   0  0  0  0  0  0  0  0  0  0  0  0
    4.6030   -0.7450   -0.3850 N   0  0  0  0  0  0  0  0  0  0  0  0
    4.3790   -0.6260    1.8640 O   0  0  0  0  0  0  0  0  0  0  0  0
   -3.0230    0.1870   -0.1170 C   0  0  0  0  0  0  0  0  0  0  0  0
   -3.3420    0.7270    0.9760 O   0  0  0  0  0  0  0  0  0  0  0  0
   -3.4130    0.8620   -1.3080 N   0  0  0  0  0  0  0  0  0  0  0  0
   -4.3010    2.3880   -1.2500 S   0  0  0  0  0  0  0  0  0  0  0  0
   -3.3020    3.5160   -1.3280 O   0  0  0  0  0  0  0  0  0  0  0  0
  1  2  1  0
  2  3  1  0
  3  4  1  6
  3  5  1  0
  3 16  1  0
  5  6  1  0
  6  7  2  0
  6  8  1  0
  8  9  1  0
  9 10  1  0
 10 11  1  6
 10 12  1  0
 10 13  1  0
 13 14  1  0
 13 15  2  0
 16 17  2  0
 16 18  1  0
 18 19  1  0
 19 20  2  0
M  CHG  1  14   1
M  END
