
     RDKit          3D

 19 18  0  0  0  0  0  0  0  0999 V2000
    7.2560   -0.0890   -0.0930 C   0  0  0  0  0  0  0  0  0  0  0  0
    5.8810    0.1290    0.0350 O   0  0  0  0  0  0  0  0  0  0  0  0
    5.2870    1.3730    0.1790 C   0  0  0  0  0  0  0  0  0  0  0  0
    6.0420    2.3800    0.1950 O   0  0  0  0  0  0  0  0  0  0  0  0
    3.8150    1.5100    0.3080 C   0  0  0  0  0  0  0  0  0  0  0  0
    3.2040    0.1390    0.2450 C   0  0  0  0  0  0  0  0  0  0  0  0
    1.7930    0.1730    0.3610 O   0  0  0  0  0  0  0  0  0  0  0  0
    1.0740   -0.9910    0.3210 C   0  0  0  0  0  0  0  0  0  0  0  0
    1.6990   -2.0740    0.1790 O   0  0  0  0  0  0  0  0  0  0  0  0
   -0.4060   -1.0620    0.4360 C   0  0  1  0  0  0  0  0  0  0  0  0
   -0.9710    0.2830    0.6020 N   0  0  0  0  0  0  0  0  0  0  0  0
   -1.0420   -1.6080   -0.8430 C   0  0  0  0  0  0  0  0  0  0  0  0
   -2.7920   -1.6560   -0.6140 S   0  0  0  0  0  0  0  0  0  0  0  0
   -3.6430   -0.1380   -0.4400 C   0  0  2  0  0  0  0  0  0  0  0  0
   -5.1380   -0.4270   -0.2570 C   0  0  0  0  0  0  0  0  0  0  0  0
   -5.3070   -1.2460    0.9460 N   0  0  0  0  0  0  0  0  0  0  0  0
   -3.5020    0.8390   -1.5160 C   0  0  0  0  0  0  0  0  0  0  0  0
   -4.2030    2.0810   -1.3690 N   0  0  0  0  0  0  0  0  0  0  0  0
   -2.8310    0.7080   -2.5570 O   0  0  0  0  0  0  0  0  0  0  0  0
  1  2  1  0
  2  3  1  0
  3  4  2  0
  3  5  1  0
  5  6  1  0
  6  7  1  0
  7  8  1  0
  8  9  2  0
  8 10  1  0
 10 11  1  6
 10 12  1  0
 12 13  1  0
 13 14  1  0
 14 15  1  6
 14 17  1  0
 15 16  1  0
 17 18  1  0
 17 19  2  0
M  CHG  1  16   1
M  END
