
     RDKit          3D

 20 19  0  0  0  0  0  0  0  0999 V2000
    5.4110   -2.0070   -1.3860 C   0  0  0  0  0  0  0  0  0  0  0  0
    4.7350   -1.4910   -0.2640 O   0  0  0  0  0  0  0  0  0  0  0  0
    3.5430   -0.9510   -0.7510 C   0  0  0  0  0  0  0  0  0  0  0  0
    2.7010   -0.3520    0.3520 C   0  0  2  0  0  0  0  0  0  0  0  0
    1.5310    0.1600   -0.2460 O   0  0  0  0  0  0  0  0  0  0  0  0
    0.3110   -0.3740    0.1260 C   0  0  0  0  0  0  0  0  0  0  0  0
    0.3060   -1.2900    0.9790 O   0  0  0  0  0  0  0  0  0  0  0  0
   -0.9850    0.0810   -0.4310 C   0  0  0  0  0  0  0  0  0  0  0  0
   -1.9930   -0.6410    0.1380 O   0  0  0  0  0  0  0  0  0  0  0  0
   -3.2690   -0.3630   -0.2520 C   0  0  1  0  0  0  0  0  0  0  0  0
   -4.1720   -1.3080    0.5600 C   0  0  0  0  0  0  0  0  0  0  0  0
   -3.6800    1.0420    0.0710 C   0  0  0  0  0  0  0  0  0  0  0  0
   -3.6200    1.3200    1.4920 N   0  0  0  0  0  0  0  0  0  0  0  0
   -3.5600   -0.6450   -1.6890 C   0  0  0  0  0  0  0  0  0  0  0  0
   -2.7180   -1.1000   -2.4430 O   0  0  0  0  0  0  0  0  0  0  0  0
   -5.1720   -0.3310   -2.3970 S   0  0  0  0  0  0  0  0  0  0  0  0
    3.4430    0.6950    1.1010 C   0  0  0  0  0  0  0  0  0  0  0  0
    4.5050    0.3470    1.6750 O   0  0  0  0  0  0  0  0  0  0  0  0
    2.9220    2.0140    1.1300 N   0  0  0  0  0  0  0  0  0  0  0  0
    3.6330    2.9900    1.8400 N   0  0  0  0  0  0  0  0  0  0  0  0
  1  2  1  0
  2  3  1  0
  4  3  1  6
  4  5  1  0
  4 17  1  0
  5  6  1  0
  6  7  2  0
  6  8  1  0
  8  9  1  0
  9 10  1  0
 10 11  1  1
 10 12  1  0
 10 14  1  0
 12 13  1  0
 14 15  2  0
 14 16  1  0
 17 18  2  0
 17 19  1  0
 19 20  1  0
M  CHG  1  13   1
M  END
