
     RDKit          3D

 20 19  0  0  0  0  0  0  0  0999 V2000
    2.5690   -2.0580    0.6600 C   0  0  0  0  0  0  0  0  0  0  0  0
    3.3330   -0.7730    0.5290 C   0  0  1  0  0  0  0  0  0  0  0  0
    3.8570   -0.6760   -0.8090 N   0  0  0  0  0  0  0  0  0  0  0  0
    2.6810    0.4250    1.0460 C   0  0  0  0  0  0  0  0  0  0  0  0
    1.3440    0.8210    0.4520 C   0  0  1  0  0  0  0  0  0  0  0  0
    1.0070    1.9860    1.2000 O   0  0  0  0  0  0  0  0  0  0  0  0
   -0.0990    1.8500    1.9750 C   0  0  0  0  0  0  0  0  0  0  0  0
   -1.3450    1.5610    1.2670 C   0  0  0  0  0  0  0  0  0  0  0  0
   -2.4210    1.3990    1.9290 O   0  0  0  0  0  0  0  0  0  0  0  0
   -1.4490    1.4480   -0.0920 O   0  0  0  0  0  0  0  0  0  0  0  0
   -2.6360    1.1720   -0.7930 C   0  0  0  0  0  0  0  0  0  0  0  0
   -3.1950   -0.1510   -0.3620 C   0  0  0  0  0  0  0  0  0  0  0  0
   -2.5870   -0.8090    0.5040 O   0  0  0  0  0  0  0  0  0  0  0  0
   -4.3800   -0.6800   -0.9000 N   0  0  0  0  0  0  0  0  0  0  0  0
   -4.9190   -1.9320   -0.5000 C   0  0  0  0  0  0  0  0  0  0  0  0
   -4.3480   -2.6240    0.3620 O   0  0  0  0  0  0  0  0  0  0  0  0
   -6.0870   -2.3970   -1.0650 O   0  0  0  0  0  0  0  0  0  0  0  0
    1.5570    1.3060   -0.9090 C   0  0  0  0  0  0  0  0  0  0  0  0
    0.8500    0.9860   -2.0740 N   0  0  0  0  0  0  0  0  0  0  0  0
    2.7860    2.4070   -1.0970 S   0  0  0  0  0  0  0  0  0  0  0  0
  2  1  1  6
  2  3  1  0
  2  4  1  0
  5  4  1  1
  5  6  1  0
  5 18  1  0
  6  7  1  0
  7  8  1  0
  8  9  2  0
  8 10  1  0
 10 11  1  0
 11 12  1  0
 12 13  2  0
 12 14  1  0
 14 15  1  0
 15 16  2  0
 15 17  1  0
 18 19  1  0
 18 20  2  0
M  CHG  1   3   1
M  END
