
     RDKit          3D

 20 19  0  0  0  0  0  0  0  0999 V2000
   -4.2380   -1.3200   -0.8040 N   0  0  0  0  0  0  0  0  0  0  0  0
   -3.8860   -0.7720    0.4940 C   0  0  1  0  0  0  0  0  0  0  0  0
   -3.4950    0.6650    0.4230 C   0  0  0  0  0  0  0  0  0  0  0  0
   -2.3210    0.9510   -0.4480 C   0  0  0  0  0  0  0  0  0  0  0  0
   -1.0710    0.3000   -0.0540 C   0  0  0  0  0  0  0  0  0  0  0  0
   -0.9670   -0.4300    0.9800 O   0  0  0  0  0  0  0  0  0  0  0  0
    0.1400    0.4340   -0.8020 N   0  0  0  0  0  0  0  0  0  0  0  0
    1.3790   -0.2350   -0.3760 C   0  0  1  0  0  0  0  0  0  0  0  0
    1.7250   -1.2160   -1.4760 C   0  0  0  0  0  0  0  0  0  0  0  0
    3.2230   -2.1560   -1.1530 S   0  0  0  0  0  0  0  0  0  0  0  0
    2.4120    0.7980   -0.1660 C   0  0  0  0  0  0  0  0  0  0  0  0
    2.1220    2.0130   -0.3930 O   0  0  0  0  0  0  0  0  0  0  0  0
    3.7310    0.5590    0.2760 N   0  0  0  0  0  0  0  0  0  0  0  0
    4.6790    1.6510    0.4510 C   0  0  0  0  0  0  0  0  0  0  0  0
    5.9790    1.0840    0.9250 C   0  0  0  0  0  0  0  0  0  0  0  0
    6.1350   -0.1500    1.1130 O   0  0  0  0  0  0  0  0  0  0  0  0
    7.0710    1.8990    1.1780 O   0  0  0  0  0  0  0  0  0  0  0  0
   -5.0560   -0.9010    1.4080 C   0  0  0  0  0  0  0  0  0  0  0  0
   -4.9660   -0.4930    2.5710 O   0  0  0  0  0  0  0  0  0  0  0  0
   -6.2210   -1.4730    0.9470 O   0  0  0  0  0  0  0  0  0  0  0  0
  2  1  1  6
  2  3  1  0
  2 18  1  0
  3  4  1  0
  4  5  1  0
  5  6  2  0
  5  7  1  0
  7  8  1  0
  8  9  1  6
  8 11  1  0
  9 10  1  0
 11 12  2  0
 11 13  1  0
 13 14  1  0
 14 15  1  0
 15 16  2  0
 15 17  1  0
 18 19  2  0
 18 20  1  0
M  CHG  1   1   1
M  END
