
     RDKit          3D

 37 41  0  0  0  0  0  0  0  0999 V2000
    7.3700    0.2980   -3.5840 C   0  0  0  0  0  0  0  0  0  0  0  0
    6.1740   -0.3400   -2.9450 C   0  0  0  0  0  0  0  0  0  0  0  0
    5.5110    0.4940   -1.9950 N   0  0  0  0  0  0  0  0  0  0  0  0
    4.7970    1.6730   -2.3710 C   0  0  0  0  0  0  0  0  0  0  0  0
    4.2240    2.3500   -1.3990 C   0  0  0  0  0  0  0  0  0  0  0  0
    4.2860    1.9700   -0.0520 N   0  0  0  0  0  0  0  0  0  0  0  0
    4.9300    0.8980    0.3320 C   0  0  0  0  0  0  0  0  0  0  0  0
    4.9740    0.5280    1.7710 C   0  0  0  0  0  0  0  0  0  0  0  0
    4.4540   -0.8640    1.9400 C   0  0  0  0  0  0  0  0  0  0  0  0
    3.0900   -1.0630    1.5040 N   0  0  0  0  0  0  0  0  0  0  0  0
    2.7580   -1.4720    0.2600 C   0  0  0  0  0  0  0  0  0  0  0  0
    1.4800   -1.6660   -0.1080 N   0  0  0  0  0  0  0  0  0  0  0  0
    0.4580   -1.4630    0.7460 C   0  0  0  0  0  0  0  0  0  0  0  0
    0.8080   -1.0480    2.0070 C   0  0  0  0  0  0  0  0  0  0  0  0
    2.0940   -0.8390    2.4180 C   0  0  0  0  0  0  0  0  0  0  0  0
    2.3830   -0.4550    3.5930 O   0  0  0  0  0  0  0  0  0  0  0  0
   -0.3420   -0.8450    2.9480 C   0  0  0  0  0  0  0  0  0  0  0  0
   -1.3180   -1.9410    2.6130 C   0  0  0  0  0  0  0  0  0  0  0  0
   -1.9240   -1.7430    1.3180 N   0  0  0  0  0  0  0  0  0  0  0  0
   -2.7350   -0.5360    1.3070 C   0  0  0  0  0  0  0  0  0  0  0  0
   -3.6410   -0.4920    0.1550 C   0  0  0  0  0  0  0  0  0  0  0  0
   -4.7950    0.1470    0.3000 N   0  0  0  0  0  0  0  0  0  0  0  0
   -5.1120    0.7560    1.5310 C   0  0  0  0  0  0  0  0  0  0  0  0
   -6.1660    0.3340    2.3190 C   0  0  0  0  0  0  0  0  0  0  0  0
   -6.4210    0.9750    3.5250 C   0  0  0  0  0  0  0  0  0  0  0  0
   -5.6370    2.0290    3.9490 C   0  0  0  0  0  0  0  0  0  0  0  0
   -4.5940    2.4150    3.1280 C   0  0  0  0  0  0  0  0  0  0  0  0
   -4.3630    1.7730    1.9500 N   0  0  0  0  0  0  0  0  0  0  0  0
   -3.4260   -1.0530   -1.1190 N   0  0  0  0  0  0  0  0  0  0  0  0
   -3.6590   -0.3570   -2.3310 C   0  0  0  0  0  0  0  0  0  0  0  0
   -3.5230   -1.0290   -3.5580 C   0  0  0  0  0  0  0  0  0  0  0  0
   -3.7300   -0.3960   -4.7520 C   0  0  0  0  0  0  0  0  0  0  0  0
   -4.0830    0.9350   -4.8120 C   0  0  0  0  0  0  0  0  0  0  0  0
   -4.2170    1.5970   -3.6280 C   0  0  0  0  0  0  0  0  0  0  0  0
   -4.0090    0.9620   -2.4050 C   0  0  0  0  0  0  0  0  0  0  0  0
   -0.9200   -1.6930    0.2620 C   0  0  0  0  0  0  0  0  0  0  0  0
    5.5470    0.1580   -0.6610 O   0  0  0  0  0  0  0  0  0  0  0  0
  1  2  1  0
  2  3  1  0
  3  4  1  0
  3 37  1  0
  4  5  2  0
  5  6  1  0
  6  7  2  0
  7  8  1  0
  7 37  1  0
  8  9  1  0
  9 10  1  0
 10 11  1  0
 10 15  1  0
 11 12  2  0
 12 13  1  0
 13 14  2  0
 13 36  1  0
 14 15  1  0
 14 17  1  0
 15 16  2  0
 17 18  1  0
 18 19  1  0
 19 20  1  0
 19 36  1  0
 20 21  1  0
 21 22  2  3
 21 29  1  0
 22 23  1  0
 23 24  2  0
 23 28  1  0
 24 25  1  0
 25 26  2  0
 26 27  1  0
 27 28  2  0
 29 30  1  0
 30 31  2  0
 30 35  1  0
 31 32  1  0
 32 33  2  0
 33 34  1  0
 34 35  2  0
M  END
