
     RDKit          3D

 37 40  0  0  0  0  0  0  0  0999 V2000
    9.2250   -0.8000   -0.8820 C   0  0  0  0  0  0  0  0  0  0  0  0
    7.8490   -0.4090   -0.2870 C   0  0  2  0  0  0  0  0  0  0  0  0
    7.7660   -1.1300    1.0600 C   0  0  0  0  0  0  0  0  0  0  0  0
    9.1050   -0.5780    2.0920 Cl  0  0  0  0  0  0  0  0  0  0  0  0
    6.8120   -0.9730   -1.1900 C   0  0  0  0  0  0  0  0  0  0  0  0
    5.4380   -0.6600   -0.8170 C   0  0  0  0  0  0  0  0  0  0  0  0
    5.0820    0.3040    0.0620 C   0  0  0  0  0  0  0  0  0  0  0  0
    3.7330    0.5830    0.3320 C   0  0  0  0  0  0  0  0  0  0  0  0
    2.7360   -0.1230   -0.2960 C   0  0  0  0  0  0  0  0  0  0  0  0
    3.1170   -1.1160   -1.2000 C   0  0  0  0  0  0  0  0  0  0  0  0
    4.4290   -1.3700   -1.4460 C   0  0  0  0  0  0  0  0  0  0  0  0
    4.8250   -2.6450   -2.5980 Cl  0  0  0  0  0  0  0  0  0  0  0  0
    1.2880    0.1590   -0.0420 C   0  0  0  0  0  0  0  0  0  0  0  0
    0.5150   -0.5880   -0.7060 N   0  0  0  0  0  0  0  0  0  0  0  0
   -0.8400   -0.7950   -0.8920 C   0  0  0  0  0  0  0  0  0  0  0  0
   -1.6750   -1.3440    0.1990 C   0  0  0  0  0  0  0  0  0  0  0  0
   -3.0010   -0.8740    0.2580 N   0  0  0  0  0  0  0  0  0  0  0  0
   -3.8260   -1.7730    1.0070 C   0  0  0  0  0  0  0  0  0  0  0  0
   -4.1040   -3.0910    0.3240 C   0  0  0  0  0  0  0  0  0  0  0  0
   -4.9870   -3.9700    1.2120 C   0  0  0  0  0  0  0  0  0  0  0  0
   -5.2460   -5.1880    0.5530 O   0  0  0  0  0  0  0  0  0  0  0  0
   -3.5970   -0.3350   -0.9130 C   0  0  0  0  0  0  0  0  0  0  0  0
   -4.2760    0.9680   -0.6670 C   0  0  0  0  0  0  0  0  0  0  0  0
   -5.5580    1.1240   -0.1130 C   0  0  0  0  0  0  0  0  0  0  0  0
   -5.8440    2.4230   -0.0300 N   0  0  0  0  0  0  0  0  0  0  0  0
   -7.0600    3.0600    0.4780 C   0  0  0  0  0  0  0  0  0  0  0  0
   -4.8250    3.0550   -0.4940 N   0  0  0  0  0  0  0  0  0  0  0  0
   -3.8180    2.2090   -0.9070 C   0  0  0  0  0  0  0  0  0  0  0  0
   -2.5560    2.6600   -1.5030 C   0  0  0  0  0  0  0  0  0  0  0  0
   -1.3590    2.8430   -0.6880 C   0  0  0  0  0  0  0  0  0  0  0  0
   -1.3310    2.4200    0.6850 N   0  0  0  0  0  0  0  0  0  0  0  0
   -2.4980    2.9040    1.4820 C   0  0  0  0  0  0  0  0  0  0  0  0
   -0.3420    1.6810    1.3330 C   0  0  0  0  0  0  0  0  0  0  0  0
   -0.6410    1.3430    2.5550 O   0  0  0  0  0  0  0  0  0  0  0  0
    0.9870    1.2130    0.9000 C   0  0  0  0  0  0  0  0  0  0  0  0
    2.0170    1.8430    1.4600 N   0  0  0  0  0  0  0  0  0  0  0  0
    3.3470    1.6000    1.2400 N   0  0  0  0  0  0  0  0  0  0  0  0
  2  1  1  6
  2  3  1  0
  2  5  1  0
  3  4  1  0
  5  6  1  0
  6  7  2  0
  6 11  1  0
  7  8  1  0
  8  9  2  0
  8 37  1  0
  9 10  1  0
  9 13  1  0
 10 11  2  0
 11 12  1  0
 13 14  2  0
 13 35  1  0
 14 15  1  0
 15 16  1  0
 16 17  1  0
 17 18  1  0
 17 22  1  0
 18 19  1  0
 19 20  1  0
 20 21  1  0
 22 23  1  0
 23 24  2  0
 23 28  1  0
 24 25  1  0
 25 26  1  0
 25 27  1  0
 27 28  2  0
 28 29  1  0
 29 30  1  0
 30 31  1  0
 31 32  1  0
 31 33  1  0
 33 34  2  0
 33 35  1  0
 35 36  2  0
 36 37  1  0
M  END
