
     RDKit          3D

 37 42  0  0  0  0  0  0  0  0999 V2000
   -2.2140   -0.3440   -2.2990 C   0  0  0  0  0  0  0  0  0  0  0  0
   -3.5660   -0.1470   -1.6730 C   0  0  0  0  0  0  0  0  0  0  0  0
   -3.5730   -0.1670   -0.1740 C   0  0  0  0  0  0  0  0  0  0  0  0
   -3.0640   -1.4330    0.3660 N   0  0  0  0  0  0  0  0  0  0  0  0
   -1.8150   -1.7020    0.7420 C   0  0  0  0  0  0  0  0  0  0  0  0
   -0.6400   -0.7930    0.7650 C   0  0  0  0  0  0  0  0  0  0  0  0
   -0.5980    0.4950    0.4150 N   0  0  0  0  0  0  0  0  0  0  0  0
    0.6390    0.9940    0.5920 N   0  0  0  0  0  0  0  0  0  0  0  0
    0.9600    2.3540    0.3010 C   0  0  1  0  0  0  0  0  0  0  0  0
    0.9680    2.5230   -1.2210 C   0  0  0  0  0  0  0  0  0  0  0  0
    1.2680    3.9730   -1.5570 C   0  0  0  0  0  0  0  0  0  0  0  0
    1.1850    4.8780   -0.3490 C   0  0  0  0  0  0  0  0  0  0  0  0
   -0.0120    4.5470    0.3980 N   0  0  0  0  0  0  0  0  0  0  0  0
   -1.0710    5.2570    0.8510 C   0  0  0  0  0  0  0  0  0  0  0  0
   -1.8810    4.3350    1.5040 C   0  0  0  0  0  0  0  0  0  0  0  0
   -1.2980    3.1100    1.4280 N   0  0  0  0  0  0  0  0  0  0  0  0
   -0.1680    3.2470    0.7570 C   0  0  0  0  0  0  0  0  0  0  0  0
    1.3790   -0.0150    1.0630 C   0  0  0  0  0  0  0  0  0  0  0  0
    2.6000    0.0070    1.3710 N   0  0  0  0  0  0  0  0  0  0  0  0
    3.5410    1.0260    1.3300 C   0  0  0  0  0  0  0  0  0  0  0  0
    3.8330    1.7600    2.3370 O   0  0  0  0  0  0  0  0  0  0  0  0
    4.2780    1.3260    0.0760 C   0  0  0  0  0  0  0  0  0  0  0  0
    3.9530    0.4200   -0.9480 O   0  0  0  0  0  0  0  0  0  0  0  0
    4.1910   -0.9410   -0.8800 C   0  0  0  0  0  0  0  0  0  0  0  0
    3.8100   -1.7370   -1.9510 C   0  0  0  0  0  0  0  0  0  0  0  0
    3.9910   -3.0900   -2.0060 C   0  0  0  0  0  0  0  0  0  0  0  0
    4.5940   -3.7070   -0.9220 C   0  0  0  0  0  0  0  0  0  0  0  0
    4.9930   -2.9700    0.1670 C   0  0  0  0  0  0  0  0  0  0  0  0
    4.7870   -1.5840    0.1790 C   0  0  0  0  0  0  0  0  0  0  0  0
    0.5990   -1.1160    1.1710 N   0  0  0  0  0  0  0  0  0  0  0  0
   -1.7970   -2.9960    1.1370 N   0  0  0  0  0  0  0  0  0  0  0  0
   -3.0140   -3.5440    1.0170 C   0  0  0  0  0  0  0  0  0  0  0  0
   -3.4990   -4.8250    1.2920 C   0  0  0  0  0  0  0  0  0  0  0  0
   -4.8290   -5.1070    1.0650 C   0  0  0  0  0  0  0  0  0  0  0  0
   -5.6140   -4.0850    0.5730 C   0  0  0  0  0  0  0  0  0  0  0  0
   -5.1560   -2.8310    0.3000 C   0  0  0  0  0  0  0  0  0  0  0  0
   -3.8070   -2.5360    0.5270 C   0  0  0  0  0  0  0  0  0  0  0  0
  1  2  1  0
  2  3  1  0
  3  4  1  0
  4  5  1  0
  4 37  1  0
  5  6  1  0
  5 31  2  0
  6  7  2  0
  6 30  1  0
  7  8  1  0
  9  8  1  6
  8 18  1  0
  9 10  1  0
  9 17  1  0
 10 11  1  0
 11 12  1  0
 12 13  1  0
 13 14  1  0
 13 17  1  0
 14 15  2  0
 15 16  1  0
 16 17  2  0
 18 19  2  3
 18 30  1  0
 19 20  1  0
 20 21  2  0
 20 22  1  0
 22 23  1  0
 23 24  1  0
 24 25  2  0
 24 29  1  0
 25 26  1  0
 26 27  2  0
 27 28  1  0
 28 29  2  0
 31 32  1  0
 32 33  2  0
 32 37  1  0
 33 34  1  0
 34 35  2  0
 35 36  1  0
 36 37  2  0
M  END
