
     RDKit          3D

 37 40  0  0  0  0  0  0  0  0999 V2000
    9.7360   -3.3760   -0.1660 C   0  0  0  0  0  0  0  0  0  0  0  0
    9.7140   -2.1470    0.2930 C   0  0  0  0  0  0  0  0  0  0  0  0
    8.5180   -1.3270    0.3110 C   0  0  0  0  0  0  0  0  0  0  0  0
    8.4890   -0.1420    1.0620 C   0  0  0  0  0  0  0  0  0  0  0  0
    9.5850    0.4260    1.9150 C   0  0  0  0  0  0  0  0  0  0  0  0
    7.2820    0.3860    0.8690 N   0  0  0  0  0  0  0  0  0  0  0  0
    6.5170   -0.3700    0.0440 C   0  0  0  0  0  0  0  0  0  0  0  0
    5.1320   -0.0440   -0.3570 C   0  0  0  0  0  0  0  0  0  0  0  0
    4.4320   -0.7980   -1.0580 O   0  0  0  0  0  0  0  0  0  0  0  0
    4.5480    1.1870    0.0670 N   0  0  0  0  0  0  0  0  0  0  0  0
    3.2040    1.6030   -0.2610 C   0  0  0  0  0  0  0  0  0  0  0  0
    2.1860    0.6350    0.3010 C   0  0  0  0  0  0  0  0  0  0  0  0
    0.8880    1.0950   -0.0510 N   0  0  0  0  0  0  0  0  0  0  0  0
    0.2360    0.6600   -1.2710 C   0  0  0  0  0  0  0  0  0  0  0  0
   -1.1190    0.1020   -0.9060 C   0  0  0  0  0  0  0  0  0  0  0  0
   -1.8490    1.0570   -0.0620 C   0  0  0  0  0  0  0  0  0  0  0  0
   -3.2950    1.0110   -0.1000 N   0  0  0  0  0  0  0  0  0  0  0  0
   -4.0420    1.4340    1.0630 C   0  0  0  0  0  0  0  0  0  0  0  0
   -5.1810    2.3600    0.6960 C   0  0  0  0  0  0  0  0  0  0  0  0
   -5.2650    2.5830   -0.7920 C   0  0  0  0  0  0  0  0  0  0  0  0
   -5.2920    1.1940   -1.4400 C   0  0  2  0  0  0  0  0  0  0  0  0
   -6.2590    0.3480   -0.7080 C   0  0  0  0  0  0  0  0  0  0  0  0
   -5.8850   -0.7700   -0.2040 N   0  0  0  0  0  0  0  0  0  0  0  0
   -6.8670   -1.5580    0.5020 C   0  0  0  0  0  0  0  0  0  0  0  0
   -6.8970   -2.8700    0.3990 C   0  0  0  0  0  0  0  0  0  0  0  0
   -5.8830   -3.5760   -0.4760 C   0  0  0  0  0  0  0  0  0  0  0  0
   -8.0700   -3.8170    1.2430 Cl  0  0  0  0  0  0  0  0  0  0  0  0
   -7.8010   -0.7740    1.3340 C   0  0  2  0  0  0  0  0  0  0  0  0
   -9.0340   -1.7520    2.1270 Cl  0  0  0  0  0  0  0  0  0  0  0  0
   -8.4560    0.2760    0.4600 C   0  0  0  0  0  0  0  0  0  0  0  0
   -7.5930    0.7640   -0.5730 N   0  0  0  0  0  0  0  0  0  0  0  0
   -3.9160    0.5490   -1.3100 C   0  0  0  0  0  0  0  0  0  0  0  0
   -1.2600    1.8990    0.6810 N   0  0  0  0  0  0  0  0  0  0  0  0
    0.1500    2.0000    0.7630 C   0  0  0  0  0  0  0  0  0  0  0  0
    0.7660    2.8250    1.4990 O   0  0  0  0  0  0  0  0  0  0  0  0
    7.2970   -1.4520   -0.3090 C   0  0  0  0  0  0  0  0  0  0  0  0
    6.8830   -2.5340   -1.2190 C   0  0  0  0  0  0  0  0  0  0  0  0
  1  2  2  0
  2  3  1  0
  3  4  2  0
  3 36  1  0
  4  5  1  0
  4  6  1  0
  6  7  1  0
  7  8  1  0
  7 36  2  0
  8  9  2  0
  8 10  1  0
 10 11  1  0
 11 12  1  0
 12 13  1  0
 13 14  1  0
 13 34  1  0
 14 15  1  0
 15 16  1  0
 16 17  1  0
 16 33  2  0
 17 18  1  0
 17 32  1  0
 18 19  1  0
 19 20  1  0
 20 21  1  0
 21 22  1  1
 21 32  1  0
 22 23  2  0
 22 31  1  0
 23 24  1  0
 24 25  2  3
 24 28  1  0
 25 26  1  0
 25 27  1  0
 28 29  1  6
 28 30  1  0
 30 31  1  0
 33 34  1  0
 34 35  2  0
 36 37  1  0
M  END
