
     RDKit          3D

 37 40  0  0  0  0  0  0  0  0999 V2000
   -6.6180    1.5420    1.8160 C   0  0  0  0  0  0  0  0  0  0  0  0
   -6.9770    0.2470    1.2430 C   0  0  0  0  0  0  0  0  0  0  0  0
   -6.3140   -0.4410    0.3730 C   0  0  0  0  0  0  0  0  0  0  0  0
   -6.8330   -1.7800   -0.1380 C   0  0  2  0  0  0  0  0  0  0  0  0
   -7.4760   -2.7430    1.1880 Cl  0  0  0  0  0  0  0  0  0  0  0  0
   -5.8550   -2.4280   -0.9270 N   0  0  0  0  0  0  0  0  0  0  0  0
   -5.6350   -3.8630   -0.7150 C   0  0  0  0  0  0  0  0  0  0  0  0
   -5.0460   -1.6760   -1.8480 N   0  0  0  0  0  0  0  0  0  0  0  0
   -4.5340   -0.5660   -1.3210 C   0  0  0  0  0  0  0  0  0  0  0  0
   -3.6300    0.3570   -2.1000 C   0  0  0  0  0  0  0  0  0  0  0  0
   -2.5730    0.6930   -1.1770 N   0  0  0  0  0  0  0  0  0  0  0  0
   -1.3000    0.8190   -1.6780 C   0  0  0  0  0  0  0  0  0  0  0  0
   -0.2790    0.4880   -0.6460 C   0  0  0  0  0  0  0  0  0  0  0  0
    0.2830   -0.7640   -0.8870 C   0  0  0  0  0  0  0  0  0  0  0  0
   -0.4660   -1.8920   -2.0390 Cl  0  0  0  0  0  0  0  0  0  0  0  0
    1.3820   -1.1510   -0.2260 C   0  0  0  0  0  0  0  0  0  0  0  0
    1.9660   -0.2870    0.7070 C   0  0  0  0  0  0  0  0  0  0  0  0
    3.2350   -0.7590    1.2100 N   0  0  0  0  0  0  0  0  0  0  0  0
    4.1580   -0.9440    0.1180 C   0  0  0  0  0  0  0  0  0  0  0  0
    3.7340   -0.6490   -1.0650 O   0  0  0  0  0  0  0  0  0  0  0  0
    5.5030   -1.4250    0.2070 C   0  0  1  0  0  0  0  0  0  0  0  0
    5.6160   -2.4510   -0.9710 C   0  0  0  0  0  0  0  0  0  0  0  0
    6.4510   -0.3480   -0.0560 N   0  0  0  0  0  0  0  0  0  0  0  0
    7.7760   -0.5760    0.0610 C   0  0  0  0  0  0  0  0  0  0  0  0
    8.4230   -1.8380    0.4900 C   0  0  0  0  0  0  0  0  0  0  0  0
    8.4140    0.5980   -0.2640 C   0  0  0  0  0  0  0  0  0  0  0  0
    7.4750    1.5010   -0.5700 N   0  0  0  0  0  0  0  0  0  0  0  0
    6.2690    0.9160   -0.4370 C   0  0  0  0  0  0  0  0  0  0  0  0
    5.1570    1.4890   -0.6470 O   0  0  0  0  0  0  0  0  0  0  0  0
    1.4050    0.9180    0.9300 C   0  0  0  0  0  0  0  0  0  0  0  0
    0.2400    1.3400    0.2340 C   0  0  0  0  0  0  0  0  0  0  0  0
   -0.3120    2.6250    0.6450 C   0  0  2  0  0  0  0  0  0  0  0  0
    0.8410    3.6450    0.4990 C   0  0  0  0  0  0  0  0  0  0  0  0
   -0.3810    2.5540    2.2130 C   0  0  0  0  0  0  0  0  0  0  0  0
   -2.8510    0.3220    0.1450 C   0  0  0  0  0  0  0  0  0  0  0  0
   -4.2500    1.0200    0.4800 C   0  0  0  0  0  0  0  0  0  0  0  0
   -5.1280    0.0590   -0.1900 N   0  0  0  0  0  0  0  0  0  0  0  0
  1  2  1  0
  2  3  2  3
  3  4  1  0
  3 37  1  0
  4  5  1  1
  4  6  1  0
  6  7  1  0
  6  8  1  0
  8  9  2  0
  9 10  1  0
  9 37  1  0
 10 11  1  0
 11 12  1  0
 11 35  1  0
 12 13  1  0
 13 14  2  0
 13 31  1  0
 14 15  1  0
 14 16  1  0
 16 17  2  0
 17 18  1  0
 17 30  1  0
 18 19  1  0
 19 20  2  0
 19 21  1  0
 21 22  1  6
 21 23  1  0
 23 24  1  0
 23 28  1  0
 24 25  1  0
 24 26  2  0
 26 27  1  0
 27 28  1  0
 28 29  2  0
 30 31  2  0
 31 32  1  0
 32 33  1  1
 32 34  1  0
 35 36  1  0
 36 37  1  0
M  END
