
     RDKit          3D

 36 39  0  0  0  0  0  0  0  0999 V2000
    7.6140    1.5990   -2.1120 C   0  0  0  0  0  0  0  0  0  0  0  0
    6.1650    1.3980   -1.9150 C   0  0  0  0  0  0  0  0  0  0  0  0
    5.2840    2.1820   -2.3720 C   0  0  0  0  0  0  0  0  0  0  0  0
    5.5420    3.4120   -3.1660 C   0  0  0  0  0  0  0  0  0  0  0  0
    4.7280    3.1800   -4.7600 Cl  0  0  0  0  0  0  0  0  0  0  0  0
    5.8090    0.1760   -1.1030 C   0  0  0  0  0  0  0  0  0  0  0  0
    6.7880   -0.5680   -0.6850 C   0  0  0  0  0  0  0  0  0  0  0  0
    6.7730   -1.7550    0.1080 C   0  0  0  0  0  0  0  0  0  0  0  0
    7.9250   -2.4280    0.3660 C   0  0  0  0  0  0  0  0  0  0  0  0
    7.6740   -3.6020    1.1870 C   0  0  0  0  0  0  0  0  0  0  0  0
    6.2980   -3.4890    1.6090 C   0  0  0  0  0  0  0  0  0  0  0  0
    5.7080   -4.2100    2.4520 O   0  0  0  0  0  0  0  0  0  0  0  0
    5.7450   -2.3740    0.8580 N   0  0  0  0  0  0  0  0  0  0  0  0
    4.4440   -0.1550   -1.0760 N   0  0  0  0  0  0  0  0  0  0  0  0
    3.9270   -1.3890   -1.0090 N   0  0  0  0  0  0  0  0  0  0  0  0
    2.6200   -1.3740   -0.9410 N   0  0  0  0  0  0  0  0  0  0  0  0
    2.2310   -0.0940   -0.9630 C   0  0  0  0  0  0  0  0  0  0  0  0
    0.8760    0.4920   -0.9090 C   0  0  0  0  0  0  0  0  0  0  0  0
    0.5570    0.7230    0.5760 C   0  0  0  0  0  0  0  0  0  0  0  0
   -0.7660    1.2920    0.6150 N   0  0  0  0  0  0  0  0  0  0  0  0
   -0.9280    2.7170    0.5580 C   0  0  0  0  0  0  0  0  0  0  0  0
   -2.3220    3.1450    0.3140 C   0  0  0  0  0  0  0  0  0  0  0  0
   -3.3120    2.2990    0.0860 C   0  0  0  0  0  0  0  0  0  0  0  0
   -3.1500    0.8460    0.0490 C   0  0  2  0  0  0  0  0  0  0  0  0
   -4.2060    0.1080    0.6480 N   0  0  0  0  0  0  0  0  0  0  0  0
   -4.4240    0.2960    2.0380 C   0  0  0  0  0  0  0  0  0  0  0  0
   -5.8740    0.0360    2.4400 C   0  0  0  0  0  0  0  0  0  0  0  0
   -6.3570   -1.1560    1.6600 C   0  0  1  0  0  0  0  0  0  0  0  0
   -7.1850   -0.7260    0.4860 C   0  0  1  0  0  0  0  0  0  0  0  0
   -7.6390   -1.9850   -0.2530 C   0  0  0  0  0  0  0  0  0  0  0  0
   -8.3750    0.1080    0.8800 C   0  0  0  0  0  0  0  0  0  0  0  0
   -5.2010   -2.0010    1.1890 C   0  0  0  0  0  0  0  0  0  0  0  0
   -4.3810   -1.2360    0.1790 C   0  0  0  0  0  0  0  0  0  0  0  0
   -1.8790    0.4330    0.7090 C   0  0  0  0  0  0  0  0  0  0  0  0
   -1.8120   -0.6740    1.3420 O   0  0  0  0  0  0  0  0  0  0  0  0
    3.3530    0.6120   -1.0450 N   0  0  0  0  0  0  0  0  0  0  0  0
  1  2  1  0
  2  3  2  3
  2  6  1  0
  3  4  1  0
  4  5  1  0
  6  7  2  3
  6 14  1  0
  7  8  1  0
  8  9  2  0
  8 13  1  0
  9 10  1  0
 10 11  1  0
 11 12  2  0
 11 13  1  0
 14 15  1  0
 14 36  1  0
 15 16  2  0
 16 17  1  0
 17 18  1  0
 17 36  2  0
 18 19  1  0
 19 20  1  0
 20 21  1  0
 20 34  1  0
 21 22  1  0
 22 23  2  0
 23 24  1  0
 24 25  1  1
 24 34  1  0
 25 26  1  0
 25 33  1  0
 26 27  1  0
 28 27  1  6
 28 29  1  0
 28 32  1  0
 29 30  1  1
 29 31  1  0
 32 33  1  0
 34 35  2  0
M  END
