
     RDKit          3D

 33 36  0  0  0  0  0  0  0  0999 V2000
   -4.3230   -1.6640    0.0440 C   0  0  0  0  0  0  0  0  0  0  0  0
   -3.1140   -0.9210    0.5510 C   0  0  2  0  0  0  0  0  0  0  0  0
   -3.5710    0.1650    1.3900 N   0  0  0  0  0  0  0  0  0  0  0  0
   -3.2590    0.2660    2.7650 C   0  0  0  0  0  0  0  0  0  0  0  0
   -2.5500   -0.6280    3.2880 O   0  0  0  0  0  0  0  0  0  0  0  0
   -3.7830    1.4250    3.5320 C   0  0  2  0  0  0  0  0  0  0  0  0
   -3.3880    1.3710    4.8510 F   0  0  0  0  0  0  0  0  0  0  0  0
   -5.1630    1.4780    3.5160 F   0  0  0  0  0  0  0  0  0  0  0  0
   -3.3280    2.5880    2.9410 F   0  0  0  0  0  0  0  0  0  0  0  0
   -2.2350   -0.4260   -0.5810 C   0  0  2  0  0  0  0  0  0  0  0  0
   -1.1390    0.2060   -0.0280 O   0  0  0  0  0  0  0  0  0  0  0  0
    0.1800   -0.1000   -0.0470 C   0  0  0  0  0  0  0  0  0  0  0  0
    1.0950    0.7110    0.5950 C   0  0  0  0  0  0  0  0  0  0  0  0
    2.4480    0.4360    0.6010 C   0  0  0  0  0  0  0  0  0  0  0  0
    2.9370   -0.6770   -0.0460 C   0  0  0  0  0  0  0  0  0  0  0  0
    2.0450   -1.5040   -0.6960 C   0  0  0  0  0  0  0  0  0  0  0  0
    2.7930   -2.5260   -1.2510 C   0  0  0  0  0  0  0  0  0  0  0  0
    4.0730   -2.3000   -0.9340 N   0  0  0  0  0  0  0  0  0  0  0  0
    4.1780   -1.2040   -0.2180 N   0  0  0  0  0  0  0  0  0  0  0  0
    5.3440   -0.6220    0.3120 C   0  0  0  0  0  0  0  0  0  0  0  0
    6.2080   -1.3740    1.0960 C   0  0  0  0  0  0  0  0  0  0  0  0
    7.3310   -0.8080    1.6050 C   0  0  0  0  0  0  0  0  0  0  0  0
    7.5990    0.5150    1.3330 C   0  0  0  0  0  0  0  0  0  0  0  0
    8.7460    1.0250    1.8740 F   0  0  0  0  0  0  0  0  0  0  0  0
    6.7530    1.2770    0.5560 C   0  0  0  0  0  0  0  0  0  0  0  0
    5.6120    0.7190    0.0340 C   0  0  0  0  0  0  0  0  0  0  0  0
    0.6770   -1.2080   -0.6910 C   0  0  0  0  0  0  0  0  0  0  0  0
   -2.9710    0.4050   -1.5660 C   0  0  0  0  0  0  0  0  0  0  0  0
   -3.4620   -0.1480   -2.7530 C   0  0  0  0  0  0  0  0  0  0  0  0
   -4.1430    0.5790   -3.6990 C   0  0  0  0  0  0  0  0  0  0  0  0
   -4.3730    1.9230   -3.5030 C   0  0  0  0  0  0  0  0  0  0  0  0
   -3.8900    2.4760   -2.3310 C   0  0  0  0  0  0  0  0  0  0  0  0
   -3.2110    1.7440   -1.3910 C   0  0  0  0  0  0  0  0  0  0  0  0
  2  1  1  6
  2  3  1  0
  2 10  1  0
  3  4  1  0
  4  5  2  0
  4  6  1  0
  6  7  1  1
  6  8  1  0
  6  9  1  0
 10 11  1  1
 10 28  1  0
 11 12  1  0
 12 13  2  0
 12 27  1  0
 13 14  1  0
 14 15  2  0
 15 16  1  0
 15 19  1  0
 16 17  1  0
 16 27  2  0
 17 18  2  0
 18 19  1  0
 19 20  1  0
 20 21  2  0
 20 26  1  0
 21 22  1  0
 22 23  2  0
 23 24  1  0
 23 25  1  0
 25 26  2  0
 28 29  2  0
 28 33  1  0
 29 30  1  0
 30 31  2  0
 31 32  1  0
 32 33  2  0
M  END
