
     RDKit          3D

 33 33  0  0  0  0  0  0  0  0999 V2000
   -2.9660    0.0070   -0.7570 C   0  0  0  0  0  0  0  0  0  0  0  0
   -2.3020   -0.7930    0.3440 C   0  0  1  0  0  0  0  0  0  0  0  0
   -2.0650    0.0850    1.5250 C   0  0  0  0  0  0  0  0  0  0  0  0
   -3.0900    0.6590    2.1530 O   0  0  0  0  0  0  0  0  0  0  0  0
   -3.9030    1.5770    1.6290 C   0  0  0  0  0  0  0  0  0  0  0  0
   -3.2920    2.7710    1.2210 O   0  0  0  0  0  0  0  0  0  0  0  0
   -4.3010    3.5840    0.7100 C   0  0  0  0  0  0  0  0  0  0  0  0
   -3.7510    4.9150    0.2320 C   0  0  0  0  0  0  0  0  0  0  0  0
   -2.8160    4.6210   -0.7710 O   0  0  0  0  0  0  0  0  0  0  0  0
   -3.2400   -1.8810    0.8080 C   0  0  0  0  0  0  0  0  0  0  0  0
   -3.0040   -2.6460    1.9640 N   0  0  0  0  0  0  0  0  0  0  0  0
   -4.2590   -2.0800    0.1070 O   0  0  0  0  0  0  0  0  0  0  0  0
   -1.0480   -1.3600   -0.2660 C   0  0  1  0  0  0  0  0  0  0  0  0
   -1.4740   -2.1440   -1.3690 O   0  0  0  0  0  0  0  0  0  0  0  0
   -0.2370   -0.2260   -0.8350 C   0  0  0  0  0  0  0  0  0  0  0  0
    0.9950   -0.1050    0.0020 C   0  0  2  0  0  0  0  0  0  0  0  0
    1.7260    1.1760   -0.3090 C   0  0  0  0  0  0  0  0  0  0  0  0
    1.2760    1.9770   -1.1670 O   0  0  0  0  0  0  0  0  0  0  0  0
    2.8960    1.5070    0.3280 O   0  0  0  0  0  0  0  0  0  0  0  0
    3.6440    2.6640    0.1120 C   0  0  0  0  0  0  0  0  0  0  0  0
    4.1410    2.8430   -1.2840 C   0  0  0  0  0  0  0  0  0  0  0  0
    4.8630    4.0360   -1.3320 O   0  0  0  0  0  0  0  0  0  0  0  0
    5.3510    4.2720   -2.5730 N   0  0  0  0  0  0  0  0  0  0  0  0
    1.8860   -1.2960   -0.2990 C   0  0  0  0  0  0  0  0  0  0  0  0
    1.1000   -2.5430   -0.0300 C   0  0  1  0  0  0  0  0  0  0  0  0
    1.0050   -3.2900   -1.3410 C   0  0  0  0  0  0  0  0  0  0  0  0
    0.3160   -4.4720   -1.2800 O   0  0  0  0  0  0  0  0  0  0  0  0
    1.8740   -3.4080    0.9480 C   0  0  2  0  0  0  0  0  0  0  0  0
    2.1360   -2.7410    2.2070 N   0  0  0  0  0  0  0  0  0  0  0  0
    3.0850   -3.9520    0.4370 N   0  0  0  0  0  0  0  0  0  0  0  0
    4.0180   -3.1110    0.0330 O   0  0  0  0  0  0  0  0  0  0  0  0
   -0.2480   -2.2740    0.5920 C   0  0  2  0  0  0  0  0  0  0  0  0
   -0.9010   -3.5070    0.6520 O   0  0  0  0  0  0  0  0  0  0  0  0
  2  1  1  6
  2  3  1  0
  2 10  1  0
  2 13  1  0
  3  4  1  0
  4  5  1  0
  5  6  1  0
  6  7  1  0
  7  8  1  0
  8  9  1  0
 10 11  1  0
 10 12  2  0
 13 14  1  6
 13 15  1  0
 13 32  1  0
 15 16  1  0
 16 17  1  6
 16 24  1  0
 17 18  2  0
 17 19  1  0
 19 20  1  0
 20 21  1  0
 21 22  1  0
 22 23  1  0
 24 25  1  0
 25 26  1  6
 25 28  1  0
 25 32  1  0
 26 27  1  0
 28 29  1  1
 28 30  1  0
 30 31  1  0
 32 33  1  6
M  CHG  1  23   1
M  END
