
     RDKit          3D

 27 31  0  0  0  0  0  0  0  0999 V2000
   -3.6060   -0.5700    3.2620 C   0  0  0  0  0  0  0  0  0  0  0  0
   -2.1210   -0.4710    2.9840 C   0  0  0  0  0  0  0  0  0  0  0  0
   -1.8800   -0.4830    1.5150 C   0  0  0  0  0  0  0  0  0  0  0  0
   -1.4330   -1.5200    0.7920 N   0  0  0  0  0  0  0  0  0  0  0  0
   -1.3290   -1.2110   -0.4860 N   0  0  0  0  0  0  0  0  0  0  0  0
   -0.9080   -1.9950   -1.6000 C   0  0  0  0  0  0  0  0  0  0  0  0
   -1.6830   -2.6910   -2.4630 N   0  0  0  0  0  0  0  0  0  0  0  0
   -0.9470   -3.2980   -3.3700 N   0  0  0  0  0  0  0  0  0  0  0  0
    0.3180   -3.0140   -3.1220 N   0  0  0  0  0  0  0  0  0  0  0  0
    0.3830   -2.2090   -2.0330 C   0  0  0  0  0  0  0  0  0  0  0  0
    1.5870   -1.6630   -1.4200 C   0  0  0  0  0  0  0  0  0  0  0  0
    2.7770   -1.9610   -1.9550 N   0  0  0  0  0  0  0  0  0  0  0  0
    3.9440   -1.5010   -1.4560 C   0  0  0  0  0  0  0  0  0  0  0  0
    3.9150   -0.6850   -0.3430 C   0  0  0  0  0  0  0  0  0  0  0  0
    5.0900   -0.1910    0.2010 C   0  0  0  0  0  0  0  0  0  0  0  0
    5.0650    0.6300    1.3190 C   0  0  0  0  0  0  0  0  0  0  0  0
    3.8310    0.9240    1.8530 C   0  0  0  0  0  0  0  0  0  0  0  0
    2.6460    0.4310    1.3120 C   0  0  0  0  0  0  0  0  0  0  0  0
    2.7030   -0.3780    0.2060 C   0  0  0  0  0  0  0  0  0  0  0  0
    1.5510   -0.8620   -0.3270 N   0  0  0  0  0  0  0  0  0  0  0  0
   -1.7250    0.0840   -0.6060 C   0  0  0  0  0  0  0  0  0  0  0  0
   -1.8320    0.9330   -1.6410 N   0  0  0  0  0  0  0  0  0  0  0  0
   -2.2620    2.1970   -1.4780 C   0  0  0  0  0  0  0  0  0  0  0  0
   -2.3740    3.1330   -2.6500 C   0  0  0  0  0  0  0  0  0  0  0  0
   -2.6130    2.6800   -0.2380 C   0  0  0  0  0  0  0  0  0  0  0  0
   -2.5240    1.8530    0.8640 C   0  0  0  0  0  0  0  0  0  0  0  0
   -2.0780    0.5620    0.6560 C   0  0  0  0  0  0  0  0  0  0  0  0
  1  2  1  0
  2  3  1  0
  3  4  2  0
  3 27  1  0
  4  5  1  0
  5  6  1  0
  5 21  1  0
  6  7  1  0
  6 10  2  0
  7  8  2  0
  8  9  1  0
  9 10  1  0
 10 11  1  0
 11 12  2  0
 11 20  1  0
 12 13  1  0
 13 14  2  0
 14 15  1  0
 14 19  1  0
 15 16  2  0
 16 17  1  0
 17 18  2  0
 18 19  1  0
 19 20  2  0
 21 22  2  0
 21 27  1  0
 22 23  1  0
 23 24  1  0
 23 25  2  0
 25 26  1  0
 26 27  2  0
M  END
