
     RDKit          3D

 27 31  0  0  0  0  0  0  0  0999 V2000
    0.3820   -3.0590    2.7730 C   0  0  0  0  0  0  0  0  0  0  0  0
    0.7240   -2.7640    1.3290 C   0  0  0  0  0  0  0  0  0  0  0  0
    0.3880   -1.3910    0.9840 N   0  0  0  0  0  0  0  0  0  0  0  0
    1.1460   -0.2940    1.0670 C   0  0  0  0  0  0  0  0  0  0  0  0
    2.5750   -0.2390    1.5430 C   0  0  0  0  0  0  0  0  0  0  0  0
    3.5250   -0.2980    0.4810 N   0  0  0  0  0  0  0  0  0  0  0  0
    4.0980   -1.3840   -0.0460 C   0  0  0  0  0  0  0  0  0  0  0  0
    4.9510   -1.0600   -1.0350 N   0  0  0  0  0  0  0  0  0  0  0  0
    4.9230    0.2690   -1.1420 C   0  0  0  0  0  0  0  0  0  0  0  0
    5.6060    1.1220   -1.9950 C   0  0  0  0  0  0  0  0  0  0  0  0
    5.3600    2.4350   -1.8570 N   0  0  0  0  0  0  0  0  0  0  0  0
    4.4950    2.9040   -0.9390 C   0  0  0  0  0  0  0  0  0  0  0  0
    3.8270    2.0890   -0.1050 N   0  0  0  0  0  0  0  0  0  0  0  0
    4.0360    0.7700   -0.2020 C   0  0  0  0  0  0  0  0  0  0  0  0
    0.4010    0.7360    0.6450 N   0  0  0  0  0  0  0  0  0  0  0  0
   -0.8180    0.3150    0.2940 C   0  0  0  0  0  0  0  0  0  0  0  0
   -1.9540    0.9470   -0.1980 C   0  0  0  0  0  0  0  0  0  0  0  0
   -1.9150    2.3000   -0.4030 C   0  0  0  0  0  0  0  0  0  0  0  0
   -3.0480    2.9160   -0.8920 C   0  0  0  0  0  0  0  0  0  0  0  0
   -4.2200    2.2190   -1.1830 C   0  0  0  0  0  0  0  0  0  0  0  0
   -5.3590    2.8980   -1.6840 N   0  0  0  0  0  0  0  0  0  0  0  0
   -4.2020    0.8580   -0.9570 C   0  0  0  0  0  0  0  0  0  0  0  0
   -3.0740    0.2200   -0.4660 C   0  0  0  0  0  0  0  0  0  0  0  0
   -3.0610   -1.1500   -0.2410 C   0  0  0  0  0  0  0  0  0  0  0  0
   -4.3030   -1.8980   -0.5470 C   0  0  0  0  0  0  0  0  0  0  0  0
   -1.9520   -1.7320    0.2340 N   0  0  0  0  0  0  0  0  0  0  0  0
   -0.8080   -1.0420    0.5160 C   0  0  0  0  0  0  0  0  0  0  0  0
  1  2  1  0
  2  3  1  0
  3  4  1  0
  3 27  1  0
  4  5  1  0
  4 15  2  0
  5  6  1  0
  6  7  1  0
  6 14  1  0
  7  8  2  0
  8  9  1  0
  9 10  2  0
  9 14  1  0
 10 11  1  0
 11 12  2  0
 12 13  1  0
 13 14  2  0
 15 16  1  0
 16 17  2  0
 16 27  1  0
 17 18  1  0
 17 23  1  0
 18 19  2  0
 19 20  1  0
 20 21  1  0
 20 22  2  0
 22 23  1  0
 23 24  2  0
 24 25  1  0
 24 26  1  0
 26 27  2  0
M  END
