
     RDKit          3D

 27 31  0  0  0  0  0  0  0  0999 V2000
    5.1050   -1.2430   -1.0360 C   0  0  0  0  0  0  0  0  0  0  0  0
    3.8780   -1.6270   -0.2970 C   0  0  0  0  0  0  0  0  0  0  0  0
    2.7020   -0.8970   -0.4000 C   0  0  0  0  0  0  0  0  0  0  0  0
    1.6190   -1.2870    0.3270 C   0  0  0  0  0  0  0  0  0  0  0  0
    1.6880   -2.4210    1.1530 C   0  0  0  0  0  0  0  0  0  0  0  0
    0.5950   -2.9220    1.8230 C   0  0  0  0  0  0  0  0  0  0  0  0
   -0.5970   -2.2770    1.6700 C   0  0  0  0  0  0  0  0  0  0  0  0
   -0.7310   -1.1630    0.8890 C   0  0  0  0  0  0  0  0  0  0  0  0
   -1.9360   -0.5960    0.7570 N   0  0  0  0  0  0  0  0  0  0  0  0
   -2.0490    0.4790   -0.0320 C   0  0  0  0  0  0  0  0  0  0  0  0
   -3.4090    1.1110   -0.1360 C   0  0  0  0  0  0  0  0  0  0  0  0
   -4.3900    0.0750   -0.3180 N   0  0  0  0  0  0  0  0  0  0  0  0
   -4.8190   -0.4380   -1.4660 C   0  0  0  0  0  0  0  0  0  0  0  0
   -5.7550   -1.3990   -1.1670 N   0  0  0  0  0  0  0  0  0  0  0  0
   -5.8770   -1.4490    0.1650 C   0  0  0  0  0  0  0  0  0  0  0  0
   -5.0340   -0.5410    0.6680 N   0  0  0  0  0  0  0  0  0  0  0  0
   -1.0060    0.9940   -0.6700 N   0  0  0  0  0  0  0  0  0  0  0  0
    0.2800    0.4540   -0.5710 C   0  0  0  0  0  0  0  0  0  0  0  0
    1.3810    1.3440   -0.9580 C   0  0  0  0  0  0  0  0  0  0  0  0
    0.9880    2.6780   -0.2580 C   0  0  0  0  0  0  0  0  0  0  0  0
    1.2630    3.1570    0.9610 C   0  0  0  0  0  0  0  0  0  0  0  0
    0.6690    4.3840    1.0550 N   0  0  0  0  0  0  0  0  0  0  0  0
    0.0360    4.6760   -0.0680 N   0  0  0  0  0  0  0  0  0  0  0  0
    0.2270    3.6210   -0.8960 C   0  0  0  0  0  0  0  0  0  0  0  0
    0.3830   -0.6450    0.2100 C   0  0  0  0  0  0  0  0  0  0  0  0
    2.8980   -3.1180    1.2130 C   0  0  0  0  0  0  0  0  0  0  0  0
    3.9510   -2.7090    0.4970 N   0  0  0  0  0  0  0  0  0  0  0  0
  1  2  1  0
  2  3  2  0
  2 27  1  0
  3  4  1  0
  4  5  2  0
  4 25  1  0
  5  6  1  0
  5 26  1  0
  6  7  2  0
  7  8  1  0
  8  9  2  0
  8 25  1  0
  9 10  1  0
 10 11  1  0
 10 17  2  0
 11 12  1  0
 12 13  1  0
 12 16  1  0
 13 14  2  0
 14 15  1  0
 15 16  2  0
 17 18  1  0
 18 19  1  0
 18 25  2  0
 19 20  1  0
 20 21  1  0
 20 24  2  0
 21 22  2  0
 22 23  1  0
 23 24  1  0
 26 27  2  0
M  END
