
     RDKit          3D

 20 19  0  0  0  0  0  0  0  0999 V2000
    3.1750   -2.0470   -1.1170 C   0  0  0  0  0  0  0  0  0  0  0  0
    3.6270   -1.0560   -0.0980 C   0  0  0  0  0  0  0  0  0  0  0  0
    5.0780   -0.9410    0.2050 C   0  0  0  0  0  0  0  0  0  0  0  0
    2.6870   -0.3180    0.4920 C   0  0  0  0  0  0  0  0  0  0  0  0
    1.3170   -0.5210    0.1160 C   0  0  0  0  0  0  0  0  0  0  0  0
    0.1940   -0.0080    0.4620 C   0  0  0  0  0  0  0  0  0  0  0  0
   -1.0680   -0.5420   -0.2200 C   0  0  0  0  0  0  0  0  0  0  0  0
   -1.7640    0.4910   -0.9260 N   0  0  0  0  0  0  0  0  0  0  0  0
   -3.2040    0.4140   -0.6690 C   0  0  2  0  0  0  0  0  0  0  0  0
   -3.6470   -1.0070   -0.4310 C   0  0  0  0  0  0  0  0  0  0  0  0
   -3.9370    0.9410   -1.8890 C   0  0  0  0  0  0  0  0  0  0  0  0
   -3.4840    1.3100    0.5190 C   0  0  0  0  0  0  0  0  0  0  0  0
   -4.8330    1.3160    0.8560 O   0  0  0  0  0  0  0  0  0  0  0  0
   -0.0790    0.9890    1.3920 N   0  0  0  0  0  0  0  0  0  0  0  0
   -0.1530    2.2180    1.0990 O   0  0  0  0  0  0  0  0  0  0  0  0
   -0.3420    0.6840    2.7290 O   0  0  0  0  0  0  0  0  0  0  0  0
    3.1480    0.6250    1.4690 C   0  0  0  0  0  0  0  0  0  0  0  0
    2.4500    1.4160    2.1440 O   0  0  0  0  0  0  0  0  0  0  0  0
    4.5300    0.7610    1.7840 O   0  0  0  0  0  0  0  0  0  0  0  0
    4.9660    1.6370    2.6920 O   0  0  0  0  0  0  0  0  0  0  0  0
  1  2  1  0
  2  3  1  0
  2  4  2  3
  4  5  1  0
  4 17  1  0
  5  6  2  3
  6  7  1  0
  6 14  1  0
  7  8  1  0
  8  9  1  0
  9 10  1  1
  9 11  1  0
  9 12  1  0
 12 13  1  0
 14 15  2  0
 14 16  1  0
 17 18  2  0
 17 19  1  0
 19 20  1  0
M  CHG  3   8   1  14   1  16  -1
M  END
