
     RDKit          3D

 21 20  0  0  0  0  0  0  0  0999 V2000
   -4.6250   -3.0220   -1.0210 C   0  0  0  0  0  0  0  0  0  0  0  0
   -5.1390   -1.9110   -1.4510 C   0  0  0  0  0  0  0  0  0  0  0  0
   -5.0190   -0.6680   -0.6450 C   0  0  0  0  0  0  0  0  0  0  0  0
   -5.5770    0.3980   -1.1460 C   0  0  0  0  0  0  0  0  0  0  0  0
   -5.5880    1.7310   -0.5280 C   0  0  0  0  0  0  0  0  0  0  0  0
   -4.7650    2.9240   -1.6010 Cl  0  0  0  0  0  0  0  0  0  0  0  0
   -4.3510   -0.7530    0.5120 O   0  0  0  0  0  0  0  0  0  0  0  0
   -3.2260   -0.1990    1.0560 C   0  0  0  0  0  0  0  0  0  0  0  0
   -2.0340   -0.4870    0.2240 C   0  0  0  0  0  0  0  0  0  0  0  0
   -2.1540   -1.1090   -0.8440 O   0  0  0  0  0  0  0  0  0  0  0  0
   -0.7330   -0.0920    0.5750 O   0  0  0  0  0  0  0  0  0  0  0  0
    0.3260   -0.4000   -0.2490 N   0  0  0  0  0  0  0  0  0  0  0  0
    1.6230    0.0440    0.0750 C   0  0  0  0  0  0  0  0  0  0  0  0
    1.8910    0.7300    1.1040 O   0  0  0  0  0  0  0  0  0  0  0  0
    2.7580   -0.2980   -0.8210 C   0  0  0  0  0  0  0  0  0  0  0  0
    3.9990    0.1980   -0.3900 O   0  0  0  0  0  0  0  0  0  0  0  0
    4.5820   -0.1310    0.8430 C   0  0  0  0  0  0  0  0  0  0  0  0
    3.9630   -0.9080    1.6090 O   0  0  0  0  0  0  0  0  0  0  0  0
    5.8780    0.4240    1.2080 C   0  0  0  0  0  0  0  0  0  0  0  0
    6.5460    1.2430    0.4040 C   0  0  0  0  0  0  0  0  0  0  0  0
    7.8150    1.7820    0.7690 N   0  0  0  0  0  0  0  0  0  0  0  0
  1  2  2  0
  2  3  1  0
  3  4  2  3
  3  7  1  0
  4  5  1  0
  5  6  1  0
  7  8  1  0
  8  9  1  0
  9 10  2  0
  9 11  1  0
 11 12  1  0
 12 13  1  0
 13 14  2  0
 13 15  1  0
 15 16  1  0
 16 17  1  0
 17 18  2  0
 17 19  1  0
 19 20  2  3
 20 21  1  0
M  CHG  1  21   1
M  END
