
     RDKit          3D

 22 23  0  0  0  0  0  0  0  0999 V2000
    4.9620    0.1300   -0.1340 C   0  0  0  0  0  0  0  0  0  0  0  0
    3.8770    0.4600    0.8680 C   0  0  0  0  0  0  0  0  0  0  0  0
    2.9120    1.4900    0.3200 C   0  0  0  0  0  0  0  0  0  0  0  0
    2.0840    0.9410   -1.1760 S   0  0  0  0  0  0  0  0  0  0  0  0
    0.9910   -0.4360   -0.8920 C   0  0  0  0  0  0  0  0  0  0  0  0
    1.4380   -1.6920   -0.9910 N   0  0  0  0  0  0  0  0  0  0  0  0
    0.6030   -2.7520   -0.7750 C   0  0  0  0  0  0  0  0  0  0  0  0
    1.0550   -3.9280   -0.8750 O   0  0  0  0  0  0  0  0  0  0  0  0
   -0.6990   -2.5690   -0.4550 C   0  0  0  0  0  0  0  0  0  0  0  0
   -1.1810   -1.2320   -0.3500 C   0  0  0  0  0  0  0  0  0  0  0  0
   -0.3560   -0.1850   -0.5600 C   0  0  0  0  0  0  0  0  0  0  0  0
   -0.7900    1.1840   -0.4850 C   0  0  0  0  0  0  0  0  0  0  0  0
   -0.2430    1.9640   -1.3570 O   0  0  0  0  0  0  0  0  0  0  0  0
   -1.6980    1.7790    0.3890 N   0  0  0  0  0  0  0  0  0  0  0  0
   -2.0930    3.1610    0.3810 C   0  0  0  0  0  0  0  0  0  0  0  0
   -2.7600    3.6500   -0.8490 C   0  0  1  0  0  0  0  0  0  0  0  0
   -3.0550    5.0070   -0.6280 F   0  0  0  0  0  0  0  0  0  0  0  0
   -2.0520    3.6100   -2.0020 F   0  0  0  0  0  0  0  0  0  0  0  0
   -2.6400   -1.2200   -0.0800 C   0  0  0  0  0  0  0  0  0  0  0  0
   -2.7970   -2.1580    1.1230 C   0  0  0  0  0  0  0  0  0  0  0  0
   -2.6170   -3.4460    0.7020 O   0  0  0  0  0  0  0  0  0  0  0  0
   -1.6170   -3.6900   -0.1980 C   0  0  0  0  0  0  0  0  0  0  0  0
  1  2  1  0
  2  3  1  0
  3  4  1  0
  4  5  1  0
  5  6  1  0
  5 11  2  0
  6  7  1  0
  7  8  2  0
  7  9  1  0
  9 10  2  0
  9 22  1  0
 10 11  1  0
 10 19  1  0
 11 12  1  0
 12 13  2  0
 12 14  1  0
 14 15  1  0
 15 16  1  0
 16 17  1  1
 16 18  1  0
 19 20  1  0
 20 21  1  0
 21 22  1  0
M  END
