
     RDKit          3D

 21 22  0  0  0  0  0  0  0  0999 V2000
    0.8280    0.8220   -1.6910 C   0  0  0  0  0  0  0  0  0  0  0  0
    2.0310    0.1920   -1.0660 C   0  0  0  0  0  0  0  0  0  0  0  0
    3.2830    0.5260   -1.4890 C   0  0  0  0  0  0  0  0  0  0  0  0
    4.4380   -0.0170   -0.9570 C   0  0  0  0  0  0  0  0  0  0  0  0
    6.0730    0.4290   -1.5200 S   0  0  0  0  0  0  0  0  0  0  0  0
    4.2900   -0.9420    0.0530 C   0  0  0  0  0  0  0  0  0  0  0  0
    3.0010   -1.2940    0.4970 C   0  0  0  0  0  0  0  0  0  0  0  0
    1.8620   -0.7530   -0.0340 C   0  0  0  0  0  0  0  0  0  0  0  0
    0.5650   -1.0690    0.3730 N   0  0  0  0  0  0  0  0  0  0  0  0
    0.2080   -1.9750    1.3710 C   0  0  0  0  0  0  0  0  0  0  0  0
    1.0720   -2.6180    2.0130 O   0  0  0  0  0  0  0  0  0  0  0  0
   -1.2160   -2.2520    1.7490 C   0  0  0  0  0  0  0  0  0  0  0  0
   -2.1480   -1.4460    1.1100 O   0  0  0  0  0  0  0  0  0  0  0  0
   -2.2250   -0.0680    1.2560 C   0  0  0  0  0  0  0  0  0  0  0  0
   -1.4210    0.5300    2.0120 O   0  0  0  0  0  0  0  0  0  0  0  0
   -3.2360    0.6820    0.5330 C   0  0  0  0  0  0  0  0  0  0  0  0
   -3.4020    2.0460    0.6040 C   0  0  0  0  0  0  0  0  0  0  0  0
   -4.4530    2.3900   -0.2130 C   0  0  0  0  0  0  0  0  0  0  0  0
   -4.8870    3.6550   -0.3800 F   0  0  0  0  0  0  0  0  0  0  0  0
   -4.9190    1.2310   -0.7760 C   0  0  0  0  0  0  0  0  0  0  0  0
   -4.1680    0.2050   -0.3110 N   0  0  0  0  0  0  0  0  0  0  0  0
  1  2  1  0
  2  3  2  0
  2  8  1  0
  3  4  1  0
  4  5  1  0
  4  6  2  0
  6  7  1  0
  7  8  2  0
  8  9  1  0
  9 10  1  0
 10 11  2  0
 10 12  1  0
 12 13  1  0
 13 14  1  0
 14 15  2  0
 14 16  1  0
 16 17  2  0
 16 21  1  0
 17 18  1  0
 18 19  1  0
 18 20  2  0
 20 21  1  0
M  END
