
     RDKit          3D

 28 30  0  0  0  0  0  0  0  0999 V2000
    3.0280    0.5240    0.8820 C   0  0  0  0  0  0  0  0  0  0  0  0
    4.1540   -0.3640    0.8600 N   0  0  0  0  0  0  0  0  0  0  0  0
    4.1100   -1.7330    1.1420 C   0  0  0  0  0  0  0  0  0  0  0  0
    5.2520   -2.3600    1.1460 O   0  0  0  0  0  0  0  0  0  0  0  0
    2.9470   -2.5680    1.4380 C   0  0  0  0  0  0  0  0  0  0  0  0
    1.7180   -2.0080    1.0860 O   0  0  0  0  0  0  0  0  0  0  0  0
    1.4340   -1.7830   -0.2870 C   0  0  0  0  0  0  0  0  0  0  0  0
    2.3270   -2.1130   -1.0750 O   0  0  0  0  0  0  0  0  0  0  0  0
    0.1720   -1.2060   -0.6830 C   0  0  0  0  0  0  0  0  0  0  0  0
   -0.7690   -0.8700    0.3140 C   0  0  0  0  0  0  0  0  0  0  0  0
   -1.9920   -0.3180    0.0440 C   0  0  0  0  0  0  0  0  0  0  0  0
   -2.8980    0.0010    1.0550 O   0  0  0  0  0  0  0  0  0  0  0  0
   -4.1180    0.5580    0.6990 C   0  0  0  0  0  0  0  0  0  0  0  0
   -4.2160    1.9300    0.6120 C   0  0  0  0  0  0  0  0  0  0  0  0
   -3.1130    2.7040    0.8770 O   0  0  0  0  0  0  0  0  0  0  0  0
   -5.4130    2.5540    0.2600 C   0  0  0  0  0  0  0  0  0  0  0  0
   -6.5170    1.7710   -0.0040 C   0  0  0  0  0  0  0  0  0  0  0  0
   -6.4430    0.3790    0.0780 C   0  0  0  0  0  0  0  0  0  0  0  0
   -7.8730   -0.6110   -0.2660 S   0  0  0  0  0  0  0  0  0  0  0  0
   -5.2400   -0.2000    0.4290 C   0  0  0  0  0  0  0  0  0  0  0  0
   -5.1570   -1.9410    0.5290 Cl  0  0  0  0  0  0  0  0  0  0  0  0
   -2.2790   -0.0960   -1.2840 C   0  0  0  0  0  0  0  0  0  0  0  0
   -1.4250   -0.3920   -2.2990 C   0  0  0  0  0  0  0  0  0  0  0  0
   -0.1720   -0.9610   -1.9820 C   0  0  0  0  0  0  0  0  0  0  0  0
    0.6640   -1.2470   -3.0230 O   0  0  0  0  0  0  0  0  0  0  0  0
    5.4450    0.2340    0.4890 C   0  0  2  0  0  0  0  0  0  0  0  0
    5.7640    1.6430    0.6640 C   0  0  0  0  0  0  0  0  0  0  0  0
    5.3320    1.2110   -0.6920 C   0  0  0  0  0  0  0  0  0  0  0  0
  1  2  1  0
  2  3  1  0
 26  2  1  1
  3  4  2  0
  3  5  1  0
  5  6  1  0
  6  7  1  0
  7  8  2  0
  7  9  1  0
  9 10  2  0
  9 24  1  0
 10 11  1  0
 11 12  1  0
 11 22  2  0
 12 13  1  0
 13 14  2  0
 13 20  1  0
 14 15  1  0
 14 16  1  0
 16 17  2  0
 17 18  1  0
 18 19  1  0
 18 20  2  0
 20 21  1  0
 22 23  1  0
 23 24  2  0
 24 25  1  0
 26 27  1  0
 26 28  1  0
 27 28  1  0
M  END
