
     RDKit          3D

 28 30  0  0  0  0  0  0  0  0999 V2000
    8.4880    0.2150    1.2650 C   0  0  0  0  0  0  0  0  0  0  0  0
    7.3180    0.5220    0.5220 O   0  0  0  0  0  0  0  0  0  0  0  0
    7.2850    1.4920   -0.4630 C   0  0  0  0  0  0  0  0  0  0  0  0
    8.3210    2.1360   -0.7260 O   0  0  0  0  0  0  0  0  0  0  0  0
    6.0520    1.7680   -1.1970 C   0  0  0  0  0  0  0  0  0  0  0  0
    4.9760    0.9500   -0.7740 O   0  0  0  0  0  0  0  0  0  0  0  0
    3.7140    1.0340   -1.3250 C   0  0  0  0  0  0  0  0  0  0  0  0
    3.5360    1.8790   -2.2400 O   0  0  0  0  0  0  0  0  0  0  0  0
    2.6060    0.2100   -0.9090 C   0  0  0  0  0  0  0  0  0  0  0  0
    2.4970   -0.7690    0.0340 C   0  0  0  0  0  0  0  0  0  0  0  0
    1.2890   -1.3650    0.1850 C   0  0  0  0  0  0  0  0  0  0  0  0
    0.7660   -2.3570    0.9870 N   0  0  0  0  0  0  0  0  0  0  0  0
   -0.5340   -2.5440    0.6930 C   0  0  0  0  0  0  0  0  0  0  0  0
   -1.4650   -3.5130    1.3210 C   0  0  0  0  0  0  0  0  0  0  0  0
   -0.9050   -1.6800   -0.3130 C   0  0  0  0  0  0  0  0  0  0  0  0
   -2.1680   -1.4550   -1.0070 C   0  0  2  0  0  0  0  0  0  0  0  0
   -2.1650   -2.1760   -2.6550 Cl  0  0  0  0  0  0  0  0  0  0  0  0
   -2.4860   -0.1090   -1.1550 O   0  0  0  0  0  0  0  0  0  0  0  0
   -3.5980    0.5450   -0.7190 C   0  0  0  0  0  0  0  0  0  0  0  0
   -3.6740    1.9140   -1.0010 C   0  0  0  0  0  0  0  0  0  0  0  0
   -4.7790    2.6350   -0.5850 C   0  0  0  0  0  0  0  0  0  0  0  0
   -5.8210    2.0570    0.1040 C   0  0  0  0  0  0  0  0  0  0  0  0
   -6.9170    2.8450    0.5000 O   0  0  0  0  0  0  0  0  0  0  0  0
   -5.7360    0.7150    0.3750 C   0  0  0  0  0  0  0  0  0  0  0  0
   -6.8520    0.0690    1.1180 C   0  0  0  0  0  0  0  0  0  0  0  0
   -4.6390   -0.0060   -0.0380 C   0  0  0  0  0  0  0  0  0  0  0  0
    0.2730   -0.9790   -0.5790 C   0  0  0  0  0  0  0  0  0  0  0  0
    0.9470    0.2740   -1.5890 S   0  0  0  0  0  0  0  0  0  0  0  0
  1  2  1  0
  2  3  1  0
  3  4  2  0
  3  5  1  0
  5  6  1  0
  6  7  1  0
  7  8  2  0
  7  9  1  0
  9 10  2  0
  9 28  1  0
 10 11  1  0
 11 12  1  0
 11 27  2  0
 12 13  1  0
 13 14  1  0
 13 15  2  0
 15 16  1  0
 15 27  1  0
 16 17  1  6
 16 18  1  0
 18 19  1  0
 19 20  2  0
 19 26  1  0
 20 21  1  0
 21 22  2  0
 22 23  1  0
 22 24  1  0
 24 25  1  0
 24 26  2  0
 27 28  1  0
M  END
