
     RDKit          3D

 20 19  0  0  0  0  0  0  0  0999 V2000
    4.9210    0.1310    1.2950 O   0  0  0  0  0  0  0  0  0  0  0  0
    5.0360    0.2450    0.0450 C   0  0  0  0  0  0  0  0  0  0  0  0
    5.4890    1.4600   -0.4630 O   0  0  0  0  0  0  0  0  0  0  0  0
    4.7090   -0.8320   -0.7340 O   0  0  0  0  0  0  0  0  0  0  0  0
    4.2570   -2.0310   -0.1430 C   0  0  0  0  0  0  0  0  0  0  0  0
    3.0700   -1.8370    0.6110 O   0  0  0  0  0  0  0  0  0  0  0  0
    1.8900   -1.3660    0.0600 C   0  0  0  0  0  0  0  0  0  0  0  0
    1.9030   -1.1050   -1.1740 O   0  0  0  0  0  0  0  0  0  0  0  0
    0.7250   -1.1740    0.7960 O   0  0  0  0  0  0  0  0  0  0  0  0
   -0.3430   -0.7160    0.1460 O   0  0  0  0  0  0  0  0  0  0  0  0
   -1.2730   -0.1250    0.9860 C   0  0  0  0  0  0  0  0  0  0  0  0
   -2.4240    0.3430    0.0900 C   0  0  1  0  0  0  0  0  0  0  0  0
   -1.8090    1.5500   -1.1520 P   0  0  0  0  0  0  0  0  0  0  0  0
   -1.1990    2.9990   -0.4550 O   0  0  0  0  0  0  0  0  0  0  0  0
   -2.9730   -0.8270   -0.6100 C   0  0  0  0  0  0  0  0  0  0  0  0
   -2.9870   -0.9180   -1.8730 O   0  0  0  0  0  0  0  0  0  0  0  0
   -3.5060   -1.8960    0.0980 O   0  0  0  0  0  0  0  0  0  0  0  0
   -3.6880    1.1690    1.1580 P   0  0  0  0  0  0  0  0  0  0  0  0
   -5.2680    0.6160    0.7420 O   0  0  0  0  0  0  0  0  0  0  0  0
   -3.5630    2.8830    1.0610 O   0  0  0  0  0  0  0  0  0  0  0  0
  1  2  2  0
  2  3  1  0
  2  4  1  0
  4  5  1  0
  5  6  1  0
  6  7  1  0
  7  8  2  0
  7  9  1  0
  9 10  1  0
 10 11  1  0
 12 11  1  1
 12 13  1  0
 12 15  1  0
 12 18  1  0
 13 14  1  0
 15 16  2  0
 15 17  1  0
 18 19  1  0
 18 20  1  0
M  END
