
     RDKit          3D

 20 19  0  0  0  0  0  0  0  0999 V2000
    2.6890    0.8500    2.0570 O   0  0  0  0  0  0  0  0  0  0  0  0
    3.4210    1.2030    1.1070 C   0  0  0  0  0  0  0  0  0  0  0  0
    3.8100    2.5400    0.9360 O   0  0  0  0  0  0  0  0  0  0  0  0
    3.3910    3.4730    1.8100 O   0  0  0  0  0  0  0  0  0  0  0  0
    3.8640    0.2930    0.2030 O   0  0  0  0  0  0  0  0  0  0  0  0
    3.5880   -1.0640    0.1990 C   0  0  0  0  0  0  0  0  0  0  0  0
    2.0850   -1.2840    0.0480 C   0  0  0  0  0  0  0  0  0  0  0  0
    1.6120   -0.7470   -1.1110 O   0  0  0  0  0  0  0  0  0  0  0  0
    0.3880   -0.8770   -1.3300 O   0  0  0  0  0  0  0  0  0  0  0  0
   -0.4680   -1.4710   -0.4680 C   0  0  1  0  0  0  0  0  0  0  0  0
   -1.6000   -0.5580   -0.1920 C   0  0  0  0  0  0  0  0  0  0  0  0
   -2.5090   -0.9050    0.5790 O   0  0  0  0  0  0  0  0  0  0  0  0
   -1.6320    0.6690   -0.7960 O   0  0  0  0  0  0  0  0  0  0  0  0
   -2.6730    1.6120   -0.5950 C   0  0  0  0  0  0  0  0  0  0  0  0
   -2.6940    2.0050    1.2260 P   0  0  0  0  0  0  0  0  0  0  0  0
   -3.9040    1.1130    2.0580 O   0  0  0  0  0  0  0  0  0  0  0  0
   -2.8130    3.7140    1.5060 O   0  0  0  0  0  0  0  0  0  0  0  0
   -1.2440   -2.9800   -1.2660 P   0  0  0  0  0  0  0  0  0  0  0  0
   -1.5120   -2.7310   -2.9520 O   0  0  0  0  0  0  0  0  0  0  0  0
   -2.6470   -3.4690   -0.4170 O   0  0  0  0  0  0  0  0  0  0  0  0
  1  2  2  0
  2  3  1  0
  2  5  1  0
  3  4  1  0
  5  6  1  0
  6  7  1  0
  7  8  1  0
  8  9  1  0
 10  9  1  6
 10 11  1  0
 10 18  1  0
 11 12  2  0
 11 13  1  0
 13 14  1  0
 14 15  1  0
 15 16  1  0
 15 17  1  0
 18 19  1  0
 18 20  1  0
M  END
