
     RDKit          3D

 20 19  0  0  0  0  0  0  0  0999 V2000
   -2.3900    2.3140    1.4640 O   0  0  0  0  0  0  0  0  0  0  0  0
   -1.7310    1.3480    1.8660 C   0  0  0  0  0  0  0  0  0  0  0  0
   -2.0180    0.8990    3.2360 O   0  0  0  0  0  0  0  0  0  0  0  0
   -0.8230    0.7520    1.1240 O   0  0  0  0  0  0  0  0  0  0  0  0
   -0.3640    0.8030   -0.1560 C   0  0  1  0  0  0  0  0  0  0  0  0
    1.1370    0.1960   -0.0150 C   0  0  0  0  0  0  0  0  0  0  0  0
    1.3570   -0.3270   -1.3930 O   0  0  0  0  0  0  0  0  0  0  0  0
    2.6020   -1.0650   -1.0210 C   0  0  0  0  0  0  0  0  0  0  0  0
    3.6180    0.0200   -0.8140 C   0  0  0  0  0  0  0  0  0  0  0  0
    4.5570   -0.6270    0.1980 O   0  0  0  0  0  0  0  0  0  0  0  0
    4.3560    0.3730    1.1320 O   0  0  0  0  0  0  0  0  0  0  0  0
   -0.8750   -0.5900   -0.8200 C   0  0  0  0  0  0  0  0  0  0  0  0
   -2.1030   -0.8860   -0.2160 O   0  0  0  0  0  0  0  0  0  0  0  0
   -1.9920   -2.6640   -0.1210 P   0  0  0  0  0  0  0  0  0  0  0  0
   -1.8340   -2.9130    1.6170 O   0  0  0  0  0  0  0  0  0  0  0  0
   -3.1490   -3.6250   -0.7350 O   0  0  0  0  0  0  0  0  0  0  0  0
   -0.4140    1.7870   -0.9950 O   0  0  0  0  0  0  0  0  0  0  0  0
   -1.9560    2.4570   -1.2910 P   0  0  0  0  0  0  0  0  0  0  0  0
   -2.0830    4.1220   -1.1400 O   0  0  0  0  0  0  0  0  0  0  0  0
   -3.3270    1.5720   -1.1680 O   0  0  0  0  0  0  0  0  0  0  0  0
  1  2  2  0
  2  3  1  0
  2  4  1  0
  4  5  1  0
  5  6  1  1
  5 12  1  0
  5 17  1  0
  6  7  1  0
  7  8  1  0
  8  9  1  0
  9 10  1  0
 10 11  1  0
 12 13  1  0
 13 14  1  0
 14 15  1  0
 14 16  1  0
 17 18  1  0
 18 19  1  0
 18 20  1  0
M  END
