
     RDKit          3D

 19 18  0  0  0  0  0  0  0  0999 V2000
   -5.3050    1.2940    1.0630 C   0  0  0  0  0  0  0  0  0  0  0  0
   -3.9090    1.1480    0.9540 O   0  0  0  0  0  0  0  0  0  0  0  0
   -3.6040    1.2710   -0.3920 C   0  0  0  0  0  0  0  0  0  0  0  0
   -2.2270    1.1450   -0.6550 O   0  0  0  0  0  0  0  0  0  0  0  0
   -1.4930    0.0120   -0.3500 C   0  0  0  0  0  0  0  0  0  0  0  0
   -2.1130   -0.9400    0.1890 O   0  0  0  0  0  0  0  0  0  0  0  0
   -0.0390   -0.1230   -0.6270 C   0  0  1  0  0  0  0  0  0  0  0  0
    0.4790    1.0240   -1.2250 O   0  0  0  0  0  0  0  0  0  0  0  0
    0.6950   -0.3150    0.5550 O   0  0  0  0  0  0  0  0  0  0  0  0
    2.0250   -0.4700    0.1710 C   0  0  0  0  0  0  0  0  0  0  0  0
    2.4960    0.6560   -0.5080 O   0  0  0  0  0  0  0  0  0  0  0  0
    3.8220    0.4110   -0.8490 C   0  0  0  0  0  0  0  0  0  0  0  0
    4.8680    0.1100    0.6720 P   0  0  0  0  0  0  0  0  0  0  0  0
    6.4970    0.5530    0.3010 O   0  0  0  0  0  0  0  0  0  0  0  0
    4.3060    1.1820    1.9340 O   0  0  0  0  0  0  0  0  0  0  0  0
    0.1610   -1.1710   -1.5180 O   0  0  0  0  0  0  0  0  0  0  0  0
   -0.3990   -2.6840   -0.9260 P   0  0  0  0  0  0  0  0  0  0  0  0
   -2.0230   -3.0120   -1.4350 O   0  0  0  0  0  0  0  0  0  0  0  0
   -0.2080   -2.8000    0.7810 O   0  0  0  0  0  0  0  0  0  0  0  0
  1  2  1  0
  2  3  1  0
  3  4  1  0
  4  5  1  0
  5  6  2  0
  5  7  1  0
  7  8  1  6
  7  9  1  0
  7 16  1  0
  9 10  1  0
 10 11  1  0
 11 12  1  0
 12 13  1  0
 13 14  1  0
 13 15  1  0
 16 17  1  0
 17 18  1  0
 17 19  1  0
M  END
