
     RDKit          3D

 19 19  0  0  0  0  0  0  0  0999 V2000
   -2.1370    1.5920    1.1330 O   0  0  0  0  0  0  0  0  0  0  0  0
   -1.3870    1.6790    0.1330 C   0  0  0  0  0  0  0  0  0  0  0  0
   -2.0340    1.9530   -1.0610 O   0  0  0  0  0  0  0  0  0  0  0  0
   -3.3150    2.1210   -1.2290 O   0  0  0  0  0  0  0  0  0  0  0  0
   -4.1270    1.0790   -0.8610 C   0  0  0  0  0  0  0  0  0  0  0  0
   -3.8620   -0.1050   -1.5580 O   0  0  0  0  0  0  0  0  0  0  0  0
   -4.9940   -1.3020   -0.9480 P   0  0  0  0  0  0  0  0  0  0  0  0
   -4.1050   -2.7890   -0.8320 O   0  0  0  0  0  0  0  0  0  0  0  0
   -5.4630   -0.8740    0.6890 O   0  0  0  0  0  0  0  0  0  0  0  0
    0.0550    1.4950    0.2850 C   0  0  1  0  0  0  0  0  0  0  0  0
    0.3640    1.2410    1.5870 O   0  0  0  0  0  0  0  0  0  0  0  0
    1.2130    0.1630    1.6590 C   0  0  0  0  0  0  0  0  0  0  0  0
    1.5240   -0.1840    0.2280 C   0  0  2  0  0  0  0  0  0  0  0  0
    2.7950    0.2300   -0.0920 O   0  0  0  0  0  0  0  0  0  0  0  0
    3.5380   -0.8250   -0.5600 C   0  0  0  0  0  0  0  0  0  0  0  0
    5.2710   -0.3340   -1.0120 P   0  0  0  0  0  0  0  0  0  0  0  0
    5.9020    0.5810    0.3440 O   0  0  0  0  0  0  0  0  0  0  0  0
    6.2180   -1.7860   -1.1140 O   0  0  0  0  0  0  0  0  0  0  0  0
    0.5370    0.4620   -0.5010 O   0  0  0  0  0  0  0  0  0  0  0  0
  1  2  2  0
  2  3  1  0
 10  2  1  1
  3  4  1  0
  4  5  1  0
  5  6  1  0
  6  7  1  0
  7  8  1  0
  7  9  1  0
 10 11  1  0
 10 19  1  0
 11 12  1  0
 12 13  1  0
 13 14  1  6
 13 19  1  0
 14 15  1  0
 15 16  1  0
 16 17  1  0
 16 18  1  0
M  END
