
     RDKit          3D

 23 25  0  0  0  0  0  0  0  0999 V2000
    5.0820   -1.8300    1.8290 C   0  0  0  0  0  0  0  0  0  0  0  0
    3.7860   -1.2620    1.3010 C   0  0  0  0  0  0  0  0  0  0  0  0
    3.8720   -1.2620   -0.2080 C   0  0  0  0  0  0  0  0  0  0  0  0
    2.6070   -0.7090   -0.8070 C   0  0  0  0  0  0  0  0  0  0  0  0
    2.4390   -0.6070   -2.1320 N   0  0  0  0  0  0  0  0  0  0  0  0
    1.3320   -0.1200   -2.7180 C   0  0  0  0  0  0  0  0  0  0  0  0
    0.2960    0.3050   -1.8720 C   0  0  0  0  0  0  0  0  0  0  0  0
   -0.8780    0.8250   -2.4570 N   0  0  0  0  0  0  0  0  0  0  0  0
    0.4330    0.2160   -0.5170 C   0  0  0  0  0  0  0  0  0  0  0  0
   -0.6160    0.6520    0.3200 N   0  0  0  0  0  0  0  0  0  0  0  0
   -1.0980    1.9640    0.5310 C   0  0  0  0  0  0  0  0  0  0  0  0
   -0.2770    3.0750    0.0160 C   0  0  0  0  0  0  0  0  0  0  0  0
    0.8750    3.1740   -0.6000 C   0  0  0  0  0  0  0  0  0  0  0  0
    0.6910    4.6220   -0.6100 C   0  0  0  0  0  0  0  0  0  0  0  0
   -0.4570    4.5430    0.0020 C   0  0  0  0  0  0  0  0  0  0  0  0
   -1.3050   -0.4270    1.0490 C   0  0  0  0  0  0  0  0  0  0  0  0
   -2.6990   -0.6870    0.6470 C   0  0  2  0  0  0  0  0  0  0  0  0
   -3.5730    0.3810    0.8140 O   0  0  0  0  0  0  0  0  0  0  0  0
   -3.2230   -1.8150    1.5240 C   0  0  0  0  0  0  0  0  0  0  0  0
   -4.0320   -2.6550    0.5590 C   0  0  0  0  0  0  0  0  0  0  0  0
   -4.1210   -1.9350   -0.6090 O   0  0  0  0  0  0  0  0  0  0  0  0
   -2.9210   -1.2370   -0.7200 C   0  0  0  0  0  0  0  0  0  0  0  0
    1.5940   -0.2930   -0.0190 N   0  0  0  0  0  0  0  0  0  0  0  0
  1  2  1  0
  2  3  1  0
  3  4  1  0
  4  5  2  0
  4 23  1  0
  5  6  1  0
  6  7  2  0
  7  8  1  0
  7  9  1  0
  9 10  1  0
  9 23  2  0
 10 11  1  0
 10 16  1  0
 11 12  1  0
 12 13  2  0
 12 15  1  0
 13 14  1  0
 14 15  2  0
 16 17  1  0
 17 18  1  6
 17 19  1  0
 17 22  1  0
 19 20  1  0
 20 21  1  0
 21 22  1  0
M  END
