
     RDKit          3D

 23 25  0  0  0  0  0  0  0  0999 V2000
   -6.7560   -0.6970    0.7310 C   0  0  0  0  0  0  0  0  0  0  0  0
   -5.9050    0.1790   -0.1100 C   0  0  0  0  0  0  0  0  0  0  0  0
   -4.7040    0.6570    0.4730 N   0  0  0  0  0  0  0  0  0  0  0  0
   -3.9780    1.4740   -0.4420 C   0  0  0  0  0  0  0  0  0  0  0  0
   -3.2210    0.7350   -1.4950 C   0  0  0  0  0  0  0  0  0  0  0  0
   -2.3300   -0.3390   -0.9350 C   0  0  1  0  0  0  0  0  0  0  0  0
   -1.0930    0.1490   -0.3150 C   0  0  0  0  0  0  0  0  0  0  0  0
   -1.0230    1.0950    0.6350 N   0  0  0  0  0  0  0  0  0  0  0  0
    0.2390    1.2970    0.9860 N   0  0  0  0  0  0  0  0  0  0  0  0
    1.0070    0.4830    0.2670 C   0  0  0  0  0  0  0  0  0  0  0  0
    2.4720    0.4170    0.3830 C   0  0  0  0  0  0  0  0  0  0  0  0
    3.1580   -0.4250   -0.3620 C   0  0  0  0  0  0  0  0  0  0  0  0
    4.6010   -0.5950   -0.3500 C   0  0  0  0  0  0  0  0  0  0  0  0
    5.4040   -0.7900   -1.4790 C   0  0  0  0  0  0  0  0  0  0  0  0
    6.7160   -0.9100   -1.0500 C   0  0  0  0  0  0  0  0  0  0  0  0
    6.6470   -0.7830    0.3300 C   0  0  0  0  0  0  0  0  0  0  0  0
    7.8450   -0.8510    1.2080 C   0  0  0  0  0  0  0  0  0  0  0  0
    5.4000   -0.6030    0.6720 O   0  0  0  0  0  0  0  0  0  0  0  0
    3.1720    1.3140    1.3340 C   0  0  0  0  0  0  0  0  0  0  0  0
    2.8590    2.6300    0.9440 O   0  0  0  0  0  0  0  0  0  0  0  0
    0.1930   -0.2150   -0.5230 N   0  0  0  0  0  0  0  0  0  0  0  0
   -3.1580   -1.1910    0.0050 C   0  0  0  0  0  0  0  0  0  0  0  0
   -3.8270   -0.3170    1.0310 C   0  0  0  0  0  0  0  0  0  0  0  0
  1  2  1  0
  2  3  1  0
  3  4  1  0
  3 23  1  0
  4  5  1  0
  5  6  1  0
  6  7  1  1
  6 22  1  0
  7  8  2  0
  7 21  1  0
  8  9  1  0
  9 10  2  0
 10 11  1  0
 10 21  1  0
 11 12  2  3
 11 19  1  0
 12 13  1  0
 13 14  2  0
 13 18  1  0
 14 15  1  0
 15 16  2  0
 16 17  1  0
 16 18  1  0
 19 20  1  0
 22 23  1  0
M  END
