
     RDKit          3D

 23 25  0  0  0  0  0  0  0  0999 V2000
    5.3170    1.2460   -5.0700 C   0  0  0  0  0  0  0  0  0  0  0  0
    5.8710    0.7310   -4.2380 C   0  0  0  0  0  0  0  0  0  0  0  0
    6.5850    0.0410   -3.1720 C   0  0  0  0  0  0  0  0  0  0  0  0
    5.9040    0.2500   -1.8940 N   0  0  0  0  0  0  0  0  0  0  0  0
    4.5260   -0.0160   -1.8020 C   0  0  0  0  0  0  0  0  0  0  0  0
    3.9060   -0.4210   -2.8320 O   0  0  0  0  0  0  0  0  0  0  0  0
    3.7400    0.1350   -0.6480 N   0  0  0  0  0  0  0  0  0  0  0  0
    2.3600    0.0050   -0.6030 C   0  0  0  0  0  0  0  0  0  0  0  0
    1.6330    0.7070   -1.5770 C   0  0  0  0  0  0  0  0  0  0  0  0
    0.2700    0.6260   -1.5610 C   0  0  0  0  0  0  0  0  0  0  0  0
   -0.4090   -0.1110   -0.6280 C   0  0  0  0  0  0  0  0  0  0  0  0
   -1.7270   -0.3350   -0.3830 N   0  0  0  0  0  0  0  0  0  0  0  0
   -1.8870   -1.1140    0.6610 C   0  0  0  0  0  0  0  0  0  0  0  0
   -3.1690   -1.5160    1.3100 C   0  0  0  0  0  0  0  0  0  0  0  0
   -3.2680   -0.5840    2.5250 C   0  0  2  0  0  0  0  0  0  0  0  0
   -2.1450   -0.8060    3.3510 O   0  0  0  0  0  0  0  0  0  0  0  0
   -4.5060   -0.7480    3.3270 C   0  0  0  0  0  0  0  0  0  0  0  0
   -5.2210    0.5680    3.2770 C   0  0  0  0  0  0  0  0  0  0  0  0
   -4.6260    1.3170    2.1020 C   0  0  0  0  0  0  0  0  0  0  0  0
   -3.1860    0.8510    2.1080 C   0  0  0  0  0  0  0  0  0  0  0  0
   -0.6080   -1.4130    1.1120 C   0  0  0  0  0  0  0  0  0  0  0  0
    0.2890   -0.8150    0.3460 N   0  0  0  0  0  0  0  0  0  0  0  0
    1.6430   -0.7130    0.3000 C   0  0  0  0  0  0  0  0  0  0  0  0
  1  2  3  0
  2  3  1  0
  3  4  1  0
  4  5  1  0
  5  6  2  0
  5  7  1  0
  7  8  1  0
  8  9  1  0
  8 23  2  0
  9 10  2  0
 10 11  1  0
 11 12  2  0
 11 22  1  0
 12 13  1  0
 13 14  1  0
 13 21  2  0
 14 15  1  0
 15 16  1  1
 15 17  1  0
 15 20  1  0
 17 18  1  0
 18 19  1  0
 19 20  1  0
 21 22  1  0
 22 23  1  0
M  END
