
     RDKit          3D

 24 26  0  0  0  0  0  0  0  0999 V2000
   -4.8560    0.3520   -2.5140 C   0  0  0  0  0  0  0  0  0  0  0  0
   -4.3270    1.0840   -1.3190 C   0  0  0  0  0  0  0  0  0  0  0  0
   -4.0510    0.2310   -0.1550 C   0  0  0  0  0  0  0  0  0  0  0  0
   -5.1510   -0.1340    0.6520 C   0  0  0  0  0  0  0  0  0  0  0  0
   -6.5120    0.3310    0.2980 C   0  0  0  0  0  0  0  0  0  0  0  0
   -4.8910   -0.9180    1.7450 C   0  0  0  0  0  0  0  0  0  0  0  0
   -3.6870   -1.3180    2.0420 O   0  0  0  0  0  0  0  0  0  0  0  0
   -2.6520   -0.9670    1.2710 C   0  0  0  0  0  0  0  0  0  0  0  0
   -1.5610   -1.4190    1.6680 O   0  0  0  0  0  0  0  0  0  0  0  0
   -2.7880   -0.1850    0.1490 C   0  0  0  0  0  0  0  0  0  0  0  0
   -1.6650    0.1090   -0.6910 C   0  0  0  0  0  0  0  0  0  0  0  0
   -1.8710    0.4740   -1.9110 O   0  0  0  0  0  0  0  0  0  0  0  0
   -0.2800    0.0360   -0.2910 N   0  0  0  0  0  0  0  0  0  0  0  0
    0.7330    0.3440   -1.2250 C   0  0  0  0  0  0  0  0  0  0  0  0
    0.4190    0.6710   -2.3870 O   0  0  0  0  0  0  0  0  0  0  0  0
    2.1400    0.2680   -0.7960 C   0  0  0  0  0  0  0  0  0  0  0  0
    2.6770   -0.0580    0.3910 C   0  0  0  0  0  0  0  0  0  0  0  0
    4.0290   -0.0410    0.5010 C   0  0  0  0  0  0  0  0  0  0  0  0
    4.7710    0.2900   -0.5420 C   0  0  0  0  0  0  0  0  0  0  0  0
    3.5310    0.6130   -1.8060 S   0  0  0  0  0  0  0  0  0  0  0  0
    6.2130    0.3960   -0.7240 C   0  0  0  0  0  0  0  0  0  0  0  0
    6.9220   -0.0410    0.5050 C   0  0  0  0  0  0  0  0  0  0  0  0
    6.1160   -0.9910    1.3580 C   0  0  0  0  0  0  0  0  0  0  0  0
    4.8040   -0.3840    1.7720 C   0  0  0  0  0  0  0  0  0  0  0  0
  1  2  1  0
  2  3  1  0
  3  4  1  0
  3 10  2  0
  4  5  1  0
  4  6  2  0
  6  7  1  0
  7  8  1  0
  8  9  2  0
  8 10  1  0
 10 11  1  0
 11 12  2  0
 11 13  1  0
 13 14  1  0
 14 15  2  0
 14 16  1  0
 16 17  2  0
 16 20  1  0
 17 18  1  0
 18 19  2  0
 18 24  1  0
 19 20  1  0
 19 21  1  0
 21 22  1  0
 22 23  1  0
 23 24  1  0
M  END
