
     RDKit          3D

 25 27  0  0  0  0  0  0  0  0999 V2000
   -5.5450   -0.8730   -2.1050 C   0  0  0  0  0  0  0  0  0  0  0  0
   -4.2640   -0.4730   -1.4820 C   0  0  0  0  0  0  0  0  0  0  0  0
   -2.7260   -0.1290   -2.3520 S   0  0  0  0  0  0  0  0  0  0  0  0
   -1.7960    0.2410   -0.9580 C   0  0  0  0  0  0  0  0  0  0  0  0
   -0.3830    0.6190   -0.9610 N   0  0  0  0  0  0  0  0  0  0  0  0
    0.3160    0.7070   -2.1750 C   0  0  0  0  0  0  0  0  0  0  0  0
   -0.3590    0.4410   -3.2310 O   0  0  0  0  0  0  0  0  0  0  0  0
    1.7260    1.0720   -2.3170 C   0  0  0  0  0  0  0  0  0  0  0  0
    2.4190    1.2670   -1.1320 O   0  0  0  0  0  0  0  0  0  0  0  0
    2.6100    0.2710   -0.2020 C   0  0  0  0  0  0  0  0  0  0  0  0
    2.1530   -0.8670   -0.4100 O   0  0  0  0  0  0  0  0  0  0  0  0
    3.3560    0.5580    1.0390 C   0  0  0  0  0  0  0  0  0  0  0  0
    4.6630   -0.1590    1.0590 C   0  0  0  0  0  0  0  0  0  0  0  0
    5.8550    0.3950    1.1390 C   0  0  0  0  0  0  0  0  0  0  0  0
    6.9050   -0.6720    1.1290 C   0  0  0  0  0  0  0  0  0  0  0  0
    6.0920   -1.9320    1.0280 C   0  0  0  0  0  0  0  0  0  0  0  0
    4.7980   -1.6020    0.9900 C   0  0  0  0  0  0  0  0  0  0  0  0
    3.8220   -2.5500    0.8980 F   0  0  0  0  0  0  0  0  0  0  0  0
   -2.6530    0.0970    0.0850 C   0  0  0  0  0  0  0  0  0  0  0  0
   -3.9130   -0.2700   -0.1930 C   0  0  0  0  0  0  0  0  0  0  0  0
   -4.8510   -0.4380    1.0000 C   0  0  0  0  0  0  0  0  0  0  0  0
   -4.7090    0.6880    1.9800 C   0  0  0  0  0  0  0  0  0  0  0  0
   -3.3060    0.9580    2.3910 C   0  0  0  0  0  0  0  0  0  0  0  0
   -2.3030    0.3140    1.5130 C   0  0  0  0  0  0  0  0  0  0  0  0
   -1.1620   -0.0510    1.9570 O   0  0  0  0  0  0  0  0  0  0  0  0
  1  2  1  0
  2  3  1  0
  2 20  2  0
  3  4  1  0
  4  5  1  0
  4 19  2  0
  5  6  1  0
  6  7  2  0
  6  8  1  0
  8  9  1  0
  9 10  1  0
 10 11  2  0
 10 12  1  0
 12 13  1  0
 13 14  2  0
 13 17  1  0
 14 15  1  0
 15 16  1  0
 16 17  2  0
 17 18  1  0
 19 20  1  0
 19 24  1  0
 20 21  1  0
 21 22  1  0
 22 23  1  0
 23 24  1  0
 24 25  2  0
M  END
