
     RDKit          3D

 25 27  0  0  0  0  0  0  0  0999 V2000
   -5.9970    0.3780    0.9780 C   0  0  0  0  0  0  0  0  0  0  0  0
   -4.8020   -0.5200    1.0520 C   0  0  0  0  0  0  0  0  0  0  0  0
   -3.7680   -0.1820    0.0490 C   0  0  0  0  0  0  0  0  0  0  0  0
   -2.6010    0.4790    0.3800 C   0  0  0  0  0  0  0  0  0  0  0  0
   -1.7080    0.7390   -0.6460 C   0  0  0  0  0  0  0  0  0  0  0  0
   -0.4650    1.4380   -0.3350 C   0  0  0  0  0  0  0  0  0  0  0  0
    0.7050    0.4580   -0.3200 C   0  0  0  0  0  0  0  0  0  0  0  0
    0.4390   -0.7120   -0.5740 O   0  0  0  0  0  0  0  0  0  0  0  0
    1.9670    0.9760   -0.0190 N   0  0  0  0  0  0  0  0  0  0  0  0
    3.1340    0.1690    0.0190 C   0  0  0  0  0  0  0  0  0  0  0  0
    3.0520   -1.1320   -0.4130 C   0  0  0  0  0  0  0  0  0  0  0  0
    4.2230   -1.8800   -0.3860 C   0  0  0  0  0  0  0  0  0  0  0  0
    5.3780   -1.3120    0.0560 C   0  0  0  0  0  0  0  0  0  0  0  0
    6.9790   -2.0130    0.1960 S   0  0  0  0  0  0  0  0  0  0  0  0
    7.7660   -0.5200    0.8490 C   0  0  0  0  0  0  0  0  0  0  0  0
    9.1130   -0.4030    1.1920 F   0  0  0  0  0  0  0  0  0  0  0  0
    6.7420    0.3710    0.9000 C   0  0  0  0  0  0  0  0  0  0  0  0
    5.5200   -0.0350    0.4940 C   0  0  0  0  0  0  0  0  0  0  0  0
    4.3230    0.7240    0.4640 C   0  0  0  0  0  0  0  0  0  0  0  0
    4.3250    2.0280    0.8800 O   0  0  0  0  0  0  0  0  0  0  0  0
   -1.9560    0.3630   -1.9430 C   0  0  0  0  0  0  0  0  0  0  0  0
   -1.1330    0.6070   -2.8660 O   0  0  0  0  0  0  0  0  0  0  0  0
   -3.0810   -0.2610   -2.1930 O   0  0  0  0  0  0  0  0  0  0  0  0
   -3.9810   -0.5430   -1.2620 C   0  0  0  0  0  0  0  0  0  0  0  0
   -5.2020   -1.2450   -1.6660 C   0  0  0  0  0  0  0  0  0  0  0  0
  1  2  1  0
  2  3  1  0
  3  4  1  0
  3 24  2  0
  4  5  2  0
  5  6  1  0
  5 21  1  0
  6  7  1  0
  7  8  2  0
  7  9  1  0
  9 10  1  0
 10 11  2  0
 10 19  1  0
 11 12  1  0
 12 13  2  0
 13 14  1  0
 13 18  1  0
 14 15  1  0
 15 16  1  0
 15 17  2  0
 17 18  1  0
 18 19  2  0
 19 20  1  0
 21 22  2  0
 21 23  1  0
 23 24  1  0
 24 25  1  0
M  END
