
     RDKit          3D

 25 27  0  0  0  0  0  0  0  0999 V2000
    1.0080   -0.3370   -3.0280 C   0  0  0  0  0  0  0  0  0  0  0  0
    1.4600   -0.6110   -1.6990 O   0  0  0  0  0  0  0  0  0  0  0  0
    0.4450   -0.8270   -0.7510 C   0  0  0  0  0  0  0  0  0  0  0  0
   -0.8880   -0.7040   -0.9780 C   0  0  0  0  0  0  0  0  0  0  0  0
   -1.8100   -0.9720    0.0590 C   0  0  0  0  0  0  0  0  0  0  0  0
   -3.1130   -0.2770   -0.0590 C   0  0  0  0  0  0  0  0  0  0  0  0
   -4.1530   -0.4060    0.7930 C   0  0  0  0  0  0  0  0  0  0  0  0
   -5.2610    0.4640    0.6580 C   0  0  0  0  0  0  0  0  0  0  0  0
   -6.3260    0.3270    1.5450 O   0  0  0  0  0  0  0  0  0  0  0  0
   -5.3240    1.4350   -0.2940 C   0  0  0  0  0  0  0  0  0  0  0  0
   -4.2680    1.5890   -1.1780 C   0  0  0  0  0  0  0  0  0  0  0  0
   -4.2790    2.5270   -2.1540 F   0  0  0  0  0  0  0  0  0  0  0  0
   -3.1920    0.7110   -1.0200 C   0  0  0  0  0  0  0  0  0  0  0  0
   -1.3990   -1.3850    1.3030 C   0  0  0  0  0  0  0  0  0  0  0  0
   -2.3140   -1.9710    2.3380 C   0  0  0  0  0  0  0  0  0  0  0  0
   -0.0470   -1.5080    1.5340 C   0  0  0  0  0  0  0  0  0  0  0  0
    0.8460   -1.2140    0.5040 C   0  0  0  0  0  0  0  0  0  0  0  0
    2.2750   -1.2790    0.7570 O   0  0  0  0  0  0  0  0  0  0  0  0
    2.8520    0.0210    0.5140 C   0  0  0  0  0  0  0  0  0  0  0  0
    1.9940    0.8880    0.1150 O   0  0  0  0  0  0  0  0  0  0  0  0
    4.2350    0.3980    0.6560 C   0  0  2  0  0  0  0  0  0  0  0  0
    4.1490    1.9900    0.3370 C   0  0  0  0  0  0  0  0  0  0  0  0
    5.8900    2.3020    0.0260 S   0  0  0  0  0  0  0  0  0  0  0  0
    6.3930    0.5270   -0.1960 C   0  0  0  0  0  0  0  0  0  0  0  0
    5.0650   -0.0230   -0.4160 N   0  0  0  0  0  0  0  0  0  0  0  0
  1  2  1  0
  2  3  1  0
  3  4  2  0
  3 17  1  0
  4  5  1  0
  5  6  1  0
  5 14  2  0
  6  7  2  0
  6 13  1  0
  7  8  1  0
  8  9  1  0
  8 10  2  0
 10 11  1  0
 11 12  1  0
 11 13  2  0
 14 15  1  0
 14 16  1  0
 16 17  2  0
 17 18  1  0
 18 19  1  0
 19 20  2  0
 21 19  1  6
 21 22  1  0
 21 25  1  0
 22 23  1  0
 23 24  1  0
 24 25  1  0
M  END
