
     RDKit          3D

 25 27  0  0  0  0  0  0  0  0999 V2000
    2.3890   -3.4100   -0.6850 C   0  0  0  0  0  0  0  0  0  0  0  0
    1.1770   -2.6240   -0.6030 C   0  0  0  0  0  0  0  0  0  0  0  0
   -0.4750   -3.3820   -0.5960 S   0  0  0  0  0  0  0  0  0  0  0  0
   -1.3500   -1.8240   -0.4810 C   0  0  0  0  0  0  0  0  0  0  0  0
   -2.8140   -1.7000   -0.4280 C   0  0  0  0  0  0  0  0  0  0  0  0
   -3.5110   -2.7450   -0.4660 O   0  0  0  0  0  0  0  0  0  0  0  0
   -3.3830   -0.4240   -0.3390 N   0  0  0  0  0  0  0  0  0  0  0  0
   -4.8230   -0.2500   -0.2850 C   0  0  1  0  0  0  0  0  0  0  0  0
   -5.1480    0.4380    1.0460 C   0  0  0  0  0  0  0  0  0  0  0  0
   -5.6370    1.8170    0.6590 C   0  0  0  0  0  0  0  0  0  0  0  0
   -6.3410    1.5120   -0.6650 C   0  0  0  0  0  0  0  0  0  0  0  0
   -5.2980    0.6710   -1.3650 C   0  0  0  0  0  0  0  0  0  0  0  0
   -0.3890   -0.8880   -0.4570 C   0  0  0  0  0  0  0  0  0  0  0  0
    0.9020   -1.2760   -0.5190 C   0  0  0  0  0  0  0  0  0  0  0  0
    2.0290   -0.2620   -0.4960 C   0  0  0  0  0  0  0  0  0  0  0  0
    1.8040    0.9630   -0.4200 O   0  0  0  0  0  0  0  0  0  0  0  0
    3.3350   -0.6750   -0.5590 O   0  0  0  0  0  0  0  0  0  0  0  0
    4.3850    0.2330   -0.5400 C   0  0  0  0  0  0  0  0  0  0  0  0
    5.0360    0.7090    0.5070 C   0  0  0  0  0  0  0  0  0  0  0  0
    4.7880    0.3770    1.9280 C   0  0  0  0  0  0  0  0  0  0  0  0
    4.4460    1.5040    2.6750 O   0  0  0  0  0  0  0  0  0  0  0  0
    6.0950    1.6630    0.0710 C   0  0  0  0  0  0  0  0  0  0  0  0
    5.9530    1.6620   -1.3890 C   0  0  0  0  0  0  0  0  0  0  0  0
    4.9640    0.8330   -1.7170 C   0  0  0  0  0  0  0  0  0  0  0  0
    4.6190    0.6430   -3.0290 F   0  0  0  0  0  0  0  0  0  0  0  0
  1  2  1  0
  2  3  1  0
  2 14  2  0
  3  4  1  0
  4  5  1  0
  4 13  2  0
  5  6  2  0
  5  7  1  0
  8  7  1  6
  8  9  1  0
  8 12  1  0
  9 10  1  0
 10 11  1  0
 11 12  1  0
 13 14  1  0
 14 15  1  0
 15 16  2  0
 15 17  1  0
 17 18  1  0
 18 19  2  0
 18 24  1  0
 19 20  1  0
 19 22  1  0
 20 21  1  0
 22 23  1  0
 23 24  2  0
 24 25  1  0
M  END
