
     RDKit          3D

 29 31  0  0  0  0  0  0  0  0999 V2000
   -4.2530   -0.9500    2.0260 N   0  0  0  0  0  0  0  0  0  0  0  0
   -3.0290   -1.4440    1.7310 O   0  0  0  0  0  0  0  0  0  0  0  0
   -2.2830   -0.5620    0.9490 C   0  0  2  0  0  0  0  0  0  0  0  0
   -1.0530   -1.1820    0.7150 O   0  0  0  0  0  0  0  0  0  0  0  0
   -1.1820   -1.8210   -0.4970 C   0  0  2  0  0  0  0  0  0  0  0  0
   -0.4550   -2.9540   -0.6750 O   0  0  0  0  0  0  0  0  0  0  0  0
   -0.0180   -3.0090   -1.8890 O   0  0  0  0  0  0  0  0  0  0  0  0
   -0.5160   -2.0370   -2.5810 O   0  0  0  0  0  0  0  0  0  0  0  0
   -0.7110   -0.9730   -1.6590 C   0  0  2  0  0  0  0  0  0  0  0  0
    0.9530   -0.2290   -1.3900 P   0  0  0  0  0  0  0  0  0  0  0  0
    2.2440   -1.0570   -0.7780 C   0  0  0  0  0  0  0  0  0  0  0  0
    2.0880   -2.3900   -0.4410 O   0  0  0  0  0  0  0  0  0  0  0  0
    3.5480   -0.4430   -0.5770 C   0  0  0  0  0  0  0  0  0  0  0  0
    3.6810    0.7660   -0.8850 O   0  0  0  0  0  0  0  0  0  0  0  0
    4.6310   -1.1370   -0.0630 O   0  0  0  0  0  0  0  0  0  0  0  0
    5.8960   -0.5350    0.1310 C   0  0  0  0  0  0  0  0  0  0  0  0
    5.7940    0.6040    1.0700 C   0  0  0  0  0  0  0  0  0  0  0  0
    6.8940    1.3980    1.4550 N   0  0  0  0  0  0  0  0  0  0  0  0
    4.6620    0.8850    1.5570 O   0  0  0  0  0  0  0  0  0  0  0  0
   -1.6450   -0.0860   -2.0980 O   0  0  0  0  0  0  0  0  0  0  0  0
   -2.4680    0.4910   -1.1530 C   0  0  2  0  0  0  0  0  0  0  0  0
   -3.6860    0.9710   -1.8960 C   0  0  0  0  0  0  0  0  0  0  0  0
   -4.6530    1.5350   -1.3580 O   0  0  0  0  0  0  0  0  0  0  0  0
   -3.7310    0.7720   -3.2600 O   0  0  0  0  0  0  0  0  0  0  0  0
   -1.7950    1.7530   -0.6890 C   0  0  0  0  0  0  0  0  0  0  0  0
   -2.4140    2.3370    0.5570 C   0  0  0  0  0  0  0  0  0  0  0  0
   -2.0540    1.0500    1.8790 P   0  0  0  0  0  0  0  0  0  0  0  0
   -3.3410    1.1490    3.0380 O   0  0  0  0  0  0  0  0  0  0  0  0
   -2.9430   -0.3480   -0.2070 O   0  0  0  0  0  0  0  0  0  0  0  0
  1  2  1  0
  3  2  1  1
  3  4  1  0
  3 27  1  0
  3 29  1  0
  5  4  1  1
  5  6  1  0
  5  9  1  0
  6  7  1  0
  7  8  1  0
  8  9  1  0
  9 10  1  1
  9 20  1  0
 10 11  2  3
 11 12  1  0
 11 13  1  0
 13 14  2  0
 13 15  1  0
 15 16  1  0
 16 17  1  0
 17 18  1  0
 17 19  2  0
 20 21  1  0
 21 22  1  6
 21 25  1  0
 21 29  1  0
 22 23  2  0
 22 24  1  0
 25 26  1  0
 26 27  1  0
 27 28  1  0
M  END
