
     RDKit          3D

 32 35  0  0  0  0  0  0  0  0999 V2000
   -6.5930    2.6160    2.0460 N   0  0  0  0  0  0  0  0  0  0  0  0
   -6.4040    1.2590    1.6440 C   0  0  0  0  0  0  0  0  0  0  0  0
   -5.2710    0.8500    1.0160 N   0  0  0  0  0  0  0  0  0  0  0  0
   -5.0770   -0.4020    0.6360 C   0  0  0  0  0  0  0  0  0  0  0  0
   -6.0900   -1.3130    0.9020 C   0  0  0  0  0  0  0  0  0  0  0  0
   -5.6450   -2.4690    0.4260 N   0  0  0  0  0  0  0  0  0  0  0  0
   -4.4330   -2.3050   -0.1080 C   0  0  0  0  0  0  0  0  0  0  0  0
   -4.0550   -0.9930    0.0170 N   0  0  0  0  0  0  0  0  0  0  0  0
   -2.8340   -0.5480   -0.4580 C   0  0  2  0  0  0  0  0  0  0  0  0
   -1.7020   -1.0200    0.2590 O   0  0  0  0  0  0  0  0  0  0  0  0
   -0.7250   -0.6610   -0.6550 C   0  0  2  0  0  0  0  0  0  0  0  0
    0.5550   -0.5280    0.1320 C   0  0  0  0  0  0  0  0  0  0  0  0
    1.4610   -0.1770   -0.7930 O   0  0  0  0  0  0  0  0  0  0  0  0
    2.9800    0.0940   -0.5230 P   0  0  0  0  0  0  0  0  0  0  0  0
    3.0140    1.6910   -0.8000 O   0  0  0  0  0  0  0  0  0  0  0  0
    3.3080   -0.3910    0.9620 O   0  0  0  0  0  0  0  0  0  0  0  0
    4.3400   -0.1720   -1.0910 O   0  0  0  0  0  0  0  0  0  0  0  0
    5.5150   -1.0910   -1.2590 P   0  0  0  0  0  0  0  0  0  0  0  0
    6.7320   -1.6870   -0.4210 O   0  0  0  0  0  0  0  0  0  0  0  0
    4.3610   -2.3340   -1.2160 O   0  0  0  0  0  0  0  0  0  0  0  0
    5.5890   -0.0620   -0.1370 O   0  0  0  0  0  0  0  0  0  0  0  0
    6.4940    0.8190    0.7110 P   0  0  0  0  0  0  0  0  0  0  0  0
    6.3900   -0.2200    1.8110 O   0  0  0  0  0  0  0  0  0  0  0  0
    5.8420    2.1780    1.4750 O   0  0  0  0  0  0  0  0  0  0  0  0
    8.1050    0.9640    0.3200 O   0  0  0  0  0  0  0  0  0  0  0  0
   -1.1010    0.6890   -1.2320 C   0  0  1  0  0  0  0  0  0  0  0  0
   -1.2160    0.6000   -2.6130 O   0  0  0  0  0  0  0  0  0  0  0  0
   -2.5040    0.8620   -0.5930 C   0  0  1  0  0  0  0  0  0  0  0  0
   -3.2100    1.5950   -1.5310 O   0  0  0  0  0  0  0  0  0  0  0  0
   -7.2310   -0.8820    1.5400 C   0  0  0  0  0  0  0  0  0  0  0  0
   -8.1600   -1.6880    1.7920 O   0  0  0  0  0  0  0  0  0  0  0  0
   -7.4090    0.3940    1.9180 N   0  0  0  0  0  0  0  0  0  0  0  0
  1  2  1  0
  2  3  1  0
  2 32  2  0
  3  4  1  0
  4  5  2  0
  4  8  1  0
  5  6  1  0
  5 30  1  0
  6  7  2  0
  7  8  1  0
  9  8  1  1
  9 10  1  0
  9 28  1  0
 10 11  1  0
 11 12  1  1
 11 26  1  0
 12 13  1  0
 13 14  1  0
 14 15  1  0
 14 16  1  0
 14 17  1  0
 17 18  1  0
 18 19  1  0
 18 20  1  0
 18 21  1  0
 21 22  1  0
 22 23  1  0
 22 24  1  0
 22 25  1  0
 26 27  1  6
 26 28  1  0
 28 29  1  6
 30 31  2  0
 30 32  1  0
 21 17  1  0
M  CHG  1  32   1
M  END
