
     RDKit          3D

 32 32  0  0  0  0  0  0  0  0999 V2000
    4.4810   -3.3090   -0.0280 C   0  0  0  0  0  0  0  0  0  0  0  0
    5.8340   -2.3560    0.0020 P   0  0  0  0  0  0  0  0  0  0  0  0
    5.6510   -0.5340    0.2660 C   0  0  2  0  0  0  0  0  0  0  0  0
    6.7770   -0.1180    1.1180 N   0  0  0  0  0  0  0  0  0  0  0  0
    4.4740   -0.2220    0.9480 O   0  0  0  0  0  0  0  0  0  0  0  0
    3.2760    0.1320    0.3510 C   0  0  0  0  0  0  0  0  0  0  0  0
    2.0720    0.4080    1.1510 C   0  0  0  0  0  0  0  0  0  0  0  0
    2.1700    0.3120    2.4020 O   0  0  0  0  0  0  0  0  0  0  0  0
    0.8360    0.7760    0.4870 C   0  0  0  0  0  0  0  0  0  0  0  0
    0.8170    0.8510   -0.7610 O   0  0  0  0  0  0  0  0  0  0  0  0
   -0.3190    1.0430    1.2220 N   0  0  0  0  0  0  0  0  0  0  0  0
   -1.6070    1.4200    0.6290 C   0  0  2  0  0  0  0  0  0  0  0  0
   -1.7530    2.7830    1.0050 O   0  0  0  0  0  0  0  0  0  0  0  0
   -1.7870    3.5680   -0.0220 O   0  0  0  0  0  0  0  0  0  0  0  0
   -2.5710    0.7330    1.2730 O   0  0  0  0  0  0  0  0  0  0  0  0
   -3.5210    0.0570    0.5180 C   0  0  2  0  0  0  0  0  0  0  0  0
   -4.2380    1.0760   -0.3120 C   0  0  0  0  0  0  0  0  0  0  0  0
   -5.3060    0.6980   -1.0920 O   0  0  0  0  0  0  0  0  0  0  0  0
   -6.5770    0.3610   -0.7840 C   0  0  0  0  0  0  0  0  0  0  0  0
   -6.9520    0.3900    0.4030 O   0  0  0  0  0  0  0  0  0  0  0  0
   -7.5400   -0.0320   -1.7220 O   0  0  0  0  0  0  0  0  0  0  0  0
   -4.3350   -0.7430    1.4220 C   0  0  0  0  0  0  0  0  0  0  0  0
   -4.2830   -0.5410    2.6900 O   0  0  0  0  0  0  0  0  0  0  0  0
   -5.2070   -1.7670    1.0650 O   0  0  0  0  0  0  0  0  0  0  0  0
   -2.8950   -0.8930   -0.4490 C   0  0  0  0  0  0  0  0  0  0  0  0
   -3.7000   -1.5370   -1.1720 O   0  0  0  0  0  0  0  0  0  0  0  0
   -1.5630   -1.1140   -0.6090 O   0  0  0  0  0  0  0  0  0  0  0  0
   -1.1500   -2.0010   -1.5210 O   0  0  0  0  0  0  0  0  0  0  0  0
    3.3360    0.2090   -1.3050 P   0  0  0  0  0  0  0  0  0  0  0  0
    4.8950   -0.1680   -1.9970 O   0  0  0  0  0  0  0  0  0  0  0  0
    5.8140    0.2260   -1.0330 C   0  0  2  0  0  0  0  0  0  0  0  0
    7.0800   -0.0600   -1.5300 O   0  0  0  0  0  0  0  0  0  0  0  0
  1  2  2  0
  2  3  1  0
  3  4  1  1
  3  5  1  0
  3 31  1  0
  5  6  1  0
  6  7  1  0
  6 29  2  0
  7  8  2  0
  7  9  1  0
  9 10  2  0
  9 11  1  0
 12 11  1  1
 12 13  1  0
 12 15  1  0
 13 14  1  0
 15 16  1  0
 16 17  1  6
 16 22  1  0
 16 25  1  0
 17 18  1  0
 18 19  1  0
 19 20  2  0
 19 21  1  0
 22 23  2  0
 22 24  1  0
 25 26  2  0
 25 27  1  0
 27 28  1  0
 29 30  1  0
 30 31  1  0
 31 32  1  6
M  END
