
     RDKit          3D

 30 31  0  0  0  0  0  0  0  0999 V2000
   -3.0070   -2.4530    1.2880 C   0  0  0  0  0  0  0  0  0  0  0  0
   -2.1700   -1.3510    1.4210 O   0  0  0  0  0  0  0  0  0  0  0  0
   -1.7030   -1.0290    0.1510 C   0  0  1  0  0  0  0  0  0  0  0  0
   -2.8920   -0.7270   -0.6540 C   0  0  0  0  0  0  0  0  0  0  0  0
   -3.3360   -1.4380   -1.5340 O   0  0  0  0  0  0  0  0  0  0  0  0
   -3.6680    0.8770   -0.1920 P   0  0  0  0  0  0  0  0  0  0  0  0
   -4.9920    0.4870    0.8690 O   0  0  0  0  0  0  0  0  0  0  0  0
   -2.4400    1.6480    0.7650 O   0  0  0  0  0  0  0  0  0  0  0  0
   -1.2370    1.4670    0.0410 C   0  0  2  0  0  0  0  0  0  0  0  0
   -0.2530    2.3140    0.5780 O   0  0  0  0  0  0  0  0  0  0  0  0
   -1.4940    1.9460   -1.3300 C   0  0  0  0  0  0  0  0  0  0  0  0
   -0.8300    3.0840   -1.8550 N   0  0  0  0  0  0  0  0  0  0  0  0
   -2.3010    1.4040   -2.1260 O   0  0  0  0  0  0  0  0  0  0  0  0
   -0.7030    0.0720    0.0980 C   0  0  1  0  0  0  0  0  0  0  0  0
    0.4000   -0.0650    1.1260 C   0  0  2  0  0  0  0  0  0  0  0  0
    0.0100    0.1320    2.5400 C   0  0  0  0  0  0  0  0  0  0  0  0
   -0.4550    1.3540    2.9230 O   0  0  0  0  0  0  0  0  0  0  0  0
    1.4470    0.8290    0.8040 O   0  0  0  0  0  0  0  0  0  0  0  0
    2.2100    0.7950   -0.3490 C   0  0  0  0  0  0  0  0  0  0  0  0
    1.6390    1.1820   -1.5460 O   0  0  0  0  0  0  0  0  0  0  0  0
    3.4810    0.3980   -0.3320 C   0  0  0  0  0  0  0  0  0  0  0  0
    4.1740   -0.0310    0.8900 C   0  0  0  0  0  0  0  0  0  0  0  0
    4.1870    0.3880   -1.5230 O   0  0  0  0  0  0  0  0  0  0  0  0
    5.3490    1.1100   -1.6610 N   0  0  0  0  0  0  0  0  0  0  0  0
    1.0060   -1.3510    1.0560 O   0  0  0  0  0  0  0  0  0  0  0  0
    0.9220   -2.2110   -0.0250 C   0  0  0  0  0  0  0  0  0  0  0  0
    1.8870   -2.7100   -0.6340 O   0  0  0  0  0  0  0  0  0  0  0  0
   -0.8290   -2.5660   -0.5020 P   0  0  0  0  0  0  0  0  0  0  0  0
   -0.9890   -2.6620   -2.2190 O   0  0  0  0  0  0  0  0  0  0  0  0
   -1.9240   -3.5480   -2.5020 O   0  0  0  0  0  0  0  0  0  0  0  0
  1  2  1  0
  3  2  1  1
  3  4  1  0
  3 14  1  0
  3 28  1  0
  4  5  2  0
  4  6  1  0
  6  7  1  0
  6  8  1  0
  8  9  1  0
  9 10  1  1
  9 11  1  0
 14  9  1  1
 11 12  1  0
 11 13  2  0
 14 15  1  0
 15 16  1  1
 15 18  1  0
 15 25  1  0
 16 17  1  0
 18 19  1  0
 19 20  1  0
 19 21  2  3
 21 22  1  0
 21 23  1  0
 23 24  1  0
 25 26  1  0
 26 27  2  0
 26 28  1  0
 28 29  1  0
 29 30  1  0
M  END
