
     RDKit          3D

 26 29  0  0  0  0  0  0  0  0999 V2000
    6.9920    0.8740   -0.3500 C   0  0  0  0  0  0  0  0  0  0  0  0
    6.0970   -0.1280   -1.5160 S   0  0  2  0  0  0  0  0  0  0  0  0
    6.7760   -1.4500   -1.7150 O   0  0  0  0  0  0  0  0  0  0  0  0
    6.1400    0.5930   -2.8500 O   0  0  0  0  0  0  0  0  0  0  0  0
    4.4240   -0.3200   -1.0330 C   0  0  0  0  0  0  0  0  0  0  0  0
    3.4770    0.5850   -1.4620 C   0  0  0  0  0  0  0  0  0  0  0  0
    2.1550    0.4030   -1.0590 C   0  0  0  0  0  0  0  0  0  0  0  0
    1.8030   -0.6480   -0.2560 C   0  0  0  0  0  0  0  0  0  0  0  0
    0.4330   -0.8200    0.1500 C   0  0  0  0  0  0  0  0  0  0  0  0
   -0.1660   -2.0420    0.1040 C   0  0  0  0  0  0  0  0  0  0  0  0
   -1.4310   -2.1630    0.4860 N   0  0  0  0  0  0  0  0  0  0  0  0
   -2.2210   -1.1250    0.9390 C   0  0  0  0  0  0  0  0  0  0  0  0
   -3.5440   -1.4000    1.3240 N   0  0  0  0  0  0  0  0  0  0  0  0
   -4.6030   -0.5620    1.7250 C   0  0  0  0  0  0  0  0  0  0  0  0
   -5.0800    0.2650    0.5810 C   0  0  0  0  0  0  0  0  0  0  0  0
   -6.0890    1.1900    0.5890 C   0  0  0  0  0  0  0  0  0  0  0  0
   -6.1820    1.7080   -0.6850 C   0  0  0  0  0  0  0  0  0  0  0  0
   -5.2200    1.0740   -1.4200 C   0  0  0  0  0  0  0  0  0  0  0  0
   -4.5980    0.2290   -0.6190 O   0  0  0  0  0  0  0  0  0  0  0  0
   -1.6400    0.0780    0.9880 N   0  0  0  0  0  0  0  0  0  0  0  0
   -2.1180    1.2690    1.3880 C   0  0  0  0  0  0  0  0  0  0  0  0
   -1.0990    2.1450    1.2400 N   0  0  0  0  0  0  0  0  0  0  0  0
   -0.0430    1.5240    0.7720 N   0  0  0  0  0  0  0  0  0  0  0  0
   -0.3460    0.2270    0.6020 C   0  0  0  0  0  0  0  0  0  0  0  0
    2.7600   -1.5340    0.1580 C   0  0  0  0  0  0  0  0  0  0  0  0
    4.1000   -1.3800   -0.2290 C   0  0  0  0  0  0  0  0  0  0  0  0
  2  1  1  1
  2  3  2  0
  2  4  2  0
  2  5  1  0
  5  6  2  0
  5 26  1  0
  6  7  1  0
  7  8  2  0
  8  9  1  0
  8 25  1  0
  9 10  2  0
  9 24  1  0
 10 11  1  0
 11 12  2  0
 12 13  1  0
 12 20  1  0
 13 14  1  0
 14 15  1  0
 15 16  2  0
 15 19  1  0
 16 17  1  0
 17 18  2  0
 18 19  1  0
 20 21  1  0
 20 24  1  0
 21 22  2  0
 22 23  1  0
 23 24  2  0
 25 26  2  0
M  END
