
     RDKit          3D

 26 29  0  0  0  0  0  0  0  0999 V2000
   -2.2350    3.5150    2.0460 C   0  0  0  0  0  0  0  0  0  0  0  0
   -2.1160    2.7470    0.7700 C   0  0  0  0  0  0  0  0  0  0  0  0
   -2.1130    3.3850   -0.4660 C   0  0  0  0  0  0  0  0  0  0  0  0
   -1.9470    1.9660   -1.6220 S   0  0  0  0  0  0  0  0  0  0  0  0
   -1.9130    0.7330   -0.1740 C   0  0  0  0  0  0  0  0  0  0  0  0
   -1.7930   -0.6790   -0.5530 N   0  0  0  0  0  0  0  0  0  0  0  0
   -0.5310   -1.2880   -0.5160 C   0  0  0  0  0  0  0  0  0  0  0  0
   -0.4340   -2.5050   -0.7950 O   0  0  0  0  0  0  0  0  0  0  0  0
    0.6780   -0.5300   -0.1570 C   0  0  0  0  0  0  0  0  0  0  0  0
    1.7920   -1.4150   -0.1900 O   0  0  0  0  0  0  0  0  0  0  0  0
    3.0500   -0.9140    0.0940 C   0  0  0  0  0  0  0  0  0  0  0  0
    4.1110   -1.8050    0.0510 C   0  0  0  0  0  0  0  0  0  0  0  0
    5.3620   -1.3150    0.3320 C   0  0  0  0  0  0  0  0  0  0  0  0
    5.5430    0.0360    0.6490 C   0  0  0  0  0  0  0  0  0  0  0  0
    6.6310    0.8110    0.9680 C   0  0  0  0  0  0  0  0  0  0  0  0
    6.2390    2.0760    1.1850 N   0  0  0  0  0  0  0  0  0  0  0  0
    4.9180    2.1100    1.0080 N   0  0  0  0  0  0  0  0  0  0  0  0
    4.4560    0.8960    0.6820 C   0  0  0  0  0  0  0  0  0  0  0  0
    3.2460    0.3810    0.4010 N   0  0  0  0  0  0  0  0  0  0  0  0
   -2.9380   -1.4030   -0.9590 C   0  0  0  0  0  0  0  0  0  0  0  0
   -3.3620   -2.4860   -0.3330 C   0  0  0  0  0  0  0  0  0  0  0  0
   -4.5660   -3.2500   -0.7580 C   0  0  0  0  0  0  0  0  0  0  0  0
   -5.1980   -2.7140   -1.8850 O   0  0  0  0  0  0  0  0  0  0  0  0
   -4.7600   -1.5770   -2.5500 C   0  0  0  0  0  0  0  0  0  0  0  0
   -3.6950   -0.9570   -2.1160 C   0  0  0  0  0  0  0  0  0  0  0  0
   -2.0090    1.4460    0.6950 N   0  0  0  0  0  0  0  0  0  0  0  0
  1  2  1  0
  2  3  2  0
  2 26  1  0
  3  4  1  0
  4  5  1  0
  5  6  1  0
  5 26  2  0
  6  7  1  0
  6 20  1  0
  7  8  2  0
  7  9  1  0
  9 10  1  0
 10 11  1  0
 11 12  2  0
 11 19  1  0
 12 13  1  0
 13 14  2  0
 14 15  1  0
 14 18  1  0
 15 16  2  0
 16 17  1  0
 17 18  1  0
 18 19  2  0
 20 21  2  0
 20 25  1  0
 21 22  1  0
 22 23  1  0
 23 24  1  0
 24 25  2  0
M  END
