
     RDKit          3D

 26 29  0  0  0  0  0  0  0  0999 V2000
   -0.6820    1.9300   -0.7680 O   0  0  0  0  0  0  0  0  0  0  0  0
   -1.9040    1.7110   -0.6340 C   0  0  0  0  0  0  0  0  0  0  0  0
   -2.7560    2.8120   -0.4570 C   0  0  0  0  0  0  0  0  0  0  0  0
   -4.0870    2.6100   -0.3200 C   0  0  0  0  0  0  0  0  0  0  0  0
   -4.6140    1.3540   -0.3500 C   0  0  0  0  0  0  0  0  0  0  0  0
   -3.7680    0.3050   -0.5210 C   0  0  0  0  0  0  0  0  0  0  0  0
   -2.4170    0.4910   -0.6610 N   0  0  0  0  0  0  0  0  0  0  0  0
   -1.6350   -0.7160   -0.7890 C   0  0  0  0  0  0  0  0  0  0  0  0
   -1.4070   -1.3410    0.5290 C   0  0  0  0  0  0  0  0  0  0  0  0
   -2.3890   -2.2750    0.9490 C   0  0  0  0  0  0  0  0  0  0  0  0
   -2.2560   -2.8200    2.1940 C   0  0  0  0  0  0  0  0  0  0  0  0
   -1.2030   -2.4680    2.9970 C   0  0  0  0  0  0  0  0  0  0  0  0
   -0.2810   -1.5850    2.5840 N   0  0  0  0  0  0  0  0  0  0  0  0
   -0.3760   -1.0130    1.3380 C   0  0  0  0  0  0  0  0  0  0  0  0
    0.9610    0.0330    0.8280 S   0  0  0  0  0  0  0  0  0  0  0  0
    2.2410   -1.0150    0.1230 C   0  0  0  0  0  0  0  0  0  0  0  0
    2.2200   -2.3620    0.0120 N   0  0  0  0  0  0  0  0  0  0  0  0
    3.3610   -2.7580   -0.5750 C   0  0  0  0  0  0  0  0  0  0  0  0
    4.0980   -1.6220   -0.8290 C   0  0  0  0  0  0  0  0  0  0  0  0
    3.3870   -0.5410   -0.3880 N   0  0  0  0  0  0  0  0  0  0  0  0
    3.7840    0.8230   -0.4640 C   0  0  0  0  0  0  0  0  0  0  0  0
    4.2380    1.4270   -1.6030 N   0  0  0  0  0  0  0  0  0  0  0  0
    4.5200    2.6710   -1.3570 O   0  0  0  0  0  0  0  0  0  0  0  0
    4.2900    2.9760   -0.1080 C   0  0  0  0  0  0  0  0  0  0  0  0
    3.8210    1.8200    0.4840 C   0  0  0  0  0  0  0  0  0  0  0  0
    3.4400    1.6440    1.8050 O   0  0  0  0  0  0  0  0  0  0  0  0
  1  2  2  0
  2  3  1  0
  2  7  1  0
  3  4  2  0
  4  5  1  0
  5  6  2  0
  6  7  1  0
  7  8  1  0
  8  9  1  0
  9 10  2  0
  9 14  1  0
 10 11  1  0
 11 12  2  0
 12 13  1  0
 13 14  2  0
 14 15  1  0
 15 16  1  0
 16 17  2  0
 16 20  1  0
 17 18  1  0
 18 19  2  0
 19 20  1  0
 20 21  1  0
 21 22  2  0
 21 25  1  0
 22 23  1  0
 23 24  1  0
 24 25  2  0
 25 26  1  0
M  END
