
     RDKit          3D

  7  6  0  0  0  0  0  0  0  0999 V2000
   -0.7270    1.0590   -0.1500 C   0  0  0  0  0  0  0  0  0  0  0  0
   -0.0710   -0.2760    0.1390 C   0  0  2  0  0  0  0  0  0  0  0  0
   -0.8670   -1.4290   -0.4460 C   0  0  0  0  0  0  0  0  0  0  0  0
   -0.0460   -0.4600    1.5250 O   0  0  0  0  0  0  0  0  0  0  0  0
    1.2150   -0.2760   -0.4230 O   0  0  0  0  0  0  0  0  0  0  0  0
    2.2250    0.5900   -0.1150 C   0  0  0  0  0  0  0  0  0  0  0  0
    1.9690    1.4790    0.7660 O   0  0  0  0  0  0  0  0  0  0  0  0
  2  1  1  1
  2  3  1  0
  2  4  1  0
  2  5  1  0
  5  6  1  0
  6  7  2  0
M  END
