
     RDKit          3D

 11 11  0  0  0  0  0  0  0  0999 V2000
   -1.9810   -1.4570   -0.0000 C   0  0  0  0  0  0  0  0  0  0  0  0
   -0.6410   -0.8150   -0.0690 C   0  0  0  0  0  0  0  0  0  0  0  0
    0.3620   -1.6570   -0.2830 C   0  0  0  0  0  0  0  0  0  0  0  0
    1.8080   -1.4710   -0.4190 C   0  0  0  0  0  0  0  0  0  0  0  0
    2.6700   -0.5080   -0.0620 C   0  0  0  0  0  0  0  0  0  0  0  0
    2.5320    0.7770    0.6210 C   0  0  0  0  0  0  0  0  0  0  0  0
    1.5410    1.5840    0.8280 N   0  0  0  0  0  0  0  0  0  0  0  0
    0.1550    1.5730    0.4800 C   0  0  0  0  0  0  0  0  0  0  0  0
   -0.6360    3.1770    0.5160 S   0  0  0  0  0  0  0  0  0  0  0  0
   -0.7320    0.6400    0.1220 C   0  0  0  0  0  0  0  0  0  0  0  0
   -2.0300    1.1650   -0.1260 N   0  0  0  0  0  0  0  0  0  0  0  0
  1  2  1  0
  2  3  2  0
  2 10  1  0
  3  4  1  0
  4  5  2  0
  5  6  1  0
  6  7  2  0
  7  8  1  0
  8  9  1  0
  8 10  2  0
 10 11  1  0
M  END
