
     RDKit          3D

 29 30  0  0  0  0  0  0  0  0999 V2000
    0.7660    0.6370    0.3020 O   0  0  0  0  0  0  0  0  0  0  0  0
    1.2990   -0.0940   -0.6030 C   0  0  0  0  0  0  0  0  0  0  0  0
    2.6190    0.2840   -0.9150 N   0  0  0  0  0  0  0  0  0  0  0  0
    3.2910    1.3920   -0.2420 C   0  0  0  0  0  0  0  0  0  0  0  0
    3.4360    1.2190    1.2280 C   0  0  0  0  0  0  0  0  0  0  0  0
    4.0920    2.3400    1.7450 O   0  0  0  0  0  0  0  0  0  0  0  0
    4.3100    2.2350    3.4490 P   0  0  0  0  0  0  0  0  0  0  0  0
    3.6360    0.7850    4.1090 O   0  0  0  0  0  0  0  0  0  0  0  0
    5.9610    2.4500    3.9130 O   0  0  0  0  0  0  0  0  0  0  0  0
    0.5420   -1.1650   -1.1920 C   0  0  0  0  0  0  0  0  0  0  0  0
   -0.8550   -1.4190   -0.8610 C   0  0  0  0  0  0  0  0  0  0  0  0
   -1.7440   -0.7280   -0.2890 C   0  0  0  0  0  0  0  0  0  0  0  0
   -3.1200   -1.3530   -0.1000 C   0  0  0  0  0  0  0  0  0  0  0  0
   -4.0960   -0.7160    0.4990 C   0  0  0  0  0  0  0  0  0  0  0  0
   -5.4540   -1.2640    0.7140 C   0  0  0  0  0  0  0  0  0  0  0  0
   -6.1680   -0.1930    1.4170 C   0  0  0  0  0  0  0  0  0  0  0  0
   -5.3500    0.8170    1.5830 C   0  0  0  0  0  0  0  0  0  0  0  0
   -4.1050    0.5540    1.0550 O   0  0  0  0  0  0  0  0  0  0  0  0
   -1.7390    0.6130    0.1160 N   0  0  0  0  0  0  0  0  0  0  0  0
   -1.8400    1.7310   -0.8140 C   0  0  1  0  0  0  0  0  0  0  0  0
   -3.0280    1.8040   -1.6960 C   0  0  0  0  0  0  0  0  0  0  0  0
   -3.5480    2.8610   -0.9170 O   0  0  0  0  0  0  0  0  0  0  0  0
   -2.3760    3.0020   -0.1730 C   0  0  0  0  0  0  0  0  0  0  0  0
    1.0750   -2.1890   -1.8960 C   0  0  0  0  0  0  0  0  0  0  0  0
    0.0770   -3.0800   -2.3610 F   0  0  0  0  0  0  0  0  0  0  0  0
    2.4170   -2.5700   -2.2260 C   0  0  1  0  0  0  0  0  0  0  0  0
    3.0320   -1.9240   -3.2780 F   0  0  0  0  0  0  0  0  0  0  0  0
    3.3160   -2.8810   -1.0610 C   0  0  0  0  0  0  0  0  0  0  0  0
    4.5880   -3.2280   -1.5370 O   0  0  0  0  0  0  0  0  0  0  0  0
  1  2  2  0
  2  3  1  0
  2 10  1  0
  3  4  1  0
  4  5  1  0
  5  6  1  0
  6  7  1  0
  7  8  1  0
  7  9  1  0
 10 11  1  0
 10 24  2  3
 11 12  2  3
 12 13  1  0
 12 19  1  0
 13 14  2  3
 14 15  1  0
 14 18  1  0
 15 16  1  0
 16 17  2  0
 17 18  1  0
 20 19  1  1
 20 21  1  0
 20 23  1  0
 21 22  1  0
 22 23  1  0
 24 25  1  0
 24 26  1  0
 26 27  1  1
 26 28  1  0
 28 29  1  0
M  END
