
     RDKit          3D

 28 28  0  0  0  0  0  0  0  0999 V2000
    0.5890   -0.0680    2.3920 O   0  0  0  0  0  0  0  0  0  0  0  0
    0.8010    0.1480    1.1710 C   0  0  0  0  0  0  0  0  0  0  0  0
    2.2040   -0.0600    0.7090 C   0  0  0  0  0  0  0  0  0  0  0  0
    2.2520    0.2170   -0.6320 O   0  0  0  0  0  0  0  0  0  0  0  0
    3.5170    0.0470   -1.1670 C   0  0  0  0  0  0  0  0  0  0  0  0
    4.5680    0.9110   -0.5570 C   0  0  0  0  0  0  0  0  0  0  0  0
    5.8020    0.6650   -1.1670 O   0  0  0  0  0  0  0  0  0  0  0  0
    6.4870   -0.5150   -1.1950 C   0  0  0  0  0  0  0  0  0  0  0  0
    6.0090   -1.5130   -0.6290 O   0  0  0  0  0  0  0  0  0  0  0  0
    7.7150   -0.6290   -1.8440 O   0  0  0  0  0  0  0  0  0  0  0  0
   -0.2310    0.5630    0.2810 N   0  0  0  0  0  0  0  0  0  0  0  0
   -1.5410    0.7390    0.8100 C   0  0  2  0  0  0  0  0  0  0  0  0
   -1.9310   -0.2830    1.6120 O   0  0  0  0  0  0  0  0  0  0  0  0
   -2.0030   -1.8460    1.0680 P   0  0  0  0  0  0  0  0  0  0  0  0
   -0.8290   -2.4360    0.0090 O   0  0  0  0  0  0  0  0  0  0  0  0
   -3.9680   -2.6390    0.5460 P   0  0  0  0  0  0  0  0  0  0  0  0
   -4.3230   -3.9630    1.6120 O   0  0  0  0  0  0  0  0  0  0  0  0
   -3.8950   -3.2780   -1.0670 O   0  0  0  0  0  0  0  0  0  0  0  0
   -2.5860    1.1420   -0.1700 C   0  0  2  0  0  0  0  0  0  0  0  0
   -3.7580    1.5300    0.5790 N   0  0  0  0  0  0  0  0  0  0  0  0
   -4.8810    1.1710   -0.2020 C   0  0  0  0  0  0  0  0  0  0  0  0
   -6.0820    1.5360    0.0400 O   0  0  0  0  0  0  0  0  0  0  0  0
   -4.4620    0.3520   -1.2830 N   0  0  0  0  0  0  0  0  0  0  0  0
   -3.0540    0.2130   -1.1520 C   0  0  0  0  0  0  0  0  0  0  0  0
   -2.4540   -0.6560   -1.8770 O   0  0  0  0  0  0  0  0  0  0  0  0
   -1.4080    2.2390    1.9600 P   0  0  0  0  0  0  0  0  0  0  0  0
    0.2670    2.5180    2.2800 O   0  0  0  0  0  0  0  0  0  0  0  0
   -2.0450    3.6570    1.2230 O   0  0  0  0  0  0  0  0  0  0  0  0
  1  2  2  0
  2  3  1  0
  2 11  1  0
  3  4  1  0
  4  5  1  0
  5  6  1  0
  6  7  1  0
  7  8  1  0
  8  9  2  0
  8 10  1  0
 12 11  1  6
 12 13  1  0
 12 19  1  0
 12 26  1  0
 13 14  1  0
 14 15  1  0
 14 16  1  0
 16 17  1  0
 16 18  1  0
 19 20  1  1
 19 24  1  0
 20 21  1  0
 21 22  2  0
 21 23  1  0
 23 24  1  0
 24 25  2  0
 26 27  1  0
 26 28  1  0
M  END
