
     RDKit          3D

 29 30  0  0  0  0  0  0  0  0999 V2000
   -5.4150   -4.2300   -0.0680 N   0  0  0  0  0  0  0  0  0  0  0  0
   -4.6860   -3.0220    0.0980 C   0  0  0  0  0  0  0  0  0  0  0  0
   -5.0760   -1.7790   -0.3390 C   0  0  0  0  0  0  0  0  0  0  0  0
   -4.1380   -0.9690    0.0110 O   0  0  0  0  0  0  0  0  0  0  0  0
   -3.1500   -1.5940    0.6530 C   0  0  0  0  0  0  0  0  0  0  0  0
   -1.9030   -0.9760    1.2040 C   0  0  0  0  0  0  0  0  0  0  0  0
   -0.8130   -0.9820    0.1480 C   0  0  2  0  0  0  0  0  0  0  0  0
   -0.5500   -2.4090   -0.2450 C   0  0  0  0  0  0  0  0  0  0  0  0
   -0.0290   -3.1850    0.9310 C   0  0  0  0  0  0  0  0  0  0  0  0
   -0.8390   -3.2790    2.0180 F   0  0  0  0  0  0  0  0  0  0  0  0
    0.4220   -0.5550    0.7840 O   0  0  0  0  0  0  0  0  0  0  0  0
    1.5360   -0.4200   -0.0220 C   0  0  0  0  0  0  0  0  0  0  0  0
    1.4860   -0.6430   -1.2600 O   0  0  0  0  0  0  0  0  0  0  0  0
    2.8340   -0.0100    0.5250 C   0  0  0  0  0  0  0  0  0  0  0  0
    2.9610    0.2420    1.8250 F   0  0  0  0  0  0  0  0  0  0  0  0
    3.8480    0.0970   -0.3000 C   0  0  0  0  0  0  0  0  0  0  0  0
    5.2130    0.5060    0.1430 C   0  0  0  0  0  0  0  0  0  0  0  0
    5.7690    2.0520   -0.7070 P   0  0  0  0  0  0  0  0  0  0  0  0
    7.0800    1.7880   -1.7870 O   0  0  0  0  0  0  0  0  0  0  0  0
    6.2650    3.2590    0.4660 O   0  0  0  0  0  0  0  0  0  0  0  0
   -1.0120   -0.1160   -0.8920 O   0  0  0  0  0  0  0  0  0  0  0  0
   -1.0370    1.2540   -0.8010 C   0  0  0  0  0  0  0  0  0  0  0  0
   -1.3570    2.0190   -1.9450 C   0  0  0  0  0  0  0  0  0  0  0  0
   -1.3920    3.3900   -1.9100 C   0  0  0  0  0  0  0  0  0  0  0  0
   -1.1140    4.0880   -0.7470 C   0  0  0  0  0  0  0  0  0  0  0  0
   -1.1470    5.4710   -0.7010 O   0  0  0  0  0  0  0  0  0  0  0  0
   -0.8010    3.3830    0.3710 C   0  0  0  0  0  0  0  0  0  0  0  0
   -0.7670    1.9920    0.3290 C   0  0  0  0  0  0  0  0  0  0  0  0
   -3.4980   -2.8780    0.7040 N   0  0  0  0  0  0  0  0  0  0  0  0
  1  2  1  0
  2  3  2  0
  2 29  1  0
  3  4  1  0
  4  5  1  0
  5  6  1  0
  5 29  2  0
  7  6  1  1
  7  8  1  0
  7 11  1  0
  7 21  1  0
  8  9  1  0
  9 10  1  0
 11 12  1  0
 12 13  2  0
 12 14  1  0
 14 15  1  0
 14 16  2  3
 16 17  1  0
 17 18  1  0
 18 19  1  0
 18 20  1  0
 21 22  1  0
 22 23  2  0
 22 28  1  0
 23 24  1  0
 24 25  2  0
 25 26  1  0
 25 27  1  0
 27 28  2  0
M  END
