
     RDKit          3D

 20 20  0  0  0  0  0  0  0  0999 V2000
    0.4980    4.1700   -0.2920 C   0  0  0  0  0  0  0  0  0  0  0  0
   -0.0270    2.7530   -0.3050 C   0  0  0  0  0  0  0  0  0  0  0  0
   -1.2220    2.5700   -0.7570 N   0  0  0  0  0  0  0  0  0  0  0  0
   -1.8790    1.3730   -0.8360 C   0  0  0  0  0  0  0  0  0  0  0  0
   -1.0680    0.3130   -0.3360 C   0  0  0  0  0  0  0  0  0  0  0  0
   -1.8840   -0.9140    0.0350 C   0  0  0  0  0  0  0  0  0  0  0  0
   -2.9100   -0.9330   -0.8370 O   0  0  0  0  0  0  0  0  0  0  0  0
   -4.3060   -1.6870   -0.3210 P   0  0  2  0  0  0  0  0  0  0  0  0
   -5.4420   -1.3570   -1.3090 O   0  0  0  0  0  0  0  0  0  0  0  0
   -4.6620   -0.8660    1.1800 O   0  0  0  0  0  0  0  0  0  0  0  0
   -4.1610   -3.3050   -0.0540 O   0  0  0  0  0  0  0  0  0  0  0  0
    0.1820    0.4520    0.0960 C   0  0  0  0  0  0  0  0  0  0  0  0
    1.0150   -0.8190    0.2330 C   0  0  0  0  0  0  0  0  0  0  0  0
    2.3580   -0.3740    0.3430 N   0  0  0  0  0  0  0  0  0  0  0  0
    3.3650   -1.0290   -0.4000 C   0  0  0  0  0  0  0  0  0  0  0  0
    3.9250   -2.3120   -0.1730 C   0  0  0  0  0  0  0  0  0  0  0  0
    3.6880   -3.3450   -0.7510 O   0  0  0  0  0  0  0  0  0  0  0  0
    4.8870   -2.3910    0.8830 O   0  0  0  0  0  0  0  0  0  0  0  0
    0.7440    1.7220    0.1290 C   0  0  0  0  0  0  0  0  0  0  0  0
    2.0240    1.8560    0.6360 O   0  0  0  0  0  0  0  0  0  0  0  0
  1  2  1  0
  2  3  2  0
  2 19  1  0
  3  4  1  0
  4  5  2  0
  5  6  1  0
  5 12  1  0
  6  7  1  0
  7  8  1  0
  8  9  2  0
  8 10  1  1
  8 11  1  0
 12 13  1  0
 12 19  2  0
 13 14  1  0
 14 15  1  0
 15 16  1  0
 16 17  2  0
 16 18  1  0
 19 20  1  0
M  END
