
     RDKit          3D

 20 21  0  0  0  0  0  0  0  0999 V2000
    3.9030    4.2620   -0.3240 O   0  0  0  0  0  0  0  0  0  0  0  0
    2.6800    3.6130    0.3640 P   0  0  0  0  0  0  0  0  0  0  0  0
    2.5850    1.9280    0.7510 O   0  0  0  0  0  0  0  0  0  0  0  0
    1.7020    1.2800   -0.1260 C   0  0  0  0  0  0  0  0  0  0  0  0
    1.6100   -0.1970    0.2030 C   0  0  2  0  0  0  0  0  0  0  0  0
    2.9100   -0.7990    0.0850 N   0  0  0  0  0  0  0  0  0  0  0  0
    3.5680   -1.3590    1.1970 C   0  0  0  0  0  0  0  0  0  0  0  0
    3.0070   -1.3320    2.3100 O   0  0  0  0  0  0  0  0  0  0  0  0
    4.8300   -1.9420    1.0780 O   0  0  0  0  0  0  0  0  0  0  0  0
    0.6700   -0.8810   -0.7070 C   0  0  0  0  0  0  0  0  0  0  0  0
    1.1020   -1.8320   -1.4260 O   0  0  0  0  0  0  0  0  0  0  0  0
   -0.6960   -0.5040   -0.7950 N   0  0  0  0  0  0  0  0  0  0  0  0
   -1.5130    0.4880   -0.1620 C   0  0  0  0  0  0  0  0  0  0  0  0
   -2.7040   -0.3790   -0.4790 C   0  0  1  0  0  0  0  0  0  0  0  0
   -1.8680   -0.9570   -1.5630 C   0  0  0  0  0  0  0  0  0  0  0  0
   -3.0530   -1.1700    0.5820 O   0  0  0  0  0  0  0  0  0  0  0  0
   -3.8790   -0.3120    1.3090 C   0  0  0  0  0  0  0  0  0  0  0  0
   -4.7770    0.1340    0.2770 O   0  0  0  0  0  0  0  0  0  0  0  0
   -3.9500    0.2860   -0.8230 C   0  0  0  0  0  0  0  0  0  0  0  0
   -4.2120    0.8690   -1.8910 O   0  0  0  0  0  0  0  0  0  0  0  0
  1  2  2  0
  2  3  1  0
  3  4  1  0
  5  4  1  6
  5  6  1  0
  5 10  1  0
  6  7  1  0
  7  8  2  0
  7  9  1  0
 10 11  2  0
 10 12  1  0
 12 13  1  0
 12 15  1  0
 14 13  1  1
 14 15  1  0
 14 16  1  0
 14 19  1  0
 16 17  1  0
 17 18  1  0
 18 19  1  0
 19 20  2  0
M  END
