
     RDKit          3D

 12 12  0  0  0  0  0  0  0  0999 V2000
    0.1030   -1.7110   -1.3440 C   0  0  0  0  0  0  0  0  0  0  0  0
    0.1710   -0.4260   -0.6160 C   0  0  0  0  0  0  0  0  0  0  0  0
    1.3130    0.3290   -0.7690 O   0  0  0  0  0  0  0  0  0  0  0  0
    2.4210   -0.0230   -0.0790 O   0  0  0  0  0  0  0  0  0  0  0  0
    3.4520    0.4410   -0.7530 O   0  0  0  0  0  0  0  0  0  0  0  0
    4.8700    0.1040    0.1410 Cl  0  0  0  0  0  0  0  0  0  0  0  0
   -0.8520    0.0100    0.1810 C   0  0  0  0  0  0  0  0  0  0  0  0
   -2.0050   -0.7330    0.3470 N   0  0  0  0  0  0  0  0  0  0  0  0
   -3.0320   -0.2460    1.1750 C   0  0  0  0  0  0  0  0  0  0  0  0
   -2.3830    1.3260    1.7670 P   0  0  0  0  0  0  0  0  0  0  0  0
   -0.7010    1.2300    0.8250 N   0  0  0  0  0  0  0  0  0  0  0  0
    0.4550    2.5150    0.9800 P   0  0  0  0  0  0  0  0  0  0  0  0
  1  2  1  0
  2  3  1  0
  2  7  2  3
  3  4  1  0
  4  5  1  0
  5  6  1  0
  7  8  1  0
  7 11  1  0
  8  9  1  0
  9 10  2  0
 10 11  1  0
 11 12  1  0
M  END
