
     RDKit          3D

 12 11  0  0  0  0  0  0  0  0999 V2000
   -3.0720   -0.7640    1.2940 C   0  0  0  0  0  0  0  0  0  0  0  0
   -2.3850   -0.2490   -0.3370 P   0  0  0  0  0  0  0  0  0  0  0  0
   -3.3940    1.1370   -1.0470 C   0  0  0  0  0  0  0  0  0  0  0  0
   -0.6210    0.1430   -0.2820 C   0  0  0  0  0  0  0  0  0  0  0  0
   -0.2650    1.3810   -0.2710 N   0  0  0  0  0  0  0  0  0  0  0  0
    1.0080    1.8330   -0.2320 O   0  0  0  0  0  0  0  0  0  0  0  0
    0.4090   -0.8850   -0.2500 C   0  0  0  0  0  0  0  0  0  0  0  0
    0.0790   -2.0990   -0.2600 O   0  0  0  0  0  0  0  0  0  0  0  0
    2.1930   -0.4830   -0.1940 P   0  0  0  0  0  0  0  0  0  0  0  0
    3.2840   -1.5710    0.2900 N   0  0  0  0  0  0  0  0  0  0  0  0
    4.6640   -1.2090    0.3160 C   0  0  0  0  0  0  0  0  0  0  0  0
    5.3250   -0.1860   -0.8090 P   0  0  0  0  0  0  0  0  0  0  0  0
  1  2  1  0
  2  3  1  0
  2  4  1  0
  4  5  2  3
  4  7  1  0
  5  6  1  0
  7  8  2  0
  7  9  1  0
  9 10  2  3
 10 11  1  0
 11 12  2  0
M  END
