
     RDKit          3D

 10 11  0  0  0  0  0  0  0  0999 V2000
   -2.9440   -0.0220   -0.4290 C   0  0  0  0  0  0  0  0  0  0  0  0
   -1.7670   -0.8180    0.0010 C   0  0  0  0  0  0  0  0  0  0  0  0
   -0.5560   -0.2960    0.0980 C   0  0  0  0  0  0  0  0  0  0  0  0
    0.5540   -1.0190    0.4960 O   0  0  0  0  0  0  0  0  0  0  0  0
    1.8100   -0.4470    0.5880 N   0  0  0  0  0  0  0  0  0  0  0  0
    2.9840   -1.1860    1.0030 C   0  0  0  0  0  0  0  0  0  0  0  0
    1.9610    0.9010    0.2700 N   0  0  0  0  0  0  0  0  0  0  0  0
    0.9900    1.6520   -0.1100 C   0  0  0  0  0  0  0  0  0  0  0  0
   -0.1520    2.4170   -0.5250 C   0  0  0  0  0  0  0  0  0  0  0  0
   -0.3790    1.1120   -0.2320 C   0  0  0  0  0  0  0  0  0  0  0  0
  1  2  1  0
  2  3  2  3
  3  4  1  0
  3 10  1  0
  4  5  1  0
  5  6  1  0
  5  7  1  0
  7  8  2  0
  8  9  1  0
  8 10  1  0
  9 10  2  0
M  END
