
     RDKit          3D

 12 12  0  0  0  0  0  0  0  0999 V2000
   -5.1130    0.5140   -0.2790 C   0  0  0  0  0  0  0  0  0  0  0  0
   -3.8230   -0.1330    0.5370 P   0  0  0  0  0  0  0  0  0  0  0  0
   -1.8860   -0.3740   -0.4410 P   0  0  0  0  0  0  0  0  0  0  0  0
   -0.5710    0.6560    0.4270 C   0  0  0  0  0  0  0  0  0  0  0  0
    0.5010   -0.3720    0.5100 C   0  0  0  0  0  0  0  0  0  0  0  0
    2.0960    0.1050    0.5800 P   0  0  0  0  0  0  0  0  0  0  0  0
    2.6460    1.7660    0.5630 N   0  0  0  0  0  0  0  0  0  0  0  0
    3.6630    2.1660   -0.0730 C   0  0  0  0  0  0  0  0  0  0  0  0
    4.6500    0.9900   -1.0440 P   0  0  0  0  0  0  0  0  0  0  0  0
    0.0800   -1.7220    0.5210 C   0  0  0  0  0  0  0  0  0  0  0  0
   -1.1300   -1.9810    0.0730 C   0  0  0  0  0  0  0  0  0  0  0  0
   -1.8070   -3.1790   -0.0390 O   0  0  0  0  0  0  0  0  0  0  0  0
  1  2  2  0
  2  3  1  0
  3  4  1  0
  3 11  1  0
  4  5  1  0
  5  6  2  3
  5 10  1  0
  6  7  1  0
  7  8  2  3
  8  9  1  0
 10 11  2  0
 11 12  1  0
M  END
