
     RDKit          3D

 30 32  0  0  0  0  0  0  0  0999 V2000
   -5.7520   -1.3520   -0.1010 C   0  0  0  0  0  0  0  0  0  0  0  0
   -5.0580   -1.2170    1.1930 C   0  0  0  0  0  0  0  0  0  0  0  0
   -3.7830   -1.3540    1.4060 C   0  0  0  0  0  0  0  0  0  0  0  0
   -2.7350   -1.5900    0.4400 C   0  0  0  0  0  0  0  0  0  0  0  0
   -1.7630   -2.2990    0.6450 O   0  0  0  0  0  0  0  0  0  0  0  0
   -2.8030   -0.8990   -0.8910 N   0  0  0  0  0  0  0  0  0  0  0  0
   -1.7330   -1.2760   -1.7470 C   0  0  0  0  0  0  0  0  0  0  0  0
   -0.7980   -0.2490   -1.4050 C   0  0  0  0  0  0  0  0  0  0  0  0
   -0.8080    0.9140   -1.3340 O   0  0  0  0  0  0  0  0  0  0  0  0
    0.7700   -0.9720   -0.9880 N   0  0  0  0  0  0  0  0  0  0  0  0
    1.5320    0.2580   -0.7920 C   0  0  0  0  0  0  0  0  0  0  0  0
    1.3460    1.3120   -0.5020 O   0  0  0  0  0  0  0  0  0  0  0  0
    2.9010   -0.1240   -1.0780 N   0  0  0  0  0  0  0  0  0  0  0  0
    4.0510    0.6670   -1.1830 C   0  0  0  0  0  0  0  0  0  0  0  0
    5.2220    0.0410   -0.4530 C   0  0  0  0  0  0  0  0  0  0  0  0
    6.2830   -0.6160   -1.0850 C   0  0  0  0  0  0  0  0  0  0  0  0
    6.1210   -1.2870   -2.3700 C   0  0  0  0  0  0  0  0  0  0  0  0
    7.2820   -0.6230   -0.1700 N   0  0  0  0  0  0  0  0  0  0  0  0
    6.9060   -0.0230    0.9230 N   0  0  0  0  0  0  0  0  0  0  0  0
    7.7330    0.2220    2.0790 C   0  0  0  0  0  0  0  0  0  0  0  0
    5.6250    0.4130    0.8390 C   0  0  0  0  0  0  0  0  0  0  0  0
    4.8080    1.0050    1.8390 N   0  0  0  0  0  0  0  0  0  0  0  0
   -3.5520    0.2880   -0.9630 C   0  0  0  0  0  0  0  0  0  0  0  0
   -3.4140    1.1600    0.0750 N   0  0  0  0  0  0  0  0  0  0  0  0
   -4.1800    2.2810   -0.1570 N   0  0  0  0  0  0  0  0  0  0  0  0
   -4.9720    2.1040   -1.3770 C   0  0  0  0  0  0  0  0  0  0  0  0
   -4.3660    0.8950   -1.9350 N   0  0  0  0  0  0  0  0  0  0  0  0
   -3.4770   -1.0620    2.8400 C   0  0  0  0  0  0  0  0  0  0  0  0
   -4.6470   -0.7100    3.3830 C   0  0  0  0  0  0  0  0  0  0  0  0
   -5.7380   -0.7350    2.4590 C   0  0  0  0  0  0  0  0  0  0  0  0
  1  2  1  0
  2  3  2  0
  2 30  1  0
  3  4  1  0
  3 28  1  0
  4  5  2  0
  4  6  1  0
  6  7  1  0
  6 23  1  0
  7  8  1  0
  8  9  2  0
  8 10  1  0
 10 11  1  0
 11 12  2  0
 11 13  1  0
 13 14  1  0
 14 15  1  0
 15 16  1  0
 15 21  2  0
 16 17  1  0
 16 18  2  0
 18 19  1  0
 19 20  1  0
 19 21  1  0
 21 22  1  0
 23 24  2  0
 23 27  1  0
 24 25  1  0
 25 26  1  0
 26 27  1  0
 28 29  2  0
 29 30  1  0
M  CHG  1  24   1
M  END
