
     RDKit          3D

 20 21  0  0  0  0  0  0  0  0999 V2000
    0.1310    1.5290    0.0120 O   0  0  0  0  0  0  0  0  0  0  0  0
   -0.2520    0.4410   -0.4950 C   0  0  0  0  0  0  0  0  0  0  0  0
    0.5950   -0.1430   -1.6020 C   0  0  0  0  0  0  0  0  0  0  0  0
    1.8560   -0.6040   -0.9910 N   0  0  0  0  0  0  0  0  0  0  0  0
    2.1500   -1.7600   -0.4430 N   0  0  0  0  0  0  0  0  0  0  0  0
    3.4180   -1.7680    0.0220 C   0  0  0  0  0  0  0  0  0  0  0  0
    3.9730   -0.5340   -0.2470 C   0  0  0  0  0  0  0  0  0  0  0  0
    5.3080   -0.0420    0.0550 C   0  0  0  0  0  0  0  0  0  0  0  0
    5.6690    1.1180   -0.3380 O   0  0  0  0  0  0  0  0  0  0  0  0
    6.2270   -0.7990    0.7710 O   0  0  0  0  0  0  0  0  0  0  0  0
    2.9720    0.1700   -0.8810 C   0  0  0  0  0  0  0  0  0  0  0  0
    3.0320    1.3430   -1.3080 O   0  0  0  0  0  0  0  0  0  0  0  0
   -1.4100   -0.1910   -0.0470 O   0  0  0  0  0  0  0  0  0  0  0  0
   -2.1490    0.3540    0.9670 C   0  0  0  0  0  0  0  0  0  0  0  0
   -1.7510    1.4250    1.4890 O   0  0  0  0  0  0  0  0  0  0  0  0
   -3.4060   -0.2370    1.5030 C   0  0  1  0  0  0  0  0  0  0  0  0
   -4.5000    0.7470    1.0670 C   0  0  0  0  0  0  0  0  0  0  0  0
   -4.6720    0.2760   -0.3770 C   0  0  0  0  0  0  0  0  0  0  0  0
   -4.0920   -0.9670   -0.4170 O   0  0  0  0  0  0  0  0  0  0  0  0
   -3.7900   -1.3660    0.7840 O   0  0  0  0  0  0  0  0  0  0  0  0
  1  2  2  0
  2  3  1  0
  2 13  1  0
  3  4  1  0
  4  5  1  0
  4 11  1  0
  5  6  1  0
  6  7  2  0
  7  8  1  0
  7 11  1  0
  8  9  2  0
  8 10  1  0
 11 12  2  0
 13 14  1  0
 14 15  2  0
 16 14  1  6
 16 17  1  0
 16 20  1  0
 17 18  1  0
 18 19  1  0
 19 20  1  0
M  END
