
     RDKit          3D

 20 21  0  0  0  0  0  0  0  0999 V2000
    2.2360   -1.5860    2.6840 O   0  0  0  0  0  0  0  0  0  0  0  0
    1.4280   -1.0300    1.8970 C   0  0  0  0  0  0  0  0  0  0  0  0
    0.0380   -1.2800    1.9570 O   0  0  0  0  0  0  0  0  0  0  0  0
   -0.8010   -0.6650    1.0960 O   0  0  0  0  0  0  0  0  0  0  0  0
   -0.4930    0.2210    0.1110 C   0  0  0  0  0  0  0  0  0  0  0  0
   -1.2650    0.8240   -0.7240 C   0  0  0  0  0  0  0  0  0  0  0  0
   -2.6890    0.7860   -0.9200 C   0  0  0  0  0  0  0  0  0  0  0  0
   -3.2780    1.5470   -1.9090 C   0  0  0  0  0  0  0  0  0  0  0  0
   -4.6740    1.3460   -1.9080 N   0  0  0  0  0  0  0  0  0  0  0  0
   -4.9920    0.4750   -0.9430 O   0  0  0  0  0  0  0  0  0  0  0  0
   -3.7770    0.0880   -0.2860 C   0  0  0  0  0  0  0  0  0  0  0  0
   -3.8050   -0.7630    0.7050 C   0  0  0  0  0  0  0  0  0  0  0  0
   -5.0480   -1.3020    1.1270 O   0  0  0  0  0  0  0  0  0  0  0  0
    0.9910    0.5180    0.0120 C   0  0  0  0  0  0  0  0  0  0  0  0
    1.4480    1.3040   -0.8300 O   0  0  0  0  0  0  0  0  0  0  0  0
    1.8810   -0.1160    0.9040 N   0  0  0  0  0  0  0  0  0  0  0  0
    3.2970    0.1670    0.8110 C   0  0  0  0  0  0  0  0  0  0  0  0
    4.0120   -0.7690   -0.1230 C   0  0  0  0  0  0  0  0  0  0  0  0
    5.3640   -0.3900   -0.1230 O   0  0  0  0  0  0  0  0  0  0  0  0
    6.0350   -1.1820   -0.9280 O   0  0  0  0  0  0  0  0  0  0  0  0
  1  2  2  0
  2  3  1  0
  2 16  1  0
  3  4  1  0
  4  5  1  0
  5  6  2  3
  5 14  1  0
  6  7  1  0
  7  8  2  0
  7 11  1  0
  8  9  1  0
  9 10  1  0
 10 11  1  0
 11 12  2  3
 12 13  1  0
 14 15  2  0
 14 16  1  0
 16 17  1  0
 17 18  1  0
 18 19  1  0
 19 20  1  0
M  END
