
     RDKit          3D

 20 21  0  0  0  0  0  0  0  0999 V2000
    1.8910   -3.9670    1.0640 O   0  0  0  0  0  0  0  0  0  0  0  0
    1.2140   -2.9580    0.7110 C   0  0  0  0  0  0  0  0  0  0  0  0
    1.4900   -1.6470    1.1740 N   0  0  0  0  0  0  0  0  0  0  0  0
    0.8330   -0.6870    0.2660 C   0  0  1  0  0  0  0  0  0  0  0  0
   -0.0960    0.1260    1.1280 C   0  0  0  0  0  0  0  0  0  0  0  0
   -1.0550   -0.6260    1.7670 O   0  0  0  0  0  0  0  0  0  0  0  0
   -1.8740    0.1570    2.5390 C   0  0  0  0  0  0  0  0  0  0  0  0
   -2.6290    1.2130    1.8060 C   0  0  0  0  0  0  0  0  0  0  0  0
   -3.4710    0.7000    0.8230 O   0  0  0  0  0  0  0  0  0  0  0  0
   -4.1030    1.6850    0.2210 O   0  0  0  0  0  0  0  0  0  0  0  0
    1.9070    0.1860   -0.2060 C   0  0  0  0  0  0  0  0  0  0  0  0
    3.1170    0.0940    0.0990 O   0  0  0  0  0  0  0  0  0  0  0  0
    1.5370    1.2530   -1.1060 N   0  0  0  0  0  0  0  0  0  0  0  0
    2.5000    2.1680   -1.6330 C   0  0  0  0  0  0  0  0  0  0  0  0
    3.1640    2.8870   -0.6420 O   0  0  0  0  0  0  0  0  0  0  0  0
    0.1910   -1.5740   -0.6970 C   0  0  1  0  0  0  0  0  0  0  0  0
   -1.0880   -1.2160   -1.3530 C   0  0  0  0  0  0  0  0  0  0  0  0
   -0.6870   -2.0490   -2.4280 O   0  0  0  0  0  0  0  0  0  0  0  0
    0.6280   -1.6220   -2.1150 C   0  0  0  0  0  0  0  0  0  0  0  0
    0.1240   -2.8740   -0.1420 O   0  0  0  0  0  0  0  0  0  0  0  0
  1  2  2  0
  2  3  1  0
  2 20  1  0
  3  4  1  0
  4  5  1  1
  4 11  1  0
  4 16  1  0
  5  6  1  0
  6  7  1  0
  7  8  1  0
  8  9  1  0
  9 10  1  0
 11 12  2  0
 11 13  1  0
 13 14  1  0
 14 15  1  0
 16 17  1  6
 16 19  1  0
 16 20  1  0
 17 18  1  0
 18 19  1  0
M  END
