
     RDKit          3D

 25 26  0  0  0  0  0  0  0  0999 V2000
    0.6040    2.5330    1.4210 C   0  0  0  0  0  0  0  0  0  0  0  0
   -0.5190    1.6230    1.1490 C   0  0  0  0  0  0  0  0  0  0  0  0
   -1.2740    1.7790    0.1070 C   0  0  0  0  0  0  0  0  0  0  0  0
   -2.3930    0.9520   -0.2580 C   0  0  0  0  0  0  0  0  0  0  0  0
   -3.1800    1.2000   -1.3230 C   0  0  0  0  0  0  0  0  0  0  0  0
   -4.3170    0.3270   -1.5640 C   0  0  0  0  0  0  0  0  0  0  0  0
   -4.6800   -0.6700   -0.7960 C   0  0  0  0  0  0  0  0  0  0  0  0
   -3.8690   -0.9140    0.4700 C   0  0  1  0  0  0  0  0  0  0  0  0
   -4.2400   -2.5160    1.2020 P   0  0  0  0  0  0  0  0  0  0  0  0
   -5.0310   -3.6420    0.1920 O   0  0  0  0  0  0  0  0  0  0  0  0
   -4.9530   -2.3560    2.7690 O   0  0  0  0  0  0  0  0  0  0  0  0
   -2.5260   -0.4710    0.2280 C   0  0  0  0  0  0  0  0  0  0  0  0
   -1.3970   -1.1920    0.2340 C   0  0  0  0  0  0  0  0  0  0  0  0
   -1.5700   -2.6270    0.7500 C   0  0  0  0  0  0  0  0  0  0  0  0
   -0.2290   -0.8400   -0.1410 O   0  0  0  0  0  0  0  0  0  0  0  0
    0.9420   -0.4850   -0.5340 C   0  0  0  0  0  0  0  0  0  0  0  0
    1.1660   -0.1470   -1.8800 C   0  0  0  0  0  0  0  0  0  0  0  0
    2.4010    0.2380   -2.3380 C   0  0  0  0  0  0  0  0  0  0  0  0
    3.4720    0.3030   -1.4700 C   0  0  0  0  0  0  0  0  0  0  0  0
    4.6840    0.6880   -1.9610 O   0  0  0  0  0  0  0  0  0  0  0  0
    5.8860    0.8200   -1.2470 C   0  0  0  0  0  0  0  0  0  0  0  0
    5.8430    1.8200   -0.1320 C   0  0  0  0  0  0  0  0  0  0  0  0
    3.3050   -0.0150   -0.1580 C   0  0  0  0  0  0  0  0  0  0  0  0
    2.0720   -0.3980    0.2970 C   0  0  0  0  0  0  0  0  0  0  0  0
    1.8840   -0.7240    1.6250 O   0  0  0  0  0  0  0  0  0  0  0  0
  1  2  1  0
  2  3  2  3
  3  4  1  0
  4  5  2  0
  4 12  1  0
  5  6  1  0
  6  7  2  0
  7  8  1  0
  8  9  1  6
  8 12  1  0
  9 10  1  0
  9 11  1  0
 12 13  2  3
 13 14  1  0
 13 15  1  0
 15 16  1  0
 16 17  2  0
 16 24  1  0
 17 18  1  0
 18 19  2  0
 19 20  1  0
 19 23  1  0
 20 21  1  0
 21 22  1  0
 23 24  2  0
 24 25  1  0
M  END
