
     RDKit          3D

 22 24  0  0  0  0  0  0  0  0999 V2000
    6.7420    0.8760   -0.6560 C   0  0  0  0  0  0  0  0  0  0  0  0
    5.5380    0.5590    0.0300 O   0  0  0  0  0  0  0  0  0  0  0  0
    4.3090    0.6160   -0.6100 C   0  0  0  0  0  0  0  0  0  0  0  0
    4.2750    0.9510   -1.8040 O   0  0  0  0  0  0  0  0  0  0  0  0
    3.0880    0.2770    0.1480 C   0  0  0  0  0  0  0  0  0  0  0  0
    3.1370   -0.0930    1.4680 C   0  0  0  0  0  0  0  0  0  0  0  0
    2.0230   -0.4140    2.2010 C   0  0  0  0  0  0  0  0  0  0  0  0
    0.7840   -0.3580    1.5600 C   0  0  0  0  0  0  0  0  0  0  0  0
    0.6840    0.0060    0.2430 C   0  0  0  0  0  0  0  0  0  0  0  0
   -0.5730    0.0800   -0.4690 C   0  0  0  0  0  0  0  0  0  0  0  0
   -0.6310    0.4210   -1.6930 O   0  0  0  0  0  0  0  0  0  0  0  0
   -1.8160   -0.2180    0.1370 N   0  0  0  0  0  0  0  0  0  0  0  0
   -3.0400   -0.1320   -0.6040 C   0  0  0  0  0  0  0  0  0  0  0  0
   -3.0790    0.2280   -1.8870 N   0  0  0  0  0  0  0  0  0  0  0  0
   -4.2600    0.2990   -2.5600 C   0  0  0  0  0  0  0  0  0  0  0  0
   -5.3860   -0.0000   -1.9050 N   0  0  0  0  0  0  0  0  0  0  0  0
   -5.4120   -0.3690   -0.6130 C   0  0  0  0  0  0  0  0  0  0  0  0
   -6.3730   -0.7140    0.2610 N   0  0  0  0  0  0  0  0  0  0  0  0
   -5.8220   -1.0000    1.4640 C   0  0  0  0  0  0  0  0  0  0  0  0
   -4.5130   -0.8270    1.3240 N   0  0  0  0  0  0  0  0  0  0  0  0
   -4.2080   -0.4370    0.0540 C   0  0  0  0  0  0  0  0  0  0  0  0
    1.8530    0.3240   -0.4610 C   0  0  0  0  0  0  0  0  0  0  0  0
  1  2  1  0
  2  3  1  0
  3  4  2  0
  3  5  1  0
  5  6  2  0
  5 22  1  0
  6  7  1  0
  7  8  2  0
  8  9  1  0
  9 10  1  0
  9 22  2  0
 10 11  2  0
 10 12  1  0
 12 13  1  0
 13 14  2  0
 13 21  1  0
 14 15  1  0
 15 16  2  0
 16 17  1  0
 17 18  1  0
 17 21  2  0
 18 19  2  0
 19 20  1  0
 20 21  1  0
M  END
