
     RDKit          3D

  8  8  0  0  0  0  0  0  0  0999 V2000
   -2.7880    0.4810    0.1860 O   0  0  0  0  0  0  0  0  0  0  0  0
   -1.5690    0.1720    0.0690 C   0  0  0  0  0  0  0  0  0  0  0  0
   -1.1640   -1.1360   -0.1070 C   0  0  0  0  0  0  0  0  0  0  0  0
    0.1540   -1.4380   -0.2300 N   0  0  0  0  0  0  0  0  0  0  0  0
    1.1080   -0.4840   -0.1860 C   0  0  0  0  0  0  0  0  0  0  0  0
    2.4480   -0.8270   -0.3150 O   0  0  0  0  0  0  0  0  0  0  0  0
    0.6820    0.8150   -0.0090 C   0  0  0  0  0  0  0  0  0  0  0  0
   -0.6350    1.1280    0.1150 N   0  0  0  0  0  0  0  0  0  0  0  0
  1  2  2  0
  2  3  1  0
  2  8  1  0
  3  4  2  0
  4  5  1  0
  5  6  1  0
  5  7  2  0
  7  8  1  0
M  END
