
     RDKit          3D

  9  9  0  0  0  0  0  0  0  0999 V2000
    2.0670   -0.0720    0.6620 O   0  0  0  0  0  0  0  0  0  0  0  0
    0.7570   -0.2890    0.2880 C   0  0  0  0  0  0  0  0  0  0  0  0
    0.2460   -1.5240    0.1590 N   0  0  0  0  0  0  0  0  0  0  0  0
   -1.0240   -1.7670   -0.2020 C   0  0  0  0  0  0  0  0  0  0  0  0
   -1.8180   -0.7140   -0.4450 N   0  0  0  0  0  0  0  0  0  0  0  0
   -1.3500    0.5430   -0.3290 C   0  0  0  0  0  0  0  0  0  0  0  0
   -2.1470    1.6240   -0.5720 F   0  0  0  0  0  0  0  0  0  0  0  0
   -0.0470    0.8040    0.0420 C   0  0  0  0  0  0  0  0  0  0  0  0
    0.4150    2.1260    0.1560 O   0  0  0  0  0  0  0  0  0  0  0  0
  1  2  1  0
  2  3  2  0
  2  8  1  0
  3  4  1  0
  4  5  2  0
  5  6  1  0
  6  7  1  0
  6  8  2  0
  8  9  1  0
M  END
