
     RDKit          3D

  9  9  0  0  0  0  0  0  0  0999 V2000
    2.3840    1.4300   -0.3390 O   0  0  0  0  0  0  0  0  0  0  0  0
    1.8820    0.2870   -0.0900 C   0  0  0  0  0  0  0  0  0  0  0  0
    2.6590   -0.8390    0.0680 O   0  0  0  0  0  0  0  0  0  0  0  0
    0.4200    0.1790    0.0330 C   0  0  0  0  0  0  0  0  0  0  0  0
   -0.4530    1.1860   -0.0950 C   0  0  0  0  0  0  0  0  0  0  0  0
   -0.1710    2.4970   -0.3610 F   0  0  0  0  0  0  0  0  0  0  0  0
   -1.7680    0.6770    0.0920 N   0  0  0  0  0  0  0  0  0  0  0  0
   -1.6500   -0.7560   -0.1770 C   0  0  0  0  0  0  0  0  0  0  0  0
   -0.3070   -1.0130    0.3070 N   0  0  0  0  0  0  0  0  0  0  0  0
  1  2  2  0
  2  3  1  0
  2  4  1  0
  4  5  2  0
  4  9  1  0
  5  6  1  0
  5  7  1  0
  7  8  1  0
  8  9  1  0
M  END
