
     RDKit          3D

  9  9  0  0  0  0  0  0  0  0999 V2000
   -1.1560   -2.1260    0.1420 O   0  0  0  0  0  0  0  0  0  0  0  0
   -0.4060   -1.1290    0.0490 C   0  0  0  0  0  0  0  0  0  0  0  0
    1.0110   -1.1000   -0.0400 N   0  0  0  0  0  0  0  0  0  0  0  0
    1.3660    0.2720   -0.1260 C   0  0  0  0  0  0  0  0  0  0  0  0
    2.7080    0.6800   -0.2280 O   0  0  0  0  0  0  0  0  0  0  0  0
    0.3290    1.0350   -0.0980 N   0  0  0  0  0  0  0  0  0  0  0  0
   -0.8620    0.2670    0.0110 C   0  0  0  0  0  0  0  0  0  0  0  0
   -2.1050    0.7130    0.0670 C   0  0  0  0  0  0  0  0  0  0  0  0
   -3.1860   -0.0870    0.1710 F   0  0  0  0  0  0  0  0  0  0  0  0
  1  2  2  0
  2  3  1  0
  2  7  1  0
  3  4  1  0
  4  5  1  0
  4  6  2  0
  6  7  1  0
  7  8  2  3
  8  9  1  0
M  END
