
     RDKit          3D

 29 30  0  0  0  0  0  0  0  0999 V2000
   -5.7960    0.6570    0.9940 C   0  0  0  0  0  0  0  0  0  0  0  0
   -5.9510   -0.4680   -0.0390 C   0  0  0  0  0  0  0  0  0  0  0  0
   -5.0290   -0.1920   -1.1540 C   0  0  0  0  0  0  0  0  0  0  0  0
   -5.5460    0.3470   -2.3300 C   0  0  0  0  0  0  0  0  0  0  0  0
   -4.7430    0.6620   -3.3930 C   0  0  0  0  0  0  0  0  0  0  0  0
   -3.4060    0.4430   -3.2970 C   0  0  0  0  0  0  0  0  0  0  0  0
   -2.5310    0.7400   -4.3390 O   0  0  0  0  0  0  0  0  0  0  0  0
   -2.8860   -0.0850   -2.1550 C   0  0  0  0  0  0  0  0  0  0  0  0
   -3.6980   -0.4140   -1.0550 C   0  0  0  0  0  0  0  0  0  0  0  0
   -3.0540   -1.0100    0.1070 C   0  0  0  0  0  0  0  0  0  0  0  0
   -3.3970   -2.2720    0.5070 C   0  0  0  0  0  0  0  0  0  0  0  0
   -2.7710   -2.7870    1.6400 C   0  0  0  0  0  0  0  0  0  0  0  0
   -1.8420   -2.0700    2.3430 C   0  0  0  0  0  0  0  0  0  0  0  0
   -1.2110   -2.5820    3.4810 O   0  0  0  0  0  0  0  0  0  0  0  0
   -1.4670   -0.7660    1.9540 C   0  0  0  0  0  0  0  0  0  0  0  0
   -0.5290   -0.1230    2.7060 O   0  0  0  0  0  0  0  0  0  0  0  0
    0.0240    1.1210    2.4890 C   0  0  0  0  0  0  0  0  0  0  0  0
    0.8630    1.2280    1.2470 C   0  0  0  0  0  0  0  0  0  0  0  0
    1.9890    0.2180    1.4090 C   0  0  0  0  0  0  0  0  0  0  0  0
    2.8760    0.2440    0.2360 N   0  0  0  0  0  0  0  0  0  0  0  0
    4.2000   -0.0900    0.7620 C   0  0  0  0  0  0  0  0  0  0  0  0
    5.1930    0.3700   -0.2290 C   0  0  0  0  0  0  0  0  0  0  0  0
    6.0930    1.2530    0.0960 C   0  0  0  0  0  0  0  0  0  0  0  0
    7.0870    1.7270   -0.8610 C   0  0  0  0  0  0  0  0  0  0  0  0
    8.0520    2.6830   -0.4890 N   0  0  0  0  0  0  0  0  0  0  0  0
    7.1040    1.2960   -2.0330 O   0  0  0  0  0  0  0  0  0  0  0  0
    5.1520   -0.1480   -1.5020 O   0  0  0  0  0  0  0  0  0  0  0  0
    5.1110   -1.5050   -1.8270 C   0  0  0  0  0  0  0  0  0  0  0  0
   -2.1030   -0.2860    0.8320 C   0  0  0  0  0  0  0  0  0  0  0  0
  1  2  1  0
  2  3  1  0
  3  4  2  0
  3  9  1  0
  4  5  1  0
  5  6  2  0
  6  7  1  0
  6  8  1  0
  8  9  2  0
  9 10  1  0
 10 11  2  0
 10 29  1  0
 11 12  1  0
 12 13  2  0
 13 14  1  0
 13 15  1  0
 15 16  1  0
 15 29  2  0
 16 17  1  0
 17 18  1  0
 18 19  1  0
 19 20  1  0
 20 21  1  0
 21 22  1  0
 22 23  2  3
 22 27  1  0
 23 24  1  0
 24 25  1  0
 24 26  2  0
 27 28  1  0
M  CHG  1  20   1
M  END
