
     RDKit          3D

 30 31  0  0  0  0  0  0  0  0999 V2000
    6.6480   -1.3090    0.6920 O   0  0  0  0  0  0  0  0  0  0  0  0
    5.3890   -1.1800    0.4570 C   0  0  0  0  0  0  0  0  0  0  0  0
    4.5870   -2.2720    1.0920 C   0  0  0  0  0  0  0  0  0  0  0  0
    3.5810   -2.8180    0.2770 O   0  0  0  0  0  0  0  0  0  0  0  0
    2.5990   -2.2160   -0.4900 C   0  0  0  0  0  0  0  0  0  0  0  0
    2.8300   -2.3910   -1.7740 O   0  0  0  0  0  0  0  0  0  0  0  0
    1.4550   -1.4850   -0.0940 N   0  0  0  0  0  0  0  0  0  0  0  0
    0.1020   -1.7460    0.0550 C   0  0  0  0  0  0  0  0  0  0  0  0
   -0.3400   -1.7980    1.2630 O   0  0  0  0  0  0  0  0  0  0  0  0
   -0.9600   -1.9810   -0.9920 C   0  0  1  0  0  0  0  0  0  0  0  0
   -2.3390   -1.7570   -0.4180 C   0  0  0  0  0  0  0  0  0  0  0  0
   -2.5870   -0.0870    0.2100 S   0  0  0  0  0  0  0  0  0  0  0  0
   -4.2870   -0.0110    0.8510 C   0  0  2  0  0  0  0  0  0  0  0  0
   -5.1760   -0.1570   -0.3080 N   0  0  0  0  0  0  0  0  0  0  0  0
   -5.2650    1.0960   -0.8640 O   0  0  0  0  0  0  0  0  0  0  0  0
   -6.2340    1.7690   -0.0930 C   0  0  0  0  0  0  0  0  0  0  0  0
   -5.9960    1.3310    1.3380 C   0  0  2  0  0  0  0  0  0  0  0  0
   -6.5040    2.2390    2.2300 O   0  0  0  0  0  0  0  0  0  0  0  0
   -4.5940    1.1790    1.4590 O   0  0  0  0  0  0  0  0  0  0  0  0
   -0.7200   -1.3560   -2.1980 O   0  0  0  0  0  0  0  0  0  0  0  0
    0.2320   -0.5630   -2.7130 C   0  0  0  0  0  0  0  0  0  0  0  0
    0.7380   -0.9900   -3.8170 O   0  0  0  0  0  0  0  0  0  0  0  0
    0.8170    0.7080   -2.2670 C   0  0  0  0  0  0  0  0  0  0  0  0
    2.6260    0.7830   -2.3480 S   0  0  0  0  0  0  0  0  0  0  0  0
    3.4460    1.6550   -1.0800 C   0  0  0  0  0  0  0  0  0  0  0  0
    4.1910    0.9950    0.0070 C   0  0  2  0  0  0  0  0  0  0  0  0
    5.1060    2.0780    0.5580 C   0  0  0  0  0  0  0  0  0  0  0  0
    6.3200    1.8050    0.6770 O   0  0  0  0  0  0  0  0  0  0  0  0
    4.6500    3.3210    0.9230 O   0  0  0  0  0  0  0  0  0  0  0  0
    4.8990   -0.1570   -0.2860 O   0  0  0  0  0  0  0  0  0  0  0  0
  1  2  2  0
  2  3  1  0
  2 30  1  0
  3  4  1  0
  4  5  1  0
  5  6  2  0
  5  7  1  0
  7  8  1  0
  8  9  2  0
  8 10  1  0
 10 11  1  1
 10 20  1  0
 11 12  1  0
 13 12  1  6
 13 14  1  0
 13 19  1  0
 14 15  1  0
 15 16  1  0
 16 17  1  0
 17 18  1  1
 17 19  1  0
 20 21  1  0
 21 22  2  0
 21 23  1  0
 23 24  1  0
 24 25  1  0
 25 26  1  0
 26 27  1  6
 26 30  1  0
 27 28  2  0
 27 29  1  0
M  END
