
     RDKit          3D

 31 32  0  0  0  0  0  0  0  0999 V2000
    6.2510    1.3310   -0.8930 C   0  0  0  0  0  0  0  0  0  0  0  0
    5.3280    0.1920   -0.5460 C   0  0  0  0  0  0  0  0  0  0  0  0
    4.1040    0.7210   -0.1080 O   0  0  0  0  0  0  0  0  0  0  0  0
    4.0000    1.5220    0.9980 C   0  0  0  0  0  0  0  0  0  0  0  0
    4.9990    1.8230    1.6840 O   0  0  0  0  0  0  0  0  0  0  0  0
    2.6740    2.0460    1.3980 C   0  0  0  0  0  0  0  0  0  0  0  0
    1.8510    0.8160    2.4490 S   0  0  0  0  0  0  0  0  0  0  0  0
    1.4560   -0.6810    1.4990 C   0  0  2  0  0  0  0  0  0  0  0  0
    2.7720   -1.2660    1.1540 N   0  0  0  0  0  0  0  0  0  0  0  0
    0.8500   -0.4220    0.3180 O   0  0  0  0  0  0  0  0  0  0  0  0
   -0.4980   -0.5360    0.1850 C   0  0  2  0  0  0  0  0  0  0  0  0
   -0.8110   -0.2120   -1.1210 O   0  0  0  0  0  0  0  0  0  0  0  0
   -0.2440   -0.9610   -2.0870 C   0  0  0  0  0  0  0  0  0  0  0  0
   -0.5670   -2.3630   -2.2420 C   0  0  0  0  0  0  0  0  0  0  0  0
   -1.5080   -3.1590   -1.5800 N   0  0  0  0  0  0  0  0  0  0  0  0
    0.1160   -3.0060   -3.1400 O   0  0  0  0  0  0  0  0  0  0  0  0
   -1.2340    0.5400    1.0230 C   0  0  2  0  0  0  0  0  0  0  0  0
   -0.9520    0.4300    2.3630 O   0  0  0  0  0  0  0  0  0  0  0  0
   -2.6330    0.4020    0.7820 O   0  0  0  0  0  0  0  0  0  0  0  0
   -3.3950    1.3780    0.1520 C   0  0  0  0  0  0  0  0  0  0  0  0
   -2.8150    2.4130   -0.2100 O   0  0  0  0  0  0  0  0  0  0  0  0
   -4.8230    1.1190   -0.0380 C   0  0  1  0  0  0  0  0  0  0  0  0
   -5.4750    2.2100   -0.6620 O   0  0  0  0  0  0  0  0  0  0  0  0
   -6.7280    1.6030   -0.9090 C   0  0  0  0  0  0  0  0  0  0  0  0
   -6.3210    0.4290   -1.6290 O   0  0  0  0  0  0  0  0  0  0  0  0
   -5.1270    0.0560   -1.0250 C   0  0  0  0  0  0  0  0  0  0  0  0
   -4.4670   -0.9710   -1.2810 O   0  0  0  0  0  0  0  0  0  0  0  0
   -1.0250   -1.7970    0.4690 O   0  0  0  0  0  0  0  0  0  0  0  0
   -0.6980   -2.5620    1.5620 C   0  0  0  0  0  0  0  0  0  0  0  0
   -1.2310   -3.6360    1.9150 O   0  0  0  0  0  0  0  0  0  0  0  0
    0.6370   -1.9050    2.5510 S   0  0  0  0  0  0  0  0  0  0  0  0
  1  2  1  0
  2  3  1  0
  3  4  1  0
  4  5  2  0
  4  6  1  0
  6  7  1  0
  7  8  1  0
  8  9  1  6
  8 10  1  0
  8 31  1  0
 10 11  1  0
 11 12  1  6
 11 17  1  0
 11 28  1  0
 12 13  1  0
 13 14  1  0
 14 15  1  0
 14 16  2  0
 17 18  1  1
 17 19  1  0
 19 20  1  0
 20 21  2  0
 22 20  1  6
 22 23  1  0
 22 26  1  0
 23 24  1  0
 24 25  1  0
 25 26  1  0
 26 27  2  0
 28 29  1  0
 29 30  2  0
 29 31  1  0
M  END
