
     RDKit          3D

 31 34  0  0  0  0  0  0  0  0999 V2000
    5.6840    1.0070   -2.1220 C   0  0  0  0  0  0  0  0  0  0  0  0
    5.1950   -0.3270   -1.6030 C   0  0  0  0  0  0  0  0  0  0  0  0
    5.1380   -0.3420   -0.0840 C   0  0  1  0  0  0  0  0  0  0  0  0
    4.2310    0.6580    0.5260 C   0  0  0  0  0  0  0  0  0  0  0  0
    3.2290    1.2670   -0.3600 C   0  0  0  0  0  0  0  0  0  0  0  0
    2.2160    2.0110   -0.0180 C   0  0  0  0  0  0  0  0  0  0  0  0
    1.8420    2.4170    1.3690 C   0  0  0  0  0  0  0  0  0  0  0  0
    0.5480    1.7870    1.8360 C   0  0  0  0  0  0  0  0  0  0  0  0
   -0.6040    2.1940    0.9530 C   0  0  0  0  0  0  0  0  0  0  0  0
   -1.9120    1.5660    1.3840 C   0  0  1  0  0  0  0  0  0  0  0  0
   -2.9470    2.6740    1.5050 C   0  0  0  0  0  0  0  0  0  0  0  0
   -3.7440    2.5110    0.2350 C   0  0  0  0  0  0  0  0  0  0  0  0
   -3.8790    1.0200    0.1960 C   0  0  1  0  0  0  0  0  0  0  0  0
   -4.2750    0.4640   -1.1300 C   0  0  2  0  0  0  0  0  0  0  0  0
   -5.5840    0.9530   -1.6460 C   0  0  0  0  0  0  0  0  0  0  0  0
   -4.1990   -1.0220   -1.0670 C   0  0  2  0  0  0  0  0  0  0  0  0
   -5.5390   -1.5520   -0.5620 C   0  0  0  0  0  0  0  0  0  0  0  0
   -3.0770   -1.5810   -0.2900 C   0  0  0  0  0  0  0  0  0  0  0  0
   -2.4580   -0.7510    0.6610 N   0  0  0  0  0  0  0  0  0  0  0  0
   -1.4520   -1.3730    1.4420 C   0  0  0  0  0  0  0  0  0  0  0  0
   -0.2000   -1.8830    0.8300 C   0  0  0  0  0  0  0  0  0  0  0  0
    0.4290   -3.0230    1.2450 C   0  0  0  0  0  0  0  0  0  0  0  0
    1.6530   -3.4950    0.6640 C   0  0  0  0  0  0  0  0  0  0  0  0
    2.2710   -2.8230   -0.3550 C   0  0  0  0  0  0  0  0  0  0  0  0
    1.6450   -1.6760   -0.7790 C   0  0  0  0  0  0  0  0  0  0  0  0
    0.4280   -1.2200   -0.1900 C   0  0  0  0  0  0  0  0  0  0  0  0
    3.5940   -3.2960   -0.9450 C   0  0  0  0  0  0  0  0  0  0  0  0
    4.7020   -2.8530   -0.2440 O   0  0  0  0  0  0  0  0  0  0  0  0
    4.9910   -1.7290    0.4430 C   0  0  0  0  0  0  0  0  0  0  0  0
    5.1760   -1.8120    1.7140 O   0  0  0  0  0  0  0  0  0  0  0  0
   -2.4110    0.6100    0.3950 C   0  0  2  0  0  0  0  0  0  0  0  0
  1  2  1  0
  3  2  1  6
  3  4  1  0
  3 29  1  0
  4  5  1  0
  5  6  2  0
  6  7  1  0
  7  8  1  0
  8  9  1  0
 10  9  1  6
 10 11  1  0
 10 31  1  0
 11 12  1  0
 13 12  1  6
 13 14  1  0
 13 31  1  0
 14 15  1  1
 14 16  1  0
 16 17  1  1
 16 18  1  0
 18 19  1  0
 19 20  1  0
 31 19  1  1
 20 21  1  0
 21 22  2  0
 21 26  1  0
 22 23  1  0
 23 24  2  0
 24 25  1  0
 24 27  1  0
 25 26  2  0
 27 28  1  0
 28 29  1  0
 29 30  2  0
M  END
