
     RDKit          3D

 32 35  0  0  0  0  0  0  0  0999 V2000
   -3.9520   -1.7160   -2.9840 C   0  0  0  0  0  0  0  0  0  0  0  0
   -3.4350   -2.4210   -1.7550 C   0  0  0  0  0  0  0  0  0  0  0  0
   -2.6320   -1.4730   -0.9650 C   0  0  0  0  0  0  0  0  0  0  0  0
   -1.3220   -1.7430   -0.7940 C   0  0  0  0  0  0  0  0  0  0  0  0
   -0.5710   -0.7260   -0.0220 C   0  0  0  0  0  0  0  0  0  0  0  0
    0.5820   -0.2210   -0.5580 C   0  0  0  0  0  0  0  0  0  0  0  0
    0.9920   -0.6500   -1.7420 O   0  0  0  0  0  0  0  0  0  0  0  0
    1.5570   -0.4930   -2.9510 C   0  0  0  0  0  0  0  0  0  0  0  0
    2.3580   -1.7090   -3.4370 C   0  0  0  0  0  0  0  0  0  0  0  0
    3.2220   -2.2490   -2.3510 C   0  0  0  0  0  0  0  0  0  0  0  0
    4.6780   -2.1980   -2.7420 C   0  0  0  0  0  0  0  0  0  0  0  0
    4.9630   -2.8660   -3.7800 O   0  0  0  0  0  0  0  0  0  0  0  0
    5.6700   -1.4920   -2.0540 N   0  0  0  0  0  0  0  0  0  0  0  0
    5.7000   -0.1100   -1.6810 C   0  0  0  0  0  0  0  0  0  0  0  0
    4.5060    0.4820   -1.2030 C   0  0  0  0  0  0  0  0  0  0  0  0
    3.5810    0.9530   -0.8200 C   0  0  0  0  0  0  0  0  0  0  0  0
    2.4260    1.5330   -0.3580 C   0  0  0  0  0  0  0  0  0  0  0  0
    1.3120    0.7890    0.2490 C   0  0  0  0  0  0  0  0  0  0  0  0
    0.8800    1.1710    1.4590 C   0  0  0  0  0  0  0  0  0  0  0  0
    1.6400    2.1590    2.1920 C   0  0  0  0  0  0  0  0  0  0  0  0
    3.0640    2.4130    1.8980 C   0  0  0  0  0  0  0  0  0  0  0  0
    1.0570    2.7470    3.2450 C   0  0  0  0  0  0  0  0  0  0  0  0
   -0.2670    2.3790    3.6620 C   0  0  0  0  0  0  0  0  0  0  0  0
   -0.8870    3.0850    4.8540 C   0  0  0  0  0  0  0  0  0  0  0  0
   -0.9830    1.4380    3.0690 C   0  0  0  0  0  0  0  0  0  0  0  0
   -2.3430    1.1900    3.6310 C   0  0  0  0  0  0  0  0  0  0  0  0
   -0.3730    0.5980    2.0530 C   0  0  1  0  0  0  0  0  0  0  0  0
   -1.1940   -0.2190    1.1730 C   0  0  1  0  0  0  0  0  0  0  0  0
   -2.5910    0.1470    0.8930 C   0  0  0  0  0  0  0  0  0  0  0  0
   -3.2500   -0.4820   -0.1110 C   0  0  0  0  0  0  0  0  0  0  0  0
   -4.6630   -0.0220   -0.3220 C   0  0  0  0  0  0  0  0  0  0  0  0
   -5.6090   -1.1500   -0.0560 C   0  0  0  0  0  0  0  0  0  0  0  0
  1  2  1  0
  2  3  1  0
  3  4  2  0
  3 30  1  0
  4  5  1  0
  5  6  2  0
  5 28  1  0
  6  7  1  0
  6 18  1  0
  7  8  1  0
  8  9  1  0
  9 10  1  0
 10 11  1  0
 11 12  2  0
 11 13  1  0
 13 14  1  0
 14 15  1  0
 15 16  3  0
 16 17  1  0
 17 18  1  0
 18 19  2  0
 19 20  1  0
 19 27  1  0
 20 21  1  0
 20 22  2  0
 22 23  1  0
 23 24  1  0
 23 25  2  0
 25 26  1  0
 27 25  1  6
 27 28  1  0
 28 29  1  6
 29 30  2  0
 30 31  1  0
 31 32  1  0
M  END
