
     RDKit          3D

 32 35  0  0  0  0  0  0  0  0999 V2000
    4.4770   -3.1360    2.7650 C   0  0  0  0  0  0  0  0  0  0  0  0
    4.4990   -2.4940    1.4040 C   0  0  0  0  0  0  0  0  0  0  0  0
    5.3140   -2.9430    0.4060 C   0  0  0  0  0  0  0  0  0  0  0  0
    5.3130   -2.3280   -0.8430 C   0  0  0  0  0  0  0  0  0  0  0  0
    4.4810   -1.2480   -1.0890 C   0  0  0  0  0  0  0  0  0  0  0  0
    3.6630   -0.8020   -0.0780 C   0  0  0  0  0  0  0  0  0  0  0  0
    2.7800    0.3780   -0.4070 C   0  0  2  0  0  0  0  0  0  0  0  0
    1.8070   -0.0910   -1.4100 C   0  0  0  0  0  0  0  0  0  0  0  0
    0.8500   -1.0780   -0.7240 C   0  0  0  0  0  0  0  0  0  0  0  0
   -0.5360   -0.9370   -1.1840 C   0  0  0  0  0  0  0  0  0  0  0  0
   -0.7450   -0.8130   -2.4180 O   0  0  0  0  0  0  0  0  0  0  0  0
   -1.6790   -0.9290   -0.3160 N   0  0  0  0  0  0  0  0  0  0  0  0
   -1.6560   -0.2640    0.9900 C   0  0  0  0  0  0  0  0  0  0  0  0
   -2.9350    0.5670    1.1720 C   0  0  1  0  0  0  0  0  0  0  0  0
   -3.0370    1.6200    0.1260 C   0  0  0  0  0  0  0  0  0  0  0  0
   -3.5130    2.9490    0.6340 C   0  0  0  0  0  0  0  0  0  0  0  0
   -2.6140    3.9690    0.6610 C   0  0  0  0  0  0  0  0  0  0  0  0
   -1.2150    3.6860    0.1840 C   0  0  0  0  0  0  0  0  0  0  0  0
   -0.1960    3.2740    1.0190 C   0  0  0  0  0  0  0  0  0  0  0  0
    1.1190    2.9850    0.5790 C   0  0  0  0  0  0  0  0  0  0  0  0
    1.4820    3.0950   -0.7420 C   0  0  0  0  0  0  0  0  0  0  0  0
    0.4870    3.5050   -1.5980 C   0  0  0  0  0  0  0  0  0  0  0  0
   -0.8240    3.7900   -1.1360 C   0  0  0  0  0  0  0  0  0  0  0  0
    2.8770    2.7790   -1.2350 C   0  0  0  0  0  0  0  0  0  0  0  0
    3.5830    1.5810   -0.6930 C   0  0  0  0  0  0  0  0  0  0  0  0
   -4.1510   -0.3610    1.0470 C   0  0  1  0  0  0  0  0  0  0  0  0
   -5.0190    0.1200    0.0390 O   0  0  0  0  0  0  0  0  0  0  0  0
   -3.7310   -1.7450    0.6010 C   0  0  1  0  0  0  0  0  0  0  0  0
   -5.0290   -2.5030    0.3240 C   0  0  0  0  0  0  0  0  0  0  0  0
   -2.9280   -1.5750   -0.6700 C   0  0  2  0  0  0  0  0  0  0  0  0
   -2.7300   -2.8900   -1.3880 C   0  0  0  0  0  0  0  0  0  0  0  0
    3.6690   -1.4120    1.1490 C   0  0  0  0  0  0  0  0  0  0  0  0
  1  2  1  0
  2  3  2  0
  2 32  1  0
  3  4  1  0
  4  5  2  0
  5  6  1  0
  7  6  1  6
  6 32  2  0
  7  8  1  0
  7 25  1  0
  8  9  1  0
  9 10  1  0
 10 11  2  0
 10 12  1  0
 12 13  1  0
 12 30  1  0
 13 14  1  0
 14 15  1  6
 14 26  1  0
 15 16  1  0
 16 17  2  0
 17 18  1  0
 18 19  2  0
 18 23  1  0
 19 20  1  0
 20 21  2  0
 21 22  1  0
 21 24  1  0
 22 23  2  0
 24 25  1  0
 26 27  1  6
 26 28  1  0
 28 29  1  6
 28 30  1  0
 30 31  1  1
M  END
