
     RDKit          3D

 39 43  0  0  0  0  0  0  0  0999 V2000
    9.3590    2.9680   -0.7200 C   0  0  0  0  0  0  0  0  0  0  0  0
    8.2680    1.9900   -0.5470 C   0  0  0  0  0  0  0  0  0  0  0  0
    7.0970    2.4650   -0.3880 O   0  0  0  0  0  0  0  0  0  0  0  0
    8.4440    0.5870   -0.5490 N   0  0  0  0  0  0  0  0  0  0  0  0
    7.3160   -0.2830   -0.3720 C   0  0  0  0  0  0  0  0  0  0  0  0
    6.0600    0.0960   -0.1940 O   0  0  0  0  0  0  0  0  0  0  0  0
    5.2750   -0.9350   -0.0650 C   0  0  0  0  0  0  0  0  0  0  0  0
    3.8380   -0.8530    0.1440 N   0  0  0  0  0  0  0  0  0  0  0  0
    2.9740   -1.4800   -0.7840 C   0  0  0  0  0  0  0  0  0  0  0  0
    3.2600   -2.2300   -1.7590 O   0  0  0  0  0  0  0  0  0  0  0  0
    1.3200   -0.9790   -0.2830 S   0  0  0  0  0  0  0  0  0  0  0  0
    1.8020   -0.2230    1.2460 C   0  0  0  0  0  0  0  0  0  0  0  0
    1.0160    0.2030    2.1790 C   0  0  0  0  0  0  0  0  0  0  0  0
   -0.4270    0.0990    2.0610 C   0  0  0  0  0  0  0  0  0  0  0  0
   -1.2440   -0.2890    3.0940 C   0  0  0  0  0  0  0  0  0  0  0  0
   -2.6150   -0.3820    3.0060 C   0  0  0  0  0  0  0  0  0  0  0  0
   -3.1770   -0.0650    1.8150 N   0  0  0  0  0  0  0  0  0  0  0  0
   -2.4280    0.3210    0.7700 C   0  0  0  0  0  0  0  0  0  0  0  0
   -3.0480    0.6430   -0.4590 O   0  0  0  0  0  0  0  0  0  0  0  0
   -4.4230    0.5680   -0.5930 C   0  0  0  0  0  0  0  0  0  0  0  0
   -4.8270   -0.5990   -1.1060 C   0  0  0  0  0  0  0  0  0  0  0  0
   -3.7100   -1.3640   -1.3470 C   0  0  0  0  0  0  0  0  0  0  0  0
   -3.8440   -2.6440   -1.8710 C   0  0  0  0  0  0  0  0  0  0  0  0
   -5.0700   -3.1900   -2.1660 C   0  0  0  0  0  0  0  0  0  0  0  0
   -6.1810   -2.4370   -1.9290 C   0  0  0  0  0  0  0  0  0  0  0  0
   -6.0580   -1.1570   -1.4050 C   0  0  0  0  0  0  0  0  0  0  0  0
   -7.3290   -0.7820   -1.2970 C   0  0  0  0  0  0  0  0  0  0  0  0
   -8.0430    0.4000   -0.8110 C   0  0  0  0  0  0  0  0  0  0  0  0
   -7.6220    1.5530   -0.3160 C   0  0  0  0  0  0  0  0  0  0  0  0
   -6.3290    2.1680   -0.0340 C   0  0  0  0  0  0  0  0  0  0  0  0
   -5.0550    1.7990   -0.1360 C   0  0  0  0  0  0  0  0  0  0  0  0
   -4.1290    2.8800    0.2800 C   0  0  0  0  0  0  0  0  0  0  0  0
   -1.0360    0.4110    0.8710 C   0  0  0  0  0  0  0  0  0  0  0  0
    3.2410   -0.1930    1.2080 C   0  0  0  0  0  0  0  0  0  0  0  0
    3.9070    0.4160    2.1200 O   0  0  0  0  0  0  0  0  0  0  0  0
    6.0400   -2.0190   -0.1610 N   0  0  0  0  0  0  0  0  0  0  0  0
    7.3180   -1.6530   -0.3530 C   0  0  0  0  0  0  0  0  0  0  0  0
    8.4650   -2.5290   -0.5090 C   0  0  0  0  0  0  0  0  0  0  0  0
    9.6380   -2.1210   -0.6870 O   0  0  0  0  0  0  0  0  0  0  0  0
  1  2  1  0
  2  3  2  0
  2  4  1  0
  4  5  1  0
  5  6  1  0
  5 37  2  0
  6  7  1  0
  7  8  1  0
  7 36  2  0
  8  9  1  0
  8 34  1  0
  9 10  2  0
  9 11  1  0
 11 12  1  0
 12 13  2  3
 12 34  1  0
 13 14  1  0
 14 15  2  0
 14 33  1  0
 15 16  1  0
 16 17  2  0
 17 18  1  0
 18 19  1  0
 18 33  2  0
 19 20  1  0
 20 21  2  0
 20 31  1  0
 21 22  1  0
 21 26  1  0
 22 23  2  0
 23 24  1  0
 24 25  2  0
 25 26  1  0
 26 27  2  0
 27 28  1  0
 28 29  2  0
 29 30  1  0
 30 31  2  0
 31 32  1  0
 34 35  2  0
 36 37  1  0
 37 38  1  0
 38 39  2  0
M  END
