
     RDKit          3D

 39 43  0  0  0  0  0  0  0  0999 V2000
   -7.7050   -1.3200   -0.2180 C   0  0  0  0  0  0  0  0  0  0  0  0
   -6.8110   -1.3130   -1.1710 C   0  0  0  0  0  0  0  0  0  0  0  0
   -5.4630   -1.8950   -0.9200 C   0  0  0  0  0  0  0  0  0  0  0  0
   -4.4670   -0.8600   -1.4000 C   0  0  2  0  0  0  0  0  0  0  0  0
   -4.7350    0.5100   -0.7990 C   0  0  1  0  0  0  0  0  0  0  0  0
   -4.6500    0.4990    0.6860 C   0  0  0  0  0  0  0  0  0  0  0  0
   -3.3260    1.0960    0.9620 N   0  0  0  0  0  0  0  0  0  0  0  0
   -2.4800    0.6970    2.0240 C   0  0  0  0  0  0  0  0  0  0  0  0
   -1.2140    0.9660    2.2860 C   0  0  0  0  0  0  0  0  0  0  0  0
   -0.3060    1.7930    1.4780 C   0  0  0  0  0  0  0  0  0  0  0  0
    0.9850    1.0370    1.1670 C   0  0  0  0  0  0  0  0  0  0  0  0
    1.1290   -0.1350    1.5320 O   0  0  0  0  0  0  0  0  0  0  0  0
    2.0170    1.6720    0.4630 N   0  0  0  0  0  0  0  0  0  0  0  0
    3.2900    1.1550    0.0770 C   0  0  0  0  0  0  0  0  0  0  0  0
    3.6980   -0.0500    0.3540 C   0  0  0  0  0  0  0  0  0  0  0  0
    4.9740   -0.5760   -0.0400 C   0  0  0  0  0  0  0  0  0  0  0  0
    5.4150   -0.5900   -1.2880 N   0  0  0  0  0  0  0  0  0  0  0  0
    6.5900   -1.0640   -1.7020 C   0  0  0  0  0  0  0  0  0  0  0  0
    7.4870   -1.6140   -0.7670 C   0  0  0  0  0  0  0  0  0  0  0  0
    8.6960   -2.1280   -1.0080 C   0  0  0  0  0  0  0  0  0  0  0  0
    9.3410   -2.2140   -2.4200 C   0  0  0  0  0  0  0  0  0  0  0  0
    9.4570   -2.6280    0.0250 C   0  0  0  0  0  0  0  0  0  0  0  0
    8.3480   -2.3420    1.4820 S   0  0  0  0  0  0  0  0  0  0  0  0
    7.0100   -1.5890    0.5180 C   0  0  0  0  0  0  0  0  0  0  0  0
    5.8100   -1.1000    0.9050 N   0  0  0  0  0  0  0  0  0  0  0  0
    4.1440    2.1000   -0.6290 C   0  0  0  0  0  0  0  0  0  0  0  0
    5.2750    1.8080   -1.0090 O   0  0  0  0  0  0  0  0  0  0  0  0
    3.6520    3.3830   -0.8800 O   0  0  0  0  0  0  0  0  0  0  0  0
    4.4900    4.3160   -1.5760 C   0  0  0  0  0  0  0  0  0  0  0  0
   -0.8050    0.3000    3.5950 C   0  0  0  0  0  0  0  0  0  0  0  0
   -1.7580   -0.9110    3.5590 C   0  0  0  0  0  0  0  0  0  0  0  0
   -3.0060   -0.1800    3.1600 C   0  0  0  0  0  0  0  0  0  0  0  0
   -3.2110    2.0180   -0.1070 C   0  0  0  0  0  0  0  0  0  0  0  0
   -2.7650    3.1760    0.0240 O   0  0  0  0  0  0  0  0  0  0  0  0
   -3.6940    1.3490   -1.2460 O   0  0  0  0  0  0  0  0  0  0  0  0
   -4.5980   -0.7690   -2.8960 C   0  0  0  0  0  0  0  0  0  0  0  0
   -5.9210   -0.4760   -3.2670 O   0  0  0  0  0  0  0  0  0  0  0  0
   -7.0430   -0.7600   -2.4970 C   0  0  0  0  0  0  0  0  0  0  0  0
   -8.2700   -0.5560   -2.9090 C   0  0  0  0  0  0  0  0  0  0  0  0
  1  2  2  0
  2  3  1  0
  2 38  1  0
  4  3  1  1
  4  5  1  0
  4 36  1  0
  5  6  1  1
  5 35  1  0
  6  7  1  0
  7  8  1  0
  7 33  1  0
  8  9  2  0
  8 32  1  0
  9 10  1  0
  9 30  1  0
 10 11  1  0
 11 12  2  0
 11 13  1  0
 13 14  1  0
 14 15  2  3
 14 26  1  0
 15 16  1  0
 16 17  2  0
 16 25  1  0
 17 18  1  0
 18 19  2  0
 19 20  1  0
 19 24  1  0
 20 21  1  0
 20 22  2  0
 22 23  1  0
 23 24  1  0
 24 25  2  0
 26 27  2  0
 26 28  1  0
 28 29  1  0
 30 31  1  0
 31 32  1  0
 33 34  2  0
 33 35  1  0
 36 37  1  0
 37 38  1  0
 38 39  2  0
M  END
