
     RDKit          3D

 39 43  0  0  0  0  0  0  0  0999 V2000
   -2.2410    1.8500    1.5640 C   0  0  0  0  0  0  0  0  0  0  0  0
   -1.7640    0.5530    0.9790 C   0  0  1  0  0  0  0  0  0  0  0  0
   -2.7210    0.1270   -0.1000 C   0  0  0  0  0  0  0  0  0  0  0  0
   -4.0630   -0.0410    0.5090 C   0  0  0  0  0  0  0  0  0  0  0  0
   -4.2230    0.1910    1.7380 O   0  0  0  0  0  0  0  0  0  0  0  0
   -5.1950   -0.4590   -0.2460 N   0  0  0  0  0  0  0  0  0  0  0  0
   -5.0140   -0.7280   -1.6510 C   0  0  0  0  0  0  0  0  0  0  0  0
   -4.8920   -2.2110   -1.9350 C   0  0  0  0  0  0  0  0  0  0  0  0
   -5.9020   -2.9670   -1.3960 O   0  0  0  0  0  0  0  0  0  0  0  0
   -5.9580   -2.9810   -0.0240 C   0  0  0  0  0  0  0  0  0  0  0  0
   -6.9650   -1.9760    0.5100 C   0  0  2  0  0  0  0  0  0  0  0  0
   -8.2220   -2.1540   -0.3150 C   0  0  0  0  0  0  0  0  0  0  0  0
   -6.4460   -0.5780    0.4790 C   0  0  0  0  0  0  0  0  0  0  0  0
   -0.4120    0.6320    0.5390 N   0  0  0  0  0  0  0  0  0  0  0  0
    0.6970   -0.1300    1.0140 C   0  0  0  0  0  0  0  0  0  0  0  0
    0.6930   -1.0090    1.9060 O   0  0  0  0  0  0  0  0  0  0  0  0
    1.8510    0.3160    0.2540 C   0  0  0  0  0  0  0  0  0  0  0  0
    3.1170   -0.0550    0.2900 C   0  0  0  0  0  0  0  0  0  0  0  0
    3.5670   -1.0730    1.1990 C   0  0  0  0  0  0  0  0  0  0  0  0
    4.8140   -1.4920    1.2880 C   0  0  0  0  0  0  0  0  0  0  0  0
    5.8240   -0.9460    0.4660 N   0  0  0  0  0  0  0  0  0  0  0  0
    7.1780   -1.4390    0.5990 C   0  0  0  0  0  0  0  0  0  0  0  0
    8.1600   -0.8930   -0.2160 C   0  0  0  0  0  0  0  0  0  0  0  0
    9.4710   -1.3520   -0.1060 C   0  0  0  0  0  0  0  0  0  0  0  0
    9.7530   -2.3290    0.8050 C   0  0  0  0  0  0  0  0  0  0  0  0
    8.7870   -2.8650    1.6060 C   0  0  0  0  0  0  0  0  0  0  0  0
    7.4720   -2.4200    1.5100 C   0  0  0  0  0  0  0  0  0  0  0  0
    6.4910   -2.9640    2.3230 O   0  0  0  0  0  0  0  0  0  0  0  0
    5.1890   -2.5360    2.2420 C   0  0  0  0  0  0  0  0  0  0  0  0
    4.2930   -3.0220    2.9740 O   0  0  0  0  0  0  0  0  0  0  0  0
    1.3100    1.3330   -0.6310 N   0  0  0  0  0  0  0  0  0  0  0  0
    0.0720    1.5010   -0.4710 C   0  0  0  0  0  0  0  0  0  0  0  0
   -0.9210    2.6800   -1.4040 S   0  0  0  0  0  0  0  0  0  0  0  0
    0.0300    3.6180   -2.5870 C   0  0  0  0  0  0  0  0  0  0  0  0
    0.9680    4.5120   -1.8940 C   0  0  0  0  0  0  0  0  0  0  0  0
    2.2660    4.2410   -1.5720 C   0  0  0  0  0  0  0  0  0  0  0  0
    2.7620    5.3620   -0.9310 C   0  0  0  0  0  0  0  0  0  0  0  0
    1.7140    6.2540   -0.9050 C   0  0  0  0  0  0  0  0  0  0  0  0
    0.6760    5.7300   -1.4770 O   0  0  0  0  0  0  0  0  0  0  0  0
  2  1  1  6
  2  3  1  0
  2 14  1  0
  3  4  1  0
  4  5  2  0
  4  6  1  0
  6  7  1  0
  6 13  1  0
  7  8  1  0
  8  9  1  0
  9 10  1  0
 10 11  1  0
 11 12  1  6
 11 13  1  0
 14 15  1  0
 14 32  1  0
 15 16  2  0
 15 17  1  0
 17 18  2  3
 17 31  1  0
 18 19  1  0
 19 20  2  3
 20 21  1  0
 20 29  1  0
 21 22  1  0
 22 23  2  0
 22 27  1  0
 23 24  1  0
 24 25  2  0
 25 26  1  0
 26 27  2  0
 27 28  1  0
 28 29  1  0
 29 30  2  0
 31 32  2  0
 32 33  1  0
 33 34  1  0
 34 35  1  0
 35 36  2  0
 35 39  1  0
 36 37  1  0
 37 38  2  0
 38 39  1  0
M  END
