
     RDKit          3D

 39 43  0  0  0  0  0  0  0  0999 V2000
   -9.6870    1.1880    2.0150 C   0  0  0  0  0  0  0  0  0  0  0  0
   -8.5620    1.1420    1.3000 C   0  0  0  0  0  0  0  0  0  0  0  0
   -8.0850   -0.0030    0.5130 C   0  0  0  0  0  0  0  0  0  0  0  0
   -8.7490   -1.1500    0.4220 C   0  0  0  0  0  0  0  0  0  0  0  0
   -8.3280   -2.3250   -0.3440 C   0  0  0  0  0  0  0  0  0  0  0  0
   -6.8250    0.4050   -0.0820 C   0  0  0  0  0  0  0  0  0  0  0  0
   -5.9300   -0.2560   -0.9130 C   0  0  0  0  0  0  0  0  0  0  0  0
   -4.7680    0.4030   -1.3360 C   0  0  0  0  0  0  0  0  0  0  0  0
   -4.5330    1.6840   -0.9240 C   0  0  0  0  0  0  0  0  0  0  0  0
   -3.2950    2.3900   -1.3190 C   0  0  0  0  0  0  0  0  0  0  0  0
   -2.2320    2.3830   -0.2710 C   0  0  0  0  0  0  0  0  0  0  0  0
   -1.7530    1.0680    0.1130 C   0  0  0  0  0  0  0  0  0  0  0  0
   -0.9940    0.9170    1.1540 O   0  0  0  0  0  0  0  0  0  0  0  0
   -2.0330   -0.0900   -0.5480 O   0  0  0  0  0  0  0  0  0  0  0  0
   -1.5280   -1.3320   -0.1160 C   0  0  0  0  0  0  0  0  0  0  0  0
   -0.0340   -1.2800   -0.1320 C   0  0  0  0  0  0  0  0  0  0  0  0
    0.5990   -0.2170   -0.6610 N   0  0  0  0  0  0  0  0  0  0  0  0
    1.9480   -0.1660   -0.6760 C   0  0  0  0  0  0  0  0  0  0  0  0
    2.6850   -1.2040   -0.1490 C   0  0  0  0  0  0  0  0  0  0  0  0
    4.0650   -1.0990   -0.1900 O   0  0  0  0  0  0  0  0  0  0  0  0
    4.8710   -1.5640   -1.2020 C   0  0  0  0  0  0  0  0  0  0  0  0
    4.3240   -2.1350   -2.1770 O   0  0  0  0  0  0  0  0  0  0  0  0
    6.3380   -1.4150   -1.1780 C   0  0  0  0  0  0  0  0  0  0  0  0
    7.0870   -1.9170   -2.2170 C   0  0  0  0  0  0  0  0  0  0  0  0
    8.4720   -1.7660   -2.1770 C   0  0  0  0  0  0  0  0  0  0  0  0
    9.0760   -1.1320   -1.1270 C   0  0  0  0  0  0  0  0  0  0  0  0
    8.3670   -0.6420   -0.1150 N   0  0  0  0  0  0  0  0  0  0  0  0
    6.9860   -0.7900   -0.1510 C   0  0  0  0  0  0  0  0  0  0  0  0
    6.2650   -0.3430    0.7830 O   0  0  0  0  0  0  0  0  0  0  0  0
    9.1140   -0.0130    0.9430 C   0  0  0  0  0  0  0  0  0  0  0  0
   10.3370    0.6630    0.3720 C   0  0  1  0  0  0  0  0  0  0  0  0
   11.3930    0.8740    1.3970 C   0  0  0  0  0  0  0  0  0  0  0  0
   10.8080   -0.7280   -0.7630 S   0  0  0  0  0  0  0  0  0  0  0  0
    2.0450   -2.2840    0.3880 C   0  0  0  0  0  0  0  0  0  0  0  0
    0.6920   -2.2910    0.3810 N   0  0  0  0  0  0  0  0  0  0  0  0
   -5.4120    2.3370   -0.1070 N   0  0  0  0  0  0  0  0  0  0  0  0
   -6.5310    1.7080    0.3020 C   0  0  0  0  0  0  0  0  0  0  0  0
   -7.5930    2.2350    1.1730 C   0  0  1  0  0  0  0  0  0  0  0  0
   -8.2270    3.3560    0.5890 O   0  0  0  0  0  0  0  0  0  0  0  0
  1  2  2  0
  2  3  1  0
  2 38  1  0
  3  4  2  3
  3  6  1  0
  4  5  1  0
  6  7  2  0
  6 37  1  0
  7  8  1  0
  8  9  2  0
  9 10  1  0
  9 36  1  0
 10 11  1  0
 11 12  1  0
 12 13  2  0
 12 14  1  0
 14 15  1  0
 15 16  1  0
 16 17  2  0
 16 35  1  0
 17 18  1  0
 18 19  2  0
 19 20  1  0
 19 34  1  0
 20 21  1  0
 21 22  2  0
 21 23  1  0
 23 24  2  0
 23 28  1  0
 24 25  1  0
 25 26  2  0
 26 27  1  0
 26 33  1  0
 27 28  1  0
 27 30  1  0
 28 29  2  0
 30 31  1  0
 31 32  1  1
 31 33  1  0
 34 35  2  0
 36 37  2  0
 37 38  1  0
 38 39  1  6
M  END
