
     RDKit          3D

 39 43  0  0  0  0  0  0  0  0999 V2000
   -7.7360    2.6890    0.1720 C   0  0  0  0  0  0  0  0  0  0  0  0
   -6.3350    2.2140    0.1070 C   0  0  0  0  0  0  0  0  0  0  0  0
   -6.0710    0.8750    0.0430 C   0  0  0  0  0  0  0  0  0  0  0  0
   -4.7600    0.4050   -0.0190 C   0  0  0  0  0  0  0  0  0  0  0  0
   -3.6940    1.2740   -0.0190 C   0  0  0  0  0  0  0  0  0  0  0  0
   -2.3280    0.7360   -0.0810 C   0  0  0  0  0  0  0  0  0  0  0  0
   -2.3310   -0.6450    0.1990 O   0  0  0  0  0  0  0  0  0  0  0  0
   -2.7790   -1.1580    1.3980 C   0  0  0  0  0  0  0  0  0  0  0  0
   -3.2010   -0.3580    2.2770 O   0  0  0  0  0  0  0  0  0  0  0  0
   -2.7910   -2.6170    1.7140 C   0  0  2  0  0  0  0  0  0  0  0  0
   -1.9560   -2.7980    2.9640 C   0  0  0  0  0  0  0  0  0  0  0  0
   -2.2330   -3.3070    0.5880 N   0  0  0  0  0  0  0  0  0  0  0  0
   -2.9800   -4.3010   -0.1240 C   0  0  0  0  0  0  0  0  0  0  0  0
   -0.8880   -2.9830    0.1750 C   0  0  0  0  0  0  0  0  0  0  0  0
   -0.2530   -2.1110    0.8200 O   0  0  0  0  0  0  0  0  0  0  0  0
   -0.3040   -3.5970   -0.8880 O   0  0  0  0  0  0  0  0  0  0  0  0
    0.9420   -3.3870   -1.4000 C   0  0  0  0  0  0  0  0  0  0  0  0
    1.1110   -2.0170   -1.9920 C   0  0  1  0  0  0  0  0  0  0  0  0
    0.9700   -1.0210   -1.0660 O   0  0  0  0  0  0  0  0  0  0  0  0
    2.4300   -1.9580   -2.7200 C   0  0  0  0  0  0  0  0  0  0  0  0
    3.5280   -2.2160   -1.8300 N   0  0  0  0  0  0  0  0  0  0  0  0
    3.9560   -3.4630   -1.5600 N   0  0  0  0  0  0  0  0  0  0  0  0
    4.9720   -3.3800   -0.7000 C   0  0  0  0  0  0  0  0  0  0  0  0
    5.2030   -2.0490   -0.4080 C   0  0  0  0  0  0  0  0  0  0  0  0
    6.0850   -1.3580    0.3770 C   0  0  0  0  0  0  0  0  0  0  0  0
    6.0580    0.0290    0.4460 C   0  0  0  0  0  0  0  0  0  0  0  0
    6.7530    0.9230    1.0880 O   0  0  0  0  0  0  0  0  0  0  0  0
    6.3500    2.1450    0.8320 C   0  0  0  0  0  0  0  0  0  0  0  0
    5.3190    2.0740   -0.0360 C   0  0  0  0  0  0  0  0  0  0  0  0
    5.1310    0.7090   -0.2850 C   0  0  0  0  0  0  0  0  0  0  0  0
    4.2780    0.0060   -1.0460 N   0  0  0  0  0  0  0  0  0  0  0  0
    4.2720   -1.3380   -1.1400 C   0  0  0  0  0  0  0  0  0  0  0  0
    4.5390    3.1690   -0.6190 C   0  0  0  0  0  0  0  0  0  0  0  0
    4.6390    4.4820    0.0530 C   0  0  0  0  0  0  0  0  0  0  0  0
    6.4010    4.8110    0.4430 S   0  0  0  0  0  0  0  0  0  0  0  0
    6.9370    3.3850    1.4050 C   0  0  0  0  0  0  0  0  0  0  0  0
   -3.9590    2.6340    0.0460 C   0  0  0  0  0  0  0  0  0  0  0  0
   -5.2700    3.0850    0.1070 C   0  0  0  0  0  0  0  0  0  0  0  0
   -5.5410    4.5360    0.1750 C   0  0  0  0  0  0  0  0  0  0  0  0
  1  2  1  0
  2  3  2  0
  2 38  1  0
  3  4  1  0
  4  5  2  0
  5  6  1  0
  5 37  1  0
  6  7  1  0
  7  8  1  0
  8  9  2  0
  8 10  1  0
 10 11  1  1
 10 12  1  0
 12 13  1  0
 12 14  1  0
 14 15  2  0
 14 16  1  0
 16 17  1  0
 17 18  1  0
 18 19  1  1
 18 20  1  0
 20 21  1  0
 21 22  1  0
 21 32  1  0
 22 23  2  0
 23 24  1  0
 24 25  2  0
 24 32  1  0
 25 26  1  0
 26 27  1  0
 26 30  2  0
 27 28  1  0
 28 29  2  0
 28 36  1  0
 29 30  1  0
 29 33  1  0
 30 31  1  0
 31 32  2  0
 33 34  1  0
 34 35  1  0
 35 36  1  0
 37 38  2  0
 38 39  1  0
M  END
