
     RDKit          3D

 39 43  0  0  0  0  0  0  0  0999 V2000
   -7.3440    1.9960   -3.1050 C   0  0  0  0  0  0  0  0  0  0  0  0
   -6.7960    1.0210   -2.0760 C   0  0  0  0  0  0  0  0  0  0  0  0
   -5.5250    0.9280   -1.9360 C   0  0  0  0  0  0  0  0  0  0  0  0
   -4.7350    0.0970   -1.0490 C   0  0  0  0  0  0  0  0  0  0  0  0
   -5.1840   -0.7750   -0.1160 C   0  0  0  0  0  0  0  0  0  0  0  0
   -4.0430   -1.3560    0.4740 C   0  0  0  0  0  0  0  0  0  0  0  0
   -2.9280   -0.8560   -0.0810 N   0  0  0  0  0  0  0  0  0  0  0  0
   -1.6320   -1.2900    0.3130 C   0  0  0  0  0  0  0  0  0  0  0  0
   -1.5440   -2.2190    1.1990 O   0  0  0  0  0  0  0  0  0  0  0  0
   -0.3450   -0.7940   -0.1760 C   0  0  2  0  0  0  0  0  0  0  0  0
    0.7440   -1.8370    0.1650 C   0  0  0  0  0  0  0  0  0  0  0  0
    0.9830   -1.4500    1.6060 C   0  0  0  0  0  0  0  0  0  0  0  0
    1.2720   -2.2510    2.5310 O   0  0  0  0  0  0  0  0  0  0  0  0
    0.8240   -0.0480    1.7110 N   0  0  0  0  0  0  0  0  0  0  0  0
    1.2740    0.7940    2.8280 C   0  0  0  0  0  0  0  0  0  0  0  0
    0.4190    1.4260    3.6280 C   0  0  0  0  0  0  0  0  0  0  0  0
    0.9060    2.2160    4.6610 C   0  0  0  0  0  0  0  0  0  0  0  0
    2.7100    2.0460    4.4810 S   0  0  0  0  0  0  0  0  0  0  0  0
    2.6300    0.9590    3.0720 C   0  0  0  0  0  0  0  0  0  0  0  0
    3.7540    0.3880    2.3710 C   0  0  0  0  0  0  0  0  0  0  0  0
    4.9290    0.6520    2.7200 O   0  0  0  0  0  0  0  0  0  0  0  0
    3.5280   -0.4570    1.3100 O   0  0  0  0  0  0  0  0  0  0  0  0
    4.5150   -1.0770    0.5480 C   0  0  0  0  0  0  0  0  0  0  0  0
    5.4070   -0.0710   -0.1420 C   0  0  0  0  0  0  0  0  0  0  0  0
    5.1650    1.1320    0.0450 O   0  0  0  0  0  0  0  0  0  0  0  0
    6.4370   -0.5560   -0.9390 N   0  0  0  0  0  0  0  0  0  0  0  0
    7.3400    0.2710   -1.6380 C   0  0  0  0  0  0  0  0  0  0  0  0
    8.2670   -0.3620   -2.4630 C   0  0  0  0  0  0  0  0  0  0  0  0
    9.1670    0.3820   -3.1620 C   0  0  0  0  0  0  0  0  0  0  0  0
    9.2280    1.7240   -3.1120 N   0  0  0  0  0  0  0  0  0  0  0  0
    8.3490    2.3840   -2.3240 C   0  0  0  0  0  0  0  0  0  0  0  0
    7.4140    1.6320   -1.5970 C   0  0  0  0  0  0  0  0  0  0  0  0
    0.1500    0.4190    0.5320 C   0  0  0  0  0  0  0  0  0  0  0  0
   -3.3390    0.0190   -0.9980 C   0  0  0  0  0  0  0  0  0  0  0  0
   -2.4500    0.8100   -1.8800 C   0  0  0  0  0  0  0  0  0  0  0  0
   -4.3680   -2.3500    1.5300 C   0  0  0  0  0  0  0  0  0  0  0  0
   -5.1490   -1.6610    2.4710 O   0  0  0  0  0  0  0  0  0  0  0  0
   -6.3570   -1.2700    1.9790 C   0  0  0  0  0  0  0  0  0  0  0  0
   -6.4550   -1.2870    0.4580 C   0  0  0  0  0  0  0  0  0  0  0  0
  1  2  1  0
  2  3  2  3
  3  4  1  0
  4  5  1  0
  4 34  2  0
  5  6  2  0
  5 39  1  0
  6  7  1  0
  6 36  1  0
  7  8  1  0
  7 34  1  0
  8  9  2  0
 10  8  1  1
 10 11  1  0
 10 33  1  0
 11 12  1  0
 12 13  2  0
 12 14  1  0
 14 15  1  0
 14 33  1  0
 15 16  1  0
 15 19  2  0
 16 17  2  0
 17 18  1  0
 18 19  1  0
 19 20  1  0
 20 21  2  0
 20 22  1  0
 22 23  1  0
 23 24  1  0
 24 25  2  0
 24 26  1  0
 26 27  1  0
 27 28  2  0
 27 32  1  0
 28 29  1  0
 29 30  2  0
 30 31  1  0
 31 32  2  0
 34 35  1  0
 36 37  1  0
 37 38  1  0
 38 39  1  0
M  END
