
     RDKit          3D

 39 43  0  0  0  0  0  0  0  0999 V2000
   10.3190    2.7040   -0.8550 C   0  0  0  0  0  0  0  0  0  0  0  0
    9.2180    1.8030   -0.7280 O   0  0  0  0  0  0  0  0  0  0  0  0
    9.3170    0.6330    0.0000 C   0  0  0  0  0  0  0  0  0  0  0  0
   10.4150    0.3790    0.5560 O   0  0  0  0  0  0  0  0  0  0  0  0
    8.1830   -0.2920    0.1290 C   0  0  0  0  0  0  0  0  0  0  0  0
    8.2070   -1.4730    0.8360 C   0  0  0  0  0  0  0  0  0  0  0  0
    6.9710   -2.0270    0.7080 N   0  0  0  0  0  0  0  0  0  0  0  0
    6.2000   -1.2320   -0.0470 C   0  0  0  0  0  0  0  0  0  0  0  0
    4.7880   -1.5300   -0.3910 C   0  0  0  0  0  0  0  0  0  0  0  0
    3.9100   -0.9650    0.6150 N   0  0  0  0  0  0  0  0  0  0  0  0
    2.4980   -1.0930    0.5470 C   0  0  0  0  0  0  0  0  0  0  0  0
    2.0050   -1.7200   -0.4220 O   0  0  0  0  0  0  0  0  0  0  0  0
    1.6780   -0.4780    1.6280 C   0  0  2  0  0  0  0  0  0  0  0  0
    2.0410   -1.0640    2.9850 C   0  0  0  0  0  0  0  0  0  0  0  0
    0.3080   -0.6810    1.4350 O   0  0  0  0  0  0  0  0  0  0  0  0
   -0.6150    0.3460    1.2920 C   0  0  0  0  0  0  0  0  0  0  0  0
   -0.1600    1.5130    1.3430 O   0  0  0  0  0  0  0  0  0  0  0  0
   -2.0360    0.1490    1.0940 C   0  0  0  0  0  0  0  0  0  0  0  0
   -2.8110    1.2120    0.9800 C   0  0  0  0  0  0  0  0  0  0  0  0
   -4.2540    1.1450    0.7850 C   0  0  0  0  0  0  0  0  0  0  0  0
   -5.0550    2.2640    0.6590 C   0  0  0  0  0  0  0  0  0  0  0  0
   -6.4280    2.1050    0.4720 C   0  0  0  0  0  0  0  0  0  0  0  0
   -7.0030    0.8520    0.4100 C   0  0  0  0  0  0  0  0  0  0  0  0
   -6.2040   -0.2650    0.5350 C   0  0  0  0  0  0  0  0  0  0  0  0
   -4.8260   -0.1090    0.7230 C   0  0  0  0  0  0  0  0  0  0  0  0
   -4.0000   -1.1920    0.8520 O   0  0  0  0  0  0  0  0  0  0  0  0
   -2.6150   -1.1780    0.9800 C   0  0  1  0  0  0  0  0  0  0  0  0
   -2.0910   -1.8650   -0.2790 C   0  0  0  0  0  0  0  0  0  0  0  0
   -1.1490   -1.2870   -1.1210 C   0  0  0  0  0  0  0  0  0  0  0  0
   -0.8890   -2.5220   -2.3990 S   0  0  0  0  0  0  0  0  0  0  0  0
   -2.1570   -3.7030   -1.5710 C   0  0  0  0  0  0  0  0  0  0  0  0
   -2.3890   -5.0280   -2.2510 C   0  0  0  0  0  0  0  0  0  0  0  0
   -2.4650   -3.0640   -0.6740 N   0  0  0  0  0  0  0  0  0  0  0  0
   -8.4750    0.8040    0.2070 C   0  0  0  0  0  0  0  0  0  0  0  0
   -8.7820    1.6880   -0.9830 C   0  0  0  0  0  0  0  0  0  0  0  0
   -8.1930    3.0570   -0.8870 C   0  0  0  0  0  0  0  0  0  0  0  0
   -7.3330    3.2740    0.3320 C   0  0  0  0  0  0  0  0  0  0  0  0
    6.9590   -0.1910   -0.3820 N   0  0  0  0  0  0  0  0  0  0  0  0
    6.5170    0.9180   -1.2010 C   0  0  0  0  0  0  0  0  0  0  0  0
  1  2  1  0
  2  3  1  0
  3  4  2  0
  3  5  1  0
  5  6  2  0
  5 38  1  0
  6  7  1  0
  7  8  2  0
  8  9  1  0
  8 38  1  0
  9 10  1  0
 10 11  1  0
 11 12  2  0
 11 13  1  0
 13 14  1  1
 13 15  1  0
 15 16  1  0
 16 17  2  0
 16 18  1  0
 18 19  2  0
 18 27  1  0
 19 20  1  0
 20 21  2  0
 20 25  1  0
 21 22  1  0
 22 23  2  0
 22 37  1  0
 23 24  1  0
 23 34  1  0
 24 25  2  0
 25 26  1  0
 26 27  1  0
 27 28  1  6
 28 29  2  0
 28 33  1  0
 29 30  1  0
 30 31  1  0
 31 32  1  0
 31 33  2  0
 34 35  1  0
 35 36  1  0
 36 37  1  0
 38 39  1  0
M  END
