
     RDKit          3D

 39 43  0  0  0  0  0  0  0  0999 V2000
   -1.6550   -1.2690    2.7800 C   0  0  0  0  0  0  0  0  0  0  0  0
   -1.1740   -1.1850    1.3330 C   0  0  1  0  0  0  0  0  0  0  0  0
   -2.3060   -0.7520    0.4260 C   0  0  0  0  0  0  0  0  0  0  0  0
   -3.3820   -1.7690    0.5490 C   0  0  0  0  0  0  0  0  0  0  0  0
   -3.2610   -2.7860    1.3120 O   0  0  0  0  0  0  0  0  0  0  0  0
   -4.6030   -1.6800   -0.1660 N   0  0  0  0  0  0  0  0  0  0  0  0
   -5.5960   -2.7130    0.0110 C   0  0  0  0  0  0  0  0  0  0  0  0
   -6.2630   -3.1230   -1.2600 C   0  0  0  0  0  0  0  0  0  0  0  0
   -6.2380   -2.1970   -2.2720 O   0  0  0  0  0  0  0  0  0  0  0  0
   -6.9700   -1.0470   -1.9710 C   0  0  0  0  0  0  0  0  0  0  0  0
   -6.1820   -0.0790   -1.1390 C   0  0  2  0  0  0  0  0  0  0  0  0
   -6.1710    1.2700   -1.8220 C   0  0  0  0  0  0  0  0  0  0  0  0
   -4.7180   -0.5200   -1.0220 C   0  0  0  0  0  0  0  0  0  0  0  0
   -0.0590   -0.2960    1.2960 N   0  0  0  0  0  0  0  0  0  0  0  0
    1.2700   -0.6950    0.8750 C   0  0  0  0  0  0  0  0  0  0  0  0
    1.5810   -1.8530    0.5030 O   0  0  0  0  0  0  0  0  0  0  0  0
    2.1150    0.4700    0.9710 C   0  0  0  0  0  0  0  0  0  0  0  0
    3.3940    0.5960    0.7000 C   0  0  0  0  0  0  0  0  0  0  0  0
    4.2380   -0.4760    0.2290 C   0  0  0  0  0  0  0  0  0  0  0  0
    5.5060   -0.4410   -0.0630 C   0  0  0  0  0  0  0  0  0  0  0  0
    6.1320   -1.6620   -0.5210 N   0  0  0  0  0  0  0  0  0  0  0  0
    7.5080   -1.6870   -0.8510 C   0  0  0  0  0  0  0  0  0  0  0  0
    8.1220   -2.8650   -1.2950 C   0  0  0  0  0  0  0  0  0  0  0  0
    9.4570   -2.9270   -1.6260 C   0  0  0  0  0  0  0  0  0  0  0  0
   10.2520   -1.8060   -1.5280 C   0  0  0  0  0  0  0  0  0  0  0  0
    9.6620   -0.6420   -1.0940 C   0  0  0  0  0  0  0  0  0  0  0  0
    8.3150   -0.5770   -0.7600 C   0  0  0  0  0  0  0  0  0  0  0  0
    7.7240    0.5860   -0.3250 O   0  0  0  0  0  0  0  0  0  0  0  0
    6.3810    0.7120    0.0240 C   0  0  0  0  0  0  0  0  0  0  0  0
    5.9150    1.8130    0.4140 O   0  0  0  0  0  0  0  0  0  0  0  0
    1.2490    1.5230    1.4480 N   0  0  0  0  0  0  0  0  0  0  0  0
    0.0610    1.0710    1.6180 C   0  0  0  0  0  0  0  0  0  0  0  0
   -1.3280    2.0340    2.2060 S   0  0  0  0  0  0  0  0  0  0  0  0
   -0.8830    3.7560    2.5110 C   0  0  0  0  0  0  0  0  0  0  0  0
   -0.5410    4.4730    1.2560 C   0  0  0  0  0  0  0  0  0  0  0  0
   -1.4730    5.1360    0.4870 C   0  0  0  0  0  0  0  0  0  0  0  0
   -0.8090    5.6710   -0.5790 C   0  0  0  0  0  0  0  0  0  0  0  0
    0.5050    5.3240   -0.4360 C   0  0  0  0  0  0  0  0  0  0  0  0
    0.6110    4.6150    0.6660 O   0  0  0  0  0  0  0  0  0  0  0  0
  2  1  1  1
  2  3  1  0
  2 14  1  0
  3  4  1  0
  4  5  2  0
  4  6  1  0
  6  7  1  0
  6 13  1  0
  7  8  1  0
  8  9  1  0
  9 10  1  0
 10 11  1  0
 11 12  1  6
 11 13  1  0
 14 15  1  0
 14 32  1  0
 15 16  2  0
 15 17  1  0
 17 18  2  3
 17 31  1  0
 18 19  1  0
 19 20  2  3
 20 21  1  0
 20 29  1  0
 21 22  1  0
 22 23  2  0
 22 27  1  0
 23 24  1  0
 24 25  2  0
 25 26  1  0
 26 27  2  0
 27 28  1  0
 28 29  1  0
 29 30  2  0
 31 32  2  0
 32 33  1  0
 33 34  1  0
 34 35  1  0
 35 36  2  0
 35 39  1  0
 36 37  1  0
 37 38  2  0
 38 39  1  0
M  END
