
     RDKit          3D

 39 43  0  0  0  0  0  0  0  0999 V2000
    9.9160   -1.1390    2.2420 C   0  0  0  0  0  0  0  0  0  0  0  0
   10.8030   -0.1120    1.5710 C   0  0  0  0  0  0  0  0  0  0  0  0
   10.3270    0.0800    0.1420 C   0  0  0  0  0  0  0  0  0  0  0  0
    8.8630    0.4670    0.1900 C   0  0  0  0  0  0  0  0  0  0  0  0
    8.4880    1.8310    0.4080 C   0  0  0  0  0  0  0  0  0  0  0  0
    7.0970    1.7260    0.3610 C   0  0  0  0  0  0  0  0  0  0  0  0
    6.6310    0.5900    0.1630 C   0  0  0  0  0  0  0  0  0  0  0  0
    5.4880   -0.3600    0.0100 C   0  0  0  0  0  0  0  0  0  0  0  0
    5.3680   -1.3170   -0.9990 N   0  0  0  0  0  0  0  0  0  0  0  0
    4.2360   -1.9900   -0.8420 C   0  0  0  0  0  0  0  0  0  0  0  0
    3.6140   -1.4900    0.2740 C   0  0  0  0  0  0  0  0  0  0  0  0
    2.3480   -1.8740    0.8960 C   0  0  0  0  0  0  0  0  0  0  0  0
    1.2250   -2.3320    0.5230 N   0  0  0  0  0  0  0  0  0  0  0  0
    0.3680   -2.4380    1.5840 C   0  0  0  0  0  0  0  0  0  0  0  0
   -1.1620   -2.6780    1.3780 C   0  0  0  0  0  0  0  0  0  0  0  0
   -1.8460   -2.8130    2.3630 O   0  0  0  0  0  0  0  0  0  0  0  0
   -1.5920   -2.6870    0.0360 C   0  0  0  0  0  0  0  0  0  0  0  0
   -1.9200   -2.6890   -1.0520 C   0  0  0  0  0  0  0  0  0  0  0  0
   -2.4040   -2.7020   -2.6470 C   0  0  0  0  0  0  0  0  0  0  0  0
   -2.6150   -1.2160   -2.8270 N   0  0  0  0  0  0  0  0  0  0  0  0
   -3.5510   -0.6240   -1.9930 C   0  0  0  0  0  0  0  0  0  0  0  0
   -4.1940   -1.3730   -1.1490 O   0  0  0  0  0  0  0  0  0  0  0  0
   -3.8400    0.8010   -1.9940 C   0  0  0  0  0  0  0  0  0  0  0  0
   -4.7440    1.0780   -0.9000 N   0  0  0  0  0  0  0  0  0  0  0  0
   -6.0930    1.4560   -1.2670 C   0  0  0  0  0  0  0  0  0  0  0  0
   -6.8490    1.8030   -0.0310 C   0  0  1  0  0  0  0  0  0  0  0  0
   -7.9050    0.7810    0.2550 C   0  0  0  0  0  0  0  0  0  0  0  0
   -8.6550   -0.0000   -0.5630 C   0  0  0  0  0  0  0  0  0  0  0  0
   -9.5400   -0.8690    0.0370 C   0  0  0  0  0  0  0  0  0  0  0  0
   -9.6280   -0.9160    1.3470 C   0  0  0  0  0  0  0  0  0  0  0  0
   -8.3960    0.3540    1.8880 S   0  0  0  0  0  0  0  0  0  0  0  0
   -6.0470    1.8010    1.1070 O   0  0  0  0  0  0  0  0  0  0  0  0
   -4.8520    2.4170    1.0800 C   0  0  0  0  0  0  0  0  0  0  0  0
   -4.1860    2.3640   -0.2840 C   0  0  2  0  0  0  0  0  0  0  0  0
   -4.4340    3.5940   -1.0720 C   0  0  0  0  0  0  0  0  0  0  0  0
    0.9770   -2.0520    2.6340 C   0  0  0  0  0  0  0  0  0  0  0  0
    2.2250   -1.6890    2.2440 O   0  0  0  0  0  0  0  0  0  0  0  0
    4.4440   -0.5260    0.6920 O   0  0  0  0  0  0  0  0  0  0  0  0
    7.8330   -0.1910    0.0600 O   0  0  0  0  0  0  0  0  0  0  0  0
  1  2  1  0
  2  3  1  0
  3  4  1  0
  4  5  2  0
  4 39  1  0
  5  6  1  0
  6  7  2  0
  7  8  1  0
  7 39  1  0
  8  9  2  0
  8 38  1  0
  9 10  1  0
 10 11  2  0
 11 12  1  0
 11 38  1  0
 12 13  2  0
 12 37  1  0
 13 14  1  0
 14 15  1  0
 14 36  2  0
 15 16  2  0
 15 17  1  0
 17 18  3  0
 18 19  1  0
 19 20  1  0
 20 21  1  0
 21 22  2  0
 21 23  1  0
 23 24  1  0
 24 25  1  0
 24 34  1  0
 25 26  1  0
 26 27  1  1
 26 32  1  0
 27 28  2  0
 27 31  1  0
 28 29  1  0
 29 30  2  0
 30 31  1  0
 32 33  1  0
 33 34  1  0
 34 35  1  6
 36 37  1  0
M  END
