
     RDKit          3D

 39 43  0  0  0  0  0  0  0  0999 V2000
    9.8540   -0.2870   -0.0080 C   0  0  0  0  0  0  0  0  0  0  0  0
    8.4320   -0.5860   -0.3380 C   0  0  0  0  0  0  0  0  0  0  0  0
    7.4530   -0.4040    0.6080 C   0  0  0  0  0  0  0  0  0  0  0  0
    6.1020   -0.6670    0.3560 C   0  0  0  0  0  0  0  0  0  0  0  0
    5.7620   -1.1250   -0.8960 C   0  0  0  0  0  0  0  0  0  0  0  0
    4.3510   -1.4180   -1.2380 C   0  0  0  0  0  0  0  0  0  0  0  0
    3.5270   -0.7890   -0.2790 O   0  0  0  0  0  0  0  0  0  0  0  0
    3.5960    0.5880   -0.1510 C   0  0  0  0  0  0  0  0  0  0  0  0
    4.3870    1.2150   -0.8910 O   0  0  0  0  0  0  0  0  0  0  0  0
    2.7600    1.3360    0.8360 C   0  0  2  0  0  0  0  0  0  0  0  0
    3.6600    2.1290    1.7530 C   0  0  0  0  0  0  0  0  0  0  0  0
    1.9650    0.3700    1.5470 N   0  0  0  0  0  0  0  0  0  0  0  0
    2.5690   -0.6690    2.3510 C   0  0  0  0  0  0  0  0  0  0  0  0
    0.5240    0.4690    1.4340 C   0  0  0  0  0  0  0  0  0  0  0  0
   -0.1710   -0.3560    2.0440 O   0  0  0  0  0  0  0  0  0  0  0  0
   -0.0680    1.4170    0.6960 O   0  0  0  0  0  0  0  0  0  0  0  0
   -1.3460    1.7530    0.3830 C   0  0  0  0  0  0  0  0  0  0  0  0
   -2.1050    0.8130   -0.4740 C   0  0  1  0  0  0  0  0  0  0  0  0
   -1.3680    0.5860   -1.6550 O   0  0  0  0  0  0  0  0  0  0  0  0
   -2.5920   -0.4530    0.0760 C   0  0  0  0  0  0  0  0  0  0  0  0
   -3.5020   -0.3150    1.1890 N   0  0  0  0  0  0  0  0  0  0  0  0
   -3.2070   -0.2590    2.4670 N   0  0  0  0  0  0  0  0  0  0  0  0
   -4.3200   -0.1270    3.2100 C   0  0  0  0  0  0  0  0  0  0  0  0
   -5.3750   -0.1010    2.3030 C   0  0  0  0  0  0  0  0  0  0  0  0
   -6.7470    0.0150    2.4450 C   0  0  0  0  0  0  0  0  0  0  0  0
   -7.4960   -0.0000    1.2670 C   0  0  0  0  0  0  0  0  0  0  0  0
   -8.7760    0.0900    1.1200 O   0  0  0  0  0  0  0  0  0  0  0  0
   -9.1190    0.0360   -0.1680 C   0  0  0  0  0  0  0  0  0  0  0  0
   -7.9910   -0.0970   -0.9080 C   0  0  0  0  0  0  0  0  0  0  0  0
   -6.9480   -0.1190    0.0320 C   0  0  0  0  0  0  0  0  0  0  0  0
   -5.6160   -0.2290   -0.0800 N   0  0  0  0  0  0  0  0  0  0  0  0
   -4.8580   -0.2190    1.0320 C   0  0  0  0  0  0  0  0  0  0  0  0
   -7.8680   -0.1980   -2.3680 C   0  0  0  0  0  0  0  0  0  0  0  0
   -9.0630    0.2260   -3.1430 C   0  0  0  0  0  0  0  0  0  0  0  0
  -10.5440   -0.4960   -2.3660 S   0  0  0  0  0  0  0  0  0  0  0  0
  -10.5130    0.1140   -0.6600 C   0  0  0  0  0  0  0  0  0  0  0  0
    6.7520   -1.3100   -1.8550 C   0  0  0  0  0  0  0  0  0  0  0  0
    8.0770   -1.0470   -1.5910 C   0  0  0  0  0  0  0  0  0  0  0  0
    9.1610   -1.2340   -2.5960 C   0  0  0  0  0  0  0  0  0  0  0  0
  1  2  1  0
  2  3  2  0
  2 38  1  0
  3  4  1  0
  4  5  2  0
  5  6  1  0
  5 37  1  0
  6  7  1  0
  7  8  1  0
  8  9  2  0
  8 10  1  0
 10 11  1  1
 10 12  1  0
 12 13  1  0
 12 14  1  0
 14 15  2  0
 14 16  1  0
 16 17  1  0
 17 18  1  0
 18 19  1  6
 18 20  1  0
 20 21  1  0
 21 22  1  0
 21 32  1  0
 22 23  2  0
 23 24  1  0
 24 25  2  0
 24 32  1  0
 25 26  1  0
 26 27  1  0
 26 30  2  0
 27 28  1  0
 28 29  2  0
 28 36  1  0
 29 30  1  0
 29 33  1  0
 30 31  1  0
 31 32  2  0
 33 34  1  0
 34 35  1  0
 35 36  1  0
 37 38  2  0
 38 39  1  0
M  END
