
     RDKit          3D

 39 43  0  0  0  0  0  0  0  0999 V2000
   -9.0250    2.5760   -1.3600 C   0  0  0  0  0  0  0  0  0  0  0  0
   -8.1660    1.3890   -1.0390 C   0  0  0  0  0  0  0  0  0  0  0  0
   -6.9160    1.5420   -0.7270 C   0  0  0  0  0  0  0  0  0  0  0  0
   -5.9550    0.5200   -0.3910 C   0  0  0  0  0  0  0  0  0  0  0  0
   -6.1840   -0.8290   -0.2500 C   0  0  0  0  0  0  0  0  0  0  0  0
   -4.9610   -1.4040    0.0140 C   0  0  0  0  0  0  0  0  0  0  0  0
   -3.9760   -0.4470    0.0420 N   0  0  0  0  0  0  0  0  0  0  0  0
   -2.6330   -0.7530    0.2980 C   0  0  0  0  0  0  0  0  0  0  0  0
   -2.3280   -1.9900    0.5560 O   0  0  0  0  0  0  0  0  0  0  0  0
   -1.4570    0.1230    0.3240 C   0  0  2  0  0  0  0  0  0  0  0  0
   -1.0150    0.6890   -0.9700 C   0  0  0  0  0  0  0  0  0  0  0  0
    0.4730    0.8800   -0.7510 C   0  0  0  0  0  0  0  0  0  0  0  0
    1.2120    1.4920   -1.5500 O   0  0  0  0  0  0  0  0  0  0  0  0
    0.8330    0.2620    0.4730 N   0  0  0  0  0  0  0  0  0  0  0  0
    2.0020    0.5940    1.2900 C   0  0  0  0  0  0  0  0  0  0  0  0
    1.8250    1.2450    2.4640 C   0  0  0  0  0  0  0  0  0  0  0  0
    2.9280    1.5600    3.1830 C   0  0  0  0  0  0  0  0  0  0  0  0
    4.2580    0.9520    2.2350 S   0  0  0  0  0  0  0  0  0  0  0  0
    3.2290    0.2830    0.8780 C   0  0  0  0  0  0  0  0  0  0  0  0
    3.7870   -0.4090   -0.2550 C   0  0  0  0  0  0  0  0  0  0  0  0
    3.0490   -0.9190   -1.1120 O   0  0  0  0  0  0  0  0  0  0  0  0
    5.1570   -0.5080   -0.3970 O   0  0  0  0  0  0  0  0  0  0  0  0
    5.7830   -1.1700   -1.4720 C   0  0  0  0  0  0  0  0  0  0  0  0
    7.2750   -1.0050   -1.3000 C   0  0  0  0  0  0  0  0  0  0  0  0
    8.0230   -1.5400   -2.1340 O   0  0  0  0  0  0  0  0  0  0  0  0
    7.8070   -0.2610   -0.2240 N   0  0  0  0  0  0  0  0  0  0  0  0
    9.1830   -0.0530    0.0110 C   0  0  0  0  0  0  0  0  0  0  0  0
    9.5520    0.8430    1.0230 C   0  0  0  0  0  0  0  0  0  0  0  0
   10.8660    1.1130    1.3290 C   0  0  0  0  0  0  0  0  0  0  0  0
   11.8630    0.5100    0.6460 N   0  0  0  0  0  0  0  0  0  0  0  0
   11.5590   -0.3560   -0.3330 C   0  0  0  0  0  0  0  0  0  0  0  0
   10.2240   -0.6370   -0.6510 C   0  0  0  0  0  0  0  0  0  0  0  0
   -0.1940   -0.7170    0.7060 C   0  0  0  0  0  0  0  0  0  0  0  0
   -4.5700    0.7100   -0.1990 C   0  0  0  0  0  0  0  0  0  0  0  0
   -3.9870    2.0660   -0.2670 C   0  0  0  0  0  0  0  0  0  0  0  0
   -4.8450   -2.8710    0.2040 C   0  0  0  0  0  0  0  0  0  0  0  0
   -5.9790   -3.5050   -0.3020 O   0  0  0  0  0  0  0  0  0  0  0  0
   -7.1260   -3.0220    0.2730 C   0  0  0  0  0  0  0  0  0  0  0  0
   -7.4280   -1.6610   -0.3100 C   0  0  0  0  0  0  0  0  0  0  0  0
  1  2  1  0
  2  3  2  3
  3  4  1  0
  4  5  1  0
  4 34  2  0
  5  6  2  0
  5 39  1  0
  6  7  1  0
  6 36  1  0
  7  8  1  0
  7 34  1  0
  8  9  2  0
 10  8  1  6
 10 11  1  0
 10 33  1  0
 11 12  1  0
 12 13  2  0
 12 14  1  0
 14 15  1  0
 14 33  1  0
 15 16  1  0
 15 19  2  0
 16 17  2  0
 17 18  1  0
 18 19  1  0
 19 20  1  0
 20 21  2  0
 20 22  1  0
 22 23  1  0
 23 24  1  0
 24 25  2  0
 24 26  1  0
 26 27  1  0
 27 28  2  0
 27 32  1  0
 28 29  1  0
 29 30  2  0
 30 31  1  0
 31 32  2  0
 34 35  1  0
 36 37  1  0
 37 38  1  0
 38 39  1  0
M  END
