
     RDKit          3D

 39 43  0  0  0  0  0  0  0  0999 V2000
    8.5090    1.5930   -1.8680 C   0  0  0  0  0  0  0  0  0  0  0  0
    7.6460    0.7510   -1.1260 O   0  0  0  0  0  0  0  0  0  0  0  0
    6.7100   -0.0760   -1.7200 C   0  0  0  0  0  0  0  0  0  0  0  0
    6.6210   -0.0820   -2.9630 O   0  0  0  0  0  0  0  0  0  0  0  0
    5.8480   -0.9230   -0.8930 C   0  0  0  0  0  0  0  0  0  0  0  0
    4.8770   -1.7920   -1.3340 C   0  0  0  0  0  0  0  0  0  0  0  0
    4.3180   -2.3740   -0.2710 N   0  0  0  0  0  0  0  0  0  0  0  0
    4.9040   -1.9010    0.8400 C   0  0  0  0  0  0  0  0  0  0  0  0
    4.5440   -2.3190    2.2190 C   0  0  0  0  0  0  0  0  0  0  0  0
    3.4940   -1.4970    2.7880 N   0  0  0  0  0  0  0  0  0  0  0  0
    2.2050   -1.3940    2.1950 C   0  0  0  0  0  0  0  0  0  0  0  0
    2.0260   -2.0590    1.1440 O   0  0  0  0  0  0  0  0  0  0  0  0
    1.1580   -0.5340    2.8210 C   0  0  2  0  0  0  0  0  0  0  0  0
    1.0200   -0.7530    4.2990 C   0  0  0  0  0  0  0  0  0  0  0  0
   -0.0650   -0.5530    2.1230 O   0  0  0  0  0  0  0  0  0  0  0  0
   -0.5810    0.5070    1.4340 C   0  0  0  0  0  0  0  0  0  0  0  0
    0.0680    1.5750    1.4070 O   0  0  0  0  0  0  0  0  0  0  0  0
   -1.8840    0.4660    0.7050 C   0  0  0  0  0  0  0  0  0  0  0  0
   -2.2830    1.5430    0.0690 C   0  0  0  0  0  0  0  0  0  0  0  0
   -3.5310    1.6130   -0.6700 C   0  0  0  0  0  0  0  0  0  0  0  0
   -3.9310    2.7560   -1.3320 C   0  0  0  0  0  0  0  0  0  0  0  0
   -5.1280    2.7560   -2.0150 C   0  0  0  0  0  0  0  0  0  0  0  0
   -5.9160    1.6250   -2.0360 C   0  0  0  0  0  0  0  0  0  0  0  0
   -5.5080    0.4880   -1.3720 C   0  0  0  0  0  0  0  0  0  0  0  0
   -4.2930    0.4570   -0.6670 C   0  0  0  0  0  0  0  0  0  0  0  0
   -3.8680   -0.6540   -0.0020 O   0  0  0  0  0  0  0  0  0  0  0  0
   -2.6970   -0.7500    0.7140 C   0  0  1  0  0  0  0  0  0  0  0  0
   -1.8840   -1.9510    0.2740 C   0  0  0  0  0  0  0  0  0  0  0  0
   -1.7070   -2.1860   -1.0580 C   0  0  0  0  0  0  0  0  0  0  0  0
   -0.6880   -3.7290   -1.0480 S   0  0  0  0  0  0  0  0  0  0  0  0
   -0.6950   -3.7670    0.8340 C   0  0  0  0  0  0  0  0  0  0  0  0
    0.0380   -4.8950    1.5170 C   0  0  0  0  0  0  0  0  0  0  0  0
   -1.3440   -2.7910    1.1020 N   0  0  0  0  0  0  0  0  0  0  0  0
   -7.1900    1.7000   -2.7920 C   0  0  0  0  0  0  0  0  0  0  0  0
   -7.8910    2.9640   -2.3530 C   0  0  0  0  0  0  0  0  0  0  0  0
   -7.0480    4.1910   -2.4020 C   0  0  0  0  0  0  0  0  0  0  0  0
   -5.6000    3.9570   -2.7410 C   0  0  0  0  0  0  0  0  0  0  0  0
    5.8320   -1.0200    0.4470 N   0  0  0  0  0  0  0  0  0  0  0  0
    6.7200   -0.2530    1.3100 C   0  0  0  0  0  0  0  0  0  0  0  0
  1  2  1  0
  2  3  1  0
  3  4  2  0
  3  5  1  0
  5  6  2  0
  5 38  1  0
  6  7  1  0
  7  8  2  0
  8  9  1  0
  8 38  1  0
  9 10  1  0
 10 11  1  0
 11 12  2  0
 11 13  1  0
 13 14  1  1
 13 15  1  0
 15 16  1  0
 16 17  2  0
 16 18  1  0
 18 19  2  0
 18 27  1  0
 19 20  1  0
 20 21  2  0
 20 25  1  0
 21 22  1  0
 22 23  2  0
 22 37  1  0
 23 24  1  0
 23 34  1  0
 24 25  2  0
 25 26  1  0
 26 27  1  0
 27 28  1  6
 28 29  2  0
 28 33  1  0
 29 30  1  0
 30 31  1  0
 31 32  1  0
 31 33  2  0
 34 35  1  0
 35 36  1  0
 36 37  1  0
 38 39  1  0
M  END
