
     RDKit          3D

 34 38  0  0  0  0  0  0  0  0999 V2000
   10.4490   -0.6410   -0.9900 C   0  0  0  0  0  0  0  0  0  0  0  0
    9.0020   -0.6110   -0.6510 C   0  0  0  0  0  0  0  0  0  0  0  0
    8.0770   -1.2600   -1.4350 C   0  0  0  0  0  0  0  0  0  0  0  0
    6.7170   -1.2550   -1.1430 C   0  0  0  0  0  0  0  0  0  0  0  0
    6.3140   -0.5670   -0.0230 C   0  0  0  0  0  0  0  0  0  0  0  0
    4.8690   -0.5820    0.2730 C   0  0  0  0  0  0  0  0  0  0  0  0
    4.3630   -1.7260    0.8170 C   0  0  0  0  0  0  0  0  0  0  0  0
    5.2260   -2.8870    1.0770 C   0  0  0  0  0  0  0  0  0  0  0  0
    3.0410   -1.7070    1.0920 N   0  0  0  0  0  0  0  0  0  0  0  0
    2.3070   -0.6290    0.8360 C   0  0  0  0  0  0  0  0  0  0  0  0
    0.5320   -0.2800    1.0960 S   0  0  0  0  0  0  0  0  0  0  0  0
    0.5670    1.3770    0.4600 C   0  0  0  0  0  0  0  0  0  0  0  0
   -0.5950    2.2660    0.4000 C   0  0  0  0  0  0  0  0  0  0  0  0
   -1.5480    2.0250   -0.6280 N   0  0  0  0  0  0  0  0  0  0  0  0
   -2.5400    3.1070   -0.5100 C   0  0  0  0  0  0  0  0  0  0  0  0
   -3.4200    2.9590    0.6870 C   0  0  0  0  0  0  0  0  0  0  0  0
   -3.8190    1.6190    0.8930 O   0  0  0  0  0  0  0  0  0  0  0  0
   -3.6870    0.9880   -0.3450 C   0  0  2  0  0  0  0  0  0  0  0  0
   -4.5160   -0.2820   -0.4290 C   0  0  0  0  0  0  0  0  0  0  0  0
   -5.8460    0.0690   -0.2180 O   0  0  0  0  0  0  0  0  0  0  0  0
   -6.9490   -0.7450   -0.2130 C   0  0  0  0  0  0  0  0  0  0  0  0
   -6.9060   -2.1060   -0.4330 C   0  0  0  0  0  0  0  0  0  0  0  0
   -8.0380   -2.8940   -0.4220 C   0  0  0  0  0  0  0  0  0  0  0  0
   -9.2680   -2.2980   -0.1810 C   0  0  0  0  0  0  0  0  0  0  0  0
   -9.3170   -0.9310    0.0410 C   0  0  0  0  0  0  0  0  0  0  0  0
   -8.1900   -0.1530    0.0290 C   0  0  0  0  0  0  0  0  0  0  0  0
   -8.3200    1.2980    0.2790 C   0  0  0  0  0  0  0  0  0  0  0  0
   -2.2110    0.7340   -0.5540 C   0  0  0  0  0  0  0  0  0  0  0  0
    1.8540    1.5380    0.1150 C   0  0  0  0  0  0  0  0  0  0  0  0
    2.7470    0.5530    0.2900 C   0  0  0  0  0  0  0  0  0  0  0  0
    4.1380    0.5230    0.0060 C   0  0  0  0  0  0  0  0  0  0  0  0
    4.6930    1.5530   -0.5060 O   0  0  0  0  0  0  0  0  0  0  0  0
    7.2140    0.0920    0.7800 C   0  0  0  0  0  0  0  0  0  0  0  0
    8.5550    0.0680    0.4620 C   0  0  0  0  0  0  0  0  0  0  0  0
  1  2  1  0
  2  3  2  0
  2 34  1  0
  3  4  1  0
  4  5  2  0
  5  6  1  0
  5 33  1  0
  6  7  2  0
  6 31  1  0
  7  8  1  0
  7  9  1  0
  9 10  1  0
 10 11  1  0
 10 30  2  0
 11 12  1  0
 12 13  1  0
 12 29  2  0
 13 14  1  0
 14 15  1  0
 14 28  1  0
 15 16  1  0
 16 17  1  0
 17 18  1  0
 18 19  1  1
 18 28  1  0
 19 20  1  0
 20 21  1  0
 21 22  2  0
 21 26  1  0
 22 23  1  0
 23 24  2  0
 24 25  1  0
 25 26  2  0
 26 27  1  0
 29 30  1  0
 30 31  1  0
 31 32  2  0
 33 34  2  0
M  END
