
     RDKit          3D

 34 38  0  0  0  0  0  0  0  0999 V2000
   -1.2730    1.2600    2.3530 C   0  0  0  0  0  0  0  0  0  0  0  0
   -0.9060   -0.2200    2.1830 C   0  0  0  0  0  0  0  0  0  0  0  0
   -1.0650   -0.5610    0.7450 C   0  0  0  0  0  0  0  0  0  0  0  0
   -0.0320   -1.0040    0.0720 C   0  0  0  0  0  0  0  0  0  0  0  0
    0.0750   -1.4180   -1.3780 C   0  0  0  0  0  0  0  0  0  0  0  0
    0.9820   -2.6380   -1.1950 C   0  0  0  0  0  0  0  0  0  0  0  0
    1.9030   -2.2050   -0.0950 C   0  0  1  0  0  0  0  0  0  0  0  0
    3.2900   -1.9120   -0.5720 C   0  0  0  0  0  0  0  0  0  0  0  0
    4.2010   -1.4770    0.4560 N   0  0  0  0  0  0  0  0  0  0  0  0
    4.9170   -2.3760    1.2120 C   0  0  0  0  0  0  0  0  0  0  0  0
    5.6740   -1.6640    2.0890 C   0  0  0  0  0  0  0  0  0  0  0  0
    5.4200   -0.3410    1.8700 C   0  0  0  0  0  0  0  0  0  0  0  0
    4.4840   -0.2340    0.8320 C   0  0  0  0  0  0  0  0  0  0  0  0
    4.0250    1.0730    0.3260 C   0  0  0  0  0  0  0  0  0  0  0  0
    3.0490    1.2780   -0.5970 C   0  0  0  0  0  0  0  0  0  0  0  0
    2.6870    2.5570   -1.0690 C   0  0  0  0  0  0  0  0  0  0  0  0
    3.3270    3.6670   -0.5960 C   0  0  0  0  0  0  0  0  0  0  0  0
    4.3110    3.4840    0.3330 C   0  0  0  0  0  0  0  0  0  0  0  0
    4.6650    2.2260    0.7950 C   0  0  0  0  0  0  0  0  0  0  0  0
    1.2570   -1.1880    0.6150 O   0  0  0  0  0  0  0  0  0  0  0  0
   -2.3300   -0.3920    0.0500 C   0  0  0  0  0  0  0  0  0  0  0  0
   -3.4350   -1.1460    0.3860 C   0  0  0  0  0  0  0  0  0  0  0  0
   -4.6730   -1.0180   -0.2350 C   0  0  0  0  0  0  0  0  0  0  0  0
   -5.7770   -1.8330    0.1730 N   0  0  0  0  0  0  0  0  0  0  0  0
   -7.3250   -1.1410    0.4660 S   0  0  1  0  0  0  0  0  0  0  0  0
   -7.5380    0.1030   -0.3480 O   0  0  0  0  0  0  0  0  0  0  0  0
   -8.4350   -2.1040    0.1420 O   0  0  0  0  0  0  0  0  0  0  0  0
   -4.7560   -0.0780   -1.2330 C   0  0  0  0  0  0  0  0  0  0  0  0
   -3.6810    0.7100   -1.6130 C   0  0  0  0  0  0  0  0  0  0  0  0
   -3.8480    1.6440   -2.6080 C   0  0  0  0  0  0  0  0  0  0  0  0
   -2.7710    2.4160   -2.9380 C   0  0  0  0  0  0  0  0  0  0  0  0
   -1.5520    2.2870   -2.3170 C   0  0  0  0  0  0  0  0  0  0  0  0
   -1.3970    1.3460   -1.3210 C   0  0  0  0  0  0  0  0  0  0  0  0
   -2.4470    0.5410   -0.9500 C   0  0  0  0  0  0  0  0  0  0  0  0
  1  2  1  0
  2  3  1  0
  3  4  2  3
  3 21  1  0
  4  5  1  0
  4 20  1  0
  5  6  1  0
  6  7  1  0
  7  8  1  6
  7 20  1  0
  8  9  1  0
  9 10  1  0
  9 13  1  0
 10 11  2  0
 11 12  1  0
 12 13  2  0
 13 14  1  0
 14 15  2  0
 14 19  1  0
 15 16  1  0
 16 17  2  0
 17 18  1  0
 18 19  2  0
 21 22  2  0
 21 34  1  0
 22 23  1  0
 23 24  1  0
 23 28  2  0
 25 24  1  6
 25 26  2  0
 25 27  2  0
 28 29  1  0
 29 30  2  0
 29 34  1  0
 30 31  1  0
 31 32  2  0
 32 33  1  0
 33 34  2  0
M  END
