
     RDKit          3D

 34 38  0  0  0  0  0  0  0  0999 V2000
    8.4660   -1.3750    0.6220 C   0  0  0  0  0  0  0  0  0  0  0  0
    7.3010   -1.6200   -0.1770 O   0  0  0  0  0  0  0  0  0  0  0  0
    6.0470   -1.2600    0.2870 C   0  0  0  0  0  0  0  0  0  0  0  0
    5.9590   -0.7180    1.4170 O   0  0  0  0  0  0  0  0  0  0  0  0
    4.8540   -1.5050   -0.5170 C   0  0  0  0  0  0  0  0  0  0  0  0
    4.9020   -2.0900   -1.7480 C   0  0  0  0  0  0  0  0  0  0  0  0
    3.7330   -2.2890   -2.4500 C   0  0  0  0  0  0  0  0  0  0  0  0
    2.5040   -1.9190   -1.9590 C   0  0  0  0  0  0  0  0  0  0  0  0
    2.4460   -1.3200   -0.7020 C   0  0  0  0  0  0  0  0  0  0  0  0
    1.1230   -0.9500   -0.1910 C   0  0  0  0  0  0  0  0  0  0  0  0
    0.1150   -1.9230   -0.1430 C   0  0  0  0  0  0  0  0  0  0  0  0
   -1.1280   -1.5920    0.3620 C   0  0  0  0  0  0  0  0  0  0  0  0
   -1.4020   -0.3240    0.8210 C   0  0  0  0  0  0  0  0  0  0  0  0
   -2.6630    0.1550    1.3580 C   0  0  0  0  0  0  0  0  0  0  0  0
   -3.8390   -0.7360    1.3480 C   0  0  1  0  0  0  0  0  0  0  0  0
   -4.9690    0.0770    2.0090 C   0  0  0  0  0  0  0  0  0  0  0  0
   -5.5580    1.0460    0.9820 C   0  0  0  0  0  0  0  0  0  0  0  0
   -6.2690    0.1710    0.0140 C   0  0  0  0  0  0  0  0  0  0  0  0
   -7.4670    0.2300   -0.5630 C   0  0  0  0  0  0  0  0  0  0  0  0
   -7.6600   -0.9270   -1.4560 C   0  0  0  0  0  0  0  0  0  0  0  0
   -6.3880   -1.6730   -1.3070 C   0  0  0  0  0  0  0  0  0  0  0  0
   -5.5790   -1.0190   -0.4420 C   0  0  0  0  0  0  0  0  0  0  0  0
   -4.2140   -1.3200    0.0480 C   0  0  0  0  0  0  0  0  0  0  0  0
   -0.3820    0.5560    0.7410 N   0  0  0  0  0  0  0  0  0  0  0  0
    0.8310    0.3140    0.2710 C   0  0  0  0  0  0  0  0  0  0  0  0
    1.8390    1.3540    0.2100 N   0  0  0  0  0  0  0  0  0  0  0  0
    1.5600    2.6550    0.6930 C   0  0  0  0  0  0  0  0  0  0  0  0
    0.4460    2.9090    1.1850 O   0  0  0  0  0  0  0  0  0  0  0  0
    2.5950    3.7550    0.6270 C   0  0  0  0  0  0  0  0  0  0  0  0
    3.6950    3.6720   -0.0720 C   0  0  0  0  0  0  0  0  0  0  0  0
    4.6370    4.7230   -0.1010 C   0  0  0  0  0  0  0  0  0  0  0  0
    3.8240    5.9390    1.0030 S   0  0  0  0  0  0  0  0  0  0  0  0
    2.3380    4.9160    1.3700 C   0  0  0  0  0  0  0  0  0  0  0  0
    3.6140   -1.1280   -0.0130 C   0  0  0  0  0  0  0  0  0  0  0  0
  1  2  1  0
  2  3  1  0
  3  4  2  0
  3  5  1  0
  5  6  2  0
  5 34  1  0
  6  7  1  0
  7  8  2  0
  8  9  1  0
  9 10  1  0
  9 34  2  0
 10 11  2  0
 10 25  1  0
 11 12  1  0
 12 13  2  0
 13 14  1  0
 13 24  1  0
 15 14  1  6
 15 16  1  0
 15 23  1  0
 16 17  1  0
 17 18  1  0
 18 19  2  0
 18 22  1  0
 19 20  1  0
 20 21  1  0
 21 22  2  0
 22 23  1  0
 24 25  2  0
 25 26  1  0
 26 27  1  0
 27 28  2  0
 27 29  1  0
 29 30  1  0
 29 33  2  0
 30 31  2  0
 31 32  1  0
 32 33  1  0
M  END
