
     RDKit          3D

 34 34  0  0  0  0  0  0  0  0999 V2000
   -2.9350    2.4490   -1.2390 O   0  0  0  0  0  0  0  0  0  0  0  0
   -2.4280    1.7350   -0.2930 C   0  0  0  0  0  0  0  0  0  0  0  0
   -3.2740    1.5580    0.7600 O   0  0  0  0  0  0  0  0  0  0  0  0
   -4.5610    2.0680    0.8660 C   0  0  0  0  0  0  0  0  0  0  0  0
   -4.6530    3.5690    0.8230 C   0  0  0  0  0  0  0  0  0  0  0  0
   -5.9880    3.9860    0.9370 O   0  0  0  0  0  0  0  0  0  0  0  0
   -1.0770    1.2500   -0.4940 C   0  0  2  0  0  0  0  0  0  0  0  0
   -0.4650    1.7670   -1.7830 C   0  0  0  0  0  0  0  0  0  0  0  0
   -1.1790    1.4070   -2.9200 O   0  0  0  0  0  0  0  0  0  0  0  0
   -0.6710   -0.1350   -0.1250 C   0  0  1  0  0  0  0  0  0  0  0  0
    0.8190   -0.1290   -0.5120 C   0  0  0  0  0  0  0  0  0  0  0  0
    1.2740   -0.6650   -1.5270 O   0  0  0  0  0  0  0  0  0  0  0  0
    1.7330    0.5180    0.3110 O   0  0  0  0  0  0  0  0  0  0  0  0
    3.1470    0.5290   -0.0590 C   0  0  2  0  0  0  0  0  0  0  0  0
    3.7630   -0.1730    1.1620 C   0  0  0  0  0  0  0  0  0  0  0  0
    3.4620    0.5990    2.2840 O   0  0  0  0  0  0  0  0  0  0  0  0
    3.5310    1.9590   -0.0360 C   0  0  0  0  0  0  0  0  0  0  0  0
    4.8900    2.3670   -0.4020 C   0  0  0  0  0  0  0  0  0  0  0  0
    6.0520    1.8700    0.3650 C   0  0  0  0  0  0  0  0  0  0  0  0
    6.0190    2.1970    1.7330 O   0  0  0  0  0  0  0  0  0  0  0  0
   -0.6330   -0.2040    1.3680 C   0  0  1  0  0  0  0  0  0  0  0  0
   -1.7720    0.0090    2.0610 O   0  0  0  0  0  0  0  0  0  0  0  0
    0.0710   -1.2570    1.9280 O   0  0  0  0  0  0  0  0  0  0  0  0
   -1.3190   -1.2560   -0.8540 C   0  0  2  0  0  0  0  0  0  0  0  0
   -0.9460   -1.0530   -2.2090 O   0  0  0  0  0  0  0  0  0  0  0  0
   -2.8320   -1.1750   -0.9100 C   0  0  0  0  0  0  0  0  0  0  0  0
   -3.4600   -1.4070    0.2760 O   0  0  0  0  0  0  0  0  0  0  0  0
   -0.8980   -2.6330   -0.5540 C   0  0  2  0  0  0  0  0  0  0  0  0
   -1.4350   -3.7220   -1.4530 C   0  0  0  0  0  0  0  0  0  0  0  0
   -2.7560   -4.0350   -1.3220 O   0  0  0  0  0  0  0  0  0  0  0  0
   -1.2080   -3.0760    0.7540 O   0  0  0  0  0  0  0  0  0  0  0  0
   -0.4340   -4.2530    0.8880 C   0  0  0  0  0  0  0  0  0  0  0  0
    0.7720   -3.9680    0.0650 C   0  0  0  0  0  0  0  0  0  0  0  0
    0.4930   -2.8210   -0.6150 O   0  0  0  0  0  0  0  0  0  0  0  0
  1  2  2  0
  2  3  1  0
  2  7  1  0
  3  4  1  0
  4  5  1  0
  5  6  1  0
  7  8  1  6
  7 10  1  0
  8  9  1  0
 10 11  1  6
 10 21  1  0
 10 24  1  0
 11 12  2  0
 11 13  1  0
 13 14  1  0
 14 15  1  1
 14 17  1  0
 15 16  1  0
 17 18  1  0
 18 19  1  0
 19 20  1  0
 21 22  1  6
 21 23  1  0
 24 25  1  6
 24 26  1  0
 24 28  1  0
 26 27  1  0
 28 29  1  6
 28 31  1  0
 28 34  1  0
 29 30  1  0
 31 32  1  0
 32 33  1  0
 33 34  1  0
M  END
