
     RDKit          3D

 23 26  0  0  0  0  0  0  0  0999 V2000
    1.4940    2.1700    2.5950 O   0  0  0  0  0  0  0  0  0  0  0  0
    2.5140    1.8250    1.8970 C   0  0  0  0  0  0  0  0  0  0  0  0
    3.8690    1.8890    2.4920 C   0  0  0  0  0  0  0  0  0  0  0  0
    4.7650    2.5980    1.0060 S   0  0  0  0  0  0  0  0  0  0  0  0
    3.6430    1.6880   -0.1780 C   0  0  0  0  0  0  0  0  0  0  0  0
    3.4160    1.0350   -1.8010 S   0  0  0  0  0  0  0  0  0  0  0  0
    1.7210    0.3200   -1.3260 C   0  0  0  0  0  0  0  0  0  0  0  0
    0.9610   -0.4580   -2.4260 C   0  0  0  0  0  0  0  0  0  0  0  0
    1.5170   -0.6700   -3.6360 C   0  0  0  0  0  0  0  0  0  0  0  0
    0.7680   -1.3770   -4.5570 C   0  0  0  0  0  0  0  0  0  0  0  0
   -0.7140   -1.7330   -3.6980 S   0  0  0  0  0  0  0  0  0  0  0  0
   -0.2400   -0.9020   -2.1330 C   0  0  0  0  0  0  0  0  0  0  0  0
   -1.1880   -0.9150   -1.0400 C   0  0  0  0  0  0  0  0  0  0  0  0
   -2.3030   -1.5510   -1.2870 O   0  0  0  0  0  0  0  0  0  0  0  0
   -1.1700   -0.3880    0.2380 N   0  0  0  0  0  0  0  0  0  0  0  0
   -2.2970   -0.5610    1.1560 C   0  0  0  0  0  0  0  0  0  0  0  0
   -2.2460   -1.1580    2.3290 C   0  0  0  0  0  0  0  0  0  0  0  0
   -3.5860   -1.1370    2.9640 C   0  0  0  0  0  0  0  0  0  0  0  0
   -4.4240   -0.4330    1.9700 C   0  0  0  0  0  0  0  0  0  0  0  0
   -3.6640   -0.1200    0.9580 C   0  0  0  0  0  0  0  0  0  0  0  0
   -4.1980    0.7330   -0.4880 Cl  0  0  0  0  0  0  0  0  0  0  0  0
    1.7020    0.6640   -0.2600 N   0  0  0  0  0  0  0  0  0  0  0  0
    2.5320    1.3460    0.5070 C   0  0  0  0  0  0  0  0  0  0  0  0
  1  2  2  0
  2  3  1  0
  2 23  1  0
  3  4  1  0
  4  5  1  0
  5  6  1  0
  5 23  2  0
  6  7  1  0
  7  8  1  0
  7 22  2  0
  8  9  1  0
  8 12  2  0
  9 10  2  0
 10 11  1  0
 11 12  1  0
 12 13  1  0
 13 14  2  0
 13 15  1  0
 15 16  1  0
 16 17  2  0
 16 20  1  0
 17 18  1  0
 18 19  1  0
 19 20  2  0
 20 21  1  0
 22 23  1  0
M  END
