
     RDKit          3D

 23 25  0  0  0  0  0  0  0  0999 V2000
    8.1320    0.9510    0.8330 C   0  0  0  0  0  0  0  0  0  0  0  0
    6.7100    0.9560    0.8720 O   0  0  0  0  0  0  0  0  0  0  0  0
    5.9470    0.1660    0.0350 C   0  0  0  0  0  0  0  0  0  0  0  0
    6.5520   -0.5720   -0.7800 O   0  0  0  0  0  0  0  0  0  0  0  0
    4.5590    0.2020    0.1060 C   0  0  0  0  0  0  0  0  0  0  0  0
    3.6060    0.8360    0.8150 C   0  0  0  0  0  0  0  0  0  0  0  0
    2.3620    0.5980    0.5870 N   0  0  0  0  0  0  0  0  0  0  0  0
    1.8740   -0.1730   -0.2390 C   0  0  0  0  0  0  0  0  0  0  0  0
    0.6650   -0.6760   -0.7540 N   0  0  0  0  0  0  0  0  0  0  0  0
   -0.6030   -0.2520   -0.2620 C   0  0  0  0  0  0  0  0  0  0  0  0
   -0.9710    0.9370   -0.7010 C   0  0  0  0  0  0  0  0  0  0  0  0
   -2.4380    1.8940   -0.3870 S   0  0  0  0  0  0  0  0  0  0  0  0
   -3.8030    0.7770   -0.1150 C   0  0  0  0  0  0  0  0  0  0  0  0
   -5.0060    1.3220   -0.5320 C   0  0  0  0  0  0  0  0  0  0  0  0
   -6.1320    0.5670   -0.3780 C   0  0  0  0  0  0  0  0  0  0  0  0
   -6.0980   -0.6880    0.1670 C   0  0  0  0  0  0  0  0  0  0  0  0
   -7.5990   -1.6460    0.3510 S   0  0  0  0  0  0  0  0  0  0  0  0
   -4.8900   -1.2110    0.5750 C   0  0  0  0  0  0  0  0  0  0  0  0
   -3.7020   -0.4810    0.4420 C   0  0  0  0  0  0  0  0  0  0  0  0
   -2.5910   -1.2420    0.9380 C   0  0  0  0  0  0  0  0  0  0  0  0
   -1.3320   -1.1230    0.6300 C   0  0  0  0  0  0  0  0  0  0  0  0
   -0.2930   -2.2740    1.4840 Cl  0  0  0  0  0  0  0  0  0  0  0  0
    3.4420   -0.8300   -0.9870 S   0  0  0  0  0  0  0  0  0  0  0  0
  1  2  1  0
  2  3  1  0
  3  4  2  0
  3  5  1  0
  5  6  2  0
  5 23  1  0
  6  7  1  0
  7  8  2  0
  8  9  1  0
  8 23  1  0
  9 10  1  0
 10 11  2  0
 10 21  1  0
 11 12  1  0
 12 13  1  0
 13 14  2  0
 13 19  1  0
 14 15  1  0
 15 16  2  0
 16 17  1  0
 16 18  1  0
 18 19  2  0
 19 20  1  0
 20 21  2  0
 21 22  1  0
M  END
