
     RDKit          3D

 23 25  0  0  0  0  0  0  0  0999 V2000
   -2.0300    2.5430   -0.3950 C   0  0  0  0  0  0  0  0  0  0  0  0
   -3.3810    2.6460    0.3230 C   0  0  0  0  0  0  0  0  0  0  0  0
   -4.0830    3.7200    0.4860 N   0  0  0  0  0  0  0  0  0  0  0  0
   -5.1650    3.8500    1.0470 C   0  0  0  0  0  0  0  0  0  0  0  0
   -5.4630    2.0880    1.5650 S   0  0  0  0  0  0  0  0  0  0  0  0
   -3.9140    1.4870    0.8460 C   0  0  0  0  0  0  0  0  0  0  0  0
   -3.4700    0.1290    0.8880 C   0  0  0  0  0  0  0  0  0  0  0  0
   -4.2090   -0.7330    1.4450 O   0  0  0  0  0  0  0  0  0  0  0  0
   -2.2830   -0.3390    0.3670 O   0  0  0  0  0  0  0  0  0  0  0  0
   -1.9030   -1.7040    0.4400 C   0  0  0  0  0  0  0  0  0  0  0  0
   -0.5720   -1.8940   -0.1950 C   0  0  0  0  0  0  0  0  0  0  0  0
    0.5030   -1.0730   -0.3080 C   0  0  0  0  0  0  0  0  0  0  0  0
    1.5970   -1.5160   -0.9430 C   0  0  0  0  0  0  0  0  0  0  0  0
    2.8340   -0.6770   -1.0700 C   0  0  0  0  0  0  0  0  0  0  0  0
    3.6140   -0.5120   -2.6220 Cl  0  0  0  0  0  0  0  0  0  0  0  0
    3.3510   -0.0580   -0.0290 C   0  0  0  0  0  0  0  0  0  0  0  0
    2.9350   -0.0250    1.3240 N   0  0  0  0  0  0  0  0  0  0  0  0
    3.6820    0.7460    2.1910 C   0  0  0  0  0  0  0  0  0  0  0  0
    4.7210    1.3920    1.7220 C   0  0  0  0  0  0  0  0  0  0  0  0
    4.8010    1.0040   -0.0190 S   0  0  0  0  0  0  0  0  0  0  0  0
    1.6140   -2.7690   -1.4620 C   0  0  0  0  0  0  0  0  0  0  0  0
    2.5920   -3.5740   -2.1960 C   0  0  0  0  0  0  0  0  0  0  0  0
   -0.0560   -3.3520   -1.0050 S   0  0  0  0  0  0  0  0  0  0  0  0
  1  2  1  0
  2  3  1  0
  2  6  2  0
  3  4  2  0
  4  5  1  0
  5  6  1  0
  6  7  1  0
  7  8  2  0
  7  9  1  0
  9 10  1  0
 10 11  1  0
 11 12  2  0
 11 23  1  0
 12 13  1  0
 13 14  1  0
 13 21  2  0
 14 15  1  0
 14 16  2  3
 16 17  1  0
 16 20  1  0
 17 18  1  0
 18 19  2  0
 19 20  1  0
 21 22  1  0
 21 23  1  0
M  END
