
     RDKit          3D

 23 26  0  0  0  0  0  0  0  0999 V2000
   -2.4850    0.0910    1.4640 C   0  0  0  0  0  0  0  0  0  0  0  0
   -2.2640   -0.1770    0.0080 C   0  0  0  0  0  0  0  0  0  0  0  0
   -3.2840   -0.2900   -0.9120 C   0  0  0  0  0  0  0  0  0  0  0  0
   -4.9950   -0.1650   -0.6620 S   0  0  2  0  0  0  0  0  0  0  0  0
   -5.4080    1.4300   -0.0130 C   0  0  0  0  0  0  0  0  0  0  0  0
   -5.4760   -1.2570    0.2450 O   0  0  0  0  0  0  0  0  0  0  0  0
   -5.7070   -0.3310   -1.9710 O   0  0  0  0  0  0  0  0  0  0  0  0
   -2.6950   -0.5280   -2.1000 N   0  0  0  0  0  0  0  0  0  0  0  0
   -1.3900   -0.5610   -1.9340 C   0  0  0  0  0  0  0  0  0  0  0  0
    0.2250   -0.7840   -2.7610 S   0  0  0  0  0  0  0  0  0  0  0  0
    1.2650   -0.5620   -1.2270 C   0  0  0  0  0  0  0  0  0  0  0  0
    2.6900   -0.6830   -1.3330 C   0  0  0  0  0  0  0  0  0  0  0  0
    3.1430   -1.3770   -2.5150 N   0  0  0  0  0  0  0  0  0  0  0  0
    4.8900   -1.4920   -2.3390 S   0  0  0  0  0  0  0  0  0  0  0  0
    4.9700   -0.6280   -0.7270 C   0  0  0  0  0  0  0  0  0  0  0  0
    6.0190   -0.3030    0.0680 C   0  0  0  0  0  0  0  0  0  0  0  0
    5.7970    0.3940    1.2540 C   0  0  0  0  0  0  0  0  0  0  0  0
    4.4980    0.7150    1.5490 C   0  0  0  0  0  0  0  0  0  0  0  0
    4.1530    1.6070    3.0510 Cl  0  0  0  0  0  0  0  0  0  0  0  0
    3.4510    0.3770    0.7320 C   0  0  0  0  0  0  0  0  0  0  0  0
    3.6470   -0.3430   -0.4960 C   0  0  0  0  0  0  0  0  0  0  0  0
    0.3280   -0.3640   -0.3550 C   0  0  0  0  0  0  0  0  0  0  0  0
   -1.0030   -0.3490   -0.6280 C   0  0  0  0  0  0  0  0  0  0  0  0
  1  2  1  0
  2  3  2  0
  2 23  1  0
  3  4  1  0
  3  8  1  0
  4  5  1  1
  4  6  2  0
  4  7  2  0
  8  9  1  0
  9 10  1  0
  9 23  2  0
 10 11  1  0
 11 12  1  0
 11 22  2  0
 12 13  2  0
 12 21  1  0
 13 14  1  0
 14 15  1  0
 15 16  2  0
 15 21  1  0
 16 17  1  0
 17 18  2  0
 18 19  1  0
 18 20  1  0
 20 21  2  0
 22 23  1  0
M  END
