
     RDKit          3D

 23 25  0  0  0  0  0  0  0  0999 V2000
   -2.6710   -2.3200   -0.3610 O   0  0  0  0  0  0  0  0  0  0  0  0
   -1.5440   -1.7410   -0.2060 C   0  0  0  0  0  0  0  0  0  0  0  0
   -1.5020   -0.3550   -0.2630 N   0  0  0  0  0  0  0  0  0  0  0  0
   -2.5720    0.5440   -0.4660 C   0  0  0  0  0  0  0  0  0  0  0  0
   -2.3850    1.8930   -0.1580 C   0  0  0  0  0  0  0  0  0  0  0  0
   -3.4370    2.7500   -0.3830 C   0  0  0  0  0  0  0  0  0  0  0  0
   -4.6130    2.3280   -0.8810 N   0  0  0  0  0  0  0  0  0  0  0  0
   -4.8140    1.0570   -1.1800 C   0  0  0  0  0  0  0  0  0  0  0  0
   -3.7680    0.1450   -0.9680 C   0  0  0  0  0  0  0  0  0  0  0  0
   -0.3830   -2.6420    0.0190 C   0  0  0  0  0  0  0  0  0  0  0  0
   -0.5320   -4.3700   -0.0610 S   0  0  0  0  0  0  0  0  0  0  0  0
    0.9480   -5.0780    0.2310 C   0  0  0  0  0  0  0  0  0  0  0  0
    1.3940   -6.7460    0.2770 S   0  0  0  0  0  0  0  0  0  0  0  0
    1.9140   -3.7240    0.4740 S   0  0  0  0  0  0  0  0  0  0  0  0
    0.9630   -2.3000    0.3160 C   0  0  0  0  0  0  0  0  0  0  0  0
    1.4600   -0.9470    0.5450 C   0  0  0  0  0  0  0  0  0  0  0  0
    2.5260   -0.4740   -0.0970 C   0  0  0  0  0  0  0  0  0  0  0  0
    3.3160   -1.5400   -1.2340 Cl  0  0  0  0  0  0  0  0  0  0  0  0
    2.9990    0.8870    0.1510 C   0  0  0  0  0  0  0  0  0  0  0  0
    4.0900    1.4340   -0.4750 C   0  0  0  0  0  0  0  0  0  0  0  0
    4.2380    2.7020   -0.0080 C   0  0  0  0  0  0  0  0  0  0  0  0
    3.2220    2.8910    0.8970 C   0  0  0  0  0  0  0  0  0  0  0  0
    2.5200    1.7920    0.9550 O   0  0  0  0  0  0  0  0  0  0  0  0
  1  2  2  0
  2  3  1  0
  2 10  1  0
  3  4  1  0
  4  5  2  0
  4  9  1  0
  5  6  1  0
  6  7  2  0
  7  8  1  0
  8  9  2  0
 10 11  1  0
 10 15  2  0
 11 12  1  0
 12 13  2  0
 12 14  1  0
 14 15  1  0
 15 16  1  0
 16 17  2  3
 17 18  1  0
 17 19  1  0
 19 20  2  0
 19 23  1  0
 20 21  1  0
 21 22  2  0
 22 23  1  0
M  END
