
     RDKit          3D

 23 26  0  0  0  0  0  0  0  0999 V2000
    7.9380    0.5850   -0.5910 O   0  0  0  0  0  0  0  0  0  0  0  0
    7.0610   -0.3570    0.1770 S   0  0  2  0  0  0  0  0  0  0  0  0
    7.1720   -1.7570   -0.3700 O   0  0  0  0  0  0  0  0  0  0  0  0
    5.4130    0.2190    0.1380 C   0  0  0  0  0  0  0  0  0  0  0  0
    4.7140    0.5340    1.2840 C   0  0  0  0  0  0  0  0  0  0  0  0
    3.4150    0.9830    1.1690 C   0  0  0  0  0  0  0  0  0  0  0  0
    2.7870    1.1290   -0.0450 C   0  0  0  0  0  0  0  0  0  0  0  0
    1.1090    1.7110   -0.1480 S   0  0  0  0  0  0  0  0  0  0  0  0
   -0.0330    0.3390   -0.0880 C   0  0  0  0  0  0  0  0  0  0  0  0
    0.3720   -1.3720    0.0530 S   0  0  0  0  0  0  0  0  0  0  0  0
   -1.3370   -1.9780    0.0370 C   0  0  0  0  0  0  0  0  0  0  0  0
   -2.0500   -0.8120   -0.0750 C   0  0  0  0  0  0  0  0  0  0  0  0
   -3.4300   -0.8150   -0.1230 N   0  0  0  0  0  0  0  0  0  0  0  0
   -4.1680    0.2840   -0.2310 C   0  0  0  0  0  0  0  0  0  0  0  0
   -5.6760    0.2120   -0.2790 C   0  0  1  0  0  0  0  0  0  0  0  0
   -6.3400   -1.0130   -0.7570 C   0  0  0  0  0  0  0  0  0  0  0  0
   -6.2760   -0.7360    0.7490 C   0  0  0  0  0  0  0  0  0  0  0  0
   -3.5360    1.4710   -0.2960 N   0  0  0  0  0  0  0  0  0  0  0  0
   -2.1900    1.5130   -0.2510 C   0  0  0  0  0  0  0  0  0  0  0  0
   -1.4330    0.3420   -0.1380 C   0  0  0  0  0  0  0  0  0  0  0  0
    3.5000    0.8090   -1.1760 C   0  0  0  0  0  0  0  0  0  0  0  0
    2.6810    1.0020   -2.7180 Cl  0  0  0  0  0  0  0  0  0  0  0  0
    4.8140    0.3530   -1.0980 C   0  0  0  0  0  0  0  0  0  0  0  0
  1  2  2  0
  2  3  2  0
  2  4  1  6
  4  5  2  0
  4 23  1  0
  5  6  1  0
  6  7  2  0
  7  8  1  0
  7 21  1  0
  8  9  1  0
  9 10  1  0
  9 20  2  0
 10 11  1  0
 11 12  2  0
 12 13  1  0
 12 20  1  0
 13 14  2  0
 15 14  1  1
 14 18  1  0
 15 16  1  0
 15 17  1  0
 16 17  1  0
 18 19  2  0
 19 20  1  0
 21 22  1  0
 21 23  2  0
M  END
