
     RDKit          3D

 23 25  0  0  0  0  0  0  0  0999 V2000
   -5.7230    1.8970    1.3820 C   0  0  0  0  0  0  0  0  0  0  0  0
   -4.9810    1.3050    0.2310 C   0  0  0  0  0  0  0  0  0  0  0  0
   -4.7200    1.9370   -0.9650 C   0  0  0  0  0  0  0  0  0  0  0  0
   -4.0110    1.0080   -1.7250 C   0  0  0  0  0  0  0  0  0  0  0  0
   -3.8920   -0.1040   -0.9540 C   0  0  0  0  0  0  0  0  0  0  0  0
   -3.2320   -1.3820   -1.2750 C   0  0  0  0  0  0  0  0  0  0  0  0
   -1.8850   -1.4840   -0.6900 N   0  0  0  0  0  0  0  0  0  0  0  0
   -0.8760   -0.5930   -1.0030 C   0  0  0  0  0  0  0  0  0  0  0  0
   -1.1870    0.3280   -1.8360 O   0  0  0  0  0  0  0  0  0  0  0  0
    0.5080   -0.5460   -0.5200 C   0  0  0  0  0  0  0  0  0  0  0  0
    1.6350    0.6810   -1.0520 S   0  0  0  0  0  0  0  0  0  0  0  0
    3.0570    0.0970   -0.0630 C   0  0  0  0  0  0  0  0  0  0  0  0
    2.5620   -0.9360    0.5550 C   0  0  0  0  0  0  0  0  0  0  0  0
    1.2460   -1.3060    0.3490 C   0  0  0  0  0  0  0  0  0  0  0  0
    0.5750   -2.4950    1.0240 C   0  0  0  0  0  0  0  0  0  0  0  0
    3.4410   -1.7490    1.5180 C   0  0  0  0  0  0  0  0  0  0  0  0
    5.0520   -1.1180    1.6280 S   0  0  0  0  0  0  0  0  0  0  0  0
    5.2800    0.2940    0.6150 C   0  0  0  0  0  0  0  0  0  0  0  0
    6.8200    1.1060    0.5600 S   0  0  0  0  0  0  0  0  0  0  0  0
    6.8180    2.5470   -0.5620 C   0  0  0  0  0  0  0  0  0  0  0  0
    8.4240    3.2620   -0.5170 Cl  0  0  0  0  0  0  0  0  0  0  0  0
    4.3230    0.7190   -0.0740 N   0  0  0  0  0  0  0  0  0  0  0  0
   -4.4860    0.1130    0.2090 O   0  0  0  0  0  0  0  0  0  0  0  0
  1  2  1  0
  2  3  2  0
  2 23  1  0
  3  4  1  0
  4  5  2  0
  5  6  1  0
  5 23  1  0
  6  7  1  0
  7  8  1  0
  8  9  2  0
  8 10  1  0
 10 11  1  0
 10 14  2  0
 11 12  1  0
 12 13  2  0
 12 22  1  0
 13 14  1  0
 13 16  1  0
 14 15  1  0
 16 17  1  0
 17 18  1  0
 18 19  1  0
 18 22  2  0
 19 20  1  0
 20 21  1  0
M  END
