
     RDKit          3D

 28 30  0  0  0  0  0  0  0  0999 V2000
    2.4320    0.4280   -0.3450 O   0  0  0  0  0  0  0  0  0  0  0  0
    2.4040    0.4920    0.9170 C   0  0  0  0  0  0  0  0  0  0  0  0
    1.4460   -0.2290    1.6880 C   0  0  0  0  0  0  0  0  0  0  0  0
    0.0900   -0.1590    1.4200 N   0  0  0  0  0  0  0  0  0  0  0  0
   -0.4450   -0.7240    0.2210 C   0  0  2  0  0  0  0  0  0  0  0  0
   -0.2550    0.0650   -1.0280 C   0  0  0  0  0  0  0  0  0  0  0  0
    0.3490   -0.2860   -2.0530 O   0  0  0  0  0  0  0  0  0  0  0  0
   -0.8950    1.4020   -0.9690 N   0  0  0  0  0  0  0  0  0  0  0  0
   -1.6280    1.6490    0.1950 C   0  0  1  0  0  0  0  0  0  0  0  0
   -2.8080    2.6390    0.0990 C   0  0  0  0  0  0  0  0  0  0  0  0
   -3.5990    1.9570   -0.8580 O   0  0  0  0  0  0  0  0  0  0  0  0
   -5.1900    1.7310   -0.2620 P   0  0  0  0  0  0  0  0  0  0  0  0
   -5.4820   -0.0240   -0.5050 O   0  0  0  0  0  0  0  0  0  0  0  0
   -6.3850    2.5960   -1.0370 O   0  0  0  0  0  0  0  0  0  0  0  0
   -2.4600    0.3530    0.3300 N   0  0  0  0  0  0  0  0  0  0  0  0
   -1.9580   -0.7730    0.3240 C   0  0  0  0  0  0  0  0  0  0  0  0
   -2.2700   -2.1470    0.4110 O   0  0  0  0  0  0  0  0  0  0  0  0
   -1.3400   -2.7270   -0.5230 C   0  0  2  0  0  0  0  0  0  0  0  0
   -1.1800   -4.0670   -0.4570 O   0  0  0  0  0  0  0  0  0  0  0  0
    0.5370   -4.2090   -0.8870 P   0  0  0  0  0  0  0  0  0  0  0  0
    0.7440   -4.6840   -2.5130 O   0  0  0  0  0  0  0  0  0  0  0  0
    0.9500   -2.5110   -0.6950 O   0  0  0  0  0  0  0  0  0  0  0  0
   -0.1130   -2.1710    0.1030 C   0  0  1  0  0  0  0  0  0  0  0  0
    3.3950    1.3220    1.4910 O   0  0  0  0  0  0  0  0  0  0  0  0
    4.2660    1.8840    0.5900 O   0  0  0  0  0  0  0  0  0  0  0  0
    5.3040    0.8960    0.5810 C   0  0  0  0  0  0  0  0  0  0  0  0
    6.2920    1.2270   -0.3180 O   0  0  0  0  0  0  0  0  0  0  0  0
    6.7800    2.3790   -0.0130 O   0  0  0  0  0  0  0  0  0  0  0  0
  1  2  2  0
  2  3  1  0
  2 24  1  0
  3  4  1  0
  5  4  1  1
  5  6  1  0
  5 16  1  0
  5 23  1  0
  6  7  2  0
  6  8  1  0
  8  9  1  0
  9 10  1  6
  9 15  1  0
 10 11  1  0
 11 12  1  0
 12 13  1  0
 12 14  1  0
 15 16  2  0
 16 17  1  0
 18 17  1  1
 18 19  1  0
 18 23  1  0
 19 20  1  0
 20 21  1  0
 20 22  1  0
 23 22  1  6
 24 25  1  0
 25 26  1  0
 26 27  1  0
 27 28  1  0
M  END
