
     RDKit          3D

 28 29  0  0  0  0  0  0  0  0999 V2000
    1.5460   -0.0610    0.3420 O   0  0  0  0  0  0  0  0  0  0  0  0
    1.7330    1.1580    0.4880 C   0  0  0  0  0  0  0  0  0  0  0  0
    2.3700    1.7120    1.5920 N   0  0  0  0  0  0  0  0  0  0  0  0
    2.8390    0.8140    2.5840 C   0  0  0  0  0  0  0  0  0  0  0  0
    3.8480   -0.1950    2.0770 C   0  0  0  0  0  0  0  0  0  0  0  0
    4.9770    0.4190    1.5600 O   0  0  0  0  0  0  0  0  0  0  0  0
    6.1290   -0.7360    0.9810 P   0  0  0  0  0  0  0  0  0  0  0  0
    7.0710   -1.3260    2.3170 O   0  0  0  0  0  0  0  0  0  0  0  0
    5.3710   -2.0860    0.2100 O   0  0  0  0  0  0  0  0  0  0  0  0
    1.2490    1.9130   -0.5610 N   0  0  0  0  0  0  0  0  0  0  0  0
    0.5360    1.4220   -1.6820 C   0  0  0  0  0  0  0  0  0  0  0  0
    0.4820    2.2860   -2.6170 N   0  0  0  0  0  0  0  0  0  0  0  0
   -0.1480    1.8430   -3.7030 O   0  0  0  0  0  0  0  0  0  0  0  0
   -0.5570    0.5470   -3.5370 C   0  0  0  0  0  0  0  0  0  0  0  0
   -0.9990   -0.6230   -3.9210 C   0  0  0  0  0  0  0  0  0  0  0  0
   -1.1200   -1.5190   -2.7040 C   0  0  0  0  0  0  0  0  0  0  0  0
   -0.0720   -0.9170   -1.9340 O   0  0  0  0  0  0  0  0  0  0  0  0
   -0.4100    0.4020   -2.0290 C   0  0  1  0  0  0  0  0  0  0  0  0
   -1.7510    0.6300   -1.5670 O   0  0  0  0  0  0  0  0  0  0  0  0
   -2.1930    0.7620   -0.3000 C   0  0  0  0  0  0  0  0  0  0  0  0
   -1.3900    0.6850    0.6550 O   0  0  0  0  0  0  0  0  0  0  0  0
   -3.6620    1.0050   -0.0150 C   0  0  1  0  0  0  0  0  0  0  0  0
   -4.3490    1.0520   -1.2280 O   0  0  0  0  0  0  0  0  0  0  0  0
   -4.2100   -0.1220    0.7940 C   0  0  0  0  0  0  0  0  0  0  0  0
   -4.0630   -1.3490    0.1490 O   0  0  0  0  0  0  0  0  0  0  0  0
   -4.5360   -2.3330    0.8450 O   0  0  0  0  0  0  0  0  0  0  0  0
   -5.8280   -2.3060    1.0160 O   0  0  0  0  0  0  0  0  0  0  0  0
   -6.1520   -2.1830    2.2760 O   0  0  0  0  0  0  0  0  0  0  0  0
  1  2  2  0
  2  3  1  0
  2 10  1  0
  3  4  1  0
  4  5  1  0
  5  6  1  0
  6  7  1  0
  7  8  1  0
  7  9  1  0
 10 11  1  0
 11 12  2  0
 11 18  1  0
 12 13  1  0
 13 14  1  0
 14 15  2  0
 14 18  1  0
 15 16  1  0
 16 17  1  0
 17 18  1  0
 18 19  1  1
 19 20  1  0
 20 21  2  0
 20 22  1  0
 22 23  1  6
 22 24  1  0
 24 25  1  0
 25 26  1  0
 26 27  1  0
 27 28  1  0
M  END
