
     RDKit          3D

 28 28  0  0  0  0  0  0  0  0999 V2000
   -1.8450    4.3630   -0.3750 O   0  0  0  0  0  0  0  0  0  0  0  0
   -2.2830    3.7920    0.6790 C   0  0  0  0  0  0  0  0  0  0  0  0
   -2.8820    4.6260    1.5820 O   0  0  0  0  0  0  0  0  0  0  0  0
   -2.1530    2.3970    0.8500 N   0  0  0  0  0  0  0  0  0  0  0  0
   -1.5430    1.6070   -0.2150 C   0  0  2  0  0  0  0  0  0  0  0  0
   -0.7690    2.4470   -1.0080 O   0  0  0  0  0  0  0  0  0  0  0  0
   -2.5040    1.0200   -1.0660 O   0  0  0  0  0  0  0  0  0  0  0  0
   -3.7230    0.9400   -0.5430 N   0  0  0  0  0  0  0  0  0  0  0  0
   -3.9360   -0.0560    0.4540 C   0  0  0  0  0  0  0  0  0  0  0  0
   -4.3160   -1.3990   -0.1100 C   0  0  0  0  0  0  0  0  0  0  0  0
   -5.4180   -1.4630   -0.6110 O   0  0  0  0  0  0  0  0  0  0  0  0
   -3.4790   -2.5100   -0.0000 N   0  0  0  0  0  0  0  0  0  0  0  0
   -2.1190   -2.6060   -0.3650 C   0  0  0  0  0  0  0  0  0  0  0  0
   -1.0710   -2.3640    0.6850 C   0  0  0  0  0  0  0  0  0  0  0  0
    0.1660   -2.0680    0.1110 O   0  0  0  0  0  0  0  0  0  0  0  0
    0.4170   -1.2160   -0.9360 C   0  0  0  0  0  0  0  0  0  0  0  0
    0.7420   -1.4720   -2.0150 O   0  0  0  0  0  0  0  0  0  0  0  0
    0.2790    0.2390   -0.5220 C   0  0  2  0  0  0  0  0  0  0  0  0
    1.5370    0.5990    0.1920 C   0  0  0  0  0  0  0  0  0  0  0  0
    2.6760    0.0940   -0.5540 O   0  0  0  0  0  0  0  0  0  0  0  0
    3.7630    0.1820    0.4040 C   0  0  1  0  0  0  0  0  0  0  0  0
    3.5810   -1.3840    0.9440 C   0  0  0  0  0  0  0  0  0  0  0  0
    4.1020   -1.9810   -0.1640 O   0  0  0  0  0  0  0  0  0  0  0  0
    3.3740   -2.8140   -0.8360 O   0  0  0  0  0  0  0  0  0  0  0  0
    5.3180    0.0380   -0.5660 P   0  0  0  0  0  0  0  0  0  0  0  0
    6.3560   -1.1540    0.0990 O   0  0  0  0  0  0  0  0  0  0  0  0
    6.0200    1.5740   -0.7890 O   0  0  0  0  0  0  0  0  0  0  0  0
   -0.7940    0.5180    0.2640 O   0  0  0  0  0  0  0  0  0  0  0  0
  1  2  2  0
  2  3  1  0
  2  4  1  0
  4  5  1  0
  5  6  1  6
  5  7  1  0
  5 28  1  0
  7  8  1  0
  8  9  1  0
  9 10  1  0
 10 11  2  0
 10 12  1  0
 12 13  1  0
 13 14  1  0
 14 15  1  0
 15 16  1  0
 16 17  2  0
 16 18  1  0
 18 19  1  1
 18 28  1  0
 19 20  1  0
 20 21  1  0
 21 22  1  1
 21 25  1  0
 22 23  1  0
 23 24  1  0
 25 26  1  0
 25 27  1  0
M  END
