
     RDKit          3D

 28 28  0  0  0  0  0  0  0  0999 V2000
    3.9800   -2.1620    0.2340 O   0  0  0  0  0  0  0  0  0  0  0  0
    4.2220   -1.7340   -0.9210 C   0  0  0  0  0  0  0  0  0  0  0  0
    4.2730   -0.3900   -1.2580 O   0  0  0  0  0  0  0  0  0  0  0  0
    4.0440    0.5710   -0.2720 C   0  0  2  0  0  0  0  0  0  0  0  0
    3.0270    1.4600   -0.5500 O   0  0  0  0  0  0  0  0  0  0  0  0
    1.9310    1.5560    0.7560 P   0  0  0  0  0  0  0  0  0  0  0  0
    2.5780    1.0060    2.2620 O   0  0  0  0  0  0  0  0  0  0  0  0
    0.3830    0.7500    0.4560 N   0  0  0  0  0  0  0  0  0  0  0  0
   -0.8010    1.3240    0.9830 C   0  0  0  0  0  0  0  0  0  0  0  0
   -0.7640    2.3910    1.6900 O   0  0  0  0  0  0  0  0  0  0  0  0
   -2.1100    0.7210    0.7410 C   0  0  0  0  0  0  0  0  0  0  0  0
   -2.1560   -0.4610   -0.0280 N   0  0  0  0  0  0  0  0  0  0  0  0
   -2.6640   -0.3610   -1.3510 C   0  0  0  0  0  0  0  0  0  0  0  0
   -4.0900   -0.0760   -1.4850 C   0  0  0  0  0  0  0  0  0  0  0  0
   -4.5840    0.0360   -2.6520 O   0  0  0  0  0  0  0  0  0  0  0  0
   -4.9380    0.0770   -0.3730 N   0  0  0  0  0  0  0  0  0  0  0  0
   -6.3400    0.3680   -0.5400 C   0  0  0  0  0  0  0  0  0  0  0  0
   -6.8190    0.4870   -1.7050 O   0  0  0  0  0  0  0  0  0  0  0  0
   -7.1010    0.5040    0.6090 O   0  0  0  0  0  0  0  0  0  0  0  0
   -0.9640   -1.2590   -0.0200 C   0  0  2  0  0  0  0  0  0  0  0  0
   -0.8710   -1.9720    1.2750 C   0  0  0  0  0  0  0  0  0  0  0  0
   -1.7490   -1.7650    2.1420 O   0  0  0  0  0  0  0  0  0  0  0  0
    0.1600   -2.8550    1.5480 O   0  0  0  0  0  0  0  0  0  0  0  0
    0.2520   -0.4490   -0.2880 C   0  0  0  0  0  0  0  0  0  0  0  0
    1.1490   -0.7420   -1.1060 O   0  0  0  0  0  0  0  0  0  0  0  0
    5.5930    1.5980   -0.0000 P   0  0  0  0  0  0  0  0  0  0  0  0
    6.8020    0.5960    0.6880 O   0  0  0  0  0  0  0  0  0  0  0  0
    6.0670    2.4020   -1.4400 O   0  0  0  0  0  0  0  0  0  0  0  0
  1  2  2  0
  2  3  1  0
  4  3  1  6
  4  5  1  0
  4 26  1  0
  5  6  1  0
  6  7  1  0
  6  8  1  0
  8  9  1  0
  8 24  1  0
  9 10  2  0
  9 11  1  0
 11 12  1  0
 12 13  1  0
 12 20  1  0
 13 14  1  0
 14 15  2  0
 14 16  1  0
 16 17  1  0
 17 18  2  0
 17 19  1  0
 20 21  1  1
 20 24  1  0
 21 22  2  0
 21 23  1  0
 24 25  2  0
 26 27  1  0
 26 28  1  0
M  END
