
     RDKit          3D

 21 22  0  0  0  0  0  0  0  0999 V2000
    1.7340   -1.5830    2.8490 C   0  0  0  0  0  0  0  0  0  0  0  0
    2.7850   -0.9670    2.4030 C   0  0  0  0  0  0  0  0  0  0  0  0
    3.0040   -0.4430    1.1090 C   0  0  0  0  0  0  0  0  0  0  0  0
    4.2640    0.1100    1.0140 C   0  0  0  0  0  0  0  0  0  0  0  0
    4.8750    0.7620   -0.2030 C   0  0  0  0  0  0  0  0  0  0  0  0
    5.0330   -0.3430   -1.2710 C   0  0  0  0  0  0  0  0  0  0  0  0
    3.7410   -0.5290   -1.9700 C   0  0  0  0  0  0  0  0  0  0  0  0
    2.7870   -1.3310   -1.0980 C   0  0  0  0  0  0  0  0  0  0  0  0
    2.1450   -0.4260   -0.0470 C   0  0  1  0  0  0  0  0  0  0  0  0
    0.7050   -0.5640   -0.0480 C   0  0  0  0  0  0  0  0  0  0  0  0
   -0.1490    0.4610    0.6150 C   0  0  2  0  0  0  0  0  0  0  0  0
    0.1290    1.8060   -0.1190 C   0  0  0  0  0  0  0  0  0  0  0  0
    0.0310    0.7480    1.9210 O   0  0  0  0  0  0  0  0  0  0  0  0
   -1.5730    0.0770    0.2590 C   0  0  0  0  0  0  0  0  0  0  0  0
   -2.6140    0.9850    0.8310 C   0  0  0  0  0  0  0  0  0  0  0  0
   -3.9320    0.4670    0.3920 C   0  0  0  0  0  0  0  0  0  0  0  0
   -4.8100    0.1010    1.3010 C   0  0  0  0  0  0  0  0  0  0  0  0
   -6.1550   -0.4290    0.9720 C   0  0  0  0  0  0  0  0  0  0  0  0
   -4.2520    0.3640   -1.0070 C   0  0  0  0  0  0  0  0  0  0  0  0
   -3.8630    0.5410   -2.3160 C   0  0  0  0  0  0  0  0  0  0  0  0
   -5.2150   -0.0020   -2.0670 C   0  0  0  0  0  0  0  0  0  0  0  0
  1  2  2  0
  2  3  1  0
  3  4  2  0
  3  9  1  0
  4  5  1  0
  5  6  1  0
  6  7  1  0
  7  8  1  0
  8  9  1  0
  9 10  1  1
 10 11  1  0
 11 12  1  6
 11 13  1  0
 11 14  1  0
 14 15  1  0
 15 16  1  0
 16 17  2  3
 16 19  1  0
 17 18  1  0
 19 20  2  0
 19 21  1  0
 20 21  1  0
M  END
