
     RDKit          3D

 21 21  0  0  0  0  0  0  0  0999 V2000
    4.8570    2.7050   -0.1950 C   0  0  0  0  0  0  0  0  0  0  0  0
    5.4570    1.6030    0.0950 C   0  0  0  0  0  0  0  0  0  0  0  0
    5.0710    0.2440   -0.1000 C   0  0  0  0  0  0  0  0  0  0  0  0
    6.0180   -0.6590    0.3110 C   0  0  0  0  0  0  0  0  0  0  0  0
    5.7590   -2.0920    0.1730 C   0  0  0  0  0  0  0  0  0  0  0  0
    3.8880   -0.3600   -0.7000 C   0  0  0  0  0  0  0  0  0  0  0  0
    2.5980   -0.2640    0.0170 C   0  0  1  0  0  0  0  0  0  0  0  0
    2.0230    1.0610    0.2740 C   0  0  0  0  0  0  0  0  0  0  0  0
    0.5330    0.8040    0.7270 C   0  0  0  0  0  0  0  0  0  0  0  0
   -0.1650    0.5370   -0.5560 C   0  0  2  0  0  0  0  0  0  0  0  0
   -1.6110    0.6690   -0.6820 C   0  0  0  0  0  0  0  0  0  0  0  0
   -2.5680   -0.1260    0.1100 C   0  0  2  0  0  0  0  0  0  0  0  0
   -2.5030    0.0970    1.5900 C   0  0  0  0  0  0  0  0  0  0  0  0
   -2.3650   -1.5180   -0.0630 O   0  0  0  0  0  0  0  0  0  0  0  0
   -3.9740    0.1170   -0.4150 C   0  0  1  0  0  0  0  0  0  0  0  0
   -4.3930    1.5690   -0.2970 C   0  0  0  0  0  0  0  0  0  0  0  0
   -3.9140   -0.1190   -1.9530 C   0  0  0  0  0  0  0  0  0  0  0  0
   -5.0070   -0.8370    0.0650 C   0  0  0  0  0  0  0  0  0  0  0  0
   -5.2880   -0.9260    1.5130 C   0  0  0  0  0  0  0  0  0  0  0  0
    0.4140   -0.7140   -1.1950 C   0  0  0  0  0  0  0  0  0  0  0  0
    1.5790   -1.2800   -0.4710 C   0  0  0  0  0  0  0  0  0  0  0  0
  1  2  2  0
  2  3  1  0
  3  4  2  3
  3  6  1  0
  4  5  1  0
  7  6  1  6
  7  8  1  0
  7 21  1  0
  8  9  1  0
  9 10  1  0
 10 11  1  1
 10 20  1  0
 11 12  1  0
 12 13  1  1
 12 14  1  0
 12 15  1  0
 15 16  1  6
 15 17  1  0
 15 18  1  0
 18 19  1  0
 20 21  1  0
M  END
