
     RDKit          3D

 21 21  0  0  0  0  0  0  0  0999 V2000
   -5.1270    2.5980    0.1350 C   0  0  0  0  0  0  0  0  0  0  0  0
   -3.8670    2.5560   -0.5690 C   0  0  0  0  0  0  0  0  0  0  0  0
   -2.9800    1.6500   -0.7610 C   0  0  0  0  0  0  0  0  0  0  0  0
   -2.7970    0.2880   -0.3950 C   0  0  0  0  0  0  0  0  0  0  0  0
   -1.6900   -0.3580   -0.8220 C   0  0  0  0  0  0  0  0  0  0  0  0
   -0.6410    0.2240   -1.6480 C   0  0  0  0  0  0  0  0  0  0  0  0
    0.6370    0.5860   -0.9790 C   0  0  0  0  0  0  0  0  0  0  0  0
    1.3360   -0.5200   -0.3310 C   0  0  2  0  0  0  0  0  0  0  0  0
    0.5870   -1.1390    0.7960 C   0  0  0  0  0  0  0  0  0  0  0  0
    2.7810   -0.1840    0.0800 C   0  0  1  0  0  0  0  0  0  0  0  0
    2.8040    0.9340    1.0630 C   0  0  0  0  0  0  0  0  0  0  0  0
    3.3810   -1.4730    0.5180 C   0  0  0  0  0  0  0  0  0  0  0  0
    4.8690   -1.4390    0.7630 C   0  0  0  0  0  0  0  0  0  0  0  0
    5.6280   -0.9110   -0.4330 C   0  0  0  0  0  0  0  0  0  0  0  0
    4.9950    0.3310   -0.9530 C   0  0  2  0  0  0  0  0  0  0  0  0
    5.3630    1.3870   -0.1200 O   0  0  0  0  0  0  0  0  0  0  0  0
    3.5210    0.2560   -1.1800 C   0  0  0  0  0  0  0  0  0  0  0  0
   -3.7170   -0.4860    0.4390 C   0  0  1  0  0  0  0  0  0  0  0  0
   -5.1280   -0.5390   -0.1580 C   0  0  0  0  0  0  0  0  0  0  0  0
   -3.2400   -1.9490    0.5430 C   0  0  0  0  0  0  0  0  0  0  0  0
   -3.8190   -0.0200    1.8700 C   0  0  0  0  0  0  0  0  0  0  0  0
  1  2  1  0
  2  3  2  3
  3  4  1  0
  4  5  2  3
  4 18  1  0
  5  6  1  0
  6  7  1  0
  7  8  1  0
  8  9  1  1
  8 10  1  0
 10 11  1  1
 10 12  1  0
 10 17  1  0
 12 13  1  0
 13 14  1  0
 14 15  1  0
 15 16  1  1
 15 17  1  0
 18 19  1  6
 18 20  1  0
 18 21  1  0
M  END
