
     RDKit          3D

 24 26  0  0  0  0  0  0  0  0999 V2000
    3.5850    1.0390   -1.4700 C   0  0  0  0  0  0  0  0  0  0  0  0
    3.4600    0.3380   -0.3780 C   0  0  0  0  0  0  0  0  0  0  0  0
    4.6200    0.4060    0.4560 O   0  0  0  0  0  0  0  0  0  0  0  0
    2.3680   -0.4590    0.0980 C   0  0  0  0  0  0  0  0  0  0  0  0
    2.5230   -1.1110    1.2330 C   0  0  0  0  0  0  0  0  0  0  0  0
    3.7190   -1.0920    2.0560 C   0  0  0  0  0  0  0  0  0  0  0  0
    1.0400   -0.6760   -0.5680 C   0  0  0  0  0  0  0  0  0  0  0  0
    0.1300    0.3320   -0.6790 N   0  0  0  0  0  0  0  0  0  0  0  0
    0.2550    1.4480   -1.5150 C   0  0  0  0  0  0  0  0  0  0  0  0
   -0.9920    2.3090   -1.7070 C   0  0  0  0  0  0  0  0  0  0  0  0
   -1.5880    2.4930   -0.3910 C   0  0  0  0  0  0  0  0  0  0  0  0
   -2.0040    3.6940    0.1160 C   0  0  0  0  0  0  0  0  0  0  0  0
   -2.5930    3.7620    1.3900 C   0  0  0  0  0  0  0  0  0  0  0  0
   -2.7580    2.6150    2.1420 C   0  0  0  0  0  0  0  0  0  0  0  0
   -2.3280    1.3880    1.6110 C   0  0  0  0  0  0  0  0  0  0  0  0
   -1.7610    1.3480    0.3790 C   0  0  0  0  0  0  0  0  0  0  0  0
   -1.2270    0.1140   -0.3090 C   0  0  2  0  0  0  0  0  0  0  0  0
   -1.6560   -1.1490    0.3050 C   0  0  2  0  0  0  0  0  0  0  0  0
   -1.0780   -1.5420    1.5580 N   0  0  0  0  0  0  0  0  0  0  0  0
   -1.6420   -2.2650   -0.7060 C   0  0  0  0  0  0  0  0  0  0  0  0
   -1.3610   -2.2190   -2.0500 C   0  0  0  0  0  0  0  0  0  0  0  0
   -1.4650   -3.4650   -2.5800 N   0  0  0  0  0  0  0  0  0  0  0  0
   -1.8050   -4.2910   -1.6020 N   0  0  0  0  0  0  0  0  0  0  0  0
   -1.9210   -3.5860   -0.4440 C   0  0  0  0  0  0  0  0  0  0  0  0
  1  2  2  0
  2  3  1  0
  2  4  1  0
  4  5  2  3
  4  7  1  0
  5  6  1  0
  7  8  1  0
  8  9  1  0
 17  8  1  1
  9 10  1  0
 10 11  1  0
 11 12  2  0
 11 16  1  0
 12 13  1  0
 13 14  2  0
 14 15  1  0
 15 16  2  0
 16 17  1  0
 17 18  1  0
 18 19  1  1
 18 20  1  0
 20 21  1  0
 20 24  2  0
 21 22  2  0
 22 23  1  0
 23 24  1  0
M  CHG  1  19   1
M  END
