
     RDKit          3D

 23 25  0  0  0  0  0  0  0  0999 V2000
   -3.5150    3.7020    0.0770 C   0  0  0  0  0  0  0  0  0  0  0  0
   -2.8710    3.3930    1.3970 C   0  0  0  0  0  0  0  0  0  0  0  0
   -1.7260    2.5230    1.1260 N   0  0  0  0  0  0  0  0  0  0  0  0
   -2.2080    1.2450    0.6790 C   0  0  0  0  0  0  0  0  0  0  0  0
   -1.0590    0.2830    0.3740 C   0  0  2  0  0  0  0  0  0  0  0  0
   -0.2670    0.8880   -0.6740 N   0  0  0  0  0  0  0  0  0  0  0  0
    0.6230    0.0070   -1.3500 C   0  0  0  0  0  0  0  0  0  0  0  0
    1.9410   -0.0920   -0.7060 C   0  0  0  0  0  0  0  0  0  0  0  0
    2.2290    0.6030    0.4250 C   0  0  0  0  0  0  0  0  0  0  0  0
    3.4840    0.5040    1.0360 C   0  0  0  0  0  0  0  0  0  0  0  0
    4.0150    1.0730    2.1370 N   0  0  0  0  0  0  0  0  0  0  0  0
    5.2680    0.5970    2.2270 C   0  0  0  0  0  0  0  0  0  0  0  0
    5.5310   -0.2430    1.2220 N   0  0  0  0  0  0  0  0  0  0  0  0
    4.4210   -0.3210    0.4540 C   0  0  0  0  0  0  0  0  0  0  0  0
    4.1240   -1.0230   -0.6920 C   0  0  0  0  0  0  0  0  0  0  0  0
    2.8970   -0.9280   -1.2900 C   0  0  0  0  0  0  0  0  0  0  0  0
    2.5870   -1.6990   -2.5410 C   0  0  0  0  0  0  0  0  0  0  0  0
   -1.6060   -1.0360    0.0330 C   0  0  0  0  0  0  0  0  0  0  0  0
   -2.2500   -1.3640   -1.1410 C   0  0  0  0  0  0  0  0  0  0  0  0
   -2.5920   -2.7040   -1.0310 C   0  0  0  0  0  0  0  0  0  0  0  0
   -2.1350   -3.1070    0.2030 C   0  0  0  0  0  0  0  0  0  0  0  0
   -2.3020   -4.5000    0.7250 C   0  0  0  0  0  0  0  0  0  0  0  0
   -1.5560   -2.1100    0.8190 O   0  0  0  0  0  0  0  0  0  0  0  0
  1  2  1  0
  2  3  1  0
  3  4  1  0
  5  4  1  6
  5  6  1  0
  5 18  1  0
  6  7  1  0
  7  8  1  0
  8  9  2  0
  8 16  1  0
  9 10  1  0
 10 11  1  0
 10 14  2  0
 11 12  1  0
 12 13  2  0
 13 14  1  0
 14 15  1  0
 15 16  2  0
 16 17  1  0
 18 19  2  0
 18 23  1  0
 19 20  1  0
 20 21  2  0
 21 22  1  0
 21 23  1  0
M  CHG  1   6   1
M  END
