
     RDKit          3D

 24 25  0  0  0  0  0  0  0  0999 V2000
    2.2280   -0.1880    3.4190 C   0  0  0  0  0  0  0  0  0  0  0  0
    2.2760   -0.3650    1.9400 C   0  0  0  0  0  0  0  0  0  0  0  0
    3.2980   -1.0960    1.4060 C   0  0  0  0  0  0  0  0  0  0  0  0
    3.3840   -1.2140    0.0130 C   0  0  0  0  0  0  0  0  0  0  0  0
    4.4740   -2.0580   -0.5330 C   0  0  0  0  0  0  0  0  0  0  0  0
    2.4560   -0.6050   -0.8100 C   0  0  0  0  0  0  0  0  0  0  0  0
    2.5940   -0.8020   -2.2620 C   0  0  0  0  0  0  0  0  0  0  0  0
    1.4260    0.1260   -0.3030 C   0  0  0  0  0  0  0  0  0  0  0  0
    0.4860    0.9750   -1.0690 C   0  0  1  0  0  0  0  0  0  0  0  0
    0.8780    1.4440   -2.3320 N   0  0  0  0  0  0  0  0  0  0  0  0
   -0.9510    0.5910   -0.8350 C   0  0  2  0  0  0  0  0  0  0  0  0
   -1.0570   -0.8880   -1.3710 C   0  0  0  0  0  0  0  0  0  0  0  0
   -1.7750    1.3070   -1.9780 C   0  0  0  0  0  0  0  0  0  0  0  0
   -1.6810    0.8040    0.2870 N   0  0  0  0  0  0  0  0  0  0  0  0
   -2.1430    2.0380    0.7610 C   0  0  0  0  0  0  0  0  0  0  0  0
   -1.2470    3.0590    1.3650 C   0  0  0  0  0  0  0  0  0  0  0  0
   -2.0930    4.1430    1.7280 O   0  0  0  0  0  0  0  0  0  0  0  0
   -2.0370   -0.2650    1.1840 C   0  0  0  0  0  0  0  0  0  0  0  0
   -2.9170   -1.3310    0.7300 C   0  0  0  0  0  0  0  0  0  0  0  0
   -4.2250   -1.3250    0.3390 C   0  0  0  0  0  0  0  0  0  0  0  0
   -4.5580   -2.5900    0.0450 N   0  0  0  0  0  0  0  0  0  0  0  0
   -3.5490   -3.4020    0.2230 N   0  0  0  0  0  0  0  0  0  0  0  0
   -2.5240   -2.6820    0.6410 C   0  0  0  0  0  0  0  0  0  0  0  0
    1.3660    0.2270    1.1120 C   0  0  0  0  0  0  0  0  0  0  0  0
  1  2  1  0
  2  3  2  0
  2 24  1  0
  3  4  1  0
  4  5  1  0
  4  6  2  0
  6  7  1  0
  6  8  1  0
  8  9  1  0
  8 24  2  0
  9 10  1  6
  9 11  1  0
 11 12  1  6
 11 13  1  0
 11 14  1  0
 14 15  1  0
 14 18  1  0
 15 16  1  0
 16 17  1  0
 18 19  1  0
 19 20  1  0
 19 23  2  0
 20 21  2  0
 21 22  1  0
 22 23  1  0
M  CHG  1  10   1
M  END
