
     RDKit          3D

 22 22  0  0  0  0  0  0  0  0999 V2000
   -2.3510    2.9430    1.0510 N   0  0  0  0  0  0  0  0  0  0  0  0
   -3.1290    1.7590    0.6280 C   0  0  0  0  0  0  0  0  0  0  0  0
   -4.3140    1.8520    0.9870 O   0  0  0  0  0  0  0  0  0  0  0  0
   -2.4850    0.7110   -0.0970 C   0  0  0  0  0  0  0  0  0  0  0  0
   -2.8720   -0.3950   -0.5810 C   0  0  0  0  0  0  0  0  0  0  0  0
   -1.8680   -1.2680   -1.3000 C   0  0  0  0  0  0  0  0  0  0  0  0
   -0.5260   -0.8050   -1.2750 N   0  0  0  0  0  0  0  0  0  0  0  0
    0.2900   -0.6780   -0.1050 C   0  0  0  0  0  0  0  0  0  0  0  0
   -0.1900   -1.0120    1.0070 O   0  0  0  0  0  0  0  0  0  0  0  0
    1.6140   -0.1750   -0.2680 N   0  0  0  0  0  0  0  0  0  0  0  0
    2.4520   -0.0380    0.8920 C   0  0  0  0  0  0  0  0  0  0  0  0
    3.7900    0.5090    0.4520 C   0  0  0  0  0  0  0  0  0  0  0  0
    3.9740    0.7520   -0.7710 O   0  0  0  0  0  0  0  0  0  0  0  0
    4.7840    0.7360    1.3820 O   0  0  0  0  0  0  0  0  0  0  0  0
    6.0300    1.2390    0.9830 C   0  0  0  0  0  0  0  0  0  0  0  0
    6.7050    0.2880    0.0490 C   0  0  0  0  0  0  0  0  0  0  0  0
    6.8750   -0.9220    0.7240 O   0  0  0  0  0  0  0  0  0  0  0  0
   -4.2380   -0.9120   -0.5050 C   0  0  0  0  0  0  0  0  0  0  0  0
   -4.7260   -2.0890   -0.9990 C   0  0  0  0  0  0  0  0  0  0  0  0
   -6.0110   -2.3940   -0.8340 C   0  0  0  0  0  0  0  0  0  0  0  0
   -6.8000   -1.4530   -0.1420 C   0  0  0  0  0  0  0  0  0  0  0  0
   -5.6050   -0.1830    0.2220 S   0  0  0  0  0  0  0  0  0  0  0  0
  1  2  1  0
  2  3  2  0
  2  4  1  0
  4  5  2  3
  5  6  1  0
  5 18  1  0
  6  7  1  0
  7  8  1  0
  8  9  2  0
  8 10  1  0
 10 11  1  0
 11 12  1  0
 12 13  2  0
 12 14  1  0
 14 15  1  0
 15 16  1  0
 16 17  1  0
 18 19  2  0
 18 22  1  0
 19 20  1  0
 20 21  2  0
 21 22  1  0
M  CHG  1   1   1
M  END
