
     RDKit          3D

 22 21  0  0  0  0  0  0  0  0999 V2000
   -3.7670    3.4840   -0.0330 C   0  0  0  0  0  0  0  0  0  0  0  0
   -3.7430    2.1080    1.1230 S   0  0  0  0  0  0  0  0  0  0  0  0
   -2.6810    0.7550    0.5830 C   0  0  0  0  0  0  0  0  0  0  0  0
   -1.4000    0.9760    0.1010 N   0  0  0  0  0  0  0  0  0  0  0  0
   -0.6710    2.2190    0.1960 C   0  0  0  0  0  0  0  0  0  0  0  0
   -1.2030    3.1730    0.7730 O   0  0  0  0  0  0  0  0  0  0  0  0
    0.6890    2.3830   -0.3780 C   0  0  0  0  0  0  0  0  0  0  0  0
    1.2550    1.2400   -0.9130 O   0  0  0  0  0  0  0  0  0  0  0  0
    1.6110    0.0970   -0.2510 C   0  0  0  0  0  0  0  0  0  0  0  0
    1.4350    0.0200    0.9820 O   0  0  0  0  0  0  0  0  0  0  0  0
    2.2000   -0.9930   -1.0920 C   0  0  0  0  0  0  0  0  0  0  0  0
    3.6280   -0.5130   -1.3820 C   0  0  0  0  0  0  0  0  0  0  0  0
    4.3260   -0.3620   -0.0700 C   0  0  1  0  0  0  0  0  0  0  0  0
    4.3570   -1.7050    0.6190 C   0  0  0  0  0  0  0  0  0  0  0  0
    5.6130    0.2630   -0.1910 N   0  0  0  0  0  0  0  0  0  0  0  0
   -3.2990   -0.4270    0.5120 C   0  0  0  0  0  0  0  0  0  0  0  0
   -2.5960   -1.6080    0.1070 C   0  0  0  0  0  0  0  0  0  0  0  0
   -3.2510   -2.9510   -0.0270 C   0  0  0  0  0  0  0  0  0  0  0  0
   -1.3630   -1.5930   -0.1690 O   0  0  0  0  0  0  0  0  0  0  0  0
   -4.7300   -0.5060    0.8490 C   0  0  0  0  0  0  0  0  0  0  0  0
   -5.4500   -1.7030    0.8160 N   0  0  0  0  0  0  0  0  0  0  0  0
   -5.3200    0.5690    1.1800 O   0  0  0  0  0  0  0  0  0  0  0  0
  1  2  1  0
  2  3  1  0
  3  4  1  0
  3 16  2  3
  4  5  1  0
  5  6  2  0
  5  7  1  0
  7  8  1  0
  8  9  1  0
  9 10  2  0
  9 11  1  0
 11 12  1  0
 12 13  1  0
 13 14  1  6
 13 15  1  0
 16 17  1  0
 16 20  1  0
 17 18  1  0
 17 19  2  0
 20 21  1  0
 20 22  2  0
M  CHG  1  15   1
M  END
