
     RDKit          3D

 21 21  0  0  0  0  0  0  0  0999 V2000
   -3.6280    4.0980   -1.7390 C   0  0  0  0  0  0  0  0  0  0  0  0
   -3.3550    3.6160   -0.0150 S   0  0  0  0  0  0  0  0  0  0  0  0
   -3.1160    1.8650    0.0420 C   0  0  0  0  0  0  0  0  0  0  0  0
   -4.1730    1.0230    0.2030 C   0  0  0  0  0  0  0  0  0  0  0  0
   -3.9360   -0.3320    0.2410 C   0  0  0  0  0  0  0  0  0  0  0  0
   -2.6770   -0.8710    0.1230 C   0  0  0  0  0  0  0  0  0  0  0  0
   -2.5050   -2.2440    0.1690 O   0  0  0  0  0  0  0  0  0  0  0  0
   -3.6450   -3.0570    0.3380 C   0  0  0  0  0  0  0  0  0  0  0  0
   -3.2980   -4.5200    0.3690 C   0  0  0  0  0  0  0  0  0  0  0  0
   -2.4280   -4.8120    1.4140 O   0  0  0  0  0  0  0  0  0  0  0  0
   -1.5740   -0.0140   -0.0440 C   0  0  0  0  0  0  0  0  0  0  0  0
   -0.2940   -0.5570   -0.1650 N   0  0  0  0  0  0  0  0  0  0  0  0
    0.9320    0.1020   -0.3370 C   0  0  0  0  0  0  0  0  0  0  0  0
    0.9650    1.3310   -0.4000 O   0  0  0  0  0  0  0  0  0  0  0  0
    2.1820   -0.5860   -0.4470 N   0  0  0  0  0  0  0  0  0  0  0  0
    3.4290    0.1200   -0.6220 C   0  0  0  0  0  0  0  0  0  0  0  0
    3.7830    1.0580    0.4720 C   0  0  0  0  0  0  0  0  0  0  0  0
    5.0170    1.7510    0.2950 N   0  0  0  0  0  0  0  0  0  0  0  0
    6.1870    0.9100    0.4390 C   0  0  0  0  0  0  0  0  0  0  0  0
    6.4280    0.1580   -0.7000 O   0  0  0  0  0  0  0  0  0  0  0  0
   -1.8330    1.3180   -0.0790 C   0  0  0  0  0  0  0  0  0  0  0  0
  1  2  1  0
  2  3  1  0
  3  4  2  0
  3 21  1  0
  4  5  1  0
  5  6  2  0
  6  7  1  0
  6 11  1  0
  7  8  1  0
  8  9  1  0
  9 10  1  0
 11 12  1  0
 11 21  2  0
 12 13  1  0
 13 14  2  0
 13 15  1  0
 15 16  1  0
 16 17  1  0
 17 18  1  0
 18 19  1  0
 19 20  1  0
M  CHG  1  18   1
M  END
