
     RDKit          3D

 22 22  0  0  0  0  0  0  0  0999 V2000
   -5.9500    0.5120    1.8020 N   0  0  0  0  0  0  0  0  0  0  0  0
   -4.6280    0.0570    1.5110 C   0  0  0  0  0  0  0  0  0  0  0  0
   -4.5970   -0.7150    0.1960 C   0  0  0  0  0  0  0  0  0  0  0  0
   -5.7610   -0.8730   -0.4980 C   0  0  0  0  0  0  0  0  0  0  0  0
   -5.2560   -1.8240   -1.9190 S   0  0  0  0  0  0  0  0  0  0  0  0
   -3.5390   -1.9340   -1.4740 C   0  0  0  0  0  0  0  0  0  0  0  0
   -3.4640   -1.2500   -0.2920 C   0  0  0  0  0  0  0  0  0  0  0  0
   -2.0950   -1.1250    0.3960 C   0  0  0  0  0  0  0  0  0  0  0  0
   -1.5700    0.2320    0.1010 C   0  0  0  0  0  0  0  0  0  0  0  0
   -2.2270    1.0080   -0.6110 O   0  0  0  0  0  0  0  0  0  0  0  0
   -0.3240    0.6120    0.6440 N   0  0  0  0  0  0  0  0  0  0  0  0
    0.3150    1.8700    0.4430 C   0  0  0  0  0  0  0  0  0  0  0  0
    0.6530    2.0830   -1.0050 C   0  0  2  0  0  0  0  0  0  0  0  0
   -0.3810    2.0970   -1.8870 O   0  0  0  0  0  0  0  0  0  0  0  0
    1.6750    0.9770   -1.3440 C   0  0  0  0  0  0  0  0  0  0  0  0
    2.6730    1.0950   -0.3440 O   0  0  0  0  0  0  0  0  0  0  0  0
    3.7990    0.2610   -0.2880 C   0  0  0  0  0  0  0  0  0  0  0  0
    3.8690   -0.6090   -1.1910 O   0  0  0  0  0  0  0  0  0  0  0  0
    4.7840    0.3990    0.7220 N   0  0  0  0  0  0  0  0  0  0  0  0
    5.9490   -0.4540    0.7880 C   0  0  0  0  0  0  0  0  0  0  0  0
    6.7400   -0.2670   -0.4870 C   0  0  0  0  0  0  0  0  0  0  0  0
    7.1410    1.0720   -0.6300 O   0  0  0  0  0  0  0  0  0  0  0  0
  1  2  1  0
  2  3  1  0
  3  4  2  0
  3  7  1  0
  4  5  1  0
  5  6  1  0
  6  7  2  0
  7  8  1  0
  8  9  1  0
  9 10  2  0
  9 11  1  0
 11 12  1  0
 12 13  1  0
 13 14  1  6
 13 15  1  0
 15 16  1  0
 16 17  1  0
 17 18  2  0
 17 19  1  0
 19 20  1  0
 20 21  1  0
 21 22  1  0
M  CHG  1   1   1
M  END
