
     RDKit          3D

 39 42  0  0  0  0  0  0  0  0999 V2000
   -8.9120    2.7190   -1.4810 O   0  0  0  0  0  0  0  0  0  0  0  0
   -8.8670    1.4240   -1.5680 C   0  0  0  0  0  0  0  0  0  0  0  0
   -9.9610    0.8480   -2.1100 O   0  0  0  0  0  0  0  0  0  0  0  0
   -7.6590    0.8300   -1.0640 C   0  0  0  0  0  0  0  0  0  0  0  0
   -6.9560    1.4750   -0.0860 C   0  0  0  0  0  0  0  0  0  0  0  0
   -5.8000    1.0730    0.5040 C   0  0  0  0  0  0  0  0  0  0  0  0
   -5.2820   -0.1660    0.0210 C   0  0  0  0  0  0  0  0  0  0  0  0
   -4.1380   -0.6830    0.5440 O   0  0  0  0  0  0  0  0  0  0  0  0
   -3.1840   -0.2120    1.3790 C   0  0  0  0  0  0  0  0  0  0  0  0
   -2.3850    0.8500    0.5860 C   0  0  2  0  0  0  0  0  0  0  0  0
   -2.0220    0.1030   -0.5980 O   0  0  0  0  0  0  0  0  0  0  0  0
   -1.0410    1.0690    1.2400 C   0  0  0  0  0  0  0  0  0  0  0  0
   -0.3390   -0.2450    1.3470 C   0  0  0  0  0  0  0  0  0  0  0  0
    1.0410   -0.1470    1.6300 O   0  0  0  0  0  0  0  0  0  0  0  0
    1.6810    0.1810    0.4020 C   0  0  1  0  0  0  0  0  0  0  0  0
    2.5280    1.2490    0.6110 O   0  0  0  0  0  0  0  0  0  0  0  0
    2.8750    1.8570   -0.5930 C   0  0  0  0  0  0  0  0  0  0  0  0
    3.6880    3.0950   -0.4000 C   0  0  2  0  0  0  0  0  0  0  0  0
    3.6350    3.8560   -1.6210 O   0  0  0  0  0  0  0  0  0  0  0  0
    5.1790    2.8850   -0.2340 C   0  0  0  0  0  0  0  0  0  0  0  0
    5.5460    1.8020    0.6600 C   0  0  0  0  0  0  0  0  0  0  0  0
    5.8320    1.0050    1.3310 C   0  0  0  0  0  0  0  0  0  0  0  0
    6.2030   -0.0510    2.1890 C   0  0  2  0  0  0  0  0  0  0  0  0
    7.7060    0.0510    2.4180 C   0  0  0  0  0  0  0  0  0  0  0  0
    8.3700    0.1080    1.1930 O   0  0  0  0  0  0  0  0  0  0  0  0
    8.3210   -1.1470    0.6200 C   0  0  0  0  0  0  0  0  0  0  0  0
    6.8890   -1.5560    0.3650 C   0  0  0  0  0  0  0  0  0  0  0  0
    6.0240   -1.4510    1.6090 C   0  0  2  0  0  0  0  0  0  0  0  0
    4.6900   -1.8400    1.2730 N   0  0  0  0  0  0  0  0  0  0  0  0
    3.9160   -0.7920    0.6900 C   0  0  0  0  0  0  0  0  0  0  0  0
    2.5530   -1.0970    0.1720 C   0  0  2  0  0  0  0  0  0  0  0  0
    2.4960   -1.3530   -1.2010 O   0  0  0  0  0  0  0  0  0  0  0  0
   -5.9440   -0.8470   -0.9500 C   0  0  0  0  0  0  0  0  0  0  0  0
   -7.1120   -0.3980   -1.5100 C   0  0  0  0  0  0  0  0  0  0  0  0
   -7.8390   -1.1800   -2.5300 C   0  0  2  0  0  0  0  0  0  0  0  0
   -9.1380   -1.4960   -2.0410 O   0  0  0  0  0  0  0  0  0  0  0  0
   -7.1870   -2.5670   -2.6730 C   0  0  0  0  0  0  0  0  0  0  0  0
   -5.8200   -2.4200   -2.7270 O   0  0  0  0  0  0  0  0  0  0  0  0
   -5.2870   -2.1020   -1.5040 C   0  0  0  0  0  0  0  0  0  0  0  0
  1  2  2  0
  2  3  1  0
  2  4  1  0
  4  5  2  0
  4 34  1  0
  5  6  1  0
  6  7  2  0
  7  8  1  0
  7 33  1  0
  8  9  1  0
  9 10  1  0
 10 11  1  6
 10 12  1  0
 12 13  1  0
 13 14  1  0
 15 14  1  1
 15 16  1  0
 15 31  1  0
 16 17  1  0
 17 18  1  0
 18 19  1  6
 18 20  1  0
 20 21  1  0
 21 22  3  0
 23 22  1  6
 23 24  1  0
 23 28  1  0
 24 25  1  0
 25 26  1  0
 26 27  1  0
 28 27  1  6
 28 29  1  0
 29 30  1  0
 30 31  1  0
 31 32  1  6
 33 34  2  0
 33 39  1  0
 34 35  1  0
 35 36  1  1
 35 37  1  0
 37 38  1  0
 38 39  1  0
M  CHG  1  29   1
M  END
