
     RDKit          3D

 39 43  0  0  0  0  0  0  0  0999 V2000
    0.1700    3.1990    6.7170 C   0  0  0  0  0  0  0  0  0  0  0  0
   -0.2800    2.8030    5.4490 O   0  0  0  0  0  0  0  0  0  0  0  0
    0.5190    2.1110    4.5410 C   0  0  0  0  0  0  0  0  0  0  0  0
    1.8000    1.7980    4.8830 C   0  0  0  0  0  0  0  0  0  0  0  0
    2.5920    1.1160    3.9860 C   0  0  0  0  0  0  0  0  0  0  0  0
    2.0920    0.7530    2.7540 C   0  0  0  0  0  0  0  0  0  0  0  0
    2.9490    0.0320    1.8230 C   0  0  0  0  0  0  0  0  0  0  0  0
    4.1840   -0.0210    2.0680 O   0  0  0  0  0  0  0  0  0  0  0  0
    2.5060   -0.6250    0.6510 N   0  0  0  0  0  0  0  0  0  0  0  0
    3.3350   -1.3140   -0.2400 N   0  0  0  0  0  0  0  0  0  0  0  0
    3.5780   -2.5440   -0.0190 C   0  0  0  0  0  0  0  0  0  0  0  0
    4.4080   -3.2420   -0.9080 N   0  0  0  0  0  0  0  0  0  0  0  0
    5.5530   -2.6220   -1.4460 C   0  0  0  0  0  0  0  0  0  0  0  0
    5.9870   -1.3810   -1.1920 N   0  0  0  0  0  0  0  0  0  0  0  0
    7.0980   -1.1040   -1.8530 N   0  0  0  0  0  0  0  0  0  0  0  0
    7.4130   -2.2050   -2.5740 C   0  0  0  0  0  0  0  0  0  0  0  0
    6.4710   -3.1690   -2.3430 C   0  0  0  0  0  0  0  0  0  0  0  0
    6.7040   -4.2790   -3.0130 C   0  0  0  0  0  0  0  0  0  0  0  0
    7.9380   -4.0660   -3.7880 C   0  0  0  0  0  0  0  0  0  0  0  0
    8.3170   -2.6790   -3.4300 C   0  0  0  0  0  0  0  0  0  0  0  0
    0.7880    1.0930    2.4560 C   0  0  0  0  0  0  0  0  0  0  0  0
   -0.0470    1.7700    3.3050 C   0  0  0  0  0  0  0  0  0  0  0  0
   -1.4420    2.1520    3.0510 C   0  0  0  0  0  0  0  0  0  0  0  0
   -1.9570    1.7920    1.7670 N   0  0  0  0  0  0  0  0  0  0  0  0
   -3.2860    2.0790    1.3990 C   0  0  0  0  0  0  0  0  0  0  0  0
   -3.9760    2.6740    2.3030 O   0  0  0  0  0  0  0  0  0  0  0  0
   -3.8900    1.7620    0.1320 N   0  0  0  0  0  0  0  0  0  0  0  0
   -5.2580    2.1620   -0.0330 C   0  0  1  0  0  0  0  0  0  0  0  0
   -5.6390    3.0150   -1.2460 C   0  0  0  0  0  0  0  0  0  0  0  0
   -6.1880    1.6220   -1.0140 C   0  0  0  0  0  0  0  0  0  0  0  0
   -3.1730    1.0100   -0.8260 C   0  0  2  0  0  0  0  0  0  0  0  0
   -2.7940    1.8450   -2.0290 C   0  0  0  0  0  0  0  0  0  0  0  0
   -3.8220   -0.2730   -1.2150 C   0  0  0  0  0  0  0  0  0  0  0  0
   -4.4930   -1.0480   -0.2910 C   0  0  0  0  0  0  0  0  0  0  0  0
   -5.0660   -2.2550   -0.6920 C   0  0  0  0  0  0  0  0  0  0  0  0
   -4.9650   -2.6650   -1.9840 C   0  0  0  0  0  0  0  0  0  0  0  0
   -4.3030   -1.9050   -2.9090 C   0  0  0  0  0  0  0  0  0  0  0  0
   -4.2190   -2.3860   -4.3010 C   0  0  0  0  0  0  0  0  0  0  0  0
   -3.7280   -0.7070   -2.5330 C   0  0  0  0  0  0  0  0  0  0  0  0
  1  2  1  0
  2  3  1  0
  3  4  2  0
  3 22  1  0
  4  5  1  0
  5  6  2  0
  6  7  1  0
  6 21  1  0
  7  8  2  0
  7  9  1  0
  9 10  1  0
 10 11  2  3
 11 12  1  0
 12 13  1  0
 13 14  2  0
 13 17  1  0
 14 15  1  0
 15 16  1  0
 16 17  1  0
 16 20  2  0
 17 18  2  0
 18 19  1  0
 19 20  1  0
 21 22  2  0
 22 23  1  0
 23 24  1  0
 24 25  1  0
 25 26  2  0
 25 27  1  0
 28 27  1  6
 27 31  1  0
 28 29  1  0
 28 30  1  0
 29 30  1  0
 31 32  1  6
 31 33  1  0
 33 34  2  0
 33 39  1  0
 34 35  1  0
 35 36  2  0
 36 37  1  0
 37 38  1  0
 37 39  2  0
M  CHG  1  14   1
M  END
