
     RDKit          3D

 38 41  0  0  0  0  0  0  0  0999 V2000
    6.0450    1.1410   -1.2890 C   0  0  0  0  0  0  0  0  0  0  0  0
    4.8200    1.8250   -0.7260 C   0  0  2  0  0  0  0  0  0  0  0  0
    5.2000    3.3060   -0.5610 C   0  0  0  0  0  0  0  0  0  0  0  0
    4.4790    1.3770    0.5260 O   0  0  0  0  0  0  0  0  0  0  0  0
    3.1800    0.9750    0.6750 C   0  0  2  0  0  0  0  0  0  0  0  0
    2.3890    1.5820    1.7980 C   0  0  0  0  0  0  0  0  0  0  0  0
    1.6210    0.2510    1.8560 C   0  0  1  0  0  0  0  0  0  0  0  0
    0.6220    0.1570    0.8970 O   0  0  0  0  0  0  0  0  0  0  0  0
   -0.6610   -0.0070    1.3980 C   0  0  0  0  0  0  0  0  0  0  0  0
   -1.7300    0.3500    0.4230 C   0  0  2  0  0  0  0  0  0  0  0  0
   -2.4170    1.6060    0.9730 C   0  0  0  0  0  0  0  0  0  0  0  0
   -3.5260    2.0800    0.0780 C   0  0  1  0  0  0  0  0  0  0  0  0
   -4.5120    1.1130   -0.0760 O   0  0  0  0  0  0  0  0  0  0  0  0
   -4.1900    3.2470    0.8010 C   0  0  0  0  0  0  0  0  0  0  0  0
   -5.2860    3.8750    0.0050 C   0  0  0  0  0  0  0  0  0  0  0  0
   -5.0040    3.9700   -1.3380 O   0  0  0  0  0  0  0  0  0  0  0  0
   -3.6250    3.9700   -1.5050 C   0  0  0  0  0  0  0  0  0  0  0  0
   -3.0530    2.5760   -1.2500 C   0  0  2  0  0  0  0  0  0  0  0  0
   -3.5850    1.7600   -2.2600 O   0  0  0  0  0  0  0  0  0  0  0  0
   -2.5650   -0.5560   -0.0930 O   0  0  0  0  0  0  0  0  0  0  0  0
   -2.9230   -1.8080   -0.2720 C   0  0  0  0  0  0  0  0  0  0  0  0
   -4.2520   -2.2480   -0.1540 C   0  0  0  0  0  0  0  0  0  0  0  0
   -4.6200   -3.5610   -0.3430 C   0  0  0  0  0  0  0  0  0  0  0  0
   -5.9420   -3.9750   -0.2210 O   0  0  0  0  0  0  0  0  0  0  0  0
   -3.6730   -4.5110   -0.6630 C   0  0  0  0  0  0  0  0  0  0  0  0
   -2.3660   -4.1030   -0.7840 C   0  0  0  0  0  0  0  0  0  0  0  0
   -2.0010   -2.7890   -0.5940 C   0  0  0  0  0  0  0  0  0  0  0  0
   -0.5600   -2.4910   -0.7380 C   0  0  0  0  0  0  0  0  0  0  0  0
    0.2310   -3.3000   -1.6760 C   0  0  1  0  0  0  0  0  0  0  0  0
   -0.5850   -3.7020   -2.7300 O   0  0  0  0  0  0  0  0  0  0  0  0
    1.4250   -2.5350   -2.1720 C   0  0  0  0  0  0  0  0  0  0  0  0
    1.1240   -1.7640   -3.1560 O   0  0  0  0  0  0  0  0  0  0  0  0
    2.6550   -2.6360   -1.6610 O   0  0  0  0  0  0  0  0  0  0  0  0
    3.3670   -2.0090   -0.6280 C   0  0  0  0  0  0  0  0  0  0  0  0
    2.4520   -1.4140    0.3620 C   0  0  0  0  0  0  0  0  0  0  0  0
    2.9370   -0.3610    1.2810 C   0  0  1  0  0  0  0  0  0  0  0  0
    3.8210   -0.7730    2.4100 C   0  0  0  0  0  0  0  0  0  0  0  0
    3.4480   -2.0880    2.8730 N   0  0  0  0  0  0  0  0  0  0  0  0
  2  1  1  1
  2  3  1  0
  2  4  1  0
  5  4  1  1
  5  6  1  0
  5 36  1  0
  7  6  1  6
  7  8  1  0
  7 36  1  0
  8  9  1  0
  9 10  1  0
 10 11  1  1
 10 20  1  0
 11 12  1  0
 12 13  1  6
 12 14  1  0
 12 18  1  0
 14 15  1  0
 15 16  1  0
 16 17  1  0
 17 18  1  0
 18 19  1  6
 20 21  1  0
 21 22  2  0
 21 27  1  0
 22 23  1  0
 23 24  1  0
 23 25  2  0
 25 26  1  0
 26 27  2  0
 27 28  1  0
 28 29  1  0
 29 30  1  6
 29 31  1  0
 31 32  2  0
 31 33  1  0
 33 34  1  0
 34 35  1  0
 35 36  1  0
 36 37  1  1
 37 38  1  0
M  CHG  1  38   1
M  END
