
     RDKit          3D

 39 44  0  0  0  0  0  0  0  0999 V2000
   -1.7260   -4.7850    0.4450 C   0  0  0  0  0  0  0  0  0  0  0  0
   -2.3090   -4.2110   -0.8080 C   0  0  1  0  0  0  0  0  0  0  0  0
   -3.5450   -4.9830   -1.2140 C   0  0  0  0  0  0  0  0  0  0  0  0
   -2.7310   -2.8110   -0.6320 N   0  0  0  0  0  0  0  0  0  0  0  0
   -3.9830   -2.3570   -0.5190 C   0  0  0  0  0  0  0  0  0  0  0  0
   -3.9930   -0.9710   -0.3650 C   0  0  0  0  0  0  0  0  0  0  0  0
   -5.1890   -0.2060   -0.1710 C   0  0  0  0  0  0  0  0  0  0  0  0
   -6.2930   -0.7240   -0.5970 O   0  0  0  0  0  0  0  0  0  0  0  0
   -5.3570    1.0480    0.4270 N   0  0  0  0  0  0  0  0  0  0  0  0
   -6.6390    1.7220    0.5530 C   0  0  1  0  0  0  0  0  0  0  0  0
   -7.0370    1.9770    1.9680 C   0  0  0  0  0  0  0  0  0  0  0  0
   -8.4710    2.4810    1.9570 C   0  0  0  0  0  0  0  0  0  0  0  0
   -8.8930    2.8350    0.6850 O   0  0  0  0  0  0  0  0  0  0  0  0
   -8.0100    3.6690    0.0230 C   0  0  0  0  0  0  0  0  0  0  0  0
   -6.6780    3.0080   -0.2650 C   0  0  0  0  0  0  0  0  0  0  0  0
   -2.6750   -0.6080   -0.3920 C   0  0  0  0  0  0  0  0  0  0  0  0
   -2.0260    0.6030   -0.3040 C   0  0  0  0  0  0  0  0  0  0  0  0
   -0.6890    0.6640   -0.3730 N   0  0  0  0  0  0  0  0  0  0  0  0
    0.1140   -0.3990   -0.5300 C   0  0  0  0  0  0  0  0  0  0  0  0
    1.5260   -0.3620   -0.6050 N   0  0  0  0  0  0  0  0  0  0  0  0
    2.3660    0.7560   -0.5330 C   0  0  0  0  0  0  0  0  0  0  0  0
    1.8550    2.0150   -0.3740 C   0  0  0  0  0  0  0  0  0  0  0  0
    2.7670    3.0770   -0.3110 C   0  0  0  0  0  0  0  0  0  0  0  0
    4.0770    2.8270   -0.4070 N   0  0  0  0  0  0  0  0  0  0  0  0
    4.5790    1.5930   -0.5640 C   0  0  0  0  0  0  0  0  0  0  0  0
    6.0330    1.3650   -0.6650 C   0  0  0  0  0  0  0  0  0  0  0  0
    6.9790    2.3370   -0.6100 C   0  0  0  0  0  0  0  0  0  0  0  0
    8.1810    1.7150   -0.7400 N   0  0  0  0  0  0  0  0  0  0  0  0
    7.9910    0.4040   -0.8710 N   0  0  0  0  0  0  0  0  0  0  0  0
    9.2710   -0.7310   -1.0590 S   0  0  1  0  0  0  0  0  0  0  0  0
    8.7240   -2.1070   -1.2870 O   0  0  0  0  0  0  0  0  0  0  0  0
   10.0160   -0.3460   -2.3170 O   0  0  0  0  0  0  0  0  0  0  0  0
   10.3520   -0.7290    0.3440 C   0  0  2  0  0  0  0  0  0  0  0  0
    9.8370   -0.4800    1.7030 C   0  0  0  0  0  0  0  0  0  0  0  0
   10.6840    0.5710    1.0010 C   0  0  0  0  0  0  0  0  0  0  0  0
    6.6630    0.1530   -0.8280 C   0  0  0  0  0  0  0  0  0  0  0  0
    3.7210    0.5700   -0.6260 N   0  0  0  0  0  0  0  0  0  0  0  0
   -0.5370   -1.6320   -0.6220 C   0  0  0  0  0  0  0  0  0  0  0  0
   -1.8990   -1.7580   -0.5580 C   0  0  0  0  0  0  0  0  0  0  0  0
  2  1  1  1
  2  3  1  0
  2  4  1  0
  4  5  1  0
  4 39  1  0
  5  6  2  0
  6  7  1  0
  6 16  1  0
  7  8  2  0
  7  9  1  0
 10  9  1  1
 10 11  1  0
 10 15  1  0
 11 12  1  0
 12 13  1  0
 13 14  1  0
 14 15  1  0
 16 17  2  0
 16 39  1  0
 17 18  1  0
 18 19  2  0
 19 20  1  0
 19 38  1  0
 20 21  1  0
 21 22  2  0
 21 37  1  0
 22 23  1  0
 23 24  2  0
 24 25  1  0
 25 26  1  0
 25 37  2  0
 26 27  1  0
 26 36  2  0
 27 28  2  0
 28 29  1  0
 30 29  1  1
 29 36  1  0
 30 31  2  0
 30 32  2  0
 30 33  1  0
 33 34  1  1
 33 35  1  0
 34 35  1  0
 38 39  2  0
M  END
