
     RDKit          3D

 39 42  0  0  0  0  0  0  0  0999 V2000
   -6.0550    2.3040    0.2510 N   0  0  0  0  0  0  0  0  0  0  0  0
   -5.1840    1.2000    0.7330 C   0  0  0  0  0  0  0  0  0  0  0  0
   -5.5010   -0.0520   -0.0120 C   0  0  0  0  0  0  0  0  0  0  0  0
   -4.7830   -1.2750    0.3170 C   0  0  1  0  0  0  0  0  0  0  0  0
   -5.4370   -2.3230   -0.5420 O   0  0  0  0  0  0  0  0  0  0  0  0
   -3.3870   -1.5580    0.0310 C   0  0  0  0  0  0  0  0  0  0  0  0
   -2.2410   -0.7630    0.5160 C   0  0  2  0  0  0  0  0  0  0  0  0
   -2.1480    0.5370    0.0780 O   0  0  0  0  0  0  0  0  0  0  0  0
   -1.4780    1.2670   -0.8420 C   0  0  0  0  0  0  0  0  0  0  0  0
   -1.9970    1.5280   -2.1100 C   0  0  0  0  0  0  0  0  0  0  0  0
   -1.3600    2.2610   -3.0810 C   0  0  0  0  0  0  0  0  0  0  0  0
   -0.1280    2.7840   -2.8090 C   0  0  0  0  0  0  0  0  0  0  0  0
    0.4050    2.5430   -1.5650 C   0  0  0  0  0  0  0  0  0  0  0  0
   -0.2120    1.8110   -0.5730 C   0  0  0  0  0  0  0  0  0  0  0  0
    0.4480    1.6530    0.6360 O   0  0  0  0  0  0  0  0  0  0  0  0
   -0.0610    1.7050    1.9250 C   0  0  0  0  0  0  0  0  0  0  0  0
    0.8380    0.9950    2.9250 C   0  0  2  0  0  0  0  0  0  0  0  0
    0.4000    1.3830    4.1940 O   0  0  0  0  0  0  0  0  0  0  0  0
    2.2870    1.3850    2.7310 C   0  0  0  0  0  0  0  0  0  0  0  0
    3.0550    0.2060    2.6940 O   0  0  0  0  0  0  0  0  0  0  0  0
    4.2240   -0.0170    2.0300 C   0  0  0  0  0  0  0  0  0  0  0  0
    5.2620   -0.2820    2.7450 O   0  0  0  0  0  0  0  0  0  0  0  0
    4.4570    0.0090    0.5900 C   0  0  0  0  0  0  0  0  0  0  0  0
    5.5740    0.7050    0.1640 C   0  0  0  0  0  0  0  0  0  0  0  0
    5.9470    0.8540   -1.1550 C   0  0  0  0  0  0  0  0  0  0  0  0
    5.1380    0.2640   -2.0940 C   0  0  0  0  0  0  0  0  0  0  0  0
    4.0090   -0.4420   -1.6890 C   0  0  0  0  0  0  0  0  0  0  0  0
    3.6570   -0.5780   -0.3550 C   0  0  0  0  0  0  0  0  0  0  0  0
    2.5230   -1.2990   -0.0840 O   0  0  0  0  0  0  0  0  0  0  0  0
    2.2620   -2.2690    0.8610 C   0  0  0  0  0  0  0  0  0  0  0  0
    1.3630   -3.3540    0.2870 C   0  0  0  0  0  0  0  0  0  0  0  0
    0.5500   -2.9270   -0.8800 C   0  0  2  0  0  0  0  0  0  0  0  0
    1.0550   -1.8620   -1.5910 O   0  0  0  0  0  0  0  0  0  0  0  0
   -0.9070   -2.6100   -0.5410 C   0  0  0  0  0  0  0  0  0  0  0  0
   -0.9530   -1.5500    0.5680 C   0  0  2  0  0  0  0  0  0  0  0  0
   -0.9320   -2.2500    1.7800 O   0  0  0  0  0  0  0  0  0  0  0  0
    5.6620    0.5160   -3.3680 O   0  0  0  0  0  0  0  0  0  0  0  0
    6.9290    1.1190   -3.1800 C   0  0  0  0  0  0  0  0  0  0  0  0
    6.9880    1.4850   -1.8180 O   0  0  0  0  0  0  0  0  0  0  0  0
  1  2  1  0
  2  3  1  0
  3  4  1  0
  4  5  1  6
  4  6  1  0
  7  6  1  6
  7  8  1  0
  7 35  1  0
  8  9  1  0
  9 10  2  0
  9 14  1  0
 10 11  1  0
 11 12  2  0
 12 13  1  0
 13 14  2  0
 14 15  1  0
 15 16  1  0
 16 17  1  0
 17 18  1  1
 17 19  1  0
 19 20  1  0
 20 21  1  0
 21 22  2  0
 21 23  1  0
 23 24  2  0
 23 28  1  0
 24 25  1  0
 25 26  2  0
 25 39  1  0
 26 27  1  0
 26 37  1  0
 27 28  2  0
 28 29  1  0
 29 30  1  0
 30 31  1  0
 31 32  1  0
 32 33  1  1
 32 34  1  0
 34 35  1  0
 35 36  1  1
 37 38  1  0
 38 39  1  0
M  CHG  1   1   1
M  END
