
     RDKit          3D

 39 42  0  0  0  0  0  0  0  0999 V2000
    8.2980    3.5500    0.3110 C   0  0  0  0  0  0  0  0  0  0  0  0
    7.0350    2.7450    0.1660 C   0  0  0  0  0  0  0  0  0  0  0  0
    6.7800    1.8190   -0.8260 C   0  0  0  0  0  0  0  0  0  0  0  0
    5.5240    1.3330   -0.5740 C   0  0  0  0  0  0  0  0  0  0  0  0
    5.0480    1.9620    0.5480 C   0  0  0  0  0  0  0  0  0  0  0  0
    3.7440    1.7740    1.2090 C   0  0  0  0  0  0  0  0  0  0  0  0
    3.4700    2.4360    2.2340 O   0  0  0  0  0  0  0  0  0  0  0  0
    2.8060    0.8890    0.7400 O   0  0  0  0  0  0  0  0  0  0  0  0
    1.5400    0.6640    1.3290 C   0  0  0  0  0  0  0  0  0  0  0  0
    0.8370   -0.3980    0.4720 C   0  0  1  0  0  0  0  0  0  0  0  0
    0.7320    0.1340   -0.8120 O   0  0  0  0  0  0  0  0  0  0  0  0
   -0.3970    0.3470   -1.5440 C   0  0  0  0  0  0  0  0  0  0  0  0
   -0.3910    0.0770   -2.7710 O   0  0  0  0  0  0  0  0  0  0  0  0
   -1.6890    0.8940   -0.9910 C   0  0  1  0  0  0  0  0  0  0  0  0
   -1.9340    2.1450   -1.5580 O   0  0  0  0  0  0  0  0  0  0  0  0
   -2.1660    3.3210   -0.8930 C   0  0  0  0  0  0  0  0  0  0  0  0
   -2.3990    4.5120   -1.5960 C   0  0  0  0  0  0  0  0  0  0  0  0
   -2.6270    5.6700   -0.8930 C   0  0  0  0  0  0  0  0  0  0  0  0
   -2.6350    5.6970    0.4850 C   0  0  0  0  0  0  0  0  0  0  0  0
   -2.8680    6.8800    1.2020 O   0  0  0  0  0  0  0  0  0  0  0  0
   -2.4100    4.5470    1.1920 C   0  0  0  0  0  0  0  0  0  0  0  0
   -2.1760    3.3630    0.4800 C   0  0  0  0  0  0  0  0  0  0  0  0
   -2.8060   -0.0340   -1.5110 C   0  0  2  0  0  0  0  0  0  0  0  0
   -3.9690    0.3270   -0.8360 O   0  0  0  0  0  0  0  0  0  0  0  0
   -2.4310   -1.4980   -1.2180 C   0  0  0  0  0  0  0  0  0  0  0  0
   -2.9540   -1.8750    0.0740 N   0  0  0  0  0  0  0  0  0  0  0  0
   -3.2360   -3.2600    0.2150 C   0  0  0  0  0  0  0  0  0  0  0  0
   -4.4500   -3.5910    0.5990 C   0  0  0  0  0  0  0  0  0  0  0  0
   -4.9740   -4.9470    0.8120 C   0  0  0  0  0  0  0  0  0  0  0  0
   -3.9910   -5.9000    0.5610 O   0  0  0  0  0  0  0  0  0  0  0  0
   -2.7410   -5.5700    0.1660 C   0  0  0  0  0  0  0  0  0  0  0  0
   -2.2960   -4.3240   -0.0250 C   0  0  0  0  0  0  0  0  0  0  0  0
   -0.8950   -4.1730   -0.4600 C   0  0  0  0  0  0  0  0  0  0  0  0
    0.0050   -3.5180    0.5580 C   0  0  0  0  0  0  0  0  0  0  0  0
    1.1220   -2.8260   -0.1610 C   0  0  2  0  0  0  0  0  0  0  0  0
    2.1510   -3.7800   -0.3390 O   0  0  0  0  0  0  0  0  0  0  0  0
    1.6800   -1.6360    0.5780 C   0  0  1  0  0  0  0  0  0  0  0  0
    2.9110   -1.3310   -0.0490 O   0  0  0  0  0  0  0  0  0  0  0  0
    5.9870    2.7870    0.9410 O   0  0  0  0  0  0  0  0  0  0  0  0
  1  2  1  0
  2  3  2  0
  2 39  1  0
  3  4  1  0
  4  5  2  0
  5  6  1  0
  5 39  1  0
  6  7  2  0
  6  8  1  0
  8  9  1  0
 10  9  1  1
 10 11  1  0
 10 37  1  0
 11 12  1  0
 12 13  2  0
 12 14  1  0
 14 15  1  6
 14 23  1  0
 15 16  1  0
 16 17  2  0
 16 22  1  0
 17 18  1  0
 18 19  2  0
 19 20  1  0
 19 21  1  0
 21 22  2  0
 23 24  1  1
 23 25  1  0
 25 26  1  0
 26 27  1  0
 27 28  2  0
 27 32  1  0
 28 29  1  0
 29 30  1  0
 30 31  1  0
 31 32  2  0
 32 33  1  0
 33 34  1  0
 34 35  1  0
 35 36  1  1
 35 37  1  0
 37 38  1  6
M  CHG  1  26   1
M  END
