
     RDKit          3D

 44 48  0  0  0  0  0  0  0  0999 V2000
   -0.5940   -1.8560   -3.6250 C   0  0  0  0  0  0  0  0  0  0  0  0
    0.4530   -1.2770   -2.8760 O   0  0  0  0  0  0  0  0  0  0  0  0
    0.2050   -0.2310   -1.9940 C   0  0  0  0  0  0  0  0  0  0  0  0
   -1.0580    0.2780   -1.8170 C   0  0  0  0  0  0  0  0  0  0  0  0
   -1.2570    1.3160   -0.9320 C   0  0  0  0  0  0  0  0  0  0  0  0
   -2.5820    1.8660   -0.7350 C   0  0  0  0  0  0  0  0  0  0  0  0
   -2.7660    2.9940   -0.1950 O   0  0  0  0  0  0  0  0  0  0  0  0
   -3.7370    1.1160   -1.1630 C   0  0  0  0  0  0  0  0  0  0  0  0
   -4.6320    1.6920   -2.0360 C   0  0  0  0  0  0  0  0  0  0  0  0
   -5.7020    0.9790   -2.4240 N   0  0  0  0  0  0  0  0  0  0  0  0
   -5.9520   -0.2720   -2.0060 C   0  0  0  0  0  0  0  0  0  0  0  0
   -7.1650   -1.0250   -2.4710 C   0  0  0  0  0  0  0  0  0  0  0  0
   -8.2800   -0.7680   -1.6980 O   0  0  0  0  0  0  0  0  0  0  0  0
   -8.0490   -1.1300   -0.3830 C   0  0  0  0  0  0  0  0  0  0  0  0
   -9.3230   -0.8170    0.4080 C   0  0  1  0  0  0  0  0  0  0  0  0
   -9.1960   -1.1660    1.8570 C   0  0  0  0  0  0  0  0  0  0  0  0
   -9.0130    0.1200    2.6070 C   0  0  0  0  0  0  0  0  0  0  0  0
   -9.2470    1.2510    1.6600 C   0  0  0  0  0  0  0  0  0  0  0  0
   -9.5820    0.6540    0.3210 C   0  0  2  0  0  0  0  0  0  0  0  0
  -11.0710    0.8350    0.0190 C   0  0  0  0  0  0  0  0  0  0  0  0
   -5.0740   -0.8270   -1.1530 N   0  0  0  0  0  0  0  0  0  0  0  0
   -3.9820   -0.1660   -0.7270 C   0  0  0  0  0  0  0  0  0  0  0  0
   -3.1960   -0.7540    0.0790 O   0  0  0  0  0  0  0  0  0  0  0  0
   -0.1870    1.8500   -0.2190 C   0  0  0  0  0  0  0  0  0  0  0  0
    1.0890    1.3420   -0.3920 C   0  0  0  0  0  0  0  0  0  0  0  0
    1.2950    0.2990   -1.2790 C   0  0  0  0  0  0  0  0  0  0  0  0
    2.5010   -0.2920   -1.5370 O   0  0  0  0  0  0  0  0  0  0  0  0
    3.7320   -0.0490   -0.9960 C   0  0  0  0  0  0  0  0  0  0  0  0
    3.8990   -0.3290    0.4800 C   0  0  0  0  0  0  0  0  0  0  0  0
    5.2250   -0.0090    0.8350 O   0  0  0  0  0  0  0  0  0  0  0  0
    6.3800   -0.5880    0.3750 C   0  0  0  0  0  0  0  0  0  0  0  0
    6.2720   -1.5240   -0.4620 O   0  0  0  0  0  0  0  0  0  0  0  0
    7.7130   -0.1750    0.8030 C   0  0  0  0  0  0  0  0  0  0  0  0
    8.0480    0.7830    1.6700 N   0  0  0  0  0  0  0  0  0  0  0  0
    9.3890    0.8590    1.7980 C   0  0  0  0  0  0  0  0  0  0  0  0
    9.9670   -0.0970    0.9730 C   0  0  0  0  0  0  0  0  0  0  0  0
    8.8870   -0.7310    0.3610 C   0  0  0  0  0  0  0  0  0  0  0  0
    9.0260   -1.8450   -0.6240 C   0  0  0  0  0  0  0  0  0  0  0  0
   11.4470   -0.2760    0.8810 C   0  0  0  0  0  0  0  0  0  0  0  0
   11.9120   -0.5440    2.3120 C   0  0  0  0  0  0  0  0  0  0  0  0
   11.7130    1.0040    3.1810 S   0  0  2  0  0  0  0  0  0  0  0  0
   12.8910    1.8730    2.7860 O   0  0  0  0  0  0  0  0  0  0  0  0
   11.7560    0.7710    4.6530 O   0  0  0  0  0  0  0  0  0  0  0  0
   10.2250    1.7710    2.6480 C   0  0  0  0  0  0  0  0  0  0  0  0
  1  2  1  0
  2  3  1  0
  3  4  2  0
  3 26  1  0
  4  5  1  0
  5  6  1  0
  5 24  2  0
  6  7  2  0
  6  8  1  0
  8  9  2  0
  8 22  1  0
  9 10  1  0
 10 11  2  0
 11 12  1  0
 11 21  1  0
 12 13  1  0
 13 14  1  0
 15 14  1  6
 15 16  1  0
 15 19  1  0
 16 17  1  0
 17 18  1  0
 18 19  1  0
 19 20  1  1
 21 22  1  0
 22 23  2  0
 24 25  1  0
 25 26  2  0
 26 27  1  0
 27 28  1  0
 28 29  1  0
 29 30  1  0
 30 31  1  0
 31 32  2  0
 31 33  1  0
 33 34  1  0
 33 37  2  0
 34 35  1  0
 35 36  2  0
 35 44  1  0
 36 37  1  0
 36 39  1  0
 37 38  1  0
 39 40  1  0
 41 40  1  6
 41 42  2  0
 41 43  2  0
 41 44  1  0
M  END
