
     RDKit          3D

 44 48  0  0  0  0  0  0  0  0999 V2000
   -6.0000    2.9600   -0.0680 C   0  0  0  0  0  0  0  0  0  0  0  0
   -4.5800    3.1130    0.0070 O   0  0  0  0  0  0  0  0  0  0  0  0
   -3.8190    1.9250   -0.0170 C   0  0  0  0  0  0  0  0  0  0  0  0
   -4.3880    0.6960   -0.1060 C   0  0  0  0  0  0  0  0  0  0  0  0
   -3.6320   -0.4460   -0.1280 C   0  0  0  0  0  0  0  0  0  0  0  0
   -4.2260   -1.8010   -0.2250 C   0  0  0  0  0  0  0  0  0  0  0  0
   -5.7050   -1.8470   -0.3960 C   0  0  1  0  0  0  0  0  0  0  0  0
   -6.2430   -1.1960   -1.6240 C   0  0  0  0  0  0  0  0  0  0  0  0
   -6.0790   -3.3370   -0.4590 C   0  0  0  0  0  0  0  0  0  0  0  0
   -6.3440   -3.7250    0.9800 C   0  0  0  0  0  0  0  0  0  0  0  0
   -7.0330   -2.5550    1.4620 N   0  0  0  0  0  0  0  0  0  0  0  0
   -6.4400   -1.4040    0.8510 C   0  0  0  0  0  0  0  0  0  0  0  0
   -2.2630   -0.3550   -0.0570 C   0  0  0  0  0  0  0  0  0  0  0  0
   -1.3450   -1.4910   -0.0660 C   0  0  0  0  0  0  0  0  0  0  0  0
   -1.8070   -2.6350   -0.2430 O   0  0  0  0  0  0  0  0  0  0  0  0
    0.1200   -1.3430    0.1260 C   0  0  1  0  0  0  0  0  0  0  0  0
    0.3670   -0.8010    1.5210 C   0  0  0  0  0  0  0  0  0  0  0  0
    0.7090   -2.6190   -0.0340 O   0  0  0  0  0  0  0  0  0  0  0  0
    1.6820   -2.8520   -0.9610 C   0  0  0  0  0  0  0  0  0  0  0  0
    2.0410   -1.8710   -1.6800 O   0  0  0  0  0  0  0  0  0  0  0  0
    2.3660   -4.1470   -1.2130 C   0  0  0  0  0  0  0  0  0  0  0  0
    3.7630   -4.2010   -0.0280 S   0  0  0  0  0  0  0  0  0  0  0  0
    4.9280   -2.9110   -0.4290 C   0  0  0  0  0  0  0  0  0  0  0  0
    5.9700   -3.0370   -1.2700 N   0  0  0  0  0  0  0  0  0  0  0  0
    6.6540   -1.8600   -1.3470 C   0  0  0  0  0  0  0  0  0  0  0  0
    7.7340   -1.4470   -2.0130 N   0  0  0  0  0  0  0  0  0  0  0  0
    8.1750   -0.1960   -1.8780 C   0  0  0  0  0  0  0  0  0  0  0  0
    9.2020    0.2330   -2.4980 O   0  0  0  0  0  0  0  0  0  0  0  0
    7.5010    0.6840   -1.0340 C   0  0  0  0  0  0  0  0  0  0  0  0
    6.3870    0.2970   -0.3310 C   0  0  0  0  0  0  0  0  0  0  0  0
    5.9510   -1.0050   -0.4900 C   0  0  0  0  0  0  0  0  0  0  0  0
    4.9500   -1.6710    0.0210 O   0  0  0  0  0  0  0  0  0  0  0  0
    5.6060    1.1530    0.5820 C   0  0  0  0  0  0  0  0  0  0  0  0
    6.2210    2.4770    0.8670 C   0  0  2  0  0  0  0  0  0  0  0  0
    5.1670    3.5350    1.2090 C   0  0  0  0  0  0  0  0  0  0  0  0
    7.0280    3.0330   -0.2700 C   0  0  0  0  0  0  0  0  0  0  0  0
    7.9620    2.0580   -0.8690 C   0  0  0  0  0  0  0  0  0  0  0  0
    9.1160    2.3350   -1.2400 O   0  0  0  0  0  0  0  0  0  0  0  0
   -1.6540    0.8980    0.0350 C   0  0  0  0  0  0  0  0  0  0  0  0
   -2.4540    2.0200    0.0530 C   0  0  0  0  0  0  0  0  0  0  0  0
   -1.7970    3.2600    0.1470 O   0  0  0  0  0  0  0  0  0  0  0  0
   -1.5570    3.8480    1.3670 C   0  0  0  0  0  0  0  0  0  0  0  0
   -0.8670    5.1560    1.5420 C   0  0  0  0  0  0  0  0  0  0  0  0
   -1.9620    3.2080    2.3850 O   0  0  0  0  0  0  0  0  0  0  0  0
  1  2  1  0
  2  3  1  0
  3  4  2  0
  3 40  1  0
  4  5  1  0
  5  6  1  0
  5 13  2  0
  6  7  1  0
  7  8  1  6
  7  9  1  0
  7 12  1  0
  9 10  1  0
 10 11  1  0
 11 12  1  0
 13 14  1  0
 13 39  1  0
 14 15  2  0
 14 16  1  0
 16 17  1  1
 16 18  1  0
 18 19  1  0
 19 20  2  0
 19 21  1  0
 21 22  1  0
 22 23  1  0
 23 24  2  0
 23 32  1  0
 24 25  1  0
 25 26  1  0
 25 31  2  0
 26 27  1  0
 27 28  2  0
 27 29  1  0
 29 30  2  0
 29 37  1  0
 30 31  1  0
 30 33  1  0
 31 32  1  0
 33 34  1  0
 34 35  1  6
 34 36  1  0
 36 37  1  0
 37 38  2  0
 39 40  2  0
 40 41  1  0
 41 42  1  0
 42 43  1  0
 42 44  2  0
M  END
