
     RDKit          3D

 44 48  0  0  0  0  0  0  0  0999 V2000
   -4.0040   -6.6190   -2.0780 C   0  0  0  0  0  0  0  0  0  0  0  0
   -4.1510   -5.5830   -1.2620 C   0  0  0  0  0  0  0  0  0  0  0  0
   -4.5440   -5.7980    0.1780 C   0  0  0  0  0  0  0  0  0  0  0  0
   -3.7490   -4.9870    0.9900 O   0  0  0  0  0  0  0  0  0  0  0  0
   -3.5500   -3.6480    0.6650 C   0  0  0  0  0  0  0  0  0  0  0  0
   -3.2550   -2.7130    1.6240 C   0  0  0  0  0  0  0  0  0  0  0  0
   -3.0490   -1.3910    1.3250 C   0  0  0  0  0  0  0  0  0  0  0  0
   -3.1410   -0.9800    0.0070 C   0  0  0  0  0  0  0  0  0  0  0  0
   -3.4550   -1.9190   -1.0000 C   0  0  0  0  0  0  0  0  0  0  0  0
   -3.6580   -3.2670   -0.6770 C   0  0  0  0  0  0  0  0  0  0  0  0
   -3.9590   -4.2290   -1.6620 N   0  0  0  0  0  0  0  0  0  0  0  0
   -3.8320   -1.4810   -2.3320 C   0  0  0  0  0  0  0  0  0  0  0  0
   -4.1040   -2.2310   -3.2810 O   0  0  0  0  0  0  0  0  0  0  0  0
   -3.8930   -0.0540   -2.5600 N   0  0  0  0  0  0  0  0  0  0  0  0
   -3.5990    0.8500   -1.5070 C   0  0  0  0  0  0  0  0  0  0  0  0
   -4.0410    2.0320   -1.4840 O   0  0  0  0  0  0  0  0  0  0  0  0
   -2.7490    0.3470   -0.4320 C   0  0  1  0  0  0  0  0  0  0  0  0
   -2.1470    1.3130    0.4970 C   0  0  0  0  0  0  0  0  0  0  0  0
   -0.8430    0.9240    1.0570 C   0  0  0  0  0  0  0  0  0  0  0  0
    0.2660    1.5760    0.9250 C   0  0  0  0  0  0  0  0  0  0  0  0
    0.3740    2.8400    0.1690 C   0  0  0  0  0  0  0  0  0  0  0  0
    0.9290    4.2020    1.2620 S   0  0  0  0  0  0  0  0  0  0  0  0
    1.0180    5.6750    0.2530 C   0  0  0  0  0  0  0  0  0  0  0  0
    0.6960    5.6580   -1.1060 C   0  0  0  0  0  0  0  0  0  0  0  0
    0.7710    6.8060   -1.8630 C   0  0  0  0  0  0  0  0  0  0  0  0
    1.1610    8.0070   -1.3290 C   0  0  0  0  0  0  0  0  0  0  0  0
    1.4820    8.0390    0.0110 C   0  0  0  0  0  0  0  0  0  0  0  0
    1.8850    9.2170    0.6180 O   0  0  0  0  0  0  0  0  0  0  0  0
    1.9600   10.3880   -0.1700 C   0  0  0  0  0  0  0  0  0  0  0  0
    1.4070    6.8870    0.7750 C   0  0  0  0  0  0  0  0  0  0  0  0
    1.5170    1.0910    1.5270 C   0  0  0  0  0  0  0  0  0  0  0  0
    2.5490    1.7800    1.3550 O   0  0  0  0  0  0  0  0  0  0  0  0
    1.6610   -0.0890    2.2850 N   0  0  0  0  0  0  0  0  0  0  0  0
    2.9260   -0.5100    2.8490 C   0  0  0  0  0  0  0  0  0  0  0  0
    3.9910   -0.7390    1.8320 C   0  0  0  0  0  0  0  0  0  0  0  0
    3.6400   -1.7830    0.8390 C   0  0  0  0  0  0  0  0  0  0  0  0
    2.9490   -1.4140   -0.1740 O   0  0  0  0  0  0  0  0  0  0  0  0
    3.9830   -3.1030    0.9010 O   0  0  0  0  0  0  0  0  0  0  0  0
    3.6430   -4.0810   -0.0520 C   0  0  1  0  0  0  0  0  0  0  0  0
    4.8250   -4.7880   -0.6280 C   0  0  0  0  0  0  0  0  0  0  0  0
    4.2020   -6.0890   -1.1320 C   0  0  0  0  0  0  0  0  0  0  0  0
    3.0150   -6.2540   -0.3950 O   0  0  0  0  0  0  0  0  0  0  0  0
    2.8520   -5.1980    0.5200 C   0  0  0  0  0  0  0  0  0  0  0  0
    2.1770   -5.2580    1.5620 O   0  0  0  0  0  0  0  0  0  0  0  0
  1  2  2  0
  2  3  1  0
  2 11  1  0
  3  4  1  0
  4  5  1  0
  5  6  2  0
  5 10  1  0
  6  7  1  0
  7  8  2  0
  8  9  1  0
  8 17  1  0
  9 10  2  0
  9 12  1  0
 10 11  1  0
 12 13  2  0
 12 14  1  0
 14 15  1  0
 15 16  2  0
 15 17  1  0
 17 18  1  1
 18 19  1  0
 19 20  2  3
 20 21  1  0
 20 31  1  0
 21 22  1  0
 22 23  1  0
 23 24  2  0
 23 30  1  0
 24 25  1  0
 25 26  2  0
 26 27  1  0
 27 28  1  0
 27 30  2  0
 28 29  1  0
 31 32  2  0
 31 33  1  0
 33 34  1  0
 34 35  1  0
 35 36  1  0
 36 37  2  0
 36 38  1  0
 39 38  1  1
 39 40  1  0
 39 43  1  0
 40 41  1  0
 41 42  1  0
 42 43  1  0
 43 44  2  0
M  END
