
     RDKit          3D

 44 48  0  0  0  0  0  0  0  0999 V2000
   10.6910   -0.5950   -3.7270 C   0  0  0  0  0  0  0  0  0  0  0  0
   10.3020    0.5850   -2.9060 C   0  0  0  0  0  0  0  0  0  0  0  0
   10.3650    1.7440   -3.3610 O   0  0  0  0  0  0  0  0  0  0  0  0
    9.8330    0.4000   -1.5290 C   0  0  0  0  0  0  0  0  0  0  0  0
    9.7540   -0.8690   -1.0060 C   0  0  0  0  0  0  0  0  0  0  0  0
    9.3130   -1.0290    0.2860 C   0  0  0  0  0  0  0  0  0  0  0  0
    9.2230   -2.1870    0.8160 O   0  0  0  0  0  0  0  0  0  0  0  0
    8.9590    0.0700    1.0330 C   0  0  0  0  0  0  0  0  0  0  0  0
    8.4870   -0.1230    2.4180 C   0  0  0  0  0  0  0  0  0  0  0  0
    7.1020   -0.6140    2.3800 C   0  0  0  0  0  0  0  0  0  0  0  0
    6.4930   -1.7400    2.3340 N   0  0  0  0  0  0  0  0  0  0  0  0
    5.2480   -1.9400    2.3110 C   0  0  0  0  0  0  0  0  0  0  0  0
    4.5990   -3.3180    2.2570 C   0  0  0  0  0  0  0  0  0  0  0  0
    4.3960   -0.8370    2.3380 C   0  0  0  0  0  0  0  0  0  0  0  0
    2.9730   -0.6790    2.3280 C   0  0  0  0  0  0  0  0  0  0  0  0
    2.1800   -1.6760    2.2900 O   0  0  0  0  0  0  0  0  0  0  0  0
    2.3860    0.5770    2.3590 O   0  0  0  0  0  0  0  0  0  0  0  0
    0.9910    0.6870    2.3470 C   0  0  0  0  0  0  0  0  0  0  0  0
    0.3510    0.1150    1.1480 C   0  0  0  0  0  0  0  0  0  0  0  0
    1.1090   -0.3960    0.2800 O   0  0  0  0  0  0  0  0  0  0  0  0
   -1.0550    0.1290    0.9640 N   0  0  0  0  0  0  0  0  0  0  0  0
   -1.9130   -0.3660   -0.1010 C   0  0  0  0  0  0  0  0  0  0  0  0
   -2.8570    0.7370    0.2510 C   0  0  2  0  0  0  0  0  0  0  0  0
   -4.3280    0.4740    0.1280 C   0  0  0  0  0  0  0  0  0  0  0  0
   -4.6990    0.1150   -1.2780 C   0  0  0  0  0  0  0  0  0  0  0  0
   -6.0400   -0.1300   -1.4530 O   0  0  0  0  0  0  0  0  0  0  0  0
   -6.4190   -0.4680   -2.7320 C   0  0  1  0  0  0  0  0  0  0  0  0
   -6.9050   -1.8900   -2.6690 C   0  0  0  0  0  0  0  0  0  0  0  0
   -8.4120   -1.9830   -2.7520 C   0  0  0  0  0  0  0  0  0  0  0  0
   -8.9720   -1.2690   -1.5410 C   0  0  0  0  0  0  0  0  0  0  0  0
   -9.5930    0.0180   -2.0430 C   0  0  0  0  0  0  0  0  0  0  0  0
   -8.7320    0.6710   -3.0170 N   0  0  0  0  0  0  0  0  0  0  0  0
   -7.3700    0.4450   -3.3550 C   0  0  0  0  0  0  0  0  0  0  0  0
   -6.9410    1.1220   -4.3130 O   0  0  0  0  0  0  0  0  0  0  0  0
   -2.4380    2.0330   -0.3560 C   0  0  0  0  0  0  0  0  0  0  0  0
   -2.7810    3.2210    0.5430 C   0  0  0  0  0  0  0  0  0  0  0  0
   -1.9040    3.0770    1.7510 C   0  0  0  0  0  0  0  0  0  0  0  0
   -2.2120    1.7990    2.4410 C   0  0  0  0  0  0  0  0  0  0  0  0
   -2.2620    0.5710    1.6170 C   0  0  2  0  0  0  0  0  0  0  0  0
   -2.8350   -0.5710    2.4330 C   0  0  0  0  0  0  0  0  0  0  0  0
   -1.9030   -0.9680    3.3890 O   0  0  0  0  0  0  0  0  0  0  0  0
    5.6370    0.5050    2.4000 S   0  0  0  0  0  0  0  0  0  0  0  0
    9.0650    1.3020    0.4410 C   0  0  0  0  0  0  0  0  0  0  0  0
    9.4930    1.4160   -0.8020 O   0  0  0  0  0  0  0  0  0  0  0  0
  1  2  1  0
  2  3  2  0
  2  4  1  0
  4  5  2  0
  4 44  1  0
  5  6  1  0
  6  7  2  0
  6  8  1  0
  8  9  1  0
  8 43  2  0
  9 10  1  0
 10 11  2  0
 10 42  1  0
 11 12  1  0
 12 13  1  0
 12 14  2  0
 14 15  1  0
 14 42  1  0
 15 16  2  0
 15 17  1  0
 17 18  1  0
 18 19  1  0
 19 20  2  0
 19 21  1  0
 21 22  1  0
 21 39  1  0
 22 23  1  0
 23 24  1  1
 23 35  1  0
 23 39  1  0
 24 25  1  0
 25 26  1  0
 27 26  1  1
 27 28  1  0
 27 33  1  0
 28 29  1  0
 29 30  1  0
 30 31  1  0
 31 32  1  0
 32 33  1  0
 33 34  2  0
 35 36  1  0
 36 37  1  0
 37 38  1  0
 38 39  1  0
 39 40  1  1
 40 41  1  0
 43 44  1  0
M  END
