
     RDKit          3D

 44 47  0  0  0  0  0  0  0  0999 V2000
   -3.2770    4.7090    1.4680 C   0  0  0  0  0  0  0  0  0  0  0  0
   -3.1630    3.2830    1.3960 O   0  0  0  0  0  0  0  0  0  0  0  0
   -3.6140    2.6170    0.2370 C   0  0  0  0  0  0  0  0  0  0  0  0
   -4.1170    3.3920   -0.7880 C   0  0  0  0  0  0  0  0  0  0  0  0
   -4.5630    2.7460   -1.9390 C   0  0  0  0  0  0  0  0  0  0  0  0
   -5.2540    3.6960   -3.2790 S   0  0  0  0  0  0  0  0  0  0  0  0
   -5.4770    5.4220   -2.8380 C   0  0  0  0  0  0  0  0  0  0  0  0
   -4.4660    1.4000   -1.9600 C   0  0  0  0  0  0  0  0  0  0  0  0
   -3.9800    0.5720   -0.9810 C   0  0  0  0  0  0  0  0  0  0  0  0
   -3.9380   -0.7270   -1.1010 O   0  0  0  0  0  0  0  0  0  0  0  0
   -3.5420   -1.8760   -0.4850 C   0  0  2  0  0  0  0  0  0  0  0  0
   -4.6260   -2.5280    0.2950 C   0  0  0  0  0  0  0  0  0  0  0  0
   -4.2590   -3.7290    1.0250 C   0  0  1  0  0  0  0  0  0  0  0  0
   -5.4240   -4.3190    1.8440 C   0  0  0  0  0  0  0  0  0  0  0  0
   -4.8040   -5.6430    2.2660 C   0  0  0  0  0  0  0  0  0  0  0  0
   -3.5560   -5.7250    1.4210 C   0  0  0  0  0  0  0  0  0  0  0  0
   -3.8280   -4.8490    0.3400 O   0  0  0  0  0  0  0  0  0  0  0  0
   -2.3550   -1.6390    0.2440 O   0  0  0  0  0  0  0  0  0  0  0  0
   -1.2490   -1.9750   -0.4870 N   0  0  0  0  0  0  0  0  0  0  0  0
    0.0220   -1.4850   -0.1120 C   0  0  0  0  0  0  0  0  0  0  0  0
    0.1210   -0.7590    0.9130 O   0  0  0  0  0  0  0  0  0  0  0  0
    1.1940   -1.8290   -0.9220 C   0  0  0  0  0  0  0  0  0  0  0  0
    0.9920   -2.5520   -1.9560 O   0  0  0  0  0  0  0  0  0  0  0  0
    2.4710   -1.4220   -0.6480 N   0  0  0  0  0  0  0  0  0  0  0  0
    3.6990   -1.7390   -1.5390 C   0  0  2  0  0  0  0  0  0  0  0  0
    3.8970   -3.0300   -1.6000 C   0  0  0  0  0  0  0  0  0  0  0  0
    4.0980   -4.2780   -1.6580 N   0  0  0  0  0  0  0  0  0  0  0  0
    4.5880   -0.6370   -1.3200 C   0  0  0  0  0  0  0  0  0  0  0  0
    4.5480    0.4780   -2.0790 C   0  0  0  0  0  0  0  0  0  0  0  0
    5.4030    1.6150   -1.8490 C   0  0  0  0  0  0  0  0  0  0  0  0
    5.3380    2.6380   -2.5920 O   0  0  0  0  0  0  0  0  0  0  0  0
    6.3520    1.5850   -0.7570 C   0  0  0  0  0  0  0  0  0  0  0  0
    7.2260    2.4110   -0.2100 C   0  0  0  0  0  0  0  0  0  0  0  0
    7.4300    3.7920   -0.7290 C   0  0  0  0  0  0  0  0  0  0  0  0
    7.8850    1.8470    0.9000 C   0  0  0  0  0  0  0  0  0  0  0  0
    8.5630    2.4100    2.1170 C   0  0  0  0  0  0  0  0  0  0  0  0
    9.3340    1.6490    2.7180 O   0  0  0  0  0  0  0  0  0  0  0  0
    7.4070    0.5870    1.0780 C   0  0  0  0  0  0  0  0  0  0  0  0
    7.7310   -0.4440    2.0640 C   0  0  0  0  0  0  0  0  0  0  0  0
    6.3670    0.3740    0.0240 C   0  0  0  0  0  0  0  0  0  0  0  0
    5.5770   -0.6310   -0.2120 C   0  0  0  0  0  0  0  0  0  0  0  0
   -3.5260    1.2420    0.1930 C   0  0  0  0  0  0  0  0  0  0  0  0
   -3.0110    0.6010    1.2800 O   0  0  0  0  0  0  0  0  0  0  0  0
   -3.6750    0.1820    2.4370 C   0  0  0  0  0  0  0  0  0  0  0  0
  1  2  1  0
  2  3  1  0
  3  4  2  0
  3 42  1  0
  4  5  1  0
  5  6  1  0
  5  8  2  0
  6  7  1  0
  8  9  1  0
  9 10  1  0
  9 42  2  0
 10 11  1  0
 11 12  1  1
 11 18  1  0
 13 12  1  6
 13 14  1  0
 13 17  1  0
 14 15  1  0
 15 16  1  0
 16 17  1  0
 18 19  1  0
 19 20  1  0
 20 21  2  0
 20 22  1  0
 22 23  2  0
 22 24  1  0
 24 25  1  0
 25 26  1  1
 25 28  1  0
 26 27  3  0
 28 29  2  0
 28 41  1  0
 29 30  1  0
 30 31  2  0
 30 32  1  0
 32 33  2  0
 32 40  1  0
 33 34  1  0
 33 35  1  0
 35 36  1  0
 35 38  2  0
 36 37  2  0
 38 39  1  0
 38 40  1  0
 40 41  2  0
 42 43  1  0
 43 44  1  0
M  END
