
     RDKit          3D

 33 35  0  0  0  0  0  0  0  0999 V2000
   -3.2120   -2.7380    1.0620 C   0  0  0  0  0  0  0  0  0  0  0  0
   -3.2020   -1.8030    0.0060 O   0  0  0  0  0  0  0  0  0  0  0  0
   -4.4030   -1.4220   -0.5640 C   0  0  0  0  0  0  0  0  0  0  0  0
   -5.5990   -1.9640   -0.0890 C   0  0  0  0  0  0  0  0  0  0  0  0
   -6.8260   -1.6440   -0.5930 C   0  0  0  0  0  0  0  0  0  0  0  0
   -6.8680   -0.7270   -1.6350 C   0  0  0  0  0  0  0  0  0  0  0  0
   -5.7000   -0.1820   -2.1170 C   0  0  0  0  0  0  0  0  0  0  0  0
   -5.7650    0.7270   -3.1530 O   0  0  0  0  0  0  0  0  0  0  0  0
   -6.9830    1.1110   -3.7270 C   0  0  0  0  0  0  0  0  0  0  0  0
   -4.4430   -0.5170   -1.5930 C   0  0  0  0  0  0  0  0  0  0  0  0
   -3.3070    0.0800   -2.1360 O   0  0  0  0  0  0  0  0  0  0  0  0
   -2.8070    1.3000   -1.6260 C   0  0  2  0  0  0  0  0  0  0  0  0
   -3.3240    2.4600   -2.4940 C   0  0  0  0  0  0  0  0  0  0  0  0
   -1.3270    1.3700   -1.4840 C   0  0  2  0  0  0  0  0  0  0  0  0
   -0.6250    1.1860   -2.8300 C   0  0  0  0  0  0  0  0  0  0  0  0
   -0.7620    0.3730   -0.5270 C   0  0  0  0  0  0  0  0  0  0  0  0
    0.7400    0.5210   -0.4240 C   0  0  0  0  0  0  0  0  0  0  0  0
    1.2790    1.4030   -1.0950 O   0  0  0  0  0  0  0  0  0  0  0  0
    1.4810   -0.3330    0.4180 N   0  0  0  0  0  0  0  0  0  0  0  0
    2.8740   -0.2840    0.6380 C   0  0  0  0  0  0  0  0  0  0  0  0
    3.5900   -1.1070    1.3870 C   0  0  0  0  0  0  0  0  0  0  0  0
    3.2240   -2.2600    2.1970 C   0  0  0  0  0  0  0  0  0  0  0  0
    4.1190   -2.9780    2.9070 C   0  0  0  0  0  0  0  0  0  0  0  0
    3.4990   -4.0830    3.6330 C   0  0  0  0  0  0  0  0  0  0  0  0
    2.0850   -3.9710    3.2840 C   0  0  0  0  0  0  0  0  0  0  0  0
    1.9660   -2.9210    2.4640 C   0  0  0  0  0  0  0  0  0  0  0  0
    5.0670   -0.7400    1.2120 C   0  0  0  0  0  0  0  0  0  0  0  0
    4.9670   -0.0640   -0.1850 C   0  0  0  0  0  0  0  0  0  0  0  0
    3.7990    0.7620    0.2000 N   0  0  0  0  0  0  0  0  0  0  0  0
    3.5890    2.1540    0.1960 C   0  0  0  0  0  0  0  0  0  0  0  0
    4.4930    2.9490    1.1460 C   0  0  2  0  0  0  0  0  0  0  0  0
    5.9290    2.7990    0.7990 C   0  0  0  0  0  0  0  0  0  0  0  0
    4.1700    2.6710    2.5760 C   0  0  0  0  0  0  0  0  0  0  0  0
  1  2  1  0
  2  3  1  0
  3  4  2  0
  3 10  1  0
  4  5  1  0
  5  6  2  0
  6  7  1  0
  7  8  1  0
  7 10  2  0
  8  9  1  0
 10 11  1  0
 11 12  1  0
 12 13  1  6
 12 14  1  0
 14 15  1  6
 14 16  1  0
 16 17  1  0
 17 18  2  0
 17 19  1  0
 19 20  1  0
 20 21  2  0
 20 29  1  0
 21 22  1  0
 21 27  1  0
 22 23  2  0
 22 26  1  0
 23 24  1  0
 24 25  1  0
 25 26  2  0
 27 28  1  0
 28 29  1  0
 29 30  1  0
 30 31  1  0
 31 32  1  1
 31 33  1  0
M  END
