
     RDKit          3D

 33 35  0  0  0  0  0  0  0  0999 V2000
   -3.9580    4.0650   -2.5640 C   0  0  0  0  0  0  0  0  0  0  0  0
   -3.1210    2.8220   -2.5760 C   0  0  0  0  0  0  0  0  0  0  0  0
   -3.0970    2.0010   -1.5470 C   0  0  0  0  0  0  0  0  0  0  0  0
   -3.9250    2.3560   -0.3910 C   0  0  0  0  0  0  0  0  0  0  0  0
   -3.9470    1.5740    0.6890 C   0  0  0  0  0  0  0  0  0  0  0  0
   -3.1790    0.3460    0.8130 C   0  0  0  0  0  0  0  0  0  0  0  0
   -3.2010   -0.4490    2.0230 C   0  0  0  0  0  0  0  0  0  0  0  0
   -3.8300   -0.3410    3.1310 C   0  0  0  0  0  0  0  0  0  0  0  0
   -4.7810    0.5370    3.7710 C   0  0  0  0  0  0  0  0  0  0  0  0
   -6.1000   -0.2020    4.1050 C   0  0  0  0  0  0  0  0  0  0  0  0
   -2.4070   -0.0060   -0.2360 C   0  0  0  0  0  0  0  0  0  0  0  0
   -1.6220   -1.2380   -0.1480 C   0  0  0  0  0  0  0  0  0  0  0  0
   -0.1860   -1.0310    0.3090 C   0  0  0  0  0  0  0  0  0  0  0  0
    0.4570   -2.4210    0.3040 C   0  0  2  0  0  0  0  0  0  0  0  0
   -0.2430   -3.3770    1.2420 C   0  0  0  0  0  0  0  0  0  0  0  0
    0.8110   -4.3970    1.6910 C   0  0  0  0  0  0  0  0  0  0  0  0
    1.6410   -4.7380    0.6300 O   0  0  0  0  0  0  0  0  0  0  0  0
    2.5010   -3.7410    0.2450 C   0  0  0  0  0  0  0  0  0  0  0  0
    1.9010   -2.3870    0.6500 C   0  0  1  0  0  0  0  0  0  0  0  0
    2.6520   -1.3760   -0.0880 N   0  0  0  0  0  0  0  0  0  0  0  0
    3.5220   -0.4410    0.5130 C   0  0  0  0  0  0  0  0  0  0  0  0
    3.6590   -0.4760    1.7640 O   0  0  0  0  0  0  0  0  0  0  0  0
    4.2600    0.5560   -0.2950 C   0  0  0  0  0  0  0  0  0  0  0  0
    4.1910    0.7380   -1.6550 C   0  0  0  0  0  0  0  0  0  0  0  0
    5.0310    1.7640   -2.0210 C   0  0  0  0  0  0  0  0  0  0  0  0
    5.5970    2.1780   -0.8170 C   0  0  0  0  0  0  0  0  0  0  0  0
    6.5870    3.2950   -0.7720 C   0  0  0  0  0  0  0  0  0  0  0  0
    7.8670    2.8100   -0.9000 O   0  0  0  0  0  0  0  0  0  0  0  0
    8.2040    1.9190    0.1130 C   0  0  0  0  0  0  0  0  0  0  0  0
    5.1150    1.4430    0.1480 O   0  0  0  0  0  0  0  0  0  0  0  0
   -2.3530    0.8070   -1.4270 N   0  0  0  0  0  0  0  0  0  0  0  0
   -1.5990    0.3810   -2.5880 C   0  0  0  0  0  0  0  0  0  0  0  0
   -2.3680   -0.7720   -3.2480 C   0  0  0  0  0  0  0  0  0  0  0  0
  1  2  1  0
  2  3  2  3
  3  4  1  0
  3 31  1  0
  4  5  2  0
  5  6  1  0
  6  7  1  0
  6 11  2  0
  7  8  2  3
  8  9  1  0
  9 10  1  0
 11 12  1  0
 11 31  1  0
 12 13  1  0
 14 13  1  1
 14 15  1  0
 14 19  1  0
 15 16  1  0
 16 17  1  0
 17 18  1  0
 18 19  1  0
 19 20  1  6
 20 21  1  0
 21 22  2  0
 21 23  1  0
 23 24  2  0
 23 30  1  0
 24 25  1  0
 25 26  2  0
 26 27  1  0
 26 30  1  0
 27 28  1  0
 28 29  1  0
 31 32  1  0
 32 33  1  0
M  END
