
     RDKit          3D

 33 34  0  0  0  0  0  0  0  0999 V2000
   -7.2640   -2.2050    0.2280 C   0  0  0  0  0  0  0  0  0  0  0  0
   -5.9210   -2.7090   -0.2110 C   0  0  0  0  0  0  0  0  0  0  0  0
   -4.8970   -2.7030    0.8880 C   0  0  0  0  0  0  0  0  0  0  0  0
   -4.6180   -1.3810    1.4780 C   0  0  0  0  0  0  0  0  0  0  0  0
   -4.1790   -0.2950    0.8060 N   0  0  0  0  0  0  0  0  0  0  0  0
   -3.0270    0.0920    0.1980 C   0  0  1  0  0  0  0  0  0  0  0  0
   -1.8030    0.1950    1.0310 C   0  0  0  0  0  0  0  0  0  0  0  0
   -1.5620   -0.6180    1.9480 O   0  0  0  0  0  0  0  0  0  0  0  0
   -0.8790    1.2150    0.7990 N   0  0  0  0  0  0  0  0  0  0  0  0
    0.3940    1.1980    1.5680 C   0  0  0  0  0  0  0  0  0  0  0  0
    1.4350    0.4260    0.8070 C   0  0  0  0  0  0  0  0  0  0  0  0
    1.0390   -0.1960   -0.1850 O   0  0  0  0  0  0  0  0  0  0  0  0
    2.8060    0.4250    1.2240 C   0  0  0  0  0  0  0  0  0  0  0  0
    3.8160   -0.1950    0.6650 C   0  0  0  0  0  0  0  0  0  0  0  0
    3.7370   -1.0210   -0.5060 C   0  0  0  0  0  0  0  0  0  0  0  0
    4.8230   -1.6270   -1.0230 C   0  0  0  0  0  0  0  0  0  0  0  0
    6.1260   -1.4690   -0.4130 C   0  0  0  0  0  0  0  0  0  0  0  0
    7.2370   -2.0920   -0.9480 C   0  0  0  0  0  0  0  0  0  0  0  0
    8.4700   -1.9290   -0.3570 C   0  0  0  0  0  0  0  0  0  0  0  0
    9.6000   -2.5530   -0.8890 O   0  0  0  0  0  0  0  0  0  0  0  0
   10.8700   -2.4120   -0.3170 C   0  0  0  0  0  0  0  0  0  0  0  0
    8.5750   -1.1490    0.7590 C   0  0  0  0  0  0  0  0  0  0  0  0
    7.4670   -0.5280    1.2930 C   0  0  0  0  0  0  0  0  0  0  0  0
    6.2080   -0.6800    0.7080 C   0  0  0  0  0  0  0  0  0  0  0  0
    5.1010   -0.0570    1.2440 O   0  0  0  0  0  0  0  0  0  0  0  0
   -1.0440    2.3760   -0.0530 C   0  0  0  0  0  0  0  0  0  0  0  0
   -1.4820    3.6160    0.6690 C   0  0  2  0  0  0  0  0  0  0  0  0
   -2.7900    3.4300    1.3720 C   0  0  0  0  0  0  0  0  0  0  0  0
   -1.6240    4.7830   -0.2830 C   0  0  0  0  0  0  0  0  0  0  0  0
   -2.6160    4.5700   -1.3820 C   0  0  0  0  0  0  0  0  0  0  0  0
   -2.6140   -0.5410   -1.1310 C   0  0  1  0  0  0  0  0  0  0  0  0
   -2.3760   -1.9950   -1.1130 C   0  0  0  0  0  0  0  0  0  0  0  0
   -3.5950   -0.0900   -2.1760 C   0  0  0  0  0  0  0  0  0  0  0  0
  1  2  1  0
  2  3  1  0
  3  4  1  0
  4  5  1  0
  6  5  1  1
  6  7  1  0
  6 31  1  0
  7  8  2  0
  7  9  1  0
  9 10  1  0
  9 26  1  0
 10 11  1  0
 11 12  2  0
 11 13  1  0
 13 14  2  3
 14 15  1  0
 14 25  1  0
 15 16  2  0
 16 17  1  0
 17 18  2  0
 17 24  1  0
 18 19  1  0
 19 20  1  0
 19 22  2  0
 20 21  1  0
 22 23  1  0
 23 24  2  0
 24 25  1  0
 26 27  1  0
 27 28  1  6
 27 29  1  0
 29 30  1  0
 31 32  1  1
 31 33  1  0
M  END
