
     RDKit          3D

 28 31  0  0  0  0  0  0  0  0999 V2000
   -1.7810   -1.5340   -3.3440 C   0  0  0  0  0  0  0  0  0  0  0  0
   -1.6780   -0.8970   -2.0880 O   0  0  0  0  0  0  0  0  0  0  0  0
   -2.7530   -0.2220   -1.5870 C   0  0  0  0  0  0  0  0  0  0  0  0
   -3.9240   -0.1650   -2.2980 C   0  0  0  0  0  0  0  0  0  0  0  0
   -4.9910    0.5090   -1.7920 C   0  0  0  0  0  0  0  0  0  0  0  0
   -4.8950    1.1260   -0.5790 C   0  0  0  0  0  0  0  0  0  0  0  0
   -6.0710    1.8580   -0.0410 C   0  0  0  0  0  0  0  0  0  0  0  0
   -3.6950    1.0600    0.1350 C   0  0  0  0  0  0  0  0  0  0  0  0
   -2.6020    0.3950   -0.3350 C   0  0  0  0  0  0  0  0  0  0  0  0
   -1.3690    0.2970    0.3440 N   0  0  0  0  0  0  0  0  0  0  0  0
   -0.9900    0.8170    1.5740 C   0  0  0  0  0  0  0  0  0  0  0  0
   -1.8700    1.4930    2.2130 O   0  0  0  0  0  0  0  0  0  0  0  0
    0.2920    0.6680    2.1930 C   0  0  0  0  0  0  0  0  0  0  0  0
    1.3240   -0.0330    1.6130 C   0  0  0  0  0  0  0  0  0  0  0  0
    2.5740   -0.1950    2.1850 C   0  0  0  0  0  0  0  0  0  0  0  0
    3.6180   -0.9330    1.5310 C   0  0  0  0  0  0  0  0  0  0  0  0
    4.4250   -1.8710    2.0690 N   0  0  0  0  0  0  0  0  0  0  0  0
    5.2510   -2.3130    1.1700 O   0  0  0  0  0  0  0  0  0  0  0  0
    5.0610   -1.7260    0.0180 C   0  0  0  0  0  0  0  0  0  0  0  0
    5.6530   -1.8290   -1.2220 C   0  0  0  0  0  0  0  0  0  0  0  0
    5.2260   -1.0580   -2.2700 C   0  0  0  0  0  0  0  0  0  0  0  0
    4.2010   -0.1700   -2.1020 C   0  0  0  0  0  0  0  0  0  0  0  0
    3.6010   -0.0640   -0.8480 C   0  0  0  0  0  0  0  0  0  0  0  0
    4.0100   -0.8240    0.2170 C   0  0  0  0  0  0  0  0  0  0  0  0
    2.7990    0.3850    3.4170 C   0  0  0  0  0  0  0  0  0  0  0  0
    1.7680    1.0890    4.0020 C   0  0  0  0  0  0  0  0  0  0  0  0
    0.5710    1.2150    3.4000 N   0  0  0  0  0  0  0  0  0  0  0  0
   -0.4300    1.9090    3.9890 O   0  0  0  0  0  0  0  0  0  0  0  0
  1  2  1  0
  2  3  1  0
  3  4  2  0
  3  9  1  0
  4  5  1  0
  5  6  2  0
  6  7  1  0
  6  8  1  0
  8  9  2  0
  9 10  1  0
 10 11  1  0
 11 12  2  0
 11 13  1  0
 13 14  2  0
 13 27  1  0
 14 15  1  0
 15 16  1  0
 15 25  2  0
 16 17  2  0
 16 24  1  0
 17 18  1  0
 18 19  1  0
 19 20  2  0
 19 24  1  0
 20 21  1  0
 21 22  2  0
 22 23  1  0
 23 24  2  0
 25 26  1  0
 26 27  2  0
 27 28  1  0
M  CHG  2  27   1  28  -1
M  END
