
     RDKit          3D

 10 10  0  0  0  0  0  0  0  0999 V2000
    3.5580   -0.2480   -0.9770 C   0  0  0  0  0  0  0  0  0  0  0  0
    2.1590    0.0210   -0.8520 O   0  0  0  0  0  0  0  0  0  0  0  0
    1.3860   -0.4880    0.1690 C   0  0  0  0  0  0  0  0  0  0  0  0
    1.9350   -1.2120    1.0150 O   0  0  0  0  0  0  0  0  0  0  0  0
   -0.0320   -0.1520    0.2050 C   0  0  0  0  0  0  0  0  0  0  0  0
   -0.5770    0.6210   -0.7130 C   0  0  0  0  0  0  0  0  0  0  0  0
   -1.9400    0.9470   -0.6840 N   0  0  0  0  0  0  0  0  0  0  0  0
   -2.8650    0.4910    0.3160 C   0  0  0  0  0  0  0  0  0  0  0  0
   -2.1960   -0.3620    1.3030 C   0  0  0  0  0  0  0  0  0  0  0  0
   -0.9150   -0.6520    1.2530 C   0  0  0  0  0  0  0  0  0  0  0  0
  1  2  1  0
  2  3  1  0
  3  4  2  0
  3  5  1  0
  5  6  2  0
  5 10  1  0
  6  7  1  0
  7  8  1  0
  8  9  1  0
  9 10  2  0
M  END
