
     RDKit          3D

 10 10  0  0  0  0  0  0  0  0999 V2000
    2.4560   -1.7190   -0.3570 N   0  0  0  0  0  0  0  0  0  0  0  0
    1.5950   -1.2300   -0.9320 C   0  0  0  0  0  0  0  0  0  0  0  0
    0.4990   -0.6220   -1.6350 C   0  0  0  0  0  0  0  0  0  0  0  0
   -0.4580    0.1260   -0.7340 C   0  0  2  0  0  0  0  0  0  0  0  0
   -1.4870    0.6630   -1.5660 O   0  0  0  0  0  0  0  0  0  0  0  0
    0.2460    1.3170   -0.1740 C   0  0  0  0  0  0  0  0  0  0  0  0
    0.8350    1.0940    1.1700 C   0  0  0  0  0  0  0  0  0  0  0  0
   -0.0780    0.4890    1.9960 O   0  0  0  0  0  0  0  0  0  0  0  0
   -0.4510   -0.7700    1.5770 C   0  0  0  0  0  0  0  0  0  0  0  0
   -1.1510   -0.7540    0.2430 C   0  0  0  0  0  0  0  0  0  0  0  0
  1  2  3  0
  2  3  1  0
  3  4  1  0
  4  5  1  6
  4  6  1  0
  4 10  1  0
  6  7  1  0
  7  8  1  0
  8  9  1  0
  9 10  1  0
M  END
