
     RDKit          3D

 28 31  0  0  0  0  0  0  0  0999 V2000
   -3.7180   -3.7270   -0.2560 C   0  0  0  0  0  0  0  0  0  0  0  0
   -4.6300   -2.6600   -0.0970 O   0  0  0  0  0  0  0  0  0  0  0  0
   -4.2190   -1.3400   -0.0030 C   0  0  0  0  0  0  0  0  0  0  0  0
   -2.8520   -1.0220   -0.0650 C   0  0  0  0  0  0  0  0  0  0  0  0
   -2.3780    0.2670    0.0210 C   0  0  0  0  0  0  0  0  0  0  0  0
   -1.0040    0.5620   -0.0410 C   0  0  0  0  0  0  0  0  0  0  0  0
   -0.0600   -0.4880   -0.2480 N   0  0  0  0  0  0  0  0  0  0  0  0
    1.3250   -0.2890   -0.1630 C   0  0  0  0  0  0  0  0  0  0  0  0
    2.1150   -0.5640   -1.2570 C   0  0  0  0  0  0  0  0  0  0  0  0
    3.4750   -0.4150   -1.1170 C   0  0  0  0  0  0  0  0  0  0  0  0
    4.0340   -0.0040    0.0780 C   0  0  0  0  0  0  0  0  0  0  0  0
    5.4760    0.1370    0.1690 C   0  0  0  0  0  0  0  0  0  0  0  0
    6.1170    0.5220    1.2560 C   0  0  0  0  0  0  0  0  0  0  0  0
    7.5720    0.5540    0.9900 C   0  0  0  0  0  0  0  0  0  0  0  0
    7.6230    0.1220   -0.4270 C   0  0  0  0  0  0  0  0  0  0  0  0
    6.4150   -0.1200   -0.9040 C   0  0  0  0  0  0  0  0  0  0  0  0
    3.2180    0.2710    1.1780 C   0  0  0  0  0  0  0  0  0  0  0  0
    1.8590    0.1240    1.0460 C   0  0  0  0  0  0  0  0  0  0  0  0
   -0.6380    1.8460    0.0550 N   0  0  0  0  0  0  0  0  0  0  0  0
    0.7010    2.1610   -0.0410 O   0  0  0  0  0  0  0  0  0  0  0  0
   -1.5380    2.8180    0.2060 N   0  0  0  0  0  0  0  0  0  0  0  0
   -2.8490    2.5630    0.2680 C   0  0  0  0  0  0  0  0  0  0  0  0
   -3.6550    3.5210    0.4110 O   0  0  0  0  0  0  0  0  0  0  0  0
   -3.3320    1.2690    0.1770 C   0  0  0  0  0  0  0  0  0  0  0  0
   -4.6860    1.0130    0.2440 C   0  0  0  0  0  0  0  0  0  0  0  0
   -5.1070   -0.3020    0.1520 C   0  0  0  0  0  0  0  0  0  0  0  0
   -6.4610   -0.6250    0.2130 O   0  0  0  0  0  0  0  0  0  0  0  0
   -7.4570    0.3850    0.3720 C   0  0  0  0  0  0  0  0  0  0  0  0
  1  2  1  0
  2  3  1  0
  3  4  2  0
  3 26  1  0
  4  5  1  0
  5  6  1  0
  5 24  2  0
  6  7  1  0
  6 19  2  0
  7  8  1  0
  8  9  2  0
  8 18  1  0
  9 10  1  0
 10 11  2  0
 11 12  1  0
 11 17  1  0
 12 13  2  0
 12 16  1  0
 13 14  1  0
 14 15  1  0
 15 16  2  0
 17 18  2  0
 19 20  1  0
 19 21  1  0
 21 22  1  0
 22 23  2  0
 22 24  1  0
 24 25  1  0
 25 26  2  0
 26 27  1  0
 27 28  1  0
M  CHG  2  19   1  20  -1
M  END
