
     RDKit          3D

 28 31  0  0  0  0  0  0  0  0999 V2000
    1.0170    1.7650   -2.9010 O   0  0  0  0  0  0  0  0  0  0  0  0
    1.7100    2.6810   -2.4150 C   0  0  0  0  0  0  0  0  0  0  0  0
    2.3880    2.4510   -1.1390 C   0  0  0  0  0  0  0  0  0  0  0  0
    3.1480    3.3760   -0.5030 N   0  0  0  0  0  0  0  0  0  0  0  0
    3.6170    2.8820    0.6320 C   0  0  0  0  0  0  0  0  0  0  0  0
    3.1480    1.5790    0.7520 C   0  0  0  0  0  0  0  0  0  0  0  0
    2.3930    1.3320   -0.3470 C   0  0  0  0  0  0  0  0  0  0  0  0
    1.7260    0.0860   -0.5910 N   0  0  0  0  0  0  0  0  0  0  0  0
    1.7670   -1.0370    0.2500 C   0  0  0  0  0  0  0  0  0  0  0  0
    2.4310   -1.0050    1.2980 O   0  0  0  0  0  0  0  0  0  0  0  0
    1.0470   -2.2830   -0.0740 C   0  0  0  0  0  0  0  0  0  0  0  0
    1.7990   -3.4210   -0.3630 C   0  0  0  0  0  0  0  0  0  0  0  0
    1.1960   -4.5760   -0.7680 C   0  0  0  0  0  0  0  0  0  0  0  0
   -0.1770   -4.6710   -0.9090 C   0  0  0  0  0  0  0  0  0  0  0  0
   -0.9030   -3.5490   -0.6190 C   0  0  0  0  0  0  0  0  0  0  0  0
   -2.2710   -3.6510   -0.7250 C   0  0  0  0  0  0  0  0  0  0  0  0
   -3.0450   -2.5590   -0.4100 C   0  0  0  0  0  0  0  0  0  0  0  0
   -2.4590   -1.3710    0.0100 C   0  0  0  0  0  0  0  0  0  0  0  0
   -1.0790   -1.2590    0.1180 C   0  0  0  0  0  0  0  0  0  0  0  0
   -0.5030   -0.0770    0.5430 O   0  0  0  0  0  0  0  0  0  0  0  0
   -1.2900    0.9990    0.9040 C   0  0  0  0  0  0  0  0  0  0  0  0
   -1.6060    1.2780    2.2070 C   0  0  0  0  0  0  0  0  0  0  0  0
   -2.4040    2.3700    2.5400 C   0  0  0  0  0  0  0  0  0  0  0  0
   -2.8880    3.1840    1.6020 N   0  0  0  0  0  0  0  0  0  0  0  0
   -3.6800    4.2640    1.9620 O   0  0  0  0  0  0  0  0  0  0  0  0
   -2.6060    2.9550    0.3060 C   0  0  0  0  0  0  0  0  0  0  0  0
   -1.8210    1.8830   -0.0440 C   0  0  0  0  0  0  0  0  0  0  0  0
   -0.3110   -2.3510   -0.2010 C   0  0  0  0  0  0  0  0  0  0  0  0
  1  2  2  0
  2  3  1  0
  3  4  1  0
  3  7  2  0
  4  5  1  0
  5  6  2  0
  6  7  1  0
  7  8  1  0
  8  9  1  0
  9 10  2  0
  9 11  1  0
 11 12  2  0
 11 28  1  0
 12 13  1  0
 13 14  2  0
 14 15  1  0
 15 16  2  0
 15 28  1  0
 16 17  1  0
 17 18  2  0
 18 19  1  0
 19 20  1  0
 19 28  2  0
 20 21  1  0
 21 22  2  0
 21 27  1  0
 22 23  1  0
 23 24  2  0
 24 25  1  0
 24 26  1  0
 26 27  2  0
M  CHG  2  24   1  25  -1
M  END
