
     RDKit          3D

  9  8  0  0  0  0  0  0  0  0999 V2000
   -4.0410   -0.4030    0.8250 O   0  0  0  0  0  0  0  0  0  0  0  0
   -3.2810    0.9270    0.0460 P   0  0  0  0  0  0  0  0  0  0  0  0
   -1.7840    0.4790   -0.8100 N   0  0  0  0  0  0  0  0  0  0  0  0
   -0.6700    0.8870   -0.1980 O   0  0  0  0  0  0  0  0  0  0  0  0
   -0.0350   -0.1480    0.3340 O   0  0  0  0  0  0  0  0  0  0  0  0
    1.1390    0.2210    0.7970 O   0  0  0  0  0  0  0  0  0  0  0  0
    2.3570   -0.2210   -0.3720 P   0  0  0  0  0  0  0  0  0  0  0  0
    2.9350   -1.8030    0.0720 O   0  0  0  0  0  0  0  0  0  0  0  0
    3.6590    0.9260   -0.1850 O   0  0  0  0  0  0  0  0  0  0  0  0
  1  2  1  0
  2  3  1  0
  3  4  1  0
  4  5  1  0
  5  6  1  0
  6  7  1  0
  7  8  1  0
  7  9  1  0
M  END
