
     RDKit          3D

 24 24  0  0  0  0  0  0  0  0999 V2000
   -0.4130    1.7960   -2.4840 O   0  0  0  0  0  0  0  0  0  0  0  0
   -0.0490    0.8140   -1.6200 C   0  0  1  0  0  0  0  0  0  0  0  0
    1.3710    1.0000   -1.1320 C   0  0  1  0  0  0  0  0  0  0  0  0
    1.3940    2.1850   -0.3960 O   0  0  0  0  0  0  0  0  0  0  0  0
    1.8250   -0.1150   -0.2400 C   0  0  1  0  0  0  0  0  0  0  0  0
    2.9000    0.3110    0.4860 O   0  0  0  0  0  0  0  0  0  0  0  0
    4.3340   -0.4140    0.2250 P   0  0  0  0  0  0  0  0  0  0  0  0
    4.4590   -2.0270   -0.1820 O   0  0  0  0  0  0  0  0  0  0  0  0
    4.5510   -0.7320    1.7000 O   0  0  0  0  0  0  0  0  0  0  0  0
    5.7280    0.4810    0.1670 O   0  0  0  0  0  0  0  0  0  0  0  0
    0.7990   -0.6330    0.6970 C   0  0  2  0  0  0  0  0  0  0  0  0
    1.1570   -1.9110    1.1250 O   0  0  0  0  0  0  0  0  0  0  0  0
   -0.6010   -0.6640    0.1860 C   0  0  1  0  0  0  0  0  0  0  0  0
   -1.4460   -1.0430    1.1890 O   0  0  0  0  0  0  0  0  0  0  0  0
   -2.2010   -2.4420    0.7380 P   0  0  0  0  0  0  0  0  0  0  0  0
   -2.7010   -3.4840    1.9640 O   0  0  0  0  0  0  0  0  0  0  0  0
   -2.2640   -2.9290   -0.8060 O   0  0  0  0  0  0  0  0  0  0  0  0
   -3.5610   -1.7490    0.8030 O   0  0  0  0  0  0  0  0  0  0  0  0
   -0.9130    0.7030   -0.3920 C   0  0  2  0  0  0  0  0  0  0  0  0
   -2.2370    0.9200   -0.6170 O   0  0  0  0  0  0  0  0  0  0  0  0
   -2.7940    2.1650    0.2700 P   0  0  0  0  0  0  0  0  0  0  0  0
   -1.7630    3.1590   -0.2400 O   0  0  0  0  0  0  0  0  0  0  0  0
   -2.2980    2.3570    1.8400 O   0  0  0  0  0  0  0  0  0  0  0  0
   -4.0380    3.1210   -0.3100 O   0  0  0  0  0  0  0  0  0  0  0  0
  2  1  1  6
  2  3  1  0
  2 19  1  0
  3  4  1  1
  3  5  1  0
  5  6  1  1
  5 11  1  0
  6  7  1  0
  7  8  1  0
  7  9  1  0
  7 10  1  0
 11 12  1  6
 11 13  1  0
 13 14  1  1
 13 19  1  0
 14 15  1  0
 15 16  1  0
 15 17  1  0
 15 18  1  0
 19 20  1  6
 20 21  1  0
 21 22  1  0
 21 23  1  0
 21 24  1  0
M  END
