
     RDKit          3D

  9  8  0  0  0  0  0  0  0  0999 V2000
    3.1390    0.2990    0.2590 N   0  0  0  0  0  0  0  0  0  0  0  0
    2.8400   -0.9760    0.4630 O   0  0  0  0  0  0  0  0  0  0  0  0
    2.0410   -1.4980   -0.4350 O   0  0  0  0  0  0  0  0  0  0  0  0
    0.4130   -1.4810    0.1620 P   0  0  0  0  0  0  0  0  0  0  0  0
    0.3900   -1.0890    1.8580 O   0  0  0  0  0  0  0  0  0  0  0  0
   -0.4620   -0.2820   -0.7630 O   0  0  0  0  0  0  0  0  0  0  0  0
   -1.2380    0.4360   -0.0020 O   0  0  0  0  0  0  0  0  0  0  0  0
   -2.8700    0.5020   -0.5700 P   0  0  0  0  0  0  0  0  0  0  0  0
   -3.6840    1.8610    0.1690 O   0  0  0  0  0  0  0  0  0  0  0  0
  1  2  1  0
  2  3  1  0
  3  4  1  0
  4  5  1  0
  4  6  1  0
  6  7  1  0
  7  8  1  0
  8  9  1  0
M  END
