
     RDKit          3D

 16 16  0  0  0  0  0  0  0  0999 V2000
    3.8830   -2.3220    0.1700 O   0  0  0  0  0  0  0  0  0  0  0  0
    3.7770   -0.7950    0.1620 P   0  0  2  0  0  0  0  0  0  0  0  0
    5.1150   -0.2390   -0.7140 O   0  0  0  0  0  0  0  0  0  0  0  0
    3.8610   -0.1720    1.7170 O   0  0  0  0  0  0  0  0  0  0  0  0
    2.3740   -0.3300   -0.6470 O   0  0  0  0  0  0  0  0  0  0  0  0
    1.5260    0.4230    0.1460 C   0  0  0  0  0  0  0  0  0  0  0  0
    0.3160    0.7860   -0.6540 C   0  0  1  0  0  0  0  0  0  0  0  0
   -0.3120   -0.3710   -1.0560 O   0  0  0  0  0  0  0  0  0  0  0  0
   -1.3910   -0.5970   -0.2210 C   0  0  2  0  0  0  0  0  0  0  0  0
   -1.0350   -1.5830    0.7080 O   0  0  0  0  0  0  0  0  0  0  0  0
   -2.5040   -1.1720   -1.1110 C   0  0  0  0  0  0  0  0  0  0  0  0
   -3.6330   -1.4290   -0.3450 O   0  0  0  0  0  0  0  0  0  0  0  0
   -1.7850    0.6830    0.4110 C   0  0  1  0  0  0  0  0  0  0  0  0
   -1.8730    0.5830    1.7820 O   0  0  0  0  0  0  0  0  0  0  0  0
   -0.6680    1.6420    0.0660 C   0  0  2  0  0  0  0  0  0  0  0  0
   -1.2070    2.6250   -0.7660 O   0  0  0  0  0  0  0  0  0  0  0  0
  1  2  2  0
  2  3  1  6
  2  4  1  0
  2  5  1  0
  5  6  1  0
  7  6  1  1
  7  8  1  0
  7 15  1  0
  8  9  1  0
  9 10  1  1
  9 11  1  0
  9 13  1  0
 11 12  1  0
 13 14  1  1
 13 15  1  0
 15 16  1  6
M  END
