
     RDKit          3D

 27 29  0  0  0  0  0  0  0  0999 V2000
   -1.7370    1.0400   -1.4840 C   0  0  0  0  0  0  0  0  0  0  0  0
   -2.3440    0.2510   -0.3500 C   0  0  1  0  0  0  0  0  0  0  0  0
   -3.7200    0.1260   -0.4720 O   0  0  0  0  0  0  0  0  0  0  0  0
   -1.6610   -1.0580   -0.3050 C   0  0  0  0  0  0  0  0  0  0  0  0
   -2.0410   -1.9820   -1.1260 O   0  0  0  0  0  0  0  0  0  0  0  0
   -0.6220   -1.2130    0.6500 C   0  0  0  0  0  0  0  0  0  0  0  0
    0.0240   -2.3270    1.0400 C   0  0  0  0  0  0  0  0  0  0  0  0
   -0.3920   -3.9520    0.3180 P   0  0  0  0  0  0  0  0  0  0  0  0
   -1.8570   -4.6080    0.9280 O   0  0  0  0  0  0  0  0  0  0  0  0
   -0.3050   -3.9390   -1.3910 O   0  0  0  0  0  0  0  0  0  0  0  0
    1.0240   -2.1690    2.0310 N   0  0  0  0  0  0  0  0  0  0  0  0
    0.9860   -1.1320    2.9140 N   0  0  0  0  0  0  0  0  0  0  0  0
    0.0910   -0.1850    2.6770 O   0  0  0  0  0  0  0  0  0  0  0  0
   -0.2010    0.0100    1.3320 C   0  0  1  0  0  0  0  0  0  0  0  0
    0.6730    0.8250    0.6360 N   0  0  0  0  0  0  0  0  0  0  0  0
    1.9630    0.4600    0.2490 C   0  0  1  0  0  0  0  0  0  0  0  0
    2.0090   -0.6520   -0.7310 C   0  0  0  0  0  0  0  0  0  0  0  0
    2.9470   -0.1830   -1.7900 C   0  0  0  0  0  0  0  0  0  0  0  0
    3.2740    1.0570   -1.5510 C   0  0  0  0  0  0  0  0  0  0  0  0
    4.1470    1.8240   -2.3480 O   0  0  0  0  0  0  0  0  0  0  0  0
    5.1960    2.4700   -1.8400 O   0  0  0  0  0  0  0  0  0  0  0  0
    2.6590    1.5270   -0.4200 O   0  0  0  0  0  0  0  0  0  0  0  0
   -1.8820    0.9160    1.3180 P   0  0  0  0  0  0  0  0  0  0  0  0
   -1.6190    3.0470    1.4050 P   0  0  0  0  0  0  0  0  0  0  0  0
   -0.9470    3.7810    0.0190 O   0  0  0  0  0  0  0  0  0  0  0  0
   -3.1280    3.7960    1.8150 O   0  0  0  0  0  0  0  0  0  0  0  0
   -3.9890    3.4610    0.8650 O   0  0  0  0  0  0  0  0  0  0  0  0
  2  1  1  6
  2  3  1  0
  2  4  1  0
  2 23  1  0
  4  5  2  0
  4  6  1  0
  6  7  2  0
  6 14  1  0
  7  8  1  0
  7 11  1  0
  8  9  1  0
  8 10  1  0
 11 12  1  0
 12 13  1  0
 13 14  1  0
 14 15  1  6
 14 23  1  0
 16 15  1  6
 16 17  1  0
 16 22  1  0
 17 18  1  0
 18 19  2  0
 19 20  1  0
 19 22  1  0
 20 21  1  0
 23 24  1  0
 24 25  1  0
 24 26  1  0
 26 27  1  0
M  END
