
     RDKit          3D

 28 30  0  0  0  0  0  0  0  0999 V2000
   -4.3430    0.4130    0.8920 C   0  0  0  0  0  0  0  0  0  0  0  0
   -2.9300    0.1170    0.9980 N   0  0  0  0  0  0  0  0  0  0  0  0
   -2.3660    0.0070   -0.3090 C   0  0  1  0  0  0  0  0  0  0  0  0
   -3.1520   -0.9830   -0.9920 O   0  0  0  0  0  0  0  0  0  0  0  0
   -2.7560   -2.1620   -0.3640 C   0  0  0  0  0  0  0  0  0  0  0  0
   -3.4440   -3.1940   -0.0750 O   0  0  0  0  0  0  0  0  0  0  0  0
   -1.3420   -1.9750   -0.0930 C   0  0  2  0  0  0  0  0  0  0  0  0
   -0.4710   -2.9110   -0.8980 C   0  0  0  0  0  0  0  0  0  0  0  0
    0.7430   -3.1480   -0.0840 N   0  0  0  0  0  0  0  0  0  0  0  0
    1.1030   -1.8160    0.3820 C   0  0  2  0  0  0  0  0  0  0  0  0
    2.5340   -1.6680    0.8240 C   0  0  0  0  0  0  0  0  0  0  0  0
    2.8350   -0.1630    0.6700 C   0  0  1  0  0  0  0  0  0  0  0  0
    3.6380    0.2810    1.7040 O   0  0  0  0  0  0  0  0  0  0  0  0
    4.7840   -0.3340    1.7560 O   0  0  0  0  0  0  0  0  0  0  0  0
    3.6430    0.1290   -0.9990 P   0  0  0  0  0  0  0  0  0  0  0  0
    5.0650    1.1080   -0.8140 O   0  0  0  0  0  0  0  0  0  0  0  0
    3.9520   -1.3470   -1.8140 O   0  0  0  0  0  0  0  0  0  0  0  0
    1.2580    0.8200    0.6740 P   0  0  0  0  0  0  0  0  0  0  0  0
    1.6370    2.4060    1.3130 O   0  0  0  0  0  0  0  0  0  0  0  0
    2.2560    3.0520    0.3250 O   0  0  0  0  0  0  0  0  0  0  0  0
    0.5800    1.0620   -0.9690 N   0  0  0  0  0  0  0  0  0  0  0  0
   -0.3530    2.1320   -0.9920 C   0  0  0  0  0  0  0  0  0  0  0  0
   -2.1360    1.5690   -1.2230 P   0  0  0  0  0  0  0  0  0  0  0  0
   -3.1790    2.9130   -0.4810 C   0  0  0  0  0  0  0  0  0  0  0  0
   -2.6880    3.1510    0.8240 O   0  0  0  0  0  0  0  0  0  0  0  0
    0.1890   -1.4650    1.3320 O   0  0  0  0  0  0  0  0  0  0  0  0
   -0.9500   -2.1690    1.2480 O   0  0  0  0  0  0  0  0  0  0  0  0
   -1.1360   -0.6330   -0.3240 O   0  0  0  0  0  0  0  0  0  0  0  0
  1  2  1  0
  3  2  1  1
  3  4  1  0
  3 23  1  0
  3 28  1  0
  4  5  1  0
  5  6  2  0
  5  7  1  0
  7  8  1  0
  7 27  1  1
  7 28  1  0
  8  9  1  0
  9 10  1  0
 10 11  1  1
 10 26  1  0
 11 12  1  0
 12 13  1  1
 12 15  1  0
 12 18  1  0
 13 14  1  0
 15 16  1  0
 15 17  1  0
 18 19  1  0
 18 21  1  0
 19 20  1  0
 21 22  1  0
 22 23  1  0
 23 24  1  0
 24 25  1  0
 26 27  1  0
M  END
