
     RDKit          3D

 22 22  0  0  0  0  0  0  0  0999 V2000
   -1.4640   -3.8030    1.0890 C   0  0  0  0  0  0  0  0  0  0  0  0
   -2.6220   -2.8790    1.1490 C   0  0  0  0  0  0  0  0  0  0  0  0
   -2.5400   -1.5610    1.0480 C   0  0  0  0  0  0  0  0  0  0  0  0
   -3.8070   -0.8330    1.1330 C   0  0  0  0  0  0  0  0  0  0  0  0
   -4.1550    0.2930    0.6120 C   0  0  0  0  0  0  0  0  0  0  0  0
   -3.4210    1.2370   -0.2410 C   0  0  0  0  0  0  0  0  0  0  0  0
   -2.9200    2.3770    0.5450 C   0  0  0  0  0  0  0  0  0  0  0  0
   -1.7520    2.9800    0.4000 C   0  0  0  0  0  0  0  0  0  0  0  0
   -1.3720    4.1380    1.2770 C   0  0  0  0  0  0  0  0  0  0  0  0
   -1.0710    5.5950    0.2890 Cl  0  0  0  0  0  0  0  0  0  0  0  0
   -0.7190    2.5930   -0.6090 C   0  0  0  0  0  0  0  0  0  0  0  0
    0.4320    2.1090    0.0690 O   0  0  0  0  0  0  0  0  0  0  0  0
    0.7210    0.7970    0.3270 C   0  0  0  0  0  0  0  0  0  0  0  0
    1.0920    0.4800    1.4920 O   0  0  0  0  0  0  0  0  0  0  0  0
    0.6350   -0.2990   -0.6640 C   0  0  1  0  0  0  0  0  0  0  0  0
    1.9280   -1.1030   -0.7010 C   0  0  0  0  0  0  0  0  0  0  0  0
    3.0860   -0.1840   -1.0850 C   0  0  0  0  0  0  0  0  0  0  0  0
    4.3640   -0.9760   -1.1190 C   0  0  0  0  0  0  0  0  0  0  0  0
    5.5000   -0.0700   -1.4970 C   0  0  0  0  0  0  0  0  0  0  0  0
    6.7160   -0.7390   -1.5460 O   0  0  0  0  0  0  0  0  0  0  0  0
   -0.5250   -1.2390   -0.4310 C   0  0  0  0  0  0  0  0  0  0  0  0
   -1.2100   -0.9800    0.8750 C   0  0  0  0  0  0  0  0  0  0  0  0
  1  2  1  0
  2  3  2  3
  3  4  1  0
  3 22  1  0
  4  5  2  0
  5  6  1  0
  6  7  1  0
  7  8  2  0
  8  9  1  0
  8 11  1  0
  9 10  1  0
 11 12  1  0
 12 13  1  0
 13 14  2  0
 13 15  1  0
 15 16  1  1
 15 21  1  0
 16 17  1  0
 17 18  1  0
 18 19  1  0
 19 20  1  0
 21 22  1  0
M  END
