
     RDKit          3D

 16 18  0  0  0  0  0  0  0  0999 V2000
    2.7860   -1.0370    0.6940 C   0  0  0  0  0  0  0  0  0  0  0  0
    2.4230   -0.3000   -0.5770 C   0  0  0  0  0  0  0  0  0  0  0  0
    1.5320    0.8600   -0.3700 C   0  0  0  0  0  0  0  0  0  0  0  0
    1.9930    2.1620   -0.3250 N   0  0  0  0  0  0  0  0  0  0  0  0
    1.0160    2.9950   -0.1080 N   0  0  0  0  0  0  0  0  0  0  0  0
   -0.1420    2.3300    0.0050 C   0  0  0  0  0  0  0  0  0  0  0  0
   -1.3730    2.6550    0.2160 O   0  0  0  0  0  0  0  0  0  0  0  0
   -2.3770    1.8420    0.2920 C   0  0  0  0  0  0  0  0  0  0  0  0
   -3.5650    2.1570    0.4970 O   0  0  0  0  0  0  0  0  0  0  0  0
   -2.1080    0.4840    0.1320 C   0  0  0  0  0  0  0  0  0  0  0  0
   -3.1410   -0.4310    0.1970 C   0  0  0  0  0  0  0  0  0  0  0  0
   -2.8570   -1.7700    0.0290 C   0  0  0  0  0  0  0  0  0  0  0  0
   -1.5810   -2.2060   -0.1990 C   0  0  0  0  0  0  0  0  0  0  0  0
   -0.5140   -1.2920   -0.2690 C   0  0  0  0  0  0  0  0  0  0  0  0
   -0.8170    0.0300   -0.0990 C   0  0  0  0  0  0  0  0  0  0  0  0
    0.1840    0.9790   -0.1620 C   0  0  0  0  0  0  0  0  0  0  0  0
  1  2  1  0
  2  3  1  0
  3  4  1  0
  3 16  2  0
  4  5  1  0
  5  6  2  0
  6  7  1  0
  6 16  1  0
  7  8  1  0
  8  9  2  0
  8 10  1  0
 10 11  2  0
 10 15  1  0
 11 12  1  0
 12 13  2  0
 13 14  1  0
 14 15  2  0
 15 16  1  0
M  END
