
     RDKit          3D

 22 22  0  0  0  0  0  0  0  0999 V2000
    6.8740    0.7540   -0.1090 C   0  0  0  0  0  0  0  0  0  0  0  0
    6.2430   -0.4030   -0.1310 C   0  0  0  0  0  0  0  0  0  0  0  0
    4.8710   -0.5760   -0.6680 C   0  0  0  0  0  0  0  0  0  0  0  0
    3.9310   -1.0940    0.4040 C   0  0  0  0  0  0  0  0  0  0  0  0
    3.8350   -0.1590    1.5670 C   0  0  0  0  0  0  0  0  0  0  0  0
    3.3260    1.1680    1.1220 C   0  0  0  0  0  0  0  0  0  0  0  0
    1.9990    1.1770    0.5160 C   0  0  0  0  0  0  0  0  0  0  0  0
    1.5690    2.2970    0.0940 O   0  0  0  0  0  0  0  0  0  0  0  0
    1.1520    0.0940    0.3490 O   0  0  0  0  0  0  0  0  0  0  0  0
   -0.1150    0.1930   -0.2460 C   0  0  0  0  0  0  0  0  0  0  0  0
   -0.3310    0.0470   -1.5340 C   0  0  0  0  0  0  0  0  0  0  0  0
   -1.8080    0.2240   -1.7680 C   0  0  1  0  0  0  0  0  0  0  0  0
   -2.2110   -0.9830   -2.3450 O   0  0  0  0  0  0  0  0  0  0  0  0
   -2.3950    0.4930   -0.4540 C   0  0  0  0  0  0  0  0  0  0  0  0
   -3.7930    0.7690   -0.0380 C   0  0  0  0  0  0  0  0  0  0  0  0
   -4.7270   -0.2860   -0.4040 C   0  0  0  0  0  0  0  0  0  0  0  0
   -5.0490   -0.5480   -1.8300 C   0  0  0  0  0  0  0  0  0  0  0  0
   -5.3460   -1.0170    0.4930 C   0  0  0  0  0  0  0  0  0  0  0  0
   -5.1070   -0.7830    1.9360 C   0  0  0  0  0  0  0  0  0  0  0  0
   -6.4760   -2.2960    0.0620 Cl  0  0  0  0  0  0  0  0  0  0  0  0
   -1.3730    0.4670    0.4200 C   0  0  0  0  0  0  0  0  0  0  0  0
   -1.4630    0.6880    1.8760 C   0  0  0  0  0  0  0  0  0  0  0  0
  1  2  2  0
  2  3  1  0
  3  4  1  0
  4  5  1  0
  5  6  1  0
  6  7  1  0
  7  8  2  0
  7  9  1  0
  9 10  1  0
 10 11  2  0
 10 21  1  0
 11 12  1  0
 12 13  1  1
 12 14  1  0
 14 15  1  0
 14 21  2  0
 15 16  1  0
 16 17  1  0
 16 18  2  3
 18 19  1  0
 18 20  1  0
 21 22  1  0
M  END
