
     RDKit          3D

 22 22  0  0  0  0  0  0  0  0999 V2000
    0.4090   -2.3380   -1.7390 C   0  0  0  0  0  0  0  0  0  0  0  0
    1.3190   -2.5840   -0.8590 C   0  0  0  0  0  0  0  0  0  0  0  0
    1.6930   -4.3300   -0.6380 Cl  0  0  0  0  0  0  0  0  0  0  0  0
    1.9700   -1.6460   -0.0340 C   0  0  0  0  0  0  0  0  0  0  0  0
    2.9340   -2.2120    0.7370 C   0  0  0  0  0  0  0  0  0  0  0  0
    3.8880   -1.6970    1.7410 C   0  0  0  0  0  0  0  0  0  0  0  0
    4.8200   -0.7860    1.1530 O   0  0  0  0  0  0  0  0  0  0  0  0
    4.7190    0.4090    0.5030 C   0  0  0  0  0  0  0  0  0  0  0  0
    3.7070    1.1180   -0.0170 C   0  0  0  0  0  0  0  0  0  0  0  0
    4.1200    2.3950   -0.6370 C   0  0  0  0  0  0  0  0  0  0  0  0
    2.2500    0.8410   -0.0720 C   0  0  0  0  0  0  0  0  0  0  0  0
    1.4900    2.0800   -0.1500 C   0  0  0  0  0  0  0  0  0  0  0  0
    1.4620   -0.2490   -0.0800 C   0  0  0  0  0  0  0  0  0  0  0  0
    0.1730   -0.0870   -0.1180 O   0  0  0  0  0  0  0  0  0  0  0  0
   -0.9680    0.4780   -0.4760 C   0  0  0  0  0  0  0  0  0  0  0  0
   -2.2680   -0.1110    0.1120 C   0  0  2  0  0  0  0  0  0  0  0  0
   -2.1820    0.0240    1.6410 C   0  0  0  0  0  0  0  0  0  0  0  0
   -2.4930   -1.5370   -0.2240 C   0  0  0  0  0  0  0  0  0  0  0  0
   -3.7160   -1.9510    0.3630 O   0  0  0  0  0  0  0  0  0  0  0  0
   -3.4410    0.6890   -0.3580 C   0  0  1  0  0  0  0  0  0  0  0  0
   -4.7660    0.2340    0.1390 C   0  0  0  0  0  0  0  0  0  0  0  0
   -3.2920    2.1740   -0.1320 C   0  0  0  0  0  0  0  0  0  0  0  0
  1  2  2  0
  2  3  1  0
  2  4  1  0
  4  5  2  0
  4 13  1  0
  5  6  1  0
  6  7  1  0
  7  8  1  0
  8  9  2  0
  9 10  1  0
  9 11  1  0
 11 12  1  0
 11 13  2  0
 13 14  1  0
 14 15  1  0
 15 16  1  0
 16 17  1  1
 16 18  1  0
 16 20  1  0
 18 19  1  0
 20 21  1  1
 20 22  1  0
M  END
