
     RDKit          3D

 22 22  0  0  0  0  0  0  0  0999 V2000
    5.9810   -0.5940   -1.2500 C   0  0  0  0  0  0  0  0  0  0  0  0
    4.9490   -0.0530   -0.6750 C   0  0  0  0  0  0  0  0  0  0  0  0
    3.5520   -0.5510   -0.8270 C   0  0  0  0  0  0  0  0  0  0  0  0
    2.8920   -0.7420    0.5280 C   0  0  2  0  0  0  0  0  0  0  0  0
    1.4340   -0.9170    0.4100 C   0  0  0  0  0  0  0  0  0  0  0  0
    0.9110   -1.9750    0.8410 O   0  0  0  0  0  0  0  0  0  0  0  0
    0.5560    0.0820   -0.1860 C   0  0  0  0  0  0  0  0  0  0  0  0
   -0.7410   -0.0230   -0.3140 C   0  0  0  0  0  0  0  0  0  0  0  0
   -1.5230   -1.1790    0.1310 C   0  0  1  0  0  0  0  0  0  0  0  0
   -1.5020   -1.2560    1.5440 O   0  0  0  0  0  0  0  0  0  0  0  0
   -2.9890   -1.0700   -0.2270 C   0  0  1  0  0  0  0  0  0  0  0  0
   -3.2570   -0.9540   -1.6870 C   0  0  0  0  0  0  0  0  0  0  0  0
   -3.6160   -2.3950    0.2320 C   0  0  0  0  0  0  0  0  0  0  0  0
   -3.5890    0.0920    0.5060 C   0  0  0  0  0  0  0  0  0  0  0  0
   -5.0420    0.2780    0.2140 C   0  0  0  0  0  0  0  0  0  0  0  0
   -5.5560    1.3500    0.9140 O   0  0  0  0  0  0  0  0  0  0  0  0
   -4.9790    2.5630    0.6520 C   0  0  0  0  0  0  0  0  0  0  0  0
    3.2660    0.3140    1.5030 C   0  0  0  0  0  0  0  0  0  0  0  0
    3.8130    1.5560    0.8340 C   0  0  0  0  0  0  0  0  0  0  0  0
    5.1070    1.1250    0.1910 C   0  0  0  0  0  0  0  0  0  0  0  0
    6.2390    1.7250    0.3770 C   0  0  0  0  0  0  0  0  0  0  0  0
    6.2480    3.1270    1.4510 Cl  0  0  0  0  0  0  0  0  0  0  0  0
  1  2  2  0
  2  3  1  0
  2 20  1  0
  3  4  1  0
  4  5  1  6
  4 18  1  0
  5  6  2  0
  5  7  1  0
  7  8  2  3
  8  9  1  0
  9 10  1  1
  9 11  1  0
 11 12  1  6
 11 13  1  0
 11 14  1  0
 14 15  1  0
 15 16  1  0
 16 17  1  0
 18 19  1  0
 19 20  1  0
 20 21  2  3
 21 22  1  0
M  END
