
     RDKit          3D

 22 22  0  0  0  0  0  0  0  0999 V2000
    1.1400    1.1630   -1.8370 C   0  0  0  0  0  0  0  0  0  0  0  0
    1.9320    0.3160   -0.9800 C   0  0  0  0  0  0  0  0  0  0  0  0
    3.3100    0.3540   -1.5900 C   0  0  0  0  0  0  0  0  0  0  0  0
    4.0080   -0.6020   -0.4800 C   0  0  0  0  0  0  0  0  0  0  0  0
    3.2970   -1.2400    0.7540 Cl  0  0  0  0  0  0  0  0  0  0  0  0
    5.3890   -0.7170   -0.9880 C   0  0  0  0  0  0  0  0  0  0  0  0
    6.1650   -1.5400   -0.1770 C   0  0  0  0  0  0  0  0  0  0  0  0
    5.7810   -2.1500    0.9070 C   0  0  0  0  0  0  0  0  0  0  0  0
    5.3850   -2.8010    2.0310 O   0  0  0  0  0  0  0  0  0  0  0  0
    1.1860   -0.3070    0.0000 C   0  0  0  0  0  0  0  0  0  0  0  0
    0.7780    0.6560    1.1230 C   0  0  0  0  0  0  0  0  0  0  0  0
   -0.0990   -0.0410    2.1140 C   0  0  0  0  0  0  0  0  0  0  0  0
   -1.2340   -0.5320    1.4430 O   0  0  0  0  0  0  0  0  0  0  0  0
   -2.0970    0.2610    0.7270 C   0  0  0  0  0  0  0  0  0  0  0  0
   -2.7000   -0.3200   -0.3220 C   0  0  0  0  0  0  0  0  0  0  0  0
   -3.6510    0.3900   -1.1920 C   0  0  1  0  0  0  0  0  0  0  0  0
   -4.9680   -0.3990   -1.2800 C   0  0  0  0  0  0  0  0  0  0  0  0
   -5.5940   -0.5660    0.0750 C   0  0  0  0  0  0  0  0  0  0  0  0
   -3.8750    1.8140   -0.9010 C   0  0  2  0  0  0  0  0  0  0  0  0
   -3.3150    2.5680   -2.0020 O   0  0  0  0  0  0  0  0  0  0  0  0
   -3.1830    2.3270    0.2670 C   0  0  0  0  0  0  0  0  0  0  0  0
   -2.3630    1.6540    1.0370 C   0  0  0  0  0  0  0  0  0  0  0  0
  1  2  2  0
  2  3  1  0
  2 10  1  0
  3  4  2  3
  4  5  1  0
  4  6  1  0
  6  7  2  3
  7  8  1  0
  8  9  1  0
 10 11  1  0
 11 12  1  0
 12 13  1  0
 13 14  1  0
 14 15  2  0
 14 22  1  0
 15 16  1  0
 16 17  1  1
 16 19  1  0
 17 18  1  0
 19 20  1  6
 19 21  1  0
 21 22  2  0
M  END
