
     RDKit          3D

 22 22  0  0  0  0  0  0  0  0999 V2000
    6.9010    0.5160    0.6860 C   0  0  0  0  0  0  0  0  0  0  0  0
    5.8610    1.5330    0.9270 C   0  0  0  0  0  0  0  0  0  0  0  0
    4.4710    1.2740    0.7150 C   0  0  0  0  0  0  0  0  0  0  0  0
    3.7360    0.2760    0.3310 C   0  0  0  0  0  0  0  0  0  0  0  0
    4.2230   -1.0620   -0.0450 C   0  0  0  0  0  0  0  0  0  0  0  0
    2.2630    0.4350    0.2410 C   0  0  0  0  0  0  0  0  0  0  0  0
    1.4860   -0.5650   -0.1500 C   0  0  0  0  0  0  0  0  0  0  0  0
    0.0350   -0.3800   -0.2290 C   0  0  0  0  0  0  0  0  0  0  0  0
   -0.7880   -1.3160   -0.6040 C   0  0  0  0  0  0  0  0  0  0  0  0
   -0.3440   -2.6660   -0.9900 C   0  0  0  0  0  0  0  0  0  0  0  0
    0.8590   -2.9830   -0.9760 O   0  0  0  0  0  0  0  0  0  0  0  0
   -1.3290   -3.6650   -1.4000 C   0  0  0  0  0  0  0  0  0  0  0  0
   -2.6010   -3.3370   -1.4170 C   0  0  0  0  0  0  0  0  0  0  0  0
   -3.0640   -2.0150   -1.0420 C   0  0  0  0  0  0  0  0  0  0  0  0
   -4.7830   -1.6500   -1.0890 Cl  0  0  0  0  0  0  0  0  0  0  0  0
   -2.2150   -1.0270   -0.6480 C   0  0  0  0  0  0  0  0  0  0  0  0
   -2.7900    0.2380   -0.3010 C   0  0  0  0  0  0  0  0  0  0  0  0
   -2.1630    1.2260    0.0720 O   0  0  0  0  0  0  0  0  0  0  0  0
   -4.1880    0.4570   -0.3650 O   0  0  0  0  0  0  0  0  0  0  0  0
   -4.7900    1.6690   -0.0370 C   0  0  2  0  0  0  0  0  0  0  0  0
   -5.6960    1.4840    1.1660 C   0  0  0  0  0  0  0  0  0  0  0  0
   -5.5990    2.2730   -1.1410 C   0  0  0  0  0  0  0  0  0  0  0  0
  1  2  1  0
  2  3  1  0
  3  4  2  3
  4  5  1  0
  4  6  1  0
  6  7  2  3
  7  8  1  0
  8  9  2  3
  9 10  1  0
  9 16  1  0
 10 11  2  0
 10 12  1  0
 12 13  2  0
 13 14  1  0
 14 15  1  0
 14 16  2  0
 16 17  1  0
 17 18  2  0
 17 19  1  0
 19 20  1  0
 20 21  1  1
 20 22  1  0
M  END
