
     RDKit          3D

  9  9  0  0  0  0  0  0  0  0999 V2000
   -1.0750   -2.3290   -0.1280 C   0  0  0  0  0  0  0  0  0  0  0  0
   -0.0190   -1.5790   -0.2750 C   0  0  0  0  0  0  0  0  0  0  0  0
    0.0900   -0.1510   -0.0600 C   0  0  0  0  0  0  0  0  0  0  0  0
   -0.9160    0.7720    0.0740 C   0  0  0  0  0  0  0  0  0  0  0  0
   -2.3920    0.5710    0.0040 C   0  0  0  0  0  0  0  0  0  0  0  0
   -0.2750    1.9980    0.2840 C   0  0  0  0  0  0  0  0  0  0  0  0
    1.0460    1.7940    0.2720 N   0  0  0  0  0  0  0  0  0  0  0  0
    1.3310    0.5070    0.0660 C   0  0  0  0  0  0  0  0  0  0  0  0
    2.6760   -0.1440   -0.0180 C   0  0  0  0  0  0  0  0  0  0  0  0
  1  2  2  0
  2  3  1  0
  3  4  1  0
  3  8  2  0
  4  5  1  0
  4  6  2  0
  6  7  1  0
  7  8  1  0
  8  9  1  0
M  END
