
     RDKit          3D

 28 29  0  0  0  0  0  0  0  0999 V2000
   -6.8360    0.6300   -0.1740 C   0  0  0  0  0  0  0  0  0  0  0  0
   -6.0780    0.6450    1.0950 C   0  0  0  0  0  0  0  0  0  0  0  0
   -4.6200    0.4010    0.9740 C   0  0  0  0  0  0  0  0  0  0  0  0
   -4.1590   -0.9070    0.4430 C   0  0  1  0  0  0  0  0  0  0  0  0
   -4.7240   -2.0530    1.3140 C   0  0  0  0  0  0  0  0  0  0  0  0
   -4.5920   -1.1900   -0.9690 C   0  0  0  0  0  0  0  0  0  0  0  0
   -2.7180   -1.0030    0.5580 N   0  0  0  0  0  0  0  0  0  0  0  0
   -2.1590   -1.9890    1.4730 C   0  0  0  0  0  0  0  0  0  0  0  0
   -1.8130   -0.2120   -0.1520 C   0  0  0  0  0  0  0  0  0  0  0  0
   -0.5590   -0.4800    0.1100 O   0  0  0  0  0  0  0  0  0  0  0  0
   -2.0400    0.8490   -1.1330 C   0  0  0  0  0  0  0  0  0  0  0  0
   -0.7050    1.1620   -1.8200 C   0  0  1  0  0  0  0  0  0  0  0  0
   -0.9670    2.2850   -2.8380 C   0  0  0  0  0  0  0  0  0  0  0  0
    0.3040    1.5630   -0.8690 N   0  0  0  0  0  0  0  0  0  0  0  0
    1.6170    0.9470   -0.8990 C   0  0  0  0  0  0  0  0  0  0  0  0
    1.8030    0.1030   -1.7590 O   0  0  0  0  0  0  0  0  0  0  0  0
    2.6140    1.2880   -0.0090 N   0  0  0  0  0  0  0  0  0  0  0  0
    3.9600    0.8880    0.1460 C   0  0  0  0  0  0  0  0  0  0  0  0
    4.8870    1.3260    1.5910 S   0  0  0  0  0  0  0  0  0  0  0  0
    6.4020    0.6200    1.1640 C   0  0  0  0  0  0  0  0  0  0  0  0
    7.6860    0.6020    1.9340 C   0  0  0  0  0  0  0  0  0  0  0  0
    7.8050   -0.8200    2.4980 C   0  0  0  0  0  0  0  0  0  0  0  0
    6.1300    0.0670   -0.0930 C   0  0  0  0  0  0  0  0  0  0  0  0
    4.8950    0.2160   -0.5850 C   0  0  0  0  0  0  0  0  0  0  0  0
    4.9540   -0.4260   -1.9290 C   0  0  0  0  0  0  0  0  0  0  0  0
    4.0930   -0.5680   -2.8140 O   0  0  0  0  0  0  0  0  0  0  0  0
    6.2410   -0.9300   -2.1610 O   0  0  0  0  0  0  0  0  0  0  0  0
    7.0240   -0.7170   -1.0610 C   0  0  0  0  0  0  0  0  0  0  0  0
  1  2  1  0
  2  3  1  0
  3  4  1  0
  4  5  1  1
  4  6  1  0
  4  7  1  0
  7  8  1  0
  7  9  1  0
  9 10  2  0
  9 11  1  0
 11 12  1  0
 12 13  1  6
 12 14  1  0
 14 15  1  0
 15 16  2  0
 15 17  1  0
 17 18  1  0
 18 19  1  0
 18 24  2  0
 19 20  1  0
 20 21  1  0
 20 23  2  0
 21 22  1  0
 23 24  1  0
 23 28  1  0
 24 25  1  0
 25 26  2  0
 25 27  1  0
 27 28  1  0
M  END
