
     RDKit          3D

 17 19  0  0  0  0  0  0  0  0999 V2000
    3.3050   -0.2600    0.7660 C   0  0  0  0  0  0  0  0  0  0  0  0
    3.2370   -0.2620   -0.7180 C   0  0  0  0  0  0  0  0  0  0  0  0
    1.7710   -0.4090   -1.2410 C   0  0  0  0  0  0  0  0  0  0  0  0
    0.9890    0.7240   -0.7230 C   0  0  0  0  0  0  0  0  0  0  0  0
    1.5310    1.9930   -0.5710 N   0  0  0  0  0  0  0  0  0  0  0  0
    0.6920    2.7820    0.0340 N   0  0  0  0  0  0  0  0  0  0  0  0
   -0.4350    2.0930    0.3080 C   0  0  0  0  0  0  0  0  0  0  0  0
   -1.5550    2.4040    0.8880 O   0  0  0  0  0  0  0  0  0  0  0  0
   -2.5430    1.5830    1.0560 C   0  0  0  0  0  0  0  0  0  0  0  0
   -3.6270    1.9160    1.6300 O   0  0  0  0  0  0  0  0  0  0  0  0
   -2.4270    0.2890    0.6000 C   0  0  0  0  0  0  0  0  0  0  0  0
   -3.4790   -0.6060    0.7390 C   0  0  0  0  0  0  0  0  0  0  0  0
   -3.3440   -1.8850    0.2460 C   0  0  0  0  0  0  0  0  0  0  0  0
   -2.1980   -2.3030   -0.3820 C   0  0  0  0  0  0  0  0  0  0  0  0
   -1.1510   -1.4150   -0.5210 C   0  0  0  0  0  0  0  0  0  0  0  0
   -1.2800   -0.1450   -0.0280 C   0  0  0  0  0  0  0  0  0  0  0  0
   -0.2460    0.7970   -0.1720 C   0  0  0  0  0  0  0  0  0  0  0  0
  1  2  1  0
  2  3  1  0
  3  4  1  0
  4  5  2  0
  4 17  1  0
  5  6  1  0
  6  7  1  0
  7  8  1  0
  7 17  2  0
  8  9  1  0
  9 10  2  0
  9 11  1  0
 11 12  2  0
 11 16  1  0
 12 13  1  0
 13 14  2  0
 14 15  1  0
 15 16  2  0
 16 17  1  0
M  END
