
     RDKit          3D

 22 24  0  0  0  0  0  0  0  0999 V2000
   -3.1380    3.2770   -0.1360 N   0  0  0  0  0  0  0  0  0  0  0  0
   -3.4280    1.9030    0.1860 C   0  0  0  0  0  0  0  0  0  0  0  0
   -4.5610    1.7270    0.6740 O   0  0  0  0  0  0  0  0  0  0  0  0
   -2.4630    0.8850   -0.0570 N   0  0  0  0  0  0  0  0  0  0  0  0
   -2.7110   -0.4630    0.2350 C   0  0  0  0  0  0  0  0  0  0  0  0
   -3.9670   -0.9500    0.5260 C   0  0  0  0  0  0  0  0  0  0  0  0
   -4.2270   -2.3020    0.7560 C   0  0  0  0  0  0  0  0  0  0  0  0
   -3.1760   -3.1640    0.6840 C   0  0  0  0  0  0  0  0  0  0  0  0
   -1.8930   -2.6790    0.3890 C   0  0  0  0  0  0  0  0  0  0  0  0
   -1.6180   -1.3520    0.1600 C   0  0  0  0  0  0  0  0  0  0  0  0
   -0.3130   -0.8450   -0.0840 N   0  0  0  0  0  0  0  0  0  0  0  0
    0.8550   -1.5510   -0.3610 C   0  0  0  0  0  0  0  0  0  0  0  0
    0.7370   -2.8230   -0.4250 O   0  0  0  0  0  0  0  0  0  0  0  0
    2.2010   -1.0390   -0.5950 C   0  0  0  0  0  0  0  0  0  0  0  0
    3.1130   -1.7960   -1.2820 N   0  0  0  0  0  0  0  0  0  0  0  0
    4.2270   -1.1290   -1.3330 N   0  0  0  0  0  0  0  0  0  0  0  0
    4.1150    0.0480   -0.7120 C   0  0  0  0  0  0  0  0  0  0  0  0
    4.9780    1.1000   -0.4750 C   0  0  0  0  0  0  0  0  0  0  0  0
    4.5540    2.1920    0.2260 C   0  0  0  0  0  0  0  0  0  0  0  0
    3.2680    2.2690    0.7080 C   0  0  0  0  0  0  0  0  0  0  0  0
    2.3770    1.2180    0.4810 C   0  0  0  0  0  0  0  0  0  0  0  0
    2.8200    0.1260   -0.2280 C   0  0  0  0  0  0  0  0  0  0  0  0
  1  2  1  0
  2  3  2  0
  2  4  1  0
  4  5  1  0
  5  6  2  0
  5 10  1  0
  6  7  1  0
  7  8  2  0
  8  9  1  0
  9 10  2  0
 10 11  1  0
 11 12  1  0
 12 13  2  0
 12 14  1  0
 14 15  2  0
 14 22  1  0
 15 16  1  0
 16 17  1  0
 17 18  2  0
 17 22  1  0
 18 19  1  0
 19 20  2  0
 20 21  1  0
 21 22  2  0
M  END
