
     RDKit          3D

 23 26  0  0  0  0  0  0  0  0999 V2000
   -4.7860    0.3360   -1.0470 C   0  0  0  0  0  0  0  0  0  0  0  0
   -3.9400    1.2130   -0.1640 C   0  0  0  0  0  0  0  0  0  0  0  0
   -2.6810    0.5500    0.1920 N   0  0  0  0  0  0  0  0  0  0  0  0
   -2.4770   -0.2350    1.2630 C   0  0  0  0  0  0  0  0  0  0  0  0
   -3.5160   -0.5750    2.2970 C   0  0  0  0  0  0  0  0  0  0  0  0
   -1.1790   -0.6620    1.2460 C   0  0  0  0  0  0  0  0  0  0  0  0
   -0.5620   -0.1270    0.1330 C   0  0  0  0  0  0  0  0  0  0  0  0
   -1.5300    0.6230   -0.4990 C   0  0  0  0  0  0  0  0  0  0  0  0
   -1.3140    1.3990   -1.7700 C   0  0  0  0  0  0  0  0  0  0  0  0
    0.8450   -0.4460   -0.1010 C   0  0  1  0  0  0  0  0  0  0  0  0
    0.9790   -1.6120   -1.0160 C   0  0  0  0  0  0  0  0  0  0  0  0
    2.3860   -2.0060   -1.3160 C   0  0  0  0  0  0  0  0  0  0  0  0
    3.4070   -0.9580   -1.2070 C   0  0  0  0  0  0  0  0  0  0  0  0
    3.0140    0.2960   -0.6860 N   0  0  0  0  0  0  0  0  0  0  0  0
    3.9890    1.1690   -0.1420 C   0  0  0  0  0  0  0  0  0  0  0  0
    5.3300    0.9200   -0.0590 N   0  0  0  0  0  0  0  0  0  0  0  0
    5.9090    1.9630    0.5020 N   0  0  0  0  0  0  0  0  0  0  0  0
    5.0120    2.8860    0.7930 N   0  0  0  0  0  0  0  0  0  0  0  0
    3.8520    2.3950    0.3980 N   0  0  0  0  0  0  0  0  0  0  0  0
    1.6330    0.7020   -0.6980 C   0  0  0  0  0  0  0  0  0  0  0  0
    1.4770   -0.7680    1.2510 C   0  0  0  0  0  0  0  0  0  0  0  0
    0.8250   -1.8020    1.8850 O   0  0  0  0  0  0  0  0  0  0  0  0
   -0.4790   -1.5480    2.2180 C   0  0  0  0  0  0  0  0  0  0  0  0
  1  2  1  0
  2  3  1  0
  3  4  1  0
  3  8  1  0
  4  5  1  0
  4  6  2  0
  6  7  1  0
  6 23  1  0
  7  8  2  0
  7 10  1  0
  8  9  1  0
 10 11  1  6
 10 20  1  0
 10 21  1  0
 11 12  1  0
 12 13  1  0
 13 14  1  0
 14 15  1  0
 14 20  1  0
 15 16  2  0
 15 19  1  0
 16 17  1  0
 17 18  2  0
 18 19  1  0
 21 22  1  0
 22 23  1  0
M  END
