
     RDKit          3D

 23 26  0  0  0  0  0  0  0  0999 V2000
    0.4840   -3.0210   -1.6210 C   0  0  0  0  0  0  0  0  0  0  0  0
    1.7210   -2.6750   -1.3930 C   0  0  0  0  0  0  0  0  0  0  0  0
    2.3360   -1.5590   -0.7660 C   0  0  0  0  0  0  0  0  0  0  0  0
    3.6840   -1.6240   -0.7790 C   0  0  0  0  0  0  0  0  0  0  0  0
    4.6280   -0.6770   -0.2440 C   0  0  0  0  0  0  0  0  0  0  0  0
    4.4460    0.4810    0.3720 C   0  0  0  0  0  0  0  0  0  0  0  0
    5.6350    1.2390    0.8120 C   0  0  0  0  0  0  0  0  0  0  0  0
    3.1560    1.0800    0.6710 C   0  0  0  0  0  0  0  0  0  0  0  0
    1.9280    0.6550    0.4210 C   0  0  0  0  0  0  0  0  0  0  0  0
    0.9480    1.5600    0.8930 N   0  0  0  0  0  0  0  0  0  0  0  0
   -0.4280    1.2440    0.7280 C   0  0  0  0  0  0  0  0  0  0  0  0
   -1.2740    2.0530    1.1540 O   0  0  0  0  0  0  0  0  0  0  0  0
   -0.8200   -0.0060    0.0740 C   0  0  0  0  0  0  0  0  0  0  0  0
   -2.2370   -0.4000   -0.0590 C   0  0  0  0  0  0  0  0  0  0  0  0
   -2.5810   -1.6650   -0.4080 N   0  0  0  0  0  0  0  0  0  0  0  0
   -3.8720   -1.7760   -0.4890 N   0  0  0  0  0  0  0  0  0  0  0  0
   -4.4040   -0.5680   -0.1920 C   0  0  0  0  0  0  0  0  0  0  0  0
   -3.3730    0.2590    0.0670 N   0  0  0  0  0  0  0  0  0  0  0  0
   -3.8850    1.5880    0.3620 C   0  0  0  0  0  0  0  0  0  0  0  0
   -5.3160    1.5670   -0.2290 C   0  0  0  0  0  0  0  0  0  0  0  0
   -5.7180    0.1310   -0.0470 C   0  0  0  0  0  0  0  0  0  0  0  0
    0.1400   -0.7640   -0.3220 N   0  0  0  0  0  0  0  0  0  0  0  0
    1.4950   -0.5610   -0.2170 N   0  0  0  0  0  0  0  0  0  0  0  0
  1  2  2  0
  2  3  1  0
  3  4  2  0
  3 23  1  0
  4  5  1  0
  5  6  2  0
  6  7  1  0
  6  8  1  0
  8  9  2  0
  9 10  1  0
  9 23  1  0
 10 11  1  0
 11 12  2  0
 11 13  1  0
 13 14  1  0
 13 22  2  0
 14 15  2  0
 14 18  1  0
 15 16  1  0
 16 17  2  0
 17 18  1  0
 17 21  1  0
 18 19  1  0
 19 20  1  0
 20 21  1  0
 22 23  1  0
M  END
