
     RDKit          3D

 22 24  0  0  0  0  0  0  0  0999 V2000
    2.7130   -2.2800   -0.7500 C   0  0  0  0  0  0  0  0  0  0  0  0
    3.2020   -1.0240   -0.1740 N   0  0  0  0  0  0  0  0  0  0  0  0
    2.5670    0.1210   -0.3980 C   0  0  0  0  0  0  0  0  0  0  0  0
    1.2790    0.2380   -1.0650 C   0  0  0  0  0  0  0  0  0  0  0  0
    1.0310    1.3190   -1.7330 O   0  0  0  0  0  0  0  0  0  0  0  0
    0.2480   -0.7230   -1.0550 N   0  0  0  0  0  0  0  0  0  0  0  0
   -0.9360   -0.4140   -1.7790 N   0  0  0  0  0  0  0  0  0  0  0  0
   -2.1020    0.0220   -1.1190 C   0  0  0  0  0  0  0  0  0  0  0  0
   -2.2460    1.3700   -0.8750 C   0  0  0  0  0  0  0  0  0  0  0  0
   -3.3750    1.8230   -0.2380 C   0  0  0  0  0  0  0  0  0  0  0  0
   -4.3560    0.9190    0.1480 C   0  0  0  0  0  0  0  0  0  0  0  0
   -4.2210   -0.4390   -0.0950 C   0  0  0  0  0  0  0  0  0  0  0  0
   -3.0700   -0.8770   -0.7390 C   0  0  0  0  0  0  0  0  0  0  0  0
   -5.2830   -1.0950    0.3660 C   0  0  0  0  0  0  0  0  0  0  0  0
   -6.1780   -0.0930    0.9510 C   0  0  0  0  0  0  0  0  0  0  0  0
   -5.4700    1.1500    0.7530 N   0  0  0  0  0  0  0  0  0  0  0  0
    3.1730    1.2600    0.1440 C   0  0  0  0  0  0  0  0  0  0  0  0
    4.3400    1.2430    0.8660 C   0  0  0  0  0  0  0  0  0  0  0  0
    4.9340    2.4050    1.4100 N   0  0  0  0  0  0  0  0  0  0  0  0
    4.9590    0.0330    1.0710 C   0  0  0  0  0  0  0  0  0  0  0  0
    4.3560   -1.0730    0.5340 C   0  0  0  0  0  0  0  0  0  0  0  0
    4.9300   -2.2070    0.7230 O   0  0  0  0  0  0  0  0  0  0  0  0
  1  2  1  0
  2  3  1  0
  2 21  1  0
  3  4  1  0
  3 17  2  0
  4  5  2  0
  4  6  1  0
  6  7  1  0
  7  8  1  0
  8  9  1  0
  8 13  2  0
  9 10  2  0
 10 11  1  0
 11 12  1  0
 11 16  2  0
 12 13  1  0
 12 14  2  0
 14 15  1  0
 15 16  1  0
 17 18  1  0
 18 19  1  0
 18 20  2  0
 20 21  1  0
 21 22  2  0
M  END
