
     RDKit          3D

 22 24  0  0  0  0  0  0  0  0999 V2000
   -3.6600    0.0050    2.0220 C   0  0  0  0  0  0  0  0  0  0  0  0
   -3.5370    0.4590    0.5900 C   0  0  0  0  0  0  0  0  0  0  0  0
   -4.1950    1.5620    0.2030 N   0  0  0  0  0  0  0  0  0  0  0  0
   -4.0880    1.9770   -1.0880 C   0  0  0  0  0  0  0  0  0  0  0  0
   -3.3240    1.2940   -2.0000 C   0  0  0  0  0  0  0  0  0  0  0  0
   -2.6550    0.1610   -1.5850 C   0  0  0  0  0  0  0  0  0  0  0  0
   -2.7500   -0.2790   -0.2730 C   0  0  0  0  0  0  0  0  0  0  0  0
   -2.0730   -1.4330    0.1600 N   0  0  0  0  0  0  0  0  0  0  0  0
   -1.2320   -2.2540   -0.6490 C   0  0  0  0  0  0  0  0  0  0  0  0
   -0.0940   -1.6070   -1.2260 N   0  0  0  0  0  0  0  0  0  0  0  0
    0.9420   -1.0000   -0.4640 C   0  0  0  0  0  0  0  0  0  0  0  0
    0.9190   -1.0540    0.9140 C   0  0  0  0  0  0  0  0  0  0  0  0
    1.9320   -0.4580    1.6550 C   0  0  0  0  0  0  0  0  0  0  0  0
    2.9890    0.2050    1.0490 C   0  0  0  0  0  0  0  0  0  0  0  0
    3.9580    0.7750    1.7650 N   0  0  0  0  0  0  0  0  0  0  0  0
    4.9720    1.4120    1.1730 C   0  0  0  0  0  0  0  0  0  0  0  0
    5.8670    1.9370    1.8840 O   0  0  0  0  0  0  0  0  0  0  0  0
    5.0520    1.4990   -0.1640 N   0  0  0  0  0  0  0  0  0  0  0  0
    4.0720    0.9220   -0.9130 C   0  0  0  0  0  0  0  0  0  0  0  0
    4.1060    0.9790   -2.1660 O   0  0  0  0  0  0  0  0  0  0  0  0
    3.0130    0.2600   -0.3290 C   0  0  0  0  0  0  0  0  0  0  0  0
    2.0030   -0.3360   -1.0530 C   0  0  0  0  0  0  0  0  0  0  0  0
  1  2  1  0
  2  3  2  0
  2  7  1  0
  3  4  1  0
  4  5  2  0
  5  6  1  0
  6  7  2  0
  7  8  1  0
  8  9  1  0
  9 10  1  0
 10 11  1  0
 11 12  2  0
 11 22  1  0
 12 13  1  0
 13 14  2  0
 14 15  1  0
 14 21  1  0
 15 16  1  0
 16 17  2  0
 16 18  1  0
 18 19  1  0
 19 20  2  0
 19 21  1  0
 21 22  2  0
M  END
