
     RDKit          3D

 26 29  0  0  0  0  0  0  0  0999 V2000
   -1.4300    5.8850    1.0000 O   0  0  0  0  0  0  0  0  0  0  0  0
   -1.0940    4.6230    1.7710 S   0  0  0  0  0  0  0  0  0  0  0  0
   -1.0900    3.1970    0.7200 C   0  0  0  0  0  0  0  0  0  0  0  0
   -1.5970    2.1380    0.7470 N   0  0  0  0  0  0  0  0  0  0  0  0
   -1.5130    1.1060   -0.1390 C   0  0  0  0  0  0  0  0  0  0  0  0
   -0.7320    1.3400   -1.2050 C   0  0  0  0  0  0  0  0  0  0  0  0
   -0.1400    3.1110   -0.8440 S   0  0  0  0  0  0  0  0  0  0  0  0
   -0.3360    0.6380   -2.4040 C   0  0  0  0  0  0  0  0  0  0  0  0
    0.9410    0.0890   -2.5340 N   0  0  0  0  0  0  0  0  0  0  0  0
    2.0860    0.5620   -1.9130 C   0  0  0  0  0  0  0  0  0  0  0  0
    2.3290    0.3330   -0.4920 C   0  0  0  0  0  0  0  0  0  0  0  0
    2.7200    1.4760    0.2370 C   0  0  0  0  0  0  0  0  0  0  0  0
    2.9990    1.4810    1.5650 C   0  0  0  0  0  0  0  0  0  0  0  0
    2.9020    0.3100    2.2650 C   0  0  0  0  0  0  0  0  0  0  0  0
    3.2610    0.2930    3.9990 Cl  0  0  0  0  0  0  0  0  0  0  0  0
    2.5380   -0.7760    1.6060 N   0  0  0  0  0  0  0  0  0  0  0  0
    2.2510   -0.7950    0.2560 C   0  0  0  0  0  0  0  0  0  0  0  0
    1.8810   -2.1740   -0.1610 C   0  0  0  0  0  0  0  0  0  0  0  0
    0.5700   -2.5440    0.4820 N   0  0  0  0  0  0  0  0  0  0  0  0
   -0.3020   -1.6180   -0.1250 C   0  0  0  0  0  0  0  0  0  0  0  0
   -1.7020   -1.4910    0.1670 C   0  0  0  0  0  0  0  0  0  0  0  0
   -2.3900   -2.5880    0.4370 C   0  0  0  0  0  0  0  0  0  0  0  0
   -3.8220   -2.5050    0.7410 C   0  0  0  0  0  0  0  0  0  0  0  0
   -4.3170   -1.2190    0.6170 O   0  0  0  0  0  0  0  0  0  0  0  0
   -3.6010   -0.0800    0.3780 C   0  0  0  0  0  0  0  0  0  0  0  0
   -2.2780   -0.1560    0.1230 C   0  0  0  0  0  0  0  0  0  0  0  0
  1  2  2  0
  2  3  1  0
  3  4  2  0
  3  7  1  0
  4  5  1  0
  5  6  2  0
  5 26  1  0
  6  7  1  0
  6  8  1  0
  8  9  1  0
  9 10  1  0
 10 11  1  0
 11 12  2  0
 11 17  1  0
 12 13  1  0
 13 14  2  0
 14 15  1  0
 14 16  1  0
 16 17  2  0
 17 18  1  0
 18 19  1  0
 19 20  1  0
 20 21  1  0
 21 22  2  0
 21 26  1  0
 22 23  1  0
 23 24  1  0
 24 25  1  0
 25 26  2  0
M  CHG  1  19   1
M  END
