
     RDKit          3D

 25 27  0  0  0  0  0  0  0  0999 V2000
   -8.1980    0.9930    0.7390 C   0  0  0  0  0  0  0  0  0  0  0  0
   -7.8450   -0.4610    0.6120 C   0  0  0  0  0  0  0  0  0  0  0  0
   -6.4490   -0.6120    0.9370 N   0  0  0  0  0  0  0  0  0  0  0  0
   -5.4420   -0.0860    0.1000 C   0  0  0  0  0  0  0  0  0  0  0  0
   -5.8180    0.5220   -1.1940 C   0  0  0  0  0  0  0  0  0  0  0  0
   -4.1540   -0.1210    0.4370 C   0  0  0  0  0  0  0  0  0  0  0  0
   -3.1300    0.4300   -0.4450 C   0  0  0  0  0  0  0  0  0  0  0  0
   -1.8730    0.4140   -0.1580 C   0  0  0  0  0  0  0  0  0  0  0  0
   -1.1380   -0.2580    1.3170 S   0  0  0  0  0  0  0  0  0  0  0  0
    0.5520   -0.2720    0.6820 C   0  0  0  0  0  0  0  0  0  0  0  0
    1.5260   -0.9110    1.2240 N   0  0  0  0  0  0  0  0  0  0  0  0
    2.7810   -0.8410    0.6360 C   0  0  0  0  0  0  0  0  0  0  0  0
    3.4310   -1.9670   -0.6210 S   0  0  0  0  0  0  0  0  0  0  0  0
    5.0010   -1.2330   -0.8340 C   0  0  0  0  0  0  0  0  0  0  0  0
    4.9490   -0.1210    0.1020 C   0  0  0  0  0  0  0  0  0  0  0  0
    3.8540    0.0340    0.7960 C   0  0  0  0  0  0  0  0  0  0  0  0
    3.6450    1.1370    1.8050 C   0  0  0  0  0  0  0  0  0  0  0  0
    3.1550    2.2230    1.4340 O   0  0  0  0  0  0  0  0  0  0  0  0
    6.2540    0.6380    0.0430 C   0  0  0  0  0  0  0  0  0  0  0  0
    7.3810   -0.3570    0.1760 C   0  0  0  0  0  0  0  0  0  0  0  0
    7.4280   -1.3350   -0.8630 N   0  0  0  0  0  0  0  0  0  0  0  0
    6.2150   -1.4430   -1.6370 C   0  0  0  0  0  0  0  0  0  0  0  0
    0.5030    0.5440   -0.4710 N   0  0  0  0  0  0  0  0  0  0  0  0
   -0.7570    0.9090   -0.9200 C   0  0  0  0  0  0  0  0  0  0  0  0
   -0.9490    1.6450   -1.9550 O   0  0  0  0  0  0  0  0  0  0  0  0
  1  2  1  0
  2  3  1  0
  3  4  1  0
  4  5  1  0
  4  6  2  3
  6  7  1  0
  7  8  2  3
  8  9  1  0
  8 24  1  0
  9 10  1  0
 10 11  2  3
 10 23  1  0
 11 12  1  0
 12 13  1  0
 12 16  2  0
 13 14  1  0
 14 15  2  0
 14 22  1  0
 15 16  1  0
 15 19  1  0
 16 17  1  0
 17 18  2  0
 19 20  1  0
 20 21  1  0
 21 22  1  0
 23 24  1  0
 24 25  2  0
M  CHG  1  21   1
M  END
