
     RDKit          3D

 26 28  0  0  0  0  0  0  0  0999 V2000
    8.5190    0.0800   -2.1120 C   0  0  0  0  0  0  0  0  0  0  0  0
    7.3370   -0.2460   -1.3080 C   0  0  0  0  0  0  0  0  0  0  0  0
    6.3570   -0.5210   -0.6660 C   0  0  0  0  0  0  0  0  0  0  0  0
    5.2000   -0.8390    0.1200 C   0  0  0  0  0  0  0  0  0  0  0  0
    5.2380   -1.7430    1.1560 C   0  0  0  0  0  0  0  0  0  0  0  0
    4.1340   -2.0300    1.8860 N   0  0  0  0  0  0  0  0  0  0  0  0
    2.9390   -1.4290    1.6180 C   0  0  0  0  0  0  0  0  0  0  0  0
    2.8540   -0.5220    0.5950 C   0  0  0  0  0  0  0  0  0  0  0  0
    1.5580    0.1080    0.3300 C   0  0  0  0  0  0  0  0  0  0  0  0
    1.1900    1.0080   -0.5840 C   0  0  0  0  0  0  0  0  0  0  0  0
   -0.0820    1.4480   -0.6380 C   0  0  0  0  0  0  0  0  0  0  0  0
   -0.6960    2.6530   -1.8050 Cl  0  0  0  0  0  0  0  0  0  0  0  0
   -0.9540    0.9180    0.2910 C   0  0  0  0  0  0  0  0  0  0  0  0
   -2.4200    1.1720    0.5130 C   0  0  2  0  0  0  0  0  0  0  0  0
   -2.6240    2.6630    0.8160 C   0  0  0  0  0  0  0  0  0  0  0  0
   -2.8280    0.4390    1.7460 C   0  0  0  0  0  0  0  0  0  0  0  0
   -3.5860   -1.1030    1.2950 S   0  0  1  0  0  0  0  0  0  0  0  0
   -2.5430   -2.0000    0.6680 O   0  0  0  0  0  0  0  0  0  0  0  0
   -4.2000   -1.8010    2.4610 O   0  0  0  0  0  0  0  0  0  0  0  0
   -4.7370   -0.6990    0.0790 N   0  0  0  0  0  0  0  0  0  0  0  0
   -6.0140   -1.3090    0.0210 C   0  0  0  0  0  0  0  0  0  0  0  0
   -4.3730    0.1890   -0.7690 C   0  0  0  0  0  0  0  0  0  0  0  0
   -5.2810    0.5580   -1.7900 N   0  0  0  0  0  0  0  0  0  0  0  0
   -3.0860    0.7990   -0.6970 N   0  0  0  0  0  0  0  0  0  0  0  0
    0.0740   -0.2130    1.2360 S   0  0  0  0  0  0  0  0  0  0  0  0
    3.9680   -0.2290   -0.1450 C   0  0  0  0  0  0  0  0  0  0  0  0
  1  2  1  0
  2  3  3  0
  3  4  1  0
  4  5  2  0
  4 26  1  0
  5  6  1  0
  6  7  2  0
  7  8  1  0
  8  9  1  0
  8 26  2  0
  9 10  2  0
  9 25  1  0
 10 11  1  0
 11 12  1  0
 11 13  2  0
 13 14  1  0
 13 25  1  0
 14 15  1  1
 14 16  1  0
 14 24  1  0
 17 16  1  1
 17 18  2  0
 17 19  2  0
 17 20  1  0
 20 21  1  0
 20 22  2  0
 22 23  1  0
 22 24  1  0
M  CHG  1  20   1
M  END
