
     RDKit          3D

 26 28  0  0  0  0  0  0  0  0999 V2000
   -5.0040   -2.2950    2.2560 C   0  0  0  0  0  0  0  0  0  0  0  0
   -3.8940   -1.5010    1.5470 C   0  0  0  0  0  0  0  0  0  0  0  0
   -3.8390   -1.8190    0.1660 N   0  0  0  0  0  0  0  0  0  0  0  0
   -2.6770   -1.0360   -0.7710 S   0  0  2  0  0  0  0  0  0  0  0  0
   -2.8140   -1.5860   -2.1940 O   0  0  0  0  0  0  0  0  0  0  0  0
   -1.2600   -1.4410   -0.3700 O   0  0  0  0  0  0  0  0  0  0  0  0
   -2.8020    0.6810   -0.9030 C   0  0  0  0  0  0  0  0  0  0  0  0
   -3.8630    1.4160   -0.4560 C   0  0  0  0  0  0  0  0  0  0  0  0
   -3.8670    2.7810   -0.6510 C   0  0  0  0  0  0  0  0  0  0  0  0
   -2.8370    3.3620   -1.2730 N   0  0  0  0  0  0  0  0  0  0  0  0
   -1.7850    2.6830   -1.7250 C   0  0  0  0  0  0  0  0  0  0  0  0
   -0.6650    3.3690   -2.4100 C   0  0  0  0  0  0  0  0  0  0  0  0
   -1.7360    1.3250   -1.5540 C   0  0  0  0  0  0  0  0  0  0  0  0
   -0.3360    0.3860   -2.1410 S   0  0  0  0  0  0  0  0  0  0  0  0
    0.9380    0.2650   -0.8930 C   0  0  0  0  0  0  0  0  0  0  0  0
    0.8350    0.8070    0.2580 N   0  0  0  0  0  0  0  0  0  0  0  0
    1.7930    0.7690    1.3190 C   0  0  0  0  0  0  0  0  0  0  0  0
    2.9960    0.0000    0.9440 C   0  0  0  0  0  0  0  0  0  0  0  0
    4.0270   -0.1230    1.8840 C   0  0  0  0  0  0  0  0  0  0  0  0
    3.8630    0.6260    3.4520 Cl  0  0  0  0  0  0  0  0  0  0  0  0
    5.1610   -0.8280    1.5800 C   0  0  0  0  0  0  0  0  0  0  0  0
    5.2840   -1.4100    0.3570 C   0  0  0  0  0  0  0  0  0  0  0  0
    6.5010   -2.1760    0.0080 C   0  0  0  0  0  0  0  0  0  0  0  0
    4.2930   -1.3170   -0.6070 C   0  0  0  0  0  0  0  0  0  0  0  0
    3.1550   -0.6020   -0.2820 C   0  0  0  0  0  0  0  0  0  0  0  0
    2.1070   -0.4730   -1.2330 N   0  0  0  0  0  0  0  0  0  0  0  0
  1  2  1  0
  2  3  1  0
  4  3  1  1
  4  5  2  0
  4  6  2  0
  4  7  1  0
  7  8  2  0
  7 13  1  0
  8  9  1  0
  9 10  2  0
 10 11  1  0
 11 12  1  0
 11 13  2  0
 13 14  1  0
 14 15  1  0
 15 16  2  0
 15 26  1  0
 16 17  1  0
 17 18  1  0
 18 19  2  0
 18 25  1  0
 19 20  1  0
 19 21  1  0
 21 22  2  0
 22 23  1  0
 22 24  1  0
 24 25  2  0
 25 26  1  0
M  CHG  1  10   1
M  END
