
     RDKit          3D

 26 28  0  0  0  0  0  0  0  0999 V2000
   -3.9170   -2.6010   -1.8480 C   0  0  0  0  0  0  0  0  0  0  0  0
   -4.8080   -1.6240   -1.1520 C   0  0  0  0  0  0  0  0  0  0  0  0
   -4.6170   -0.4590   -0.5580 C   0  0  0  0  0  0  0  0  0  0  0  0
   -3.7520    0.5420   -0.1780 C   0  0  0  0  0  0  0  0  0  0  0  0
   -2.0200    0.3890   -0.5820 S   0  0  0  0  0  0  0  0  0  0  0  0
   -1.0960   -0.4490    0.7040 C   0  0  2  0  0  0  0  0  0  0  0  0
   -1.0290    0.3300    1.9860 C   0  0  0  0  0  0  0  0  0  0  0  0
    0.2750   -0.7210    0.1950 C   0  0  0  0  0  0  0  0  0  0  0  0
    0.6330   -0.4000   -0.9860 O   0  0  0  0  0  0  0  0  0  0  0  0
    1.1820   -1.3360    1.0210 O   0  0  0  0  0  0  0  0  0  0  0  0
    2.4960   -1.6020    0.5770 C   0  0  0  0  0  0  0  0  0  0  0  0
    3.2290   -0.2760    0.3040 C   0  0  0  0  0  0  0  0  0  0  0  0
    2.5710    0.9220    0.5760 C   0  0  0  0  0  0  0  0  0  0  0  0
    3.7520    2.1710    0.1450 S   0  0  0  0  0  0  0  0  0  0  0  0
    5.0480    1.0200   -0.3680 C   0  0  0  0  0  0  0  0  0  0  0  0
    6.2110    1.4810   -0.8050 C   0  0  0  0  0  0  0  0  0  0  0  0
    7.3490    0.8150   -1.2500 N   0  0  0  0  0  0  0  0  0  0  0  0
    4.4850   -0.2160   -0.1730 C   0  0  0  0  0  0  0  0  0  0  0  0
    5.2160   -1.3200   -0.4400 C   0  0  0  0  0  0  0  0  0  0  0  0
    4.6660   -2.9590   -0.2130 Cl  0  0  0  0  0  0  0  0  0  0  0  0
   -4.2550    1.5980    0.4880 N   0  0  0  0  0  0  0  0  0  0  0  0
   -5.5570    1.7110    0.7930 C   0  0  0  0  0  0  0  0  0  0  0  0
   -6.1070    2.8840    1.5320 C   0  0  0  0  0  0  0  0  0  0  0  0
   -6.3820    0.7220    0.4130 N   0  0  0  0  0  0  0  0  0  0  0  0
   -5.9810   -0.3740   -0.2560 C   0  0  0  0  0  0  0  0  0  0  0  0
   -6.1780   -1.5050   -0.8310 N   0  0  0  0  0  0  0  0  0  0  0  0
  1  2  1  0
  2  3  2  0
  2 26  1  0
  3  4  1  0
  3 25  1  0
  4  5  1  0
  4 21  2  0
  5  6  1  0
  6  7  1  1
  6  8  1  0
  8  9  2  0
  8 10  1  0
 10 11  1  0
 11 12  1  0
 12 13  2  0
 12 18  1  0
 13 14  1  0
 14 15  1  0
 15 16  2  3
 15 18  1  0
 16 17  1  0
 18 19  2  3
 19 20  1  0
 21 22  1  0
 22 23  1  0
 22 24  2  0
 24 25  1  0
 25 26  2  0
M  CHG  1  17   1
M  END
