
     RDKit          3D

 43 48  0  0  0  0  0  0  0  0999 V2000
   -3.1870   -1.7580   -3.5470 C   0  0  0  0  0  0  0  0  0  0  0  0
   -4.1630   -1.3230   -2.4960 C   0  0  0  0  0  0  0  0  0  0  0  0
   -4.0260   -0.2840   -1.6420 C   0  0  0  0  0  0  0  0  0  0  0  0
   -2.8570    0.5690   -1.6530 C   0  0  0  0  0  0  0  0  0  0  0  0
   -1.8810    0.2760   -0.5450 C   0  0  1  0  0  0  0  0  0  0  0  0
   -0.6860    1.1510   -0.5000 C   0  0  0  0  0  0  0  0  0  0  0  0
   -0.3210    1.5530    0.8620 N   0  0  0  0  0  0  0  0  0  0  0  0
    0.0560    2.8860    1.0740 C   0  0  0  0  0  0  0  0  0  0  0  0
   -0.0660    3.6820    0.0640 O   0  0  0  0  0  0  0  0  0  0  0  0
    0.5730    3.4810    2.3130 C   0  0  0  0  0  0  0  0  0  0  0  0
    1.0720    2.6170    3.2780 O   0  0  0  0  0  0  0  0  0  0  0  0
    2.1940    1.8350    2.9650 C   0  0  0  0  0  0  0  0  0  0  0  0
    2.8280    1.8810    1.7490 C   0  0  0  0  0  0  0  0  0  0  0  0
    3.9220    1.0850    1.5140 C   0  0  0  0  0  0  0  0  0  0  0  0
    4.4220    0.2160    2.4800 C   0  0  0  0  0  0  0  0  0  0  0  0
    5.5920   -0.6110    2.1820 C   0  0  0  0  0  0  0  0  0  0  0  0
    6.1140   -1.4690    3.1060 C   0  0  0  0  0  0  0  0  0  0  0  0
    7.2390   -2.2290    2.7580 C   0  0  0  0  0  0  0  0  0  0  0  0
    7.7080   -3.0120    3.6150 O   0  0  0  0  0  0  0  0  0  0  0  0
    7.7580   -2.0830    1.5260 N   0  0  0  0  0  0  0  0  0  0  0  0
    7.2610   -1.2500    0.6110 C   0  0  0  0  0  0  0  0  0  0  0  0
    7.8130   -1.0670   -0.7340 C   0  0  0  0  0  0  0  0  0  0  0  0
    8.9210   -1.7390   -1.1620 C   0  0  0  0  0  0  0  0  0  0  0  0
    9.4130   -1.5330   -2.4570 C   0  0  0  0  0  0  0  0  0  0  0  0
    8.8170   -0.6630   -3.3410 C   0  0  0  0  0  0  0  0  0  0  0  0
    7.7020    0.0090   -2.8970 C   0  0  0  0  0  0  0  0  0  0  0  0
    7.2100   -0.1860   -1.6280 C   0  0  0  0  0  0  0  0  0  0  0  0
    6.1800   -0.5220    0.9530 N   0  0  0  0  0  0  0  0  0  0  0  0
    3.7600    0.2020    3.6780 C   0  0  0  0  0  0  0  0  0  0  0  0
    2.6510    1.0020    3.9310 C   0  0  0  0  0  0  0  0  0  0  0  0
    2.0750    0.9020    5.1670 F   0  0  0  0  0  0  0  0  0  0  0  0
   -0.4380    0.5160    1.8500 C   0  0  0  0  0  0  0  0  0  0  0  0
   -1.7090   -0.2390    1.6920 C   0  0  0  0  0  0  0  0  0  0  0  0
   -2.5100    0.0710    0.6340 O   0  0  0  0  0  0  0  0  0  0  0  0
   -5.1930   -0.1940   -0.7990 C   0  0  0  0  0  0  0  0  0  0  0  0
   -6.0090   -1.1860   -1.1500 C   0  0  0  0  0  0  0  0  0  0  0  0
   -7.2950   -1.3540   -0.4530 C   0  0  0  0  0  0  0  0  0  0  0  0
   -8.0010   -0.0690   -0.1420 C   0  0  0  0  0  0  0  0  0  0  0  0
   -7.1060    1.1190   -0.2320 C   0  0  0  0  0  0  0  0  0  0  0  0
   -5.6820    0.6890    0.2380 C   0  0  2  0  0  0  0  0  0  0  0  0
   -5.0150    1.9290    0.4630 N   0  0  0  0  0  0  0  0  0  0  0  0
   -5.4390   -1.9980   -2.2480 C   0  0  1  0  0  0  0  0  0  0  0  0
   -6.2640   -1.8630   -3.4430 N   0  0  0  0  0  0  0  0  0  0  0  0
  1  2  1  0
  2  3  2  0
  2 42  1  0
  3  4  1  0
  3 35  1  0
  5  4  1  6
  5  6  1  0
  5 34  1  0
  6  7  1  0
  7  8  1  0
  7 32  1  0
  8  9  2  0
  8 10  1  0
 10 11  1  0
 11 12  1  0
 12 13  2  0
 12 30  1  0
 13 14  1  0
 14 15  2  0
 15 16  1  0
 15 29  1  0
 16 17  2  0
 16 28  1  0
 17 18  1  0
 18 19  2  0
 18 20  1  0
 20 21  1  0
 21 22  1  0
 21 28  2  0
 22 23  2  0
 22 27  1  0
 23 24  1  0
 24 25  2  0
 25 26  1  0
 26 27  2  0
 29 30  2  0
 30 31  1  0
 32 33  1  0
 33 34  1  0
 35 36  2  0
 35 40  1  0
 36 37  1  0
 36 42  1  0
 37 38  1  0
 38 39  1  0
 39 40  1  0
 40 41  1  6
 42 43  1  6
M  CHG  2  41   1  43   1
M  END
