
     RDKit          3D

 42 46  0  0  0  0  0  0  0  0999 V2000
   -6.7550    0.3370   -0.8480 C   0  0  0  0  0  0  0  0  0  0  0  0
   -5.8950   -0.2030    0.2570 C   0  0  2  0  0  0  0  0  0  0  0  0
   -6.1510    0.6540    1.5010 C   0  0  0  0  0  0  0  0  0  0  0  0
   -4.4560   -0.0020   -0.1480 C   0  0  0  0  0  0  0  0  0  0  0  0
   -4.0960    0.6210   -1.1630 O   0  0  0  0  0  0  0  0  0  0  0  0
   -3.4480   -0.5840    0.7190 C   0  0  0  0  0  0  0  0  0  0  0  0
   -3.7310   -1.8320    1.2250 C   0  0  0  0  0  0  0  0  0  0  0  0
   -2.7860   -2.4620    2.0540 C   0  0  0  0  0  0  0  0  0  0  0  0
   -1.6050   -1.8260    2.3430 C   0  0  0  0  0  0  0  0  0  0  0  0
   -1.3260   -0.5790    1.8360 C   0  0  0  0  0  0  0  0  0  0  0  0
   -2.2320    0.0620    1.0230 C   0  0  0  0  0  0  0  0  0  0  0  0
   -2.0570    1.3660    0.4890 N   0  0  0  0  0  0  0  0  0  0  0  0
   -0.8360    2.1130    0.5070 C   0  0  0  0  0  0  0  0  0  0  0  0
    0.1590    1.5730    1.0220 O   0  0  0  0  0  0  0  0  0  0  0  0
   -0.8030    3.4130   -0.0550 N   0  0  0  0  0  0  0  0  0  0  0  0
   -2.1200    4.0000   -0.4300 C   0  0  0  0  0  0  0  0  0  0  0  0
   -2.4940    3.6530   -1.7720 N   0  0  0  0  0  0  0  0  0  0  0  0
    0.3010    4.2750   -0.1520 C   0  0  0  0  0  0  0  0  0  0  0  0
   -0.1130    5.5910   -0.1910 O   0  0  0  0  0  0  0  0  0  0  0  0
    1.6900    4.1910   -0.2150 C   0  0  0  0  0  0  0  0  0  0  0  0
    2.6240    3.3570   -0.4010 C   0  0  0  0  0  0  0  0  0  0  0  0
    2.7590    1.9600   -0.6910 C   0  0  0  0  0  0  0  0  0  0  0  0
    1.7900    1.2200   -1.3090 C   0  0  0  0  0  0  0  0  0  0  0  0
    1.8910   -0.1170   -1.5490 C   0  0  0  0  0  0  0  0  0  0  0  0
    3.0550   -0.7590   -1.1370 C   0  0  0  0  0  0  0  0  0  0  0  0
    4.0620   -0.0880   -0.5160 C   0  0  0  0  0  0  0  0  0  0  0  0
    5.2360   -0.7510   -0.0910 N   0  0  1  0  0  0  0  0  0  0  0  0
    5.1380   -2.1450   -0.4020 C   0  0  0  0  0  0  0  0  0  0  0  0
    6.2880   -2.9720    0.1460 C   0  0  0  0  0  0  0  0  0  0  0  0
    7.5320   -2.1950    0.2020 C   0  0  0  0  0  0  0  0  0  0  0  0
    8.6750   -2.8190    0.6680 C   0  0  0  0  0  0  0  0  0  0  0  0
    9.8890   -2.1650    0.7560 C   0  0  0  0  0  0  0  0  0  0  0  0
    9.9610   -0.8450    0.3650 C   0  0  0  0  0  0  0  0  0  0  0  0
    8.8230   -0.2270   -0.0990 C   0  0  0  0  0  0  0  0  0  0  0  0
    7.6050   -0.8680   -0.1910 C   0  0  0  0  0  0  0  0  0  0  0  0
    6.4190   -0.1610   -0.6960 C   0  0  0  0  0  0  0  0  0  0  0  0
    3.9210    1.2600   -0.2920 C   0  0  0  0  0  0  0  0  0  0  0  0
   -4.9910   -2.4830    0.8770 C   0  0  0  0  0  0  0  0  0  0  0  0
   -6.1680   -1.6220    0.6110 C   0  0  1  0  0  0  0  0  0  0  0  0
   -6.9590   -1.6520    1.7810 O   0  0  0  0  0  0  0  0  0  0  0  0
   -7.0340   -2.3180   -0.4500 C   0  0  0  0  0  0  0  0  0  0  0  0
   -8.2850   -1.6730   -0.6700 N   0  0  0  0  0  0  0  0  0  0  0  0
  2  1  1  6
  2  3  1  0
  2  4  1  0
  2 39  1  0
  4  5  2  0
  4  6  1  0
  6  7  2  0
  6 11  1  0
  7  8  1  0
  7 38  1  0
  8  9  2  0
  9 10  1  0
 10 11  2  0
 11 12  1  0
 12 13  1  0
 13 14  2  0
 13 15  1  0
 15 16  1  0
 15 18  1  0
 16 17  1  0
 18 19  2  0
 18 20  1  0
 20 21  2  3
 21 22  1  0
 22 23  2  0
 22 37  1  0
 23 24  1  0
 24 25  2  0
 25 26  1  0
 27 26  1  6
 26 37  2  0
 27 28  1  0
 27 36  1  0
 28 29  1  0
 29 30  1  0
 30 31  2  0
 30 35  1  0
 31 32  1  0
 32 33  2  0
 33 34  1  0
 34 35  2  0
 35 36  1  0
 38 39  1  0
 39 40  1  1
 39 41  1  0
 41 42  1  0
M  CHG  2  17   1  27   1
M  END
