
     RDKit          3D

 43 47  0  0  0  0  0  0  0  0999 V2000
    8.4360   -1.2410    0.3220 C   0  0  0  0  0  0  0  0  0  0  0  0
    7.1850   -1.8950   -0.1190 C   0  0  0  0  0  0  0  0  0  0  0  0
    7.1970   -3.2390   -0.4430 C   0  0  0  0  0  0  0  0  0  0  0  0
    6.0610   -3.8790   -0.8300 C   0  0  0  0  0  0  0  0  0  0  0  0
    6.1220   -5.2020   -1.1470 F   0  0  0  0  0  0  0  0  0  0  0  0
    4.8860   -3.1860   -0.9050 C   0  0  0  0  0  0  0  0  0  0  0  0
    4.8350   -1.8550   -0.5900 C   0  0  0  0  0  0  0  0  0  0  0  0
    3.6730   -1.1390   -0.6420 O   0  0  0  0  0  0  0  0  0  0  0  0
    2.4690   -1.7910   -0.9300 C   0  0  1  0  0  0  0  0  0  0  0  0
    2.1620   -2.7810    0.2200 C   0  0  0  0  0  0  0  0  0  0  0  0
    1.2450   -2.1000    1.2100 C   0  0  0  0  0  0  0  0  0  0  0  0
    1.5860   -0.6320    1.2120 C   0  0  0  0  0  0  0  0  0  0  0  0
    1.0700    0.0980    0.0120 C   0  0  2  0  0  0  0  0  0  0  0  0
   -0.3270    0.2720    0.0360 N   0  0  2  0  0  0  0  0  0  0  0  0
   -0.8470    0.2730   -1.3540 C   0  0  0  0  0  0  0  0  0  0  0  0
   -1.7310   -0.7520   -1.7690 C   0  0  0  0  0  0  0  0  0  0  0  0
   -1.9260   -0.5850   -3.1290 O   0  0  0  0  0  0  0  0  0  0  0  0
   -2.4400   -1.8250   -1.3390 N   0  0  0  0  0  0  0  0  0  0  0  0
   -3.0770   -2.6850   -2.3900 C   0  0  0  0  0  0  0  0  0  0  0  0
   -4.5380   -2.7300   -2.2670 C   0  0  0  0  0  0  0  0  0  0  0  0
   -4.9180   -3.0990   -0.8540 C   0  0  0  0  0  0  0  0  0  0  0  0
   -6.1920   -3.7030   -0.7370 N   0  0  0  0  0  0  0  0  0  0  0  0
   -4.1030   -2.8850    0.1520 C   0  0  0  0  0  0  0  0  0  0  0  0
   -4.4520   -3.2220    1.4980 C   0  0  0  0  0  0  0  0  0  0  0  0
   -5.6870   -3.8200    1.9210 N   0  0  0  0  0  0  0  0  0  0  0  0
   -3.6540   -3.0000    2.4510 O   0  0  0  0  0  0  0  0  0  0  0  0
   -2.7260   -2.2760   -0.0150 C   0  0  0  0  0  0  0  0  0  0  0  0
   -1.1010    1.1860    0.7370 C   0  0  0  0  0  0  0  0  0  0  0  0
   -0.9310    2.6380    0.6490 C   0  0  0  0  0  0  0  0  0  0  0  0
   -2.1320    3.3380    0.3190 C   0  0  0  0  0  0  0  0  0  0  0  0
   -3.2530    2.5990   -0.0170 O   0  0  0  0  0  0  0  0  0  0  0  0
   -2.1860    4.6780    0.3320 C   0  0  0  0  0  0  0  0  0  0  0  0
   -3.3880    5.4600   -0.1360 C   0  0  0  0  0  0  0  0  0  0  0  0
   -1.0850    5.4250    0.6720 C   0  0  0  0  0  0  0  0  0  0  0  0
    0.0810    4.8050    0.9880 C   0  0  0  0  0  0  0  0  0  0  0  0
    0.1470    3.3750    0.9800 C   0  0  0  0  0  0  0  0  0  0  0  0
    1.2960    2.8400    1.5520 C   0  0  0  0  0  0  0  0  0  0  0  0
    2.2760    2.3940    2.0480 N   0  0  0  0  0  0  0  0  0  0  0  0
    1.1360    5.8190    1.2970 C   0  0  0  0  0  0  0  0  0  0  0  0
    0.5860    7.0820    0.6800 C   0  0  0  0  0  0  0  0  0  0  0  0
   -0.9100    6.9360    0.8430 C   0  0  0  0  0  0  0  0  0  0  0  0
    1.3450   -0.8480   -1.2050 C   0  0  0  0  0  0  0  0  0  0  0  0
    6.0090   -1.2010   -0.1910 C   0  0  0  0  0  0  0  0  0  0  0  0
  1  2  1  0
  2  3  2  0
  2 43  1  0
  3  4  1  0
  4  5  1  0
  4  6  2  0
  6  7  1  0
  7  8  1  0
  7 43  2  0
  9  8  1  1
  9 10  1  0
  9 42  1  0
 10 11  1  0
 11 12  1  0
 13 12  1  1
 13 14  1  0
 13 42  1  0
 14 15  1  6
 14 28  1  0
 15 16  1  0
 16 17  2  0
 16 18  1  0
 18 19  1  0
 18 27  1  0
 19 20  1  0
 20 21  1  0
 21 22  1  0
 21 23  2  0
 23 24  1  0
 23 27  1  0
 24 25  1  0
 24 26  2  0
 28 29  1  0
 29 30  2  0
 29 36  1  0
 30 31  1  0
 30 32  1  0
 32 33  1  0
 32 34  2  0
 34 35  1  0
 34 41  1  0
 35 36  2  0
 35 39  1  0
 36 37  1  0
 37 38  3  0
 39 40  1  0
 40 41  1  0
M  CHG  2  14   1  25   1
M  END
