
     RDKit          3D

 43 47  0  0  0  0  0  0  0  0999 V2000
   -3.3820   -4.9810   -3.7420 N   0  0  0  0  0  0  0  0  0  0  0  0
   -2.8170   -3.9020   -3.0650 C   0  0  0  0  0  0  0  0  0  0  0  0
   -3.3680   -3.0390   -2.0800 C   0  0  0  0  0  0  0  0  0  0  0  0
   -4.2930   -2.6510   -1.3030 C   0  0  0  0  0  0  0  0  0  0  0  0
   -5.6160   -3.1760   -1.0680 C   0  0  0  0  0  0  0  0  0  0  0  0
   -6.1530   -4.2640   -1.4940 C   0  0  0  0  0  0  0  0  0  0  0  0
   -5.6230   -5.1890   -2.2590 F   0  0  0  0  0  0  0  0  0  0  0  0
   -6.4220   -2.3590   -0.2300 O   0  0  0  0  0  0  0  0  0  0  0  0
   -5.9360   -1.7120    0.9310 C   0  0  0  0  0  0  0  0  0  0  0  0
   -4.5260   -1.2640    0.7720 C   0  0  0  0  0  0  0  0  0  0  0  0
   -4.0620   -1.3630   -0.5960 N   0  0  0  0  0  0  0  0  0  0  0  0
   -3.4250   -0.2740   -1.2220 C   0  0  0  0  0  0  0  0  0  0  0  0
   -3.0000   -0.2350   -2.3990 O   0  0  0  0  0  0  0  0  0  0  0  0
   -3.2620    0.9250   -0.3650 C   0  0  0  0  0  0  0  0  0  0  0  0
   -4.2060    1.9120   -0.2880 C   0  0  0  0  0  0  0  0  0  0  0  0
   -4.0820    3.0220    0.5100 C   0  0  0  0  0  0  0  0  0  0  0  0
   -2.9570    3.1630    1.2760 C   0  0  0  0  0  0  0  0  0  0  0  0
   -2.7420    4.2780    2.1350 N   0  0  0  0  0  0  0  0  0  0  0  0
   -2.8830    4.2030    3.5770 C   0  0  0  0  0  0  0  0  0  0  0  0
   -3.2580    5.5870    4.0640 C   0  0  0  0  0  0  0  0  0  0  0  0
   -2.1660    6.5960    3.7920 C   0  0  0  0  0  0  0  0  0  0  0  0
   -1.8000    6.6390    2.3250 C   0  0  0  0  0  0  0  0  0  0  0  0
   -2.3710    5.5220    1.5690 C   0  0  0  0  0  0  0  0  0  0  0  0
   -2.5520    5.6610    0.3320 O   0  0  0  0  0  0  0  0  0  0  0  0
   -1.9820    2.1790    1.2200 C   0  0  0  0  0  0  0  0  0  0  0  0
   -2.1080    1.0640    0.4170 C   0  0  0  0  0  0  0  0  0  0  0  0
   -1.1180    0.0300    0.3150 C   0  0  0  0  0  0  0  0  0  0  0  0
   -0.0250    0.0340    1.0300 C   0  0  0  0  0  0  0  0  0  0  0  0
    0.9500   -1.0640    0.8700 C   0  0  0  0  0  0  0  0  0  0  0  0
    2.3010   -0.5820    0.4970 C   0  0  0  0  0  0  0  0  0  0  0  0
    2.5350    0.6510    0.5090 O   0  0  0  0  0  0  0  0  0  0  0  0
    3.3360   -1.4640    0.1270 N   0  0  0  0  0  0  0  0  0  0  0  0
    4.6870   -1.0240   -0.2430 C   0  0  1  0  0  0  0  0  0  0  0  0
    5.6530   -1.7530    0.6550 C   0  0  0  0  0  0  0  0  0  0  0  0
    7.0210   -1.4810    0.1610 C   0  0  0  0  0  0  0  0  0  0  0  0
    8.0500   -1.1250    1.0090 C   0  0  0  0  0  0  0  0  0  0  0  0
    9.3170   -0.8760    0.5290 C   0  0  0  0  0  0  0  0  0  0  0  0
    9.5650   -0.9840   -0.8440 C   0  0  0  0  0  0  0  0  0  0  0  0
    8.5380   -1.3420   -1.7160 C   0  0  0  0  0  0  0  0  0  0  0  0
    7.2670   -1.5860   -1.1830 C   0  0  0  0  0  0  0  0  0  0  0  0
    6.1540   -1.9650   -2.0840 C   0  0  0  0  0  0  0  0  0  0  0  0
    4.8950   -1.2590   -1.7000 C   0  0  2  0  0  0  0  0  0  0  0  0
    4.7730    0.0080   -2.4220 N   0  0  0  0  0  0  0  0  0  0  0  0
  1  2  1  0
  2  3  1  0
  3  4  2  3
  4  5  1  0
  4 11  1  0
  5  6  2  3
  5  8  1  0
  6  7  1  0
  8  9  1  0
  9 10  1  0
 10 11  1  0
 11 12  1  0
 12 13  2  0
 12 14  1  0
 14 15  2  0
 14 26  1  0
 15 16  1  0
 16 17  2  0
 17 18  1  0
 17 25  1  0
 18 19  1  0
 18 23  1  0
 19 20  1  0
 20 21  1  0
 21 22  1  0
 22 23  1  0
 23 24  2  0
 25 26  2  0
 26 27  1  0
 27 28  2  3
 28 29  1  0
 29 30  1  0
 30 31  2  0
 30 32  1  0
 33 32  1  1
 33 34  1  0
 33 42  1  0
 34 35  1  0
 35 36  2  0
 35 40  1  0
 36 37  1  0
 37 38  2  0
 38 39  1  0
 39 40  2  0
 40 41  1  0
 41 42  1  0
 42 43  1  6
M  CHG  2   1   1  43   1
M  END
