
     RDKit          3D

 43 47  0  0  0  0  0  0  0  0999 V2000
    2.3060   -4.4780    2.0090 C   0  0  0  0  0  0  0  0  0  0  0  0
    1.5570   -4.3870    0.7010 C   0  0  0  0  0  0  0  0  0  0  0  0
    0.4790   -3.4340    0.8470 N   0  0  0  0  0  0  0  0  0  0  0  0
   -0.2510   -3.3330   -0.3550 C   0  0  1  0  0  0  0  0  0  0  0  0
   -1.5550   -4.0150   -0.3540 C   0  0  0  0  0  0  0  0  0  0  0  0
   -1.9540   -4.8810    0.6300 C   0  0  0  0  0  0  0  0  0  0  0  0
   -3.1890   -5.5140    0.6070 C   0  0  0  0  0  0  0  0  0  0  0  0
   -3.5540   -6.3860    1.6270 O   0  0  0  0  0  0  0  0  0  0  0  0
   -4.0440   -5.2580   -0.4510 C   0  0  0  0  0  0  0  0  0  0  0  0
   -3.6410   -4.3870   -1.4410 C   0  0  0  0  0  0  0  0  0  0  0  0
   -2.3950   -3.7580   -1.4030 C   0  0  0  0  0  0  0  0  0  0  0  0
   -2.0430   -2.8380   -2.5110 C   0  0  0  0  0  0  0  0  0  0  0  0
   -0.8310   -2.0090   -2.2610 C   0  0  0  0  0  0  0  0  0  0  0  0
   -0.5250   -1.8690   -0.7720 C   0  0  2  0  0  0  0  0  0  0  0  0
    0.6340   -1.1370   -0.4930 N   0  0  0  0  0  0  0  0  0  0  0  0
    0.5690    0.1890    0.0200 C   0  0  2  0  0  0  0  0  0  0  0  0
   -0.6920    0.9230   -0.1130 C   0  0  0  0  0  0  0  0  0  0  0  0
   -1.4560    0.8460   -1.1100 O   0  0  0  0  0  0  0  0  0  0  0  0
   -1.1270    1.7860    0.9160 N   0  0  0  0  0  0  0  0  0  0  0  0
   -2.3180    2.5920    0.8690 C   0  0  0  0  0  0  0  0  0  0  0  0
   -2.8730    3.0450   -0.3040 C   0  0  0  0  0  0  0  0  0  0  0  0
   -3.9740    3.9150   -0.3310 C   0  0  0  0  0  0  0  0  0  0  0  0
   -4.5170    4.4090   -1.6190 C   0  0  0  0  0  0  0  0  0  0  0  0
   -5.8600    4.9370   -1.4480 N   0  0  0  0  0  0  0  0  0  0  0  0
   -4.5460    4.3480    0.8360 C   0  0  0  0  0  0  0  0  0  0  0  0
   -3.9720    3.8800    2.0090 C   0  0  0  0  0  0  0  0  0  0  0  0
   -2.9020    3.0350    2.0600 C   0  0  0  0  0  0  0  0  0  0  0  0
   -2.4030    2.5910    3.3980 C   0  0  0  0  0  0  0  0  0  0  0  0
    1.5720    1.0320   -0.8020 C   0  0  0  0  0  0  0  0  0  0  0  0
    3.0010    0.6770   -0.3670 C   0  0  0  0  0  0  0  0  0  0  0  0
    3.1970    1.4300    0.8820 N   0  0  0  0  0  0  0  0  0  0  0  0
    4.3340    2.1880    1.2030 C   0  0  0  0  0  0  0  0  0  0  0  0
    4.3480    2.9230    2.2500 O   0  0  0  0  0  0  0  0  0  0  0  0
    5.5510    2.2180    0.4190 C   0  0  0  0  0  0  0  0  0  0  0  0
    5.9640    1.2330   -0.4350 C   0  0  0  0  0  0  0  0  0  0  0  0
    7.0530    1.3720   -1.2760 C   0  0  0  0  0  0  0  0  0  0  0  0
    7.7800    2.5370   -1.2860 C   0  0  0  0  0  0  0  0  0  0  0  0
    8.8580    2.6890   -2.1260 F   0  0  0  0  0  0  0  0  0  0  0  0
    7.3880    3.5410   -0.4370 C   0  0  0  0  0  0  0  0  0  0  0  0
    6.2970    3.4040    0.4080 C   0  0  0  0  0  0  0  0  0  0  0  0
    2.0540    1.2550    1.7480 C   0  0  0  0  0  0  0  0  0  0  0  0
    1.9360    1.9810    2.7440 O   0  0  0  0  0  0  0  0  0  0  0  0
    1.0610    0.2210    1.4320 C   0  0  0  0  0  0  0  0  0  0  0  0
  1  2  1  0
  2  3  1  0
  4  3  1  1
  4  5  1  0
  4 14  1  0
  5  6  2  0
  5 11  1  0
  6  7  1  0
  7  8  1  0
  7  9  2  0
  9 10  1  0
 10 11  2  0
 11 12  1  0
 12 13  1  0
 13 14  1  0
 14 15  1  6
 16 15  1  6
 16 17  1  0
 16 29  1  0
 16 43  1  0
 17 18  2  0
 17 19  1  0
 19 20  1  0
 20 21  2  0
 20 27  1  0
 21 22  1  0
 22 23  1  0
 22 25  2  0
 23 24  1  0
 25 26  1  0
 26 27  2  0
 27 28  1  0
 29 30  1  0
 30 31  1  0
 31 32  1  0
 31 41  1  0
 32 33  2  0
 32 34  1  0
 34 35  2  0
 34 40  1  0
 35 36  1  0
 36 37  2  0
 37 38  1  0
 37 39  1  0
 39 40  2  0
 41 42  2  0
 41 43  1  0
M  CHG  2  15   1  24   1
M  END
