
     RDKit          3D

 43 47  0  0  0  0  0  0  0  0999 V2000
  -10.5130   -0.4880    1.8360 C   0  0  0  0  0  0  0  0  0  0  0  0
   -9.2210   -0.1120    1.3610 C   0  0  0  0  0  0  0  0  0  0  0  0
   -8.8400   -0.5100    0.0910 C   0  0  0  0  0  0  0  0  0  0  0  0
   -9.7870   -1.3170   -0.6850 C   0  0  0  0  0  0  0  0  0  0  0  0
   -9.0820   -2.5120   -0.9930 F   0  0  0  0  0  0  0  0  0  0  0  0
   -7.5080   -0.0770   -0.3090 C   0  0  0  0  0  0  0  0  0  0  0  0
   -6.4930   -0.4460    0.7770 C   0  0  1  0  0  0  0  0  0  0  0  0
   -5.1730    0.2060    0.5540 C   0  0  1  0  0  0  0  0  0  0  0  0
   -4.1820   -0.3450    1.5900 C   0  0  0  0  0  0  0  0  0  0  0  0
   -3.3080   -1.1920    0.7160 C   0  0  0  0  0  0  0  0  0  0  0  0
   -2.8970   -2.2920    0.8670 O   0  0  0  0  0  0  0  0  0  0  0  0
   -3.0880   -0.2300   -0.4600 C   0  0  1  0  0  0  0  0  0  0  0  0
   -2.1830   -0.7900   -1.4700 C   0  0  0  0  0  0  0  0  0  0  0  0
   -1.9050    0.2030   -2.5620 C   0  0  2  0  0  0  0  0  0  0  0  0
   -0.9670   -0.3060   -3.5960 C   0  0  0  0  0  0  0  0  0  0  0  0
    0.4380   -0.1900   -3.2200 C   0  0  0  0  0  0  0  0  0  0  0  0
    0.8460    0.4870   -2.0180 N   0  0  0  0  0  0  0  0  0  0  0  0
    2.1220    0.5180   -1.6700 C   0  0  0  0  0  0  0  0  0  0  0  0
    2.2000    1.3010   -0.4260 O   0  0  0  0  0  0  0  0  0  0  0  0
    3.4480    0.1720   -1.9180 C   0  0  0  0  0  0  0  0  0  0  0  0
    4.4630    0.4120   -1.0880 C   0  0  0  0  0  0  0  0  0  0  0  0
    4.0860    1.0450    0.1300 O   0  0  0  0  0  0  0  0  0  0  0  0
    5.8510    0.1200   -1.3240 C   0  0  0  0  0  0  0  0  0  0  0  0
    6.3310   -0.2670   -2.5160 C   0  0  0  0  0  0  0  0  0  0  0  0
    7.7160   -0.4920   -2.6230 C   0  0  0  0  0  0  0  0  0  0  0  0
    8.5860   -0.3170   -1.5380 C   0  0  0  0  0  0  0  0  0  0  0  0
    8.0850    0.0850   -0.3370 C   0  0  0  0  0  0  0  0  0  0  0  0
    8.8660    0.4690    0.8210 N   0  0  0  0  0  0  0  0  0  0  0  0
    9.4270    1.8220    0.8040 C   0  0  0  0  0  0  0  0  0  0  0  0
    9.4500    2.6110   -0.0750 O   0  0  0  0  0  0  0  0  0  0  0  0
    9.9710    1.9160    2.2390 C   0  0  0  0  0  0  0  0  0  0  0  0
   10.3880    3.3000    2.5600 C   0  0  0  0  0  0  0  0  0  0  0  0
   10.7560    4.4780    2.8370 N   0  0  0  0  0  0  0  0  0  0  0  0
    9.8000    0.9110    2.8210 C   0  0  0  0  0  0  0  0  0  0  0  0
    9.1200   -0.1960    2.0460 C   0  0  1  0  0  0  0  0  0  0  0  0
    7.8820   -0.6150    2.8360 C   0  0  0  0  0  0  0  0  0  0  0  0
    7.1830    0.5780    3.2780 N   0  0  0  0  0  0  0  0  0  0  0  0
    6.7120    0.2970   -0.2410 C   0  0  0  0  0  0  0  0  0  0  0  0
   -0.1290    1.1820   -1.1850 C   0  0  0  0  0  0  0  0  0  0  0  0
   -1.3350    1.5020   -1.9750 C   0  0  0  0  0  0  0  0  0  0  0  0
   -4.5640   -0.0960   -0.8160 C   0  0  0  0  0  0  0  0  0  0  0  0
   -7.0110   -0.2260    2.0850 N   0  0  0  0  0  0  0  0  0  0  0  0
   -8.2090    0.6180    2.1580 C   0  0  0  0  0  0  0  0  0  0  0  0
  1  2  1  0
  2  3  2  0
  2 43  1  0
  3  4  1  0
  3  6  1  0
  4  5  1  0
  7  6  1  6
  7  8  1  0
  7 42  1  0
  8  9  1  1
  8 41  1  0
  9 10  1  0
 10 11  2  0
 10 12  1  0
 12 13  1  6
 12 41  1  0
 14 13  1  1
 14 15  1  0
 14 40  1  0
 15 16  1  0
 16 17  1  0
 17 18  1  0
 17 39  1  0
 18 19  2  0
 18 20  1  0
 20 21  2  3
 21 22  1  0
 21 23  1  0
 23 24  2  0
 23 38  1  0
 24 25  1  0
 25 26  2  0
 26 27  1  0
 27 28  1  0
 27 38  2  0
 28 29  1  0
 28 35  1  0
 29 30  2  0
 29 31  1  0
 31 32  1  0
 31 34  2  0
 32 33  3  0
 34 35  1  0
 35 36  1  1
 36 37  1  0
 39 40  1  0
 42 43  1  0
M  CHG  2  37   1  42   1
M  END
