
     RDKit          3D

 14 13  0  0  0  0  0  0  0  0999 V2000
    3.2300   -2.0770    0.8040 C   0  0  0  0  0  0  0  0  0  0  0  0
    2.4540   -1.6320    2.3640 S   0  0  0  0  0  0  0  0  0  0  0  0
    0.4030   -1.4450    2.2480 S   0  0  0  0  0  0  0  0  0  0  0  0
   -0.4590    0.3100    1.8140 S   0  0  0  0  0  0  0  0  0  0  0  0
   -0.8310    0.8310    0.1830 C   0  0  2  0  0  0  0  0  0  0  0  0
   -1.8640    0.0440   -0.5040 C   0  0  0  0  0  0  0  0  0  0  0  0
   -2.4260   -0.9240    0.0620 N   0  0  0  0  0  0  0  0  0  0  0  0
   -2.3230    0.4710   -2.1630 S   0  0  0  0  0  0  0  0  0  0  0  0
    0.4110    0.9540   -0.6300 C   0  0  0  0  0  0  0  0  0  0  0  0
    1.0940   -0.2630   -1.1380 C   0  0  0  0  0  0  0  0  0  0  0  0
    0.9020    2.0350   -0.9020 O   0  0  0  0  0  0  0  0  0  0  0  0
   -1.4130    2.2350    0.3020 C   0  0  0  0  0  0  0  0  0  0  0  0
   -0.8620    3.2020   -0.2580 O   0  0  0  0  0  0  0  0  0  0  0  0
   -2.5620    2.3470    1.0530 O   0  0  0  0  0  0  0  0  0  0  0  0
  1  2  1  0
  2  3  1  0
  3  4  1  0
  5  4  1  1
  5  6  1  0
  5  9  1  0
  5 12  1  0
  6  7  2  0
  6  8  1  0
  9 10  1  0
  9 11  2  0
 12 13  2  0
 12 14  1  0
M  CHG  1   7   1
M  END
