
     RDKit          3D

 15 14  0  0  0  0  0  0  0  0999 V2000
   -4.0840    0.4440   -1.3340 N   0  0  0  0  0  0  0  0  0  0  0  0
   -3.8350   -0.6020   -0.3970 C   0  0  0  0  0  0  0  0  0  0  0  0
   -3.3980   -0.1200    0.9590 C   0  0  0  0  0  0  0  0  0  0  0  0
   -1.9090    0.8610    0.9690 S   0  0  0  0  0  0  0  0  0  0  0  0
   -0.4230    0.0150    0.4640 C   0  0  0  0  0  0  0  0  0  0  0  0
    0.7440    0.9790    0.6350 C   0  0  0  0  0  0  0  0  0  0  0  0
    2.0150    0.3720    0.2250 C   0  0  0  0  0  0  0  0  0  0  0  0
    2.4860    0.6570   -0.9050 O   0  0  0  0  0  0  0  0  0  0  0  0
    2.6880   -0.5320    1.1210 C   0  0  0  0  0  0  0  0  0  0  0  0
    2.0470   -0.8790    2.5610 S   0  0  0  0  0  0  0  0  0  0  0  0
    4.2250   -1.2700    0.6520 S   0  0  0  0  0  0  0  0  0  0  0  0
    4.8900   -0.6230   -1.2510 S   0  0  0  0  0  0  0  0  0  0  0  0
    6.1210    1.1210   -1.0930 S   0  0  0  0  0  0  0  0  0  0  0  0
    7.7390    0.6200   -0.9110 O   0  0  0  0  0  0  0  0  0  0  0  0
    7.8810   -0.6820   -0.9500 O   0  0  0  0  0  0  0  0  0  0  0  0
  1  2  1  0
  2  3  1  0
  3  4  1  0
  4  5  1  0
  5  6  1  0
  6  7  1  0
  7  8  2  0
  7  9  1  0
  9 10  2  0
  9 11  1  0
 11 12  1  0
 12 13  1  0
 13 14  1  0
 14 15  1  0
M  CHG  2   1   1  15  -1
M  END
