
     RDKit          3D

 15 14  0  0  0  0  0  0  0  0999 V2000
   -2.4690    2.0260   -0.2330 C   0  0  0  0  0  0  0  0  0  0  0  0
   -1.3120    1.1130   -0.1450 C   0  0  0  0  0  0  0  0  0  0  0  0
   -1.3400   -0.1870   -0.0960 C   0  0  0  0  0  0  0  0  0  0  0  0
    0.1920   -1.1180    0.0100 S   0  0  0  0  0  0  0  0  0  0  0  0
    1.5480   -0.0270    0.0280 N   0  0  0  0  0  0  0  0  0  0  0  0
    2.7200   -0.4470    0.3930 C   0  0  0  0  0  0  0  0  0  0  0  0
    4.1320    0.6430    0.4230 S   0  0  0  0  0  0  0  0  0  0  0  0
    3.4760    2.5640   -0.2130 S   0  0  0  0  0  0  0  0  0  0  0  0
    2.9760    3.4390    1.1740 O   0  0  0  0  0  0  0  0  0  0  0  0
    2.9110   -1.8360    0.7910 C   0  0  0  0  0  0  0  0  0  0  0  0
    1.8110   -2.7230    0.7760 O   0  0  0  0  0  0  0  0  0  0  0  0
    4.3830   -2.3450    1.2440 S   0  0  0  0  0  0  0  0  0  0  0  0
   -2.5760   -0.9200   -0.1230 C   0  0  0  0  0  0  0  0  0  0  0  0
   -2.5580   -2.3310   -0.0670 O   0  0  0  0  0  0  0  0  0  0  0  0
   -4.0380   -0.2470   -0.2140 S   0  0  0  0  0  0  0  0  0  0  0  0
  1  2  1  0
  2  3  2  3
  3  4  1  0
  3 13  1  0
  4  5  1  0
  5  6  2  3
  6  7  1  0
  6 10  1  0
  7  8  1  0
  8  9  1  0
 10 11  1  0
 10 12  2  0
 13 14  1  0
 13 15  2  0
M  CHG  1   9  -1
M  END
