
     RDKit          3D

 15 14  0  0  0  0  0  0  0  0999 V2000
   -4.0640    1.4120    2.4070 O   0  0  0  0  0  0  0  0  0  0  0  0
   -3.9710    0.5270    1.5450 C   0  0  0  0  0  0  0  0  0  0  0  0
   -5.0800    0.0850    0.8740 O   0  0  0  0  0  0  0  0  0  0  0  0
   -2.6550   -0.0630    1.2320 C   0  0  0  0  0  0  0  0  0  0  0  0
   -2.7470   -1.1170    0.1620 C   0  0  0  0  0  0  0  0  0  0  0  0
   -1.0850   -1.7650   -0.1420 S   0  0  0  0  0  0  0  0  0  0  0  0
   -0.0920   -0.4720   -0.8760 C   0  0  0  0  0  0  0  0  0  0  0  0
   -0.7210    1.1550   -1.2480 S   0  0  0  0  0  0  0  0  0  0  0  0
    1.1230   -0.7390   -1.1420 N   0  0  0  0  0  0  0  0  0  0  0  0
    1.8050   -2.3180   -0.8040 S   0  0  0  0  0  0  0  0  0  0  0  0
    1.9340    0.3000   -1.7350 C   0  0  0  0  0  0  0  0  0  0  0  0
    3.0830    0.5890   -0.8380 C   0  0  0  0  0  0  0  0  0  0  0  0
    3.8660    1.4490   -1.1850 O   0  0  0  0  0  0  0  0  0  0  0  0
    3.2960   -0.2890    0.6770 S   0  0  0  0  0  0  0  0  0  0  0  0
    5.0270    0.3550    1.7320 S   0  0  0  0  0  0  0  0  0  0  0  0
  1  2  2  0
  2  3  1  0
  2  4  1  0
  4  5  1  0
  5  6  1  0
  6  7  1  0
  7  8  1  0
  7  9  2  3
  9 10  1  0
  9 11  1  0
 11 12  1  0
 12 13  2  0
 12 14  1  0
 14 15  1  0
M  CHG  2   3  -1   9   1
M  END
