
     RDKit          3D

  9  8  0  0  0  0  0  0  0  0999 V2000
   -3.0660   -0.6400    0.7260 O   0  0  0  0  0  0  0  0  0  0  0  0
   -3.2370    0.2860   -0.1200 C   0  0  0  0  0  0  0  0  0  0  0  0
   -2.1040    1.0370   -0.4220 O   0  0  0  0  0  0  0  0  0  0  0  0
   -0.9020    0.8090    0.1370 N   0  0  0  0  0  0  0  0  0  0  0  0
   -0.1150   -0.2090   -0.4860 C   0  0  0  0  0  0  0  0  0  0  0  0
    1.4920   -0.3310    0.4680 P   0  0  0  0  0  0  0  0  0  0  0  0
    2.0470   -1.9440    0.5860 O   0  0  0  0  0  0  0  0  0  0  0  0
    2.6320    0.7450   -0.2360 O   0  0  0  0  0  0  0  0  0  0  0  0
    3.6610    0.8300    0.5970 O   0  0  0  0  0  0  0  0  0  0  0  0
  1  2  2  0
  2  3  1  0
  3  4  1  0
  4  5  1  0
  5  6  1  0
  6  7  1  0
  6  8  1  0
  8  9  1  0
M  END
