
     RDKit          3D

  8  7  0  0  0  0  0  0  0  0999 V2000
    3.2840   -0.2770   -0.0060 N   0  0  0  0  0  0  0  0  0  0  0  0
    1.9290   -0.4580    0.5300 C   0  0  0  0  0  0  0  0  0  0  0  0
    1.1180   -0.7130   -0.5790 O   0  0  0  0  0  0  0  0  0  0  0  0
   -0.1420   -0.8990   -0.2420 O   0  0  0  0  0  0  0  0  0  0  0  0
   -0.7620    0.3340   -0.2710 C   0  0  0  0  0  0  0  0  0  0  0  0
   -2.5310    0.3050    0.1680 P   0  0  0  0  0  0  0  0  0  0  0  0
   -3.0160   -1.0230    1.1180 O   0  0  0  0  0  0  0  0  0  0  0  0
   -3.0710    1.8210    0.7440 O   0  0  0  0  0  0  0  0  0  0  0  0
  1  2  1  0
  2  3  1  0
  3  4  1  0
  4  5  1  0
  5  6  1  0
  6  7  1  0
  6  8  1  0
M  END
