
     RDKit          3D

  9  8  0  0  0  0  0  0  0  0999 V2000
   -3.0380    0.6660    0.1720 N   0  0  0  0  0  0  0  0  0  0  0  0
   -1.8400    0.2430    0.6860 O   0  0  0  0  0  0  0  0  0  0  0  0
   -1.6490   -1.0570    0.1050 C   0  0  0  0  0  0  0  0  0  0  0  0
   -0.1540   -1.2480    0.0620 C   0  0  0  0  0  0  0  0  0  0  0  0
    0.4040    0.0530   -0.2270 O   0  0  0  0  0  0  0  0  0  0  0  0
    1.2140    0.1590    0.8530 O   0  0  0  0  0  0  0  0  0  0  0  0
    2.6730    0.9710    0.7180 P   0  0  0  0  0  0  0  0  0  0  0  0
    3.8120    0.0350   -0.2220 O   0  0  0  0  0  0  0  0  0  0  0  0
    2.5970    2.5910    0.1970 O   0  0  0  0  0  0  0  0  0  0  0  0
  1  2  1  0
  2  3  1  0
  3  4  1  0
  4  5  1  0
  5  6  1  0
  6  7  1  0
  7  8  1  0
  7  9  1  0
M  END
