
     RDKit          3D

 32 35  0  0  0  0  0  0  0  0999 V2000
   -0.0930    2.3740   -1.8650 O   0  0  0  0  0  0  0  0  0  0  0  0
   -0.1260    1.4120   -1.0580 C   0  0  0  0  0  0  0  0  0  0  0  0
   -1.3550    1.0560   -0.5560 O   0  0  0  0  0  0  0  0  0  0  0  0
   -2.5600    1.7140   -0.9030 C   0  0  0  0  0  0  0  0  0  0  0  0
   -3.7570    1.1330   -0.2200 C   0  0  1  0  0  0  0  0  0  0  0  0
   -4.0050   -0.3010   -0.5190 C   0  0  1  0  0  0  0  0  0  0  0  0
   -3.5690   -0.7070   -1.9090 C   0  0  0  0  0  0  0  0  0  0  0  0
   -3.8330   -2.0600   -2.1150 O   0  0  0  0  0  0  0  0  0  0  0  0
   -3.3690   -1.2300    0.5190 C   0  0  0  0  0  0  0  0  0  0  0  0
   -4.1820   -1.0590    1.7950 C   0  0  0  0  0  0  0  0  0  0  0  0
   -4.6700    0.3630    1.9590 C   0  0  1  0  0  0  0  0  0  0  0  0
   -4.6780    0.6740    3.3070 O   0  0  0  0  0  0  0  0  0  0  0  0
   -3.7470    1.3530    1.2710 C   0  0  2  0  0  0  0  0  0  0  0  0
   -4.2460    2.6350    1.5980 O   0  0  0  0  0  0  0  0  0  0  0  0
    1.1210    0.7560   -0.7200 C   0  0  0  0  0  0  0  0  0  0  0  0
    1.1970   -0.3090    0.1550 C   0  0  0  0  0  0  0  0  0  0  0  0
    2.4080   -0.8980    0.4430 C   0  0  0  0  0  0  0  0  0  0  0  0
    3.5940   -0.4660   -0.1150 C   0  0  0  0  0  0  0  0  0  0  0  0
    3.5260    0.6020   -0.9930 C   0  0  0  0  0  0  0  0  0  0  0  0
    4.4650    1.2780   -1.7140 C   0  0  0  0  0  0  0  0  0  0  0  0
    5.8320    1.0490   -1.7500 O   0  0  0  0  0  0  0  0  0  0  0  0
    3.8060    2.2540   -2.4160 C   0  0  0  0  0  0  0  0  0  0  0  0
    4.3280    3.2000   -3.2920 O   0  0  0  0  0  0  0  0  0  0  0  0
    2.5500    2.1520   -2.1210 O   0  0  0  0  0  0  0  0  0  0  0  0
    2.3080    1.1840   -1.2740 C   0  0  0  0  0  0  0  0  0  0  0  0
    4.9070   -1.0620    0.1620 C   0  0  0  0  0  0  0  0  0  0  0  0
    4.9580   -1.7160    1.5380 C   0  0  1  0  0  0  0  0  0  0  0  0
    4.8990   -0.7540    2.5180 O   0  0  0  0  0  0  0  0  0  0  0  0
    3.8090   -2.6980    1.5890 C   0  0  1  0  0  0  0  0  0  0  0  0
    3.8570   -3.4110    2.7680 O   0  0  0  0  0  0  0  0  0  0  0  0
    2.4960   -2.0310    1.3720 C   0  0  0  0  0  0  0  0  0  0  0  0
    1.4370   -2.3980    1.9580 O   0  0  0  0  0  0  0  0  0  0  0  0
  1  2  2  0
  2  3  1  0
  2 15  1  0
  3  4  1  0
  5  4  1  1
  5  6  1  0
  5 13  1  0
  6  7  1  6
  6  9  1  0
  7  8  1  0
  9 10  1  0
 10 11  1  0
 11 12  1  1
 11 13  1  0
 13 14  1  6
 15 16  2  0
 15 25  1  0
 16 17  1  0
 17 18  2  0
 17 31  1  0
 18 19  1  0
 18 26  1  0
 19 20  1  0
 19 25  2  0
 20 21  1  0
 20 22  2  0
 22 23  1  0
 22 24  1  0
 24 25  1  0
 26 27  1  0
 27 28  1  1
 27 29  1  0
 29 30  1  1
 29 31  1  0
 31 32  2  0
M  END
