
     RDKit          3D

 33 37  0  0  0  0  0  0  0  0999 V2000
    3.7680    2.3970    0.3520 O   0  0  0  0  0  0  0  0  0  0  0  0
    4.1230    1.9400    1.4600 C   0  0  0  0  0  0  0  0  0  0  0  0
    4.3630    2.8220    2.4950 O   0  0  0  0  0  0  0  0  0  0  0  0
    4.2690    0.5050    1.6190 C   0  0  0  0  0  0  0  0  0  0  0  0
    4.6600   -0.0670    2.8260 C   0  0  0  0  0  0  0  0  0  0  0  0
    4.7920   -1.4340    2.9500 C   0  0  0  0  0  0  0  0  0  0  0  0
    4.5410   -2.2730    1.8880 C   0  0  0  0  0  0  0  0  0  0  0  0
    4.1500   -1.7390    0.6730 C   0  0  0  0  0  0  0  0  0  0  0  0
    3.8860   -2.5320   -0.4330 O   0  0  0  0  0  0  0  0  0  0  0  0
    3.3340   -1.9970   -1.5820 C   0  0  0  0  0  0  0  0  0  0  0  0
    4.0530   -1.9860   -2.7830 C   0  0  0  0  0  0  0  0  0  0  0  0
    3.4980   -1.4510   -3.9240 C   0  0  0  0  0  0  0  0  0  0  0  0
    2.2290   -0.9290   -3.8670 C   0  0  0  0  0  0  0  0  0  0  0  0
    1.4960   -0.9280   -2.6900 C   0  0  0  0  0  0  0  0  0  0  0  0
    0.2440   -0.4230   -2.6450 N   0  0  0  0  0  0  0  0  0  0  0  0
   -0.5310   -0.3970   -1.5530 C   0  0  0  0  0  0  0  0  0  0  0  0
   -1.8780    0.1590   -1.5500 C   0  0  0  0  0  0  0  0  0  0  0  0
   -2.7370    0.2230   -0.4720 C   0  0  0  0  0  0  0  0  0  0  0  0
   -3.8800    0.7970   -0.8490 N   0  0  0  0  0  0  0  0  0  0  0  0
   -4.9940    1.0310   -0.0060 C   0  0  0  0  0  0  0  0  0  0  0  0
   -4.9320    1.8900    1.0690 C   0  0  0  0  0  0  0  0  0  0  0  0
   -6.0150    2.1120    1.8830 C   0  0  0  0  0  0  0  0  0  0  0  0
   -7.2090    1.4700    1.6380 C   0  0  0  0  0  0  0  0  0  0  0  0
   -8.2750    1.7260    2.4850 O   0  0  0  0  0  0  0  0  0  0  0  0
   -7.2830    0.6080    0.5640 C   0  0  0  0  0  0  0  0  0  0  0  0
   -8.4660   -0.0290    0.3190 F   0  0  0  0  0  0  0  0  0  0  0  0
   -6.2050    0.3740   -0.2620 C   0  0  0  0  0  0  0  0  0  0  0  0
   -3.7800    1.1000   -2.1250 N   0  0  0  0  0  0  0  0  0  0  0  0
   -2.5650    0.7170   -2.5630 N   0  0  0  0  0  0  0  0  0  0  0  0
    0.0150   -0.9320   -0.4070 C   0  0  0  0  0  0  0  0  0  0  0  0
    1.2880   -1.4620   -0.3910 C   0  0  0  0  0  0  0  0  0  0  0  0
    2.0630   -1.4730   -1.5310 C   0  0  0  0  0  0  0  0  0  0  0  0
    4.0240   -0.3550    0.5710 C   0  0  0  0  0  0  0  0  0  0  0  0
  1  2  2  0
  2  3  1  0
  2  4  1  0
  4  5  2  0
  4 33  1  0
  5  6  1  0
  6  7  2  0
  7  8  1  0
  8  9  1  0
  8 33  2  0
  9 10  1  0
 10 11  2  0
 10 32  1  0
 11 12  1  0
 12 13  2  0
 13 14  1  0
 14 15  2  0
 14 32  1  0
 15 16  1  0
 16 17  1  0
 16 30  2  0
 17 18  2  0
 17 29  1  0
 18 19  1  0
 19 20  1  0
 19 28  1  0
 20 21  2  0
 20 27  1  0
 21 22  1  0
 22 23  2  0
 23 24  1  0
 23 25  1  0
 25 26  1  0
 25 27  2  0
 28 29  2  0
 30 31  1  0
 31 32  2  0
M  END
