
     RDKit          3D

 32 34  0  0  0  0  0  0  0  0999 V2000
    2.8860    0.6560    1.1270 C   0  0  0  0  0  0  0  0  0  0  0  0
    2.3300   -0.4280    0.1860 C   0  0  1  0  0  0  0  0  0  0  0  0
    3.3330   -0.4160   -0.9830 C   0  0  1  0  0  0  0  0  0  0  0  0
    4.7550   -0.7050   -0.7490 C   0  0  0  0  0  0  0  0  0  0  0  0
    3.8610   -1.6450   -1.5650 C   0  0  0  0  0  0  0  0  0  0  0  0
    2.4200   -1.5900    0.8840 O   0  0  0  0  0  0  0  0  0  0  0  0
    1.6520   -2.6510    0.5360 C   0  0  0  0  0  0  0  0  0  0  0  0
    0.6740   -3.0340    1.6560 C   0  0  1  0  0  0  0  0  0  0  0  0
    0.8930   -2.1370    2.6990 O   0  0  0  0  0  0  0  0  0  0  0  0
   -0.7640   -2.8910    1.1510 C   0  0  0  0  0  0  0  0  0  0  0  0
   -1.2380   -1.6640    1.5870 O   0  0  0  0  0  0  0  0  0  0  0  0
   -2.4270   -1.0310    1.2670 C   0  0  0  0  0  0  0  0  0  0  0  0
   -3.1440   -0.6710    2.2800 O   0  0  0  0  0  0  0  0  0  0  0  0
   -2.9580   -0.7250   -0.0480 C   0  0  0  0  0  0  0  0  0  0  0  0
   -4.1520   -1.3200   -0.3130 C   0  0  0  0  0  0  0  0  0  0  0  0
   -4.7630   -1.0900   -1.5740 O   0  0  0  0  0  0  0  0  0  0  0  0
   -4.9110   -2.1990    0.5760 C   0  0  0  0  0  0  0  0  0  0  0  0
   -5.0310   -3.4370   -0.1120 O   0  0  0  0  0  0  0  0  0  0  0  0
   -2.3380    0.1400   -1.0470 C   0  0  0  0  0  0  0  0  0  0  0  0
   -2.3620   -0.3640   -2.2420 O   0  0  0  0  0  0  0  0  0  0  0  0
   -1.7130    1.4390   -0.9550 C   0  0  0  0  0  0  0  0  0  0  0  0
   -2.3370    2.5340   -1.6990 O   0  0  0  0  0  0  0  0  0  0  0  0
   -0.6540    1.8510   -0.3170 C   0  0  0  0  0  0  0  0  0  0  0  0
   -0.3060    3.2990   -0.4540 C   0  0  0  0  0  0  0  0  0  0  0  0
    0.1770    4.1280    0.5230 C   0  0  0  0  0  0  0  0  0  0  0  0
    0.3540    5.3830   -0.0620 C   0  0  0  0  0  0  0  0  0  0  0  0
    0.8290    6.5250    0.5720 O   0  0  0  0  0  0  0  0  0  0  0  0
   -0.0390    5.2290   -1.3740 C   0  0  0  0  0  0  0  0  0  0  0  0
   -0.4170    3.9890   -1.5540 O   0  0  0  0  0  0  0  0  0  0  0  0
    0.2900    1.0520    0.5150 C   0  0  0  0  0  0  0  0  0  0  0  0
    1.0110    0.0190   -0.2810 C   0  0  1  0  0  0  0  0  0  0  0  0
    1.2020    0.6270   -1.5590 O   0  0  0  0  0  0  0  0  0  0  0  0
  2  1  1  1
  2  3  1  0
  2  6  1  0
  2 31  1  0
  3  4  1  1
  3  5  1  0
  4  5  1  0
  6  7  1  0
  7  8  1  0
  8  9  1  1
  8 10  1  0
 10 11  1  0
 11 12  1  0
 12 13  2  0
 12 14  1  0
 14 15  2  3
 14 19  1  0
 15 16  1  0
 15 17  1  0
 17 18  1  0
 19 20  2  0
 19 21  1  0
 21 22  1  0
 21 23  2  0
 23 24  1  0
 23 30  1  0
 24 25  2  0
 24 29  1  0
 25 26  1  0
 26 27  1  0
 26 28  2  0
 28 29  1  0
 30 31  1  0
 31 32  1  6
M  END
