
     RDKit          3D

 32 35  0  0  0  0  0  0  0  0999 V2000
   -0.5010    4.7630   -0.5470 O   0  0  0  0  0  0  0  0  0  0  0  0
   -1.1580    3.9000    0.0940 C   0  0  0  0  0  0  0  0  0  0  0  0
   -0.9150    2.6030   -0.0300 O   0  0  0  0  0  0  0  0  0  0  0  0
   -1.5780    1.7000    0.6180 C   0  0  0  0  0  0  0  0  0  0  0  0
   -1.2470    0.2860    0.4270 C   0  0  0  0  0  0  0  0  0  0  0  0
    0.0600   -0.0370    0.5030 C   0  0  0  0  0  0  0  0  0  0  0  0
    1.1570    0.8140    0.7470 O   0  0  0  0  0  0  0  0  0  0  0  0
    2.3060    0.0270    0.7360 C   0  0  2  0  0  0  0  0  0  0  0  0
    3.3260    0.5230   -0.2220 C   0  0  0  0  0  0  0  0  0  0  0  0
    4.3960   -0.2690   -0.5130 C   0  0  0  0  0  0  0  0  0  0  0  0
    5.4030    0.1290   -1.3940 C   0  0  0  0  0  0  0  0  0  0  0  0
    6.5020   -0.6940   -1.6870 O   0  0  0  0  0  0  0  0  0  0  0  0
    5.3170    1.3490   -1.9860 C   0  0  0  0  0  0  0  0  0  0  0  0
    4.2430    2.1680   -1.7070 C   0  0  0  0  0  0  0  0  0  0  0  0
    3.2450    1.7570   -0.8240 C   0  0  0  0  0  0  0  0  0  0  0  0
    2.1850    2.6070   -0.5700 O   0  0  0  0  0  0  0  0  0  0  0  0
    1.8690   -1.3440    0.4730 C   0  0  0  0  0  0  0  0  0  0  0  0
    2.6690   -2.5040    0.3670 O   0  0  0  0  0  0  0  0  0  0  0  0
    0.5300   -1.3610    0.3360 C   0  0  0  0  0  0  0  0  0  0  0  0
   -0.4030   -2.4710    0.0490 C   0  0  0  0  0  0  0  0  0  0  0  0
   -1.8190   -2.1600    0.3240 C   0  0  2  0  0  0  0  0  0  0  0  0
   -2.7430   -2.9670   -0.6080 C   0  0  2  0  0  0  0  0  0  0  0  0
   -4.0420   -2.6440   -0.3100 O   0  0  0  0  0  0  0  0  0  0  0  0
   -2.4700   -4.4370   -0.5410 C   0  0  0  0  0  0  0  0  0  0  0  0
   -3.2840   -5.0830   -1.4630 O   0  0  0  0  0  0  0  0  0  0  0  0
   -2.2380   -0.7290    0.1310 C   0  0  1  0  0  0  0  0  0  0  0  0
   -3.3350   -0.5500    1.0190 O   0  0  0  0  0  0  0  0  0  0  0  0
   -2.5720    2.0610    1.4730 C   0  0  0  0  0  0  0  0  0  0  0  0
   -2.8620    3.4240    1.6340 C   0  0  0  0  0  0  0  0  0  0  0  0
   -3.8660    3.8100    2.4940 O   0  0  0  0  0  0  0  0  0  0  0  0
   -2.1490    4.3550    0.9380 C   0  0  0  0  0  0  0  0  0  0  0  0
   -2.4310    5.7120    1.0920 O   0  0  0  0  0  0  0  0  0  0  0  0
  1  2  2  0
  2  3  1  0
  2 31  1  0
  3  4  1  0
  4  5  1  0
  4 28  2  0
  5  6  2  0
  5 26  1  0
  6  7  1  0
  6 19  1  0
  7  8  1  0
  8  9  1  6
  8 17  1  0
  9 10  2  0
  9 15  1  0
 10 11  1  0
 11 12  1  0
 11 13  2  0
 13 14  1  0
 14 15  2  0
 15 16  1  0
 17 18  1  0
 17 19  2  0
 19 20  1  0
 21 20  1  6
 21 22  1  0
 21 26  1  0
 22 23  1  1
 22 24  1  0
 24 25  1  0
 26 27  1  1
 28 29  1  0
 29 30  1  0
 29 31  2  0
 31 32  1  0
M  END
