
     RDKit          3D

 31 33  0  0  0  0  0  0  0  0999 V2000
   -2.9480    2.8760   -0.1100 C   0  0  0  0  0  0  0  0  0  0  0  0
   -2.8160    1.8230   -1.0400 O   0  0  0  0  0  0  0  0  0  0  0  0
   -2.5460    0.5380   -0.5900 C   0  0  0  0  0  0  0  0  0  0  0  0
   -3.6840   -0.2400   -0.3190 C   0  0  0  0  0  0  0  0  0  0  0  0
   -3.5600   -1.5010    0.1220 C   0  0  0  0  0  0  0  0  0  0  0  0
   -2.2460   -1.9890    0.2940 C   0  0  0  0  0  0  0  0  0  0  0  0
   -1.1040   -1.2680    0.0420 C   0  0  0  0  0  0  0  0  0  0  0  0
   -1.2610    0.0440   -0.4150 C   0  0  0  0  0  0  0  0  0  0  0  0
   -0.2340    0.9060   -0.7090 O   0  0  0  0  0  0  0  0  0  0  0  0
    1.0400    0.9600   -0.1550 C   0  0  0  0  0  0  0  0  0  0  0  0
    1.4570    2.3310    0.2300 C   0  0  0  0  0  0  0  0  0  0  0  0
    0.6090    3.5300    0.1330 C   0  0  0  0  0  0  0  0  0  0  0  0
    1.3220    4.6350    0.5770 O   0  0  0  0  0  0  0  0  0  0  0  0
    2.7050    2.4840    0.7030 C   0  0  0  0  0  0  0  0  0  0  0  0
    3.1540    3.7600    1.0820 O   0  0  0  0  0  0  0  0  0  0  0  0
    3.6500    1.3580    0.8510 C   0  0  0  0  0  0  0  0  0  0  0  0
    3.9690    0.7370   -0.3610 O   0  0  0  0  0  0  0  0  0  0  0  0
    4.4200   -0.5630   -0.1550 C   0  0  2  0  0  0  0  0  0  0  0  0
    5.8660   -0.6400   -0.6530 C   0  0  0  0  0  0  0  0  0  0  0  0
    6.6750    0.2490    0.0390 O   0  0  0  0  0  0  0  0  0  0  0  0
    3.6130   -1.6010   -0.9030 C   0  0  0  0  0  0  0  0  0  0  0  0
    2.4950   -2.1450   -0.0220 C   0  0  2  0  0  0  0  0  0  0  0  0
    2.8200   -3.4370    0.3960 O   0  0  0  0  0  0  0  0  0  0  0  0
    1.1470   -2.1160   -0.7220 C   0  0  0  0  0  0  0  0  0  0  0  0
    0.1470   -1.8340    0.2360 O   0  0  0  0  0  0  0  0  0  0  0  0
   -4.6880   -2.3830    0.4340 C   0  0  2  0  0  0  0  0  0  0  0  0
   -4.5420   -3.5180   -0.4290 O   0  0  0  0  0  0  0  0  0  0  0  0
   -6.0220   -1.8100    0.2000 C   0  0  1  0  0  0  0  0  0  0  0  0
   -6.8570   -1.9520    1.3480 O   0  0  0  0  0  0  0  0  0  0  0  0
   -6.0580   -0.4380   -0.2800 C   0  0  0  0  0  0  0  0  0  0  0  0
   -5.0210    0.3370   -0.5370 C   0  0  0  0  0  0  0  0  0  0  0  0
  1  2  1  0
  2  3  1  0
  3  4  2  0
  3  8  1  0
  4  5  1  0
  4 31  1  0
  5  6  2  0
  5 26  1  0
  6  7  1  0
  7  8  2  0
  7 25  1  0
  8  9  1  0
  9 10  1  0
 10 11  1  0
 11 12  1  0
 11 14  2  0
 12 13  1  0
 14 15  1  0
 14 16  1  0
 16 17  1  0
 17 18  1  0
 18 19  1  6
 18 21  1  0
 19 20  1  0
 21 22  1  0
 22 23  1  6
 22 24  1  0
 24 25  1  0
 26 27  1  6
 26 28  1  0
 28 29  1  1
 28 30  1  0
 30 31  2  0
M  END
