
     RDKit          3D

 20 22  0  0  0  0  0  0  0  0999 V2000
   -5.1980   -2.4730    0.4160 C   0  0  0  0  0  0  0  0  0  0  0  0
   -5.3370   -1.1340    0.8460 O   0  0  0  0  0  0  0  0  0  0  0  0
   -4.2180   -0.3040    0.7650 C   0  0  0  0  0  0  0  0  0  0  0  0
   -4.2990    1.0140    1.1710 C   0  0  0  0  0  0  0  0  0  0  0  0
   -3.2310    1.8860    1.1160 C   0  0  0  0  0  0  0  0  0  0  0  0
   -2.0160    1.4400    0.6360 C   0  0  0  0  0  0  0  0  0  0  0  0
   -1.9390    0.1250    0.2320 C   0  0  0  0  0  0  0  0  0  0  0  0
   -3.0060   -0.7460    0.2860 C   0  0  0  0  0  0  0  0  0  0  0  0
   -0.8120   -0.5380   -0.2870 O   0  0  0  0  0  0  0  0  0  0  0  0
    0.4910   -0.0740   -0.3320 C   0  0  0  0  0  0  0  0  0  0  0  0
    1.3840   -1.1220   -0.3740 C   0  0  0  0  0  0  0  0  0  0  0  0
    2.7550   -0.8450   -0.4240 C   0  0  0  0  0  0  0  0  0  0  0  0
    3.1730    0.4570   -0.4290 C   0  0  0  0  0  0  0  0  0  0  0  0
    4.5250    0.7710   -0.4770 O   0  0  0  0  0  0  0  0  0  0  0  0
    5.5140   -0.2370   -0.5220 C   0  0  0  0  0  0  0  0  0  0  0  0
    5.4750   -1.1130    0.6300 N   0  0  0  0  0  0  0  0  0  0  0  0
    2.2510    1.4950   -0.3850 C   0  0  0  0  0  0  0  0  0  0  0  0
    0.8950    1.2450   -0.3360 C   0  0  0  0  0  0  0  0  0  0  0  0
    0.0620    2.4740   -0.2940 C   0  0  0  0  0  0  0  0  0  0  0  0
   -1.0110    2.3690    0.6160 O   0  0  0  0  0  0  0  0  0  0  0  0
  1  2  1  0
  2  3  1  0
  3  4  2  0
  3  8  1  0
  4  5  1  0
  5  6  2  0
  6  7  1  0
  6 20  1  0
  7  8  2  0
  7  9  1  0
  9 10  1  0
 10 11  2  0
 10 18  1  0
 11 12  1  0
 12 13  2  0
 13 14  1  0
 13 17  1  0
 14 15  1  0
 15 16  1  0
 17 18  2  0
 18 19  1  0
 19 20  1  0
M  END
