
     RDKit          3D

 20 22  0  0  0  0  0  0  0  0999 V2000
    4.9330   -1.2570   -0.9100 C   0  0  0  0  0  0  0  0  0  0  0  0
    3.5340   -0.8380   -0.6000 C   0  0  0  0  0  0  0  0  0  0  0  0
    3.4400    0.5020   -0.2270 O   0  0  0  0  0  0  0  0  0  0  0  0
    2.1670    1.0150    0.0910 C   0  0  0  0  0  0  0  0  0  0  0  0
    2.0260    2.3300    0.4640 C   0  0  0  0  0  0  0  0  0  0  0  0
    0.8110    2.8840    0.7850 C   0  0  0  0  0  0  0  0  0  0  0  0
   -0.3190    2.0930    0.7330 C   0  0  0  0  0  0  0  0  0  0  0  0
   -0.1910    0.7500    0.3540 C   0  0  0  0  0  0  0  0  0  0  0  0
    1.0340    0.2160    0.0370 C   0  0  0  0  0  0  0  0  0  0  0  0
   -1.3760   -0.0780    0.2860 C   0  0  0  0  0  0  0  0  0  0  0  0
   -1.0640   -1.3680   -0.0670 C   0  0  0  0  0  0  0  0  0  0  0  0
   -1.8850   -2.2160   -0.7780 C   0  0  0  0  0  0  0  0  0  0  0  0
   -1.3870   -3.1870   -1.3910 O   0  0  0  0  0  0  0  0  0  0  0  0
   -3.2390   -2.1420   -0.9130 N   0  0  0  0  0  0  0  0  0  0  0  0
   -4.0980   -1.2510   -0.3810 C   0  0  0  0  0  0  0  0  0  0  0  0
   -5.3270   -1.4750   -0.5420 O   0  0  0  0  0  0  0  0  0  0  0  0
   -3.8170   -0.0830    0.3430 C   0  0  0  0  0  0  0  0  0  0  0  0
   -2.6050    0.4830    0.5920 C   0  0  0  0  0  0  0  0  0  0  0  0
   -2.7220    1.7970    1.2380 C   0  0  0  0  0  0  0  0  0  0  0  0
   -1.5560    2.5830    1.0390 O   0  0  0  0  0  0  0  0  0  0  0  0
  1  2  1  0
  2  3  1  0
  3  4  1  0
  4  5  2  0
  4  9  1  0
  5  6  1  0
  6  7  2  0
  7  8  1  0
  7 20  1  0
  8  9  2  0
  8 10  1  0
 10 11  2  0
 10 18  1  0
 11 12  1  0
 12 13  2  0
 12 14  1  0
 14 15  1  0
 15 16  2  0
 15 17  1  0
 17 18  2  0
 18 19  1  0
 19 20  1  0
M  END
