
     RDKit          3D

 20 22  0  0  0  0  0  0  0  0999 V2000
   -6.1740    0.2990    0.5300 C   0  0  0  0  0  0  0  0  0  0  0  0
   -4.7660    0.3370    0.4000 O   0  0  0  0  0  0  0  0  0  0  0  0
   -3.9520   -0.7700    0.4310 C   0  0  0  0  0  0  0  0  0  0  0  0
   -4.4670   -1.9010    0.5830 O   0  0  0  0  0  0  0  0  0  0  0  0
   -2.5040   -0.6330    0.2880 C   0  0  0  0  0  0  0  0  0  0  0  0
   -1.8890    0.5840    0.1190 C   0  0  0  0  0  0  0  0  0  0  0  0
   -0.5240    0.7290   -0.0170 C   0  0  0  0  0  0  0  0  0  0  0  0
    0.2440   -0.4290    0.0230 C   0  0  0  0  0  0  0  0  0  0  0  0
   -0.3350   -1.6240    0.1870 N   0  0  0  0  0  0  0  0  0  0  0  0
   -1.6780   -1.7360    0.3180 C   0  0  0  0  0  0  0  0  0  0  0  0
   -2.2320   -2.8680    0.4740 O   0  0  0  0  0  0  0  0  0  0  0  0
    1.7130   -0.2670   -0.1240 C   0  0  0  0  0  0  0  0  0  0  0  0
    2.4640   -1.3500   -0.0910 C   0  0  0  0  0  0  0  0  0  0  0  0
    3.9340   -1.2320   -0.2340 C   0  0  0  0  0  0  0  0  0  0  0  0
    4.4810    0.0830    0.2330 C   0  0  0  0  0  0  0  0  0  0  0  0
    3.7760    1.2390   -0.4450 C   0  0  0  0  0  0  0  0  0  0  0  0
    2.2890    1.0560   -0.2990 C   0  0  0  0  0  0  0  0  0  0  0  0
    1.5220    2.1290   -0.3310 C   0  0  0  0  0  0  0  0  0  0  0  0
    0.0780    2.0600   -0.1950 C   0  0  0  0  0  0  0  0  0  0  0  0
   -0.6390    3.0810   -0.2270 O   0  0  0  0  0  0  0  0  0  0  0  0
  1  2  1  0
  2  3  1  0
  3  4  2  0
  3  5  1  0
  5  6  2  0
  5 10  1  0
  6  7  1  0
  7  8  2  0
  7 19  1  0
  8  9  1  0
  8 12  1  0
  9 10  1  0
 10 11  2  0
 12 13  2  0
 12 17  1  0
 13 14  1  0
 14 15  1  0
 15 16  1  0
 16 17  1  0
 17 18  2  0
 18 19  1  0
 19 20  2  0
M  END
