
     RDKit          3D

 20 22  0  0  0  0  0  0  0  0999 V2000
   -6.2400   -0.1030    0.1380 C   0  0  0  0  0  0  0  0  0  0  0  0
   -5.2420    0.3570   -0.7320 O   0  0  0  0  0  0  0  0  0  0  0  0
   -3.8950    0.1780   -0.4690 C   0  0  0  0  0  0  0  0  0  0  0  0
   -2.9620    0.6630   -1.3720 C   0  0  0  0  0  0  0  0  0  0  0  0
   -1.6100    0.4860   -1.1130 C   0  0  0  0  0  0  0  0  0  0  0  0
   -1.1520   -0.1610    0.0230 C   0  0  0  0  0  0  0  0  0  0  0  0
    0.2490   -0.3050    0.2170 N   0  0  0  0  0  0  0  0  0  0  0  0
    1.1000    0.8600    0.0260 C   0  0  0  0  0  0  0  0  0  0  0  0
    2.5280    0.4610   -0.0500 C   0  0  0  0  0  0  0  0  0  0  0  0
    3.4370    1.4510   -0.3700 C   0  0  0  0  0  0  0  0  0  0  0  0
    4.8080    1.1890   -0.3910 C   0  0  0  0  0  0  0  0  0  0  0  0
    5.2900   -0.0650   -0.0920 C   0  0  0  0  0  0  0  0  0  0  0  0
    6.6720   -0.3150   -0.1150 O   0  0  0  0  0  0  0  0  0  0  0  0
    4.3700   -1.0420    0.2230 C   0  0  0  0  0  0  0  0  0  0  0  0
    2.9830   -0.7880    0.2450 C   0  0  0  0  0  0  0  0  0  0  0  0
    2.1000   -1.8120    0.5540 O   0  0  0  0  0  0  0  0  0  0  0  0
    0.7430   -1.5940    0.5520 C   0  0  0  0  0  0  0  0  0  0  0  0
   -0.0920   -2.5100    0.8400 O   0  0  0  0  0  0  0  0  0  0  0  0
   -2.1010   -0.6260    0.8900 C   0  0  0  0  0  0  0  0  0  0  0  0
   -3.4600   -0.4650    0.6590 C   0  0  0  0  0  0  0  0  0  0  0  0
  1  2  1  0
  2  3  1  0
  3  4  2  0
  3 20  1  0
  4  5  1  0
  5  6  2  0
  6  7  1  0
  6 19  1  0
  7  8  1  0
  7 17  1  0
  8  9  1  0
  9 10  2  0
  9 15  1  0
 10 11  1  0
 11 12  2  0
 12 13  1  0
 12 14  1  0
 14 15  2  0
 15 16  1  0
 16 17  1  0
 17 18  2  0
 19 20  2  0
M  END
