
     RDKit          3D

 20 21  0  0  0  0  0  0  0  0999 V2000
    3.4290    0.6670   -1.4600 O   0  0  0  0  0  0  0  0  0  0  0  0
    3.1500    0.4050   -0.2690 C   0  0  0  0  0  0  0  0  0  0  0  0
    4.1290   -0.1360    0.6010 N   0  0  0  0  0  0  0  0  0  0  0  0
    5.4900   -0.4220    0.1980 C   0  0  0  0  0  0  0  0  0  0  0  0
    5.5020   -1.4300   -0.9160 C   0  0  0  0  0  0  0  0  0  0  0  0
    4.8840   -2.5970   -0.4330 O   0  0  0  0  0  0  0  0  0  0  0  0
    1.8570    0.6580    0.1730 O   0  0  0  0  0  0  0  0  0  0  0  0
    0.8670    1.1970   -0.6800 C   0  0  1  0  0  0  0  0  0  0  0  0
   -0.2300    0.3490   -0.7600 O   0  0  0  0  0  0  0  0  0  0  0  0
   -0.9990    0.5840    0.3730 C   0  0  2  0  0  0  0  0  0  0  0  0
   -2.4730    0.2590    0.1010 C   0  0  0  0  0  0  0  0  0  0  0  0
   -2.6280   -1.0820   -0.1800 O   0  0  0  0  0  0  0  0  0  0  0  0
   -4.2170   -1.5710   -0.5000 P   0  0  0  0  0  0  0  0  0  0  0  0
   -5.4070   -0.1100   -0.6010 C   0  0  0  0  0  0  0  0  0  0  0  0
   -6.3940   -0.6610    0.2540 O   0  0  0  0  0  0  0  0  0  0  0  0
   -5.7410   -1.1800    1.3410 C   0  0  0  0  0  0  0  0  0  0  0  0
   -4.9960   -2.3010    0.9030 O   0  0  0  0  0  0  0  0  0  0  0  0
   -0.8370    1.9940    0.6680 N   0  0  0  0  0  0  0  0  0  0  0  0
    0.2620    2.4390   -0.1320 C   0  0  0  0  0  0  0  0  0  0  0  0
    0.6480    3.6230   -0.3390 O   0  0  0  0  0  0  0  0  0  0  0  0
  1  2  2  0
  2  3  1  0
  2  7  1  0
  3  4  1  0
  4  5  1  0
  5  6  1  0
  8  7  1  1
  8  9  1  0
  8 19  1  0
  9 10  1  0
 10 11  1  6
 10 18  1  0
 11 12  1  0
 12 13  1  0
 13 14  1  0
 13 17  1  0
 14 15  1  0
 15 16  1  0
 16 17  1  0
 18 19  1  0
 19 20  2  0
M  END
