
     RDKit          3D

  9  8  0  0  0  0  0  0  0  0999 V2000
   -3.0270   -0.9720    0.3690 O   0  0  0  0  0  0  0  0  0  0  0  0
   -2.8180    0.2280    0.7460 C   0  0  0  0  0  0  0  0  0  0  0  0
   -1.7070    0.9730    0.2800 N   0  0  0  0  0  0  0  0  0  0  0  0
   -0.7530    0.4360   -0.6350 C   0  0  0  0  0  0  0  0  0  0  0  0
   -0.1030   -0.7080   -0.1300 O   0  0  0  0  0  0  0  0  0  0  0  0
    0.7370   -1.0890   -1.0690 O   0  0  0  0  0  0  0  0  0  0  0  0
    2.3740   -0.7180   -0.6930 P   0  0  0  0  0  0  0  0  0  0  0  0
    3.0240   -1.9730    0.3110 O   0  0  0  0  0  0  0  0  0  0  0  0
    2.5420    0.8460    0.0320 O   0  0  0  0  0  0  0  0  0  0  0  0
  1  2  2  0
  2  3  1  0
  3  4  1  0
  4  5  1  0
  5  6  1  0
  6  7  1  0
  7  8  1  0
  7  9  1  0
M  END
