
     RDKit          3D

 28 29  0  0  0  0  0  0  0  0999 V2000
   -8.3280    0.7500   -0.9600 O   0  0  0  0  0  0  0  0  0  0  0  0
   -7.1880    0.4610   -0.5140 C   0  0  0  0  0  0  0  0  0  0  0  0
   -6.1090    1.2810   -0.7750 C   0  0  0  0  0  0  0  0  0  0  0  0
   -4.8500    0.9940   -0.3020 C   0  0  0  0  0  0  0  0  0  0  0  0
   -4.6480   -0.1110    0.4370 N   0  0  0  0  0  0  0  0  0  0  0  0
   -3.3770   -0.4890    0.9700 C   0  0  1  0  0  0  0  0  0  0  0  0
   -2.7380   -1.6460    0.2100 C   0  0  0  0  0  0  0  0  0  0  0  0
   -1.2750   -1.4650    0.6030 C   0  0  2  0  0  0  0  0  0  0  0  0
   -0.9000   -2.4870    1.4400 O   0  0  0  0  0  0  0  0  0  0  0  0
   -1.2640   -0.1180    1.3180 C   0  0  1  0  0  0  0  0  0  0  0  0
    0.0040    0.5930    0.9020 C   0  0  0  0  0  0  0  0  0  0  0  0
    0.0170    0.5430   -0.4840 O   0  0  0  0  0  0  0  0  0  0  0  0
    1.1940    1.1910   -1.2010 P   0  0  0  0  0  0  0  0  0  0  0  0
    0.5350    0.8030   -2.6530 O   0  0  0  0  0  0  0  0  0  0  0  0
    0.8330    2.6460   -0.4810 O   0  0  0  0  0  0  0  0  0  0  0  0
    2.3770    0.1880   -0.5370 N   0  0  0  0  0  0  0  0  0  0  0  0
    3.8590    0.8070   -0.1130 P   0  0  0  0  0  0  0  0  0  0  0  0
    4.7750    1.7320   -1.1580 O   0  0  0  0  0  0  0  0  0  0  0  0
    4.3790    0.7280    1.4690 O   0  0  0  0  0  0  0  0  0  0  0  0
    4.7140   -0.4030   -0.4620 O   0  0  0  0  0  0  0  0  0  0  0  0
    6.0890   -0.8710    0.0630 P   0  0  0  0  0  0  0  0  0  0  0  0
    6.2270   -2.1040   -0.9910 O   0  0  0  0  0  0  0  0  0  0  0  0
    7.4440   -1.1300    0.7590 O   0  0  0  0  0  0  0  0  0  0  0  0
    6.6510    0.6190   -0.4190 O   0  0  0  0  0  0  0  0  0  0  0  0
   -2.4050    0.5010    0.7980 O   0  0  0  0  0  0  0  0  0  0  0  0
   -5.7030   -0.9010    0.6850 C   0  0  0  0  0  0  0  0  0  0  0  0
   -5.5660   -1.9610    1.3810 O   0  0  0  0  0  0  0  0  0  0  0  0
   -6.9480   -0.6380    0.2310 N   0  0  0  0  0  0  0  0  0  0  0  0
  1  2  2  0
  2  3  1  0
  2 28  1  0
  3  4  2  0
  4  5  1  0
  6  5  1  6
  5 26  1  0
  6  7  1  0
  6 25  1  0
  7  8  1  0
  8  9  1  1
  8 10  1  0
 10 11  1  6
 10 25  1  0
 11 12  1  0
 12 13  1  0
 13 14  1  0
 13 15  1  0
 13 16  1  0
 16 17  1  0
 17 18  1  0
 17 19  1  0
 17 20  1  0
 20 21  1  0
 21 22  1  0
 21 23  1  0
 21 24  1  0
 26 27  2  0
 26 28  1  0
M  END
