
     RDKit          3D

  7  7  0  0  0  0  0  0  0  0999 V2000
    2.5330   -0.5430    0.2380 C   0  0  0  0  0  0  0  0  0  0  0  0
    1.4450    0.2670   -0.3980 C   0  0  0  0  0  0  0  0  0  0  0  0
    0.2200    0.4070    0.4570 C   0  0  1  0  0  0  0  0  0  0  0  0
   -0.7690    1.2460   -0.3300 C   0  0  0  0  0  0  0  0  0  0  0  0
   -2.0970    0.5820   -0.0120 C   0  0  0  0  0  0  0  0  0  0  0  0
   -1.7260   -0.8760   -0.0070 C   0  0  0  0  0  0  0  0  0  0  0  0
   -0.4430   -0.8700    0.8110 C   0  0  0  0  0  0  0  0  0  0  0  0
  1  2  1  0
  3  2  1  6
  3  4  1  0
  3  7  1  0
  4  5  1  0
  5  6  1  0
  6  7  1  0
M  END
