
     RDKit          3D

  7  7  0  0  0  0  0  0  0  0999 V2000
   -1.9210    1.2220    0.2720 C   0  0  0  0  0  0  0  0  0  0  0  0
   -0.5480    0.8300    0.7540 C   0  0  0  0  0  0  0  0  0  0  0  0
   -0.0270   -0.3970    0.0390 C   0  0  2  0  0  0  0  0  0  0  0  0
    1.3500   -0.8640    0.4610 C   0  0  0  0  0  0  0  0  0  0  0  0
    2.3130    0.2720    0.1840 C   0  0  0  0  0  0  0  0  0  0  0  0
   -0.2720   -0.5410   -1.4480 C   0  0  0  0  0  0  0  0  0  0  0  0
   -1.0280   -1.3770   -0.4300 C   0  0  0  0  0  0  0  0  0  0  0  0
  1  2  1  0
  3  2  1  1
  3  4  1  0
  3  6  1  0
  3  7  1  0
  4  5  1  0
  6  7  1  0
M  END
