
     RDKit          3D

  7  7  0  0  0  0  0  0  0  0999 V2000
    1.3800    0.7630   -1.1980 C   0  0  0  0  0  0  0  0  0  0  0  0
    0.6490    0.4200    0.0670 C   0  0  1  0  0  0  0  0  0  0  0  0
    1.4560   -0.1540    1.1860 C   0  0  0  0  0  0  0  0  0  0  0  0
   -0.5530    1.2790    0.3440 C   0  0  0  0  0  0  0  0  0  0  0  0
   -0.7690   -0.1210   -0.0200 C   0  0  2  0  0  0  0  0  0  0  0  0
   -1.2460   -1.0260    1.1240 C   0  0  0  0  0  0  0  0  0  0  0  0
   -1.1750   -0.5810   -1.3710 C   0  0  0  0  0  0  0  0  0  0  0  0
  2  1  1  6
  2  3  1  0
  2  4  1  0
  2  5  1  0
  4  5  1  0
  5  6  1  1
  5  7  1  0
M  END
