
     RDKit          3D

  7  6  0  0  0  0  0  0  0  0999 V2000
    2.0780   -1.2770   -0.2540 C   0  0  0  0  0  0  0  0  0  0  0  0
    1.3910   -0.1420   -0.3430 C   0  0  0  0  0  0  0  0  0  0  0  0
    2.0500    1.0920    0.1700 C   0  0  0  0  0  0  0  0  0  0  0  0
    0.0270   -0.1280   -0.9330 C   0  0  0  0  0  0  0  0  0  0  0  0
   -1.0050    0.3730    0.0680 C   0  0  1  0  0  0  0  0  0  0  0  0
   -2.3810    0.3750   -0.5620 C   0  0  0  0  0  0  0  0  0  0  0  0
   -1.0630   -0.5340    1.2780 C   0  0  0  0  0  0  0  0  0  0  0  0
  1  2  2  0
  2  3  1  0
  2  4  1  0
  4  5  1  0
  5  6  1  6
  5  7  1  0
M  END
