
     RDKit          3D

 14 15  0  0  0  0  0  0  0  0999 V2000
   -2.1750    2.4160   -1.2810 O   0  0  0  0  0  0  0  0  0  0  0  0
   -1.1970    2.5520   -0.2700 C   0  0  0  0  0  0  0  0  0  0  0  0
   -1.4000    1.5840    0.8360 C   0  0  0  0  0  0  0  0  0  0  0  0
   -1.3510    0.1420    0.4990 C   0  0  1  0  0  0  0  0  0  0  0  0
   -2.3780   -0.2530   -0.5370 C   0  0  0  0  0  0  0  0  0  0  0  0
   -2.5200   -1.7210   -0.6610 C   0  0  0  0  0  0  0  0  0  0  0  0
   -1.4670   -2.5210    0.0360 C   0  0  0  0  0  0  0  0  0  0  0  0
   -0.1350   -1.8780    0.1050 C   0  0  0  0  0  0  0  0  0  0  0  0
   -0.1400   -0.4720    0.2370 N   0  0  0  0  0  0  0  0  0  0  0  0
    1.0850    0.1860    0.2480 C   0  0  2  0  0  0  0  0  0  0  0  0
    1.8990    0.0970   -1.0310 C   0  0  0  0  0  0  0  0  0  0  0  0
    3.2950    0.5240   -0.5670 C   0  0  0  0  0  0  0  0  0  0  0  0
    3.3100    0.2790    0.9340 C   0  0  0  0  0  0  0  0  0  0  0  0
    2.0500   -0.5630    1.1970 C   0  0  0  0  0  0  0  0  0  0  0  0
  1  2  1  0
  2  3  1  0
  4  3  1  6
  4  5  1  0
  4  9  1  0
  5  6  1  0
  6  7  1  0
  7  8  1  0
  8  9  1  0
 10  9  1  6
 10 11  1  0
 10 14  1  0
 11 12  1  0
 12 13  1  0
 13 14  1  0
M  END
