
     RDKit          3D

 27 28  0  0  0  0  0  0  0  0999 V2000
   -6.0420    2.3720    1.7230 C   0  0  0  0  0  0  0  0  0  0  0  0
   -5.0630    2.8720    0.7440 C   0  0  0  0  0  0  0  0  0  0  0  0
   -4.2180    2.1500    0.0520 C   0  0  0  0  0  0  0  0  0  0  0  0
   -3.2270    2.6070   -0.9320 C   0  0  0  0  0  0  0  0  0  0  0  0
   -2.6480    1.4850   -1.4970 O   0  0  0  0  0  0  0  0  0  0  0  0
   -2.7740    0.4250   -0.6030 C   0  0  1  0  0  0  0  0  0  0  0  0
   -1.5970    0.4510    0.3250 C   0  0  0  0  0  0  0  0  0  0  0  0
   -0.3900    0.3100   -0.4680 N   0  0  0  0  0  0  0  0  0  0  0  0
    0.8990    0.3010    0.1600 C   0  0  0  0  0  0  0  0  0  0  0  0
    1.0300    0.4120    1.3900 O   0  0  0  0  0  0  0  0  0  0  0  0
    2.0920    0.1490   -0.7590 C   0  0  1  0  0  0  0  0  0  0  0  0
    2.0050    1.3550   -1.7120 C   0  0  0  0  0  0  0  0  0  0  0  0
    3.2600    0.1570   -0.0290 O   0  0  0  0  0  0  0  0  0  0  0  0
    4.1760   -0.8480   -0.0210 C   0  0  0  0  0  0  0  0  0  0  0  0
    4.0160   -1.9890   -0.7550 C   0  0  0  0  0  0  0  0  0  0  0  0
    4.9980   -2.9910   -0.7030 C   0  0  0  0  0  0  0  0  0  0  0  0
    6.1100   -2.8040    0.0900 C   0  0  0  0  0  0  0  0  0  0  0  0
    7.0970   -3.8380    0.1270 N   0  0  0  0  0  0  0  0  0  0  0  0
    6.2440   -1.6500    0.8150 C   0  0  0  0  0  0  0  0  0  0  0  0
    7.7000   -1.4410    1.8350 S   0  0  0  0  0  0  0  0  0  0  0  0
    7.6290    0.1610    2.6820 C   0  0  0  0  0  0  0  0  0  0  0  0
    5.2970   -0.6680    0.7750 C   0  0  0  0  0  0  0  0  0  0  0  0
   -4.0820    0.6780    0.1230 C   0  0  2  0  0  0  0  0  0  0  0  0
   -5.1500   -0.0170   -0.5780 N   0  0  0  0  0  0  0  0  0  0  0  0
   -5.9280   -1.0470    0.0100 C   0  0  0  0  0  0  0  0  0  0  0  0
   -7.0140   -1.7090   -0.7980 C   0  0  0  0  0  0  0  0  0  0  0  0
   -5.6940   -1.3880    1.1930 O   0  0  0  0  0  0  0  0  0  0  0  0
  1  2  1  0
  2  3  2  3
  3  4  1  0
  3 23  1  0
  4  5  1  0
  5  6  1  0
  6  7  1  1
  6 23  1  0
  7  8  1  0
  8  9  1  0
  9 10  2  0
  9 11  1  0
 11 12  1  6
 11 13  1  0
 13 14  1  0
 14 15  2  0
 14 22  1  0
 15 16  1  0
 16 17  2  0
 17 18  1  0
 17 19  1  0
 19 20  1  0
 19 22  2  0
 20 21  1  0
 23 24  1  6
 24 25  1  0
 25 26  1  0
 25 27  2  0
M  END
