
     RDKit          3D

 27 29  0  0  0  0  0  0  0  0999 V2000
    6.7950    2.5530    1.7040 C   0  0  0  0  0  0  0  0  0  0  0  0
    6.2910    1.7400    0.8060 C   0  0  0  0  0  0  0  0  0  0  0  0
    6.4600    2.0100   -0.6560 C   0  0  0  0  0  0  0  0  0  0  0  0
    7.4050    3.5330   -0.8420 S   0  0  0  0  0  0  0  0  0  0  0  0
    5.5450    0.5380    1.2520 C   0  0  0  0  0  0  0  0  0  0  0  0
    4.1080    0.5690    0.7330 C   0  0  0  0  0  0  0  0  0  0  0  0
    3.4550   -0.6310    1.2100 N   0  0  0  0  0  0  0  0  0  0  0  0
    2.0620   -0.8540    0.8560 C   0  0  0  0  0  0  0  0  0  0  0  0
    1.4570   -0.0200    0.1550 O   0  0  0  0  0  0  0  0  0  0  0  0
    1.3990   -2.0100    1.3030 N   0  0  0  0  0  0  0  0  0  0  0  0
    0.0600   -2.3640    1.0440 C   0  0  0  0  0  0  0  0  0  0  0  0
   -0.8200   -1.6240    0.3030 C   0  0  0  0  0  0  0  0  0  0  0  0
   -2.1530   -2.0170    0.0690 C   0  0  0  0  0  0  0  0  0  0  0  0
   -3.0150   -1.2010   -0.7120 N   0  0  0  0  0  0  0  0  0  0  0  0
   -4.3950   -1.5410   -0.9900 C   0  0  0  0  0  0  0  0  0  0  0  0
   -5.1060   -0.2960   -1.4010 C   0  0  2  0  0  0  0  0  0  0  0  0
   -5.4710   -0.4230   -2.7490 O   0  0  0  0  0  0  0  0  0  0  0  0
   -4.0570    0.7820   -1.2380 C   0  0  2  0  0  0  0  0  0  0  0  0
   -4.2440    1.4520    0.0810 C   0  0  0  0  0  0  0  0  0  0  0  0
   -4.2800    2.9240   -0.2780 C   0  0  0  0  0  0  0  0  0  0  0  0
   -3.8430    2.9320   -1.7390 C   0  0  0  0  0  0  0  0  0  0  0  0
   -4.2450    1.7110   -2.2370 O   0  0  0  0  0  0  0  0  0  0  0  0
   -2.7450    0.0560   -1.3590 C   0  0  0  0  0  0  0  0  0  0  0  0
   -2.5840   -3.2050    0.6170 C   0  0  0  0  0  0  0  0  0  0  0  0
   -1.7410   -3.9880    1.3700 C   0  0  0  0  0  0  0  0  0  0  0  0
   -0.4520   -3.5600    1.5690 C   0  0  0  0  0  0  0  0  0  0  0  0
    0.4480   -4.3220    2.3310 O   0  0  0  0  0  0  0  0  0  0  0  0
  1  2  2  0
  2  3  1  0
  2  5  1  0
  3  4  1  0
  5  6  1  0
  6  7  1  0
  7  8  1  0
  8  9  2  0
  8 10  1  0
 10 11  1  0
 11 12  2  0
 11 26  1  0
 12 13  1  0
 13 14  1  0
 13 24  2  0
 14 15  1  0
 14 23  1  0
 15 16  1  0
 16 17  1  6
 16 18  1  0
 18 19  1  1
 18 22  1  0
 18 23  1  0
 19 20  1  0
 20 21  1  0
 21 22  1  0
 24 25  1  0
 25 26  2  0
 26 27  1  0
M  END
