
     RDKit          3D

 27 28  0  0  0  0  0  0  0  0999 V2000
    5.3850    1.7520   -1.2490 C   0  0  0  0  0  0  0  0  0  0  0  0
    4.6330    0.6930   -1.1220 C   0  0  0  0  0  0  0  0  0  0  0  0
    3.6100   -0.0830   -2.4090 S   0  0  0  0  0  0  0  0  0  0  0  0
    2.7000   -1.2190   -1.3260 C   0  0  0  0  0  0  0  0  0  0  0  0
    2.9910   -0.6590    0.0400 C   0  0  2  0  0  0  0  0  0  0  0  0
    2.1230    0.5520    0.3830 C   0  0  0  0  0  0  0  0  0  0  0  0
    0.7000    0.2580    0.3770 C   0  0  0  0  0  0  0  0  0  0  0  0
    0.2210   -0.8140    1.3470 C   0  0  0  0  0  0  0  0  0  0  0  0
   -0.1840    0.8380   -0.4000 C   0  0  0  0  0  0  0  0  0  0  0  0
    0.1850    1.8630   -1.3650 C   0  0  0  0  0  0  0  0  0  0  0  0
    1.3990    2.2090   -1.4940 O   0  0  0  0  0  0  0  0  0  0  0  0
   -0.7550    2.5150   -2.1910 N   0  0  0  0  0  0  0  0  0  0  0  0
   -2.0800    2.1430   -2.0550 N   0  0  0  0  0  0  0  0  0  0  0  0
   -2.5080    1.1540   -1.1370 C   0  0  0  0  0  0  0  0  0  0  0  0
   -3.9260    0.8790   -1.0450 N   0  0  0  0  0  0  0  0  0  0  0  0
   -4.9290    1.4880   -1.8390 C   0  0  0  0  0  0  0  0  0  0  0  0
   -4.6660    2.3240   -2.6990 O   0  0  0  0  0  0  0  0  0  0  0  0
   -6.3780    1.0940   -1.6200 C   0  0  0  0  0  0  0  0  0  0  0  0
   -6.4950    0.1510   -0.6090 O   0  0  0  0  0  0  0  0  0  0  0  0
   -1.6590    0.4980   -0.3260 C   0  0  0  0  0  0  0  0  0  0  0  0
   -1.9860   -0.4510    0.5620 O   0  0  0  0  0  0  0  0  0  0  0  0
   -3.0430   -1.0020    1.1720 C   0  0  0  0  0  0  0  0  0  0  0  0
   -2.7180   -2.1180    2.1860 C   0  0  0  0  0  0  0  0  0  0  0  0
   -2.0720   -3.3070    1.5850 C   0  0  0  0  0  0  0  0  0  0  0  0
    4.3810   -0.1590    0.0320 C   0  0  0  0  0  0  0  0  0  0  0  0
    5.2920   -0.4340    0.9460 C   0  0  0  0  0  0  0  0  0  0  0  0
    6.6840    0.0600    0.9540 C   0  0  0  0  0  0  0  0  0  0  0  0
  1  2  2  0
  2  3  1  0
  2 25  1  0
  3  4  1  0
  4  5  1  0
  5  6  1  6
  5 25  1  0
  6  7  1  0
  7  8  1  0
  7  9  2  3
  9 10  1  0
  9 20  1  0
 10 11  2  0
 10 12  1  0
 12 13  1  0
 13 14  1  0
 14 15  1  0
 14 20  2  0
 15 16  1  0
 16 17  2  0
 16 18  1  0
 18 19  1  0
 20 21  1  0
 21 22  1  0
 22 23  1  0
 23 24  1  0
 25 26  2  3
 26 27  1  0
M  END
