
     RDKit          3D

 14 15  0  0  0  0  0  0  0  0999 V2000
   -2.9060    1.4230   -0.7210 O   0  0  0  0  0  0  0  0  0  0  0  0
   -3.2730    0.2430   -1.3670 C   0  0  0  0  0  0  0  0  0  0  0  0
   -2.5350   -0.9200   -0.7490 C   0  0  2  0  0  0  0  0  0  0  0  0
   -2.8730   -1.0300    0.7020 C   0  0  0  0  0  0  0  0  0  0  0  0
   -2.1550   -0.0840    1.5860 C   0  0  0  0  0  0  0  0  0  0  0  0
   -0.8740    0.4540    1.1180 C   0  0  0  0  0  0  0  0  0  0  0  0
   -0.3710    0.0500   -0.1230 N   0  0  0  0  0  0  0  0  0  0  0  0
    1.0320    0.0650   -0.3140 C   0  0  2  0  0  0  0  0  0  0  0  0
    1.8140   -0.8530    0.5810 C   0  0  0  0  0  0  0  0  0  0  0  0
    3.1520   -1.1060   -0.0800 C   0  0  0  0  0  0  0  0  0  0  0  0
    3.7990    0.1940   -0.4470 C   0  0  0  0  0  0  0  0  0  0  0  0
    3.1090    1.4040    0.0980 C   0  0  0  0  0  0  0  0  0  0  0  0
    1.6410    1.4500   -0.1960 C   0  0  0  0  0  0  0  0  0  0  0  0
   -1.0700   -0.8660   -0.9210 C   0  0  0  0  0  0  0  0  0  0  0  0
  1  2  1  0
  3  2  1  1
  3  4  1  0
  3 14  1  0
  4  5  1  0
  5  6  1  0
  6  7  1  0
  8  7  1  1
  7 14  1  0
  8  9  1  0
  8 13  1  0
  9 10  1  0
 10 11  1  0
 11 12  1  0
 12 13  1  0
M  END
