
     RDKit          3D

 28 32  0  0  0  0  0  0  0  0999 V2000
    3.9120    4.8410   -0.5690 Cl  0  0  0  0  0  0  0  0  0  0  0  0
    2.4010    3.9170   -0.5090 C   0  0  0  0  0  0  0  0  0  0  0  0
    1.1820    4.5420   -0.6460 C   0  0  0  0  0  0  0  0  0  0  0  0
    0.0060    3.8260   -0.5990 C   0  0  0  0  0  0  0  0  0  0  0  0
    0.0380    2.4510   -0.4110 C   0  0  0  0  0  0  0  0  0  0  0  0
   -1.0520    1.7020   -0.3550 N   0  0  0  0  0  0  0  0  0  0  0  0
   -1.0050    0.3380   -0.1660 C   0  0  0  0  0  0  0  0  0  0  0  0
   -2.2480   -0.3300   -0.0500 N   0  0  0  0  0  0  0  0  0  0  0  0
   -2.6670   -0.8100    1.2430 C   0  0  0  0  0  0  0  0  0  0  0  0
   -4.0040   -0.0980    1.5010 C   0  0  0  0  0  0  0  0  0  0  0  0
   -4.9900   -0.6170    0.4900 C   0  0  0  0  0  0  0  0  0  0  0  0
   -4.3230   -1.3160   -0.6660 C   0  0  0  0  0  0  0  0  0  0  0  0
   -3.1160   -0.5150   -1.1780 C   0  0  0  0  0  0  0  0  0  0  0  0
    0.1870   -0.3170   -0.0290 C   0  0  0  0  0  0  0  0  0  0  0  0
    0.3750   -1.7430    0.1030 C   0  0  0  0  0  0  0  0  0  0  0  0
    1.4960   -2.3870    0.5050 N   0  0  0  0  0  0  0  0  0  0  0  0
    1.3020   -3.6890    0.5510 N   0  0  0  0  0  0  0  0  0  0  0  0
    0.0580   -3.9000    0.1810 N   0  0  0  0  0  0  0  0  0  0  0  0
   -0.5150   -2.7060   -0.0960 N   0  0  0  0  0  0  0  0  0  0  0  0
    1.3410    0.4490   -0.0840 C   0  0  0  0  0  0  0  0  0  0  0  0
    2.6340   -0.1610    0.0340 C   0  0  0  0  0  0  0  0  0  0  0  0
    3.1450   -0.8460   -1.0700 C   0  0  0  0  0  0  0  0  0  0  0  0
    4.3770   -1.4650   -1.0530 C   0  0  0  0  0  0  0  0  0  0  0  0
    5.1600   -1.4240    0.0900 C   0  0  0  0  0  0  0  0  0  0  0  0
    4.6510   -0.7460    1.1770 C   0  0  0  0  0  0  0  0  0  0  0  0
    3.4200   -0.1270    1.1590 C   0  0  0  0  0  0  0  0  0  0  0  0
    1.2590    1.8100   -0.2710 C   0  0  0  0  0  0  0  0  0  0  0  0
    2.4100    2.5550   -0.3230 C   0  0  0  0  0  0  0  0  0  0  0  0
  1  2  1  0
  2  3  2  0
  2 28  1  0
  3  4  1  0
  4  5  2  0
  5  6  1  0
  5 27  1  0
  6  7  2  0
  7  8  1  0
  7 14  1  0
  8  9  1  0
  8 13  1  0
  9 10  1  0
 10 11  1  0
 11 12  1  0
 12 13  1  0
 14 15  1  0
 14 20  2  0
 15 16  2  0
 15 19  1  0
 16 17  1  0
 17 18  2  0
 18 19  1  0
 20 21  1  0
 20 27  1  0
 21 22  2  0
 21 26  1  0
 22 23  1  0
 23 24  2  0
 24 25  1  0
 25 26  2  0
 27 28  2  0
M  END
