
     RDKit          3D

 11 10  0  0  0  0  0  0  0  0999 V2000
    1.3290    2.3310   -0.2880 C   0  0  0  0  0  0  0  0  0  0  0  0
    2.1090    1.5350    0.4060 C   0  0  0  0  0  0  0  0  0  0  0  0
    1.8960    0.1100    0.5950 C   0  0  0  0  0  0  0  0  0  0  0  0
    2.7670   -0.6130    1.3090 C   0  0  0  0  0  0  0  0  0  0  0  0
    2.6120   -2.0600    1.5400 C   0  0  0  0  0  0  0  0  0  0  0  0
    0.7110   -0.5270   -0.0240 C   0  0  0  0  0  0  0  0  0  0  0  0
   -0.5320   -0.0480    0.4780 N   0  0  0  0  0  0  0  0  0  0  0  0
   -1.6020    0.0500   -0.4740 C   0  0  2  0  0  0  0  0  0  0  0  0
   -2.6820   -1.0120   -0.1900 C   0  0  0  0  0  0  0  0  0  0  0  0
   -1.1990   -0.1880   -1.9010 C   0  0  0  0  0  0  0  0  0  0  0  0
   -2.3020    1.3850   -0.4010 C   0  0  0  0  0  0  0  0  0  0  0  0
  1  2  2  0
  2  3  1  0
  3  4  2  3
  3  6  1  0
  4  5  1  0
  6  7  1  0
  7  8  1  0
  8  9  1  1
  8 10  1  0
  8 11  1  0
M  CHG  1   7   1
M  END
