
     RDKit          3D

 11 11  0  0  0  0  0  0  0  0999 V2000
   -3.6960    0.0580    1.3190 C   0  0  0  0  0  0  0  0  0  0  0  0
   -3.1110   -1.1910    0.8060 C   0  0  0  0  0  0  0  0  0  0  0  0
   -1.9900   -1.1020    0.0600 C   0  0  0  0  0  0  0  0  0  0  0  0
   -1.4490    0.2090   -0.1790 C   0  0  0  0  0  0  0  0  0  0  0  0
   -0.3790    0.4400   -0.8780 C   0  0  0  0  0  0  0  0  0  0  0  0
    0.0660    1.8870   -1.0390 C   0  0  0  0  0  0  0  0  0  0  0  0
    0.3880   -0.6300   -1.4980 C   0  0  0  0  0  0  0  0  0  0  0  0
    1.7620   -0.7030   -1.0350 N   0  0  0  0  0  0  0  0  0  0  0  0
    1.8560   -0.2980    0.3370 C   0  0  2  0  0  0  0  0  0  0  0  0
    3.0470    0.6310    0.6220 C   0  0  0  0  0  0  0  0  0  0  0  0
    2.9700   -0.7230    1.2130 C   0  0  0  0  0  0  0  0  0  0  0  0
  1  2  1  0
  2  3  2  3
  3  4  1  0
  4  5  2  3
  5  6  1  0
  5  7  1  0
  7  8  1  0
  9  8  1  6
  9 10  1  0
  9 11  1  0
 10 11  1  0
M  CHG  1   8   1
M  END
