
     RDKit          3D

 11 11  0  0  0  0  0  0  0  0999 V2000
    3.0810    0.7990   -0.2300 C   0  0  0  0  0  0  0  0  0  0  0  0
    2.4330   -0.3580   -1.0050 C   0  0  0  0  0  0  0  0  0  0  0  0
    1.4580   -1.0940   -0.1660 C   0  0  0  0  0  0  0  0  0  0  0  0
    0.3150   -0.3360    0.4290 C   0  0  2  0  0  0  0  0  0  0  0  0
   -0.3970   -1.3660    1.2070 N   0  0  0  0  0  0  0  0  0  0  0  0
   -1.6490   -0.9800    1.7270 C   0  0  0  0  0  0  0  0  0  0  0  0
   -2.5880   -0.3900    0.7030 C   0  0  0  0  0  0  0  0  0  0  0  0
   -1.8590   -0.3440   -0.6410 C   0  0  0  0  0  0  0  0  0  0  0  0
   -0.5750    0.4590   -0.3990 C   0  0  2  0  0  0  0  0  0  0  0  0
   -0.1600    0.9700   -1.7310 C   0  0  0  0  0  0  0  0  0  0  0  0
   -0.9630    1.7610    0.3600 C   0  0  0  0  0  0  0  0  0  0  0  0
  1  2  1  0
  2  3  1  0
  4  3  1  6
  4  5  1  0
  4  9  1  0
  5  6  1  0
  6  7  1  0
  7  8  1  0
  8  9  1  0
  9 10  1  6
  9 11  1  0
M  CHG  1   5   1
M  END
