
     RDKit          3D

 20 23  0  0  0  0  0  0  0  0999 V2000
    0.6110    2.7810    0.1590 O   0  0  0  0  0  0  0  0  0  0  0  0
   -0.5540    2.2060    0.1710 C   0  0  0  0  0  0  0  0  0  0  0  0
   -0.8930    0.8060   -0.0200 C   0  0  0  0  0  0  0  0  0  0  0  0
   -2.2900    0.5090    0.0120 C   0  0  0  0  0  0  0  0  0  0  0  0
   -2.7900   -0.7240   -0.1680 C   0  0  0  0  0  0  0  0  0  0  0  0
   -1.9130   -1.7890   -0.3990 C   0  0  0  0  0  0  0  0  0  0  0  0
   -2.4670   -3.0380   -0.5790 O   0  0  0  0  0  0  0  0  0  0  0  0
   -0.5610   -1.5230   -0.4310 C   0  0  0  0  0  0  0  0  0  0  0  0
    0.3340   -2.5490   -0.6500 C   0  0  0  0  0  0  0  0  0  0  0  0
    1.7090   -2.3290   -0.6840 C   0  0  0  0  0  0  0  0  0  0  0  0
    2.2090   -1.0860   -0.5000 C   0  0  0  0  0  0  0  0  0  0  0  0
    1.3340   -0.0290   -0.2770 C   0  0  0  0  0  0  0  0  0  0  0  0
   -0.0280   -0.2260   -0.2420 C   0  0  0  0  0  0  0  0  0  0  0  0
    1.9360    1.1840   -0.0960 O   0  0  0  0  0  0  0  0  0  0  0  0
    3.1800    1.3070    0.6470 C   0  0  0  0  0  0  0  0  0  0  0  0
    4.1100    0.2130    0.3100 C   0  0  0  0  0  0  0  0  0  0  0  0
    3.5630   -0.7810   -0.5190 O   0  0  0  0  0  0  0  0  0  0  0  0
   -4.1850   -0.6750   -0.0790 O   0  0  0  0  0  0  0  0  0  0  0  0
   -4.5090    0.5350    0.5410 C   0  0  0  0  0  0  0  0  0  0  0  0
   -3.3730    1.3520    0.2180 O   0  0  0  0  0  0  0  0  0  0  0  0
  1  2  1  0
  2  3  1  0
  3  4  2  0
  3 13  1  0
  4  5  1  0
  4 20  1  0
  5  6  2  0
  5 18  1  0
  6  7  1  0
  6  8  1  0
  8  9  2  0
  8 13  1  0
  9 10  1  0
 10 11  2  0
 11 12  1  0
 11 17  1  0
 12 13  2  0
 12 14  1  0
 14 15  1  0
 15 16  1  0
 16 17  1  0
 18 19  1  0
 19 20  1  0
M  END
