
     RDKit          3D

 20 22  0  0  0  0  0  0  0  0999 V2000
    3.1920    1.6160   -1.2260 C   0  0  0  0  0  0  0  0  0  0  0  0
    3.4980    0.6310   -0.2690 O   0  0  0  0  0  0  0  0  0  0  0  0
    2.5280   -0.2170    0.2510 C   0  0  0  0  0  0  0  0  0  0  0  0
    2.8690   -1.1730    1.1890 C   0  0  0  0  0  0  0  0  0  0  0  0
    1.8680   -1.9880    1.6740 C   0  0  0  0  0  0  0  0  0  0  0  0
    0.5790   -1.8440    1.2290 C   0  0  0  0  0  0  0  0  0  0  0  0
   -0.4210   -2.6610    1.7140 O   0  0  0  0  0  0  0  0  0  0  0  0
    0.2450   -0.8740    0.2790 C   0  0  0  0  0  0  0  0  0  0  0  0
   -1.1580   -0.7250   -0.1970 C   0  0  2  0  0  0  0  0  0  0  0  0
   -1.1660   -0.5840   -1.6690 C   0  0  0  0  0  0  0  0  0  0  0  0
   -0.5510   -1.5680   -2.4330 O   0  0  0  0  0  0  0  0  0  0  0  0
   -1.7240    0.4250   -2.3180 C   0  0  0  0  0  0  0  0  0  0  0  0
   -2.3520    1.4350   -1.6020 O   0  0  0  0  0  0  0  0  0  0  0  0
   -2.3790    1.3610   -0.2170 C   0  0  0  0  0  0  0  0  0  0  0  0
   -1.8400    0.3810    0.4780 C   0  0  0  0  0  0  0  0  0  0  0  0
   -2.0580    0.6310    1.8930 C   0  0  0  0  0  0  0  0  0  0  0  0
   -1.6960   -0.0710    2.8670 O   0  0  0  0  0  0  0  0  0  0  0  0
   -2.7620    1.8240    2.0050 O   0  0  0  0  0  0  0  0  0  0  0  0
   -3.0070    2.3540    0.7170 C   0  0  0  0  0  0  0  0  0  0  0  0
    1.2330   -0.0690   -0.1990 C   0  0  0  0  0  0  0  0  0  0  0  0
  1  2  1  0
  2  3  1  0
  3  4  2  0
  3 20  1  0
  4  5  1  0
  5  6  2  0
  6  7  1  0
  6  8  1  0
  9  8  1  1
  8 20  2  0
  9 10  1  0
  9 15  1  0
 10 11  1  0
 10 12  2  0
 12 13  1  0
 13 14  1  0
 14 15  2  0
 14 19  1  0
 15 16  1  0
 16 17  2  0
 16 18  1  0
 18 19  1  0
M  END
