
     RDKit          3D

 21 23  0  0  0  0  0  0  0  0999 V2000
    0.8020    2.5320    1.3330 C   0  0  0  0  0  0  0  0  0  0  0  0
   -0.5080    1.9520    1.0020 C   0  0  0  0  0  0  0  0  0  0  0  0
   -1.6860    2.5530    1.4640 C   0  0  0  0  0  0  0  0  0  0  0  0
   -2.9090    1.9920    1.1420 C   0  0  0  0  0  0  0  0  0  0  0  0
   -4.4040    2.6970    1.6900 Cl  0  0  0  0  0  0  0  0  0  0  0  0
   -2.9600    0.8490    0.3720 C   0  0  0  0  0  0  0  0  0  0  0  0
   -3.9660    0.0680   -0.1090 C   0  0  0  0  0  0  0  0  0  0  0  0
   -5.4150    0.3300    0.1370 C   0  0  0  0  0  0  0  0  0  0  0  0
   -3.4400   -0.9760   -0.8390 C   0  0  0  0  0  0  0  0  0  0  0  0
   -4.2140   -2.0620   -1.5380 C   0  0  0  0  0  0  0  0  0  0  0  0
   -2.1090   -0.8230   -0.7990 N   0  0  0  0  0  0  0  0  0  0  0  0
   -1.7770    0.2590   -0.0830 C   0  0  0  0  0  0  0  0  0  0  0  0
   -0.5470    0.8120    0.2330 C   0  0  0  0  0  0  0  0  0  0  0  0
    0.6120    0.2490   -0.2020 O   0  0  0  0  0  0  0  0  0  0  0  0
    1.3760   -0.7190    0.4430 C   0  0  0  0  0  0  0  0  0  0  0  0
    2.5710   -1.0040   -0.4650 C   0  0  1  0  0  0  0  0  0  0  0  0
    3.2960    0.3310   -0.5990 C   0  0  0  0  0  0  0  0  0  0  0  0
    4.5090    0.0990   -1.4620 C   0  0  0  0  0  0  0  0  0  0  0  0
    5.2840   -0.9060   -0.9520 O   0  0  0  0  0  0  0  0  0  0  0  0
    4.8590   -1.4180    0.2490 C   0  0  0  0  0  0  0  0  0  0  0  0
    3.4860   -2.0380    0.0980 C   0  0  0  0  0  0  0  0  0  0  0  0
  1  2  1  0
  2  3  2  0
  2 13  1  0
  3  4  1  0
  4  5  1  0
  4  6  2  0
  6  7  1  0
  6 12  1  0
  7  8  1  0
  7  9  2  0
  9 10  1  0
  9 11  1  0
 11 12  1  0
 12 13  2  0
 13 14  1  0
 14 15  1  0
 16 15  1  1
 16 17  1  0
 16 21  1  0
 17 18  1  0
 18 19  1  0
 19 20  1  0
 20 21  1  0
M  END
