
     RDKit          3D

 21 22  0  0  0  0  0  0  0  0999 V2000
    6.7610    0.7910   -2.0280 C   0  0  0  0  0  0  0  0  0  0  0  0
    5.8810    0.3050   -1.1800 C   0  0  0  0  0  0  0  0  0  0  0  0
    6.3940   -0.4580    0.0160 C   0  0  0  0  0  0  0  0  0  0  0  0
    4.4730    0.4860   -1.3710 C   0  0  0  0  0  0  0  0  0  0  0  0
    3.6270   -0.0470   -0.4490 C   0  0  0  0  0  0  0  0  0  0  0  0
    2.2460    0.1500   -0.6700 C   0  0  0  0  0  0  0  0  0  0  0  0
    1.1970   -0.2370    0.0300 C   0  0  0  0  0  0  0  0  0  0  0  0
   -0.1560    0.1270   -0.4620 C   0  0  0  0  0  0  0  0  0  0  0  0
   -1.2910   -0.1980    0.1480 C   0  0  0  0  0  0  0  0  0  0  0  0
   -2.5250    0.2270   -0.4550 C   0  0  0  0  0  0  0  0  0  0  0  0
   -2.3250    0.8780   -1.5920 O   0  0  0  0  0  0  0  0  0  0  0  0
   -3.8630    0.0850   -0.0760 N   0  0  0  0  0  0  0  0  0  0  0  0
   -4.9230    0.6080   -1.0060 C   0  0  0  0  0  0  0  0  0  0  0  0
   -5.8670    1.2260    0.0010 C   0  0  0  0  0  0  0  0  0  0  0  0
   -6.0440    0.0050    0.9120 C   0  0  0  0  0  0  0  0  0  0  0  0
   -4.5620   -0.4380    1.0310 C   0  0  0  0  0  0  0  0  0  0  0  0
   -1.1510   -0.9620    1.3700 C   0  0  0  0  0  0  0  0  0  0  0  0
   -2.1490   -1.3120    2.0020 O   0  0  0  0  0  0  0  0  0  0  0  0
    0.1790   -1.3430    1.8900 C   0  0  0  0  0  0  0  0  0  0  0  0
    1.2890   -1.0000    1.2580 C   0  0  0  0  0  0  0  0  0  0  0  0
    2.8240   -1.4970    1.9530 Cl  0  0  0  0  0  0  0  0  0  0  0  0
  1  2  2  0
  2  3  1  0
  2  4  1  0
  4  5  2  3
  5  6  1  0
  6  7  2  3
  7  8  1  0
  7 20  1  0
  8  9  2  0
  9 10  1  0
  9 17  1  0
 10 11  2  0
 10 12  1  0
 12 13  1  0
 12 16  1  0
 13 14  1  0
 14 15  1  0
 15 16  1  0
 17 18  2  0
 17 19  1  0
 19 20  2  0
 20 21  1  0
M  END
