
     RDKit          3D

 21 23  0  0  0  0  0  0  0  0999 V2000
   -5.0650    2.0460   -0.2560 C   0  0  0  0  0  0  0  0  0  0  0  0
   -4.1480    0.8630   -0.1840 C   0  0  0  0  0  0  0  0  0  0  0  0
   -4.4930   -0.2790   -0.8640 C   0  0  0  0  0  0  0  0  0  0  0  0
   -3.6450   -1.3710   -0.7990 C   0  0  0  0  0  0  0  0  0  0  0  0
   -2.4730   -1.3250   -0.0700 C   0  0  0  0  0  0  0  0  0  0  0  0
   -2.1070   -0.1850    0.6220 C   0  0  0  0  0  0  0  0  0  0  0  0
   -0.8750   -0.0950    1.3990 C   0  0  0  0  0  0  0  0  0  0  0  0
    0.2890   -0.5550    1.0520 C   0  0  0  0  0  0  0  0  0  0  0  0
    1.5440   -0.4730    1.8260 C   0  0  0  0  0  0  0  0  0  0  0  0
    2.5510   -0.2930    0.7350 C   0  0  0  0  0  0  0  0  0  0  0  0
    3.8320    0.2170    0.7350 C   0  0  0  0  0  0  0  0  0  0  0  0
    4.6070    0.2930   -0.4120 C   0  0  0  0  0  0  0  0  0  0  0  0
    5.9550    0.8370   -0.4060 C   0  0  0  0  0  0  0  0  0  0  0  0
    6.4530    1.2520    0.6700 O   0  0  0  0  0  0  0  0  0  0  0  0
    4.0250   -0.1740   -1.5700 C   0  0  0  0  0  0  0  0  0  0  0  0
    4.7140   -0.1160   -2.6390 O   0  0  0  0  0  0  0  0  0  0  0  0
    2.7680   -0.6760   -1.5760 N   0  0  0  0  0  0  0  0  0  0  0  0
    2.0100   -0.7510   -0.4550 C   0  0  0  0  0  0  0  0  0  0  0  0
    0.6290   -1.2480   -0.2010 C   0  0  0  0  0  0  0  0  0  0  0  0
   -2.9870    0.8920    0.5310 C   0  0  0  0  0  0  0  0  0  0  0  0
   -2.5630    2.3480    1.3860 Cl  0  0  0  0  0  0  0  0  0  0  0  0
  1  2  1  0
  2  3  2  0
  2 20  1  0
  3  4  1  0
  4  5  2  0
  5  6  1  0
  6  7  1  0
  6 20  2  0
  7  8  2  3
  8  9  1  0
  8 19  1  0
  9 10  1  0
 10 11  1  0
 10 18  2  0
 11 12  2  0
 12 13  1  0
 12 15  1  0
 13 14  2  0
 15 16  2  0
 15 17  1  0
 17 18  1  0
 18 19  1  0
 20 21  1  0
M  END
