
     RDKit          3D

 21 23  0  0  0  0  0  0  0  0999 V2000
   -0.7470    2.6420    1.0590 C   0  0  0  0  0  0  0  0  0  0  0  0
   -1.6530    1.5600    0.6720 C   0  0  0  0  0  0  0  0  0  0  0  0
   -2.9790    1.8360    0.8220 N   0  0  0  0  0  0  0  0  0  0  0  0
   -3.9280    0.9540    0.5760 C   0  0  0  0  0  0  0  0  0  0  0  0
   -5.1670    1.2360    0.7230 O   0  0  0  0  0  0  0  0  0  0  0  0
   -3.5560   -0.2910    0.1510 C   0  0  0  0  0  0  0  0  0  0  0  0
   -4.5910   -1.1790   -0.0940 C   0  0  0  0  0  0  0  0  0  0  0  0
   -6.2660   -0.7370    0.1270 Cl  0  0  0  0  0  0  0  0  0  0  0  0
   -4.3050   -2.4540   -0.5260 C   0  0  0  0  0  0  0  0  0  0  0  0
   -2.9950   -2.8050   -0.7010 C   0  0  0  0  0  0  0  0  0  0  0  0
   -1.9550   -1.8860   -0.4460 C   0  0  0  0  0  0  0  0  0  0  0  0
   -2.2050   -0.6250   -0.0200 C   0  0  0  0  0  0  0  0  0  0  0  0
   -1.2000    0.3230    0.2440 C   0  0  0  0  0  0  0  0  0  0  0  0
    0.1790   -0.0020   -0.0180 C   0  0  0  0  0  0  0  0  0  0  0  0
    0.5090   -1.2200   -0.3160 O   0  0  0  0  0  0  0  0  0  0  0  0
    1.3510    0.8410   -0.0160 C   0  0  0  0  0  0  0  0  0  0  0  0
    2.5480    0.3490   -0.2670 C   0  0  0  0  0  0  0  0  0  0  0  0
    3.8120    1.1520   -0.2840 C   0  0  0  0  0  0  0  0  0  0  0  0
    4.8830    0.1230    0.1230 C   0  0  0  0  0  0  0  0  0  0  0  0
    4.4360   -1.0520   -0.7110 C   0  0  0  0  0  0  0  0  0  0  0  0
    2.9430   -1.0390   -0.5810 C   0  0  0  0  0  0  0  0  0  0  0  0
  1  2  1  0
  2  3  1  0
  2 13  2  0
  3  4  1  0
  4  5  2  0
  4  6  1  0
  6  7  2  0
  6 12  1  0
  7  8  1  0
  7  9  1  0
  9 10  2  0
 10 11  1  0
 11 12  2  0
 12 13  1  0
 13 14  1  0
 14 15  2  0
 14 16  1  0
 16 17  2  3
 17 18  1  0
 17 21  1  0
 18 19  1  0
 19 20  1  0
 20 21  1  0
M  END
