
     RDKit          3D

 20 21  0  0  0  0  0  0  0  0999 V2000
   -0.6790    0.8520   -0.8620 O   0  0  0  0  0  0  0  0  0  0  0  0
   -1.5810    0.1150   -0.1240 C   0  0  0  0  0  0  0  0  0  0  0  0
   -1.2620   -1.1120    0.2180 C   0  0  0  0  0  0  0  0  0  0  0  0
   -0.0450   -1.8080   -0.0900 C   0  0  0  0  0  0  0  0  0  0  0  0
   -0.0060   -3.1510   -0.4740 C   0  0  0  0  0  0  0  0  0  0  0  0
    1.3050   -3.5270   -0.6890 C   0  0  0  0  0  0  0  0  0  0  0  0
    2.0530   -2.4030   -0.4320 C   0  0  0  0  0  0  0  0  0  0  0  0
    1.2240   -1.3790   -0.0730 N   0  0  0  0  0  0  0  0  0  0  0  0
    1.7450   -0.1030    0.2550 C   0  0  0  0  0  0  0  0  0  0  0  0
    2.5290    0.5810   -0.6830 C   0  0  0  0  0  0  0  0  0  0  0  0
    3.0400    1.8250   -0.3480 C   0  0  0  0  0  0  0  0  0  0  0  0
    2.7820    2.3800    0.8860 C   0  0  0  0  0  0  0  0  0  0  0  0
    2.0120    1.7050    1.8060 C   0  0  0  0  0  0  0  0  0  0  0  0
    1.4960    0.4640    1.4860 C   0  0  0  0  0  0  0  0  0  0  0  0
   -2.8600    0.7600    0.2360 C   0  0  2  0  0  0  0  0  0  0  0  0
   -3.6950   -0.0500    0.9680 O   0  0  0  0  0  0  0  0  0  0  0  0
   -3.5100    1.2120   -1.0570 C   0  0  2  0  0  0  0  0  0  0  0  0
   -2.6690    2.1060   -1.7010 F   0  0  0  0  0  0  0  0  0  0  0  0
   -4.6980    1.8540   -0.8470 F   0  0  0  0  0  0  0  0  0  0  0  0
   -3.6740    0.1310   -1.9020 F   0  0  0  0  0  0  0  0  0  0  0  0
  1  2  1  0
  2  3  2  3
  2 15  1  0
  3  4  1  0
  4  5  2  0
  4  8  1  0
  5  6  1  0
  6  7  2  0
  7  8  1  0
  8  9  1  0
  9 10  2  0
  9 14  1  0
 10 11  1  0
 11 12  2  0
 12 13  1  0
 13 14  2  0
 15 16  1  6
 15 17  1  0
 17 18  1  6
 17 19  1  0
 17 20  1  0
M  END
