
     RDKit          3D

 20 21  0  0  0  0  0  0  0  0999 V2000
   -4.5460    1.7590   -0.1950 C   0  0  0  0  0  0  0  0  0  0  0  0
   -4.5060    0.3940    0.3910 C   0  0  0  0  0  0  0  0  0  0  0  0
   -3.5980   -0.5030    0.0560 C   0  0  0  0  0  0  0  0  0  0  0  0
   -2.5910   -0.0880   -0.9550 C   0  0  0  0  0  0  0  0  0  0  0  0
   -1.2740   -0.1570   -0.4420 O   0  0  0  0  0  0  0  0  0  0  0  0
   -0.1520    0.1740   -1.1730 C   0  0  0  0  0  0  0  0  0  0  0  0
   -0.3310    0.5530   -2.3530 O   0  0  0  0  0  0  0  0  0  0  0  0
    1.2080    0.1000   -0.6370 C   0  0  0  0  0  0  0  0  0  0  0  0
    2.3660    0.4160   -1.3160 C   0  0  0  0  0  0  0  0  0  0  0  0
    3.4660    0.2310   -0.5040 C   0  0  0  0  0  0  0  0  0  0  0  0
    4.8400    0.3950   -0.6770 C   0  0  0  0  0  0  0  0  0  0  0  0
    5.7030    0.1210    0.3450 C   0  0  0  0  0  0  0  0  0  0  0  0
    5.2130   -0.3190    1.5540 C   0  0  0  0  0  0  0  0  0  0  0  0
    3.8510   -0.4770    1.7100 C   0  0  0  0  0  0  0  0  0  0  0  0
    2.9410   -0.2120    0.7040 C   0  0  0  0  0  0  0  0  0  0  0  0
    1.6020   -0.2770    0.5870 N   0  0  0  0  0  0  0  0  0  0  0  0
   -3.6290   -1.8290    0.6830 C   0  0  2  0  0  0  0  0  0  0  0  0
   -3.7890   -2.8580   -0.2170 F   0  0  0  0  0  0  0  0  0  0  0  0
   -4.6720   -1.8710    1.5820 F   0  0  0  0  0  0  0  0  0  0  0  0
   -2.4500   -2.0490    1.3760 F   0  0  0  0  0  0  0  0  0  0  0  0
  1  2  1  0
  2  3  2  3
  3  4  1  0
  3 17  1  0
  4  5  1  0
  5  6  1  0
  6  7  2  0
  6  8  1  0
  8  9  2  0
  8 16  1  0
  9 10  1  0
 10 11  2  0
 10 15  1  0
 11 12  1  0
 12 13  2  0
 13 14  1  0
 14 15  2  0
 15 16  1  0
 17 18  1  6
 17 19  1  0
 17 20  1  0
M  END
