
     RDKit          3D

 20 21  0  0  0  0  0  0  0  0999 V2000
   -4.0330    1.7900    1.0260 C   0  0  0  0  0  0  0  0  0  0  0  0
   -3.4330    1.1060   -0.1850 C   0  0  1  0  0  0  0  0  0  0  0  0
   -3.7030    2.0370   -1.3720 C   0  0  0  0  0  0  0  0  0  0  0  0
   -2.0930    0.8240   -0.0540 O   0  0  0  0  0  0  0  0  0  0  0  0
   -1.4100   -0.3420   -0.1470 C   0  0  0  0  0  0  0  0  0  0  0  0
   -2.0390   -1.5230   -0.4150 C   0  0  0  0  0  0  0  0  0  0  0  0
   -1.3770   -2.7310   -0.5180 C   0  0  0  0  0  0  0  0  0  0  0  0
    0.0060   -2.6880   -0.3300 C   0  0  0  0  0  0  0  0  0  0  0  0
    0.6560   -1.5280   -0.0630 C   0  0  0  0  0  0  0  0  0  0  0  0
    2.0360   -1.2380    0.1640 C   0  0  0  0  0  0  0  0  0  0  0  0
    3.0150   -2.3310    0.1200 C   0  0  1  0  0  0  0  0  0  0  0  0
    4.2890   -2.0770    0.3270 F   0  0  0  0  0  0  0  0  0  0  0  0
    2.6440   -3.3560    1.0080 F   0  0  0  0  0  0  0  0  0  0  0  0
    2.8980   -2.9870   -1.1400 F   0  0  0  0  0  0  0  0  0  0  0  0
    2.0980    0.0750    0.3780 C   0  0  0  0  0  0  0  0  0  0  0  0
    3.2050    0.9610    0.6610 C   0  0  0  0  0  0  0  0  0  0  0  0
    4.4610    0.8120    0.8030 C   0  0  0  0  0  0  0  0  0  0  0  0
    5.2430    2.0340    1.0970 N   0  0  0  0  0  0  0  0  0  0  0  0
    0.8370    0.5760    0.2910 O   0  0  0  0  0  0  0  0  0  0  0  0
   -0.0230   -0.3550    0.0320 C   0  0  0  0  0  0  0  0  0  0  0  0
  2  1  1  1
  2  3  1  0
  2  4  1  0
  4  5  1  0
  5  6  2  0
  5 20  1  0
  6  7  1  0
  7  8  2  0
  8  9  1  0
  9 10  1  0
  9 20  2  0
 10 11  1  0
 10 15  2  0
 11 12  1  1
 11 13  1  0
 11 14  1  0
 15 16  1  0
 15 19  1  0
 16 17  2  3
 17 18  1  0
 19 20  1  0
M  END
