
     RDKit          3D

 20 21  0  0  0  0  0  0  0  0999 V2000
   -2.6310    1.9560    0.7730 C   0  0  0  0  0  0  0  0  0  0  0  0
   -2.9130    0.5790    0.2630 C   0  0  0  0  0  0  0  0  0  0  0  0
   -4.1110   -0.0390    0.4350 C   0  0  0  0  0  0  0  0  0  0  0  0
   -5.0970    0.6560    1.1150 F   0  0  0  0  0  0  0  0  0  0  0  0
   -4.3660   -1.2940   -0.0310 C   0  0  0  0  0  0  0  0  0  0  0  0
   -3.3870   -1.9830   -0.7060 C   0  0  0  0  0  0  0  0  0  0  0  0
   -3.6780   -3.2400   -1.1590 F   0  0  0  0  0  0  0  0  0  0  0  0
   -2.1710   -1.4170   -0.9080 C   0  0  0  0  0  0  0  0  0  0  0  0
   -1.8900   -0.1160   -0.4310 C   0  0  0  0  0  0  0  0  0  0  0  0
   -0.7440    0.4420   -0.6120 O   0  0  0  0  0  0  0  0  0  0  0  0
    0.3930    0.9870   -0.7940 C   0  0  0  0  0  0  0  0  0  0  0  0
    1.5150    0.2050   -0.1610 C   0  0  0  0  0  0  0  0  0  0  0  0
    1.2650   -0.9540    0.5290 C   0  0  0  0  0  0  0  0  0  0  0  0
    2.3260   -1.6590    1.1110 C   0  0  0  0  0  0  0  0  0  0  0  0
    2.0440   -2.8010    1.7860 F   0  0  0  0  0  0  0  0  0  0  0  0
    3.6290   -1.2250    1.0120 C   0  0  0  0  0  0  0  0  0  0  0  0
    3.8480   -0.0510    0.3080 C   0  0  0  0  0  0  0  0  0  0  0  0
    5.1540    0.4700    0.1550 N   0  0  0  0  0  0  0  0  0  0  0  0
    2.8040    0.6450   -0.2650 C   0  0  0  0  0  0  0  0  0  0  0  0
    3.0650    1.8330   -0.9720 O   0  0  0  0  0  0  0  0  0  0  0  0
  1  2  1  0
  2  3  2  0
  2  9  1  0
  3  4  1  0
  3  5  1  0
  5  6  2  0
  6  7  1  0
  6  8  1  0
  8  9  2  0
  9 10  1  0
 10 11  1  0
 11 12  1  0
 12 13  2  0
 12 19  1  0
 13 14  1  0
 14 15  1  0
 14 16  2  0
 16 17  1  0
 17 18  1  0
 17 19  2  0
 19 20  1  0
M  END
