
     RDKit          3D

 22 22  0  0  0  0  0  0  0  0999 V2000
    3.3220   -3.3440    0.5730 C   0  0  0  0  0  0  0  0  0  0  0  0
    3.8290   -2.0520    0.0550 C   0  0  0  0  0  0  0  0  0  0  0  0
    3.1110   -0.9460    0.1350 C   0  0  0  0  0  0  0  0  0  0  0  0
    1.7690   -0.9590    0.7490 C   0  0  0  0  0  0  0  0  0  0  0  0
    0.8830   -0.1710   -0.0570 N   0  0  0  0  0  0  0  0  0  0  0  0
   -0.5200   -0.5390   -0.1040 C   0  0  0  0  0  0  0  0  0  0  0  0
   -1.1730    0.2260    1.0210 C   0  0  0  0  0  0  0  0  0  0  0  0
   -2.4950   -0.0300    1.1270 O   0  0  0  0  0  0  0  0  0  0  0  0
   -3.1920    0.3130   -0.0100 C   0  0  0  0  0  0  0  0  0  0  0  0
   -4.6390    0.0150    0.3110 C   0  0  0  0  0  0  0  0  0  0  0  0
   -5.2640   -0.8550   -0.4360 C   0  0  0  0  0  0  0  0  0  0  0  0
   -4.5960   -1.4700   -1.4840 O   0  0  0  0  0  0  0  0  0  0  0  0
   -5.2700    0.6920    1.4140 C   0  0  0  0  0  0  0  0  0  0  0  0
   -6.6260    0.4040    1.7030 N   0  0  0  0  0  0  0  0  0  0  0  0
   -4.6330    1.5130    2.0960 O   0  0  0  0  0  0  0  0  0  0  0  0
    1.3110    0.9400   -0.8040 C   0  0  0  0  0  0  0  0  0  0  0  0
    0.4890    1.5750   -1.5440 O   0  0  0  0  0  0  0  0  0  0  0  0
    2.7100    1.4330   -0.7800 C   0  0  1  0  0  0  0  0  0  0  0  0
    2.8760    2.5700    0.1940 C   0  0  0  0  0  0  0  0  0  0  0  0
    4.2770    2.9840    0.1460 N   0  0  0  0  0  0  0  0  0  0  0  0
    3.6200    0.3190   -0.3780 C   0  0  0  0  0  0  0  0  0  0  0  0
    4.8740    0.5200   -0.5020 N   0  0  0  0  0  0  0  0  0  0  0  0
  1  2  1  0
  2  3  2  3
  3  4  1  0
  3 21  1  0
  4  5  1  0
  5  6  1  0
  5 16  1  0
  6  7  1  0
  7  8  1  0
  8  9  1  0
  9 10  1  0
 10 11  2  3
 10 13  1  0
 11 12  1  0
 13 14  1  0
 13 15  2  0
 16 17  2  0
 16 18  1  0
 18 19  1  1
 18 21  1  0
 19 20  1  0
 21 22  2  0
M  END
