
     RDKit          3D

 20 21  0  0  0  0  0  0  0  0999 V2000
    5.8620   -0.1800   -0.7170 C   0  0  0  0  0  0  0  0  0  0  0  0
    4.6040   -0.9600   -0.4390 C   0  0  0  0  0  0  0  0  0  0  0  0
    3.4090   -0.0450   -0.2650 C   0  0  0  0  0  0  0  0  0  0  0  0
    2.1920   -0.8850    0.0090 C   0  0  0  0  0  0  0  0  0  0  0  0
    0.9730   -0.0890    0.1940 C   0  0  0  0  0  0  0  0  0  0  0  0
    0.8220    1.2820    0.1490 C   0  0  0  0  0  0  0  0  0  0  0  0
   -0.4930    1.5900    0.3780 C   0  0  0  0  0  0  0  0  0  0  0  0
   -1.1920    2.7710    0.4460 C   0  0  0  0  0  0  0  0  0  0  0  0
   -2.5590    2.7400    0.7040 C   0  0  0  0  0  0  0  0  0  0  0  0
   -3.1870    1.5190    0.8880 C   0  0  0  0  0  0  0  0  0  0  0  0
   -4.5400    1.5570    1.1460 O   0  0  0  0  0  0  0  0  0  0  0  0
   -2.5230    0.3180    0.8280 C   0  0  0  0  0  0  0  0  0  0  0  0
   -3.0770   -0.9300    0.9940 O   0  0  0  0  0  0  0  0  0  0  0  0
   -3.5690   -1.7920    0.0360 C   0  0  0  0  0  0  0  0  0  0  0  0
   -4.7160   -1.3060   -0.8020 C   0  0  2  0  0  0  0  0  0  0  0  0
   -4.4060   -0.1570   -1.5010 F   0  0  0  0  0  0  0  0  0  0  0  0
   -5.9120   -1.2680   -0.1500 F   0  0  0  0  0  0  0  0  0  0  0  0
   -4.9040   -2.2790   -1.8230 F   0  0  0  0  0  0  0  0  0  0  0  0
   -1.1490    0.3730    0.5670 C   0  0  0  0  0  0  0  0  0  0  0  0
   -0.2410   -0.6110    0.4500 N   0  0  0  0  0  0  0  0  0  0  0  0
  1  2  1  0
  2  3  1  0
  3  4  1  0
  4  5  1  0
  5  6  2  0
  5 20  1  0
  6  7  1  0
  7  8  2  0
  7 19  1  0
  8  9  1  0
  9 10  2  0
 10 11  1  0
 10 12  1  0
 12 13  1  0
 12 19  2  0
 13 14  1  0
 14 15  1  0
 15 16  1  6
 15 17  1  0
 15 18  1  0
 19 20  1  0
M  END
