
     RDKit          3D

 24 26  0  0  0  0  0  0  0  0999 V2000
    6.2010   -1.5480    1.2240 C   0  0  0  0  0  0  0  0  0  0  0  0
    5.4190   -0.2560    1.1170 C   0  0  0  0  0  0  0  0  0  0  0  0
    4.0060   -0.6570    0.6990 C   0  0  0  0  0  0  0  0  0  0  0  0
    3.1370    0.5230    0.5580 C   0  0  0  0  0  0  0  0  0  0  0  0
    3.6010    1.6260    0.9490 O   0  0  0  0  0  0  0  0  0  0  0  0
    1.8490    0.4660    0.0210 N   0  0  0  0  0  0  0  0  0  0  0  0
    1.0770    1.7200   -0.0790 C   0  0  0  0  0  0  0  0  0  0  0  0
    0.9810    2.0800   -1.5780 C   0  0  0  0  0  0  0  0  0  0  0  0
    1.0210    0.7920   -2.3910 C   0  0  0  0  0  0  0  0  0  0  0  0
    0.2560   -0.2730   -1.5730 C   0  0  0  0  0  0  0  0  0  0  0  0
    1.1980   -0.7060   -0.4720 C   0  0  2  0  0  0  0  0  0  0  0  0
    0.6090   -1.6150    0.5410 C   0  0  0  0  0  0  0  0  0  0  0  0
   -0.6550   -0.9800    1.5990 S   0  0  0  0  0  0  0  0  0  0  0  0
   -2.2400   -0.7310    0.8710 C   0  0  0  0  0  0  0  0  0  0  0  0
   -2.7540   -1.0210   -0.3260 N   0  0  0  0  0  0  0  0  0  0  0  0
   -4.0330   -0.6660   -0.4090 C   0  0  0  0  0  0  0  0  0  0  0  0
   -5.0300   -0.7220   -1.3640 C   0  0  0  0  0  0  0  0  0  0  0  0
   -6.2700   -0.2530   -1.1050 N   0  0  0  0  0  0  0  0  0  0  0  0
   -6.5970    0.2870    0.0810 C   0  0  0  0  0  0  0  0  0  0  0  0
   -7.8570    0.7790    0.3870 O   0  0  0  0  0  0  0  0  0  0  0  0
   -5.6090    0.3470    1.0400 C   0  0  0  0  0  0  0  0  0  0  0  0
   -5.9900    1.0560    2.6300 S   0  0  0  0  0  0  0  0  0  0  0  0
   -4.3440   -0.1190    0.8100 C   0  0  0  0  0  0  0  0  0  0  0  0
   -3.2550   -0.1610    1.5810 N   0  0  0  0  0  0  0  0  0  0  0  0
  1  2  1  0
  2  3  1  0
  3  4  1  0
  4  5  2  0
  4  6  1  0
  6  7  1  0
  6 11  1  0
  7  8  1  0
  8  9  1  0
  9 10  1  0
 10 11  1  0
 11 12  1  1
 12 13  1  0
 13 14  1  0
 14 15  2  0
 14 24  1  0
 15 16  1  0
 16 17  2  0
 16 23  1  0
 17 18  1  0
 18 19  2  0
 19 20  1  0
 19 21  1  0
 21 22  1  0
 21 23  2  0
 23 24  1  0
M  END
