
     RDKit          3D

 24 26  0  0  0  0  0  0  0  0999 V2000
   -7.3700    1.5770    0.9210 C   0  0  0  0  0  0  0  0  0  0  0  0
   -6.0520    0.9590    1.0750 N   0  0  0  0  0  0  0  0  0  0  0  0
   -5.4770    0.6090   -0.2160 C   0  0  2  0  0  0  0  0  0  0  0  0
   -6.3080   -0.4080   -0.9390 C   0  0  0  0  0  0  0  0  0  0  0  0
   -4.1050    0.1330    0.0670 C   0  0  0  0  0  0  0  0  0  0  0  0
   -3.5380   -0.6380    0.8780 N   0  0  0  0  0  0  0  0  0  0  0  0
   -2.2670   -0.8800    0.9060 C   0  0  0  0  0  0  0  0  0  0  0  0
   -1.6490   -1.8250    1.9160 C   0  0  0  0  0  0  0  0  0  0  0  0
   -1.4790   -0.2610   -0.0020 C   0  0  0  0  0  0  0  0  0  0  0  0
   -0.0440   -0.3140   -0.2330 C   0  0  0  0  0  0  0  0  0  0  0  0
    0.6620    0.3930   -1.2260 C   0  0  0  0  0  0  0  0  0  0  0  0
    1.9670    0.2280   -1.2900 C   0  0  0  0  0  0  0  0  0  0  0  0
    2.5580   -0.6620   -0.3390 C   0  0  0  0  0  0  0  0  0  0  0  0
    3.9700   -0.9990   -0.2170 C   0  0  0  0  0  0  0  0  0  0  0  0
    4.3970   -1.7920    0.6500 O   0  0  0  0  0  0  0  0  0  0  0  0
    4.8950   -0.4100   -1.1090 N   0  0  0  0  0  0  0  0  0  0  0  0
    6.3230   -0.6890   -1.0590 C   0  0  0  0  0  0  0  0  0  0  0  0
    6.8570    0.0790    0.1070 C   0  0  0  0  0  0  0  0  0  0  0  0
    8.2000    0.2200    0.4800 C   0  0  0  0  0  0  0  0  0  0  0  0
    8.2640    0.9710    1.5650 O   0  0  0  0  0  0  0  0  0  0  0  0
    7.0550    1.3300    1.9260 C   0  0  0  0  0  0  0  0  0  0  0  0
    6.1870    0.7900    1.0400 N   0  0  0  0  0  0  0  0  0  0  0  0
    1.1820   -1.1790    0.5590 S   0  0  0  0  0  0  0  0  0  0  0  0
   -2.6110    0.6830   -0.9050 S   0  0  0  0  0  0  0  0  0  0  0  0
  1  2  1  0
  2  3  1  0
  3  4  1  1
  3  5  1  0
  5  6  2  0
  5 24  1  0
  6  7  1  0
  7  8  1  0
  7  9  2  0
  9 10  1  0
  9 24  1  0
 10 11  2  0
 10 23  1  0
 11 12  1  0
 12 13  2  0
 13 14  1  0
 13 23  1  0
 14 15  2  0
 14 16  1  0
 16 17  1  0
 17 18  1  0
 18 19  2  0
 18 22  1  0
 19 20  1  0
 20 21  1  0
 21 22  2  0
M  END
