
     RDKit          3D

 24 26  0  0  0  0  0  0  0  0999 V2000
    1.1420   -4.2420   -1.7860 C   0  0  0  0  0  0  0  0  0  0  0  0
    1.4440   -3.7950   -0.0600 S   0  0  0  0  0  0  0  0  0  0  0  0
    2.3540   -2.2500    0.0420 C   0  0  0  0  0  0  0  0  0  0  0  0
    3.7240   -2.2330    0.0600 C   0  0  0  0  0  0  0  0  0  0  0  0
    4.4030   -1.0310    0.1400 C   0  0  0  0  0  0  0  0  0  0  0  0
    3.7360    0.1690    0.2020 C   0  0  0  0  0  0  0  0  0  0  0  0
    4.3670    1.3760    0.2810 O   0  0  0  0  0  0  0  0  0  0  0  0
    5.6800    1.6760    0.3150 C   0  0  0  0  0  0  0  0  0  0  0  0
    6.1740    2.9430    0.3960 N   0  0  0  0  0  0  0  0  0  0  0  0
    7.3370    3.2640    0.4290 C   0  0  0  0  0  0  0  0  0  0  0  0
    8.3350    2.1610    0.3770 N   0  0  0  0  0  0  0  0  0  0  0  0
    7.1800    0.7350    0.2790 S   0  0  0  0  0  0  0  0  0  0  0  0
    2.3290    0.1540    0.1840 C   0  0  0  0  0  0  0  0  0  0  0  0
    1.6540   -1.0240    0.1060 C   0  0  0  0  0  0  0  0  0  0  0  0
    0.2640   -1.1160    0.0830 N   0  0  0  0  0  0  0  0  0  0  0  0
   -0.6110   -0.0330    0.1360 C   0  0  0  0  0  0  0  0  0  0  0  0
   -0.2370    1.1500    0.2110 O   0  0  0  0  0  0  0  0  0  0  0  0
   -2.0500   -0.2220    0.1080 N   0  0  0  0  0  0  0  0  0  0  0  0
   -2.9150    0.9300    0.1650 C   0  0  1  0  0  0  0  0  0  0  0  0
   -3.7910    1.0490   -1.0600 C   0  0  0  0  0  0  0  0  0  0  0  0
   -5.1380    0.4080   -0.8640 C   0  0  0  0  0  0  0  0  0  0  0  0
   -5.9060    0.9660    0.2950 C   0  0  0  0  0  0  0  0  0  0  0  0
   -5.0080    1.5980    1.3370 C   0  0  0  0  0  0  0  0  0  0  0  0
   -3.7220    0.8420    1.4410 C   0  0  0  0  0  0  0  0  0  0  0  0
  1  2  1  0
  2  3  1  0
  3  4  2  0
  3 14  1  0
  4  5  1  0
  5  6  2  0
  6  7  1  0
  6 13  1  0
  7  8  1  0
  8  9  2  0
  8 12  1  0
  9 10  1  0
 10 11  2  0
 11 12  1  0
 13 14  2  0
 14 15  1  0
 15 16  1  0
 16 17  2  0
 16 18  1  0
 19 18  1  6
 19 20  1  0
 19 24  1  0
 20 21  1  0
 21 22  1  0
 22 23  1  0
 23 24  1  0
M  END
