
     RDKit          3D

 22 24  0  0  0  0  0  0  0  0999 V2000
   -5.1990    0.2430   -0.2300 C   0  0  0  0  0  0  0  0  0  0  0  0
   -4.3460    1.0190    0.6310 N   0  0  0  0  0  0  0  0  0  0  0  0
   -5.0550    1.9550    1.5410 C   0  0  0  0  0  0  0  0  0  0  0  0
   -2.9550    0.9520    0.6660 C   0  0  0  0  0  0  0  0  0  0  0  0
   -2.4150    1.7580    1.5330 O   0  0  0  0  0  0  0  0  0  0  0  0
   -2.0200    0.1590   -0.0790 C   0  0  0  0  0  0  0  0  0  0  0  0
   -2.3260   -0.7670   -1.0520 C   0  0  0  0  0  0  0  0  0  0  0  0
   -1.3610   -1.5110   -1.7440 C   0  0  0  0  0  0  0  0  0  0  0  0
   -0.0320   -1.3420   -1.4740 C   0  0  0  0  0  0  0  0  0  0  0  0
    0.3080   -0.4280   -0.5100 C   0  0  0  0  0  0  0  0  0  0  0  0
    1.7180   -0.2390   -0.2030 C   0  0  0  0  0  0  0  0  0  0  0  0
    2.2710    1.0180   -0.1460 C   0  0  0  0  0  0  0  0  0  0  0  0
    3.5880    1.2300    0.1270 N   0  0  0  0  0  0  0  0  0  0  0  0
    4.1150    2.5950    0.1730 C   0  0  0  0  0  0  0  0  0  0  0  0
    4.3880    0.1800    0.3530 C   0  0  0  0  0  0  0  0  0  0  0  0
    5.6000    0.3650    0.6050 O   0  0  0  0  0  0  0  0  0  0  0  0
    3.8790   -1.0980    0.3070 C   0  0  0  0  0  0  0  0  0  0  0  0
    4.4000   -2.3320    0.4860 N   0  0  0  0  0  0  0  0  0  0  0  0
    3.4690   -3.2870    0.3350 C   0  0  0  0  0  0  0  0  0  0  0  0
    2.2660   -2.6880    0.0430 C   0  0  0  0  0  0  0  0  0  0  0  0
    2.5270   -1.3300    0.0270 C   0  0  0  0  0  0  0  0  0  0  0  0
   -0.6400    0.2950    0.1610 C   0  0  0  0  0  0  0  0  0  0  0  0
  1  2  1  0
  2  3  1  0
  2  4  1  0
  4  5  2  0
  4  6  1  0
  6  7  2  0
  6 22  1  0
  7  8  1  0
  8  9  2  0
  9 10  1  0
 10 11  1  0
 10 22  2  0
 11 12  2  0
 11 21  1  0
 12 13  1  0
 13 14  1  0
 13 15  1  0
 15 16  2  0
 15 17  1  0
 17 18  1  0
 17 21  2  0
 18 19  1  0
 19 20  2  0
 20 21  1  0
M  END
