
     RDKit          3D

 38 43  0  0  0  0  0  0  0  0999 V2000
    2.4600    1.6330    1.3790 O   0  0  0  0  0  0  0  0  0  0  0  0
    2.5080    1.4100    0.1250 C   0  0  0  0  0  0  0  0  0  0  0  0
    3.7590    0.8010   -0.4210 C   0  0  0  0  0  0  0  0  0  0  0  0
    4.6110    0.3640    0.7220 C   0  0  0  0  0  0  0  0  0  0  0  0
    5.8280   -0.2870    0.2420 C   0  0  0  0  0  0  0  0  0  0  0  0
    5.9430   -1.6670    0.0830 C   0  0  0  0  0  0  0  0  0  0  0  0
    7.1740   -1.8890   -0.3930 N   0  0  0  0  0  0  0  0  0  0  0  0
    7.8450   -0.7380   -0.5450 C   0  0  0  0  0  0  0  0  0  0  0  0
    9.1220   -0.4420   -0.9780 C   0  0  0  0  0  0  0  0  0  0  0  0
    9.5550    0.8460   -1.0150 C   0  0  0  0  0  0  0  0  0  0  0  0
    8.7460    1.8980   -0.6260 C   0  0  0  0  0  0  0  0  0  0  0  0
    7.4680    1.6070   -0.1920 C   0  0  0  0  0  0  0  0  0  0  0  0
    7.0030    0.3040   -0.1450 C   0  0  0  0  0  0  0  0  0  0  0  0
    1.4420    1.7050   -0.7470 N   0  0  0  0  0  0  0  0  0  0  0  0
   -0.0310    2.3980   -0.1240 S   0  0  2  0  0  0  0  0  0  0  0  0
   -0.5530    3.4880   -0.9800 O   0  0  0  0  0  0  0  0  0  0  0  0
    0.2550    2.9400    1.2420 O   0  0  0  0  0  0  0  0  0  0  0  0
   -1.2030    1.1850    0.0830 O   0  0  0  0  0  0  0  0  0  0  0  0
   -0.5980   -0.0680   -0.0020 C   0  0  0  0  0  0  0  0  0  0  0  0
   -1.5340   -1.2090    0.1740 C   0  0  1  0  0  0  0  0  0  0  0  0
   -2.2150   -1.2790    1.3580 O   0  0  0  0  0  0  0  0  0  0  0  0
   -3.5020   -1.7620    1.1590 C   0  0  1  0  0  0  0  0  0  0  0  0
   -4.4890   -0.7230    1.3130 N   0  0  0  0  0  0  0  0  0  0  0  0
   -4.4410    0.2230    2.2590 C   0  0  0  0  0  0  0  0  0  0  0  0
   -5.5240    1.0540    2.1460 N   0  0  0  0  0  0  0  0  0  0  0  0
   -6.2750    0.6360    1.1160 C   0  0  0  0  0  0  0  0  0  0  0  0
   -5.6100   -0.4760    0.6080 C   0  0  0  0  0  0  0  0  0  0  0  0
   -6.1400   -1.0880   -0.4280 N   0  0  0  0  0  0  0  0  0  0  0  0
   -7.2920   -0.6610   -0.9900 C   0  0  0  0  0  0  0  0  0  0  0  0
   -7.9480    0.4170   -0.5080 N   0  0  0  0  0  0  0  0  0  0  0  0
   -9.0850    1.0140   -0.8900 C   0  0  0  0  0  0  0  0  0  0  0  0
   -9.3340    2.0960   -0.0560 C   0  0  0  0  0  0  0  0  0  0  0  0
   -8.3060    2.1150    0.8270 N   0  0  0  0  0  0  0  0  0  0  0  0
   -7.4580    1.0870    0.5500 C   0  0  0  0  0  0  0  0  0  0  0  0
   -3.4780   -2.3360   -0.2310 C   0  0  2  0  0  0  0  0  0  0  0  0
   -2.7310   -3.5260   -0.1680 O   0  0  0  0  0  0  0  0  0  0  0  0
   -2.5860   -1.3110   -0.9190 C   0  0  2  0  0  0  0  0  0  0  0  0
   -2.0870   -1.7450   -2.1240 O   0  0  0  0  0  0  0  0  0  0  0  0
  1  2  2  0
  2  3  1  0
  2 14  1  0
  3  4  1  0
  4  5  1  0
  5  6  2  0
  5 13  1  0
  6  7  1  0
  7  8  1  0
  8  9  2  0
  8 13  1  0
  9 10  1  0
 10 11  2  0
 11 12  1  0
 12 13  2  0
 15 14  1  6
 15 16  2  0
 15 17  2  0
 15 18  1  0
 18 19  1  0
 20 19  1  1
 20 21  1  0
 20 37  1  0
 21 22  1  0
 22 23  1  6
 22 35  1  0
 23 24  1  0
 23 27  1  0
 24 25  2  0
 25 26  1  0
 26 27  2  0
 26 34  1  0
 27 28  1  0
 28 29  2  0
 29 30  1  0
 30 31  1  0
 30 34  1  0
 31 32  2  0
 32 33  1  0
 33 34  2  0
 35 36  1  1
 35 37  1  0
 37 38  1  6
M  END
