
     RDKit          3D

 29 32  0  0  0  0  0  0  0  0999 V2000
   -7.1940   -0.1220    0.7220 C   0  0  0  0  0  0  0  0  0  0  0  0
   -5.9840    0.3470    0.5730 C   0  0  0  0  0  0  0  0  0  0  0  0
   -5.7080    1.4320   -0.2910 O   0  0  0  0  0  0  0  0  0  0  0  0
   -4.3460    1.6560   -0.5850 C   0  0  0  0  0  0  0  0  0  0  0  0
   -3.6650    0.3050   -0.7940 C   0  0  2  0  0  0  0  0  0  0  0  0
   -4.4340   -0.4630   -1.8030 C   0  0  0  0  0  0  0  0  0  0  0  0
   -3.8520   -1.8270   -2.0950 C   0  0  0  0  0  0  0  0  0  0  0  0
   -3.5160   -0.3540    0.5480 C   0  0  1  0  0  0  0  0  0  0  0  0
   -2.4220    0.2000    1.2830 N   0  0  0  0  0  0  0  0  0  0  0  0
   -1.0490    0.0530    0.9180 C   0  0  0  0  0  0  0  0  0  0  0  0
   -0.6540   -0.7980   -0.1000 C   0  0  0  0  0  0  0  0  0  0  0  0
    0.6700   -0.9270   -0.4530 C   0  0  0  0  0  0  0  0  0  0  0  0
    1.6460   -0.1930    0.2200 C   0  0  0  0  0  0  0  0  0  0  0  0
    1.2920    0.6570    1.2330 C   0  0  0  0  0  0  0  0  0  0  0  0
   -0.0560    0.7520    1.5510 C   0  0  0  0  0  0  0  0  0  0  0  0
    2.2880    1.4390    1.9570 C   0  0  0  0  0  0  0  0  0  0  0  0
    3.6140    1.2010    1.4790 N   0  0  0  0  0  0  0  0  0  0  0  0
    3.9320    0.3210    0.4380 C   0  0  0  0  0  0  0  0  0  0  0  0
    5.1480   -0.0440   -0.1640 C   0  0  0  0  0  0  0  0  0  0  0  0
    6.4840    0.4820    0.2180 C   0  0  0  0  0  0  0  0  0  0  0  0
    7.4880   -0.1310   -0.6300 N   0  0  0  0  0  0  0  0  0  0  0  0
    7.4520    0.5210   -1.9180 C   0  0  0  0  0  0  0  0  0  0  0  0
    4.8800   -0.9620   -1.1540 C   0  0  0  0  0  0  0  0  0  0  0  0
    3.5480   -1.1310   -1.1340 N   0  0  0  0  0  0  0  0  0  0  0  0
    2.9990   -0.3710   -0.1930 N   0  0  0  0  0  0  0  0  0  0  0  0
   -4.8250   -0.1960    1.2720 C   0  0  0  0  0  0  0  0  0  0  0  0
   -4.9430   -0.5350    2.5420 C   0  0  0  0  0  0  0  0  0  0  0  0
   -3.5680   -1.2010    3.4290 Cl  0  0  0  0  0  0  0  0  0  0  0  0
   -6.4150   -0.3430    3.4410 Cl  0  0  0  0  0  0  0  0  0  0  0  0
  1  2  2  0
  2  3  1  0
  2 26  1  0
  3  4  1  0
  4  5  1  0
  5  6  1  6
  5  8  1  0
  6  7  1  0
  8  9  1  1
  8 26  1  0
  9 10  1  0
 10 11  2  0
 10 15  1  0
 11 12  1  0
 12 13  2  0
 13 14  1  0
 13 25  1  0
 14 15  2  0
 14 16  1  0
 16 17  1  0
 17 18  1  0
 18 19  2  0
 18 25  1  0
 19 20  1  0
 19 23  1  0
 20 21  1  0
 21 22  1  0
 23 24  2  0
 24 25  1  0
 26 27  2  3
 27 28  1  0
 27 29  1  0
M  CHG  1  21   1
M  END
