
     RDKit          3D

 29 32  0  0  0  0  0  0  0  0999 V2000
    2.2930   -2.6850    1.0870 N   0  0  0  0  0  0  0  0  0  0  0  0
    2.5170   -1.6140    0.1440 C   0  0  0  0  0  0  0  0  0  0  0  0
    3.5070   -1.6000   -0.7620 N   0  0  0  0  0  0  0  0  0  0  0  0
    3.4650   -0.4740   -1.5010 C   0  0  0  0  0  0  0  0  0  0  0  0
    4.2200    0.0350   -2.5370 C   0  0  0  0  0  0  0  0  0  0  0  0
    3.9290    1.2480   -3.1100 C   0  0  0  0  0  0  0  0  0  0  0  0
    4.9010    1.8960   -4.4390 Cl  0  0  0  0  0  0  0  0  0  0  0  0
    2.8480    1.9560   -2.6170 C   0  0  0  0  0  0  0  0  0  0  0  0
    2.0950    1.4460   -1.5830 C   0  0  0  0  0  0  0  0  0  0  0  0
    2.3740    0.2200   -0.9900 C   0  0  0  0  0  0  0  0  0  0  0  0
    1.8040   -0.4820    0.0110 N   0  0  0  0  0  0  0  0  0  0  0  0
    0.6450   -0.0990    0.7980 C   0  0  2  0  0  0  0  0  0  0  0  0
    1.0600    0.2950    2.2000 C   0  0  0  0  0  0  0  0  0  0  0  0
    1.9300    1.3890    2.0610 O   0  0  0  0  0  0  0  0  0  0  0  0
   -0.4550   -1.1130    0.7330 C   0  0  0  0  0  0  0  0  0  0  0  0
   -1.6340   -0.7880    1.4850 N   0  0  0  0  0  0  0  0  0  0  0  0
   -2.6750   -0.0320    1.1020 C   0  0  0  0  0  0  0  0  0  0  0  0
   -2.9520    0.6890   -0.1310 C   0  0  0  0  0  0  0  0  0  0  0  0
   -4.1780    1.3700   -0.2050 C   0  0  0  0  0  0  0  0  0  0  0  0
   -4.5490    2.0870   -1.3190 C   0  0  0  0  0  0  0  0  0  0  0  0
   -3.7310    2.1710   -2.4180 C   0  0  0  0  0  0  0  0  0  0  0  0
   -2.5220    1.5200   -2.3880 C   0  0  0  0  0  0  0  0  0  0  0  0
   -1.6730    1.5660   -3.4420 F   0  0  0  0  0  0  0  0  0  0  0  0
   -2.1750    0.7970   -1.2350 C   0  0  0  0  0  0  0  0  0  0  0  0
   -3.5540   -0.0620    2.2060 C   0  0  0  0  0  0  0  0  0  0  0  0
   -2.9960   -0.8130    3.1490 N   0  0  0  0  0  0  0  0  0  0  0  0
   -1.8170   -1.2800    2.7480 C   0  0  0  0  0  0  0  0  0  0  0  0
   -0.9540   -2.1900    3.5450 C   0  0  0  0  0  0  0  0  0  0  0  0
   -1.4880   -3.9000    3.2850 Cl  0  0  0  0  0  0  0  0  0  0  0  0
  1  2  1  0
  2  3  2  0
  2 11  1  0
  3  4  1  0
  4  5  2  0
  4 10  1  0
  5  6  1  0
  6  7  1  0
  6  8  2  0
  8  9  1  0
  9 10  2  0
 10 11  1  0
 11 12  1  0
 12 13  1  1
 12 15  1  0
 13 14  1  0
 15 16  1  0
 16 17  1  0
 16 27  1  0
 17 18  1  0
 17 25  2  0
 18 19  2  0
 18 24  1  0
 19 20  1  0
 20 21  2  0
 21 22  1  0
 22 23  1  0
 22 24  2  0
 25 26  1  0
 26 27  2  0
 27 28  1  0
 28 29  1  0
M  CHG  1   3   1
M  END
