
     RDKit          3D

 30 33  0  0  0  0  0  0  0  0999 V2000
   -2.5600    2.6550   -1.5140 C   0  0  0  0  0  0  0  0  0  0  0  0
   -2.1770    2.2520   -0.1550 N   0  0  0  0  0  0  0  0  0  0  0  0
   -3.1170    1.3710    0.4020 C   0  0  0  0  0  0  0  0  0  0  0  0
   -4.3930    1.8250    0.6390 C   0  0  0  0  0  0  0  0  0  0  0  0
   -5.3570    1.0310    1.1750 C   0  0  0  0  0  0  0  0  0  0  0  0
   -6.9650    1.6620    1.4540 Cl  0  0  0  0  0  0  0  0  0  0  0  0
   -5.0120   -0.2750    1.4830 C   0  0  0  0  0  0  0  0  0  0  0  0
   -3.7300   -0.7470    1.2510 C   0  0  0  0  0  0  0  0  0  0  0  0
   -3.4230   -2.4170    1.6840 Cl  0  0  0  0  0  0  0  0  0  0  0  0
   -2.7480    0.0540    0.7070 C   0  0  0  0  0  0  0  0  0  0  0  0
   -1.4490   -0.4410    0.4780 N   0  0  0  0  0  0  0  0  0  0  0  0
   -0.3780   -0.3790    1.4460 C   0  0  0  0  0  0  0  0  0  0  0  0
    0.9050   -0.9760    0.9270 C   0  0  2  0  0  0  0  0  0  0  0  0
    1.4030   -0.2770   -0.2950 C   0  0  0  0  0  0  0  0  0  0  0  0
    2.6650   -0.8630   -0.6890 N   0  0  0  0  0  0  0  0  0  0  0  0
    3.3270   -0.0780   -1.6930 C   0  0  0  0  0  0  0  0  0  0  0  0
    3.5880    1.2750   -1.1460 C   0  0  0  0  0  0  0  0  0  0  0  0
    4.6900    1.6100   -0.4280 N   0  0  0  0  0  0  0  0  0  0  0  0
    4.6010    2.8790   -0.1030 N   0  0  0  0  0  0  0  0  0  0  0  0
    3.4470    3.3530   -0.6120 C   0  0  0  0  0  0  0  0  0  0  0  0
    3.0010    4.7580   -0.4480 C   0  0  0  0  0  0  0  0  0  0  0  0
    2.8770    2.3590   -1.2260 O   0  0  0  0  0  0  0  0  0  0  0  0
    2.5010   -2.2150   -1.1820 C   0  0  0  0  0  0  0  0  0  0  0  0
    1.6150   -2.9900   -0.2750 C   0  0  0  0  0  0  0  0  0  0  0  0
    1.5960   -4.3690   -0.5010 C   0  0  0  0  0  0  0  0  0  0  0  0
    0.8220   -5.2070    0.2640 C   0  0  0  0  0  0  0  0  0  0  0  0
    0.8120   -6.5630    0.0310 F   0  0  0  0  0  0  0  0  0  0  0  0
    0.0590   -4.6550    1.2660 C   0  0  0  0  0  0  0  0  0  0  0  0
    0.0910   -3.2930    1.4730 C   0  0  0  0  0  0  0  0  0  0  0  0
    0.8550   -2.4210    0.7260 C   0  0  0  0  0  0  0  0  0  0  0  0
  1  2  1  0
  2  3  1  0
  3  4  2  0
  3 10  1  0
  4  5  1  0
  5  6  1  0
  5  7  2  0
  7  8  1  0
  8  9  1  0
  8 10  2  0
 10 11  1  0
 11 12  1  0
 13 12  1  6
 13 14  1  0
 13 30  1  0
 14 15  1  0
 15 16  1  0
 15 23  1  0
 16 17  1  0
 17 18  2  0
 17 22  1  0
 18 19  1  0
 19 20  2  0
 20 21  1  0
 20 22  1  0
 23 24  1  0
 24 25  2  0
 24 30  1  0
 25 26  1  0
 26 27  1  0
 26 28  2  0
 28 29  1  0
 29 30  2  0
M  CHG  1   2   1
M  END
