
     RDKit          3D

 26 28  0  0  0  0  0  0  0  0999 V2000
    7.4040    0.9370   -0.2100 C   0  0  0  0  0  0  0  0  0  0  0  0
    6.0880    1.0020    0.5130 C   0  0  0  0  0  0  0  0  0  0  0  0
    5.9530    0.6430    1.6900 O   0  0  0  0  0  0  0  0  0  0  0  0
    4.9520    1.4350   -0.2470 N   0  0  0  0  0  0  0  0  0  0  0  0
    3.4110    1.1000    0.1890 S   0  0  2  0  0  0  0  0  0  0  0  0
    2.3900    2.1200   -0.0250 O   0  0  0  0  0  0  0  0  0  0  0  0
    3.2500    0.5840    1.6890 O   0  0  0  0  0  0  0  0  0  0  0  0
    2.8600   -0.3970   -0.6440 N   0  0  0  0  0  0  0  0  0  0  0  0
    1.6120    0.0260   -1.2000 C   0  0  0  0  0  0  0  0  0  0  0  0
    0.6670   -0.8600   -0.4040 C   0  0  1  0  0  0  0  0  0  0  0  0
   -0.1730    0.2080    0.2600 O   0  0  0  0  0  0  0  0  0  0  0  0
   -1.1710   -0.4950    0.8800 C   0  0  1  0  0  0  0  0  0  0  0  0
   -2.4160    0.2690    0.8520 N   0  0  0  0  0  0  0  0  0  0  0  0
   -2.5430    1.4170    1.4940 C   0  0  0  0  0  0  0  0  0  0  0  0
   -3.7230    1.9310    1.3120 N   0  0  0  0  0  0  0  0  0  0  0  0
   -4.4200    1.1360    0.4660 C   0  0  0  0  0  0  0  0  0  0  0  0
   -5.7250    1.0920   -0.0090 C   0  0  0  0  0  0  0  0  0  0  0  0
   -6.6160    2.1100    0.3750 N   0  0  0  0  0  0  0  0  0  0  0  0
   -6.0540    0.0610   -0.7860 N   0  0  0  0  0  0  0  0  0  0  0  0
   -5.2410   -0.9390   -1.0150 C   0  0  0  0  0  0  0  0  0  0  0  0
   -3.9970   -0.9170   -0.5400 N   0  0  0  0  0  0  0  0  0  0  0  0
   -3.5190    0.1050    0.1880 C   0  0  0  0  0  0  0  0  0  0  0  0
   -1.2350   -1.8550    0.3060 C   0  0  2  0  0  0  0  0  0  0  0  0
   -0.5540   -2.7880    1.1070 O   0  0  0  0  0  0  0  0  0  0  0  0
   -0.3470   -1.6690   -0.9470 C   0  0  2  0  0  0  0  0  0  0  0  0
    0.2060   -2.8910   -1.3750 O   0  0  0  0  0  0  0  0  0  0  0  0
  1  2  1  0
  2  3  2  0
  2  4  1  0
  5  4  1  6
  5  6  2  0
  5  7  2  0
  5  8  1  0
  8  9  1  0
 10  9  1  6
 10 11  1  0
 10 25  1  0
 11 12  1  0
 12 13  1  6
 12 23  1  0
 13 14  1  0
 13 22  1  0
 14 15  2  0
 15 16  1  0
 16 17  2  0
 16 22  1  0
 17 18  1  0
 17 19  1  0
 19 20  2  0
 20 21  1  0
 21 22  2  0
 23 24  1  1
 23 25  1  0
 25 26  1  1
M  END
