
     RDKit          3D

 26 27  0  0  0  0  0  0  0  0999 V2000
    8.8800   -2.3390   -0.6450 C   0  0  0  0  0  0  0  0  0  0  0  0
    8.0160   -1.3050   -0.1160 N   0  0  0  0  0  0  0  0  0  0  0  0
    6.7420   -1.0260   -0.6750 C   0  0  0  0  0  0  0  0  0  0  0  0
    6.3290   -1.6880   -1.6640 O   0  0  0  0  0  0  0  0  0  0  0  0
    5.9020    0.0080   -0.1310 N   0  0  0  0  0  0  0  0  0  0  0  0
    4.6450    0.2370   -0.7320 C   0  0  2  0  0  0  0  0  0  0  0  0
    4.3360    1.6630   -0.9190 N   0  0  0  0  0  0  0  0  0  0  0  0
    3.0110    1.8310   -1.1430 N   0  0  0  0  0  0  0  0  0  0  0  0
    2.2390    1.3110   -0.3700 C   0  0  0  0  0  0  0  0  0  0  0  0
    0.8820    1.5020   -0.5890 N   0  0  0  0  0  0  0  0  0  0  0  0
   -0.0350    1.3510    0.4260 C   0  0  0  0  0  0  0  0  0  0  0  0
    0.4630    1.0850    1.5350 O   0  0  0  0  0  0  0  0  0  0  0  0
   -1.4540    1.4990    0.2480 C   0  0  0  0  0  0  0  0  0  0  0  0
   -1.9450    1.6430   -0.8800 O   0  0  0  0  0  0  0  0  0  0  0  0
   -2.2700    1.4840    1.3930 N   0  0  0  0  0  0  0  0  0  0  0  0
   -3.6710    1.6310    1.3830 C   0  0  0  0  0  0  0  0  0  0  0  0
   -4.4150    0.5860    0.6130 C   0  0  1  0  0  0  0  0  0  0  0  0
   -4.1540   -0.8140    1.1330 C   0  0  0  0  0  0  0  0  0  0  0  0
   -4.8870   -1.7160    0.2660 N   0  0  0  0  0  0  0  0  0  0  0  0
   -6.1920   -1.3870   -0.1890 C   0  0  0  0  0  0  0  0  0  0  0  0
   -7.0010   -2.3460   -0.8300 O   0  0  0  0  0  0  0  0  0  0  0  0
   -6.6230   -0.1570    0.0070 C   0  0  0  0  0  0  0  0  0  0  0  0
   -7.9540    0.1950   -0.4510 C   0  0  0  0  0  0  0  0  0  0  0  0
   -8.4110    1.3440   -0.2910 O   0  0  0  0  0  0  0  0  0  0  0  0
   -5.8130    0.7960    0.6460 O   0  0  0  0  0  0  0  0  0  0  0  0
    3.2790    0.1240    0.5340 S   0  0  0  0  0  0  0  0  0  0  0  0
  1  2  1  0
  2  3  1  0
  3  4  2  0
  3  5  1  0
  6  5  1  1
  6  7  1  0
  6 26  1  0
  7  8  1  0
  8  9  2  0
  9 10  1  0
  9 26  1  0
 10 11  1  0
 11 12  2  0
 11 13  1  0
 13 14  2  0
 13 15  1  0
 15 16  1  0
 17 16  1  1
 17 18  1  0
 17 25  1  0
 18 19  1  0
 19 20  1  0
 20 21  1  0
 20 22  2  0
 22 23  1  0
 22 25  1  0
 23 24  2  0
M  END
