
     RDKit          3D

 26 27  0  0  0  0  0  0  0  0999 V2000
    3.0800    3.9480    0.7800 C   0  0  0  0  0  0  0  0  0  0  0  0
    3.5830    2.5790    0.8830 N   0  0  0  0  0  0  0  0  0  0  0  0
    2.8900    1.4760    0.2200 C   0  0  0  0  0  0  0  0  0  0  0  0
    1.8810    1.8660   -0.3970 O   0  0  0  0  0  0  0  0  0  0  0  0
    3.4100    0.1370    0.3400 C   0  0  0  0  0  0  0  0  0  0  0  0
    2.8650   -0.8990   -0.2110 C   0  0  0  0  0  0  0  0  0  0  0  0
    1.6760   -0.8510   -1.0100 C   0  0  0  0  0  0  0  0  0  0  0  0
    0.9850    0.1650   -1.3010 O   0  0  0  0  0  0  0  0  0  0  0  0
    1.1200   -2.0460   -1.5970 N   0  0  0  0  0  0  0  0  0  0  0  0
   -0.1040   -1.9790   -2.4110 C   0  0  0  0  0  0  0  0  0  0  0  0
   -1.1660   -1.4770   -1.5450 C   0  0  0  0  0  0  0  0  0  0  0  0
   -1.0410   -1.1320   -0.3190 O   0  0  0  0  0  0  0  0  0  0  0  0
   -2.4720   -1.3330   -1.9760 N   0  0  0  0  0  0  0  0  0  0  0  0
   -3.3810   -0.7370   -1.0660 C   0  0  0  0  0  0  0  0  0  0  0  0
   -4.4500   -1.2780   -1.0460 N   0  0  0  0  0  0  0  0  0  0  0  0
   -5.5190   -0.9410   -0.2480 N   0  0  0  0  0  0  0  0  0  0  0  0
   -5.5710    0.0920    0.6830 C   0  0  0  0  0  0  0  0  0  0  0  0
   -6.3410    0.0100    1.6710 O   0  0  0  0  0  0  0  0  0  0  0  0
   -4.7330    1.2840    0.5250 C   0  0  1  0  0  0  0  0  0  0  0  0
   -4.1350    1.5340    1.9260 C   0  0  0  0  0  0  0  0  0  0  0  0
   -3.3570    0.9730   -0.5390 S   0  0  0  0  0  0  0  0  0  0  0  0
    3.4870   -2.1880   -0.0130 N   0  0  0  0  0  0  0  0  0  0  0  0
    4.6610   -2.3390    0.7580 N   0  0  0  0  0  0  0  0  0  0  0  0
    5.2270   -1.1820    1.3450 C   0  0  0  0  0  0  0  0  0  0  0  0
    6.2660   -1.2890    2.0310 O   0  0  0  0  0  0  0  0  0  0  0  0
    4.5930    0.0160    1.1230 O   0  0  0  0  0  0  0  0  0  0  0  0
  1  2  1  0
  2  3  1  0
  3  4  2  0
  3  5  1  0
  5  6  2  0
  5 26  1  0
  6  7  1  0
  6 22  1  0
  7  8  2  0
  7  9  1  0
  9 10  1  0
 10 11  1  0
 11 12  2  0
 11 13  1  0
 13 14  1  0
 14 15  2  0
 14 21  1  0
 15 16  1  0
 16 17  1  0
 17 18  2  0
 17 19  1  0
 19 20  1  1
 19 21  1  0
 22 23  1  0
 23 24  1  0
 24 25  2  0
 24 26  1  0
M  END
