
     RDKit          3D

 13 13  0  0  0  0  0  0  0  0999 V2000
    4.9760    0.1510    0.1240 C   0  0  0  0  0  0  0  0  0  0  0  0
    3.7820    0.5170    0.8150 O   0  0  0  0  0  0  0  0  0  0  0  0
    2.5430    0.3790    0.1960 C   0  0  0  0  0  0  0  0  0  0  0  0
    2.5740   -0.0800   -0.9810 O   0  0  0  0  0  0  0  0  0  0  0  0
    1.2770    0.7350    0.8450 C   0  0  0  0  0  0  0  0  0  0  0  0
    0.1140    0.3860    0.0710 N   0  0  0  0  0  0  0  0  0  0  0  0
   -0.0240   -1.0210    0.0430 C   0  0  0  0  0  0  0  0  0  0  0  0
   -1.2530   -1.5270   -0.6580 C   0  0  0  0  0  0  0  0  0  0  0  0
   -2.4920   -1.4720    0.2160 C   0  0  0  0  0  0  0  0  0  0  0  0
   -3.2820   -0.2310   -0.0890 C   0  0  0  0  0  0  0  0  0  0  0  0
   -2.6680    0.5060   -1.1010 O   0  0  0  0  0  0  0  0  0  0  0  0
   -1.9530    1.5470   -0.5840 C   0  0  0  0  0  0  0  0  0  0  0  0
   -0.9940    1.1530    0.5140 C   0  0  0  0  0  0  0  0  0  0  0  0
  1  2  1  0
  2  3  1  0
  3  4  2  0
  3  5  1  0
  5  6  1  0
  6  7  1  0
  6 13  1  0
  7  8  1  0
  8  9  1  0
  9 10  1  0
 10 11  1  0
 11 12  1  0
 12 13  1  0
M  END
