
     RDKit          3D

 14 14  0  0  0  0  0  0  0  0999 V2000
   -3.3920   -2.0610   -0.1560 C   0  0  0  0  0  0  0  0  0  0  0  0
   -1.9960   -1.7720   -0.1670 N   0  0  0  0  0  0  0  0  0  0  0  0
   -1.4690   -0.6410    0.1290 C   0  0  0  0  0  0  0  0  0  0  0  0
   -2.2800    0.4220    0.4980 O   0  0  0  0  0  0  0  0  0  0  0  0
   -1.9050    1.7920    0.7040 C   0  0  0  0  0  0  0  0  0  0  0  0
   -0.8930    2.1510   -0.3660 C   0  0  0  0  0  0  0  0  0  0  0  0
    0.5180    1.8690    0.1320 C   0  0  0  0  0  0  0  0  0  0  0  0
    0.8340    0.4240    0.0410 C   0  0  0  0  0  0  0  0  0  0  0  0
    2.2590    0.0990   -0.0630 C   0  0  0  0  0  0  0  0  0  0  0  0
    3.1130    1.0090   -0.0710 O   0  0  0  0  0  0  0  0  0  0  0  0
    2.7160   -1.2040   -0.1560 O   0  0  0  0  0  0  0  0  0  0  0  0
    4.0920   -1.5310   -0.2580 C   0  0  0  0  0  0  0  0  0  0  0  0
   -0.0090   -0.5950    0.0420 C   0  0  0  0  0  0  0  0  0  0  0  0
    0.7570   -2.1730   -0.0840 Cl  0  0  0  0  0  0  0  0  0  0  0  0
  1  2  1  0
  2  3  2  3
  3  4  1  0
  3 13  1  0
  4  5  1  0
  5  6  1  0
  6  7  1  0
  7  8  1  0
  8  9  1  0
  8 13  2  0
  9 10  2  0
  9 11  1  0
 11 12  1  0
 13 14  1  0
M  END
