
     RDKit          3D

 13 13  0  0  0  0  0  0  0  0999 V2000
   -0.4710    2.3190    0.1780 C   0  0  0  0  0  0  0  0  0  0  0  0
   -1.5700    1.6400   -0.6280 C   0  0  0  0  0  0  0  0  0  0  0  0
   -1.5840    0.2010   -0.2890 C   0  0  0  0  0  0  0  0  0  0  0  0
   -2.7110   -0.2940    0.2360 C   0  0  0  0  0  0  0  0  0  0  0  0
   -2.7630   -1.6330    0.5660 O   0  0  0  0  0  0  0  0  0  0  0  0
   -1.6030   -2.3470    0.9080 C   0  0  0  0  0  0  0  0  0  0  0  0
   -0.3490   -1.8560    0.2720 C   0  0  0  0  0  0  0  0  0  0  0  0
   -0.4800   -0.6530   -0.4950 N   0  0  0  0  0  0  0  0  0  0  0  0
    0.5200   -0.3240   -1.4710 C   0  0  0  0  0  0  0  0  0  0  0  0
    1.8260    0.0150   -0.8990 C   0  0  0  0  0  0  0  0  0  0  0  0
    2.7680    0.3450   -1.6600 O   0  0  0  0  0  0  0  0  0  0  0  0
    2.0840   -0.0090    0.4610 O   0  0  0  0  0  0  0  0  0  0  0  0
    3.3670    0.3270    0.9920 C   0  0  0  0  0  0  0  0  0  0  0  0
  1  2  1  0
  2  3  1  0
  3  4  2  0
  3  8  1  0
  4  5  1  0
  5  6  1  0
  6  7  1  0
  7  8  1  0
  8  9  1  0
  9 10  1  0
 10 11  2  0
 10 12  1  0
 12 13  1  0
M  END
