
     RDKit          3D

 14 14  0  0  0  0  0  0  0  0999 V2000
   -2.3680   -0.5590    0.1760 C   0  0  0  0  0  0  0  0  0  0  0  0
   -0.9180   -0.6560   -0.1400 C   0  0  2  0  0  0  0  0  0  0  0  0
   -0.7710   -1.6790   -1.2730 C   0  0  0  0  0  0  0  0  0  0  0  0
   -0.1670   -1.2870    1.0440 C   0  0  0  0  0  0  0  0  0  0  0  0
    1.1040   -1.5740    0.4890 O   0  0  0  0  0  0  0  0  0  0  0  0
    1.7550   -0.3520    0.3900 C   0  0  1  0  0  0  0  0  0  0  0  0
    3.2000   -0.5390    0.1200 C   0  0  0  0  0  0  0  0  0  0  0  0
    3.5990   -1.7050    0.0490 O   0  0  0  0  0  0  0  0  0  0  0  0
    4.3390    0.7560   -0.0970 Cl  0  0  0  0  0  0  0  0  0  0  0  0
    1.0970    0.5700   -0.5840 C   0  0  0  0  0  0  0  0  0  0  0  0
   -0.3140    0.5880   -0.4640 N   0  0  0  0  0  0  0  0  0  0  0  0
   -0.7210    1.6320    0.4110 C   0  0  0  0  0  0  0  0  0  0  0  0
   -0.4790    2.9690   -0.1830 C   0  0  0  0  0  0  0  0  0  0  0  0
   -0.0380    3.0590   -1.3050 O   0  0  0  0  0  0  0  0  0  0  0  0
  2  1  1  1
  2  3  1  0
  2  4  1  0
  2 11  1  0
  4  5  1  0
  5  6  1  0
  6  7  1  6
  6 10  1  0
  7  8  2  0
  7  9  1  0
 10 11  1  0
 11 12  1  0
 12 13  1  0
 13 14  2  0
M  END
