
     RDKit          3D

 14 14  0  0  0  0  0  0  0  0999 V2000
    3.6150    0.2690    0.9330 C   0  0  0  0  0  0  0  0  0  0  0  0
    2.8170    0.7110   -0.2470 C   0  0  0  0  0  0  0  0  0  0  0  0
    1.8310   -0.2670   -0.5950 N   0  0  0  0  0  0  0  0  0  0  0  0
    0.8180   -0.2930    0.4820 C   0  0  0  0  0  0  0  0  0  0  0  0
   -0.2360   -1.2340    0.1750 C   0  0  0  0  0  0  0  0  0  0  0  0
    0.3920   -2.9430    0.1010 Cl  0  0  0  0  0  0  0  0  0  0  0  0
   -1.5150   -1.1340   -0.0520 C   0  0  0  0  0  0  0  0  0  0  0  0
   -2.2790   -2.3520   -0.3260 O   0  0  0  0  0  0  0  0  0  0  0  0
   -3.3670   -1.8710   -1.1310 C   0  0  0  0  0  0  0  0  0  0  0  0
   -3.7250   -0.6880   -0.3970 O   0  0  0  0  0  0  0  0  0  0  0  0
   -2.4340   -0.0350   -0.1010 C   0  0  0  0  0  0  0  0  0  0  0  0
   -2.3860    1.2410    0.0290 C   0  0  0  0  0  0  0  0  0  0  0  0
   -1.4640    2.2820    0.2770 C   0  0  0  0  0  0  0  0  0  0  0  0
   -1.8960    3.5260    0.3620 O   0  0  0  0  0  0  0  0  0  0  0  0
  1  2  1  0
  2  3  1  0
  3  4  1  0
  4  5  1  0
  5  6  1  0
  5  7  2  3
  7  8  1  0
  7 11  1  0
  8  9  1  0
  9 10  1  0
 10 11  1  0
 11 12  2  3
 12 13  1  0
 13 14  2  0
M  END
