
     RDKit          3D

 29 31  0  0  0  0  0  0  0  0999 V2000
    7.6690    0.7750    1.5460 C   0  0  0  0  0  0  0  0  0  0  0  0
    7.5630   -0.5030    0.7730 C   0  0  0  0  0  0  0  0  0  0  0  0
    6.4220   -0.3910   -0.1610 N   0  0  0  0  0  0  0  0  0  0  0  0
    6.4820    0.0930   -1.4880 C   0  0  0  0  0  0  0  0  0  0  0  0
    7.5740    0.2680   -2.1140 O   0  0  0  0  0  0  0  0  0  0  0  0
    5.1190    0.3420   -1.9830 C   0  0  0  0  0  0  0  0  0  0  0  0
    4.2230   -0.0820   -0.8670 C   0  0  2  0  0  0  0  0  0  0  0  0
    3.1170   -1.0300   -1.3100 C   0  0  0  0  0  0  0  0  0  0  0  0
    1.9510   -0.8820   -0.3100 C   0  0  0  0  0  0  0  0  0  0  0  0
    1.3980    0.4360   -0.4540 N   0  0  0  0  0  0  0  0  0  0  0  0
    0.0340    0.6880   -0.2400 C   0  0  0  0  0  0  0  0  0  0  0  0
   -0.3200    1.9140   -0.4380 O   0  0  0  0  0  0  0  0  0  0  0  0
   -0.9660   -0.3160    0.1720 C   0  0  2  0  0  0  0  0  0  0  0  0
   -2.2380    0.1520   -0.3890 N   0  0  0  0  0  0  0  0  0  0  0  0
   -3.2670   -0.8470   -0.2930 C   0  0  0  0  0  0  0  0  0  0  0  0
   -4.5290   -0.2530   -0.8990 C   0  0  1  0  0  0  0  0  0  0  0  0
   -4.1830    0.0820   -2.3390 C   0  0  0  0  0  0  0  0  0  0  0  0
   -5.6910   -1.1890   -0.8110 C   0  0  0  0  0  0  0  0  0  0  0  0
   -6.8830   -0.2430   -0.9210 C   0  0  0  0  0  0  0  0  0  0  0  0
   -6.4690    0.9500   -0.0730 C   0  0  1  0  0  0  0  0  0  0  0  0
   -6.8380    0.6710    1.3810 C   0  0  0  0  0  0  0  0  0  0  0  0
   -4.9750    0.9840   -0.1940 C   0  0  0  0  0  0  0  0  0  0  0  0
   -1.0810   -0.3430    1.6870 C   0  0  2  0  0  0  0  0  0  0  0  0
   -1.5060    1.0080    2.2290 C   0  0  0  0  0  0  0  0  0  0  0  0
    0.1500   -0.8620    2.3710 C   0  0  0  0  0  0  0  0  0  0  0  0
    2.3430    1.4830   -0.8430 C   0  0  0  0  0  0  0  0  0  0  0  0
    3.6620    1.1510   -0.1870 C   0  0  0  0  0  0  0  0  0  0  0  0
    5.0980   -0.7530    0.1370 C   0  0  0  0  0  0  0  0  0  0  0  0
    4.6820   -1.4920    1.0550 O   0  0  0  0  0  0  0  0  0  0  0  0
  1  2  1  0
  2  3  1  0
  3  4  1  0
  3 28  1  0
  4  5  2  0
  4  6  1  0
  7  6  1  6
  7  8  1  0
  7 27  1  0
  7 28  1  0
  8  9  1  0
  9 10  1  0
 10 11  1  0
 10 26  1  0
 11 12  2  0
 11 13  1  0
 13 14  1  6
 13 23  1  0
 14 15  1  0
 15 16  1  0
 16 17  1  6
 16 18  1  0
 16 22  1  0
 18 19  1  0
 19 20  1  0
 20 21  1  1
 20 22  1  0
 23 24  1  1
 23 25  1  0
 26 27  1  0
 28 29  2  0
M  END
