
     RDKit          3D

 29 33  0  0  0  0  0  0  0  0999 V2000
   -4.6170    2.5330   -0.7040 C   0  0  0  0  0  0  0  0  0  0  0  0
   -3.9690    1.1920   -0.6430 C   0  0  0  0  0  0  0  0  0  0  0  0
   -2.6650    1.0660   -1.0720 C   0  0  0  0  0  0  0  0  0  0  0  0
   -1.9630   -0.1330   -1.0570 C   0  0  0  0  0  0  0  0  0  0  0  0
   -0.6360   -0.2410   -1.5170 N   0  0  0  0  0  0  0  0  0  0  0  0
    0.1350   -1.4090   -1.2600 C   0  0  0  0  0  0  0  0  0  0  0  0
    0.5060   -1.6480    0.1660 C   0  0  1  0  0  0  0  0  0  0  0  0
    1.2980   -2.9630    0.2030 C   0  0  0  0  0  0  0  0  0  0  0  0
    2.5710   -2.7760   -0.3820 O   0  0  0  0  0  0  0  0  0  0  0  0
    3.2520   -1.5940   -0.1560 C   0  0  0  0  0  0  0  0  0  0  0  0
    4.6090   -1.4670   -0.4720 C   0  0  0  0  0  0  0  0  0  0  0  0
    5.2980   -0.2790   -0.2460 C   0  0  0  0  0  0  0  0  0  0  0  0
    4.6430    0.8040    0.3010 C   0  0  0  0  0  0  0  0  0  0  0  0
    3.3080    0.6960    0.6190 C   0  0  0  0  0  0  0  0  0  0  0  0
    2.6220   -0.5080    0.3860 C   0  0  0  0  0  0  0  0  0  0  0  0
    1.2810   -0.5970    0.7120 O   0  0  0  0  0  0  0  0  0  0  0  0
    5.3870    2.0680    0.5410 C   0  0  0  0  0  0  0  0  0  0  0  0
    6.7590    1.6270    1.0690 C   0  0  0  0  0  0  0  0  0  0  0  0
    7.4520    0.9840   -0.1120 C   0  0  0  0  0  0  0  0  0  0  0  0
    6.7360   -0.2240   -0.6090 C   0  0  0  0  0  0  0  0  0  0  0  0
   -2.6120   -1.2450   -0.5890 C   0  0  0  0  0  0  0  0  0  0  0  0
   -3.9190   -1.1450   -0.1530 C   0  0  0  0  0  0  0  0  0  0  0  0
   -4.5910    0.0550   -0.1790 C   0  0  0  0  0  0  0  0  0  0  0  0
   -5.9680    0.1410    0.2810 C   0  0  0  0  0  0  0  0  0  0  0  0
   -6.9230    0.7990   -0.4480 C   0  0  0  0  0  0  0  0  0  0  0  0
   -8.2120    0.8590    0.0230 C   0  0  0  0  0  0  0  0  0  0  0  0
   -8.5050    0.2680    1.1930 N   0  0  0  0  0  0  0  0  0  0  0  0
   -7.6000   -0.3870    1.9380 C   0  0  0  0  0  0  0  0  0  0  0  0
   -6.3050   -0.4520    1.4740 C   0  0  0  0  0  0  0  0  0  0  0  0
  1  2  1  0
  2  3  2  0
  2 23  1  0
  3  4  1  0
  4  5  1  0
  4 21  2  0
  5  6  1  0
  7  6  1  6
  7  8  1  0
  7 16  1  0
  8  9  1  0
  9 10  1  0
 10 11  2  0
 10 15  1  0
 11 12  1  0
 12 13  2  0
 12 20  1  0
 13 14  1  0
 13 17  1  0
 14 15  2  0
 15 16  1  0
 17 18  1  0
 18 19  1  0
 19 20  1  0
 21 22  1  0
 22 23  2  0
 23 24  1  0
 24 25  2  0
 24 29  1  0
 25 26  1  0
 26 27  2  0
 27 28  1  0
 28 29  2  0
M  END
