
     RDKit          3D

 29 32  0  0  0  0  0  0  0  0999 V2000
    6.3440   -2.5050    0.5370 C   0  0  0  0  0  0  0  0  0  0  0  0
    6.0140   -1.2850   -0.3070 C   0  0  0  0  0  0  0  0  0  0  0  0
    4.5410   -1.0330   -0.1970 C   0  0  0  0  0  0  0  0  0  0  0  0
    3.6580   -1.6120   -1.0870 C   0  0  0  0  0  0  0  0  0  0  0  0
    2.3050   -1.3700   -0.9720 C   0  0  0  0  0  0  0  0  0  0  0  0
    1.7710   -0.5470    0.0250 C   0  0  0  0  0  0  0  0  0  0  0  0
    0.3350   -0.3510    0.0860 C   0  0  0  0  0  0  0  0  0  0  0  0
   -0.4140   -1.2270    0.8580 C   0  0  0  0  0  0  0  0  0  0  0  0
   -1.7780   -1.0790    0.9450 C   0  0  0  0  0  0  0  0  0  0  0  0
   -2.3470   -0.0440    0.2470 C   0  0  0  0  0  0  0  0  0  0  0  0
   -1.5700    0.8090   -0.5110 C   0  0  0  0  0  0  0  0  0  0  0  0
   -2.1150    1.7600   -1.1490 O   0  0  0  0  0  0  0  0  0  0  0  0
   -0.2110    0.6650   -0.6020 N   0  0  0  0  0  0  0  0  0  0  0  0
    0.6180    1.4980   -1.3640 C   0  0  0  0  0  0  0  0  0  0  0  0
    1.8540    1.2980   -1.3650 O   0  0  0  0  0  0  0  0  0  0  0  0
    0.1000    2.6140   -2.1770 C   0  0  0  0  0  0  0  0  0  0  0  0
   -0.1090    3.8490   -1.3610 C   0  0  0  0  0  0  0  0  0  0  0  0
    0.1430    3.9250   -0.0630 C   0  0  0  0  0  0  0  0  0  0  0  0
   -0.1720    5.2760    0.4210 C   0  0  0  0  0  0  0  0  0  0  0  0
   -0.5110    5.9250   -0.6720 C   0  0  0  0  0  0  0  0  0  0  0  0
   -0.5940    5.1570   -1.7480 C   0  0  0  0  0  0  0  0  0  0  0  0
   -3.7370    0.4340    0.0890 C   0  0  0  0  0  0  0  0  0  0  0  0
   -4.6130   -0.5670   -0.6190 C   0  0  0  0  0  0  0  0  0  0  0  0
   -4.4000   -1.9760   -0.0930 C   0  0  0  0  0  0  0  0  0  0  0  0
   -4.6760   -2.0790    1.3740 C   0  0  0  0  0  0  0  0  0  0  0  0
   -3.5430   -2.6000    2.1930 C   0  0  0  0  0  0  0  0  0  0  0  0
   -2.2490   -2.1180    1.7990 N   0  0  0  0  0  0  0  0  0  0  0  0
    2.6560    0.0280    0.9090 C   0  0  0  0  0  0  0  0  0  0  0  0
    4.0060   -0.2250    0.7800 C   0  0  0  0  0  0  0  0  0  0  0  0
  1  2  1  0
  2  3  1  0
  3  4  2  0
  3 29  1  0
  4  5  1  0
  5  6  2  0
  6  7  1  0
  6 28  1  0
  7  8  2  0
  7 13  1  0
  8  9  1  0
  9 10  2  0
  9 27  1  0
 10 11  1  0
 10 22  1  0
 11 12  2  0
 11 13  1  0
 13 14  1  0
 14 15  2  0
 14 16  1  0
 16 17  1  0
 17 18  2  0
 17 21  1  0
 18 19  1  0
 19 20  2  0
 20 21  2  0
 22 23  1  0
 23 24  1  0
 24 25  1  0
 25 26  1  0
 26 27  1  0
 28 29  2  0
M  END
