
     RDKit          3D

 46 49  0  0  0  0  0  0  0  0999 V2000
  -10.4220   -1.3900    1.3580 C   0  0  0  0  0  0  0  0  0  0  0  0
  -10.7360   -0.5510    0.1810 C   0  0  0  0  0  0  0  0  0  0  0  0
   -9.8170    0.5740   -0.1550 C   0  0  2  0  0  0  0  0  0  0  0  0
  -10.1560    1.3690   -1.3670 C   0  0  0  0  0  0  0  0  0  0  0  0
  -11.5950    1.9830   -1.2050 C   0  0  0  0  0  0  0  0  0  0  0  0
   -8.4790    0.6600    0.4480 C   0  0  0  0  0  0  0  0  0  0  0  0
   -8.3540    0.6390    1.8680 C   0  0  0  0  0  0  0  0  0  0  0  0
   -7.1340    0.9130    2.4540 C   0  0  0  0  0  0  0  0  0  0  0  0
   -5.9940    1.2240    1.7090 C   0  0  0  0  0  0  0  0  0  0  0  0
   -4.7730    1.5380    2.4440 C   0  0  0  0  0  0  0  0  0  0  0  0
   -3.7600    0.5750    2.6140 N   0  0  0  0  0  0  0  0  0  0  0  0
   -2.7430    0.2880    1.6600 C   0  0  0  0  0  0  0  0  0  0  0  0
   -2.7380    0.9410    0.6020 O   0  0  0  0  0  0  0  0  0  0  0  0
   -1.7590   -0.6850    1.8750 N   0  0  0  0  0  0  0  0  0  0  0  0
   -0.6400   -0.9860    1.0090 C   0  0  0  0  0  0  0  0  0  0  0  0
    0.2110    0.2880    0.9630 C   0  0  1  0  0  0  0  0  0  0  0  0
    0.5540    0.6350    2.2980 O   0  0  0  0  0  0  0  0  0  0  0  0
    1.5640   -0.0380    0.3290 C   0  0  0  0  0  0  0  0  0  0  0  0
    1.8800   -0.4890   -0.8370 C   0  0  0  0  0  0  0  0  0  0  0  0
    3.2490   -0.6300   -0.9720 C   0  0  0  0  0  0  0  0  0  0  0  0
    3.7310   -0.1980    0.2830 C   0  0  0  0  0  0  0  0  0  0  0  0
    2.7170    0.1450    1.0480 O   0  0  0  0  0  0  0  0  0  0  0  0
    5.1540   -0.2310    0.4170 C   0  0  0  0  0  0  0  0  0  0  0  0
    6.0390   -0.5970   -0.4840 C   0  0  0  0  0  0  0  0  0  0  0  0
    7.4440   -0.5670   -0.1310 C   0  0  0  0  0  0  0  0  0  0  0  0
    8.4570   -0.8540   -0.8780 C   0  0  0  0  0  0  0  0  0  0  0  0
    8.2440   -1.2450   -2.2070 O   0  0  0  0  0  0  0  0  0  0  0  0
    8.0740   -0.3190   -3.2380 C   0  0  0  0  0  0  0  0  0  0  0  0
    9.8690   -0.8350   -0.4890 C   0  0  0  0  0  0  0  0  0  0  0  0
   10.8800   -0.5020   -1.1720 C   0  0  0  0  0  0  0  0  0  0  0  0
   12.2990   -0.5080   -0.7900 C   0  0  0  0  0  0  0  0  0  0  0  0
   11.9140   -1.3720    0.5010 O   0  0  0  0  0  0  0  0  0  0  0  0
   13.4560   -0.5230   -0.4620 O   0  0  0  0  0  0  0  0  0  0  0  0
   14.2420   -1.0550    0.6440 C   0  0  0  0  0  0  0  0  0  0  0  0
   10.0130   -0.8560    1.0470 C   0  0  0  0  0  0  0  0  0  0  0  0
    9.0500    0.3520    1.4010 C   0  0  2  0  0  0  0  0  0  0  0  0
    9.2920    0.7830    2.7800 C   0  0  0  0  0  0  0  0  0  0  0  0
    7.7800   -0.1640    1.2020 O   0  0  0  0  0  0  0  0  0  0  0  0
    5.4960   -0.9820   -1.6970 O   0  0  0  0  0  0  0  0  0  0  0  0
    4.1420   -1.1360   -2.0400 C   0  0  0  0  0  0  0  0  0  0  0  0
   -6.1470    1.2380    0.3460 C   0  0  0  0  0  0  0  0  0  0  0  0
   -7.3670    0.9580   -0.2930 C   0  0  0  0  0  0  0  0  0  0  0  0
   -7.3170    0.8780   -1.7410 C   0  0  0  0  0  0  0  0  0  0  0  0
   -7.3000   -0.6160   -2.0580 C   0  0  0  0  0  0  0  0  0  0  0  0
   -7.1910   -1.0950   -3.3750 N   0  0  0  0  0  0  0  0  0  0  0  0
   -7.3850   -1.4580   -1.1340 O   0  0  0  0  0  0  0  0  0  0  0  0
  1  2  1  0
  3  2  1  6
  3  4  1  0
  3  6  1  0
  4  5  1  0
  6  7  2  0
  6 42  1  0
  7  8  1  0
  8  9  2  0
  9 10  1  0
  9 41  1  0
 10 11  1  0
 11 12  1  0
 12 13  2  0
 12 14  1  0
 14 15  1  0
 15 16  1  0
 16 17  1  1
 16 18  1  0
 18 19  2  0
 18 22  1  0
 19 20  1  0
 20 21  2  0
 20 40  1  0
 21 22  1  0
 21 23  1  0
 23 24  2  0
 24 25  1  0
 24 39  1  0
 25 26  2  0
 25 38  1  0
 26 27  1  0
 26 29  1  0
 27 28  1  0
 29 30  2  3
 29 35  1  0
 30 31  1  0
 31 32  2  0
 31 33  1  0
 33 34  1  0
 35 36  1  0
 36 37  1  1
 36 38  1  0
 39 40  1  0
 41 42  2  0
 42 43  1  0
 43 44  1  0
 44 45  1  0
 44 46  2  0
M  END
