
     RDKit          3D

 46 49  0  0  0  0  0  0  0  0999 V2000
   -6.2610   -1.5440   -1.9940 C   0  0  0  0  0  0  0  0  0  0  0  0
   -4.7730   -1.7720   -2.2830 C   0  0  0  0  0  0  0  0  0  0  0  0
   -4.0770   -0.7200   -2.5730 O   0  0  0  0  0  0  0  0  0  0  0  0
   -3.4810    0.3520   -3.0050 C   0  0  0  0  0  0  0  0  0  0  0  0
   -3.8070    0.9770   -4.1710 C   0  0  0  0  0  0  0  0  0  0  0  0
   -3.1620    2.0880   -4.6210 C   0  0  0  0  0  0  0  0  0  0  0  0
   -2.1490    2.6340   -3.9180 C   0  0  0  0  0  0  0  0  0  0  0  0
   -1.3990    3.7350   -4.2270 O   0  0  0  0  0  0  0  0  0  0  0  0
   -1.5550    4.5320   -5.3950 C   0  0  0  0  0  0  0  0  0  0  0  0
   -1.7910    2.0000   -2.6840 C   0  0  0  0  0  0  0  0  0  0  0  0
   -2.4020    0.9150   -2.2190 C   0  0  0  0  0  0  0  0  0  0  0  0
   -2.1520    0.2250   -1.0100 N   0  0  0  0  0  0  0  0  0  0  0  0
   -1.3860    0.7390    0.0610 C   0  0  0  0  0  0  0  0  0  0  0  0
   -1.5440    2.1610    0.2070 N   0  0  0  0  0  0  0  0  0  0  0  0
   -0.5990    0.1050    0.8340 C   0  0  0  0  0  0  0  0  0  0  0  0
   -0.4030   -1.3680    0.6720 C   0  0  2  0  0  0  0  0  0  0  0  0
   -1.0370   -2.2670    1.5950 C   0  0  0  0  0  0  0  0  0  0  0  0
   -2.4710   -2.2330    1.6420 C   0  0  0  0  0  0  0  0  0  0  0  0
   -3.1940   -3.1170    2.3640 C   0  0  0  0  0  0  0  0  0  0  0  0
   -2.6310   -4.1020    3.1100 C   0  0  0  0  0  0  0  0  0  0  0  0
   -1.2350   -4.1720    3.0980 C   0  0  0  0  0  0  0  0  0  0  0  0
   -0.4960   -3.2700    2.3560 C   0  0  0  0  0  0  0  0  0  0  0  0
    0.8910   -3.3980    2.3920 O   0  0  0  0  0  0  0  0  0  0  0  0
    1.0380   -1.5980    0.3040 C   0  0  0  0  0  0  0  0  0  0  0  0
    1.3230   -2.8620   -0.3070 C   0  0  0  0  0  0  0  0  0  0  0  0
    0.2690   -3.9340   -0.5220 C   0  0  0  0  0  0  0  0  0  0  0  0
    2.4240   -3.2700   -0.7450 O   0  0  0  0  0  0  0  0  0  0  0  0
    1.8900   -0.6350    0.5020 C   0  0  0  0  0  0  0  0  0  0  0  0
    3.3770   -0.7020    0.1940 C   0  0  1  0  0  0  0  0  0  0  0  0
    4.1130   -0.1870    1.4240 C   0  0  0  0  0  0  0  0  0  0  0  0
    3.8950   -1.9780    0.0240 O   0  0  0  0  0  0  0  0  0  0  0  0
    3.6550    0.0420   -1.0400 C   0  0  0  0  0  0  0  0  0  0  0  0
    3.4310    1.4910   -1.1960 C   0  0  0  0  0  0  0  0  0  0  0  0
    4.3850    2.3530   -0.4670 C   0  0  0  0  0  0  0  0  0  0  0  0
    4.2320    3.5930   -0.3600 O   0  0  0  0  0  0  0  0  0  0  0  0
    5.5130    1.8310    0.1330 O   0  0  0  0  0  0  0  0  0  0  0  0
    6.5100    2.4900    0.8140 C   0  0  0  0  0  0  0  0  0  0  0  0
    7.1990    3.4180   -0.2560 C   0  0  0  0  0  0  0  0  0  0  0  0
    7.6440    4.0110   -0.9230 N   0  0  0  0  0  0  0  0  0  0  0  0
    1.5640    0.6480    1.0330 O   0  0  0  0  0  0  0  0  0  0  0  0
    0.3230    0.7190    1.7990 C   0  0  2  0  0  0  0  0  0  0  0  0
    0.7020   -0.1470    2.9960 C   0  0  0  0  0  0  0  0  0  0  0  0
   -0.3180   -0.0670    4.0480 C   0  0  0  0  0  0  0  0  0  0  0  0
   -0.1890    1.2140    4.6260 O   0  0  0  0  0  0  0  0  0  0  0  0
    0.4390    2.1180    3.8200 C   0  0  0  0  0  0  0  0  0  0  0  0
   -0.0090    2.0310    2.3330 C   0  0  0  0  0  0  0  0  0  0  0  0
  1  2  1  0
  2  3  1  0
  3  4  1  0
  4  5  2  0
  4 11  1  0
  5  6  1  0
  6  7  2  0
  7  8  1  0
  7 10  1  0
  8  9  1  0
 10 11  2  0
 11 12  1  0
 12 13  1  0
 13 14  1  0
 13 15  2  3
 15 16  1  0
 15 41  1  0
 16 17  1  1
 16 24  1  0
 17 18  2  0
 17 22  1  0
 18 19  1  0
 19 20  2  0
 20 21  1  0
 21 22  2  0
 22 23  1  0
 24 25  1  0
 24 28  2  0
 25 26  1  0
 25 27  2  0
 28 29  1  0
 28 40  1  0
 29 30  1  1
 29 31  1  0
 29 32  1  0
 32 33  1  0
 33 34  1  0
 34 35  2  0
 34 36  1  0
 36 37  1  0
 37 38  1  0
 38 39  3  0
 40 41  1  0
 41 42  1  1
 41 46  1  0
 42 43  1  0
 43 44  1  0
 44 45  1  0
 45 46  1  0
M  END
