
     RDKit          3D

 46 49  0  0  0  0  0  0  0  0999 V2000
   -7.6020   -3.0690   -3.8880 C   0  0  0  0  0  0  0  0  0  0  0  0
   -6.7360   -2.7760   -3.1220 C   0  0  0  0  0  0  0  0  0  0  0  0
   -5.7300   -2.5310   -2.4070 C   0  0  0  0  0  0  0  0  0  0  0  0
   -5.1370   -2.3760   -1.9740 C   0  0  0  0  0  0  0  0  0  0  0  0
   -4.2010   -2.1180   -1.2810 C   0  0  0  0  0  0  0  0  0  0  0  0
   -3.0780   -1.8690   -0.8430 C   0  0  0  0  0  0  0  0  0  0  0  0
   -2.7070   -1.2760    0.3800 C   0  0  0  0  0  0  0  0  0  0  0  0
   -1.2750   -1.1430    0.5750 N   0  0  0  0  0  0  0  0  0  0  0  0
   -0.8230    0.1290    1.0160 C   0  0  0  0  0  0  0  0  0  0  0  0
   -1.7070    0.9970    1.2050 O   0  0  0  0  0  0  0  0  0  0  0  0
    0.5710    0.4280    1.2410 C   0  0  0  0  0  0  0  0  0  0  0  0
    1.4990   -0.7210    1.2900 C   0  0  0  0  0  0  0  0  0  0  0  0
    1.0920   -1.8370    0.8620 O   0  0  0  0  0  0  0  0  0  0  0  0
    2.8040   -0.7240    1.7740 N   0  0  0  0  0  0  0  0  0  0  0  0
    3.5990   -1.9780    1.7050 C   0  0  0  0  0  0  0  0  0  0  0  0
    3.7500   -2.3390    0.2710 C   0  0  0  0  0  0  0  0  0  0  0  0
    4.5580   -3.6050    0.0310 C   0  0  1  0  0  0  0  0  0  0  0  0
    3.8810   -4.6360    0.7050 O   0  0  0  0  0  0  0  0  0  0  0  0
    4.4590   -3.9050   -1.4340 C   0  0  0  0  0  0  0  0  0  0  0  0
    5.0650   -2.9980   -2.2730 O   0  0  0  0  0  0  0  0  0  0  0  0
    5.9090   -3.4520    0.5500 C   0  0  0  0  0  0  0  0  0  0  0  0
    6.2880   -4.1600    1.5280 O   0  0  0  0  0  0  0  0  0  0  0  0
    6.8280   -2.5510    0.0130 O   0  0  0  0  0  0  0  0  0  0  0  0
    8.1320   -2.4860    0.5960 C   0  0  0  0  0  0  0  0  0  0  0  0
    0.9550    1.6330    1.5730 C   0  0  0  0  0  0  0  0  0  0  0  0
    2.3800    1.8560    1.7600 O   0  0  0  0  0  0  0  0  0  0  0  0
    3.1100    2.1000    0.5430 C   0  0  0  0  0  0  0  0  0  0  0  0
    2.6500    3.2780   -0.2230 C   0  0  0  0  0  0  0  0  0  0  0  0
    3.2440    4.5150   -0.0950 C   0  0  0  0  0  0  0  0  0  0  0  0
    2.7700    5.5580   -0.8860 C   0  0  0  0  0  0  0  0  0  0  0  0
    1.7720    5.3420   -1.7330 N   0  0  0  0  0  0  0  0  0  0  0  0
    1.1740    4.1660   -1.8870 C   0  0  0  0  0  0  0  0  0  0  0  0
    1.5920    3.0890   -1.1360 C   0  0  0  0  0  0  0  0  0  0  0  0
    0.1470    2.7990    1.7810 C   0  0  0  0  0  0  0  0  0  0  0  0
    0.7860    3.9580    2.1770 C   0  0  0  0  0  0  0  0  0  0  0  0
   -0.0900    5.1390    2.3760 C   0  0  0  0  0  0  0  0  0  0  0  0
   -0.8810    5.3730    1.1220 C   0  0  0  0  0  0  0  0  0  0  0  0
   -1.6940    4.1040    0.8970 C   0  0  0  0  0  0  0  0  0  0  0  0
   -1.1980    3.0160    1.6600 O   0  0  0  0  0  0  0  0  0  0  0  0
   -3.6530   -0.8830    1.2830 C   0  0  0  0  0  0  0  0  0  0  0  0
   -4.9850   -1.0840    0.9670 C   0  0  0  0  0  0  0  0  0  0  0  0
   -5.4090   -1.6100   -0.1110 C   0  0  0  0  0  0  0  0  0  0  0  0
   -6.7890   -1.8790   -0.4860 C   0  0  0  0  0  0  0  0  0  0  0  0
   -7.5600   -1.9180   -1.7590 C   0  0  0  0  0  0  0  0  0  0  0  0
   -8.6030   -1.4060   -2.0670 C   0  0  0  0  0  0  0  0  0  0  0  0
   -9.3660   -1.2830   -3.2010 O   0  0  0  0  0  0  0  0  0  0  0  0
  1  2  2  0
  2  3  1  0
  2 44  1  0
  3  4  3  0
  4  5  1  0
  5  6  2  0
  5 42  1  0
  6  7  1  0
  7  8  1  0
  7 40  2  0
  8  9  1  0
  9 10  2  0
  9 11  1  0
 11 12  1  0
 11 25  2  3
 12 13  2  0
 12 14  1  0
 14 15  1  0
 15 16  1  0
 16 17  1  0
 17 18  1  1
 17 19  1  0
 17 21  1  0
 19 20  1  0
 21 22  2  0
 21 23  1  0
 23 24  1  0
 25 26  1  0
 25 34  1  0
 26 27  1  0
 27 28  1  0
 28 29  2  0
 28 33  1  0
 29 30  1  0
 30 31  2  0
 31 32  1  0
 32 33  2  0
 34 35  2  0
 34 39  1  0
 35 36  1  0
 36 37  1  0
 37 38  1  0
 38 39  1  0
 40 41  1  0
 41 42  2  0
 42 43  1  0
 43 44  1  0
 44 45  2  3
 45 46  1  0
M  END
