
     RDKit          3D

 43 46  0  0  0  0  0  0  0  0999 V2000
   -7.1220    1.8370   -1.7170 C   0  0  0  0  0  0  0  0  0  0  0  0
   -6.1890    1.1160   -0.7910 C   0  0  1  0  0  0  0  0  0  0  0  0
   -5.0470    0.5640   -1.4900 N   0  0  0  0  0  0  0  0  0  0  0  0
   -4.7590   -0.8090   -1.5800 C   0  0  0  0  0  0  0  0  0  0  0  0
   -5.5310   -1.6290   -1.0250 O   0  0  0  0  0  0  0  0  0  0  0  0
   -3.5790   -1.3550   -2.3040 C   0  0  1  0  0  0  0  0  0  0  0  0
   -2.3760   -0.7810   -1.7150 C   0  0  0  0  0  0  0  0  0  0  0  0
   -1.2830   -1.5190   -1.7490 C   0  0  0  0  0  0  0  0  0  0  0  0
    0.0930   -1.2620   -1.2570 C   0  0  0  0  0  0  0  0  0  0  0  0
    0.4670   -2.2730   -0.2570 N   0  0  0  0  0  0  0  0  0  0  0  0
    1.7470   -2.2290    0.3580 C   0  0  0  0  0  0  0  0  0  0  0  0
    2.5230   -1.2930    0.0030 O   0  0  0  0  0  0  0  0  0  0  0  0
    2.2070   -3.1410    1.3240 N   0  0  0  0  0  0  0  0  0  0  0  0
    3.5310   -3.0540    1.9280 C   0  0  0  0  0  0  0  0  0  0  0  0
    4.5890   -3.1570    0.9120 C   0  0  0  0  0  0  0  0  0  0  0  0
    5.4480   -2.1450    0.7630 C   0  0  0  0  0  0  0  0  0  0  0  0
    5.3350   -1.0030    1.5700 O   0  0  0  0  0  0  0  0  0  0  0  0
    6.2080    0.0750    1.4490 C   0  0  0  0  0  0  0  0  0  0  0  0
    6.1020    1.1180    2.1870 N   0  0  0  0  0  0  0  0  0  0  0  0
    7.0120    2.1900    2.0300 C   0  0  0  0  0  0  0  0  0  0  0  0
    7.9880    2.4810    2.9570 C   0  0  0  0  0  0  0  0  0  0  0  0
    8.8450    3.5430    2.7450 C   0  0  0  0  0  0  0  0  0  0  0  0
    8.7820    4.3290    1.6570 N   0  0  0  0  0  0  0  0  0  0  0  0
    7.8370    4.0620    0.7410 C   0  0  0  0  0  0  0  0  0  0  0  0
    6.9510    2.9990    0.9190 C   0  0  0  0  0  0  0  0  0  0  0  0
    7.2320    0.0060    0.4840 N   0  0  0  0  0  0  0  0  0  0  0  0
    7.4080   -1.1030   -0.3580 N   0  0  0  0  0  0  0  0  0  0  0  0
    6.5150   -2.1950   -0.2280 C   0  0  0  0  0  0  0  0  0  0  0  0
    6.6290   -3.2130   -0.9590 O   0  0  0  0  0  0  0  0  0  0  0  0
   -1.7420   -3.0520   -2.5330 S   0  0  0  0  0  0  0  0  0  0  0  0
   -1.5320   -2.8840   -4.0490 O   0  0  0  0  0  0  0  0  0  0  0  0
   -3.5430   -2.8630   -2.2290 C   0  0  2  0  0  0  0  0  0  0  0  0
   -4.3150   -3.5300   -3.2730 C   0  0  0  0  0  0  0  0  0  0  0  0
   -4.0030   -3.3330   -4.6290 N   0  0  0  0  0  0  0  0  0  0  0  0
   -5.2650   -4.2850   -2.9570 O   0  0  0  0  0  0  0  0  0  0  0  0
   -5.7790    1.9410    0.3690 C   0  0  0  0  0  0  0  0  0  0  0  0
   -4.5760    2.0930    0.6440 O   0  0  0  0  0  0  0  0  0  0  0  0
   -6.7710    2.5610    1.1730 N   0  0  0  0  0  0  0  0  0  0  0  0
   -6.4260    3.3640    2.3010 C   0  0  0  0  0  0  0  0  0  0  0  0
   -5.2080    3.6590    2.7750 N   0  0  0  0  0  0  0  0  0  0  0  0
   -5.3430    4.4430    3.8550 C   0  0  0  0  0  0  0  0  0  0  0  0
   -6.6540    4.6290    4.0430 N   0  0  0  0  0  0  0  0  0  0  0  0
   -7.3110    3.9750    3.1010 N   0  0  0  0  0  0  0  0  0  0  0  0
  2  1  1  6
  2  3  1  0
  2 36  1  0
  3  4  1  0
  4  5  2  0
  6  4  1  1
  6  7  1  0
  6 32  1  0
  7  8  2  0
  8  9  1  0
 30  8  1  1
  9 10  1  0
 10 11  1  0
 11 12  2  0
 11 13  1  0
 13 14  1  0
 14 15  1  0
 15 16  2  3
 16 17  1  0
 16 28  1  0
 17 18  1  0
 18 19  2  3
 18 26  1  0
 19 20  1  0
 20 21  2  0
 20 25  1  0
 21 22  1  0
 22 23  2  0
 23 24  1  0
 24 25  2  0
 26 27  1  0
 27 28  1  0
 28 29  2  0
 30 31  2  0
 30 32  1  0
 32 33  1  6
 33 34  1  0
 33 35  2  0
 36 37  2  0
 36 38  1  0
 38 39  1  0
 39 40  2  0
 39 43  1  0
 40 41  1  0
 41 42  2  0
 42 43  1  0
M  END
