
     RDKit          3D

 44 48  0  0  0  0  0  0  0  0999 V2000
    4.7960    6.2020    2.8110 C   0  0  0  0  0  0  0  0  0  0  0  0
    4.4790    4.4100    2.6310 S   0  0  0  0  0  0  0  0  0  0  0  0
    5.0210    3.9500    0.9550 C   0  0  0  0  0  0  0  0  0  0  0  0
    4.7990    2.4680    0.7190 C   0  0  2  0  0  0  0  0  0  0  0  0
    3.3260    2.1660    0.8700 C   0  0  0  0  0  0  0  0  0  0  0  0
    3.1160    0.6860    0.6980 C   0  0  2  0  0  0  0  0  0  0  0  0
    1.8710    0.2530    1.1900 O   0  0  0  0  0  0  0  0  0  0  0  0
    1.4970   -1.1140    1.1350 C   0  0  0  0  0  0  0  0  0  0  0  0
    1.3960   -1.8020    2.3820 C   0  0  0  0  0  0  0  0  0  0  0  0
    1.7270   -0.9630    3.6220 C   0  0  0  0  0  0  0  0  0  0  0  0
    1.0910   -2.9620    2.6780 O   0  0  0  0  0  0  0  0  0  0  0  0
    1.2760   -1.6090   -0.1170 C   0  0  0  0  0  0  0  0  0  0  0  0
    1.3990   -0.8670   -1.1990 O   0  0  0  0  0  0  0  0  0  0  0  0
    1.1480   -0.3650   -2.4100 C   0  0  0  0  0  0  0  0  0  0  0  0
   -0.1240    0.5030   -2.5040 C   0  0  0  0  0  0  0  0  0  0  0  0
   -1.1610   -0.1210   -3.3020 N   0  0  0  0  0  0  0  0  0  0  0  0
   -2.5420   -0.2430   -3.0610 C   0  0  0  0  0  0  0  0  0  0  0  0
   -3.2480    0.3050   -4.0170 O   0  0  0  0  0  0  0  0  0  0  0  0
   -3.3150   -0.8440   -1.9860 C   0  0  0  0  0  0  0  0  0  0  0  0
   -4.1300   -0.0640   -1.2650 C   0  0  0  0  0  0  0  0  0  0  0  0
   -4.3630    1.3350   -1.4000 C   0  0  0  0  0  0  0  0  0  0  0  0
   -5.2090    1.9730   -0.6360 C   0  0  0  0  0  0  0  0  0  0  0  0
   -5.9920    1.3100    0.4140 C   0  0  0  0  0  0  0  0  0  0  0  0
   -6.7760    0.2100    0.3030 C   0  0  0  0  0  0  0  0  0  0  0  0
   -7.3240   -0.0710    1.5460 C   0  0  0  0  0  0  0  0  0  0  0  0
   -6.8310    0.9060    2.3820 C   0  0  0  0  0  0  0  0  0  0  0  0
   -6.0660    1.6820    1.6830 O   0  0  0  0  0  0  0  0  0  0  0  0
   -5.4220    3.3660   -0.7820 O   0  0  0  0  0  0  0  0  0  0  0  0
   -4.5750    4.2220   -1.4690 C   0  0  0  0  0  0  0  0  0  0  0  0
   -3.4030    3.5100   -2.1100 C   0  0  0  0  0  0  0  0  0  0  0  0
   -3.7070    2.1400   -2.3530 O   0  0  0  0  0  0  0  0  0  0  0  0
   -3.3280   -2.2170   -1.5920 N   0  0  0  0  0  0  0  0  0  0  0  0
   -2.2770   -3.1850   -1.7790 C   0  0  0  0  0  0  0  0  0  0  0  0
   -2.5400   -4.4120   -1.9300 O   0  0  0  0  0  0  0  0  0  0  0  0
   -0.8640   -2.8240   -1.8080 C   0  0  0  0  0  0  0  0  0  0  0  0
    0.1830   -3.6470   -1.2350 C   0  0  2  0  0  0  0  0  0  0  0  0
   -0.3980   -4.9580   -0.7160 C   0  0  0  0  0  0  0  0  0  0  0  0
    0.5560   -5.7140    0.1360 C   0  0  0  0  0  0  0  0  0  0  0  0
    1.7290   -5.2480    0.4940 C   0  0  0  0  0  0  0  0  0  0  0  0
    2.1610   -3.9250    0.0560 C   0  0  0  0  0  0  0  0  0  0  0  0
    0.9020   -3.0480   -0.0520 C   0  0  1  0  0  0  0  0  0  0  0  0
    4.2880   -0.0990    1.2000 C   0  0  0  0  0  0  0  0  0  0  0  0
    5.0210    0.7290    2.2540 C   0  0  0  0  0  0  0  0  0  0  0  0
    5.6180    1.7870    1.5820 O   0  0  0  0  0  0  0  0  0  0  0  0
  1  2  1  0
  2  3  1  0
  4  3  1  1
  4  5  1  0
  4 44  1  0
  5  6  1  0
  6  7  1  1
  6 42  1  0
  7  8  1  0
  8  9  1  0
  8 12  2  3
  9 10  1  0
  9 11  2  0
 12 13  1  0
 12 41  1  0
 13 14  1  0
 14 15  1  0
 15 16  1  0
 16 17  1  0
 17 18  2  0
 17 19  1  0
 19 20  2  3
 19 32  1  0
 20 21  1  0
 21 22  2  0
 21 31  1  0
 22 23  1  0
 22 28  1  0
 23 24  2  0
 23 27  1  0
 24 25  1  0
 25 26  2  0
 26 27  1  0
 28 29  1  0
 29 30  1  0
 30 31  1  0
 32 33  1  0
 33 34  2  0
 33 35  1  0
 36 35  1  1
 36 37  1  0
 36 41  1  0
 37 38  1  0
 38 39  2  0
 39 40  1  0
 41 40  1  6
 42 43  1  0
 43 44  1  0
M  END
