
     RDKit          3D

 44 47  0  0  0  0  0  0  0  0999 V2000
   -6.6090    3.9770   -1.0870 C   0  0  0  0  0  0  0  0  0  0  0  0
   -6.8430    3.8500    0.2330 C   0  0  0  0  0  0  0  0  0  0  0  0
   -7.8340    2.9150    0.8130 C   0  0  0  0  0  0  0  0  0  0  0  0
   -7.2330    2.2490    2.0220 C   0  0  1  0  0  0  0  0  0  0  0  0
   -6.3650    1.1080    1.6370 C   0  0  0  0  0  0  0  0  0  0  0  0
   -6.6940   -0.0300    1.9750 O   0  0  0  0  0  0  0  0  0  0  0  0
   -5.1950    1.3320    0.9020 N   0  0  0  0  0  0  0  0  0  0  0  0
   -4.2640    0.3700    0.4520 C   0  0  0  0  0  0  0  0  0  0  0  0
   -4.3780   -0.9770    0.6460 C   0  0  0  0  0  0  0  0  0  0  0  0
   -3.4070   -1.8510    0.1700 C   0  0  0  0  0  0  0  0  0  0  0  0
   -2.2780   -1.4070   -0.5230 C   0  0  0  0  0  0  0  0  0  0  0  0
   -1.3720   -2.3810   -0.9720 N   0  0  0  0  0  0  0  0  0  0  0  0
   -0.0790   -2.1020   -1.4540 C   0  0  0  0  0  0  0  0  0  0  0  0
    0.3570   -0.9450   -1.5120 O   0  0  0  0  0  0  0  0  0  0  0  0
    0.7960   -3.2360   -1.9130 C   0  0  1  0  0  0  0  0  0  0  0  0
    2.0660   -2.7050   -2.5080 C   0  0  0  0  0  0  0  0  0  0  0  0
    2.7510   -1.9280   -1.4960 N   0  0  0  0  0  0  0  0  0  0  0  0
    3.9260   -1.3280   -1.7890 C   0  0  0  0  0  0  0  0  0  0  0  0
    4.4570   -1.4370   -2.9720 O   0  0  0  0  0  0  0  0  0  0  0  0
    4.6890   -0.5780   -0.9930 N   0  0  0  0  0  0  0  0  0  0  0  0
    5.4770    0.1830   -0.2080 C   0  0  0  0  0  0  0  0  0  0  0  0
    6.5020    0.5680   -0.8860 O   0  0  0  0  0  0  0  0  0  0  0  0
    5.3360    0.5550    1.0900 N   0  0  0  0  0  0  0  0  0  0  0  0
    6.3690    1.3810    1.6800 C   0  0  0  0  0  0  0  0  0  0  0  0
    6.1820    2.7880    1.2550 C   0  0  0  0  0  0  0  0  0  0  0  0
    5.2220    3.3290    0.4860 N   0  0  0  0  0  0  0  0  0  0  0  0
    5.4080    4.6080    0.3390 N   0  0  0  0  0  0  0  0  0  0  0  0
    6.5130    4.9370    1.0210 C   0  0  0  0  0  0  0  0  0  0  0  0
    7.0830    6.2260    1.1330 N   0  0  0  0  0  0  0  0  0  0  0  0
    6.9950    3.8280    1.5860 N   0  0  0  0  0  0  0  0  0  0  0  0
    0.9690   -4.2550   -0.9290 N   0  0  0  0  0  0  0  0  0  0  0  0
    1.3560   -5.5020   -1.3180 C   0  0  0  0  0  0  0  0  0  0  0  0
    1.5500   -5.7100   -2.5410 O   0  0  0  0  0  0  0  0  0  0  0  0
    1.5400   -6.5130   -0.4580 N   0  0  0  0  0  0  0  0  0  0  0  0
    1.3360   -6.2960    0.8450 C   0  0  0  0  0  0  0  0  0  0  0  0
    1.5020   -7.2330    1.6770 O   0  0  0  0  0  0  0  0  0  0  0  0
    0.9550   -5.0920    1.2800 N   0  0  0  0  0  0  0  0  0  0  0  0
    0.7780   -4.0930    0.3890 C   0  0  0  0  0  0  0  0  0  0  0  0
    0.4230   -2.9960    0.8520 O   0  0  0  0  0  0  0  0  0  0  0  0
   -2.1630   -0.0590   -0.7190 C   0  0  0  0  0  0  0  0  0  0  0  0
   -3.1420    0.8080   -0.2360 C   0  0  0  0  0  0  0  0  0  0  0  0
   -6.2690    3.6250    2.7340 S   0  0  0  0  0  0  0  0  0  0  0  0
   -6.1540    4.6200    1.2560 C   0  0  0  0  0  0  0  0  0  0  0  0
   -5.6030    5.7150    1.1570 O   0  0  0  0  0  0  0  0  0  0  0  0
  1  2  2  0
  2  3  1  0
  2 43  1  0
  3  4  1  0
  4  5  1  6
  4 42  1  0
  5  6  2  0
  5  7  1  0
  7  8  1  0
  8  9  2  0
  8 41  1  0
  9 10  1  0
 10 11  2  0
 11 12  1  0
 11 40  1  0
 12 13  1  0
 13 14  2  0
 13 15  1  0
 15 16  1  1
 15 31  1  0
 16 17  1  0
 17 18  1  0
 18 19  2  0
 18 20  1  0
 20 21  1  0
 21 22  2  0
 21 23  1  0
 23 24  1  0
 24 25  1  0
 25 26  2  0
 25 30  1  0
 26 27  1  0
 27 28  1  0
 28 29  1  0
 28 30  2  0
 31 32  1  0
 31 38  1  0
 32 33  2  0
 32 34  1  0
 34 35  1  0
 35 36  2  0
 35 37  1  0
 37 38  1  0
 38 39  2  0
 40 41  2  0
 42 43  1  0
 43 44  2  0
M  END
