
     RDKit          3D

 44 49  0  0  0  0  0  0  0  0999 V2000
    8.1120    2.7590   -0.1180 C   0  0  0  0  0  0  0  0  0  0  0  0
    7.3700    1.4420    0.0510 C   0  0  0  0  0  0  0  0  0  0  0  0
    6.3910    1.4650    0.7970 N   0  0  0  0  0  0  0  0  0  0  0  0
    5.3970    0.7950    1.3500 N   0  0  0  0  0  0  0  0  0  0  0  0
    4.0210    1.2200    1.2580 C   0  0  0  0  0  0  0  0  0  0  0  0
    3.1420    0.8050    2.0830 O   0  0  0  0  0  0  0  0  0  0  0  0
    3.5640    2.1440    0.2200 C   0  0  0  0  0  0  0  0  0  0  0  0
    2.6250    1.5590   -0.7720 C   0  0  0  0  0  0  0  0  0  0  0  0
    2.0250    0.2950   -0.3960 N   0  0  0  0  0  0  0  0  0  0  0  0
    0.7180    0.3670    0.2370 C   0  0  0  0  0  0  0  0  0  0  0  0
    0.2550    1.5790    0.6970 C   0  0  0  0  0  0  0  0  0  0  0  0
   -0.9740    1.6870    1.2750 C   0  0  0  0  0  0  0  0  0  0  0  0
   -1.7650    0.5650    1.4010 C   0  0  0  0  0  0  0  0  0  0  0  0
   -1.3680   -0.6760    0.9670 C   0  0  0  0  0  0  0  0  0  0  0  0
   -2.1830   -1.8290    1.0450 N   0  0  0  0  0  0  0  0  0  0  0  0
   -3.6250   -1.6760    0.9510 C   0  0  0  0  0  0  0  0  0  0  0  0
   -4.0460   -1.1280   -0.3650 C   0  0  0  0  0  0  0  0  0  0  0  0
   -5.5120   -0.9720   -0.5660 C   0  0  0  0  0  0  0  0  0  0  0  0
   -6.2150   -0.1160    0.3280 N   0  0  0  0  0  0  0  0  0  0  0  0
   -6.5950   -0.1730    1.7070 C   0  0  0  0  0  0  0  0  0  0  0  0
   -6.2540    1.2530    2.1640 C   0  0  0  0  0  0  0  0  0  0  0  0
   -6.7550    2.0140    0.9890 C   0  0  0  0  0  0  0  0  0  0  0  0
   -7.1960    3.3020    0.8460 C   0  0  0  0  0  0  0  0  0  0  0  0
   -7.6190    3.7930   -0.3910 C   0  0  0  0  0  0  0  0  0  0  0  0
   -7.5940    2.9670   -1.4970 C   0  0  0  0  0  0  0  0  0  0  0  0
   -8.0420    3.4920   -2.8120 C   0  0  0  0  0  0  0  0  0  0  0  0
   -7.1450    1.6760   -1.3270 C   0  0  0  0  0  0  0  0  0  0  0  0
   -6.7250    1.1790   -0.1080 C   0  0  0  0  0  0  0  0  0  0  0  0
   -1.6230   -3.1150    1.1970 C   0  0  0  0  0  0  0  0  0  0  0  0
   -0.3720   -3.3510    1.7530 C   0  0  0  0  0  0  0  0  0  0  0  0
    0.1960   -4.5990    1.8710 C   0  0  0  0  0  0  0  0  0  0  0  0
   -0.4910   -5.7060    1.4220 C   0  0  0  0  0  0  0  0  0  0  0  0
   -1.7400   -5.5140    0.8630 C   0  0  0  0  0  0  0  0  0  0  0  0
   -2.2940   -4.2590    0.7510 C   0  0  0  0  0  0  0  0  0  0  0  0
   -0.0960   -0.7310    0.3790 C   0  0  0  0  0  0  0  0  0  0  0  0
    2.6250   -0.9720   -0.5910 C   0  0  0  0  0  0  0  0  0  0  0  0
    3.5850   -1.0850   -1.7530 C   0  0  0  0  0  0  0  0  0  0  0  0
    4.9460   -1.3250   -1.3130 N   0  0  0  0  0  0  0  0  0  0  0  0
    5.7490   -0.2400   -1.7610 C   0  0  0  0  0  0  0  0  0  0  0  0
    7.2200   -0.4440   -1.5150 C   0  0  0  0  0  0  0  0  0  0  0  0
    7.9460    0.3050   -0.7070 C   0  0  0  0  0  0  0  0  0  0  0  0
    9.3390   -0.2270   -0.7620 C   0  0  0  0  0  0  0  0  0  0  0  0
    9.2420   -1.3490   -1.7000 C   0  0  0  0  0  0  0  0  0  0  0  0
    8.0410   -1.4470   -2.1060 N   0  0  0  0  0  0  0  0  0  0  0  0
  1  2  1  0
  2  3  2  0
  2 41  1  0
  3  4  1  0
  4  5  1  0
  5  6  2  0
  5  7  1  0
  7  8  1  0
  8  9  1  0
  9 10  1  0
  9 36  1  0
 10 11  2  0
 10 35  1  0
 11 12  1  0
 12 13  2  0
 13 14  1  0
 14 15  1  0
 14 35  2  0
 15 16  1  0
 15 29  1  0
 16 17  1  0
 17 18  1  0
 18 19  1  0
 19 20  1  0
 19 28  1  0
 20 21  1  0
 21 22  1  0
 22 23  2  0
 22 28  1  0
 23 24  1  0
 24 25  2  0
 25 26  1  0
 25 27  1  0
 27 28  2  0
 29 30  2  0
 29 34  1  0
 30 31  1  0
 31 32  2  0
 32 33  1  0
 33 34  2  0
 36 37  1  0
 37 38  1  0
 38 39  1  0
 39 40  1  0
 40 41  2  0
 40 44  1  0
 41 42  1  0
 42 43  1  0
 43 44  2  0
M  END
