
     RDKit          3D

 43 48  0  0  0  0  0  0  0  0999 V2000
  -10.8710    0.4860    0.5760 C   0  0  0  0  0  0  0  0  0  0  0  0
   -9.5130    0.3610    0.9810 O   0  0  0  0  0  0  0  0  0  0  0  0
   -8.5170    0.8780    0.1350 C   0  0  0  0  0  0  0  0  0  0  0  0
   -7.2000    0.7770    0.4890 C   0  0  0  0  0  0  0  0  0  0  0  0
   -6.2010    1.2720   -0.3170 C   0  0  0  0  0  0  0  0  0  0  0  0
   -4.7830    1.1730    0.0470 C   0  0  0  0  0  0  0  0  0  0  0  0
   -4.1910   -0.0990   -0.4670 C   0  0  0  0  0  0  0  0  0  0  0  0
   -4.7640   -1.1080   -1.1680 C   0  0  0  0  0  0  0  0  0  0  0  0
   -3.8220   -2.0230   -1.3920 N   0  0  0  0  0  0  0  0  0  0  0  0
   -2.6400   -1.6490   -0.8600 N   0  0  0  0  0  0  0  0  0  0  0  0
   -1.4420   -2.2530   -0.8480 C   0  0  0  0  0  0  0  0  0  0  0  0
   -1.3160   -3.4740   -1.5050 N   0  0  0  0  0  0  0  0  0  0  0  0
   -0.3670   -1.6330   -0.2150 C   0  0  0  0  0  0  0  0  0  0  0  0
   -0.5770   -0.3860    0.3950 C   0  0  0  0  0  0  0  0  0  0  0  0
   -1.8170    0.1390    0.3270 N   0  0  0  0  0  0  0  0  0  0  0  0
   -2.8650   -0.4610   -0.2890 C   0  0  0  0  0  0  0  0  0  0  0  0
    0.4150    0.3890    1.1560 C   0  0  0  0  0  0  0  0  0  0  0  0
    0.4470    1.8090    0.6410 C   0  0  0  0  0  0  0  0  0  0  0  0
    1.7160    2.4400    0.6630 N   0  0  0  0  0  0  0  0  0  0  0  0
    1.9780    3.2750    1.7830 C   0  0  0  0  0  0  0  0  0  0  0  0
    2.2140    2.8750   -0.5910 C   0  0  1  0  0  0  0  0  0  0  0  0
    2.0730    4.3820   -0.6720 C   0  0  0  0  0  0  0  0  0  0  0  0
    3.6370    2.5000   -0.8750 C   0  0  0  0  0  0  0  0  0  0  0  0
    3.7580    1.2330   -1.6900 C   0  0  0  0  0  0  0  0  0  0  0  0
    3.4100    0.0390   -0.9920 N   0  0  0  0  0  0  0  0  0  0  0  0
    4.0360   -0.2200    0.2090 C   0  0  0  0  0  0  0  0  0  0  0  0
    5.4960   -0.4050    0.2400 C   0  0  0  0  0  0  0  0  0  0  0  0
    6.3000   -0.6890   -0.8350 C   0  0  0  0  0  0  0  0  0  0  0  0
    7.6470   -0.8260   -0.6650 C   0  0  0  0  0  0  0  0  0  0  0  0
    8.2560   -0.6880    0.5840 C   0  0  0  0  0  0  0  0  0  0  0  0
    7.4650   -0.4040    1.6670 C   0  0  0  0  0  0  0  0  0  0  0  0
    6.1080   -0.2650    1.4990 C   0  0  0  0  0  0  0  0  0  0  0  0
    2.2950   -0.6570   -1.4660 C   0  0  0  0  0  0  0  0  0  0  0  0
    2.0980   -1.9510   -0.8170 C   0  0  0  0  0  0  0  0  0  0  0  0
    3.1930   -2.8030   -0.8160 C   0  0  0  0  0  0  0  0  0  0  0  0
    3.1360   -4.0780   -0.2860 C   0  0  0  0  0  0  0  0  0  0  0  0
    1.9320   -4.4880    0.2540 C   0  0  0  0  0  0  0  0  0  0  0  0
    0.8130   -3.6790    0.2780 C   0  0  0  0  0  0  0  0  0  0  0  0
   -0.4220   -4.1600    0.9030 C   0  0  0  0  0  0  0  0  0  0  0  0
    0.8790   -2.3810   -0.2640 C   0  0  0  0  0  0  0  0  0  0  0  0
   -6.5490    1.8780   -1.4980 C   0  0  0  0  0  0  0  0  0  0  0  0
   -7.8660    1.9740   -1.8420 C   0  0  0  0  0  0  0  0  0  0  0  0
   -8.8290    1.4750   -1.0240 N   0  0  0  0  0  0  0  0  0  0  0  0
  1  2  1  0
  2  3  1  0
  3  4  2  0
  3 43  1  0
  4  5  1  0
  5  6  1  0
  5 41  2  0
  6  7  1  0
  7  8  1  0
  7 16  2  0
  8  9  2  0
  9 10  1  0
 10 11  1  0
 10 16  1  0
 11 12  1  0
 11 13  2  0
 13 14  1  0
 13 40  1  0
 14 15  2  0
 14 17  1  0
 15 16  1  0
 17 18  1  0
 18 19  1  0
 19 20  1  0
 19 21  1  0
 21 22  1  1
 21 23  1  0
 23 24  1  0
 24 25  1  0
 25 26  1  0
 25 33  1  0
 26 27  1  0
 27 28  2  0
 27 32  1  0
 28 29  1  0
 29 30  2  0
 30 31  1  0
 31 32  2  0
 33 34  1  0
 34 35  2  0
 34 40  1  0
 35 36  1  0
 36 37  2  0
 37 38  1  0
 38 39  1  0
 38 40  2  0
 41 42  1  0
 42 43  2  0
M  END
