
     RDKit          3D

 44 49  0  0  0  0  0  0  0  0999 V2000
   -1.2670   -5.5140    1.9620 C   0  0  0  0  0  0  0  0  0  0  0  0
   -2.1800   -5.2410    0.8130 C   0  0  0  0  0  0  0  0  0  0  0  0
   -2.6440   -4.0230    0.5540 C   0  0  0  0  0  0  0  0  0  0  0  0
   -2.2530   -2.9040    1.4180 C   0  0  0  0  0  0  0  0  0  0  0  0
   -1.5360   -1.8070    0.7730 C   0  0  0  0  0  0  0  0  0  0  0  0
   -0.1460   -1.7080    0.9320 C   0  0  0  0  0  0  0  0  0  0  0  0
    0.5710   -0.6950    0.3600 C   0  0  0  0  0  0  0  0  0  0  0  0
    1.9580   -0.6130    0.5330 N   0  0  0  0  0  0  0  0  0  0  0  0
    2.7050    0.6250    0.4620 C   0  0  0  0  0  0  0  0  0  0  0  0
    3.8050    0.5320   -0.5240 C   0  0  0  0  0  0  0  0  0  0  0  0
    4.6060   -0.6630   -0.3850 N   0  0  0  0  0  0  0  0  0  0  0  0
    5.4720   -0.7470   -1.5420 C   0  0  0  0  0  0  0  0  0  0  0  0
    6.4790    0.3590   -1.5070 C   0  0  0  0  0  0  0  0  0  0  0  0
    6.5140    1.1850   -2.4780 N   0  0  0  0  0  0  0  0  0  0  0  0
    7.4470    2.2680   -2.5120 C   0  0  0  0  0  0  0  0  0  0  0  0
    7.6550    3.2350   -3.4050 N   0  0  0  0  0  0  0  0  0  0  0  0
    8.6460    3.9820   -2.9370 C   0  0  0  0  0  0  0  0  0  0  0  0
    9.0940    3.4880   -1.7060 C   0  0  0  0  0  0  0  0  0  0  0  0
    8.3180    2.3840   -1.4390 C   0  0  0  0  0  0  0  0  0  0  0  0
    8.3170    1.4720   -0.3150 C   0  0  0  0  0  0  0  0  0  0  0  0
    9.1050    1.5120    0.7230 C   0  0  0  0  0  0  0  0  0  0  0  0
   10.1600    2.5090    0.9440 C   0  0  0  0  0  0  0  0  0  0  0  0
    7.3310    0.4120   -0.3830 N   0  0  0  0  0  0  0  0  0  0  0  0
    3.8100   -1.8540   -0.3130 C   0  0  0  0  0  0  0  0  0  0  0  0
    2.7910   -1.7830    0.8040 C   0  0  0  0  0  0  0  0  0  0  0  0
   -0.1040    0.2350   -0.3820 C   0  0  0  0  0  0  0  0  0  0  0  0
   -1.4910    0.1510   -0.5520 C   0  0  0  0  0  0  0  0  0  0  0  0
   -2.2260   -0.8650    0.0200 C   0  0  0  0  0  0  0  0  0  0  0  0
   -3.6320   -0.9390   -0.1310 N   0  0  0  0  0  0  0  0  0  0  0  0
   -4.2960   -1.3520   -1.1200 C   0  0  0  0  0  0  0  0  0  0  0  0
   -3.5290   -1.8500   -2.3360 C   0  0  0  0  0  0  0  0  0  0  0  0
   -5.7280   -1.3570   -1.1330 C   0  0  0  0  0  0  0  0  0  0  0  0
   -6.2780   -1.8220   -2.2050 O   0  0  0  0  0  0  0  0  0  0  0  0
   -6.5820   -0.9220   -0.1390 N   0  0  0  0  0  0  0  0  0  0  0  0
   -8.0480   -1.0210   -0.3090 C   0  0  0  0  0  0  0  0  0  0  0  0
   -8.5790    0.3740   -0.4980 C   0  0  0  0  0  0  0  0  0  0  0  0
   -7.8260    1.3520    0.3050 C   0  0  0  0  0  0  0  0  0  0  0  0
   -8.2550    2.6800    0.3170 C   0  0  0  0  0  0  0  0  0  0  0  0
   -7.6020    3.6630    1.0440 C   0  0  0  0  0  0  0  0  0  0  0  0
   -6.4790    3.3310    1.7920 C   0  0  0  0  0  0  0  0  0  0  0  0
   -5.7590    4.3770    2.5710 C   0  0  0  0  0  0  0  0  0  0  0  0
   -6.0380    2.0230    1.7950 C   0  0  0  0  0  0  0  0  0  0  0  0
   -6.7120    1.0780    1.0620 C   0  0  0  0  0  0  0  0  0  0  0  0
   -6.1690   -0.3400    1.1040 C   0  0  0  0  0  0  0  0  0  0  0  0
  1  2  1  0
  2  3  2  3
  3  4  1  0
  4  5  1  0
  5  6  2  0
  5 28  1  0
  6  7  1  0
  7  8  1  0
  7 26  2  0
  8  9  1  0
  8 25  1  0
  9 10  1  0
 10 11  1  0
 11 12  1  0
 11 24  1  0
 12 13  1  0
 13 14  2  0
 13 23  1  0
 14 15  1  0
 15 16  1  0
 15 19  2  0
 16 17  1  0
 17 18  2  0
 18 19  1  0
 19 20  1  0
 20 21  2  3
 20 23  1  0
 21 22  1  0
 24 25  1  0
 26 27  1  0
 27 28  2  0
 28 29  1  0
 29 30  2  3
 30 31  1  0
 30 32  1  0
 32 33  2  0
 32 34  1  0
 34 35  1  0
 34 44  1  0
 35 36  1  0
 36 37  1  0
 37 38  2  0
 37 43  1  0
 38 39  1  0
 39 40  2  0
 40 41  1  0
 40 42  1  0
 42 43  2  0
 43 44  1  0
M  END
