
     RDKit          3D

 44 49  0  0  0  0  0  0  0  0999 V2000
   -7.9010   -3.3640   -0.1700 C   0  0  0  0  0  0  0  0  0  0  0  0
   -6.8030   -2.6730   -0.0650 C   0  0  0  0  0  0  0  0  0  0  0  0
   -6.9080   -1.5280    0.7290 C   0  0  0  0  0  0  0  0  0  0  0  0
   -8.1670   -1.2200    1.4320 C   0  0  0  0  0  0  0  0  0  0  0  0
   -9.1280   -0.9740    1.9520 N   0  0  0  0  0  0  0  0  0  0  0  0
   -5.8830   -0.6510    0.9070 C   0  0  0  0  0  0  0  0  0  0  0  0
   -6.0680    0.4780    1.7070 C   0  0  0  0  0  0  0  0  0  0  0  0
   -5.0320    1.3490    1.8730 C   0  0  0  0  0  0  0  0  0  0  0  0
   -5.1830    2.5610    2.6850 C   0  0  0  0  0  0  0  0  0  0  0  0
   -4.2480    3.6100    2.2430 N   0  0  0  0  0  0  0  0  0  0  0  0
   -4.4860    4.7970    3.0590 C   0  0  0  0  0  0  0  0  0  0  0  0
   -3.8040    1.1090    1.2510 C   0  0  0  0  0  0  0  0  0  0  0  0
   -3.6100    0.0090    0.4660 C   0  0  0  0  0  0  0  0  0  0  0  0
   -2.3690   -0.3500   -0.0730 N   0  0  0  0  0  0  0  0  0  0  0  0
   -1.1980    0.4730    0.0460 C   0  0  0  0  0  0  0  0  0  0  0  0
   -1.2280    1.5870    0.6050 O   0  0  0  0  0  0  0  0  0  0  0  0
    0.0770    0.0370   -0.4650 N   0  0  0  0  0  0  0  0  0  0  0  0
    1.2330    0.8170   -0.3490 C   0  0  0  0  0  0  0  0  0  0  0  0
    1.2190    2.1960   -0.2490 C   0  0  0  0  0  0  0  0  0  0  0  0
    2.4480    2.8300   -0.1770 C   0  0  0  0  0  0  0  0  0  0  0  0
    2.8290    4.1540   -0.0620 C   0  0  0  0  0  0  0  0  0  0  0  0
    4.1990    4.1770   -0.0250 N   0  0  0  0  0  0  0  0  0  0  0  0
    4.6510    2.9500   -0.1110 N   0  0  0  0  0  0  0  0  0  0  0  0
    3.6370    2.1220   -0.2020 C   0  0  0  0  0  0  0  0  0  0  0  0
    3.6670    0.7550   -0.3010 C   0  0  0  0  0  0  0  0  0  0  0  0
    2.4550    0.1090   -0.3740 C   0  0  0  0  0  0  0  0  0  0  0  0
    2.3850   -1.3660   -0.4290 C   0  0  0  0  0  0  0  0  0  0  0  0
    4.9930    0.0990   -0.2450 C   0  0  1  0  0  0  0  0  0  0  0  0
    5.2910   -0.0840    1.2620 C   0  0  0  0  0  0  0  0  0  0  0  0
    5.1810   -1.1680   -0.9740 C   0  0  0  0  0  0  0  0  0  0  0  0
    6.0160    1.0600   -0.7620 C   0  0  2  0  0  0  0  0  0  0  0  0
    7.3850    0.5780   -0.9350 C   0  0  0  0  0  0  0  0  0  0  0  0
    8.2010    1.0800   -1.9740 C   0  0  0  0  0  0  0  0  0  0  0  0
    9.4840    0.6420   -2.1670 C   0  0  0  0  0  0  0  0  0  0  0  0
   10.0510   -0.3130   -1.3590 C   0  0  0  0  0  0  0  0  0  0  0  0
    9.2850   -0.8040   -0.3630 N   0  0  0  0  0  0  0  0  0  0  0  0
    7.9970   -0.3700   -0.1610 C   0  0  0  0  0  0  0  0  0  0  0  0
    6.0040    2.4160   -0.1310 C   0  0  0  0  0  0  0  0  0  0  0  0
   -4.6760   -0.9090    0.2720 C   0  0  0  0  0  0  0  0  0  0  0  0
   -4.5750   -2.0230   -0.5020 C   0  0  0  0  0  0  0  0  0  0  0  0
   -5.6260   -2.9420   -0.6990 C   0  0  0  0  0  0  0  0  0  0  0  0
   -5.3530   -4.0360   -1.3940 C   0  0  0  0  0  0  0  0  0  0  0  0
   -6.2270   -5.1900   -1.6010 C   0  0  0  0  0  0  0  0  0  0  0  0
   -4.0270   -4.0730   -2.1120 C   0  0  0  0  0  0  0  0  0  0  0  0
  1  2  2  0
  2  3  1  0
  2 41  1  0
  3  4  1  0
  3  6  2  0
  4  5  3  0
  6  7  1  0
  6 39  1  0
  7  8  2  0
  8  9  1  0
  8 12  1  0
  9 10  1  0
 10 11  1  0
 12 13  2  0
 13 14  1  0
 13 39  1  0
 14 15  1  0
 15 16  2  0
 15 17  1  0
 17 18  1  0
 18 19  2  0
 18 26  1  0
 19 20  1  0
 20 21  1  0
 20 24  2  0
 21 22  2  0
 22 23  1  0
 23 24  1  0
 23 38  1  0
 24 25  1  0
 25 26  2  0
 25 28  1  0
 26 27  1  0
 28 29  1  1
 28 30  1  0
 28 31  1  0
 31 32  1  1
 31 38  1  0
 32 33  2  0
 32 37  1  0
 33 34  1  0
 34 35  2  0
 35 36  1  0
 36 37  2  0
 39 40  2  0
 40 41  1  0
 41 42  2  3
 42 43  1  0
 42 44  1  0
M  END
