
     RDKit          3D

 44 49  0  0  0  0  0  0  0  0999 V2000
    8.5200    2.7690    1.6350 C   0  0  0  0  0  0  0  0  0  0  0  0
    7.8550    1.5200    1.1030 C   0  0  0  0  0  0  0  0  0  0  0  0
    6.4970    1.3180    1.7220 C   0  0  0  0  0  0  0  0  0  0  0  0
    5.8160    0.1170    1.2340 C   0  0  0  0  0  0  0  0  0  0  0  0
    6.0760   -1.2020    1.5810 C   0  0  0  0  0  0  0  0  0  0  0  0
    7.1430   -1.5770    2.5480 C   0  0  0  0  0  0  0  0  0  0  0  0
    5.2260   -2.0030    0.9120 N   0  0  0  0  0  0  0  0  0  0  0  0
    4.4110   -1.2710    0.1330 C   0  0  0  0  0  0  0  0  0  0  0  0
    3.3690   -1.6210   -0.7440 C   0  0  0  0  0  0  0  0  0  0  0  0
    2.6760   -0.6600   -1.4370 C   0  0  0  0  0  0  0  0  0  0  0  0
    1.5920   -0.9420   -2.4010 C   0  0  0  0  0  0  0  0  0  0  0  0
    1.3060   -2.2220   -2.7100 C   0  0  0  0  0  0  0  0  0  0  0  0
    0.3390   -2.7990   -3.5830 C   0  0  0  0  0  0  0  0  0  0  0  0
   -0.8980   -3.2100   -3.4000 C   0  0  0  0  0  0  0  0  0  0  0  0
   -1.7000   -3.2190   -2.2450 N   0  0  0  0  0  0  0  0  0  0  0  0
   -1.8230   -2.1880   -1.2630 C   0  0  0  0  0  0  0  0  0  0  0  0
   -2.0130   -2.7590    0.0920 C   0  0  0  0  0  0  0  0  0  0  0  0
   -1.7220   -4.0640    0.3290 C   0  0  0  0  0  0  0  0  0  0  0  0
   -1.8610   -4.6190    1.5970 C   0  0  0  0  0  0  0  0  0  0  0  0
   -2.3070   -3.7760    2.5920 C   0  0  0  0  0  0  0  0  0  0  0  0
   -2.5900   -2.4880    2.3380 N   0  0  0  0  0  0  0  0  0  0  0  0
   -2.4750   -1.8960    1.1320 C   0  0  0  0  0  0  0  0  0  0  0  0
   -2.7610   -0.6000    0.8970 N   0  0  0  0  0  0  0  0  0  0  0  0
   -3.3980    0.3530    0.5290 C   0  0  0  0  0  0  0  0  0  0  0  0
   -2.9430    1.7740    0.6210 C   0  0  0  0  0  0  0  0  0  0  0  0
   -3.7680    2.8420    1.2370 C   0  0  0  0  0  0  0  0  0  0  0  0
   -5.0590    2.9970    0.6010 N   0  0  0  0  0  0  0  0  0  0  0  0
   -5.3670    3.7880   -0.4270 C   0  0  0  0  0  0  0  0  0  0  0  0
   -6.7000    3.6660   -0.7560 C   0  0  0  0  0  0  0  0  0  0  0  0
   -7.2260    2.7480    0.1250 C   0  0  0  0  0  0  0  0  0  0  0  0
   -8.4870    2.2100    0.3050 C   0  0  0  0  0  0  0  0  0  0  0  0
   -8.7430    1.2810    1.2950 C   0  0  0  0  0  0  0  0  0  0  0  0
   -7.7070    0.8880    2.1170 C   0  0  0  0  0  0  0  0  0  0  0  0
   -6.4580    1.4270    1.9310 C   0  0  0  0  0  0  0  0  0  0  0  0
   -6.1940    2.3590    0.9410 C   0  0  0  0  0  0  0  0  0  0  0  0
   -1.7620    2.1620    0.1240 C   0  0  0  0  0  0  0  0  0  0  0  0
   -0.8090    1.2390   -0.5570 C   0  0  0  0  0  0  0  0  0  0  0  0
   -1.2490    0.9260   -1.9020 N   0  0  0  0  0  0  0  0  0  0  0  0
   -0.4220    0.5560   -2.9830 C   0  0  0  0  0  0  0  0  0  0  0  0
   -1.0140    0.5860   -4.1280 O   0  0  0  0  0  0  0  0  0  0  0  0
    0.9220    0.1740   -2.9620 N   0  0  0  0  0  0  0  0  0  0  0  0
    3.0550    0.6400   -1.2250 C   0  0  0  0  0  0  0  0  0  0  0  0
    4.0720    1.0060   -0.3700 C   0  0  0  0  0  0  0  0  0  0  0  0
    4.7690    0.0300    0.3270 C   0  0  0  0  0  0  0  0  0  0  0  0
  1  2  1  0
  2  3  1  0
  3  4  1  0
  4  5  2  0
  4 44  1  0
  5  6  1  0
  5  7  1  0
  7  8  1  0
  8  9  2  0
  8 44  1  0
  9 10  1  0
 10 11  1  0
 10 42  2  0
 11 12  2  0
 11 41  1  0
 12 13  1  0
 13 14  2  0
 14 15  1  0
 15 16  1  0
 16 17  1  0
 17 18  2  0
 17 22  1  0
 18 19  1  0
 19 20  2  0
 20 21  1  0
 21 22  2  0
 22 23  1  0
 23 24  2  0
 24 25  1  0
 25 26  1  0
 25 36  2  0
 26 27  1  0
 27 28  1  0
 27 35  1  0
 28 29  2  0
 29 30  1  0
 30 31  2  0
 30 35  1  0
 31 32  1  0
 32 33  2  0
 33 34  1  0
 34 35  2  0
 36 37  1  0
 37 38  1  0
 38 39  1  0
 39 40  2  0
 39 41  1  0
 42 43  1  0
 43 44  2  0
M  END
