
     RDKit          3D

 21 22  0  0  0  0  0  0  0  0999 V2000
   -5.5290    0.9690    0.2610 C   0  0  0  0  0  0  0  0  0  0  0  0
   -4.4500    0.5140    1.0200 O   0  0  0  0  0  0  0  0  0  0  0  0
   -3.1430    0.4130    0.5750 C   0  0  0  0  0  0  0  0  0  0  0  0
   -2.7660    0.7630   -0.7040 C   0  0  0  0  0  0  0  0  0  0  0  0
   -1.4430    0.6430   -1.1000 C   0  0  0  0  0  0  0  0  0  0  0  0
   -1.0310    0.9990   -2.4140 N   0  0  0  0  0  0  0  0  0  0  0  0
   -0.4710    0.1710   -0.2280 C   0  0  0  0  0  0  0  0  0  0  0  0
    0.8540    0.0640   -0.6670 N   0  0  0  0  0  0  0  0  0  0  0  0
    1.9880   -0.3750    0.0120 C   0  0  0  0  0  0  0  0  0  0  0  0
    1.8380   -0.7430    1.2140 O   0  0  0  0  0  0  0  0  0  0  0  0
    3.3080   -0.4210   -0.6070 C   0  0  0  0  0  0  0  0  0  0  0  0
    4.3920   -0.8520    0.0770 C   0  0  0  0  0  0  0  0  0  0  0  0
    4.4060   -1.4030    1.7380 Cl  0  0  0  0  0  0  0  0  0  0  0  0
    5.5990   -0.8020   -0.7700 C   0  0  0  0  0  0  0  0  0  0  0  0
    5.1020   -0.2860   -2.0470 C   0  0  0  0  0  0  0  0  0  0  0  0
    3.7770   -0.0730   -1.9300 C   0  0  0  0  0  0  0  0  0  0  0  0
    2.7670    0.5500   -3.2370 Cl  0  0  0  0  0  0  0  0  0  0  0  0
   -0.8830   -0.1730    1.0510 C   0  0  0  0  0  0  0  0  0  0  0  0
   -2.2120   -0.0600    1.4730 C   0  0  0  0  0  0  0  0  0  0  0  0
   -2.5900   -0.4120    2.7550 O   0  0  0  0  0  0  0  0  0  0  0  0
   -1.5970   -0.8920    3.6380 C   0  0  0  0  0  0  0  0  0  0  0  0
  1  2  1  0
  2  3  1  0
  3  4  2  0
  3 19  1  0
  4  5  1  0
  5  6  1  0
  5  7  2  0
  7  8  1  0
  7 18  1  0
  8  9  1  0
  9 10  2  0
  9 11  1  0
 11 12  2  0
 11 16  1  0
 12 13  1  0
 12 14  1  0
 14 15  1  0
 15 16  2  0
 16 17  1  0
 18 19  2  0
 19 20  1  0
 20 21  1  0
M  END
