
     RDKit          3D

 21 22  0  0  0  0  0  0  0  0999 V2000
   -4.2440    1.3610   -2.0810 C   0  0  0  0  0  0  0  0  0  0  0  0
   -3.1200    0.9270   -1.3530 O   0  0  0  0  0  0  0  0  0  0  0  0
   -3.2900    0.3950   -0.0780 C   0  0  0  0  0  0  0  0  0  0  0  0
   -4.5460    0.2930    0.4710 C   0  0  0  0  0  0  0  0  0  0  0  0
   -4.7480   -0.2260    1.7240 C   0  0  0  0  0  0  0  0  0  0  0  0
   -6.3370   -0.3630    2.4340 Cl  0  0  0  0  0  0  0  0  0  0  0  0
   -3.6460   -0.6430    2.4190 C   0  0  0  0  0  0  0  0  0  0  0  0
   -2.3600   -0.5360    1.8520 C   0  0  0  0  0  0  0  0  0  0  0  0
   -2.1340   -0.0230    0.6060 C   0  0  0  0  0  0  0  0  0  0  0  0
   -0.9070    0.1260   -0.0440 N   0  0  0  0  0  0  0  0  0  0  0  0
    0.3700   -0.2450    0.5010 C   0  0  0  0  0  0  0  0  0  0  0  0
    0.3590   -0.7250    1.6190 O   0  0  0  0  0  0  0  0  0  0  0  0
    1.5600   -0.0550   -0.2330 N   0  0  0  0  0  0  0  0  0  0  0  0
    2.8890   -0.3360    0.0910 C   0  0  0  0  0  0  0  0  0  0  0  0
    3.3060   -0.8590    1.2000 C   0  0  0  0  0  0  0  0  0  0  0  0
    2.2490   -1.3310    2.5550 Cl  0  0  0  0  0  0  0  0  0  0  0  0
    4.7660   -1.1230    1.4530 C   0  0  0  0  0  0  0  0  0  0  0  0
    5.5510   -0.7570    0.4040 O   0  0  0  0  0  0  0  0  0  0  0  0
    5.1350   -0.2050   -0.7740 C   0  0  0  0  0  0  0  0  0  0  0  0
    3.8720    0.0230   -0.9880 C   0  0  0  0  0  0  0  0  0  0  0  0
    3.4370    0.6220   -2.2670 C   0  0  0  0  0  0  0  0  0  0  0  0
  1  2  1  0
  2  3  1  0
  3  4  2  0
  3  9  1  0
  4  5  1  0
  5  6  1  0
  5  7  2  0
  7  8  1  0
  8  9  2  0
  9 10  1  0
 10 11  1  0
 11 12  2  0
 11 13  1  0
 13 14  1  0
 14 15  2  0
 14 20  1  0
 15 16  1  0
 15 17  1  0
 17 18  1  0
 18 19  1  0
 19 20  2  0
 20 21  1  0
M  END
