
     RDKit          3D

 21 22  0  0  0  0  0  0  0  0999 V2000
    5.9950    0.2760    1.5680 C   0  0  0  0  0  0  0  0  0  0  0  0
    5.0790    0.4820    0.4170 C   0  0  0  0  0  0  0  0  0  0  0  0
    5.4400    0.8350   -0.8720 C   0  0  0  0  0  0  0  0  0  0  0  0
    4.2610    0.9080   -1.5810 C   0  0  0  0  0  0  0  0  0  0  0  0
    3.2210    0.5980   -0.7040 C   0  0  0  0  0  0  0  0  0  0  0  0
    1.8060    0.5590   -1.0450 C   0  0  0  0  0  0  0  0  0  0  0  0
    1.4470    0.8200   -2.2190 O   0  0  0  0  0  0  0  0  0  0  0  0
    0.8460    0.2070    0.0290 C   0  0  0  0  0  0  0  0  0  0  0  0
   -0.5690    0.2120   -0.4910 C   0  0  0  0  0  0  0  0  0  0  0  0
   -0.7280    0.4950   -1.6850 O   0  0  0  0  0  0  0  0  0  0  0  0
   -1.6520   -0.0910    0.3420 N   0  0  0  0  0  0  0  0  0  0  0  0
   -2.9940   -0.1050   -0.0740 C   0  0  0  0  0  0  0  0  0  0  0  0
   -3.4760    0.1640   -1.3250 C   0  0  0  0  0  0  0  0  0  0  0  0
   -4.8460    0.1200   -1.6310 C   0  0  0  0  0  0  0  0  0  0  0  0
   -5.7680   -0.1990   -0.6750 C   0  0  0  0  0  0  0  0  0  0  0  0
   -7.4900   -0.2610   -1.0370 Cl  0  0  0  0  0  0  0  0  0  0  0  0
   -5.3210   -0.4790    0.6030 C   0  0  0  0  0  0  0  0  0  0  0  0
   -6.5150   -0.8900    1.8310 Cl  0  0  0  0  0  0  0  0  0  0  0  0
   -3.9850   -0.4290    0.8750 C   0  0  0  0  0  0  0  0  0  0  0  0
   -3.5800   -0.7260    2.2110 N   0  0  0  0  0  0  0  0  0  0  0  0
    3.7760    0.3530    0.4750 O   0  0  0  0  0  0  0  0  0  0  0  0
  1  2  1  0
  2  3  2  0
  2 21  1  0
  3  4  1  0
  4  5  2  0
  5  6  1  0
  5 21  1  0
  6  7  2  0
  6  8  1  0
  8  9  1  0
  9 10  2  0
  9 11  1  0
 11 12  1  0
 12 13  2  0
 12 19  1  0
 13 14  1  0
 14 15  2  0
 15 16  1  0
 15 17  1  0
 17 18  1  0
 17 19  2  0
 19 20  1  0
M  END
