
     RDKit          3D

 43 46  0  0  0  0  0  0  0  0999 V2000
    3.8150    6.9980    1.1150 C   0  0  0  0  0  0  0  0  0  0  0  0
    3.8460    5.6200    1.4340 O   0  0  0  0  0  0  0  0  0  0  0  0
    4.5480    4.7730    0.5880 N   0  0  0  0  0  0  0  0  0  0  0  0
    3.9160    3.7060    0.2380 C   0  0  0  0  0  0  0  0  0  0  0  0
    2.5750    3.3560    0.6590 C   0  0  0  0  0  0  0  0  0  0  0  0
    1.8880    2.2670    0.3150 C   0  0  0  0  0  0  0  0  0  0  0  0
    2.5370    1.3150   -0.5820 C   0  0  0  0  0  0  0  0  0  0  0  0
    2.7730    0.0370   -0.4110 C   0  0  0  0  0  0  0  0  0  0  0  0
    2.4460   -0.7230    0.7020 O   0  0  0  0  0  0  0  0  0  0  0  0
    2.2450   -2.0720    0.3060 C   0  0  2  0  0  0  0  0  0  0  0  0
    2.2680   -3.0580    1.4120 C   0  0  0  0  0  0  0  0  0  0  0  0
    0.8890   -3.3300    1.9820 C   0  0  0  0  0  0  0  0  0  0  0  0
   -0.1610   -3.2880    0.9000 C   0  0  0  0  0  0  0  0  0  0  0  0
   -1.3690   -4.0110    1.2470 N   0  0  0  0  0  0  0  0  0  0  0  0
   -2.6040   -3.3950    1.6130 C   0  0  0  0  0  0  0  0  0  0  0  0
   -3.5900   -4.2190    1.6090 O   0  0  0  0  0  0  0  0  0  0  0  0
   -2.6710   -2.1080    1.9160 O   0  0  0  0  0  0  0  0  0  0  0  0
   -2.9250   -0.9050    1.2780 C   0  0  1  0  0  0  0  0  0  0  0  0
   -2.0520    0.0440    1.7150 O   0  0  0  0  0  0  0  0  0  0  0  0
   -1.3720    0.8100    0.8440 C   0  0  2  0  0  0  0  0  0  0  0  0
   -1.0530    0.2990   -0.4950 C   0  0  0  0  0  0  0  0  0  0  0  0
   -2.1270   -0.5070   -1.1010 C   0  0  0  0  0  0  0  0  0  0  0  0
   -3.1940   -0.9360   -0.1750 C   0  0  2  0  0  0  0  0  0  0  0  0
   -4.4530   -0.2300   -0.4780 N   0  0  0  0  0  0  0  0  0  0  0  0
   -4.7290    1.1760   -0.3260 C   0  0  0  0  0  0  0  0  0  0  0  0
   -6.2350    1.2810   -0.2300 C   0  0  0  0  0  0  0  0  0  0  0  0
   -6.7510    0.0530   -0.7480 N   0  0  0  0  0  0  0  0  0  0  0  0
   -8.1040   -0.3110   -1.0120 C   0  0  0  0  0  0  0  0  0  0  0  0
   -8.4350   -0.6240   -2.2080 N   0  0  0  0  0  0  0  0  0  0  0  0
   -5.6440   -0.8150   -0.9790 C   0  0  0  0  0  0  0  0  0  0  0  0
   -5.7120   -1.9320   -1.5440 O   0  0  0  0  0  0  0  0  0  0  0  0
   -0.0650    1.2180    1.5770 C   0  0  0  0  0  0  0  0  0  0  0  0
    0.6180    2.1240    0.8280 O   0  0  0  0  0  0  0  0  0  0  0  0
    3.4050   -2.2100   -0.5900 N   0  0  0  0  0  0  0  0  0  0  0  0
    4.3170   -3.3030   -0.7500 C   0  0  0  0  0  0  0  0  0  0  0  0
    3.8790   -4.2040   -1.7220 O   0  0  0  0  0  0  0  0  0  0  0  0
    3.7920   -3.5180   -2.8520 O   0  0  0  0  0  0  0  0  0  0  0  0
    3.4280   -0.9670   -1.2980 C   0  0  0  0  0  0  0  0  0  0  0  0
    3.9120   -0.7690   -2.4520 O   0  0  0  0  0  0  0  0  0  0  0  0
    4.5860    2.8420   -0.6030 O   0  0  0  0  0  0  0  0  0  0  0  0
    5.8840    3.0900   -1.0620 C   0  0  0  0  0  0  0  0  0  0  0  0
    6.4190    4.1550   -0.6660 O   0  0  0  0  0  0  0  0  0  0  0  0
    6.5080    2.1870   -1.9050 O   0  0  0  0  0  0  0  0  0  0  0  0
  1  2  1  0
  2  3  1  0
  3  4  2  3
  4  5  1  0
  4 40  1  0
  5  6  2  3
  6  7  1  0
  6 33  1  0
  7  8  2  0
  8  9  1  0
  8 38  1  0
  9 10  1  0
 10 11  1  1
 10 34  1  0
 11 12  1  0
 12 13  1  0
 13 14  1  0
 14 15  1  0
 15 16  2  0
 15 17  1  0
 18 17  1  6
 18 19  1  0
 18 23  1  0
 19 20  1  0
 20 21  1  6
 20 32  1  0
 21 22  1  0
 22 23  1  0
 23 24  1  1
 24 25  1  0
 24 30  1  0
 25 26  1  0
 26 27  1  0
 27 28  1  0
 27 30  1  0
 28 29  2  0
 30 31  2  0
 32 33  1  0
 34 35  1  0
 34 38  1  0
 35 36  1  0
 36 37  1  0
 38 39  2  0
 40 41  1  0
 41 42  2  0
 41 43  1  0
M  END
