
     RDKit          3D

 44 48  0  0  0  0  0  0  0  0999 V2000
    1.6990    0.6900    2.2490 C   0  0  0  0  0  0  0  0  0  0  0  0
    2.6020    0.5710    1.0830 C   0  0  1  0  0  0  0  0  0  0  0  0
    4.0380    1.0680    1.4450 C   0  0  0  0  0  0  0  0  0  0  0  0
    4.9680    0.8590    0.4600 O   0  0  0  0  0  0  0  0  0  0  0  0
    5.0400    1.3230   -0.7880 C   0  0  0  0  0  0  0  0  0  0  0  0
    4.2030    2.0810   -1.2780 O   0  0  0  0  0  0  0  0  0  0  0  0
    6.1090    0.9640   -1.6480 O   0  0  0  0  0  0  0  0  0  0  0  0
    2.7360   -0.9130    0.8000 C   0  0  0  0  0  0  0  0  0  0  0  0
    1.4680   -1.6580    1.0460 C   0  0  0  0  0  0  0  0  0  0  0  0
    1.1230   -2.6550    0.0690 N   0  0  0  0  0  0  0  0  0  0  0  0
    2.2940   -3.4700   -0.2350 C   0  0  0  0  0  0  0  0  0  0  0  0
    3.3900   -3.2790    0.2970 O   0  0  0  0  0  0  0  0  0  0  0  0
    2.2100   -4.5090   -1.1560 O   0  0  0  0  0  0  0  0  0  0  0  0
   -0.1030   -2.9490   -0.6230 C   0  0  2  0  0  0  0  0  0  0  0  0
   -0.1270   -2.2960   -2.0150 C   0  0  0  0  0  0  0  0  0  0  0  0
    0.5170   -0.9550   -1.9500 C   0  0  0  0  0  0  0  0  0  0  0  0
    0.0470    0.1220   -2.5980 O   0  0  0  0  0  0  0  0  0  0  0  0
   -0.2460    1.4290   -2.5920 C   0  0  0  0  0  0  0  0  0  0  0  0
    0.4510    2.1760   -3.4030 O   0  0  0  0  0  0  0  0  0  0  0  0
   -1.2100    2.2690   -1.8610 C   0  0  0  0  0  0  0  0  0  0  0  0
   -1.2370    2.5440   -0.5600 C   0  0  0  0  0  0  0  0  0  0  0  0
   -0.0680    2.6280    0.3120 N   0  0  0  0  0  0  0  0  0  0  0  0
    1.2890    2.4410    0.1240 C   0  0  0  0  0  0  0  0  0  0  0  0
    1.9550    3.5770   -0.0510 O   0  0  0  0  0  0  0  0  0  0  0  0
    2.1440    1.3690    0.0690 O   0  0  0  0  0  0  0  0  0  0  0  0
   -2.6070    2.8200   -0.1440 C   0  0  2  0  0  0  0  0  0  0  0  0
   -3.5780    1.9740    0.4180 C   0  0  0  0  0  0  0  0  0  0  0  0
   -4.7560    2.6170    0.3770 O   0  0  0  0  0  0  0  0  0  0  0  0
   -3.8590    0.7570    1.0030 O   0  0  0  0  0  0  0  0  0  0  0  0
   -2.9930   -0.2720    1.2220 C   0  0  1  0  0  0  0  0  0  0  0  0
   -2.0830   -0.1390    0.0430 C   0  0  0  0  0  0  0  0  0  0  0  0
   -2.5710   -0.2170    2.6140 C   0  0  0  0  0  0  0  0  0  0  0  0
   -2.5110   -1.6150    3.0980 O   0  0  0  0  0  0  0  0  0  0  0  0
   -1.6730   -2.4570    2.3490 C   0  0  0  0  0  0  0  0  0  0  0  0
   -0.6740   -3.0650    2.7630 O   0  0  0  0  0  0  0  0  0  0  0  0
   -2.1530   -2.5440    0.9430 N   0  0  0  0  0  0  0  0  0  0  0  0
   -1.3580   -3.2800    0.0460 C   0  0  0  0  0  0  0  0  0  0  0  0
   -3.3260   -1.7300    0.9400 C   0  0  0  0  0  0  0  0  0  0  0  0
   -4.5450   -1.9020    0.7670 O   0  0  0  0  0  0  0  0  0  0  0  0
   -3.1700    3.3870   -1.4040 N   0  0  0  0  0  0  0  0  0  0  0  0
   -4.2160    4.0910   -1.8880 C   0  0  0  0  0  0  0  0  0  0  0  0
   -4.1710    3.9860   -3.2490 N   0  0  0  0  0  0  0  0  0  0  0  0
   -3.1310    3.2480   -3.5430 N   0  0  0  0  0  0  0  0  0  0  0  0
   -2.4810    2.8640   -2.3950 C   0  0  0  0  0  0  0  0  0  0  0  0
  2  1  1  1
  2  3  1  0
  2  8  1  0
  2 25  1  0
  3  4  1  0
  4  5  1  0
  5  6  2  0
  5  7  1  0
  8  9  1  0
  9 10  1  0
 10 11  1  0
 10 14  1  0
 11 12  2  0
 11 13  1  0
 14 15  1  0
 14 37  1  1
 15 16  1  0
 16 17  1  0
 17 18  1  0
 18 19  2  0
 18 20  1  0
 20 21  2  0
 20 44  1  0
 21 22  1  0
 21 26  1  0
 22 23  1  0
 23 24  2  0
 23 25  1  0
 26 27  1  0
 26 40  1  6
 27 28  2  0
 27 29  1  0
 29 30  1  0
 30 31  1  6
 30 32  1  0
 30 38  1  0
 32 33  1  0
 33 34  1  0
 34 35  2  0
 34 36  1  0
 36 37  1  0
 36 38  1  0
 38 39  2  0
 40 41  1  0
 40 44  1  0
 41 42  2  0
 42 43  1  0
 43 44  2  0
M  END
