
     RDKit          3D

 24 26  0  0  0  0  0  0  0  0999 V2000
    5.7120   -1.5750    1.4490 C   0  0  0  0  0  0  0  0  0  0  0  0
    5.3040   -0.7940    0.2540 C   0  0  0  0  0  0  0  0  0  0  0  0
    4.0110   -0.3220    0.1770 C   0  0  0  0  0  0  0  0  0  0  0  0
    3.5770    0.4160   -0.9220 C   0  0  0  0  0  0  0  0  0  0  0  0
    2.2120    0.9090   -0.9960 C   0  0  0  0  0  0  0  0  0  0  0  0
    1.3650    0.6850   -0.0570 N   0  0  0  0  0  0  0  0  0  0  0  0
   -0.0070    1.2170   -0.2000 C   0  0  0  0  0  0  0  0  0  0  0  0
   -0.6850    2.1430   -0.1450 N   0  0  0  0  0  0  0  0  0  0  0  0
   -1.9900    2.1910   -0.3660 N   0  0  0  0  0  0  0  0  0  0  0  0
   -2.6110    1.2640   -0.6490 C   0  0  0  0  0  0  0  0  0  0  0  0
   -4.4080    0.8300   -1.0450 S   0  0  0  0  0  0  0  0  0  0  0  0
   -5.1300    0.4110    0.5890 C   0  0  2  0  0  0  0  0  0  0  0  0
   -4.5050   -0.8430    1.1370 C   0  0  0  0  0  0  0  0  0  0  0  0
   -6.5890    0.3030    0.4040 C   0  0  0  0  0  0  0  0  0  0  0  0
   -7.5530    1.0630    1.0210 C   0  0  0  0  0  0  0  0  0  0  0  0
   -8.7750    0.6370    0.5680 C   0  0  0  0  0  0  0  0  0  0  0  0
   -8.5170   -0.3770   -0.3180 C   0  0  0  0  0  0  0  0  0  0  0  0
   -7.1930   -0.5400   -0.3830 O   0  0  0  0  0  0  0  0  0  0  0  0
   -1.3370   -0.1000   -0.6810 S   0  0  0  0  0  0  0  0  0  0  0  0
    4.4820    0.6370   -1.8910 N   0  0  0  0  0  0  0  0  0  0  0  0
    5.7520    0.1800   -1.8290 C   0  0  0  0  0  0  0  0  0  0  0  0
    6.5800    0.4020   -2.7510 O   0  0  0  0  0  0  0  0  0  0  0  0
    6.2070   -0.5510   -0.7540 C   0  0  0  0  0  0  0  0  0  0  0  0
    7.5930   -1.0740   -0.6430 C   0  0  0  0  0  0  0  0  0  0  0  0
  1  2  1  0
  2  3  1  0
  2 23  2  0
  3  4  2  0
  4  5  1  0
  4 20  1  0
  5  6  2  3
  6  7  1  0
  7  8  2  0
  7 19  1  0
  8  9  1  0
  9 10  2  0
 10 11  1  0
 10 19  1  0
 11 12  1  0
 12 13  1  6
 12 14  1  0
 14 15  2  0
 14 18  1  0
 15 16  1  0
 16 17  2  0
 17 18  1  0
 20 21  1  0
 21 22  2  0
 21 23  1  0
 23 24  1  0
M  END
