
     RDKit          3D

 22 24  0  0  0  0  0  0  0  0999 V2000
    5.2880    1.4660   -0.4890 C   0  0  0  0  0  0  0  0  0  0  0  0
    4.4500    0.3710    0.0540 N   0  0  0  0  0  0  0  0  0  0  0  0
    5.1490   -0.6850    0.6890 C   0  0  0  0  0  0  0  0  0  0  0  0
    3.0750    0.5030   -0.1200 C   0  0  0  0  0  0  0  0  0  0  0  0
    2.6580    1.5940   -0.7530 O   0  0  0  0  0  0  0  0  0  0  0  0
    1.9820   -0.3450    0.2680 C   0  0  0  0  0  0  0  0  0  0  0  0
    2.1320   -1.5240    0.9280 C   0  0  0  0  0  0  0  0  0  0  0  0
    1.0540   -2.3340    1.2960 C   0  0  0  0  0  0  0  0  0  0  0  0
   -0.2280   -1.9430    0.9880 C   0  0  0  0  0  0  0  0  0  0  0  0
   -0.4280   -0.7560    0.3200 C   0  0  0  0  0  0  0  0  0  0  0  0
   -1.7920   -0.3630   -0.0040 C   0  0  0  0  0  0  0  0  0  0  0  0
   -2.6820   -1.2230   -0.5990 C   0  0  0  0  0  0  0  0  0  0  0  0
   -3.9470   -0.8420   -0.9050 N   0  0  0  0  0  0  0  0  0  0  0  0
   -4.9070   -1.7280   -1.5330 C   0  0  0  0  0  0  0  0  0  0  0  0
   -4.3630    0.4140   -0.6250 C   0  0  0  0  0  0  0  0  0  0  0  0
   -5.5570    0.7650   -0.9170 O   0  0  0  0  0  0  0  0  0  0  0  0
   -3.5020    1.3020   -0.0300 C   0  0  0  0  0  0  0  0  0  0  0  0
   -3.7090    2.5770    0.3330 N   0  0  0  0  0  0  0  0  0  0  0  0
   -2.5830    3.0590    0.8840 C   0  0  0  0  0  0  0  0  0  0  0  0
   -1.6380    2.0300    0.8600 C   0  0  0  0  0  0  0  0  0  0  0  0
   -2.2070    0.9180    0.2860 C   0  0  0  0  0  0  0  0  0  0  0  0
    0.6560    0.0100   -0.0240 C   0  0  0  0  0  0  0  0  0  0  0  0
  1  2  1  0
  2  3  1  0
  2  4  1  0
  4  5  2  0
  4  6  1  0
  6  7  2  0
  6 22  1  0
  7  8  1  0
  8  9  2  0
  9 10  1  0
 10 11  1  0
 10 22  2  0
 11 12  2  0
 11 21  1  0
 12 13  1  0
 13 14  1  0
 13 15  1  0
 15 16  2  0
 15 17  1  0
 17 18  1  0
 17 21  2  0
 18 19  1  0
 19 20  2  0
 20 21  1  0
M  END
