
     RDKit          3D

 24 26  0  0  0  0  0  0  0  0999 V2000
   -3.0450    3.1930    4.6270 C   0  0  0  0  0  0  0  0  0  0  0  0
   -2.0490    2.9210    3.5570 C   0  0  0  0  0  0  0  0  0  0  0  0
   -2.0720    3.3550    2.2410 C   0  0  0  0  0  0  0  0  0  0  0  0
   -0.9560    2.8700    1.6070 C   0  0  0  0  0  0  0  0  0  0  0  0
   -0.5860    3.0980    0.1820 C   0  0  0  0  0  0  0  0  0  0  0  0
   -1.3940    3.8510   -0.6180 C   0  0  0  0  0  0  0  0  0  0  0  0
   -0.4900    3.8050   -2.2170 S   0  0  0  0  0  0  0  0  0  0  0  0
    0.8470    2.7590   -1.5150 C   0  0  0  0  0  0  0  0  0  0  0  0
    2.0240    2.3270   -2.4310 C   0  0  0  0  0  0  0  0  0  0  0  0
    1.6970    1.0450   -3.0270 N   0  0  0  0  0  0  0  0  0  0  0  0
    1.4440   -0.1150   -2.2640 C   0  0  0  0  0  0  0  0  0  0  0  0
    1.5080   -0.0210   -0.9910 O   0  0  0  0  0  0  0  0  0  0  0  0
    1.1260   -1.3750   -2.7780 N   0  0  0  0  0  0  0  0  0  0  0  0
    0.8850   -2.5070   -1.8330 C   0  0  0  0  0  0  0  0  0  0  0  0
    0.8440   -2.8160   -0.7600 N   0  0  0  0  0  0  0  0  0  0  0  0
    0.5860   -3.9790   -0.1700 C   0  0  0  0  0  0  0  0  0  0  0  0
    0.5580   -4.2800    1.2950 C   0  0  0  0  0  0  0  0  0  0  0  0
    0.3180   -4.9940   -1.0910 C   0  0  0  0  0  0  0  0  0  0  0  0
   -0.0160   -6.4330   -0.8780 C   0  0  0  0  0  0  0  0  0  0  0  0
    0.4710   -4.1490   -2.6830 S   0  0  0  0  0  0  0  0  0  0  0  0
    0.5000    2.6210   -0.4160 N   0  0  0  0  0  0  0  0  0  0  0  0
   -0.2780    2.1490    2.5560 C   0  0  0  0  0  0  0  0  0  0  0  0
    1.0060    1.4270    2.3410 C   0  0  0  0  0  0  0  0  0  0  0  0
   -0.9440    2.1930    3.7040 O   0  0  0  0  0  0  0  0  0  0  0  0
  1  2  1  0
  2  3  2  0
  2 24  1  0
  3  4  1  0
  4  5  1  0
  4 22  2  0
  5  6  2  0
  5 21  1  0
  6  7  1  0
  7  8  1  0
  8  9  1  0
  8 21  2  0
  9 10  1  0
 10 11  1  0
 11 12  2  0
 11 13  1  0
 13 14  1  0
 14 15  2  0
 14 20  1  0
 15 16  1  0
 16 17  1  0
 16 18  2  0
 18 19  1  0
 18 20  1  0
 22 23  1  0
 22 24  1  0
M  END
