
     RDKit          3D

 24 26  0  0  0  0  0  0  0  0999 V2000
    0.7570   -4.4600    1.3640 C   0  0  0  0  0  0  0  0  0  0  0  0
    1.3260   -3.7700   -0.2250 S   0  0  0  0  0  0  0  0  0  0  0  0
    2.3230   -2.3390    0.1410 C   0  0  0  0  0  0  0  0  0  0  0  0
    3.6810   -2.5300    0.3240 C   0  0  0  0  0  0  0  0  0  0  0  0
    4.4850   -1.4420    0.6090 C   0  0  0  0  0  0  0  0  0  0  0  0
    3.9360   -0.1850    0.7100 C   0  0  0  0  0  0  0  0  0  0  0  0
    4.7490    0.8990    0.9960 O   0  0  0  0  0  0  0  0  0  0  0  0
    5.3540    1.6370    0.0120 C   0  0  0  0  0  0  0  0  0  0  0  0
    5.3550    2.5720   -0.6970 N   0  0  0  0  0  0  0  0  0  0  0  0
    6.1750    2.9930   -1.5930 C   0  0  0  0  0  0  0  0  0  0  0  0
    7.3140    2.1910   -1.7880 N   0  0  0  0  0  0  0  0  0  0  0  0
    6.9850    0.8590   -0.5480 S   0  0  0  0  0  0  0  0  0  0  0  0
    2.5540   -0.0460    0.5160 C   0  0  0  0  0  0  0  0  0  0  0  0
    1.7200   -1.0860    0.2330 C   0  0  0  0  0  0  0  0  0  0  0  0
    0.3280   -1.0160    0.0260 N   0  0  0  0  0  0  0  0  0  0  0  0
   -0.4830    0.1360    0.0750 C   0  0  0  0  0  0  0  0  0  0  0  0
    0.0190    1.2460    0.3240 O   0  0  0  0  0  0  0  0  0  0  0  0
   -1.8880    0.1110   -0.1500 N   0  0  0  0  0  0  0  0  0  0  0  0
   -2.6720    1.3280   -0.0860 C   0  0  2  0  0  0  0  0  0  0  0  0
   -3.6140    1.2000    1.0630 C   0  0  0  0  0  0  0  0  0  0  0  0
   -4.9540    0.6540    0.7490 C   0  0  0  0  0  0  0  0  0  0  0  0
   -5.5800    1.3400   -0.4510 C   0  0  0  0  0  0  0  0  0  0  0  0
   -4.6530    1.0700   -1.6170 C   0  0  0  0  0  0  0  0  0  0  0  0
   -3.2840    1.6400   -1.4030 C   0  0  0  0  0  0  0  0  0  0  0  0
  1  2  1  0
  2  3  1  0
  3  4  2  0
  3 14  1  0
  4  5  1  0
  5  6  2  0
  6  7  1  0
  6 13  1  0
  7  8  1  0
  8  9  2  0
  8 12  1  0
  9 10  1  0
 10 11  2  0
 11 12  1  0
 13 14  2  0
 14 15  1  0
 15 16  1  0
 16 17  2  0
 16 18  1  0
 19 18  1  6
 19 20  1  0
 19 24  1  0
 20 21  1  0
 21 22  1  0
 22 23  1  0
 23 24  1  0
M  END
