
     RDKit          3D

 24 26  0  0  0  0  0  0  0  0999 V2000
   -7.9910    0.6130   -1.3740 C   0  0  0  0  0  0  0  0  0  0  0  0
   -6.7230    0.2270   -0.7120 C   0  0  0  0  0  0  0  0  0  0  0  0
   -6.7210    0.1420    0.6700 C   0  0  0  0  0  0  0  0  0  0  0  0
   -5.5280   -0.2190    1.2690 C   0  0  0  0  0  0  0  0  0  0  0  0
   -4.4010   -0.4800    0.5120 C   0  0  0  0  0  0  0  0  0  0  0  0
   -3.1910   -0.8300    0.8610 O   0  0  0  0  0  0  0  0  0  0  0  0
   -2.4420   -0.9700   -0.1970 C   0  0  0  0  0  0  0  0  0  0  0  0
   -1.0160   -1.3590   -0.1710 C   0  0  0  0  0  0  0  0  0  0  0  0
   -0.1410   -0.1280   -0.0780 C   0  0  0  0  0  0  0  0  0  0  0  0
    1.3210   -0.4720   -0.0490 C   0  0  0  0  0  0  0  0  0  0  0  0
    2.1110    0.7750    0.0420 C   0  0  0  0  0  0  0  0  0  0  0  0
    1.5980    1.9190    0.0850 O   0  0  0  0  0  0  0  0  0  0  0  0
    3.5480    0.6530    0.0820 N   0  0  0  0  0  0  0  0  0  0  0  0
    4.3820    1.7830    0.1690 C   0  0  0  0  0  0  0  0  0  0  0  0
    3.6580    3.2530    0.2140 S   0  0  0  0  0  0  0  0  0  0  0  0
    5.7650    1.7010    0.2420 N   0  0  0  0  0  0  0  0  0  0  0  0
    6.5220    0.4520    0.2730 C   0  0  0  0  0  0  0  0  0  0  0  0
    6.1970   -0.6100    1.0300 C   0  0  0  0  0  0  0  0  0  0  0  0
    6.9390   -1.7250    0.9600 C   0  0  0  0  0  0  0  0  0  0  0  0
    8.1980   -1.3430   -0.2230 S   0  0  0  0  0  0  0  0  0  0  0  0
    7.6150    0.3470   -0.5490 C   0  0  0  0  0  0  0  0  0  0  0  0
   -3.2120   -0.6950   -1.2600 N   0  0  0  0  0  0  0  0  0  0  0  0
   -4.4440   -0.3840   -0.8630 C   0  0  0  0  0  0  0  0  0  0  0  0
   -5.6080   -0.0330   -1.4190 N   0  0  0  0  0  0  0  0  0  0  0  0
  1  2  1  0
  2  3  2  0
  2 24  1  0
  3  4  1  0
  4  5  2  0
  5  6  1  0
  5 23  1  0
  6  7  1  0
  7  8  1  0
  7 22  2  0
  8  9  1  0
  9 10  1  0
 10 11  1  0
 11 12  2  0
 11 13  1  0
 13 14  1  0
 14 15  2  0
 14 16  1  0
 16 17  1  0
 17 18  1  0
 17 21  2  0
 18 19  2  0
 19 20  1  0
 20 21  1  0
 22 23  1  0
 23 24  2  0
M  END
