
     RDKit          3D

 24 26  0  0  0  0  0  0  0  0999 V2000
    7.7520   -0.0590   -1.4370 C   0  0  0  0  0  0  0  0  0  0  0  0
    6.5690   -1.3650   -1.1630 S   0  0  0  0  0  0  0  0  0  0  0  0
    4.9690   -0.7530   -0.6910 C   0  0  0  0  0  0  0  0  0  0  0  0
    3.9560   -0.4040   -1.4100 O   0  0  0  0  0  0  0  0  0  0  0  0
    2.9100   -0.0300   -0.6440 C   0  0  0  0  0  0  0  0  0  0  0  0
    1.7030    0.3840   -1.3260 C   0  0  0  0  0  0  0  0  0  0  0  0
    0.6740    0.9940   -0.5800 N   0  0  0  0  0  0  0  0  0  0  0  0
   -0.5790    0.2430   -0.4660 C   0  0  0  0  0  0  0  0  0  0  0  0
   -0.6680   -0.8330   -0.9840 O   0  0  0  0  0  0  0  0  0  0  0  0
   -1.6060    0.9190    0.2780 N   0  0  0  0  0  0  0  0  0  0  0  0
   -2.9090    0.3440    0.3240 C   0  0  0  0  0  0  0  0  0  0  0  0
   -3.2320   -0.9720    0.1230 C   0  0  0  0  0  0  0  0  0  0  0  0
   -4.5530   -1.2790    0.0130 C   0  0  0  0  0  0  0  0  0  0  0  0
   -5.5910   -0.4780    0.0850 C   0  0  0  0  0  0  0  0  0  0  0  0
   -6.9440   -0.8030   -0.1440 C   0  0  0  0  0  0  0  0  0  0  0  0
   -7.9100    0.1440   -0.1590 C   0  0  0  0  0  0  0  0  0  0  0  0
   -7.6270    1.4690    0.0670 C   0  0  0  0  0  0  0  0  0  0  0  0
   -6.2880    1.8250    0.2890 N   0  0  0  0  0  0  0  0  0  0  0  0
   -5.3100    0.9450    0.2960 C   0  0  0  0  0  0  0  0  0  0  0  0
   -4.0100    1.2500    0.4050 C   0  0  0  0  0  0  0  0  0  0  0  0
    3.2840   -0.1440    0.6570 N   0  0  0  0  0  0  0  0  0  0  0  0
    4.5590   -0.5780    0.6250 C   0  0  0  0  0  0  0  0  0  0  0  0
    5.6080   -0.5360    1.7170 C   0  0  0  0  0  0  0  0  0  0  0  0
    5.4340   -1.7180    3.0160 S   0  0  0  0  0  0  0  0  0  0  0  0
  1  2  1  0
  2  3  1  0
  3  4  1  0
  3 22  2  0
  4  5  1  0
  5  6  1  0
  5 21  2  0
  6  7  1  0
  7  8  1  0
  8  9  2  0
  8 10  1  0
 10 11  1  0
 11 12  2  0
 11 20  1  0
 12 13  1  0
 13 14  2  0
 14 15  1  0
 14 19  1  0
 15 16  2  0
 16 17  1  0
 17 18  2  0
 18 19  1  0
 19 20  2  0
 21 22  1  0
 22 23  1  0
 23 24  1  0
M  END
