
     RDKit          3D

 23 24  0  0  0  0  0  0  0  0999 V2000
   -6.1610    1.6770    1.3360 C   0  0  0  0  0  0  0  0  0  0  0  0
   -5.8350    1.1280    0.0860 O   0  0  0  0  0  0  0  0  0  0  0  0
   -4.6080    0.4550   -0.1010 C   0  0  0  0  0  0  0  0  0  0  0  0
   -3.5710    0.8740    0.5600 C   0  0  0  0  0  0  0  0  0  0  0  0
   -2.2650    0.2490    0.4420 C   0  0  0  0  0  0  0  0  0  0  0  0
   -1.0700    0.9680    0.2480 C   0  0  0  0  0  0  0  0  0  0  0  0
   -0.0420    0.0760    0.2150 C   0  0  0  0  0  0  0  0  0  0  0  0
    1.3810    0.4410    0.0270 C   0  0  0  0  0  0  0  0  0  0  0  0
    1.7220    1.6290   -0.1100 O   0  0  0  0  0  0  0  0  0  0  0  0
    2.3550   -0.5750    0.0040 N   0  0  0  0  0  0  0  0  0  0  0  0
    3.7440   -0.4440   -0.1560 C   0  0  0  0  0  0  0  0  0  0  0  0
    4.3720    0.7630   -0.0720 C   0  0  0  0  0  0  0  0  0  0  0  0
    5.7450    0.9060   -0.2480 C   0  0  0  0  0  0  0  0  0  0  0  0
    6.5840    2.6050   -0.1240 Br  0  0  0  0  0  0  0  0  0  0  0  0
    6.4850   -0.2080   -0.5140 C   0  0  0  0  0  0  0  0  0  0  0  0
    7.8530   -0.1100   -0.6960 O   0  0  0  0  0  0  0  0  0  0  0  0
    5.8940   -1.4540   -0.6090 C   0  0  0  0  0  0  0  0  0  0  0  0
    6.9780   -2.9640   -0.9810 Br  0  0  0  0  0  0  0  0  0  0  0  0
    4.5520   -1.5480   -0.4310 C   0  0  0  0  0  0  0  0  0  0  0  0
   -0.5720   -1.1350    0.3800 N   0  0  0  0  0  0  0  0  0  0  0  0
   -1.9010   -1.0300    0.5160 N   0  0  0  0  0  0  0  0  0  0  0  0
   -4.6400   -0.6680   -1.0510 C   0  0  0  0  0  0  0  0  0  0  0  0
   -5.5340   -1.6820   -0.6560 O   0  0  0  0  0  0  0  0  0  0  0  0
  1  2  1  0
  2  3  1  0
  3  4  2  3
  3 22  1  0
  4  5  1  0
  5  6  2  0
  5 21  1  0
  6  7  1  0
  7  8  1  0
  7 20  2  0
  8  9  2  0
  8 10  1  0
 10 11  1  0
 11 12  2  0
 11 19  1  0
 12 13  1  0
 13 14  1  0
 13 15  2  0
 15 16  1  0
 15 17  1  0
 17 18  1  0
 17 19  2  0
 20 21  1  0
 22 23  1  0
M  END
