
     RDKit          3D

 23 24  0  0  0  0  0  0  0  0999 V2000
   -1.8240   -1.7870    3.0350 N   0  0  0  0  0  0  0  0  0  0  0  0
   -1.7520   -1.2320    1.7450 C   0  0  0  0  0  0  0  0  0  0  0  0
   -1.6140   -2.0750    0.7930 O   0  0  0  0  0  0  0  0  0  0  0  0
   -1.8270    0.2230    1.4650 C   0  0  0  0  0  0  0  0  0  0  0  0
   -1.7070    0.4550   -0.0220 C   0  0  0  0  0  0  0  0  0  0  0  0
   -0.4390    0.3400   -0.6190 C   0  0  0  0  0  0  0  0  0  0  0  0
    0.6480   -0.0000    0.2050 N   0  0  0  0  0  0  0  0  0  0  0  0
    1.9980   -0.1190   -0.1770 C   0  0  0  0  0  0  0  0  0  0  0  0
    2.3640    0.0840   -1.3300 O   0  0  0  0  0  0  0  0  0  0  0  0
    3.0250   -0.4850    0.7720 N   0  0  0  0  0  0  0  0  0  0  0  0
    4.3690   -0.5960    0.3740 C   0  0  0  0  0  0  0  0  0  0  0  0
    4.9900   -1.7510    0.5030 C   0  0  0  0  0  0  0  0  0  0  0  0
    4.0550   -3.2400    1.2230 Br  0  0  0  0  0  0  0  0  0  0  0  0
    5.0940    0.5940   -0.1930 C   0  0  0  0  0  0  0  0  0  0  0  0
    5.1310    2.0400    1.0950 Br  0  0  0  0  0  0  0  0  0  0  0  0
   -0.3390    0.5560   -1.9660 C   0  0  0  0  0  0  0  0  0  0  0  0
   -1.4970    0.8790   -2.6860 C   0  0  0  0  0  0  0  0  0  0  0  0
   -2.7320    0.9870   -2.0830 C   0  0  0  0  0  0  0  0  0  0  0  0
   -2.8360    0.7720   -0.7320 C   0  0  0  0  0  0  0  0  0  0  0  0
   -4.2570    0.9460   -0.3080 C   0  0  0  0  0  0  0  0  0  0  0  0
   -4.9230    1.2620   -1.5130 O   0  0  0  0  0  0  0  0  0  0  0  0
   -4.0690    1.3000   -2.5790 C   0  0  0  0  0  0  0  0  0  0  0  0
   -4.3520    1.5570   -3.7890 O   0  0  0  0  0  0  0  0  0  0  0  0
  1  2  1  0
  2  3  2  0
  2  4  1  0
  4  5  1  0
  5  6  2  0
  5 19  1  0
  6  7  1  0
  6 16  1  0
  7  8  1  0
  8  9  2  0
  8 10  1  0
 10 11  1  0
 11 12  2  3
 11 14  1  0
 12 13  1  0
 14 15  1  0
 16 17  2  0
 17 18  1  0
 18 19  2  0
 18 22  1  0
 19 20  1  0
 20 21  1  0
 21 22  1  0
 22 23  2  0
M  END
