
     RDKit          3D

 25 27  0  0  0  0  0  0  0  0999 V2000
    5.1310    1.6090   -2.8330 C   0  0  0  0  0  0  0  0  0  0  0  0
    4.8300    1.3760   -1.4090 C   0  0  0  0  0  0  0  0  0  0  0  0
    4.5460    0.1930   -0.8920 C   0  0  0  0  0  0  0  0  0  0  0  0
    4.2510    0.0330    0.5630 C   0  0  0  0  0  0  0  0  0  0  0  0
    2.9070   -0.5120    0.7630 N   0  0  0  0  0  0  0  0  0  0  0  0
    1.8330    0.2880    0.8900 C   0  0  0  0  0  0  0  0  0  0  0  0
    0.5590   -0.2050    1.0790 C   0  0  0  0  0  0  0  0  0  0  0  0
   -0.5620    0.7130    1.1950 C   0  0  0  0  0  0  0  0  0  0  0  0
   -0.4840    1.7720    2.0580 C   0  0  0  0  0  0  0  0  0  0  0  0
   -1.5570    2.6390    2.1480 C   0  0  0  0  0  0  0  0  0  0  0  0
   -2.6680    2.4310    1.3850 C   0  0  0  0  0  0  0  0  0  0  0  0
   -2.7620    1.3480    0.4940 C   0  0  0  0  0  0  0  0  0  0  0  0
   -3.9640    1.1970   -0.2910 C   0  0  0  0  0  0  0  0  0  0  0  0
   -4.8680    2.1550   -0.1320 O   0  0  0  0  0  0  0  0  0  0  0  0
   -4.3370    0.2190   -1.1840 N   0  0  0  0  0  0  0  0  0  0  0  0
   -5.6720    0.3430   -1.8700 C   0  0  0  0  0  0  0  0  0  0  0  0
   -3.6170   -0.9580   -1.5660 C   0  0  0  0  0  0  0  0  0  0  0  0
   -1.6870    0.5140    0.4300 C   0  0  0  0  0  0  0  0  0  0  0  0
    0.3240   -1.5580    1.1480 C   0  0  0  0  0  0  0  0  0  0  0  0
   -0.8250   -2.3270    1.3310 C   0  0  0  0  0  0  0  0  0  0  0  0
   -0.3750   -3.6370    1.3060 C   0  0  0  0  0  0  0  0  0  0  0  0
    0.9560   -3.6400    1.1200 N   0  0  0  0  0  0  0  0  0  0  0  0
    1.4270   -2.3850    1.0180 C   0  0  0  0  0  0  0  0  0  0  0  0
    2.6890   -1.8370    0.8290 C   0  0  0  0  0  0  0  0  0  0  0  0
    3.6870   -2.6090    0.7110 O   0  0  0  0  0  0  0  0  0  0  0  0
  1  2  1  0
  2  3  2  3
  3  4  1  0
  4  5  1  0
  5  6  1  0
  5 24  1  0
  6  7  2  0
  7  8  1  0
  7 19  1  0
  8  9  2  0
  8 18  1  0
  9 10  1  0
 10 11  2  0
 11 12  1  0
 12 13  1  0
 12 18  2  0
 13 14  2  0
 13 15  1  0
 15 16  1  0
 15 17  1  0
 19 20  1  0
 19 23  2  0
 20 21  2  0
 21 22  1  0
 22 23  1  0
 23 24  1  0
 24 25  2  0
M  END
