
     RDKit          3D

 24 26  0  0  0  0  0  0  0  0999 V2000
    6.1220    0.2580    2.8020 C   0  0  0  0  0  0  0  0  0  0  0  0
    5.1160    0.3860    1.7220 C   0  0  0  0  0  0  0  0  0  0  0  0
    4.7470    1.6560    1.3310 C   0  0  0  0  0  0  0  0  0  0  0  0
    3.8100    1.7660    0.3260 C   0  0  0  0  0  0  0  0  0  0  0  0
    3.2500    0.6470   -0.2800 C   0  0  0  0  0  0  0  0  0  0  0  0
    2.3690    0.4560   -1.2270 O   0  0  0  0  0  0  0  0  0  0  0  0
    2.1530   -0.8100   -1.4630 C   0  0  0  0  0  0  0  0  0  0  0  0
    1.2280   -1.4540   -2.4590 C   0  0  0  0  0  0  0  0  0  0  0  0
    0.4950   -0.3880   -3.2010 C   0  0  0  0  0  0  0  0  0  0  0  0
   -0.3640    0.5050   -2.3580 C   0  0  0  0  0  0  0  0  0  0  0  0
   -1.4260   -0.2760   -1.6910 C   0  0  0  0  0  0  0  0  0  0  0  0
   -1.6560   -1.4940   -1.8460 O   0  0  0  0  0  0  0  0  0  0  0  0
   -2.2650    0.4480   -0.7820 N   0  0  0  0  0  0  0  0  0  0  0  0
   -3.3140   -0.2670   -0.1070 C   0  0  0  0  0  0  0  0  0  0  0  0
   -3.5220   -1.8590   -0.3870 S   0  0  0  0  0  0  0  0  0  0  0  0
   -4.0990    0.4500    0.7930 N   0  0  0  0  0  0  0  0  0  0  0  0
   -5.2030   -0.1620    1.5270 C   0  0  0  0  0  0  0  0  0  0  0  0
   -5.5770    0.2450    2.7580 C   0  0  0  0  0  0  0  0  0  0  0  0
   -6.6120   -0.3100    3.3950 C   0  0  0  0  0  0  0  0  0  0  0  0
   -7.1840   -1.5540    2.2020 S   0  0  0  0  0  0  0  0  0  0  0  0
   -5.9090   -1.1630    0.9340 C   0  0  0  0  0  0  0  0  0  0  0  0
    2.9650   -1.4770   -0.5940 N   0  0  0  0  0  0  0  0  0  0  0  0
    3.6550   -0.5970    0.1500 C   0  0  0  0  0  0  0  0  0  0  0  0
    4.5740   -0.6970    1.1360 N   0  0  0  0  0  0  0  0  0  0  0  0
  1  2  1  0
  2  3  2  0
  2 24  1  0
  3  4  1  0
  4  5  2  0
  5  6  1  0
  5 23  1  0
  6  7  1  0
  7  8  1  0
  7 22  2  0
  8  9  1  0
  9 10  1  0
 10 11  1  0
 11 12  2  0
 11 13  1  0
 13 14  1  0
 14 15  2  0
 14 16  1  0
 16 17  1  0
 17 18  1  0
 17 21  2  0
 18 19  2  0
 19 20  1  0
 20 21  1  0
 22 23  1  0
 23 24  2  0
M  END
