
     RDKit          3D

 24 26  0  0  0  0  0  0  0  0999 V2000
    6.0330   -0.2800   -0.9090 C   0  0  0  0  0  0  0  0  0  0  0  0
    5.2880   -1.4090   -0.2540 C   0  0  0  0  0  0  0  0  0  0  0  0
    3.8760   -1.2660   -0.3810 N   0  0  0  0  0  0  0  0  0  0  0  0
    3.1860   -0.1650    0.2200 C   0  0  0  0  0  0  0  0  0  0  0  0
    3.8920    0.7600    0.9550 C   0  0  0  0  0  0  0  0  0  0  0  0
    3.2050    1.8160    1.5200 C   0  0  0  0  0  0  0  0  0  0  0  0
    1.8510    1.9010    1.3260 C   0  0  0  0  0  0  0  0  0  0  0  0
    1.1690    0.9630    0.5880 C   0  0  0  0  0  0  0  0  0  0  0  0
   -0.3040    1.1020    0.3960 C   0  0  0  0  0  0  0  0  0  0  0  0
   -1.2750    2.4120    1.0200 S   0  0  0  0  0  0  0  0  0  0  0  0
   -2.8450    1.8130    0.3390 C   0  0  0  0  0  0  0  0  0  0  0  0
   -4.0830    2.3270    0.4160 N   0  0  0  0  0  0  0  0  0  0  0  0
   -5.1340    1.7020   -0.1800 C   0  0  0  0  0  0  0  0  0  0  0  0
   -6.5150    2.2190   -0.1300 C   0  0  0  0  0  0  0  0  0  0  0  0
   -4.8080    0.5390   -0.8380 C   0  0  0  0  0  0  0  0  0  0  0  0
   -3.5520    0.0100   -0.9200 C   0  0  0  0  0  0  0  0  0  0  0  0
   -2.4720    0.6730   -0.2960 C   0  0  0  0  0  0  0  0  0  0  0  0
   -1.1650    0.3230   -0.2560 C   0  0  0  0  0  0  0  0  0  0  0  0
   -0.6610   -0.8990   -0.8910 N   0  0  0  0  0  0  0  0  0  0  0  0
   -0.6450   -2.3820   -0.0490 S   0  0  1  0  0  0  0  0  0  0  0  0
   -2.2960   -2.8930    0.4110 C   0  0  0  0  0  0  0  0  0  0  0  0
   -0.0900   -3.4750   -0.9140 O   0  0  0  0  0  0  0  0  0  0  0  0
    0.1510   -2.3690    1.2120 O   0  0  0  0  0  0  0  0  0  0  0  0
    1.8500   -0.0310    0.0630 N   0  0  0  0  0  0  0  0  0  0  0  0
  1  2  1  0
  2  3  1  0
  3  4  1  0
  4  5  2  0
  4 24  1  0
  5  6  1  0
  6  7  2  0
  7  8  1  0
  8  9  1  0
  8 24  2  0
  9 10  1  0
  9 18  2  0
 10 11  1  0
 11 12  2  0
 11 17  1  0
 12 13  1  0
 13 14  1  0
 13 15  2  0
 15 16  1  0
 16 17  2  0
 17 18  1  0
 18 19  1  0
 19 20  1  0
 20 21  1  1
 20 22  2  0
 20 23  2  0
M  END
