
     RDKit          3D

 24 26  0  0  0  0  0  0  0  0999 V2000
    1.5220   -4.0120    1.3890 C   0  0  0  0  0  0  0  0  0  0  0  0
    1.5950   -3.5140   -0.3570 S   0  0  0  0  0  0  0  0  0  0  0  0
    2.4040   -1.9140   -0.4230 C   0  0  0  0  0  0  0  0  0  0  0  0
    3.7740   -1.8670   -0.5580 C   0  0  0  0  0  0  0  0  0  0  0  0
    4.4310   -0.6360   -0.6120 C   0  0  0  0  0  0  0  0  0  0  0  0
    3.7130    0.5280   -0.5300 C   0  0  0  0  0  0  0  0  0  0  0  0
    4.2580    1.7800   -0.5720 O   0  0  0  0  0  0  0  0  0  0  0  0
    5.7300    1.8900   -0.7170 C   0  0  0  0  0  0  0  0  0  0  0  0
    6.7010    1.3500   -0.8190 N   0  0  0  0  0  0  0  0  0  0  0  0
    7.9270    1.8070   -0.9360 C   0  0  0  0  0  0  0  0  0  0  0  0
    8.0750    3.1150   -0.9390 N   0  0  0  0  0  0  0  0  0  0  0  0
    6.3070    3.6850   -0.7580 S   0  0  0  0  0  0  0  0  0  0  0  0
    2.3000    0.4400   -0.3900 C   0  0  0  0  0  0  0  0  0  0  0  0
    1.6440   -0.7500   -0.3360 C   0  0  0  0  0  0  0  0  0  0  0  0
    0.2570   -0.8990   -0.2000 N   0  0  0  0  0  0  0  0  0  0  0  0
   -0.7200    0.1190   -0.0940 C   0  0  0  0  0  0  0  0  0  0  0  0
   -0.3730    1.3130   -0.1170 O   0  0  0  0  0  0  0  0  0  0  0  0
   -2.1160   -0.1720    0.0420 N   0  0  0  0  0  0  0  0  0  0  0  0
   -3.0960    0.9090    0.1490 C   0  0  2  0  0  0  0  0  0  0  0  0
   -3.8440    0.7380    1.4540 C   0  0  0  0  0  0  0  0  0  0  0  0
   -5.2010    1.4350    1.3610 C   0  0  0  0  0  0  0  0  0  0  0  0
   -6.0500    0.8240    0.2850 C   0  0  0  0  0  0  0  0  0  0  0  0
   -5.1930   -0.0650   -0.6240 C   0  0  0  0  0  0  0  0  0  0  0  0
   -4.0090    0.7980   -1.0530 C   0  0  0  0  0  0  0  0  0  0  0  0
  1  2  1  0
  2  3  1  0
  3  4  2  0
  3 14  1  0
  4  5  1  0
  5  6  2  0
  6  7  1  0
  6 13  1  0
  7  8  1  0
  8  9  2  0
  8 12  1  0
  9 10  1  0
 10 11  2  0
 11 12  1  0
 13 14  2  0
 14 15  1  0
 15 16  1  0
 16 17  2  0
 16 18  1  0
 19 18  1  6
 19 20  1  0
 19 24  1  0
 20 21  1  0
 21 22  1  0
 22 23  1  0
 23 24  1  0
M  END
