
     RDKit          3D

 24 26  0  0  0  0  0  0  0  0999 V2000
   -5.6640    0.6220    2.3640 C   0  0  0  0  0  0  0  0  0  0  0  0
   -4.5190    1.2060    1.5970 C   0  0  0  0  0  0  0  0  0  0  0  0
   -3.8440    0.1510    0.7590 C   0  0  0  0  0  0  0  0  0  0  0  0
   -2.7070    0.7660    0.0060 C   0  0  0  0  0  0  0  0  0  0  0  0
   -2.4830    1.9780    0.1620 O   0  0  0  0  0  0  0  0  0  0  0  0
   -1.9430   -0.0250   -0.8370 N   0  0  0  0  0  0  0  0  0  0  0  0
   -2.2560   -1.4710   -0.9830 C   0  0  0  0  0  0  0  0  0  0  0  0
   -1.8020   -1.8610   -2.3710 C   0  0  0  0  0  0  0  0  0  0  0  0
   -0.2800   -1.8270   -2.4710 C   0  0  0  0  0  0  0  0  0  0  0  0
    0.2180   -0.6990   -1.5630 C   0  0  0  0  0  0  0  0  0  0  0  0
   -0.8280    0.3970   -1.6280 C   0  0  2  0  0  0  0  0  0  0  0  0
   -0.2710    1.6890   -1.1870 C   0  0  0  0  0  0  0  0  0  0  0  0
    0.3320    1.7680    0.4950 S   0  0  0  0  0  0  0  0  0  0  0  0
    1.8260    0.8430    0.7310 C   0  0  0  0  0  0  0  0  0  0  0  0
    2.0640   -0.3830    1.1670 N   0  0  0  0  0  0  0  0  0  0  0  0
    3.3710   -0.6760    1.2170 C   0  0  0  0  0  0  0  0  0  0  0  0
    4.1190   -1.7720    1.5830 C   0  0  0  0  0  0  0  0  0  0  0  0
    5.4580   -1.7490    1.5150 N   0  0  0  0  0  0  0  0  0  0  0  0
    6.1210   -0.6360    1.0810 C   0  0  0  0  0  0  0  0  0  0  0  0
    7.5010   -0.6100    1.0100 O   0  0  0  0  0  0  0  0  0  0  0  0
    5.4050    0.4590    0.7130 C   0  0  0  0  0  0  0  0  0  0  0  0
    6.2430    1.9430    0.1360 S   0  0  0  0  0  0  0  0  0  0  0  0
    4.0230    0.4690    0.7710 C   0  0  0  0  0  0  0  0  0  0  0  0
    3.0700    1.3700    0.4840 N   0  0  0  0  0  0  0  0  0  0  0  0
  1  2  1  0
  2  3  1  0
  3  4  1  0
  4  5  2  0
  4  6  1  0
  6  7  1  0
  6 11  1  0
  7  8  1  0
  8  9  1  0
  9 10  1  0
 10 11  1  0
 11 12  1  1
 12 13  1  0
 13 14  1  0
 14 15  2  0
 14 24  1  0
 15 16  1  0
 16 17  2  0
 16 23  1  0
 17 18  1  0
 18 19  2  0
 19 20  1  0
 19 21  1  0
 21 22  1  0
 21 23  2  0
 23 24  1  0
M  END
