
     RDKit          3D

 23 24  0  0  0  0  0  0  0  0999 V2000
   -7.2560    1.3260    2.0680 O   0  0  0  0  0  0  0  0  0  0  0  0
   -6.3530    0.6730    1.4800 C   0  0  0  0  0  0  0  0  0  0  0  0
   -6.6850   -0.6290    0.8770 C   0  0  0  0  0  0  0  0  0  0  0  0
   -5.6640   -1.1640    0.0960 O   0  0  0  0  0  0  0  0  0  0  0  0
   -4.3730   -0.6910    0.0030 C   0  0  0  0  0  0  0  0  0  0  0  0
   -3.3780   -1.3220   -0.7050 C   0  0  0  0  0  0  0  0  0  0  0  0
   -2.0780   -0.8370   -0.7940 C   0  0  0  0  0  0  0  0  0  0  0  0
   -1.7260    0.3160   -0.1650 C   0  0  0  0  0  0  0  0  0  0  0  0
   -0.4530    0.9280   -0.1810 N   0  0  0  0  0  0  0  0  0  0  0  0
    0.6400    0.6020   -1.0030 C   0  0  0  0  0  0  0  0  0  0  0  0
    0.5120   -0.3280   -1.8320 O   0  0  0  0  0  0  0  0  0  0  0  0
    1.8610    1.3050   -0.9000 O   0  0  0  0  0  0  0  0  0  0  0  0
    2.9180    0.9310   -1.7390 C   0  0  0  0  0  0  0  0  0  0  0  0
    3.3290   -0.4780   -1.4480 C   0  0  0  0  0  0  0  0  0  0  0  0
    3.7430   -0.5930   -0.0850 N   0  0  0  0  0  0  0  0  0  0  0  0
    4.9800    0.1250    0.1140 C   0  0  0  0  0  0  0  0  0  0  0  0
    5.3540   -0.1000    1.5560 C   0  0  0  0  0  0  0  0  0  0  0  0
    6.4940   -0.6880    1.8500 C   0  0  0  0  0  0  0  0  0  0  0  0
    7.6630   -1.2490    0.4680 Br  0  0  0  0  0  0  0  0  0  0  0  0
    6.9670   -0.9720    3.6640 Br  0  0  0  0  0  0  0  0  0  0  0  0
   -2.7320    0.9770    0.5660 C   0  0  0  0  0  0  0  0  0  0  0  0
   -4.0050    0.4770    0.6370 C   0  0  0  0  0  0  0  0  0  0  0  0
   -5.0260    1.1530    1.3810 N   0  0  0  0  0  0  0  0  0  0  0  0
  1  2  2  0
  2  3  1  0
  2 23  1  0
  3  4  1  0
  4  5  1  0
  5  6  2  0
  5 22  1  0
  6  7  1  0
  7  8  2  0
  8  9  1  0
  8 21  1  0
  9 10  1  0
 10 11  2  0
 10 12  1  0
 12 13  1  0
 13 14  1  0
 14 15  1  0
 15 16  1  0
 16 17  1  0
 17 18  2  3
 18 19  1  0
 18 20  1  0
 21 22  2  0
 22 23  1  0
M  END
