
     RDKit          3D

 23 24  0  0  0  0  0  0  0  0999 V2000
   -5.3220    1.4750   -1.8720 C   0  0  0  0  0  0  0  0  0  0  0  0
   -5.6070    0.8800   -0.6250 O   0  0  0  0  0  0  0  0  0  0  0  0
   -4.5680    0.2340    0.0880 C   0  0  0  0  0  0  0  0  0  0  0  0
   -3.4730    0.8990    0.2720 C   0  0  0  0  0  0  0  0  0  0  0  0
   -2.2740    0.4530    0.9770 C   0  0  0  0  0  0  0  0  0  0  0  0
   -0.9810    0.4300    0.4360 C   0  0  0  0  0  0  0  0  0  0  0  0
   -0.1270    0.0080    1.4100 C   0  0  0  0  0  0  0  0  0  0  0  0
    1.3510   -0.1870    1.3320 C   0  0  0  0  0  0  0  0  0  0  0  0
    1.9820   -0.5650    2.3410 O   0  0  0  0  0  0  0  0  0  0  0  0
    2.0420    0.0500    0.1330 N   0  0  0  0  0  0  0  0  0  0  0  0
    3.4200   -0.0880   -0.0760 C   0  0  0  0  0  0  0  0  0  0  0  0
    3.8970   -0.0200   -1.3950 C   0  0  0  0  0  0  0  0  0  0  0  0
    5.2260   -0.1280   -1.7190 C   0  0  0  0  0  0  0  0  0  0  0  0
    5.7940   -0.0230   -3.5560 Br  0  0  0  0  0  0  0  0  0  0  0  0
    6.1480   -0.3130   -0.7130 C   0  0  0  0  0  0  0  0  0  0  0  0
    7.4990   -0.4180   -1.1000 O   0  0  0  0  0  0  0  0  0  0  0  0
    5.7470   -0.3860    0.5740 C   0  0  0  0  0  0  0  0  0  0  0  0
    7.0300   -0.6420    1.9670 Br  0  0  0  0  0  0  0  0  0  0  0  0
    4.3890   -0.2720    0.8730 C   0  0  0  0  0  0  0  0  0  0  0  0
   -0.8740   -0.2140    2.4930 N   0  0  0  0  0  0  0  0  0  0  0  0
   -2.1490    0.0470    2.2490 N   0  0  0  0  0  0  0  0  0  0  0  0
   -4.8430   -1.1420    0.5420 C   0  0  0  0  0  0  0  0  0  0  0  0
   -3.8320   -1.7610    1.2120 O   0  0  0  0  0  0  0  0  0  0  0  0
  1  2  1  0
  2  3  1  0
  3  4  2  3
  3 22  1  0
  4  5  1  0
  5  6  2  0
  5 21  1  0
  6  7  1  0
  7  8  1  0
  7 20  2  0
  8  9  2  0
  8 10  1  0
 10 11  1  0
 11 12  2  0
 11 19  1  0
 12 13  1  0
 13 14  1  0
 13 15  2  0
 15 16  1  0
 15 17  1  0
 17 18  1  0
 17 19  2  0
 20 21  1  0
 22 23  1  0
M  END
