
     RDKit          3D

 23 24  0  0  0  0  0  0  0  0999 V2000
    5.8070    1.1240   -1.2030 C   0  0  0  0  0  0  0  0  0  0  0  0
    5.4900    0.4850    0.1380 C   0  0  0  0  0  0  0  0  0  0  0  0
    4.0900    0.7210    0.5450 C   0  0  0  0  0  0  0  0  0  0  0  0
    3.6460    1.5810    1.4680 N   0  0  0  0  0  0  0  0  0  0  0  0
    2.3400    1.5280    1.5730 N   0  0  0  0  0  0  0  0  0  0  0  0
    1.8950    0.5960    0.6850 C   0  0  0  0  0  0  0  0  0  0  0  0
    0.5060    0.2220    0.5060 C   0  0  0  0  0  0  0  0  0  0  0  0
   -0.2500    0.0050    1.6460 O   0  0  0  0  0  0  0  0  0  0  0  0
   -0.2320   -1.1610    2.4230 C   0  0  0  0  0  0  0  0  0  0  0  0
   -0.0050    0.0960   -0.6740 C   0  0  0  0  0  0  0  0  0  0  0  0
    0.7390    0.3080   -1.8090 O   0  0  0  0  0  0  0  0  0  0  0  0
   -1.4120   -0.2800   -0.8430 C   0  0  0  0  0  0  0  0  0  0  0  0
   -1.8590   -1.2030   -1.6890 O   0  0  0  0  0  0  0  0  0  0  0  0
   -3.1470   -1.3440   -1.6460 C   0  0  0  0  0  0  0  0  0  0  0  0
   -3.9570   -2.2430   -2.4160 N   0  0  0  0  0  0  0  0  0  0  0  0
   -3.6250   -0.4510   -0.6990 C   0  0  0  0  0  0  0  0  0  0  0  0
   -5.0010   -0.2590   -0.3100 C   0  0  0  0  0  0  0  0  0  0  0  0
   -5.4840    0.6900    0.6840 C   0  0  0  0  0  0  0  0  0  0  0  0
   -5.8850   -0.9850   -0.8860 O   0  0  0  0  0  0  0  0  0  0  0  0
   -2.5270    0.2020   -0.2110 C   0  0  0  0  0  0  0  0  0  0  0  0
   -2.5480    1.5880    1.1230 Br  0  0  0  0  0  0  0  0  0  0  0  0
    2.9720    0.0830    0.0370 C   0  0  0  0  0  0  0  0  0  0  0  0
    3.0640   -1.2600   -1.2960 Br  0  0  0  0  0  0  0  0  0  0  0  0
  1  2  1  0
  2  3  1  0
  3  4  2  0
  3 22  1  0
  4  5  1  0
  5  6  1  0
  6  7  1  0
  6 22  2  0
  7  8  1  0
  7 10  2  3
  8  9  1  0
 10 11  1  0
 10 12  1  0
 12 13  1  0
 12 20  2  0
 13 14  1  0
 14 15  1  0
 14 16  2  0
 16 17  1  0
 16 20  1  0
 17 18  1  0
 17 19  2  0
 20 21  1  0
 22 23  1  0
M  END
