
     RDKit          3D

 23 24  0  0  0  0  0  0  0  0999 V2000
    8.6620    0.5430   -0.1960 N   0  0  0  0  0  0  0  0  0  0  0  0
    7.2910    0.7610    0.1610 C   0  0  0  0  0  0  0  0  0  0  0  0
    6.9740    1.6200    1.0210 O   0  0  0  0  0  0  0  0  0  0  0  0
    6.2760    0.0090   -0.4550 N   0  0  0  0  0  0  0  0  0  0  0  0
    4.8830    0.1570   -0.1640 C   0  0  0  0  0  0  0  0  0  0  0  0
    4.0000   -0.5800   -0.7780 C   0  0  0  0  0  0  0  0  0  0  0  0
    4.5500   -1.8560   -2.0640 Br  0  0  0  0  0  0  0  0  0  0  0  0
    2.5670   -0.4210   -0.4720 C   0  0  0  0  0  0  0  0  0  0  0  0
    2.1500    0.8900    0.8340 Br  0  0  0  0  0  0  0  0  0  0  0  0
    1.7400   -1.1870   -1.1210 C   0  0  0  0  0  0  0  0  0  0  0  0
    0.2980   -1.2810   -1.0560 C   0  0  0  0  0  0  0  0  0  0  0  0
   -0.2850   -2.1480   -1.8280 O   0  0  0  0  0  0  0  0  0  0  0  0
   -0.5560   -0.5420   -0.2550 N   0  0  0  0  0  0  0  0  0  0  0  0
   -1.9630   -0.5930   -0.1460 C   0  0  0  0  0  0  0  0  0  0  0  0
   -2.7240   -1.5750   -0.7030 C   0  0  0  0  0  0  0  0  0  0  0  0
   -4.1270   -1.5680   -0.5770 C   0  0  0  0  0  0  0  0  0  0  0  0
   -4.7670   -0.5660    0.1160 C   0  0  0  0  0  0  0  0  0  0  0  0
   -4.0130    0.4380    0.6890 C   0  0  0  0  0  0  0  0  0  0  0  0
   -2.6660    0.3990    0.5460 C   0  0  0  0  0  0  0  0  0  0  0  0
   -4.6810    1.4390    1.3830 O   0  0  0  0  0  0  0  0  0  0  0  0
   -5.9960    1.2220    1.8870 C   0  0  0  0  0  0  0  0  0  0  0  0
   -6.8080    0.6190    0.7590 C   0  0  0  0  0  0  0  0  0  0  0  0
   -6.1390   -0.5190    0.2660 O   0  0  0  0  0  0  0  0  0  0  0  0
  1  2  1  0
  2  3  2  0
  2  4  1  0
  4  5  1  0
  5  6  2  3
  6  7  1  0
  6  8  1  0
  8  9  1  0
  8 10  2  3
 10 11  1  0
 11 12  2  0
 11 13  1  0
 13 14  1  0
 14 15  2  0
 14 19  1  0
 15 16  1  0
 16 17  2  0
 17 18  1  0
 17 23  1  0
 18 19  2  0
 18 20  1  0
 20 21  1  0
 21 22  1  0
 22 23  1  0
M  END
