
     RDKit          3D

 29 30  0  0  0  0  0  0  0  0999 V2000
   -3.8250   -2.4240    0.8090 C   0  0  0  0  0  0  0  0  0  0  0  0
   -4.8920   -1.9330    1.3350 C   0  0  0  0  0  0  0  0  0  0  0  0
   -5.0620   -2.0610    2.7040 F   0  0  0  0  0  0  0  0  0  0  0  0
   -5.8340   -1.1510    0.5450 C   0  0  0  0  0  0  0  0  0  0  0  0
   -6.9150   -0.7640    1.1670 C   0  0  0  0  0  0  0  0  0  0  0  0
   -8.0610    0.0120    0.6860 C   0  0  0  0  0  0  0  0  0  0  0  0
   -7.9980    0.3330   -0.6210 F   0  0  0  0  0  0  0  0  0  0  0  0
   -5.5690   -0.8610   -0.7510 O   0  0  0  0  0  0  0  0  0  0  0  0
   -5.0690    0.2600   -1.3500 C   0  0  0  0  0  0  0  0  0  0  0  0
   -3.7170    0.5930   -0.8400 C   0  0  0  0  0  0  0  0  0  0  0  0
   -3.5710    1.6410    0.0450 C   0  0  0  0  0  0  0  0  0  0  0  0
   -2.3060    1.9930    0.5000 C   0  0  0  0  0  0  0  0  0  0  0  0
   -1.1840    1.3380    0.1010 C   0  0  0  0  0  0  0  0  0  0  0  0
    0.0440    1.6980    0.5450 O   0  0  0  0  0  0  0  0  0  0  0  0
    0.4410    2.6830    1.4380 C   0  0  0  0  0  0  0  0  0  0  0  0
   -1.3220    0.2530   -0.8080 C   0  0  0  0  0  0  0  0  0  0  0  0
   -0.1180   -0.3600   -1.3380 C   0  0  0  0  0  0  0  0  0  0  0  0
    0.7700   -0.9930   -0.3730 N   0  0  0  0  0  0  0  0  0  0  0  0
    2.0690   -0.3710   -0.7010 C   0  0  0  0  0  0  0  0  0  0  0  0
    3.0370   -0.3010    0.4090 C   0  0  1  0  0  0  0  0  0  0  0  0
    3.4280   -1.6630    0.8760 C   0  0  0  0  0  0  0  0  0  0  0  0
    4.5310   -2.0290   -0.1430 C   0  0  0  0  0  0  0  0  0  0  0  0
    5.2920   -0.7520   -0.2380 C   0  0  0  0  0  0  0  0  0  0  0  0
    6.5940   -0.6860   -0.4060 C   0  0  0  0  0  0  0  0  0  0  0  0
    7.3580    0.5680   -0.5120 C   0  0  0  0  0  0  0  0  0  0  0  0
    6.5600    1.7560   -0.4350 N   0  0  0  0  0  0  0  0  0  0  0  0
    4.3310    0.3550   -0.1280 C   0  0  1  0  0  0  0  0  0  0  0  0
    4.1100    0.8680   -1.4230 O   0  0  0  0  0  0  0  0  0  0  0  0
   -2.5730   -0.0590   -1.2230 C   0  0  0  0  0  0  0  0  0  0  0  0
  1  2  2  0
  2  3  1  0
  2  4  1  0
  4  5  2  3
  4  8  1  0
  5  6  1  0
  6  7  1  0
  8  9  1  0
  9 10  1  0
 10 11  2  0
 10 29  1  0
 11 12  1  0
 12 13  2  0
 13 14  1  0
 13 16  1  0
 14 15  1  0
 16 17  1  0
 16 29  2  0
 17 18  1  0
 18 19  1  0
 20 19  1  6
 20 21  1  0
 20 27  1  0
 21 22  1  0
 22 23  1  0
 23 24  2  3
 23 27  1  0
 24 25  1  0
 25 26  1  0
 27 28  1  6
M  CHG  1  18   1
M  END
