
     RDKit          3D

 29 33  0  0  0  0  0  0  0  0999 V2000
   -3.6660   -2.1600   -0.8640 C   0  0  0  0  0  0  0  0  0  0  0  0
   -3.7940   -0.7460   -0.3390 C   0  0  2  0  0  0  0  0  0  0  0  0
   -4.7340    0.0040   -1.2740 C   0  0  0  0  0  0  0  0  0  0  0  0
   -5.1330    1.3280   -0.7590 C   0  0  0  0  0  0  0  0  0  0  0  0
   -6.3840    1.5840   -0.6830 O   0  0  0  0  0  0  0  0  0  0  0  0
   -4.2940    2.4040   -0.3160 N   0  0  0  0  0  0  0  0  0  0  0  0
   -2.9840    2.3180    0.2750 C   0  0  0  0  0  0  0  0  0  0  0  0
   -2.5690    3.5140    0.8180 C   0  0  0  0  0  0  0  0  0  0  0  0
   -1.3130    3.5370    1.4210 C   0  0  0  0  0  0  0  0  0  0  0  0
   -0.5270    2.4190    1.4710 C   0  0  0  0  0  0  0  0  0  0  0  0
   -0.9710    1.2410    0.9200 C   0  0  0  0  0  0  0  0  0  0  0  0
   -0.1560    0.0090    0.9890 C   0  0  0  0  0  0  0  0  0  0  0  0
   -0.6290   -1.1730    1.4680 C   0  0  0  0  0  0  0  0  0  0  0  0
    0.1630   -2.2770    1.5100 C   0  0  0  0  0  0  0  0  0  0  0  0
    1.4620   -2.2010    1.0620 C   0  0  0  0  0  0  0  0  0  0  0  0
    1.9860   -1.0230    0.5660 C   0  0  0  0  0  0  0  0  0  0  0  0
    1.1390    0.0710    0.5460 C   0  0  0  0  0  0  0  0  0  0  0  0
    3.3020   -1.2300    0.1900 C   0  0  0  0  0  0  0  0  0  0  0  0
    4.1650   -0.2010   -0.3760 C   0  0  0  0  0  0  0  0  0  0  0  0
    5.4770    0.0580   -0.0260 C   0  0  0  0  0  0  0  0  0  0  0  0
    5.9230    1.0630   -0.7590 N   0  0  0  0  0  0  0  0  0  0  0  0
    4.9550    1.4540   -1.5590 N   0  0  0  0  0  0  0  0  0  0  0  0
    5.1370    2.5610   -2.5050 C   0  0  0  0  0  0  0  0  0  0  0  0
    3.8580    0.7120   -1.3630 C   0  0  0  0  0  0  0  0  0  0  0  0
    3.5570   -2.5140    0.4580 N   0  0  0  0  0  0  0  0  0  0  0  0
    2.4800   -3.1030    0.9730 N   0  0  0  0  0  0  0  0  0  0  0  0
    2.3330   -4.4820    1.4000 C   0  0  0  0  0  0  0  0  0  0  0  0
   -2.2110    1.1540    0.3040 C   0  0  0  0  0  0  0  0  0  0  0  0
   -2.5170   -0.1250   -0.2370 N   0  0  0  0  0  0  0  0  0  0  0  0
  2  1  1  6
  2  3  1  0
  2 29  1  0
  3  4  1  0
  4  5  2  0
  4  6  1  0
  6  7  1  0
  7  8  2  0
  7 28  1  0
  8  9  1  0
  9 10  2  0
 10 11  1  0
 11 12  1  0
 11 28  2  0
 12 13  2  0
 12 17  1  0
 13 14  1  0
 14 15  2  0
 15 16  1  0
 15 26  1  0
 16 17  2  0
 16 18  1  0
 18 19  1  0
 18 25  2  0
 19 20  1  0
 19 24  2  0
 20 21  2  0
 21 22  1  0
 22 23  1  0
 22 24  1  0
 25 26  1  0
 26 27  1  0
 28 29  1  0
M  END
