
     RDKit          3D

 31 34  0  0  0  0  0  0  0  0999 V2000
   -7.2390   -2.7680   -1.7400 C   0  0  0  0  0  0  0  0  0  0  0  0
   -7.0520   -1.6920   -0.7320 C   0  0  0  0  0  0  0  0  0  0  0  0
   -8.0290   -1.3170    0.1670 C   0  0  0  0  0  0  0  0  0  0  0  0
   -7.8200   -0.3150    1.0870 C   0  0  0  0  0  0  0  0  0  0  0  0
   -8.8770    0.0990    2.0670 C   0  0  0  0  0  0  0  0  0  0  0  0
   -6.6170    0.3570    1.1480 C   0  0  0  0  0  0  0  0  0  0  0  0
   -5.6200    0.0040    0.2620 C   0  0  0  0  0  0  0  0  0  0  0  0
   -5.8540   -1.0130   -0.6610 C   0  0  0  0  0  0  0  0  0  0  0  0
   -4.5000    0.8280    0.5250 N   0  0  0  0  0  0  0  0  0  0  0  0
   -3.4410    1.0540   -0.4170 C   0  0  0  0  0  0  0  0  0  0  0  0
   -3.5030    0.4940   -1.5380 O   0  0  0  0  0  0  0  0  0  0  0  0
   -2.2960    1.9410   -0.0590 C   0  0  0  0  0  0  0  0  0  0  0  0
   -1.2300    1.7620   -1.0990 C   0  0  0  0  0  0  0  0  0  0  0  0
   -0.7360    0.3650   -1.1060 C   0  0  0  0  0  0  0  0  0  0  0  0
   -0.1460   -0.0910    0.1970 C   0  0  0  0  0  0  0  0  0  0  0  0
    1.0280    0.7220    0.6440 C   0  0  0  0  0  0  0  0  0  0  0  0
    2.0640    0.6190   -0.3890 N   0  0  0  0  0  0  0  0  0  0  0  0
    3.3170    1.1150    0.1480 C   0  0  0  0  0  0  0  0  0  0  0  0
    3.9920    0.1000    1.0110 C   0  0  2  0  0  0  0  0  0  0  0  0
    5.3140    0.6370    1.4930 C   0  0  0  0  0  0  0  0  0  0  0  0
    6.2570   -0.0620    0.5800 C   0  0  0  0  0  0  0  0  0  0  0  0
    7.6090    0.0990    0.3290 C   0  0  0  0  0  0  0  0  0  0  0  0
    8.2530   -0.6950   -0.5840 C   0  0  0  0  0  0  0  0  0  0  0  0
    9.7080   -0.4700   -0.8070 C   0  0  0  0  0  0  0  0  0  0  0  0
    7.5990   -1.6810   -1.2860 C   0  0  0  0  0  0  0  0  0  0  0  0
    8.3300   -2.5400   -2.2820 C   0  0  0  0  0  0  0  0  0  0  0  0
    6.2610   -1.8550   -1.0500 C   0  0  0  0  0  0  0  0  0  0  0  0
    5.5960   -1.0460   -0.1190 C   0  0  0  0  0  0  0  0  0  0  0  0
    4.2680   -1.0530    0.2670 O   0  0  0  0  0  0  0  0  0  0  0  0
   -4.6310    1.3670    1.8620 C   0  0  0  0  0  0  0  0  0  0  0  0
   -6.1330    1.4570    2.0230 C   0  0  0  0  0  0  0  0  0  0  0  0
  1  2  1  0
  2  3  2  0
  2  8  1  0
  3  4  1  0
  4  5  1  0
  4  6  2  0
  6  7  1  0
  6 31  1  0
  7  8  2  0
  7  9  1  0
  9 10  1  0
  9 30  1  0
 10 11  2  0
 10 12  1  0
 12 13  1  0
 13 14  1  0
 14 15  1  0
 15 16  1  0
 16 17  1  0
 17 18  1  0
 19 18  1  6
 19 20  1  0
 19 29  1  0
 20 21  1  0
 21 22  2  0
 21 28  1  0
 22 23  1  0
 23 24  1  0
 23 25  2  0
 25 26  1  0
 25 27  1  0
 27 28  2  0
 28 29  1  0
 30 31  1  0
M  CHG  1  17   1
M  END
