
     RDKit          3D

 29 29  0  0  0  0  0  0  0  0999 V2000
   -3.3840   -2.7850    2.5570 C   0  0  0  0  0  0  0  0  0  0  0  0
   -2.7630   -3.1080    1.4550 C   0  0  0  0  0  0  0  0  0  0  0  0
   -2.8730   -4.3680    0.9920 F   0  0  0  0  0  0  0  0  0  0  0  0
   -1.9340   -2.1620    0.6700 C   0  0  0  0  0  0  0  0  0  0  0  0
   -1.3370   -2.5410   -0.4190 C   0  0  0  0  0  0  0  0  0  0  0  0
   -1.4330   -3.9210   -0.9550 C   0  0  0  0  0  0  0  0  0  0  0  0
   -1.8670   -0.8040    1.2470 C   0  0  0  0  0  0  0  0  0  0  0  0
   -1.0560    0.1580    0.5330 N   0  0  2  0  0  0  0  0  0  0  0  0
    0.3020   -0.0650    0.9250 C   0  0  0  0  0  0  0  0  0  0  0  0
    1.3020   -0.0230   -0.1590 C   0  0  0  0  0  0  0  0  0  0  0  0
    1.0100    0.1760   -1.3360 O   0  0  0  0  0  0  0  0  0  0  0  0
    2.6740   -0.2220    0.1640 N   0  0  0  0  0  0  0  0  0  0  0  0
    3.7200   -0.1970   -0.8390 C   0  0  1  0  0  0  0  0  0  0  0  0
    4.6620    0.9220   -0.4760 C   0  0  0  0  0  0  0  0  0  0  0  0
    6.0000    0.8130   -1.1460 C   0  0  0  0  0  0  0  0  0  0  0  0
    6.6250   -0.5420   -1.0410 C   0  0  0  0  0  0  0  0  0  0  0  0
    5.7790   -1.4680   -0.2030 C   0  0  0  0  0  0  0  0  0  0  0  0
    4.3990   -1.5440   -0.8220 C   0  0  0  0  0  0  0  0  0  0  0  0
   -1.5120    1.5180    0.7970 C   0  0  1  0  0  0  0  0  0  0  0  0
   -1.7760    1.7390    2.2490 C   0  0  0  0  0  0  0  0  0  0  0  0
   -0.3620    2.4520    0.4190 C   0  0  0  0  0  0  0  0  0  0  0  0
   -0.7020    3.9120    0.6770 C   0  0  0  0  0  0  0  0  0  0  0  0
   -2.6520    1.9570   -0.0580 C   0  0  2  0  0  0  0  0  0  0  0  0
   -2.9990    3.2610    0.3310 O   0  0  0  0  0  0  0  0  0  0  0  0
   -3.7800    1.0730   -0.2490 C   0  0  0  0  0  0  0  0  0  0  0  0
   -4.9600    1.2860    0.2860 C   0  0  0  0  0  0  0  0  0  0  0  0
   -5.2400    2.3560    1.0700 F   0  0  0  0  0  0  0  0  0  0  0  0
   -3.6490   -0.0640   -1.0260 O   0  0  0  0  0  0  0  0  0  0  0  0
   -4.5380   -0.2520   -2.1140 C   0  0  0  0  0  0  0  0  0  0  0  0
  1  2  2  0
  2  3  1  0
  2  4  1  0
  4  5  2  3
  4  7  1  0
  5  6  1  0
  8  7  1  1
  8  9  1  0
  8 19  1  0
  9 10  1  0
 10 11  2  0
 10 12  1  0
 13 12  1  1
 13 14  1  0
 13 18  1  0
 14 15  1  0
 15 16  1  0
 16 17  1  0
 17 18  1  0
 19 20  1  1
 19 21  1  0
 19 23  1  0
 21 22  1  0
 23 24  1  1
 23 25  1  0
 25 26  2  3
 25 28  1  0
 26 27  1  0
 28 29  1  0
M  CHG  1   8   1
M  END
