
     RDKit          3D

 36 39  0  0  0  0  0  0  0  0999 V2000
   -4.3980   -1.6290   -0.8030 C   0  0  0  0  0  0  0  0  0  0  0  0
   -4.6250   -0.2480   -0.3480 C   0  0  0  0  0  0  0  0  0  0  0  0
   -3.6980    0.7020   -0.0480 C   0  0  0  0  0  0  0  0  0  0  0  0
   -2.2170    0.6840   -0.0950 C   0  0  0  0  0  0  0  0  0  0  0  0
   -1.6110    1.6870    0.3640 O   0  0  0  0  0  0  0  0  0  0  0  0
   -1.4740   -0.3790   -0.6170 N   0  0  0  0  0  0  0  0  0  0  0  0
   -0.1440   -0.4520   -0.6530 O   0  0  0  0  0  0  0  0  0  0  0  0
    0.5230    0.2230    0.3500 C   0  0  0  0  0  0  0  0  0  0  0  0
    1.9860   -0.0850    0.2820 C   0  0  0  0  0  0  0  0  0  0  0  0
    2.9070    0.9110    0.2370 C   0  0  0  0  0  0  0  0  0  0  0  0
    4.2500    0.5680    0.3240 C   0  0  0  0  0  0  0  0  0  0  0  0
    5.3390    1.4660    0.2710 N   0  0  0  0  0  0  0  0  0  0  0  0
    5.2770    2.8360   -0.0760 C   0  0  0  0  0  0  0  0  0  0  0  0
    4.2040    3.3670   -0.3790 O   0  0  0  0  0  0  0  0  0  0  0  0
    6.5690    3.6030   -0.0610 C   0  0  0  0  0  0  0  0  0  0  0  0
    6.4040    5.0370   -0.4580 C   0  0  0  0  0  0  0  0  0  0  0  0
    7.7420    5.6550   -0.4030 N   0  0  0  0  0  0  0  0  0  0  0  0
    4.6220   -0.7760    0.4580 C   0  0  0  0  0  0  0  0  0  0  0  0
    3.6820   -1.7720    0.5000 C   0  0  0  0  0  0  0  0  0  0  0  0
    2.3480   -1.4440    0.4110 C   0  0  0  0  0  0  0  0  0  0  0  0
    1.2990   -2.3410    0.4240 O   0  0  0  0  0  0  0  0  0  0  0  0
    1.3730   -3.7090    0.3830 C   0  0  0  0  0  0  0  0  0  0  0  0
    2.2560   -4.2890   -0.5020 C   0  0  0  0  0  0  0  0  0  0  0  0
    2.3490   -5.6530   -0.5770 C   0  0  0  0  0  0  0  0  0  0  0  0
    1.5480   -6.4500    0.2480 C   0  0  0  0  0  0  0  0  0  0  0  0
    1.6120   -7.7990    0.1850 F   0  0  0  0  0  0  0  0  0  0  0  0
    0.6810   -5.8210    1.1200 C   0  0  0  0  0  0  0  0  0  0  0  0
    0.5690   -4.4640    1.2110 C   0  0  0  0  0  0  0  0  0  0  0  0
   -4.3780    1.7900    0.3340 O   0  0  0  0  0  0  0  0  0  0  0  0
   -5.6640    1.5920    0.2920 C   0  0  0  0  0  0  0  0  0  0  0  0
   -5.9010    0.3160   -0.1340 C   0  0  0  0  0  0  0  0  0  0  0  0
   -7.2200   -0.2400   -0.2990 C   0  0  0  0  0  0  0  0  0  0  0  0
   -7.4710   -1.4350   -0.5790 O   0  0  0  0  0  0  0  0  0  0  0  0
   -8.3820    0.6810   -0.1210 C   0  0  0  0  0  0  0  0  0  0  0  0
   -7.9630    2.1140   -0.3130 C   0  0  0  0  0  0  0  0  0  0  0  0
   -6.8200    2.4860    0.6140 C   0  0  0  0  0  0  0  0  0  0  0  0
  1  2  1  0
  2  3  2  0
  2 31  1  0
  3  4  1  0
  3 29  1  0
  4  5  2  0
  4  6  1  0
  6  7  1  0
  7  8  1  0
  8  9  1  0
  9 10  2  0
  9 20  1  0
 10 11  1  0
 11 12  1  0
 11 18  2  0
 12 13  1  0
 13 14  2  0
 13 15  1  0
 15 16  1  0
 16 17  1  0
 18 19  1  0
 19 20  2  0
 20 21  1  0
 21 22  1  0
 22 23  2  0
 22 28  1  0
 23 24  1  0
 24 25  2  0
 25 26  1  0
 25 27  1  0
 27 28  2  0
 29 30  1  0
 30 31  2  0
 30 36  1  0
 31 32  1  0
 32 33  2  0
 32 34  1  0
 34 35  1  0
 35 36  1  0
M  END
