
     RDKit          3D

 36 39  0  0  0  0  0  0  0  0999 V2000
   -7.0810   -1.8040    0.6340 C   0  0  0  0  0  0  0  0  0  0  0  0
   -5.6900   -1.9710    0.1210 C   0  0  0  0  0  0  0  0  0  0  0  0
   -4.7370   -0.9810    0.6820 C   0  0  0  0  0  0  0  0  0  0  0  0
   -3.8760   -1.3830    1.6590 N   0  0  0  0  0  0  0  0  0  0  0  0
   -2.9830   -0.5710    2.2340 C   0  0  0  0  0  0  0  0  0  0  0  0
   -2.2020   -1.0110    3.1490 O   0  0  0  0  0  0  0  0  0  0  0  0
   -2.9470    0.7380    1.8030 C   0  0  0  0  0  0  0  0  0  0  0  0
   -1.9920    1.6950    2.3670 C   0  0  0  0  0  0  0  0  0  0  0  0
   -0.6090    1.5680    1.8520 C   0  0  0  0  0  0  0  0  0  0  0  0
   -0.2520    2.2110    0.6600 C   0  0  0  0  0  0  0  0  0  0  0  0
    1.0290    2.1100    0.1590 C   0  0  0  0  0  0  0  0  0  0  0  0
    2.0020    1.3780    0.8050 C   0  0  0  0  0  0  0  0  0  0  0  0
    3.3560    1.3210    0.2050 C   0  0  0  0  0  0  0  0  0  0  0  0
    3.6780    2.1550   -0.6750 O   0  0  0  0  0  0  0  0  0  0  0  0
    4.3070    0.3500    0.5920 N   0  0  0  0  0  0  0  0  0  0  0  0
    5.6080    0.1780    0.1250 C   0  0  0  0  0  0  0  0  0  0  0  0
    6.3080    1.0930   -0.6170 C   0  0  0  0  0  0  0  0  0  0  0  0
    7.5960    0.7970   -1.0420 C   0  0  0  0  0  0  0  0  0  0  0  0
    8.2270   -0.3910   -0.7560 C   0  0  0  0  0  0  0  0  0  0  0  0
    7.5160   -1.3100   -0.0070 C   0  0  0  0  0  0  0  0  0  0  0  0
    6.2440   -1.0350    0.4220 C   0  0  0  0  0  0  0  0  0  0  0  0
    8.1760   -2.5410    0.2860 N   0  0  0  0  0  0  0  0  0  0  0  0
    9.4940   -2.8140   -0.1660 C   0  0  0  0  0  0  0  0  0  0  0  0
   10.0790   -3.8550    0.2620 O   0  0  0  0  0  0  0  0  0  0  0  0
   10.1620   -1.8870   -1.1220 C   0  0  0  0  0  0  0  0  0  0  0  0
    9.5240   -0.6510   -1.2030 O   0  0  0  0  0  0  0  0  0  0  0  0
    1.6690    0.7430    1.9740 C   0  0  0  0  0  0  0  0  0  0  0  0
    0.3690    0.8440    2.4840 C   0  0  0  0  0  0  0  0  0  0  0  0
   -3.8110    1.1670    0.8140 C   0  0  0  0  0  0  0  0  0  0  0  0
   -4.7350    0.3110    0.2240 C   0  0  0  0  0  0  0  0  0  0  0  0
   -5.6330    0.7350   -0.8140 C   0  0  0  0  0  0  0  0  0  0  0  0
   -5.5670    1.9800   -1.1370 O   0  0  0  0  0  0  0  0  0  0  0  0
   -6.5420    0.0070   -1.5020 O   0  0  0  0  0  0  0  0  0  0  0  0
   -7.4260    0.3580   -2.4990 C   0  0  0  0  0  0  0  0  0  0  0  0
   -8.4700    1.3640   -2.1660 C   0  0  0  0  0  0  0  0  0  0  0  0
   -7.9460    2.5600   -1.7870 F   0  0  0  0  0  0  0  0  0  0  0  0
  1  2  1  0
  2  3  1  0
  3  4  1  0
  3 30  2  0
  4  5  1  0
  5  6  2  0
  5  7  1  0
  7  8  1  0
  7 29  2  0
  8  9  1  0
  9 10  2  0
  9 28  1  0
 10 11  1  0
 11 12  2  0
 12 13  1  0
 12 27  1  0
 13 14  2  0
 13 15  1  0
 15 16  1  0
 16 17  2  0
 16 21  1  0
 17 18  1  0
 18 19  2  0
 19 20  1  0
 19 26  1  0
 20 21  2  0
 20 22  1  0
 22 23  1  0
 23 24  2  0
 23 25  1  0
 25 26  1  0
 27 28  2  0
 29 30  1  0
 30 31  1  0
 31 32  2  0
 31 33  1  0
 33 34  1  0
 34 35  1  0
 35 36  1  0
M  END
