
     RDKit          3D

 36 39  0  0  0  0  0  0  0  0999 V2000
   -5.2250    0.2250   -1.8010 C   0  0  0  0  0  0  0  0  0  0  0  0
   -5.7740    0.8030   -0.5520 C   0  0  0  0  0  0  0  0  0  0  0  0
   -7.1420    0.6460   -0.3180 C   0  0  0  0  0  0  0  0  0  0  0  0
   -7.7370    1.1630    0.7990 C   0  0  0  0  0  0  0  0  0  0  0  0
   -9.1150    1.0810    1.1310 N   0  0  0  0  0  0  0  0  0  0  0  0
  -10.0780    0.6600    0.2040 C   0  0  0  0  0  0  0  0  0  0  0  0
   -9.8660    0.3260   -0.9700 O   0  0  0  0  0  0  0  0  0  0  0  0
   -6.8870    1.8560    1.6870 C   0  0  0  0  0  0  0  0  0  0  0  0
   -5.5510    2.0070    1.4560 C   0  0  0  0  0  0  0  0  0  0  0  0
   -4.9660    1.4790    0.3240 C   0  0  0  0  0  0  0  0  0  0  0  0
   -3.6220    1.6130    0.0590 O   0  0  0  0  0  0  0  0  0  0  0  0
   -2.8320    0.4790   -0.0150 C   0  0  0  0  0  0  0  0  0  0  0  0
   -3.2960   -0.7670    0.3110 C   0  0  0  0  0  0  0  0  0  0  0  0
   -2.4770   -1.8770    0.2240 C   0  0  0  0  0  0  0  0  0  0  0  0
   -1.1580   -1.7800   -0.1950 C   0  0  0  0  0  0  0  0  0  0  0  0
   -0.6780   -0.5360   -0.5260 C   0  0  0  0  0  0  0  0  0  0  0  0
   -1.4950    0.5660   -0.4380 C   0  0  0  0  0  0  0  0  0  0  0  0
    0.7170   -0.3520   -0.9810 C   0  0  0  0  0  0  0  0  0  0  0  0
    1.6270   -1.3110   -0.4140 N   0  0  0  0  0  0  0  0  0  0  0  0
    2.9870   -0.9360   -0.2330 C   0  0  0  0  0  0  0  0  0  0  0  0
    3.2500    0.1570    0.5650 C   0  0  0  0  0  0  0  0  0  0  0  0
    4.5720    0.5520    0.7630 C   0  0  0  0  0  0  0  0  0  0  0  0
    5.6040   -0.1410    0.1690 C   0  0  0  0  0  0  0  0  0  0  0  0
    6.9790    0.2900    0.3920 C   0  0  0  0  0  0  0  0  0  0  0  0
    7.2300    1.2800    1.1130 O   0  0  0  0  0  0  0  0  0  0  0  0
    8.0380   -0.3840   -0.1900 O   0  0  0  0  0  0  0  0  0  0  0  0
    9.3740   -0.0050   -0.0050 C   0  0  0  0  0  0  0  0  0  0  0  0
    9.6110    1.3690   -0.4880 C   0  0  0  0  0  0  0  0  0  0  0  0
   10.8890    1.9930   -0.4120 N   0  0  0  0  0  0  0  0  0  0  0  0
    8.6410    2.0120   -0.9860 O   0  0  0  0  0  0  0  0  0  0  0  0
    5.3070   -1.2220   -0.6180 C   0  0  0  0  0  0  0  0  0  0  0  0
    4.0140   -1.6490   -0.8420 C   0  0  0  0  0  0  0  0  0  0  0  0
    3.7150   -2.7130   -1.6160 F   0  0  0  0  0  0  0  0  0  0  0  0
    1.1490   -2.5970   -0.0510 C   0  0  0  0  0  0  0  0  0  0  0  0
    1.9530   -3.4220    0.4810 O   0  0  0  0  0  0  0  0  0  0  0  0
   -0.2670   -2.9520   -0.2970 C   0  0  0  0  0  0  0  0  0  0  0  0
  1  2  1  0
  2  3  2  0
  2 10  1  0
  3  4  1  0
  4  5  1  0
  4  8  2  0
  5  6  1  0
  6  7  2  0
  8  9  1  0
  9 10  2  0
 10 11  1  0
 11 12  1  0
 12 13  2  0
 12 17  1  0
 13 14  1  0
 14 15  2  0
 15 16  1  0
 15 36  1  0
 16 17  2  0
 16 18  1  0
 18 19  1  0
 19 20  1  0
 19 34  1  0
 20 21  2  0
 20 32  1  0
 21 22  1  0
 22 23  2  0
 23 24  1  0
 23 31  1  0
 24 25  2  0
 24 26  1  0
 26 27  1  0
 27 28  1  0
 28 29  1  0
 28 30  2  0
 31 32  2  0
 32 33  1  0
 34 35  2  0
 34 36  1  0
M  END
