
     RDKit          3D

 32 35  0  0  0  0  0  0  0  0999 V2000
   -5.7120    0.4680    2.6350 C   0  0  0  0  0  0  0  0  0  0  0  0
   -4.4980   -0.1050    2.0650 N   0  0  0  0  0  0  0  0  0  0  0  0
   -3.5320    0.7780    1.5260 C   0  0  0  0  0  0  0  0  0  0  0  0
   -3.7420    2.0480    1.5480 O   0  0  0  0  0  0  0  0  0  0  0  0
   -2.2550    0.3850    0.9040 C   0  0  1  0  0  0  0  0  0  0  0  0
   -1.9790    1.2870   -0.2340 N   0  0  0  0  0  0  0  0  0  0  0  0
   -0.7650    1.1970   -0.9930 C   0  0  0  0  0  0  0  0  0  0  0  0
    0.1700    0.3160   -0.6830 N   0  0  0  0  0  0  0  0  0  0  0  0
    1.3380    0.1730   -1.3470 C   0  0  0  0  0  0  0  0  0  0  0  0
    2.2930   -0.8280   -0.9200 C   0  0  0  0  0  0  0  0  0  0  0  0
    3.4260   -1.0790   -1.5390 C   0  0  0  0  0  0  0  0  0  0  0  0
    4.3000   -2.1410   -0.9780 C   0  0  0  0  0  0  0  0  0  0  0  0
    5.4760   -2.5940   -1.4880 C   0  0  0  0  0  0  0  0  0  0  0  0
    5.9300   -3.5800   -0.6440 C   0  0  0  0  0  0  0  0  0  0  0  0
    6.8890   -4.4370   -0.4380 O   0  0  0  0  0  0  0  0  0  0  0  0
    6.7020   -5.1390    0.6390 C   0  0  0  0  0  0  0  0  0  0  0  0
    5.4890   -4.6790    1.1820 C   0  0  0  0  0  0  0  0  0  0  0  0
    5.0020   -3.6930    0.3660 C   0  0  0  0  0  0  0  0  0  0  0  0
    4.0530   -2.8210    0.1290 O   0  0  0  0  0  0  0  0  0  0  0  0
    1.5380    0.9970   -2.3910 N   0  0  0  0  0  0  0  0  0  0  0  0
    0.6240    1.9370   -2.7810 C   0  0  0  0  0  0  0  0  0  0  0  0
    0.9910    2.8010   -3.9470 C   0  0  0  0  0  0  0  0  0  0  0  0
   -0.5370    2.0490   -2.0890 C   0  0  0  0  0  0  0  0  0  0  0  0
   -1.6220    2.9940   -2.4220 C   0  0  0  0  0  0  0  0  0  0  0  0
   -1.6560    4.2450   -1.6250 C   0  0  0  0  0  0  0  0  0  0  0  0
   -0.5410    5.1340   -1.9360 C   0  0  0  0  0  0  0  0  0  0  0  0
    0.3750    5.8430   -2.1770 N   0  0  0  0  0  0  0  0  0  0  0  0
   -1.1640    0.6660    1.9250 C   0  0  0  0  0  0  0  0  0  0  0  0
   -1.5600   -0.0860    3.1940 C   0  0  0  0  0  0  0  0  0  0  0  0
   -1.5070   -1.5520    2.9120 C   0  0  0  0  0  0  0  0  0  0  0  0
   -1.1640   -1.8160    1.4460 C   0  0  0  0  0  0  0  0  0  0  0  0
   -2.1230   -1.0540    0.5420 C   0  0  0  0  0  0  0  0  0  0  0  0
  1  2  1  0
  2  3  1  0
  3  4  2  0
  3  5  1  0
  5  6  1  6
  5 28  1  0
  5 32  1  0
  6  7  1  0
  7  8  2  0
  7 23  1  0
  8  9  1  0
  9 10  1  0
  9 20  2  0
 10 11  2  3
 11 12  1  0
 12 13  2  0
 12 19  1  0
 13 14  1  0
 14 15  1  0
 14 18  2  0
 15 16  1  0
 16 17  2  0
 17 18  1  0
 18 19  1  0
 20 21  1  0
 21 22  1  0
 21 23  2  0
 23 24  1  0
 24 25  1  0
 25 26  1  0
 26 27  3  0
 28 29  1  0
 29 30  1  0
 30 31  1  0
 31 32  1  0
M  END
