
     RDKit          3D

 33 37  0  0  0  0  0  0  0  0999 V2000
    6.0130    1.9140   -0.0650 O   0  0  0  0  0  0  0  0  0  0  0  0
    6.3100    0.9200   -0.7750 C   0  0  0  0  0  0  0  0  0  0  0  0
    5.4170    0.4490   -1.7760 N   0  0  0  0  0  0  0  0  0  0  0  0
    4.1500    1.0800   -2.0170 C   0  0  0  0  0  0  0  0  0  0  0  0
    3.1110    0.7330   -1.0040 C   0  0  0  0  0  0  0  0  0  0  0  0
    2.8110    1.5280    0.0820 C   0  0  0  0  0  0  0  0  0  0  0  0
    1.8340    1.1690    1.0060 C   0  0  0  0  0  0  0  0  0  0  0  0
    1.1280   -0.0130    0.8560 C   0  0  0  0  0  0  0  0  0  0  0  0
    1.4520   -0.7820   -0.2390 C   0  0  0  0  0  0  0  0  0  0  0  0
    2.3990   -0.4210   -1.1230 N   0  0  0  0  0  0  0  0  0  0  0  0
    0.6340   -1.8690   -0.1660 N   0  0  0  0  0  0  0  0  0  0  0  0
   -0.1300   -1.7320    0.9250 C   0  0  0  0  0  0  0  0  0  0  0  0
   -0.9850   -2.5810    1.2570 O   0  0  0  0  0  0  0  0  0  0  0  0
    0.1390   -0.6010    1.5870 N   0  0  0  0  0  0  0  0  0  0  0  0
   -0.4260   -0.0520    2.7820 C   0  0  0  0  0  0  0  0  0  0  0  0
   -1.5960    0.8560    2.5400 C   0  0  0  0  0  0  0  0  0  0  0  0
   -2.7410    0.2450    1.8630 C   0  0  0  0  0  0  0  0  0  0  0  0
   -3.1170    0.7570    0.6910 C   0  0  0  0  0  0  0  0  0  0  0  0
   -4.1990    0.2380   -0.0270 N   0  0  0  0  0  0  0  0  0  0  0  0
   -4.4970    0.9150   -1.3000 C   0  0  0  0  0  0  0  0  0  0  0  0
   -5.9380    1.3010   -1.2230 C   0  0  0  0  0  0  0  0  0  0  0  0
   -6.9250    0.2770   -1.6210 C   0  0  0  0  0  0  0  0  0  0  0  0
   -6.6030   -1.1430   -1.3700 C   0  0  0  0  0  0  0  0  0  0  0  0
   -5.9730   -1.4660   -0.0860 C   0  0  0  0  0  0  0  0  0  0  0  0
   -4.9450   -0.8660    0.4750 C   0  0  0  0  0  0  0  0  0  0  0  0
   -4.5410   -1.4300    1.7550 C   0  0  0  0  0  0  0  0  0  0  0  0
   -3.5050   -0.8760    2.3650 C   0  0  0  0  0  0  0  0  0  0  0  0
   -3.1380   -1.4080    3.5530 F   0  0  0  0  0  0  0  0  0  0  0  0
    7.5940    0.2620   -0.5470 C   0  0  0  0  0  0  0  0  0  0  0  0
    8.0740   -0.8370   -1.2190 C   0  0  0  0  0  0  0  0  0  0  0  0
    9.3240   -1.1180   -0.6780 C   0  0  0  0  0  0  0  0  0  0  0  0
    9.5350   -0.1650    0.3030 C   0  0  0  0  0  0  0  0  0  0  0  0
    8.5000    0.6050    0.3310 O   0  0  0  0  0  0  0  0  0  0  0  0
  1  2  2  0
  2  3  1  0
  2 29  1  0
  3  4  1  0
  4  5  1  0
  5  6  2  0
  5 10  1  0
  6  7  1  0
  7  8  2  0
  8  9  1  0
  8 14  1  0
  9 10  2  0
  9 11  1  0
 11 12  1  0
 12 13  2  0
 12 14  1  0
 14 15  1  0
 15 16  1  0
 16 17  1  0
 17 18  2  0
 17 27  1  0
 18 19  1  0
 19 20  1  0
 19 25  1  0
 20 21  1  0
 21 22  1  0
 22 23  1  0
 23 24  1  0
 24 25  2  0
 25 26  1  0
 26 27  2  0
 27 28  1  0
 29 30  2  0
 29 33  1  0
 30 31  1  0
 31 32  2  0
 32 33  1  0
M  END
