
     RDKit          3D

 35 37  0  0  0  0  0  0  0  0999 V2000
   -7.1050    3.2420    1.3720 C   0  0  0  0  0  0  0  0  0  0  0  0
   -6.9150    2.9430   -0.1090 C   0  0  0  0  0  0  0  0  0  0  0  0
   -6.4230    1.5230   -0.2580 C   0  0  0  0  0  0  0  0  0  0  0  0
   -5.0980    1.3210    0.4620 C   0  0  0  0  0  0  0  0  0  0  0  0
   -4.6290   -0.0300    0.3190 N   0  0  0  0  0  0  0  0  0  0  0  0
   -3.9880   -0.4610   -0.6840 C   0  0  0  0  0  0  0  0  0  0  0  0
   -3.6900    0.4120   -1.7620 N   0  0  0  0  0  0  0  0  0  0  0  0
   -2.9760   -0.0680   -2.8830 C   0  0  0  0  0  0  0  0  0  0  0  0
   -3.0420    0.4340   -4.0040 O   0  0  0  0  0  0  0  0  0  0  0  0
   -2.0850   -1.2630   -2.6720 C   0  0  1  0  0  0  0  0  0  0  0  0
   -0.9230   -0.8090   -1.7780 C   0  0  0  0  0  0  0  0  0  0  0  0
   -0.0430   -1.9890   -1.5840 C   0  0  0  0  0  0  0  0  0  0  0  0
   -0.2770   -3.1030   -2.1190 O   0  0  0  0  0  0  0  0  0  0  0  0
    1.1240   -1.7900   -0.7300 C   0  0  0  0  0  0  0  0  0  0  0  0
    1.5590   -0.2190    0.0940 S   0  0  0  0  0  0  0  0  0  0  0  0
    3.1000   -1.0300    0.8570 C   0  0  0  0  0  0  0  0  0  0  0  0
    3.8530   -0.2440    1.6300 N   0  0  0  0  0  0  0  0  0  0  0  0
    3.5270    1.0680    1.8540 N   0  0  0  0  0  0  0  0  0  0  0  0
    4.2780    2.0280    1.5610 C   0  0  0  0  0  0  0  0  0  0  0  0
    5.5870    1.8640    0.9470 C   0  0  0  0  0  0  0  0  0  0  0  0
    6.2500    0.7190    0.5760 C   0  0  0  0  0  0  0  0  0  0  0  0
    7.4630    1.1060    0.0380 C   0  0  0  0  0  0  0  0  0  0  0  0
    8.5330    0.2300   -0.5060 C   0  0  0  0  0  0  0  0  0  0  0  0
    9.5860    0.1320    0.3920 F   0  0  0  0  0  0  0  0  0  0  0  0
    7.5090    2.4680    0.0940 C   0  0  0  0  0  0  0  0  0  0  0  0
    8.6590    3.3010   -0.3910 C   0  0  0  0  0  0  0  0  0  0  0  0
    6.3970    2.8740    0.6300 O   0  0  0  0  0  0  0  0  0  0  0  0
    3.0090   -2.0620    0.4470 O   0  0  0  0  0  0  0  0  0  0  0  0
    2.1420   -2.6140   -0.3230 C   0  0  0  0  0  0  0  0  0  0  0  0
    2.2040   -4.0460   -0.7670 C   0  0  0  0  0  0  0  0  0  0  0  0
   -2.8400   -2.2680   -1.8920 C   0  0  0  0  0  0  0  0  0  0  0  0
   -2.8460   -3.4510   -2.2330 O   0  0  0  0  0  0  0  0  0  0  0  0
   -3.5520   -1.8380   -0.7480 N   0  0  0  0  0  0  0  0  0  0  0  0
   -3.8430   -2.7510    0.3410 C   0  0  0  0  0  0  0  0  0  0  0  0
   -2.7070   -2.7150    1.3670 C   0  0  0  0  0  0  0  0  0  0  0  0
  1  2  1  0
  2  3  1  0
  3  4  1  0
  4  5  1  0
  5  6  2  3
  6  7  1  0
  6 33  1  0
  7  8  1  0
  8  9  2  0
  8 10  1  0
 10 11  1  1
 10 31  1  0
 11 12  1  0
 12 13  2  0
 12 14  1  0
 14 15  1  0
 14 29  2  0
 15 16  1  0
 16 17  2  3
 16 28  1  0
 17 18  1  0
 18 19  2  3
 19 20  1  0
 20 21  2  0
 20 27  1  0
 21 22  1  0
 22 23  1  0
 22 25  2  0
 23 24  1  0
 25 26  1  0
 25 27  1  0
 28 29  1  0
 29 30  1  0
 31 32  2  0
 31 33  1  0
 33 34  1  0
 34 35  1  0
M  END
