
     RDKit          3D

 34 36  0  0  0  0  0  0  0  0999 V2000
    9.6800    1.2720   -0.0470 C   0  0  0  0  0  0  0  0  0  0  0  0
    9.2390    0.1060   -0.4640 C   0  0  0  0  0  0  0  0  0  0  0  0
    8.3710   -0.7220    0.3990 C   0  0  0  0  0  0  0  0  0  0  0  0
    7.0920   -0.9700   -0.2230 N   0  0  0  0  0  0  0  0  0  0  0  0
    6.9160   -2.1230   -1.0600 C   0  0  0  0  0  0  0  0  0  0  0  0
    7.8700   -2.9280   -1.2610 O   0  0  0  0  0  0  0  0  0  0  0  0
    5.6210   -2.3790   -1.6920 C   0  0  0  0  0  0  0  0  0  0  0  0
    4.5740   -1.5740   -1.5220 C   0  0  0  0  0  0  0  0  0  0  0  0
    4.6760   -0.3770   -0.6820 C   0  0  0  0  0  0  0  0  0  0  0  0
    3.6370    0.3910   -0.5350 N   0  0  0  0  0  0  0  0  0  0  0  0
    3.7720    1.4960    0.2570 O   0  0  0  0  0  0  0  0  0  0  0  0
    2.4050    2.3260    0.7960 S   0  0  2  0  0  0  0  0  0  0  0  0
    2.4130    3.7640    0.3390 O   0  0  0  0  0  0  0  0  0  0  0  0
    2.3750    2.3710    2.3130 O   0  0  0  0  0  0  0  0  0  0  0  0
    0.9120    1.5830    0.2820 C   0  0  0  0  0  0  0  0  0  0  0  0
   -0.0060    2.2500   -0.5060 C   0  0  0  0  0  0  0  0  0  0  0  0
   -1.1350    1.6380   -0.8740 N   0  0  0  0  0  0  0  0  0  0  0  0
   -1.4340    0.3810   -0.5120 C   0  0  0  0  0  0  0  0  0  0  0  0
   -2.7440   -0.2540   -0.9600 C   0  0  2  0  0  0  0  0  0  0  0  0
   -3.7330    0.7010   -0.6930 N   0  0  0  0  0  0  0  0  0  0  0  0
   -5.0670    0.4770   -1.0450 C   0  0  0  0  0  0  0  0  0  0  0  0
   -5.9220    1.6940   -0.6960 C   0  0  2  0  0  0  0  0  0  0  0  0
   -5.8950    2.0150    0.7630 C   0  0  0  0  0  0  0  0  0  0  0  0
   -6.5660    0.8040    1.3720 C   0  0  0  0  0  0  0  0  0  0  0  0
   -7.6280    0.4340    0.3570 C   0  0  0  0  0  0  0  0  0  0  0  0
   -7.3670    1.2510   -0.8810 C   0  0  0  0  0  0  0  0  0  0  0  0
   -2.8020   -1.5760   -0.2950 C   0  0  2  0  0  0  0  0  0  0  0  0
   -1.5990   -2.4110   -0.7130 C   0  0  0  0  0  0  0  0  0  0  0  0
   -4.0400   -2.3840   -0.4790 C   0  0  0  0  0  0  0  0  0  0  0  0
   -0.5480   -0.2660    0.2510 N   0  0  0  0  0  0  0  0  0  0  0  0
    0.6110    0.2920    0.6590 C   0  0  0  0  0  0  0  0  0  0  0  0
    1.5340   -0.5260    1.5190 C   0  0  0  0  0  0  0  0  0  0  0  0
    5.9590   -0.1250   -0.0570 C   0  0  0  0  0  0  0  0  0  0  0  0
    6.0720    0.8990    0.6710 O   0  0  0  0  0  0  0  0  0  0  0  0
  1  2  2  0
  2  3  1  0
  3  4  1  0
  4  5  1  0
  4 33  1  0
  5  6  2  0
  5  7  1  0
  7  8  2  0
  8  9  1  0
  9 10  2  3
  9 33  1  0
 10 11  1  0
 12 11  1  1
 12 13  2  0
 12 14  2  0
 12 15  1  0
 15 16  2  0
 15 31  1  0
 16 17  1  0
 17 18  2  0
 18 19  1  0
 18 30  1  0
 19 20  1  1
 19 27  1  0
 20 21  1  0
 22 21  1  1
 22 23  1  0
 22 26  1  0
 23 24  1  0
 24 25  1  0
 25 26  1  0
 27 28  1  6
 27 29  1  0
 30 31  2  0
 31 32  1  0
 33 34  2  0
M  END
