
     RDKit          3D

 35 37  0  0  0  0  0  0  0  0999 V2000
   -3.7680    3.3260   -1.1850 C   0  0  0  0  0  0  0  0  0  0  0  0
   -4.7500    2.3630   -0.5160 C   0  0  0  0  0  0  0  0  0  0  0  0
   -4.1770    1.8090    0.7600 C   0  0  2  0  0  0  0  0  0  0  0  0
   -3.8620    2.8860    1.7450 C   0  0  0  0  0  0  0  0  0  0  0  0
   -5.0690    3.6960    2.1400 C   0  0  0  0  0  0  0  0  0  0  0  0
   -6.0500    2.9150    2.7240 F   0  0  0  0  0  0  0  0  0  0  0  0
   -2.9860    0.9540    0.5640 C   0  0  0  0  0  0  0  0  0  0  0  0
   -1.8630    1.4870    0.8380 O   0  0  0  0  0  0  0  0  0  0  0  0
   -3.0390   -0.3940    0.0920 N   0  0  0  0  0  0  0  0  0  0  0  0
   -4.0830   -1.1460   -0.2170 C   0  0  0  0  0  0  0  0  0  0  0  0
   -5.2890   -0.8290   -0.1490 O   0  0  0  0  0  0  0  0  0  0  0  0
   -3.7050   -2.3840   -0.6450 N   0  0  0  0  0  0  0  0  0  0  0  0
   -4.5500   -3.4830   -1.0710 C   0  0  0  0  0  0  0  0  0  0  0  0
   -4.9120   -4.3510    0.0610 C   0  0  0  0  0  0  0  0  0  0  0  0
   -5.6450   -5.3500   -0.1560 O   0  0  0  0  0  0  0  0  0  0  0  0
   -4.4330   -4.0350    1.3220 O   0  0  0  0  0  0  0  0  0  0  0  0
   -2.3630   -2.3950   -0.5970 C   0  0  0  0  0  0  0  0  0  0  0  0
   -1.4560   -3.3920   -0.9180 C   0  0  0  0  0  0  0  0  0  0  0  0
   -0.1130   -3.1410   -0.7770 C   0  0  0  0  0  0  0  0  0  0  0  0
    0.3400   -1.9250   -0.3240 C   0  0  0  0  0  0  0  0  0  0  0  0
    1.7870   -1.6570   -0.1730 C   0  0  0  0  0  0  0  0  0  0  0  0
    2.3710   -0.4890    0.2700 C   0  0  0  0  0  0  0  0  0  0  0  0
    3.7470   -0.6170    0.2760 C   0  0  0  0  0  0  0  0  0  0  0  0
    4.7100    0.3860    0.6740 C   0  0  0  0  0  0  0  0  0  0  0  0
    4.3080    1.4990    1.0590 O   0  0  0  0  0  0  0  0  0  0  0  0
    6.0990    0.1290    0.6330 N   0  0  0  0  0  0  0  0  0  0  0  0
    6.6150   -1.1770    0.1900 C   0  0  0  0  0  0  0  0  0  0  0  0
    7.0350    1.1260    1.0090 C   0  0  0  0  0  0  0  0  0  0  0  0
    7.5160    1.9260   -0.1420 C   0  0  0  0  0  0  0  0  0  0  0  0
    6.2480    2.7760   -1.0450 S   0  0  0  0  0  0  0  0  0  0  0  0
    5.1680    1.7550   -2.0330 C   0  0  0  0  0  0  0  0  0  0  0  0
    3.9680   -1.8770   -0.1680 N   0  0  0  0  0  0  0  0  0  0  0  0
    2.8150   -2.4840   -0.4310 N   0  0  0  0  0  0  0  0  0  0  0  0
   -0.5740   -0.9600   -0.0140 C   0  0  0  0  0  0  0  0  0  0  0  0
   -1.9340   -1.1660   -0.1410 C   0  0  0  0  0  0  0  0  0  0  0  0
  1  2  1  0
  3  2  1  6
  3  4  1  0
  3  7  1  0
  4  5  1  0
  5  6  1  0
  7  8  2  0
  7  9  1  0
  9 10  1  0
  9 35  1  0
 10 11  2  0
 10 12  1  0
 12 13  1  0
 12 17  1  0
 13 14  1  0
 14 15  2  0
 14 16  1  0
 17 18  2  0
 17 35  1  0
 18 19  1  0
 19 20  2  0
 20 21  1  0
 20 34  1  0
 21 22  2  0
 21 33  1  0
 22 23  1  0
 23 24  1  0
 23 32  2  0
 24 25  2  0
 24 26  1  0
 26 27  1  0
 26 28  1  0
 28 29  1  0
 29 30  1  0
 30 31  1  0
 32 33  1  0
 34 35  2  0
M  END
