
     RDKit          3D

 33 33  0  0  0  0  0  0  0  0999 V2000
    1.3820    1.1180    2.3190 O   0  0  0  0  0  0  0  0  0  0  0  0
    0.7450    0.5760    1.3830 C   0  0  0  0  0  0  0  0  0  0  0  0
   -0.5790    0.3820    1.2330 O   0  0  0  0  0  0  0  0  0  0  0  0
   -1.6570    1.1080    0.8040 C   0  0  0  0  0  0  0  0  0  0  0  0
   -2.7460    0.2620    0.1460 C   0  0  2  0  0  0  0  0  0  0  0  0
   -4.0630    0.9730    0.3560 C   0  0  0  0  0  0  0  0  0  0  0  0
   -4.0570    2.3550   -0.2610 C   0  0  0  0  0  0  0  0  0  0  0  0
   -5.2680    2.9970   -0.0620 O   0  0  0  0  0  0  0  0  0  0  0  0
   -5.1890    4.2610   -0.6570 C   0  0  0  0  0  0  0  0  0  0  0  0
   -4.1510    5.0180   -0.0780 O   0  0  0  0  0  0  0  0  0  0  0  0
   -2.8330   -0.9690    0.7720 O   0  0  0  0  0  0  0  0  0  0  0  0
   -2.8480   -1.9620   -0.2170 C   0  0  0  0  0  0  0  0  0  0  0  0
   -2.0910   -3.1940    0.1840 C   0  0  1  0  0  0  0  0  0  0  0  0
   -3.0220   -4.3660    0.2540 C   0  0  0  0  0  0  0  0  0  0  0  0
   -4.0370   -4.1530    1.1890 O   0  0  0  0  0  0  0  0  0  0  0  0
   -1.0060   -3.5560   -0.8330 C   0  0  1  0  0  0  0  0  0  0  0  0
   -1.0940   -2.7250   -1.9580 O   0  0  0  0  0  0  0  0  0  0  0  0
    0.3300   -3.2330   -0.1660 C   0  0  2  0  0  0  0  0  0  0  0  0
    0.2230   -3.6740    1.1480 O   0  0  0  0  0  0  0  0  0  0  0  0
    0.5200   -1.8830   -0.3010 O   0  0  0  0  0  0  0  0  0  0  0  0
    1.7080   -1.4080    0.2480 C   0  0  0  0  0  0  0  0  0  0  0  0
    1.6380    0.0750    0.2750 C   0  0  1  0  0  0  0  0  0  0  0  0
    0.9180    0.5000   -1.0140 C   0  0  0  0  0  0  0  0  0  0  0  0
    1.6160    0.1020   -2.1310 O   0  0  0  0  0  0  0  0  0  0  0  0
    2.9880    0.6830    0.3230 C   0  0  1  0  0  0  0  0  0  0  0  0
    2.9100    2.1010    0.1970 O   0  0  0  0  0  0  0  0  0  0  0  0
    3.6240    2.5710   -0.8850 C   0  0  0  0  0  0  0  0  0  0  0  0
    3.4820    4.0910   -0.9330 C   0  0  0  0  0  0  0  0  0  0  0  0
    4.2040    4.6010   -2.0310 O   0  0  0  0  0  0  0  0  0  0  0  0
    3.7000    0.4880    1.4960 O   0  0  0  0  0  0  0  0  0  0  0  0
    4.9780    0.0530    1.3410 C   0  0  0  0  0  0  0  0  0  0  0  0
    5.1790   -1.2690    0.6750 C   0  0  0  0  0  0  0  0  0  0  0  0
    4.5660   -2.2960    1.3810 O   0  0  0  0  0  0  0  0  0  0  0  0
  1  2  2  0
  2  3  1  0
  2 22  1  0
  3  4  1  0
  4  5  1  0
  5  6  1  1
  5 11  1  0
  6  7  1  0
  7  8  1  0
  8  9  1  0
  9 10  1  0
 11 12  1  0
 12 13  1  0
 13 14  1  6
 13 16  1  0
 14 15  1  0
 16 17  1  6
 16 18  1  0
 18 19  1  1
 18 20  1  0
 20 21  1  0
 21 22  1  0
 22 23  1  6
 22 25  1  0
 23 24  1  0
 25 26  1  1
 25 30  1  0
 26 27  1  0
 27 28  1  0
 28 29  1  0
 30 31  1  0
 31 32  1  0
 32 33  1  0
M  END
