
     RDKit          3D

 35 37  0  0  0  0  0  0  0  0999 V2000
    8.8560    1.1370    0.7870 C   0  0  0  0  0  0  0  0  0  0  0  0
    7.3780    1.2870    0.4960 C   0  0  0  0  0  0  0  0  0  0  0  0
    6.6890    1.8460    1.5580 O   0  0  0  0  0  0  0  0  0  0  0  0
    5.3630    1.9670    1.2630 C   0  0  0  0  0  0  0  0  0  0  0  0
    4.6540    0.6890    0.9900 C   0  0  0  0  0  0  0  0  0  0  0  0
    5.1020   -0.4970    1.4420 N   0  0  0  0  0  0  0  0  0  0  0  0
    4.4860   -1.6690    1.2120 C   0  0  0  0  0  0  0  0  0  0  0  0
    5.0330   -2.9480    1.7400 C   0  0  0  0  0  0  0  0  0  0  0  0
    3.3420   -1.6300    0.4750 N   0  0  0  0  0  0  0  0  0  0  0  0
    2.8440   -0.4860   -0.0030 C   0  0  0  0  0  0  0  0  0  0  0  0
    1.6480   -0.4470   -0.7740 N   0  0  0  0  0  0  0  0  0  0  0  0
    0.9040   -1.6180   -1.0860 C   0  0  0  0  0  0  0  0  0  0  0  0
    1.3830   -2.7030   -0.6270 O   0  0  0  0  0  0  0  0  0  0  0  0
   -0.3480   -1.5810   -1.8910 C   0  0  2  0  0  0  0  0  0  0  0  0
   -0.1100   -1.0130   -3.2700 C   0  0  0  0  0  0  0  0  0  0  0  0
   -0.2140    0.4820   -3.2440 C   0  0  0  0  0  0  0  0  0  0  0  0
    0.5930    1.2230   -3.8330 O   0  0  0  0  0  0  0  0  0  0  0  0
   -1.2880    1.0320   -2.5080 N   0  0  0  0  0  0  0  0  0  0  0  0
   -1.7860    2.3880   -2.8180 C   0  0  0  0  0  0  0  0  0  0  0  0
   -1.8820    0.2710   -1.4690 C   0  0  0  0  0  0  0  0  0  0  0  0
   -1.4600   -0.9270   -1.1770 C   0  0  0  0  0  0  0  0  0  0  0  0
   -2.0910   -1.6720   -0.1000 C   0  0  0  0  0  0  0  0  0  0  0  0
   -1.7030   -2.8520    0.2080 O   0  0  0  0  0  0  0  0  0  0  0  0
   -3.2090   -1.1520    0.7200 C   0  0  1  0  0  0  0  0  0  0  0  0
   -2.7510    0.0620    1.4740 C   0  0  0  0  0  0  0  0  0  0  0  0
   -4.6180   -0.8160   -0.3740 S   0  0  0  0  0  0  0  0  0  0  0  0
   -6.0150   -0.1920    0.5180 C   0  0  0  0  0  0  0  0  0  0  0  0
   -7.1020    0.0940   -0.1800 C   0  0  0  0  0  0  0  0  0  0  0  0
   -8.3530    0.6250    0.4190 C   0  0  0  0  0  0  0  0  0  0  0  0
   -8.2430    0.7970    1.8890 C   0  0  0  0  0  0  0  0  0  0  0  0
   -9.2670    1.2460    2.4780 O   0  0  0  0  0  0  0  0  0  0  0  0
   -7.0220    0.4670    2.6150 C   0  0  0  0  0  0  0  0  0  0  0  0
   -6.9610    0.6380    3.9560 F   0  0  0  0  0  0  0  0  0  0  0  0
   -5.9660   -0.0020    1.9620 C   0  0  0  0  0  0  0  0  0  0  0  0
    3.5150    0.6450    0.2680 N   0  0  0  0  0  0  0  0  0  0  0  0
  1  2  1  0
  2  3  1  0
  3  4  1  0
  4  5  1  0
  5  6  2  0
  5 35  1  0
  6  7  1  0
  7  8  1  0
  7  9  2  0
  9 10  1  0
 10 11  1  0
 10 35  2  0
 11 12  1  0
 12 13  2  0
 14 12  1  1
 14 15  1  0
 14 21  1  0
 15 16  1  0
 16 17  2  0
 16 18  1  0
 18 19  1  0
 18 20  1  0
 20 21  2  0
 21 22  1  0
 22 23  2  0
 22 24  1  0
 24 25  1  6
 24 26  1  0
 26 27  1  0
 27 28  2  0
 27 34  1  0
 28 29  1  0
 29 30  1  0
 30 31  2  0
 30 32  1  0
 32 33  1  0
 32 34  2  0
M  END
