
     RDKit          3D

 37 40  0  0  0  0  0  0  0  0999 V2000
   -3.9810   -1.5240   -2.2040 C   0  0  0  0  0  0  0  0  0  0  0  0
   -3.7660   -0.0560   -2.5940 C   0  0  0  0  0  0  0  0  0  0  0  0
   -2.8300    0.6290   -1.7860 N   0  0  0  0  0  0  0  0  0  0  0  0
   -2.9760    1.3220   -0.7590 C   0  0  0  0  0  0  0  0  0  0  0  0
   -1.7390    1.8690   -0.2180 N   0  0  0  0  0  0  0  0  0  0  0  0
   -0.4850    1.1870   -0.0730 C   0  0  0  0  0  0  0  0  0  0  0  0
   -0.4070    0.1540    0.9810 C   0  0  1  0  0  0  0  0  0  0  0  0
   -0.7630    0.6660    2.2490 O   0  0  0  0  0  0  0  0  0  0  0  0
   -1.0890   -1.1250    0.6360 C   0  0  0  0  0  0  0  0  0  0  0  0
   -0.5030   -1.8320   -0.5130 C   0  0  0  0  0  0  0  0  0  0  0  0
    0.4680   -1.2330   -1.1080 O   0  0  0  0  0  0  0  0  0  0  0  0
   -0.8640   -3.0610   -1.0230 N   0  0  0  0  0  0  0  0  0  0  0  0
   -1.9240   -3.8780   -0.4380 C   0  0  0  0  0  0  0  0  0  0  0  0
   -2.2770   -4.9590   -1.4670 C   0  0  0  0  0  0  0  0  0  0  0  0
   -1.1520   -5.8150   -1.6780 N   0  0  0  0  0  0  0  0  0  0  0  0
    0.0250   -5.0970   -2.0260 C   0  0  0  0  0  0  0  0  0  0  0  0
   -0.1690   -3.6010   -2.2030 C   0  0  0  0  0  0  0  0  0  0  0  0
    1.0630   -0.2290    1.2350 C   0  0  0  0  0  0  0  0  0  0  0  0
    1.3080   -1.5410    1.5370 C   0  0  0  0  0  0  0  0  0  0  0  0
    2.6120   -1.9960    1.8040 C   0  0  0  0  0  0  0  0  0  0  0  0
    3.6240   -1.0650    1.7470 C   0  0  0  0  0  0  0  0  0  0  0  0
    3.3890    0.2510    1.4440 C   0  0  0  0  0  0  0  0  0  0  0  0
    4.4080    1.1920    1.3830 O   0  0  0  0  0  0  0  0  0  0  0  0
    5.7490    0.9210    1.6330 C   0  0  0  0  0  0  0  0  0  0  0  0
    6.6220    2.1070    1.4600 C   0  0  0  0  0  0  0  0  0  0  0  0
    7.3320    2.5680    2.4600 C   0  0  0  0  0  0  0  0  0  0  0  0
    7.2370    1.7640    4.0150 Cl  0  0  0  0  0  0  0  0  0  0  0  0
    8.2400    3.7500    2.3260 C   0  0  1  0  0  0  0  0  0  0  0  0
    9.4570    3.4770    1.4300 C   0  0  0  0  0  0  0  0  0  0  0  0
    8.3830    4.4630    1.0340 C   0  0  0  0  0  0  0  0  0  0  0  0
    2.0730    0.6780    1.1820 C   0  0  0  0  0  0  0  0  0  0  0  0
   -4.2010    1.7000   -0.0220 C   0  0  2  0  0  0  0  0  0  0  0  0
   -5.5250    1.2410   -0.4060 C   0  0  0  0  0  0  0  0  0  0  0  0
   -6.2950    2.1640   -1.3080 C   0  0  0  0  0  0  0  0  0  0  0  0
   -6.3260    3.4270   -0.9040 C   0  0  0  0  0  0  0  0  0  0  0  0
   -5.5930    3.7000    0.3630 C   0  0  0  0  0  0  0  0  0  0  0  0
   -4.1820    3.2240    0.2030 C   0  0  0  0  0  0  0  0  0  0  0  0
  1  2  1  0
  2  3  1  0
  3  4  2  3
  4  5  1  0
 32  4  1  6
  5  6  1  0
  6  7  1  0
  7  8  1  1
  7  9  1  0
  7 18  1  0
  9 10  1  0
 10 11  2  0
 10 12  1  0
 12 13  1  0
 12 17  1  0
 13 14  1  0
 14 15  1  0
 15 16  1  0
 16 17  1  0
 18 19  2  0
 18 31  1  0
 19 20  1  0
 20 21  2  0
 21 22  1  0
 22 23  1  0
 22 31  2  0
 23 24  1  0
 24 25  1  0
 25 26  2  3
 26 27  1  0
 28 26  1  6
 28 29  1  0
 28 30  1  0
 29 30  1  0
 32 33  1  0
 32 37  1  0
 33 34  1  0
 34 35  2  0
 35 36  1  0
 36 37  1  0
M  CHG  2   3   1  15   1
M  END
