
     RDKit          3D

 36 40  0  0  0  0  0  0  0  0999 V2000
    0.7800   -2.3130    1.1840 C   0  0  0  0  0  0  0  0  0  0  0  0
   -0.3590   -1.4810    1.2040 O   0  0  0  0  0  0  0  0  0  0  0  0
   -0.6190   -0.6100    0.1570 C   0  0  0  0  0  0  0  0  0  0  0  0
    0.1700   -0.4830   -0.9450 C   0  0  0  0  0  0  0  0  0  0  0  0
   -0.0740    0.3790   -1.9970 C   0  0  0  0  0  0  0  0  0  0  0  0
    0.8370    0.4490   -3.1440 C   0  0  0  0  0  0  0  0  0  0  0  0
    1.7950    1.5840   -3.0420 C   0  0  0  0  0  0  0  0  0  0  0  0
    2.6480    1.4460   -1.8870 N   0  0  0  0  0  0  0  0  0  0  0  0
    2.3390    1.8430   -0.5760 C   0  0  0  0  0  0  0  0  0  0  0  0
    1.2980    2.7100   -0.3530 C   0  0  0  0  0  0  0  0  0  0  0  0
    1.0240    3.1510    0.8840 N   0  0  0  0  0  0  0  0  0  0  0  0
    1.7290    2.7850    1.9530 C   0  0  0  0  0  0  0  0  0  0  0  0
    2.7910    1.9100    1.7790 C   0  0  0  0  0  0  0  0  0  0  0  0
    3.1020    1.4360    0.5200 C   0  0  0  0  0  0  0  0  0  0  0  0
    4.1970    0.5140    0.3750 C   0  0  0  0  0  0  0  0  0  0  0  0
    4.9520    0.1180    1.3700 C   0  0  0  0  0  0  0  0  0  0  0  0
    6.0700   -0.8420    1.1340 C   0  0  1  0  0  0  0  0  0  0  0  0
    7.1220   -0.6420    2.1080 N   0  0  0  0  0  0  0  0  0  0  0  0
    7.2190   -2.0820    2.2400 C   0  0  0  0  0  0  0  0  0  0  0  0
    5.7890   -2.1780    1.7500 C   0  0  2  0  0  0  0  0  0  0  0  0
    5.6150   -3.3020    0.7410 C   0  0  0  0  0  0  0  0  0  0  0  0
   -1.2200    1.1530   -1.8770 C   0  0  0  0  0  0  0  0  0  0  0  0
   -2.0480    1.0520   -0.7720 C   0  0  0  0  0  0  0  0  0  0  0  0
   -1.7740    0.1850    0.2530 C   0  0  0  0  0  0  0  0  0  0  0  0
   -2.5760    0.0640    1.3650 O   0  0  0  0  0  0  0  0  0  0  0  0
   -3.5650   -0.8820    1.5910 C   0  0  0  0  0  0  0  0  0  0  0  0
   -4.7240   -0.8980    0.6350 C   0  0  1  0  0  0  0  0  0  0  0  0
   -4.3020   -1.2360   -0.7730 C   0  0  0  0  0  0  0  0  0  0  0  0
   -5.7150   -1.9680    1.0780 C   0  0  0  0  0  0  0  0  0  0  0  0
   -7.0270   -1.2210    1.0030 C   0  0  0  0  0  0  0  0  0  0  0  0
   -6.6000    0.1400    1.5490 C   0  0  0  0  0  0  0  0  0  0  0  0
   -5.4120    0.3670    0.7130 N   0  0  0  0  0  0  0  0  0  0  0  0
   -3.1520    1.8680   -0.7610 O   0  0  0  0  0  0  0  0  0  0  0  0
   -3.8100    2.3980   -1.8850 C   0  0  0  0  0  0  0  0  0  0  0  0
   -3.0540    2.1450   -3.1690 C   0  0  0  0  0  0  0  0  0  0  0  0
   -1.5630    2.1020   -2.9380 C   0  0  0  0  0  0  0  0  0  0  0  0
  1  2  1  0
  2  3  1  0
  3  4  2  0
  3 24  1  0
  4  5  1  0
  5  6  1  0
  5 22  2  0
  6  7  1  0
  7  8  1  0
  8  9  1  0
  9 10  2  0
  9 14  1  0
 10 11  1  0
 11 12  2  0
 12 13  1  0
 13 14  2  0
 14 15  1  0
 15 16  2  3
 17 16  1  1
 17 18  1  0
 17 20  1  0
 18 19  1  0
 19 20  1  0
 20 21  1  6
 22 23  1  0
 22 36  1  0
 23 24  2  0
 23 33  1  0
 24 25  1  0
 25 26  1  0
 26 27  1  0
 27 28  1  6
 27 29  1  0
 27 32  1  0
 29 30  1  0
 30 31  1  0
 31 32  1  0
 33 34  1  0
 34 35  1  0
 35 36  1  0
M  CHG  2  18   1  32   1
M  END
