
     RDKit          3D

 37 41  0  0  0  0  0  0  0  0999 V2000
    5.1890    3.0190   -0.3450 C   0  0  0  0  0  0  0  0  0  0  0  0
    6.1610    2.0430   -0.0990 O   0  0  0  0  0  0  0  0  0  0  0  0
    5.8860    0.7190    0.1730 C   0  0  0  0  0  0  0  0  0  0  0  0
    4.5620    0.2460    0.2230 C   0  0  0  0  0  0  0  0  0  0  0  0
    4.3230   -1.0760    0.4950 C   0  0  0  0  0  0  0  0  0  0  0  0
    3.0460   -1.6410    0.5490 N   0  0  0  0  0  0  0  0  0  0  0  0
    1.8610   -1.0520    0.0580 C   0  0  0  0  0  0  0  0  0  0  0  0
    1.8740    0.1380   -0.5300 N   0  0  0  0  0  0  0  0  0  0  0  0
    0.8010    0.7670   -1.0210 C   0  0  0  0  0  0  0  0  0  0  0  0
   -0.3970    0.1300   -0.9060 C   0  0  0  0  0  0  0  0  0  0  0  0
   -0.4090   -1.1340   -0.2810 C   0  0  0  0  0  0  0  0  0  0  0  0
    0.6700   -1.7230    0.1920 N   0  0  0  0  0  0  0  0  0  0  0  0
   -1.6280   -1.9410   -0.1290 C   0  0  0  0  0  0  0  0  0  0  0  0
   -1.3710   -3.2800   -0.1560 C   0  0  0  0  0  0  0  0  0  0  0  0
   -2.4830   -4.1230   -0.1730 C   0  0  0  0  0  0  0  0  0  0  0  0
   -3.7890   -3.6310   -0.1660 C   0  0  0  0  0  0  0  0  0  0  0  0
   -5.1540   -4.7480   -0.1820 Cl  0  0  0  0  0  0  0  0  0  0  0  0
   -3.9840   -2.2790   -0.1380 C   0  0  0  0  0  0  0  0  0  0  0  0
   -2.8970   -1.4100   -0.1130 C   0  0  0  0  0  0  0  0  0  0  0  0
   -3.3090   -0.0160   -0.0320 C   0  0  0  0  0  0  0  0  0  0  0  0
   -4.4860    0.3310    0.7260 C   0  0  0  0  0  0  0  0  0  0  0  0
   -5.1600   -0.4350    1.6070 C   0  0  0  0  0  0  0  0  0  0  0  0
   -4.6220   -1.5850    2.1360 F   0  0  0  0  0  0  0  0  0  0  0  0
   -6.3750   -0.0170    2.1340 C   0  0  0  0  0  0  0  0  0  0  0  0
   -6.9220    1.1810    1.7830 C   0  0  0  0  0  0  0  0  0  0  0  0
   -6.2340    1.9720    0.8860 C   0  0  0  0  0  0  0  0  0  0  0  0
   -5.0460    1.5830    0.3570 C   0  0  0  0  0  0  0  0  0  0  0  0
   -4.3940    2.4100   -0.5380 O   0  0  0  0  0  0  0  0  0  0  0  0
   -4.9600    3.6520   -0.8980 C   0  0  0  0  0  0  0  0  0  0  0  0
   -2.6830    0.9280   -0.6470 N   0  0  0  0  0  0  0  0  0  0  0  0
   -1.5200    0.8960   -1.4930 C   0  0  0  0  0  0  0  0  0  0  0  0
    5.4270   -1.9300    0.7200 C   0  0  0  0  0  0  0  0  0  0  0  0
    6.7180   -1.4820    0.6740 C   0  0  0  0  0  0  0  0  0  0  0  0
    6.9360   -0.1460    0.3980 C   0  0  0  0  0  0  0  0  0  0  0  0
    8.2930    0.3800    0.3370 C   0  0  0  0  0  0  0  0  0  0  0  0
    8.5390    1.5810    0.0910 O   0  0  0  0  0  0  0  0  0  0  0  0
    9.3520   -0.4830    0.5620 O   0  0  0  0  0  0  0  0  0  0  0  0
  1  2  1  0
  2  3  1  0
  3  4  2  0
  3 34  1  0
  4  5  1  0
  5  6  1  0
  5 32  2  0
  6  7  1  0
  7  8  2  0
  7 12  1  0
  8  9  1  0
  9 10  2  0
 10 11  1  0
 10 31  1  0
 11 12  2  0
 11 13  1  0
 13 14  2  0
 13 19  1  0
 14 15  1  0
 15 16  2  0
 16 17  1  0
 16 18  1  0
 18 19  2  0
 19 20  1  0
 20 21  1  0
 20 30  2  0
 21 22  2  0
 21 27  1  0
 22 23  1  0
 22 24  1  0
 24 25  2  0
 25 26  1  0
 26 27  2  0
 27 28  1  0
 28 29  1  0
 30 31  1  0
 32 33  1  0
 33 34  2  0
 34 35  1  0
 35 36  2  0
 35 37  1  0
M  END
