
     RDKit          3D

 37 40  0  0  0  0  0  0  0  0999 V2000
   -5.7760   -0.1430    2.2630 C   0  0  0  0  0  0  0  0  0  0  0  0
   -5.3290   -0.0790    0.8090 C   0  0  2  0  0  0  0  0  0  0  0  0
   -5.9290   -1.1430   -0.0420 C   0  0  0  0  0  0  0  0  0  0  0  0
   -5.2620   -2.4780    0.0470 C   0  0  2  0  0  0  0  0  0  0  0  0
   -6.0850   -3.4920    0.7570 C   0  0  0  0  0  0  0  0  0  0  0  0
   -6.4660   -3.2300    2.0940 N   0  0  0  0  0  0  0  0  0  0  0  0
   -6.4520   -4.5790    0.1950 O   0  0  0  0  0  0  0  0  0  0  0  0
   -3.8760   -2.4360    0.6110 C   0  0  0  0  0  0  0  0  0  0  0  0
   -3.2290   -1.2020    0.2420 N   0  0  0  0  0  0  0  0  0  0  0  0
   -2.0480   -1.1310   -0.5350 C   0  0  0  0  0  0  0  0  0  0  0  0
   -1.5430   -2.2160   -0.9230 O   0  0  0  0  0  0  0  0  0  0  0  0
   -1.4480    0.1860   -0.8640 C   0  0  0  0  0  0  0  0  0  0  0  0
   -0.2600   -0.0280   -1.6480 N   0  0  1  0  0  0  0  0  0  0  0  0
    0.2100    1.1630   -2.2820 C   0  0  0  0  0  0  0  0  0  0  0  0
   -0.1390    2.4440   -1.6020 C   0  0  0  0  0  0  0  0  0  0  0  0
    0.4650    3.5710   -2.4420 C   0  0  0  0  0  0  0  0  0  0  0  0
    0.1730    4.8300   -1.8710 O   0  0  0  0  0  0  0  0  0  0  0  0
    0.5980    5.1360   -0.5870 C   0  0  0  0  0  0  0  0  0  0  0  0
    1.6220    4.5550    0.0210 C   0  0  0  0  0  0  0  0  0  0  0  0
    1.7480    5.1610    1.3730 C   0  0  0  0  0  0  0  0  0  0  0  0
    0.6890    6.1310    1.4390 N   0  0  0  0  0  0  0  0  0  0  0  0
    0.0250    6.1300    0.3340 C   0  0  0  0  0  0  0  0  0  0  0  0
    0.7370   -0.6630   -0.8210 C   0  0  0  0  0  0  0  0  0  0  0  0
    1.5760   -1.6340   -1.6090 C   0  0  0  0  0  0  0  0  0  0  0  0
    2.6010   -2.2930   -0.7250 C   0  0  0  0  0  0  0  0  0  0  0  0
    2.3070   -3.4620   -0.0910 C   0  0  0  0  0  0  0  0  0  0  0  0
    3.2720   -4.0160    0.6990 C   0  0  0  0  0  0  0  0  0  0  0  0
    4.5190   -3.3760    0.8320 C   0  0  0  0  0  0  0  0  0  0  0  0
    5.7080   -4.1520    1.8650 Cl  0  0  0  0  0  0  0  0  0  0  0  0
    4.8240   -2.2020    0.1980 C   0  0  0  0  0  0  0  0  0  0  0  0
    6.1030   -1.5260    0.3170 C   0  0  0  0  0  0  0  0  0  0  0  0
    6.3750   -0.3700   -0.3120 C   0  0  0  0  0  0  0  0  0  0  0  0
    7.7520    0.0910   -0.0110 C   0  0  0  0  0  0  0  0  0  0  0  0
    8.2640   -0.9450    0.8800 C   0  0  0  0  0  0  0  0  0  0  0  0
    7.2960   -1.8600    1.0520 C   0  0  0  0  0  0  0  0  0  0  0  0
    3.8110   -1.6560   -0.6070 C   0  0  0  0  0  0  0  0  0  0  0  0
   -3.8390    0.0270    0.7010 C   0  0  0  0  0  0  0  0  0  0  0  0
  2  1  1  1
  2  3  1  0
  2 37  1  0
  3  4  1  0
  4  5  1  1
  4  8  1  0
  5  6  1  0
  5  7  2  0
  8  9  1  0
  9 10  1  0
  9 37  1  0
 10 11  2  0
 10 12  1  0
 13 12  1  1
 13 14  1  0
 13 23  1  0
 14 15  1  0
 15 16  1  0
 16 17  1  0
 17 18  1  0
 18 19  2  0
 18 22  1  0
 19 20  1  0
 20 21  1  0
 21 22  2  0
 23 24  1  0
 24 25  1  0
 25 26  2  0
 25 36  1  0
 26 27  1  0
 27 28  2  0
 28 29  1  0
 28 30  1  0
 30 31  1  0
 30 36  2  0
 31 32  2  0
 31 35  1  0
 32 33  1  0
 33 34  1  0
 34 35  2  0
M  CHG  2  13   1  21   1
M  END
