
     RDKit          3D

 35 39  0  0  0  0  0  0  0  0999 V2000
   -5.8650    0.6770    4.7520 C   0  0  0  0  0  0  0  0  0  0  0  0
   -5.1170    0.3640    3.4900 C   0  0  0  0  0  0  0  0  0  0  0  0
   -4.0440   -0.3760    3.3420 N   0  0  0  0  0  0  0  0  0  0  0  0
   -3.7060   -0.3900    2.0430 N   0  0  0  0  0  0  0  0  0  0  0  0
   -4.5520    0.3420    1.3230 C   0  0  0  0  0  0  0  0  0  0  0  0
   -4.5780    0.6530   -0.0870 C   0  0  0  0  0  0  0  0  0  0  0  0
   -5.6130    1.3270   -0.5180 O   0  0  0  0  0  0  0  0  0  0  0  0
   -3.6560    0.3350   -1.0590 N   0  0  0  0  0  0  0  0  0  0  0  0
   -3.9770    0.2930   -2.5140 C   0  0  0  0  0  0  0  0  0  0  0  0
   -3.2500   -0.9970   -2.9070 C   0  0  0  0  0  0  0  0  0  0  0  0
   -1.9960   -0.9000   -2.0720 C   0  0  0  0  0  0  0  0  0  0  0  0
   -0.7140   -1.3780   -2.1640 C   0  0  0  0  0  0  0  0  0  0  0  0
    0.2760   -1.0900   -1.2530 C   0  0  0  0  0  0  0  0  0  0  0  0
    1.6480   -1.6250   -1.3880 C   0  0  0  0  0  0  0  0  0  0  0  0
    2.5400   -0.8020   -2.0960 N   0  0  0  0  0  0  0  0  0  0  0  0
    2.2620   -0.4660   -3.4250 C   0  0  0  0  0  0  0  0  0  0  0  0
    3.5990   -0.5010   -4.1590 C   0  0  0  0  0  0  0  0  0  0  0  0
    4.5770   -0.2710   -3.0280 C   0  0  0  0  0  0  0  0  0  0  0  0
    3.9220   -1.0240   -1.8920 C   0  0  1  0  0  0  0  0  0  0  0  0
    4.3000   -0.4660   -0.5660 C   0  0  0  0  0  0  0  0  0  0  0  0
    3.9610    0.7450   -0.0000 C   0  0  0  0  0  0  0  0  0  0  0  0
    4.5370    0.8510    1.2570 C   0  0  0  0  0  0  0  0  0  0  0  0
    4.3820    2.0090    2.1390 C   0  0  0  0  0  0  0  0  0  0  0  0
    4.9470    2.0680    3.3240 C   0  0  0  0  0  0  0  0  0  0  0  0
    5.7860    0.9780    3.8770 C   0  0  1  0  0  0  0  0  0  0  0  0
    6.1780    1.3640    5.1570 F   0  0  0  0  0  0  0  0  0  0  0  0
    5.0900   -0.2040    4.0420 F   0  0  0  0  0  0  0  0  0  0  0  0
    6.9140    0.7990    3.0930 F   0  0  0  0  0  0  0  0  0  0  0  0
    5.2110   -0.2940    1.4230 N   0  0  0  0  0  0  0  0  0  0  0  0
    5.0720   -1.0710    0.3500 N   0  0  0  0  0  0  0  0  0  0  0  0
   -0.0590   -0.2730   -0.1950 C   0  0  0  0  0  0  0  0  0  0  0  0
   -1.3220    0.2230   -0.0640 C   0  0  0  0  0  0  0  0  0  0  0  0
   -2.3040   -0.0730   -0.9820 C   0  0  0  0  0  0  0  0  0  0  0  0
   -5.4730    0.8350    2.2580 C   0  0  0  0  0  0  0  0  0  0  0  0
   -6.6230    1.7150    1.9190 C   0  0  0  0  0  0  0  0  0  0  0  0
  1  2  1  0
  2  3  2  0
  2 34  1  0
  3  4  1  0
  4  5  1  0
  5  6  1  0
  5 34  2  0
  6  7  2  0
  6  8  1  0
  8  9  1  0
  8 33  1  0
  9 10  1  0
 10 11  1  0
 11 12  2  0
 11 33  1  0
 12 13  1  0
 13 14  1  0
 13 31  2  0
 14 15  1  0
 15 16  1  0
 15 19  1  0
 16 17  1  0
 17 18  1  0
 18 19  1  0
 19 20  1  1
 20 21  2  0
 20 30  1  0
 21 22  1  0
 22 23  1  0
 22 29  2  0
 23 24  2  3
 24 25  1  0
 25 26  1  1
 25 27  1  0
 25 28  1  0
 29 30  1  0
 31 32  1  0
 32 33  2  0
 34 35  1  0
M  END
