
     RDKit          3D

 35 39  0  0  0  0  0  0  0  0999 V2000
   -6.3140    3.7570    0.0620 C   0  0  0  0  0  0  0  0  0  0  0  0
   -6.0860    2.3150    0.4150 C   0  0  0  0  0  0  0  0  0  0  0  0
   -6.8890    1.5120    1.1350 N   0  0  0  0  0  0  0  0  0  0  0  0
   -6.3740    0.3010    1.2500 N   0  0  0  0  0  0  0  0  0  0  0  0
   -5.2000    0.2760    0.5970 C   0  0  0  0  0  0  0  0  0  0  0  0
   -4.2790   -0.7330    0.4150 C   0  0  0  0  0  0  0  0  0  0  0  0
   -3.1500   -0.4480   -0.3170 C   0  0  0  0  0  0  0  0  0  0  0  0
   -2.1840   -1.4600   -0.5230 N   0  0  0  0  0  0  0  0  0  0  0  0
   -2.3220   -2.5550   -1.3040 C   0  0  0  0  0  0  0  0  0  0  0  0
   -3.5050   -2.9520   -2.1240 C   0  0  0  0  0  0  0  0  0  0  0  0
   -3.3980   -2.3700   -3.5280 C   0  0  0  0  0  0  0  0  0  0  0  0
   -4.5170   -2.7640   -4.2540 O   0  0  0  0  0  0  0  0  0  0  0  0
   -1.1820   -3.2820   -1.2410 N   0  0  0  0  0  0  0  0  0  0  0  0
   -0.3120   -2.6660   -0.4270 C   0  0  0  0  0  0  0  0  0  0  0  0
    0.9740   -2.9670   -0.0160 C   0  0  0  0  0  0  0  0  0  0  0  0
    1.5980   -2.1130    0.8370 C   0  0  0  0  0  0  0  0  0  0  0  0
    0.9760   -0.9750    1.2880 C   0  0  0  0  0  0  0  0  0  0  0  0
    1.6110   -0.0150    2.2170 C   0  0  0  0  0  0  0  0  0  0  0  0
    3.0050    0.1250    1.8200 N   0  0  0  0  0  0  0  0  0  0  0  0
    3.6920    1.0450    2.7150 C   0  0  0  0  0  0  0  0  0  0  0  0
    4.9660    0.3710    3.1650 C   0  0  0  0  0  0  0  0  0  0  0  0
    5.9890    0.6000    2.0520 C   0  0  0  0  0  0  0  0  0  0  0  0
    5.4160   -0.0520    0.8130 C   0  0  0  0  0  0  0  0  0  0  0  0
    4.4880    0.8970    0.0830 C   0  0  1  0  0  0  0  0  0  0  0  0
    4.7420    0.7920   -1.4000 C   0  0  0  0  0  0  0  0  0  0  0  0
    3.8280    1.7290   -2.1430 C   0  0  2  0  0  0  0  0  0  0  0  0
    4.0600    1.6390   -3.5220 F   0  0  0  0  0  0  0  0  0  0  0  0
    3.9910    3.0140   -1.7110 F   0  0  0  0  0  0  0  0  0  0  0  0
    2.5010    1.3680   -1.9040 F   0  0  0  0  0  0  0  0  0  0  0  0
    3.0410    0.6360    0.4490 C   0  0  0  0  0  0  0  0  0  0  0  0
   -0.2560   -0.7270    0.8680 N   0  0  0  0  0  0  0  0  0  0  0  0
   -0.9540   -1.5290    0.0140 C   0  0  0  0  0  0  0  0  0  0  0  0
   -2.9550    0.8080   -0.8460 C   0  0  0  0  0  0  0  0  0  0  0  0
   -3.8670    1.8280   -0.6730 C   0  0  0  0  0  0  0  0  0  0  0  0
   -5.0010    1.5300    0.0660 C   0  0  0  0  0  0  0  0  0  0  0  0
  1  2  1  0
  2  3  2  0
  2 35  1  0
  3  4  1  0
  4  5  1  0
  5  6  2  0
  5 35  1  0
  6  7  1  0
  7  8  1  0
  7 33  2  0
  8  9  1  0
  8 32  1  0
  9 10  1  0
  9 13  2  0
 10 11  1  0
 11 12  1  0
 13 14  1  0
 14 15  2  0
 14 32  1  0
 15 16  1  0
 16 17  2  0
 17 18  1  0
 17 31  1  0
 18 19  1  0
 19 20  1  0
 19 30  1  0
 20 21  1  0
 21 22  1  0
 22 23  1  0
 23 24  1  0
 24 25  1  6
 24 30  1  0
 25 26  1  0
 26 27  1  6
 26 28  1  0
 26 29  1  0
 31 32  2  0
 33 34  1  0
 34 35  2  0
M  END
