
     RDKit          3D

 35 39  0  0  0  0  0  0  0  0999 V2000
    4.2000   -4.4060   -0.7550 C   0  0  0  0  0  0  0  0  0  0  0  0
    4.4890   -2.9470   -0.6970 C   0  0  0  0  0  0  0  0  0  0  0  0
    5.5410   -2.3040   -0.8670 N   0  0  0  0  0  0  0  0  0  0  0  0
    5.3530   -0.9680   -0.7190 N   0  0  0  0  0  0  0  0  0  0  0  0
    4.0800   -0.6550   -0.4250 C   0  0  0  0  0  0  0  0  0  0  0  0
    3.8060    0.7740   -0.2520 C   0  0  0  0  0  0  0  0  0  0  0  0
    2.6190    1.2830    0.0400 C   0  0  0  0  0  0  0  0  0  0  0  0
    1.5510    0.4230    0.2110 N   0  0  0  0  0  0  0  0  0  0  0  0
    0.1900    0.5640    0.5150 C   0  0  0  0  0  0  0  0  0  0  0  0
   -0.3290    1.6210    0.7040 O   0  0  0  0  0  0  0  0  0  0  0  0
   -0.6620   -0.7220    0.6030 C   0  0  0  0  0  0  0  0  0  0  0  0
   -1.9780   -0.4170    0.9200 N   0  0  0  0  0  0  0  0  0  0  0  0
   -2.2350    0.0490    2.2490 C   0  0  0  0  0  0  0  0  0  0  0  0
   -2.3190   -1.0580    3.2630 C   0  0  0  0  0  0  0  0  0  0  0  0
   -2.5250   -2.4290    2.7080 C   0  0  0  0  0  0  0  0  0  0  0  0
   -3.7590   -2.6370    1.9090 C   0  0  0  0  0  0  0  0  0  0  0  0
   -4.1830   -1.4390    1.1030 C   0  0  0  0  0  0  0  0  0  0  0  0
   -3.0670   -0.9390    0.2000 C   0  0  1  0  0  0  0  0  0  0  0  0
   -3.6740    0.0910   -0.6960 C   0  0  0  0  0  0  0  0  0  0  0  0
   -4.9550    0.5790   -0.5120 C   0  0  0  0  0  0  0  0  0  0  0  0
   -5.4930    1.5390   -1.3510 C   0  0  0  0  0  0  0  0  0  0  0  0
   -6.7500    1.9690   -1.1090 F   0  0  0  0  0  0  0  0  0  0  0  0
   -4.7980    2.0590   -2.4040 C   0  0  0  0  0  0  0  0  0  0  0  0
   -5.3060    3.0010   -3.2390 F   0  0  0  0  0  0  0  0  0  0  0  0
   -3.5020    1.5850   -2.6150 C   0  0  0  0  0  0  0  0  0  0  0  0
   -2.9770    0.6230   -1.7650 C   0  0  0  0  0  0  0  0  0  0  0  0
   -1.7070    0.2320   -2.0680 F   0  0  0  0  0  0  0  0  0  0  0  0
    2.4690    2.7450    0.0500 C   0  0  0  0  0  0  0  0  0  0  0  0
    1.4490    3.5940    0.3840 C   0  0  0  0  0  0  0  0  0  0  0  0
    1.9060    4.8660    0.2760 N   0  0  0  0  0  0  0  0  0  0  0  0
    3.1540    4.8500   -0.1080 N   0  0  0  0  0  0  0  0  0  0  0  0
    3.5260    3.5810   -0.2550 C   0  0  0  0  0  0  0  0  0  0  0  0
    4.8130    3.0550   -0.7110 C   0  0  0  0  0  0  0  0  0  0  0  0
    5.0320    1.6770   -0.3230 C   0  0  0  0  0  0  0  0  0  0  0  0
    3.4110   -1.9120   -0.3880 C   0  0  0  0  0  0  0  0  0  0  0  0
  1  2  1  0
  2  3  2  0
  2 35  1  0
  3  4  1  0
  4  5  2  0
  5  6  1  0
  5 35  1  0
  6  7  2  0
  6 34  1  0
  7  8  1  0
  7 28  1  0
  8  9  1  0
  9 10  2  0
  9 11  1  0
 11 12  1  0
 12 13  1  0
 12 18  1  0
 13 14  1  0
 14 15  1  0
 15 16  1  0
 16 17  1  0
 17 18  1  0
 18 19  1  6
 19 20  2  0
 19 26  1  0
 20 21  1  0
 21 22  1  0
 21 23  2  0
 23 24  1  0
 23 25  1  0
 25 26  2  0
 26 27  1  0
 28 29  1  0
 28 32  2  0
 29 30  2  0
 30 31  1  0
 31 32  1  0
 32 33  1  0
 33 34  1  0
M  END
