
     RDKit          3D

 34 39  0  0  0  0  0  0  0  0999 V2000
   -2.6290   -2.5200    0.5560 O   0  0  0  0  0  0  0  0  0  0  0  0
   -3.7870   -2.0990    1.2100 C   0  0  0  0  0  0  0  0  0  0  0  0
   -3.8170   -0.6050    1.3900 C   0  0  0  0  0  0  0  0  0  0  0  0
   -3.7740    0.1580    0.1960 N   0  0  0  0  0  0  0  0  0  0  0  0
   -4.7910    0.6420   -0.5580 C   0  0  0  0  0  0  0  0  0  0  0  0
   -6.2310    0.5360   -0.3520 C   0  0  1  0  0  0  0  0  0  0  0  0
   -6.8210   -0.8320   -0.5830 C   0  0  0  0  0  0  0  0  0  0  0  0
   -7.4860   -1.2420    0.6860 C   0  0  0  0  0  0  0  0  0  0  0  0
   -7.5350   -0.0390    1.6010 C   0  0  0  0  0  0  0  0  0  0  0  0
   -6.7600    1.0640    0.9440 C   0  0  0  0  0  0  0  0  0  0  0  0
   -4.1920    1.2790   -1.5830 N   0  0  0  0  0  0  0  0  0  0  0  0
   -2.8640    1.2240   -1.5180 C   0  0  0  0  0  0  0  0  0  0  0  0
   -1.8350    1.7170   -2.3240 C   0  0  0  0  0  0  0  0  0  0  0  0
   -0.5160    1.4880   -1.9830 C   0  0  0  0  0  0  0  0  0  0  0  0
    0.4990    1.9470   -2.7350 N   0  0  0  0  0  0  0  0  0  0  0  0
    1.7770    1.7180   -2.3950 C   0  0  0  0  0  0  0  0  0  0  0  0
    2.0500    0.9980   -1.2530 C   0  0  0  0  0  0  0  0  0  0  0  0
    3.4100    0.7150   -0.8280 C   0  0  0  0  0  0  0  0  0  0  0  0
    3.6120   -0.0110    0.3230 C   0  0  0  0  0  0  0  0  0  0  0  0
    4.9120   -0.2770    0.7210 C   0  0  0  0  0  0  0  0  0  0  0  0
    5.9880    0.1620    0.0000 C   0  0  0  0  0  0  0  0  0  0  0  0
    7.3710   -0.1040    0.3980 C   0  0  0  0  0  0  0  0  0  0  0  0
    8.3520   -0.2430   -0.5610 C   0  0  0  0  0  0  0  0  0  0  0  0
    9.6740   -0.4930   -0.2440 C   0  0  0  0  0  0  0  0  0  0  0  0
   10.0220   -0.6070    1.0830 C   0  0  0  0  0  0  0  0  0  0  0  0
    9.0640   -0.4740    2.0750 C   0  0  0  0  0  0  0  0  0  0  0  0
    9.4880   -0.6170    3.7610 Cl  0  0  0  0  0  0  0  0  0  0  0  0
    7.7510   -0.2240    1.7180 C   0  0  0  0  0  0  0  0  0  0  0  0
    5.7610    0.8870   -1.1510 C   0  0  0  0  0  0  0  0  0  0  0  0
    4.4610    1.1710   -1.5770 C   0  0  0  0  0  0  0  0  0  0  0  0
    1.0080    0.5390   -0.5000 N   0  0  0  0  0  0  0  0  0  0  0  0
   -0.2660    0.7660   -0.8360 C   0  0  0  0  0  0  0  0  0  0  0  0
   -1.2960    0.2960   -0.0690 N   0  0  0  0  0  0  0  0  0  0  0  0
   -2.5820    0.5060   -0.3800 C   0  0  0  0  0  0  0  0  0  0  0  0
  1  2  1  0
  2  3  1  0
  3  4  1  0
  4  5  1  0
  4 34  1  0
  6  5  1  1
  5 11  2  0
  6  7  1  0
  6 10  1  0
  7  8  1  0
  8  9  1  0
  9 10  1  0
 11 12  1  0
 12 13  2  0
 12 34  1  0
 13 14  1  0
 14 15  2  0
 14 32  1  0
 15 16  1  0
 16 17  2  0
 17 18  1  0
 17 31  1  0
 18 19  2  0
 18 30  1  0
 19 20  1  0
 20 21  2  0
 21 22  1  0
 21 29  1  0
 22 23  2  0
 22 28  1  0
 23 24  1  0
 24 25  2  0
 25 26  1  0
 26 27  1  0
 26 28  2  0
 29 30  2  0
 31 32  2  0
 32 33  1  0
 33 34  2  0
M  END
