
     RDKit          3D

 29 31  0  0  0  0  0  0  0  0999 V2000
    0.4970   -1.5260   -2.7530 C   0  0  0  0  0  0  0  0  0  0  0  0
    1.6130   -1.3330   -1.7700 C   0  0  0  0  0  0  0  0  0  0  0  0
    2.7890   -1.1240   -2.2770 N   0  0  0  0  0  0  0  0  0  0  0  0
    3.9670   -0.9190   -1.5240 C   0  0  0  0  0  0  0  0  0  0  0  0
    3.6880   -0.9680   -0.1330 N   0  0  0  0  0  0  0  0  0  0  0  0
    4.8150   -0.7660    0.7500 C   0  0  0  0  0  0  0  0  0  0  0  0
    5.0870    0.4630    1.1080 C   0  0  0  0  0  0  0  0  0  0  0  0
    4.2880    1.5810    0.6360 C   0  0  0  0  0  0  0  0  0  0  0  0
    4.5510    2.8260    0.9880 C   0  0  0  0  0  0  0  0  0  0  0  0
    5.6000    3.0450    1.8150 F   0  0  0  0  0  0  0  0  0  0  0  0
    3.7540    3.9620    0.5190 C   0  0  0  0  0  0  0  0  0  0  0  0
    3.1580    4.6820    1.5230 F   0  0  0  0  0  0  0  0  0  0  0  0
    5.5640   -1.9590    1.1750 C   0  0  0  0  0  0  0  0  0  0  0  0
    6.0600   -2.5670    0.0340 F   0  0  0  0  0  0  0  0  0  0  0  0
    2.4190   -1.1950    0.4290 C   0  0  0  0  0  0  0  0  0  0  0  0
    1.3130   -1.3900   -0.3570 C   0  0  0  0  0  0  0  0  0  0  0  0
    0.0530   -1.6060    0.2980 C   0  0  0  0  0  0  0  0  0  0  0  0
    0.2210   -1.5590    1.6660 O   0  0  0  0  0  0  0  0  0  0  0  0
   -1.2680   -1.8440    0.0710 N   0  0  0  0  0  0  0  0  0  0  0  0
   -2.1480   -2.0410   -1.0150 C   0  0  0  0  0  0  0  0  0  0  0  0
   -2.9050   -0.7040   -1.2000 C   0  0  0  0  0  0  0  0  0  0  0  0
   -3.4210   -0.2500    0.1730 C   0  0  1  0  0  0  0  0  0  0  0  0
   -4.6650    0.4090   -0.0270 N   0  0  0  0  0  0  0  0  0  0  0  0
   -4.4680    1.5900   -0.8370 C   0  0  0  0  0  0  0  0  0  0  0  0
   -4.4070    2.7760    0.1120 C   0  0  0  0  0  0  0  0  0  0  0  0
   -4.7160    2.2250    1.4880 C   0  0  0  0  0  0  0  0  0  0  0  0
   -5.3350    0.8910    1.1300 C   0  0  0  0  0  0  0  0  0  0  0  0
   -3.4770   -1.4360    1.0710 C   0  0  0  0  0  0  0  0  0  0  0  0
   -2.0910   -1.9210    1.3790 C   0  0  0  0  0  0  0  0  0  0  0  0
  1  2  1  0
  2  3  2  0
  2 16  1  0
  3  4  1  0
  4  5  1  0
  5  6  1  0
  5 15  1  0
  6  7  2  3
  6 13  1  0
  7  8  1  0
  8  9  2  3
  9 10  1  0
  9 11  1  0
 11 12  1  0
 13 14  1  0
 15 16  2  0
 16 17  1  0
 17 18  2  0
 17 19  1  0
 19 20  1  0
 19 29  1  0
 20 21  1  0
 21 22  1  0
 22 23  1  6
 22 28  1  0
 23 24  1  0
 23 27  1  0
 24 25  1  0
 25 26  1  0
 26 27  1  0
 28 29  1  0
M  CHG  1   3   1
M  END
