
     RDKit          3D

 29 30  0  0  0  0  0  0  0  0999 V2000
   -4.4830    4.3600   -1.0340 C   0  0  0  0  0  0  0  0  0  0  0  0
   -3.6110    3.2120   -0.7640 C   0  0  0  0  0  0  0  0  0  0  0  0
   -3.8660    2.2320    0.0920 C   0  0  0  0  0  0  0  0  0  0  0  0
   -2.8740    1.1220    0.2600 C   0  0  0  0  0  0  0  0  0  0  0  0
   -3.4390   -0.2050   -0.0750 C   0  0  0  0  0  0  0  0  0  0  0  0
   -2.5480   -1.3340    0.0380 N   0  0  0  0  0  0  0  0  0  0  0  0
   -3.0740   -2.6880   -0.2650 C   0  0  0  0  0  0  0  0  0  0  0  0
   -1.9320   -3.4890   -0.7990 C   0  0  0  0  0  0  0  0  0  0  0  0
   -0.9940   -3.6480    0.3220 N   0  0  1  0  0  0  0  0  0  0  0  0
   -0.1690   -4.7860    0.0580 C   0  0  0  0  0  0  0  0  0  0  0  0
   -0.2530   -2.4130    0.3770 C   0  0  0  0  0  0  0  0  0  0  0  0
   -1.1870   -1.2490    0.4180 C   0  0  0  0  0  0  0  0  0  0  0  0
   -0.6900   -0.1400    0.8200 N   0  0  0  0  0  0  0  0  0  0  0  0
    0.6530    0.0270    1.2150 C   0  0  0  0  0  0  0  0  0  0  0  0
    1.6340    0.2580    0.3750 C   0  0  0  0  0  0  0  0  0  0  0  0
    1.3830    0.3550   -1.0430 C   0  0  0  0  0  0  0  0  0  0  0  0
    0.2140    0.2230   -1.5350 O   0  0  0  0  0  0  0  0  0  0  0  0
    2.9460    0.4120    0.8690 N   0  0  0  0  0  0  0  0  0  0  0  0
    3.2450    1.7810    1.1880 C   0  0  0  0  0  0  0  0  0  0  0  0
    3.3350    2.6640   -0.0270 C   0  0  0  0  0  0  0  0  0  0  0  0
    4.4320    2.2610   -0.9370 C   0  0  0  0  0  0  0  0  0  0  0  0
    5.3370    1.3070   -0.9740 C   0  0  0  0  0  0  0  0  0  0  0  0
    5.6990    0.1640   -0.1130 C   0  0  0  0  0  0  0  0  0  0  0  0
    4.6430   -0.9330   -0.1960 C   0  0  0  0  0  0  0  0  0  0  0  0
    3.6430   -0.8450    0.9280 C   0  0  0  0  0  0  0  0  0  0  0  0
   -5.1300    2.2440    0.8760 C   0  0  1  0  0  0  0  0  0  0  0  0
   -5.9390    1.1900    0.5230 F   0  0  0  0  0  0  0  0  0  0  0  0
   -4.8470    2.2090    2.2380 F   0  0  0  0  0  0  0  0  0  0  0  0
   -5.8620    3.3990    0.6950 F   0  0  0  0  0  0  0  0  0  0  0  0
  1  2  1  0
  2  3  2  3
  3  4  1  0
  3 26  1  0
  4  5  1  0
  5  6  1  0
  6  7  1  0
  6 12  1  0
  7  8  1  0
  8  9  1  0
  9 10  1  6
  9 11  1  0
 11 12  1  0
 12 13  2  3
 13 14  1  0
 14 15  2  3
 15 16  1  0
 15 18  1  0
 16 17  2  0
 18 19  1  0
 18 25  1  0
 19 20  1  0
 20 21  1  0
 21 22  2  0
 22 23  1  0
 23 24  1  0
 24 25  1  0
 26 27  1  6
 26 28  1  0
 26 29  1  0
M  CHG  1   9   1
M  END
