
     RDKit          3D

 29 30  0  0  0  0  0  0  0  0999 V2000
   -8.9940   -0.0890    0.8920 C   0  0  0  0  0  0  0  0  0  0  0  0
   -7.8150    0.4120    1.2050 C   0  0  0  0  0  0  0  0  0  0  0  0
   -6.5870   -0.1290    0.6540 C   0  0  0  0  0  0  0  0  0  0  0  0
   -5.4070    0.3870    0.9800 C   0  0  0  0  0  0  0  0  0  0  0  0
   -4.1660   -0.1500    0.4310 C   0  0  0  0  0  0  0  0  0  0  0  0
   -4.2720   -1.1910   -0.4050 N   0  0  0  0  0  0  0  0  0  0  0  0
   -3.1580   -1.7140   -0.9230 C   0  0  0  0  0  0  0  0  0  0  0  0
   -1.9100   -1.1860   -0.5980 C   0  0  0  0  0  0  0  0  0  0  0  0
   -1.7600   -0.1200    0.2550 C   0  0  0  0  0  0  0  0  0  0  0  0
   -0.5360    0.4260    0.6170 N   0  0  0  0  0  0  0  0  0  0  0  0
    0.7290    0.0120    0.1190 C   0  0  0  0  0  0  0  0  0  0  0  0
    0.8440   -0.9070   -0.7130 O   0  0  0  0  0  0  0  0  0  0  0  0
    1.9460    0.7110    0.6200 C   0  0  0  0  0  0  0  0  0  0  0  0
    3.1380    0.3540    0.1810 C   0  0  0  0  0  0  0  0  0  0  0  0
    4.6250    1.1470    0.7380 S   0  0  0  0  0  0  0  0  0  0  0  0
    6.0310    0.4150   -0.0580 C   0  0  0  0  0  0  0  0  0  0  0  0
    6.6730   -0.6230    0.4660 N   0  0  0  0  0  0  0  0  0  0  0  0
    7.7440   -1.2020   -0.1140 C   0  0  0  0  0  0  0  0  0  0  0  0
    8.3280   -2.1850    0.4100 O   0  0  0  0  0  0  0  0  0  0  0  0
    8.2130   -0.6970   -1.3200 C   0  0  0  0  0  0  0  0  0  0  0  0
    7.5850    0.3770   -1.9060 C   0  0  0  0  0  0  0  0  0  0  0  0
    8.1780    1.0090   -3.4240 Cl  0  0  0  0  0  0  0  0  0  0  0  0
    6.4780    0.9320   -1.2530 C   0  0  0  0  0  0  0  0  0  0  0  0
    5.7130    2.2950   -2.0330 Cl  0  0  0  0  0  0  0  0  0  0  0  0
    3.2290   -0.6930   -0.7640 N   0  0  0  0  0  0  0  0  0  0  0  0
    3.1100   -0.3930   -1.9720 O   0  0  0  0  0  0  0  0  0  0  0  0
    3.4370   -2.0050   -0.4580 O   0  0  0  0  0  0  0  0  0  0  0  0
   -2.9350    0.4080    0.7800 C   0  0  0  0  0  0  0  0  0  0  0  0
   -3.0000    1.5630    1.7050 C   0  0  0  0  0  0  0  0  0  0  0  0
  1  2  2  0
  2  3  1  0
  3  4  2  3
  4  5  1  0
  5  6  2  0
  5 28  1  0
  6  7  1  0
  7  8  2  0
  8  9  1  0
  9 10  1  0
  9 28  2  0
 10 11  1  0
 11 12  2  0
 11 13  1  0
 13 14  2  3
 14 15  1  0
 14 25  1  0
 15 16  1  0
 16 17  1  0
 16 23  2  0
 17 18  1  0
 18 19  2  0
 18 20  1  0
 20 21  2  0
 21 22  1  0
 21 23  1  0
 23 24  1  0
 25 26  2  0
 25 27  1  0
 28 29  1  0
M  CHG  2  25   1  27  -1
M  END
