
     RDKit          3D

 28 32  0  0  0  0  0  0  0  0999 V2000
    1.8140   -3.3270   -1.0990 N   0  0  0  0  0  0  0  0  0  0  0  0
    2.1090   -1.9800   -0.8360 C   0  0  0  0  0  0  0  0  0  0  0  0
    3.3480   -1.5020   -0.6940 N   0  0  0  0  0  0  0  0  0  0  0  0
    3.3170   -0.1940   -0.4550 C   0  0  0  0  0  0  0  0  0  0  0  0
    4.1060    0.8980   -0.2020 C   0  0  0  0  0  0  0  0  0  0  0  0
    5.5570    0.9180   -0.1310 C   0  0  0  0  0  0  0  0  0  0  0  0
    6.2680    1.9100   -0.7560 C   0  0  0  0  0  0  0  0  0  0  0  0
    7.6680    1.9400   -0.6920 C   0  0  0  0  0  0  0  0  0  0  0  0
    8.3460    0.9530    0.0110 C   0  0  0  0  0  0  0  0  0  0  0  0
    7.6330   -0.0460    0.6410 C   0  0  0  0  0  0  0  0  0  0  0  0
    6.2440   -0.0510    0.5610 C   0  0  0  0  0  0  0  0  0  0  0  0
    3.2590    1.9220   -0.0370 N   0  0  0  0  0  0  0  0  0  0  0  0
    2.0000    1.4760   -0.1840 N   0  0  0  0  0  0  0  0  0  0  0  0
    1.9620    0.1690   -0.4490 C   0  0  0  0  0  0  0  0  0  0  0  0
    1.1690   -0.9280   -0.6860 C   0  0  0  0  0  0  0  0  0  0  0  0
   -0.2530   -1.1030   -0.7070 C   0  0  0  0  0  0  0  0  0  0  0  0
   -0.6040   -2.3950   -0.6920 O   0  0  0  0  0  0  0  0  0  0  0  0
   -1.3210   -0.2340   -0.7430 N   0  0  0  0  0  0  0  0  0  0  0  0
   -1.3670    1.1970   -0.8520 C   0  0  0  0  0  0  0  0  0  0  0  0
   -1.7220    1.7750    0.5030 C   0  0  0  0  0  0  0  0  0  0  0  0
   -2.5580    0.7640    1.2810 C   0  0  0  0  0  0  0  0  0  0  0  0
   -3.4840   -0.0410    0.4270 C   0  0  1  0  0  0  0  0  0  0  0  0
   -4.1800   -1.0170    1.3850 C   0  0  0  0  0  0  0  0  0  0  0  0
   -5.4340   -1.5880    0.7930 C   0  0  0  0  0  0  0  0  0  0  0  0
   -6.4120   -0.4940    0.4020 C   0  0  0  0  0  0  0  0  0  0  0  0
   -5.7550    0.8020    0.5920 N   0  0  0  0  0  0  0  0  0  0  0  0
   -4.5560    0.7860   -0.2190 C   0  0  0  0  0  0  0  0  0  0  0  0
   -2.6860   -0.8480   -0.5930 C   0  0  0  0  0  0  0  0  0  0  0  0
  1  2  1  0
  2  3  1  0
  2 15  2  0
  3  4  1  0
  4  5  1  0
  4 14  2  0
  5  6  1  0
  5 12  2  0
  6  7  2  0
  6 11  1  0
  7  8  1  0
  8  9  2  0
  9 10  1  0
 10 11  2  0
 12 13  1  0
 13 14  1  0
 14 15  1  0
 15 16  1  0
 16 17  2  0
 16 18  1  0
 18 19  1  0
 18 28  1  0
 19 20  1  0
 20 21  1  0
 22 21  1  1
 22 23  1  0
 22 27  1  0
 22 28  1  0
 23 24  1  0
 24 25  1  0
 25 26  1  0
 26 27  1  0
M  CHG  1  26   1
M  END
