
     RDKit          3D

 29 31  0  0  0  0  0  0  0  0999 V2000
   -7.0840    2.0360    1.5600 C   0  0  0  0  0  0  0  0  0  0  0  0
   -5.8700    1.6060    0.8180 C   0  0  0  0  0  0  0  0  0  0  0  0
   -4.7620    2.4190    0.6970 C   0  0  0  0  0  0  0  0  0  0  0  0
   -3.6400    2.0190    0.0090 C   0  0  0  0  0  0  0  0  0  0  0  0
   -3.5620    0.7790   -0.5980 C   0  0  0  0  0  0  0  0  0  0  0  0
   -2.3820    0.3210   -1.3590 C   0  0  0  0  0  0  0  0  0  0  0  0
   -1.5640   -0.7440   -0.6580 C   0  0  1  0  0  0  0  0  0  0  0  0
   -0.4030   -1.1390   -1.4940 C   0  0  0  0  0  0  0  0  0  0  0  0
   -0.7090   -1.5850   -2.6520 O   0  0  0  0  0  0  0  0  0  0  0  0
    0.9750   -1.0570   -1.1090 C   0  0  0  0  0  0  0  0  0  0  0  0
    1.3550   -0.6150    0.0050 O   0  0  0  0  0  0  0  0  0  0  0  0
    2.0020   -1.4910   -2.0120 N   0  0  0  0  0  0  0  0  0  0  0  0
    3.3840   -1.4300   -1.6720 C   0  0  0  0  0  0  0  0  0  0  0  0
    4.3770   -1.8590   -2.5720 C   0  0  0  0  0  0  0  0  0  0  0  0
    5.8830   -1.5910   -1.7170 S   0  0  0  0  0  0  0  0  0  0  0  0
    5.0040   -0.9120   -0.1970 C   0  0  0  0  0  0  0  0  0  0  0  0
    5.8470   -0.4910    0.9340 C   0  0  0  0  0  0  0  0  0  0  0  0
    5.3390    0.0160    2.0960 C   0  0  0  0  0  0  0  0  0  0  0  0
    6.4030    0.3110    2.9520 C   0  0  0  0  0  0  0  0  0  0  0  0
    7.5360   -0.0170    2.3080 N   0  0  0  0  0  0  0  0  0  0  0  0
    7.2050   -0.5060    1.0810 C   0  0  0  0  0  0  0  0  0  0  0  0
    3.8730   -0.9930   -0.5500 N   0  0  0  0  0  0  0  0  0  0  0  0
   -1.2400   -0.4230    0.6980 N   0  0  0  0  0  0  0  0  0  0  0  0
   -1.5350    0.6760    1.1790 O   0  0  0  0  0  0  0  0  0  0  0  0
   -0.5920   -1.3080    1.5250 O   0  0  0  0  0  0  0  0  0  0  0  0
   -4.6850   -0.0230   -0.4650 C   0  0  0  0  0  0  0  0  0  0  0  0
   -4.6820   -1.6100   -1.2060 Cl  0  0  0  0  0  0  0  0  0  0  0  0
   -5.8190    0.3800    0.2290 C   0  0  0  0  0  0  0  0  0  0  0  0
   -7.2070   -0.6770    0.3630 Cl  0  0  0  0  0  0  0  0  0  0  0  0
  1  2  1  0
  2  3  2  0
  2 28  1  0
  3  4  1  0
  4  5  2  0
  5  6  1  0
  5 26  1  0
  7  6  1  6
  7  8  1  0
  7 23  1  0
  8  9  2  0
  8 10  1  0
 10 11  2  0
 10 12  1  0
 12 13  1  0
 13 14  2  0
 13 22  1  0
 14 15  1  0
 15 16  1  0
 16 17  1  0
 16 22  2  0
 17 18  1  0
 17 21  2  0
 18 19  2  0
 19 20  1  0
 20 21  1  0
 23 24  2  0
 23 25  1  0
 26 27  1  0
 26 28  2  0
 28 29  1  0
M  CHG  2  23   1  25  -1
M  END
