
     RDKit          3D

 42 45  0  0  0  0  0  0  0  0999 V2000
   -5.0930   -3.1650    2.5200 C   0  0  0  0  0  0  0  0  0  0  0  0
   -4.5410   -1.7890    2.2200 C   0  0  0  0  0  0  0  0  0  0  0  0
   -4.5490   -1.5060    0.7400 C   0  0  0  0  0  0  0  0  0  0  0  0
   -3.3880   -1.2780    0.0850 C   0  0  0  0  0  0  0  0  0  0  0  0
   -2.1290   -1.2640    0.6590 O   0  0  0  0  0  0  0  0  0  0  0  0
   -0.9970   -0.5970    0.2560 C   0  0  0  0  0  0  0  0  0  0  0  0
   -1.1020    0.8820    0.1960 C   0  0  0  0  0  0  0  0  0  0  0  0
   -2.2590    1.5430    0.5290 C   0  0  0  0  0  0  0  0  0  0  0  0
   -2.3170    2.9320    0.4570 C   0  0  0  0  0  0  0  0  0  0  0  0
   -1.1970    3.6620    0.0440 C   0  0  0  0  0  0  0  0  0  0  0  0
   -0.0350    3.0030   -0.2900 C   0  0  0  0  0  0  0  0  0  0  0  0
    1.1810    3.7710   -0.7430 C   0  0  0  0  0  0  0  0  0  0  0  0
    1.0280    5.2420   -0.6070 C   0  0  0  0  0  0  0  0  0  0  0  0
    0.8040    5.7370    0.7550 C   0  0  0  0  0  0  0  0  0  0  0  0
    0.7810    5.0010    1.7760 O   0  0  0  0  0  0  0  0  0  0  0  0
    0.6010    7.0950    0.9780 O   0  0  0  0  0  0  0  0  0  0  0  0
    0.3830    7.5900    2.2630 C   0  0  0  0  0  0  0  0  0  0  0  0
   -0.0210    1.6460   -0.2060 C   0  0  0  0  0  0  0  0  0  0  0  0
    1.1540    0.9290   -0.5620 N   0  0  0  0  0  0  0  0  0  0  0  0
    2.0830    0.5910    0.4280 C   0  0  0  0  0  0  0  0  0  0  0  0
    1.8630    0.9340    1.6340 O   0  0  0  0  0  0  0  0  0  0  0  0
    3.2730   -0.1400    0.0840 C   0  0  0  0  0  0  0  0  0  0  0  0
    3.5060   -0.4650   -1.1130 O   0  0  0  0  0  0  0  0  0  0  0  0
    4.2200   -0.5220    1.0800 N   0  0  0  0  0  0  0  0  0  0  0  0
    5.4060   -1.2590    0.7890 C   0  0  0  0  0  0  0  0  0  0  0  0
    5.0720   -2.6630    0.2670 C   0  0  0  0  0  0  0  0  0  0  0  0
    3.7390   -2.9980    0.2160 C   0  0  0  0  0  0  0  0  0  0  0  0
    3.7920   -4.6690   -0.4700 S   0  0  0  0  0  0  0  0  0  0  0  0
    5.5560   -4.7730   -0.6250 C   0  0  0  0  0  0  0  0  0  0  0  0
    5.9870   -3.5320   -0.1440 C   0  0  0  0  0  0  0  0  0  0  0  0
    7.4950   -3.3150   -0.0770 C   0  0  0  0  0  0  0  0  0  0  0  0
    8.1000   -3.7580    1.2010 C   0  0  1  0  0  0  0  0  0  0  0  0
    9.4800   -3.5350    1.2190 F   0  0  0  0  0  0  0  0  0  0  0  0
    7.6100   -3.1930    2.3370 F   0  0  0  0  0  0  0  0  0  0  0  0
    7.9620   -5.1480    1.2850 F   0  0  0  0  0  0  0  0  0  0  0  0
   -3.7170   -1.0690   -1.3180 C   0  0  0  0  0  0  0  0  0  0  0  0
   -2.7730   -0.7790   -2.4630 C   0  0  0  0  0  0  0  0  0  0  0  0
   -4.9930   -1.1640   -1.5230 C   0  0  0  0  0  0  0  0  0  0  0  0
   -6.2130   -1.1510   -2.3690 C   0  0  0  0  0  0  0  0  0  0  0  0
   -7.1770   -1.8750   -1.8170 C   0  0  0  0  0  0  0  0  0  0  0  0
   -6.5990   -2.4210   -0.5100 C   0  0  0  0  0  0  0  0  0  0  0  0
   -5.6280   -1.3280   -0.1570 C   0  0  1  0  0  0  0  0  0  0  0  0
  1  2  1  0
  2  3  1  0
  3  4  2  0
  3 42  1  0
  4  5  1  0
  4 36  1  0
  5  6  1  0
  6  7  1  0
  7  8  2  0
  7 18  1  0
  8  9  1  0
  9 10  2  0
 10 11  1  0
 11 12  1  0
 11 18  2  0
 12 13  1  0
 13 14  1  0
 14 15  2  0
 14 16  1  0
 16 17  1  0
 18 19  1  0
 19 20  1  0
 20 21  2  0
 20 22  1  0
 22 23  2  0
 22 24  1  0
 24 25  1  0
 25 26  1  0
 26 27  2  0
 26 30  1  0
 27 28  1  0
 28 29  1  0
 29 30  2  0
 30 31  1  0
 31 32  1  0
 32 33  1  6
 32 34  1  0
 32 35  1  0
 36 37  1  0
 36 38  2  0
 38 39  1  0
 38 42  1  0
 39 40  2  0
 40 41  1  0
 42 41  1  6
M  END
