
     RDKit          3D

 46 51  0  0  0  0  0  0  0  0999 V2000
    3.1970   -2.7560    2.0790 C   0  0  0  0  0  0  0  0  0  0  0  0
    4.0780   -1.6900    1.7980 O   0  0  0  0  0  0  0  0  0  0  0  0
    3.6260   -0.4770    1.2980 C   0  0  0  0  0  0  0  0  0  0  0  0
    2.3020   -0.2260    1.0420 C   0  0  0  0  0  0  0  0  0  0  0  0
    1.8580    0.9820    0.5440 C   0  0  0  0  0  0  0  0  0  0  0  0
    0.5270    1.2450    0.2830 C   0  0  0  0  0  0  0  0  0  0  0  0
   -0.3850    0.2340    0.5440 O   0  0  0  0  0  0  0  0  0  0  0  0
   -1.7400    0.4650    0.3520 C   0  0  0  0  0  0  0  0  0  0  0  0
   -2.4600   -0.2620   -0.5710 C   0  0  0  0  0  0  0  0  0  0  0  0
   -3.8060   -0.0470   -0.7760 C   0  0  0  0  0  0  0  0  0  0  0  0
   -4.5220    0.9160   -0.0640 C   0  0  0  0  0  0  0  0  0  0  0  0
   -5.9120    1.0800   -0.3150 N   0  0  0  0  0  0  0  0  0  0  0  0
   -6.7220    2.1410    0.0980 C   0  0  0  0  0  0  0  0  0  0  0  0
   -6.1940    3.1170    0.7460 O   0  0  0  0  0  0  0  0  0  0  0  0
   -8.1670    2.1700   -0.2050 C   0  0  2  0  0  0  0  0  0  0  0  0
   -8.8900    0.9070   -0.4710 C   0  0  0  0  0  0  0  0  0  0  0  0
  -10.0010    0.9560   -1.1220 O   0  0  0  0  0  0  0  0  0  0  0  0
   -8.4520   -0.3520   -0.0510 N   0  0  0  0  0  0  0  0  0  0  0  0
   -9.1180   -1.5690   -0.3020 C   0  0  0  0  0  0  0  0  0  0  0  0
   -8.3080   -2.7180   -0.2610 C   0  0  0  0  0  0  0  0  0  0  0  0
   -8.8940   -3.9350   -0.4720 C   0  0  0  0  0  0  0  0  0  0  0  0
  -10.2470   -4.0470   -0.7210 C   0  0  0  0  0  0  0  0  0  0  0  0
  -10.8210   -5.2520   -0.9290 F   0  0  0  0  0  0  0  0  0  0  0  0
  -11.0270   -2.9190   -0.7580 C   0  0  0  0  0  0  0  0  0  0  0  0
  -10.4480   -1.6620   -0.5450 C   0  0  0  0  0  0  0  0  0  0  0  0
   -8.5230    3.2720   -1.2360 C   0  0  0  0  0  0  0  0  0  0  0  0
   -8.9580    3.3830    0.1730 C   0  0  0  0  0  0  0  0  0  0  0  0
   -3.8020    1.6340    0.8520 C   0  0  0  0  0  0  0  0  0  0  0  0
   -2.4300    1.4180    1.0650 C   0  0  0  0  0  0  0  0  0  0  0  0
   -1.7620    2.1450    1.9980 F   0  0  0  0  0  0  0  0  0  0  0  0
    0.1220    2.4750   -0.2180 C   0  0  0  0  0  0  0  0  0  0  0  0
    1.0700    3.4450   -0.4560 C   0  0  0  0  0  0  0  0  0  0  0  0
    2.3680    3.1970   -0.2040 N   0  0  0  0  0  0  0  0  0  0  0  0
    2.7590    1.9900    0.2870 C   0  0  0  0  0  0  0  0  0  0  0  0
    4.1090    1.7570    0.5400 C   0  0  0  0  0  0  0  0  0  0  0  0
    4.5540    0.5530    1.0350 C   0  0  0  0  0  0  0  0  0  0  0  0
    5.8470    0.2500    1.3010 O   0  0  0  0  0  0  0  0  0  0  0  0
    6.9780    0.9770    1.1250 C   0  0  0  0  0  0  0  0  0  0  0  0
    7.3340    1.2860   -0.2940 C   0  0  0  0  0  0  0  0  0  0  0  0
    7.5360    0.1040   -1.1790 C   0  0  0  0  0  0  0  0  0  0  0  0
    8.5780   -0.8060   -0.8650 N   0  0  2  0  0  0  0  0  0  0  0  0
    8.2350   -1.8860    0.0250 C   0  0  0  0  0  0  0  0  0  0  0  0
    9.3000   -2.9710   -0.2140 C   0  0  0  0  0  0  0  0  0  0  0  0
   10.5440   -2.4350    0.1540 O   0  0  0  0  0  0  0  0  0  0  0  0
   10.8720   -1.3430   -0.6450 C   0  0  0  0  0  0  0  0  0  0  0  0
    9.8250   -0.2270   -0.4430 C   0  0  0  0  0  0  0  0  0  0  0  0
  1  2  1  0
  2  3  1  0
  3  4  2  0
  3 36  1  0
  4  5  1  0
  5  6  2  0
  5 34  1  0
  6  7  1  0
  6 31  1  0
  7  8  1  0
  8  9  2  0
  8 29  1  0
  9 10  1  0
 10 11  2  0
 11 12  1  0
 11 28  1  0
 12 13  1  0
 13 14  2  0
 15 13  1  1
 15 16  1  0
 15 26  1  0
 15 27  1  0
 16 17  2  0
 16 18  1  0
 18 19  1  0
 19 20  2  0
 19 25  1  0
 20 21  1  0
 21 22  2  0
 22 23  1  0
 22 24  1  0
 24 25  2  0
 26 27  1  0
 28 29  2  0
 29 30  1  0
 31 32  2  0
 32 33  1  0
 33 34  2  0
 34 35  1  0
 35 36  2  0
 36 37  1  0
 37 38  1  0
 38 39  1  0
 39 40  1  0
 41 40  1  1
 41 42  1  0
 41 46  1  0
 42 43  1  0
 43 44  1  0
 44 45  1  0
 45 46  1  0
M  CHG  1  41   1
M  END
