
     RDKit          3D

 42 45  0  0  0  0  0  0  0  0999 V2000
   -3.4280   -1.3350   -0.2360 C   0  0  0  0  0  0  0  0  0  0  0  0
   -2.7790   -0.1230   -0.7490 C   0  0  0  0  0  0  0  0  0  0  0  0
   -3.3250    0.6410   -1.6370 C   0  0  0  0  0  0  0  0  0  0  0  0
   -4.6110    0.3820   -2.2430 C   0  0  2  0  0  0  0  0  0  0  0  0
   -4.8190    1.2700   -3.4640 C   0  0  0  0  0  0  0  0  0  0  0  0
   -5.8340    0.7750   -4.2260 O   0  0  0  0  0  0  0  0  0  0  0  0
   -5.6970    0.2580   -1.3560 N   0  0  0  0  0  0  0  0  0  0  0  0
   -6.1560    1.2950   -0.5310 C   0  0  0  0  0  0  0  0  0  0  0  0
   -5.5960    2.4480   -0.5480 O   0  0  0  0  0  0  0  0  0  0  0  0
   -7.2820    1.0290    0.3440 C   0  0  0  0  0  0  0  0  0  0  0  0
   -7.8890   -0.1660    0.3630 C   0  0  0  0  0  0  0  0  0  0  0  0
   -9.0110   -0.4360    1.2410 C   0  0  0  0  0  0  0  0  0  0  0  0
   -9.4800    0.4940    2.1200 C   0  0  0  0  0  0  0  0  0  0  0  0
  -10.5410    0.1540    2.9540 C   0  0  0  0  0  0  0  0  0  0  0  0
  -11.0780   -1.0960    2.8610 C   0  0  0  0  0  0  0  0  0  0  0  0
  -12.1190   -1.4890    3.6360 F   0  0  0  0  0  0  0  0  0  0  0  0
  -10.6160   -2.0390    1.9810 N   0  0  0  0  0  0  0  0  0  0  0  0
   -9.6030   -1.7090    1.1920 C   0  0  0  0  0  0  0  0  0  0  0  0
   -1.2680    0.0550   -0.6000 C   0  0  0  0  0  0  0  0  0  0  0  0
   -0.4310   -0.5120    0.1720 C   0  0  0  0  0  0  0  0  0  0  0  0
   -0.7370   -1.5450    1.2330 C   0  0  0  0  0  0  0  0  0  0  0  0
    0.9710   -0.2390   -0.2880 C   0  0  0  0  0  0  0  0  0  0  0  0
    2.2490   -0.7190   -0.0850 C   0  0  0  0  0  0  0  0  0  0  0  0
    3.2270   -0.4290   -0.9020 C   0  0  0  0  0  0  0  0  0  0  0  0
    4.6220   -0.8930   -1.0060 C   0  0  0  0  0  0  0  0  0  0  0  0
    4.9910   -1.8070   -0.3310 O   0  0  0  0  0  0  0  0  0  0  0  0
    5.4180   -0.2370   -1.8530 O   0  0  0  0  0  0  0  0  0  0  0  0
    6.6590   -0.1390   -2.3650 C   0  0  0  0  0  0  0  0  0  0  0  0
    7.6010   -0.0510   -1.1850 C   0  0  0  0  0  0  0  0  0  0  0  0
    7.6820   -1.2090   -0.4070 C   0  0  0  0  0  0  0  0  0  0  0  0
    8.4980   -1.2240    0.6720 C   0  0  0  0  0  0  0  0  0  0  0  0
    9.2320   -0.0570    0.9560 C   0  0  0  0  0  0  0  0  0  0  0  0
   10.0120   -0.1410    2.0620 O   0  0  0  0  0  0  0  0  0  0  0  0
   10.7540    0.9430    2.5480 C   0  0  2  0  0  0  0  0  0  0  0  0
   11.6020    0.5720    3.7220 C   0  0  0  0  0  0  0  0  0  0  0  0
    9.7180    1.8140    3.0920 F   0  0  0  0  0  0  0  0  0  0  0  0
    9.1610    1.0760    0.1870 C   0  0  0  0  0  0  0  0  0  0  0  0
    8.3100    1.0870   -0.9380 C   0  0  0  0  0  0  0  0  0  0  0  0
    8.2450    2.2060   -1.6990 F   0  0  0  0  0  0  0  0  0  0  0  0
    2.4560    0.6010   -2.0990 S   0  0  0  0  0  0  0  0  0  0  0  0
    0.8100    0.5520   -1.3760 C   0  0  0  0  0  0  0  0  0  0  0  0
   -0.5670    1.0610   -1.4790 C   0  0  0  0  0  0  0  0  0  0  0  0
  1  2  1  0
  2  3  2  3
  2 19  1  0
  3  4  1  0
  4  5  1  6
  4  7  1  0
  5  6  1  0
  7  8  1  0
  8  9  2  0
  8 10  1  0
 10 11  2  3
 11 12  1  0
 12 13  2  0
 12 18  1  0
 13 14  1  0
 14 15  2  0
 15 16  1  0
 15 17  1  0
 17 18  2  0
 19 20  2  0
 19 42  1  0
 20 21  1  0
 20 22  1  0
 22 23  1  0
 22 41  2  0
 23 24  2  0
 24 25  1  0
 24 40  1  0
 25 26  2  0
 25 27  1  0
 27 28  1  0
 28 29  1  0
 29 30  2  0
 29 38  1  0
 30 31  1  0
 31 32  2  0
 32 33  1  0
 32 37  1  0
 33 34  1  0
 34 35  1  1
 34 36  1  0
 37 38  2  0
 38 39  1  0
 40 41  1  0
 41 42  1  0
M  END
