
     RDKit          3D

 29 32  0  0  0  0  0  0  0  0999 V2000
   -2.8150    1.6200   -1.2910 C   0  0  0  0  0  0  0  0  0  0  0  0
   -3.9440    1.0620   -0.5210 C   0  0  1  0  0  0  0  0  0  0  0  0
   -4.7380    2.1120    0.2650 C   0  0  0  0  0  0  0  0  0  0  0  0
   -4.8750    0.1470   -1.3450 C   0  0  2  0  0  0  0  0  0  0  0  0
   -5.9300    0.8060   -2.0330 N   0  0  0  0  0  0  0  0  0  0  0  0
   -5.1950   -0.5000   -0.0150 C   0  0  0  0  0  0  0  0  0  0  0  0
   -3.7410   -0.1350    0.3610 C   0  0  1  0  0  0  0  0  0  0  0  0
   -2.8780   -1.1660   -0.0040 N   0  0  0  0  0  0  0  0  0  0  0  0
   -1.4980   -1.0330   -0.1140 C   0  0  0  0  0  0  0  0  0  0  0  0
   -0.7360   -0.8490    1.1550 C   0  0  0  0  0  0  0  0  0  0  0  0
    0.7280   -0.7540    0.8670 N   0  0  0  0  0  0  0  0  0  0  0  0
    1.2320    0.5210    0.6600 C   0  0  0  0  0  0  0  0  0  0  0  0
    0.3090    1.4620    0.6410 O   0  0  0  0  0  0  0  0  0  0  0  0
    2.5890    0.9400    0.4680 C   0  0  0  0  0  0  0  0  0  0  0  0
    2.8270    2.3100    0.2290 C   0  0  0  0  0  0  0  0  0  0  0  0
    4.0910    2.7920    0.0270 C   0  0  0  0  0  0  0  0  0  0  0  0
    5.1580    1.9570    0.0530 C   0  0  0  0  0  0  0  0  0  0  0  0
    6.4200    2.4540   -0.1530 C   0  0  0  0  0  0  0  0  0  0  0  0
    7.5040    1.6070   -0.1290 C   0  0  0  0  0  0  0  0  0  0  0  0
    7.2750    0.2750    0.1030 C   0  0  0  0  0  0  0  0  0  0  0  0
    6.0210   -0.1880    0.3030 N   0  0  0  0  0  0  0  0  0  0  0  0
    4.9320    0.5910    0.2910 C   0  0  0  0  0  0  0  0  0  0  0  0
    3.6820    0.1950    0.4780 N   0  0  0  0  0  0  0  0  0  0  0  0
    1.4660   -1.9510    0.8150 C   0  0  0  0  0  0  0  0  0  0  0  0
    0.9040   -3.1800    1.1640 C   0  0  0  0  0  0  0  0  0  0  0  0
    1.5980   -4.3830    1.0960 C   0  0  0  0  0  0  0  0  0  0  0  0
    2.9070   -4.3620    0.6640 C   0  0  0  0  0  0  0  0  0  0  0  0
    3.4350   -3.1400    0.3280 C   0  0  0  0  0  0  0  0  0  0  0  0
    2.7260   -2.0020    0.4090 N   0  0  0  0  0  0  0  0  0  0  0  0
  2  1  1  6
  2  3  1  0
  2  4  1  0
  2  7  1  0
  4  5  1  1
  4  6  1  0
  6  7  1  0
  7  8  1  6
  8  9  1  0
  9 10  1  0
 10 11  1  0
 11 12  1  0
 11 24  1  0
 12 13  2  0
 12 14  1  0
 14 15  2  0
 14 23  1  0
 15 16  1  0
 16 17  2  0
 17 18  1  0
 17 22  1  0
 18 19  2  0
 19 20  1  0
 20 21  2  0
 21 22  1  0
 22 23  2  0
 24 25  2  0
 24 29  1  0
 25 26  1  0
 26 27  2  0
 27 28  1  0
 28 29  2  0
M  CHG  1   5   1
M  END
