
     RDKit          3D

 29 32  0  0  0  0  0  0  0  0999 V2000
   -5.9550    3.2620    0.2270 C   0  0  0  0  0  0  0  0  0  0  0  0
   -6.5840    1.9090    0.0350 C   0  0  0  0  0  0  0  0  0  0  0  0
   -5.8000    0.9080    0.8620 C   0  0  0  0  0  0  0  0  0  0  0  0
   -4.3780    0.9310    0.3500 C   0  0  0  0  0  0  0  0  0  0  0  0
   -3.5630   -0.0400    1.1470 C   0  0  2  0  0  0  0  0  0  0  0  0
   -2.1320   -0.1030    0.7320 C   0  0  0  0  0  0  0  0  0  0  0  0
   -1.8050   -1.0980   -0.2410 N   0  0  0  0  0  0  0  0  0  0  0  0
   -0.4280   -1.2280   -0.6610 C   0  0  0  0  0  0  0  0  0  0  0  0
   -0.0720   -2.1400   -1.6190 C   0  0  0  0  0  0  0  0  0  0  0  0
    1.2460   -2.2340   -1.9880 C   0  0  0  0  0  0  0  0  0  0  0  0
    2.2140   -1.4300   -1.4140 C   0  0  0  0  0  0  0  0  0  0  0  0
    1.7870   -0.5290   -0.4500 C   0  0  0  0  0  0  0  0  0  0  0  0
    2.6950    0.3090    0.2160 N   0  0  0  0  0  0  0  0  0  0  0  0
    4.0920    0.2610    0.0950 C   0  0  0  0  0  0  0  0  0  0  0  0
    4.8420   -0.8760    0.0630 C   0  0  0  0  0  0  0  0  0  0  0  0
    6.2310   -0.8690   -0.0950 C   0  0  0  0  0  0  0  0  0  0  0  0
    6.8540    0.3510   -0.2220 C   0  0  0  0  0  0  0  0  0  0  0  0
    6.1200    1.5170   -0.1910 C   0  0  0  0  0  0  0  0  0  0  0  0
    4.7530    1.4850   -0.0350 C   0  0  0  0  0  0  0  0  0  0  0  0
    6.7960    2.7750   -0.3230 N   0  0  0  0  0  0  0  0  0  0  0  0
    8.2110    2.8020   -0.4830 C   0  0  0  0  0  0  0  0  0  0  0  0
    8.7950    3.7910   -0.9550 O   0  0  0  0  0  0  0  0  0  0  0  0
    9.0080    1.5930   -0.0640 C   0  0  0  0  0  0  0  0  0  0  0  0
    8.2630    0.4010   -0.3850 N   0  0  0  0  0  0  0  0  0  0  0  0
    0.4890   -0.4470   -0.0980 N   0  0  0  0  0  0  0  0  0  0  0  0
   -2.7690   -1.9820   -0.8270 C   0  0  0  0  0  0  0  0  0  0  0  0
   -4.1120   -1.9520   -0.1820 C   0  0  1  0  0  0  0  0  0  0  0  0
   -4.6740   -3.3510   -0.0520 C   0  0  0  0  0  0  0  0  0  0  0  0
   -4.0900   -1.3720    1.1440 N   0  0  0  0  0  0  0  0  0  0  0  0
  1  2  1  0
  2  3  1  0
  3  4  1  0
  5  4  1  6
  5  6  1  0
  5 29  1  0
  6  7  1  0
  7  8  1  0
  7 26  1  0
  8  9  2  0
  8 25  1  0
  9 10  1  0
 10 11  2  0
 11 12  1  0
 12 13  1  0
 12 25  2  0
 13 14  1  0
 14 15  2  0
 14 19  1  0
 15 16  1  0
 16 17  2  0
 17 18  1  0
 17 24  1  0
 18 19  2  0
 18 20  1  0
 20 21  1  0
 21 22  2  0
 21 23  1  0
 23 24  1  0
 26 27  1  0
 27 28  1  1
 27 29  1  0
M  CHG  1  29   1
M  END
