
     RDKit          3D

 14 14  0  0  0  0  0  0  0  0999 V2000
    4.8240   -0.1160   -0.2120 O   0  0  0  0  0  0  0  0  0  0  0  0
    3.5850    0.4940   -0.4120 C   0  0  2  0  0  0  0  0  0  0  0  0
    3.5270    1.5940    0.4150 O   0  0  0  0  0  0  0  0  0  0  0  0
    2.5290   -0.5320   -0.0900 C   0  0  0  0  0  0  0  0  0  0  0  0
    1.1830   -0.0120   -0.2630 N   0  0  0  0  0  0  0  0  0  0  0  0
    0.2960   -1.1100   -0.0070 C   0  0  0  0  0  0  0  0  0  0  0  0
   -1.1040   -0.7050    0.3440 C   0  0  1  0  0  0  0  0  0  0  0  0
   -1.8180   -1.9050    0.5580 O   0  0  0  0  0  0  0  0  0  0  0  0
   -1.2110    0.0980    1.5990 C   0  0  0  0  0  0  0  0  0  0  0  0
   -1.8560    1.4510    1.2760 C   0  0  0  0  0  0  0  0  0  0  0  0
   -3.1230    1.2960    0.7660 O   0  0  0  0  0  0  0  0  0  0  0  0
   -3.2140    0.3530   -0.2440 C   0  0  2  0  0  0  0  0  0  0  0  0
   -3.7010   -0.8290    0.3580 O   0  0  0  0  0  0  0  0  0  0  0  0
   -1.8130    0.0210   -0.7630 C   0  0  0  0  0  0  0  0  0  0  0  0
  2  1  1  1
  2  3  1  0
  2  4  1  0
  4  5  1  0
  5  6  1  0
  6  7  1  0
  7  8  1  1
  7  9  1  0
  7 14  1  0
  9 10  1  0
 10 11  1  0
 11 12  1  0
 12 13  1  1
 12 14  1  0
M  CHG  1   5   1
M  END
