
     RDKit          3D

 14 14  0  0  0  0  0  0  0  0999 V2000
    0.8010   -1.0820    2.3990 C   0  0  0  0  0  0  0  0  0  0  0  0
    0.6850   -0.0100    1.5430 O   0  0  0  0  0  0  0  0  0  0  0  0
    0.3070   -0.3580    0.2470 C   0  0  2  0  0  0  0  0  0  0  0  0
    1.3810   -0.0780   -0.6820 C   0  0  2  0  0  0  0  0  0  0  0  0
    2.5550   -0.8790   -0.2780 N   0  0  0  0  0  0  0  0  0  0  0  0
    1.8940    1.3180   -0.7970 C   0  0  0  0  0  0  0  0  0  0  0  0
    2.9160    1.2680   -1.7850 O   0  0  0  0  0  0  0  0  0  0  0  0
   -1.0570    0.1160    0.0120 C   0  0  2  0  0  0  0  0  0  0  0  0
   -1.5930   -0.2740   -1.3550 C   0  0  0  0  0  0  0  0  0  0  0  0
   -1.6180   -1.6700   -1.4600 O   0  0  0  0  0  0  0  0  0  0  0  0
   -1.3890    1.5370    0.2160 C   0  0  0  0  0  0  0  0  0  0  0  0
   -2.8050    1.4370    0.1100 O   0  0  0  0  0  0  0  0  0  0  0  0
   -3.0530    0.3870    0.9920 C   0  0  0  0  0  0  0  0  0  0  0  0
   -1.9700   -0.4730    0.9250 O   0  0  0  0  0  0  0  0  0  0  0  0
  1  2  1  0
  3  2  1  1
  3  4  1  0
  3  8  1  0
  4  5  1  1
  4  6  1  0
  6  7  1  0
  8  9  1  6
  8 11  1  0
  8 14  1  0
  9 10  1  0
 11 12  1  0
 12 13  1  0
 13 14  1  0
M  CHG  1   5   1
M  END
