
     RDKit          3D

 28 30  0  0  0  0  0  0  0  0999 V2000
    7.4680    2.3960   -0.2100 C   0  0  0  0  0  0  0  0  0  0  0  0
    6.1280    1.9410   -0.1630 O   0  0  0  0  0  0  0  0  0  0  0  0
    5.8430    0.5640   -0.1070 C   0  0  0  0  0  0  0  0  0  0  0  0
    4.4850    0.2120   -0.0640 C   0  0  0  0  0  0  0  0  0  0  0  0
    4.1050   -1.1020   -0.0080 C   0  0  0  0  0  0  0  0  0  0  0  0
    2.7910   -1.5950    0.0330 N   0  0  0  0  0  0  0  0  0  0  0  0
    1.5900   -0.8550   -0.0600 C   0  0  0  0  0  0  0  0  0  0  0  0
    1.6520    0.3850   -0.1970 O   0  0  0  0  0  0  0  0  0  0  0  0
    0.3040   -1.5180    0.0020 N   0  0  0  0  0  0  0  0  0  0  0  0
   -0.8720   -0.6900   -0.1010 C   0  0  0  0  0  0  0  0  0  0  0  0
   -2.1320   -1.2460   -0.0510 C   0  0  0  0  0  0  0  0  0  0  0  0
   -3.2580   -0.4770   -0.1470 C   0  0  0  0  0  0  0  0  0  0  0  0
   -4.6160   -0.9870   -0.1030 C   0  0  0  0  0  0  0  0  0  0  0  0
   -4.9250   -2.2610    0.0360 C   0  0  0  0  0  0  0  0  0  0  0  0
   -6.3020   -2.7870    0.0810 C   0  0  0  0  0  0  0  0  0  0  0  0
   -7.2810   -1.7930   -0.0380 O   0  0  0  0  0  0  0  0  0  0  0  0
   -7.0100   -0.4610   -0.1830 C   0  0  0  0  0  0  0  0  0  0  0  0
   -5.7370   -0.0580   -0.2160 C   0  0  0  0  0  0  0  0  0  0  0  0
   -3.0680    0.8670   -0.2940 N   0  0  0  0  0  0  0  0  0  0  0  0
   -1.8680    1.4240   -0.3440 C   0  0  0  0  0  0  0  0  0  0  0  0
   -1.7070    2.8410   -0.5000 N   0  0  0  0  0  0  0  0  0  0  0  0
   -2.8150    3.6970   -0.6050 C   0  0  0  0  0  0  0  0  0  0  0  0
   -3.9750    3.2250   -0.5630 O   0  0  0  0  0  0  0  0  0  0  0  0
   -2.5600    5.4710   -0.7990 S   0  0  0  0  0  0  0  0  0  0  0  0
   -0.7790    0.6380   -0.2470 N   0  0  0  0  0  0  0  0  0  0  0  0
    5.1580   -2.0240    0.0010 C   0  0  0  0  0  0  0  0  0  0  0  0
    6.4820   -1.6410   -0.0420 C   0  0  0  0  0  0  0  0  0  0  0  0
    6.8190   -0.3440   -0.0970 N   0  0  0  0  0  0  0  0  0  0  0  0
  1  2  1  0
  2  3  1  0
  3  4  2  0
  3 28  1  0
  4  5  1  0
  5  6  1  0
  5 26  2  0
  6  7  1  0
  7  8  2  0
  7  9  1  0
  9 10  1  0
 10 11  2  0
 10 25  1  0
 11 12  1  0
 12 13  1  0
 12 19  2  0
 13 14  2  0
 13 18  1  0
 14 15  1  0
 15 16  1  0
 16 17  1  0
 17 18  2  0
 19 20  1  0
 20 21  1  0
 20 25  2  0
 21 22  1  0
 22 23  2  0
 22 24  1  0
 26 27  1  0
 27 28  2  0
M  END
