
     RDKit          3D

 32 34  0  0  0  0  0  0  0  0999 V2000
   -2.6940    4.1990   -2.0220 C   0  0  0  0  0  0  0  0  0  0  0  0
   -1.8930    4.2740   -0.7470 C   0  0  0  0  0  0  0  0  0  0  0  0
   -1.3960    2.9640   -0.3500 N   0  0  0  0  0  0  0  0  0  0  0  0
   -2.2330    1.8820   -0.0700 C   0  0  0  0  0  0  0  0  0  0  0  0
   -3.4820    2.0930   -0.1580 O   0  0  0  0  0  0  0  0  0  0  0  0
   -1.7650    0.5630    0.3140 C   0  0  0  0  0  0  0  0  0  0  0  0
   -0.6410   -0.1460    0.0120 C   0  0  0  0  0  0  0  0  0  0  0  0
    0.3630    0.1890   -1.0020 C   0  0  0  0  0  0  0  0  0  0  0  0
    0.1190    1.0360   -1.8820 O   0  0  0  0  0  0  0  0  0  0  0  0
    1.6170   -0.4690   -0.9620 N   0  0  0  0  0  0  0  0  0  0  0  0
    2.6790   -0.2470   -1.8740 C   0  0  0  0  0  0  0  0  0  0  0  0
    2.6240    0.5510   -2.9840 C   0  0  0  0  0  0  0  0  0  0  0  0
    3.7290    0.6680   -3.8240 C   0  0  0  0  0  0  0  0  0  0  0  0
    4.8750    0.0130   -3.5830 N   0  0  0  0  0  0  0  0  0  0  0  0
    4.9820   -0.7900   -2.4980 C   0  0  0  0  0  0  0  0  0  0  0  0
    6.2620   -1.5050   -2.2690 C   0  0  0  0  0  0  0  0  0  0  0  0
    3.8990   -0.9030   -1.6770 C   0  0  0  0  0  0  0  0  0  0  0  0
    4.0290   -1.7250   -0.5720 O   0  0  0  0  0  0  0  0  0  0  0  0
    4.5170   -1.1580    0.6290 C   0  0  2  0  0  0  0  0  0  0  0  0
    4.5710   -2.1330    1.6350 F   0  0  0  0  0  0  0  0  0  0  0  0
    3.8190   -0.0400    1.0310 F   0  0  0  0  0  0  0  0  0  0  0  0
    5.8320   -0.7060    0.4330 F   0  0  0  0  0  0  0  0  0  0  0  0
   -0.6460   -1.2900    0.7400 N   0  0  0  0  0  0  0  0  0  0  0  0
   -1.7360   -1.3270    1.4870 C   0  0  0  0  0  0  0  0  0  0  0  0
   -2.2130   -2.2760    2.4020 C   0  0  0  0  0  0  0  0  0  0  0  0
   -1.4010   -3.5040    2.6390 C   0  0  0  0  0  0  0  0  0  0  0  0
   -3.4000   -2.0330    3.0350 C   0  0  0  0  0  0  0  0  0  0  0  0
   -3.9910   -3.2200    4.1750 Cl  0  0  0  0  0  0  0  0  0  0  0  0
   -4.1630   -0.9100    2.8300 C   0  0  0  0  0  0  0  0  0  0  0  0
   -5.4610   -0.6780    3.5430 C   0  0  0  0  0  0  0  0  0  0  0  0
   -3.6820    0.0260    1.9210 C   0  0  0  0  0  0  0  0  0  0  0  0
   -2.4870   -0.1990    1.2720 C   0  0  0  0  0  0  0  0  0  0  0  0
  1  2  1  0
  2  3  1  0
  3  4  1  0
  4  5  2  0
  4  6  1  0
  6  7  2  0
  6 32  1  0
  7  8  1  0
  7 23  1  0
  8  9  2  0
  8 10  1  0
 10 11  1  0
 11 12  2  0
 11 17  1  0
 12 13  1  0
 13 14  2  0
 14 15  1  0
 15 16  1  0
 15 17  2  0
 17 18  1  0
 18 19  1  0
 19 20  1  1
 19 21  1  0
 19 22  1  0
 23 24  1  0
 24 25  2  0
 24 32  1  0
 25 26  1  0
 25 27  1  0
 27 28  1  0
 27 29  2  0
 29 30  1  0
 29 31  1  0
 31 32  2  0
M  END
