
     RDKit          3D

 32 34  0  0  0  0  0  0  0  0999 V2000
    6.2620    2.4830   -0.9180 C   0  0  0  0  0  0  0  0  0  0  0  0
    4.9250    1.7810   -0.9680 C   0  0  0  0  0  0  0  0  0  0  0  0
    4.5010    1.1450    0.0620 C   0  0  0  0  0  0  0  0  0  0  0  0
    5.3570    1.1550    1.2140 N   0  0  0  0  0  0  0  0  0  0  0  0
    5.0470    0.4320    2.4090 C   0  0  0  0  0  0  0  0  0  0  0  0
    3.7300   -0.1980    2.4140 C   0  0  0  0  0  0  0  0  0  0  0  0
    2.8720   -0.2280    1.3820 C   0  0  0  0  0  0  0  0  0  0  0  0
    1.6260   -0.9130    1.6190 C   0  0  0  0  0  0  0  0  0  0  0  0
    0.3600   -0.8550    1.1480 C   0  0  0  0  0  0  0  0  0  0  0  0
   -0.4090   -1.8140    1.7730 C   0  0  0  0  0  0  0  0  0  0  0  0
   -1.8200   -2.1300    1.5930 C   0  0  0  0  0  0  0  0  0  0  0  0
   -2.3060   -3.0410    2.2690 O   0  0  0  0  0  0  0  0  0  0  0  0
   -2.6410   -1.4190    0.6650 N   0  0  0  0  0  0  0  0  0  0  0  0
   -4.0070   -1.6440    0.4100 C   0  0  0  0  0  0  0  0  0  0  0  0
   -4.7100   -2.7070    0.8820 C   0  0  0  0  0  0  0  0  0  0  0  0
   -6.0630   -2.9110    0.5510 C   0  0  0  0  0  0  0  0  0  0  0  0
   -6.6970   -2.0230   -0.2650 C   0  0  0  0  0  0  0  0  0  0  0  0
   -8.3770   -2.2600   -0.6880 Cl  0  0  0  0  0  0  0  0  0  0  0  0
   -5.9840   -0.9200   -0.7600 C   0  0  0  0  0  0  0  0  0  0  0  0
   -4.6610   -0.7280   -0.4310 C   0  0  0  0  0  0  0  0  0  0  0  0
   -3.9480    0.4090   -0.8710 N   0  0  0  0  0  0  0  0  0  0  0  0
   -4.4340    1.2860   -1.8740 C   0  0  0  0  0  0  0  0  0  0  0  0
   -3.6180    2.4930   -2.2910 C   0  0  0  0  0  0  0  0  0  0  0  0
   -5.5100    1.1610   -2.4770 O   0  0  0  0  0  0  0  0  0  0  0  0
    0.4200   -2.4230    2.6100 N   0  0  0  0  0  0  0  0  0  0  0  0
    1.5810   -1.9150    2.5290 O   0  0  0  0  0  0  0  0  0  0  0  0
    3.2270    0.4460    0.1210 C   0  0  0  0  0  0  0  0  0  0  0  0
    2.4510    0.3340   -0.8980 C   0  0  0  0  0  0  0  0  0  0  0  0
    2.3950    0.7270   -2.2910 C   0  0  1  0  0  0  0  0  0  0  0  0
    1.1680    0.1460   -2.8230 F   0  0  0  0  0  0  0  0  0  0  0  0
    2.1250    2.0740   -2.5090 F   0  0  0  0  0  0  0  0  0  0  0  0
    3.3200    0.1770   -3.1380 F   0  0  0  0  0  0  0  0  0  0  0  0
  1  2  1  0
  2  3  2  3
  3  4  1  0
  3 27  1  0
  4  5  1  0
  5  6  1  0
  6  7  2  0
  7  8  1  0
  7 27  1  0
  8  9  2  0
  8 26  1  0
  9 10  1  0
 10 11  1  0
 10 25  2  0
 11 12  2  0
 11 13  1  0
 13 14  1  0
 14 15  2  0
 14 20  1  0
 15 16  1  0
 16 17  2  0
 17 18  1  0
 17 19  1  0
 19 20  2  0
 20 21  1  0
 21 22  1  0
 22 23  1  0
 22 24  2  0
 25 26  1  0
 27 28  2  3
 28 29  1  0
 29 30  1  6
 29 31  1  0
 29 32  1  0
M  END
