
     RDKit          3D

 32 34  0  0  0  0  0  0  0  0999 V2000
    4.9540   -2.5540    0.1410 C   0  0  0  0  0  0  0  0  0  0  0  0
    4.7330   -1.2690   -0.1310 C   0  0  0  0  0  0  0  0  0  0  0  0
    3.3540   -0.9140   -0.5340 C   0  0  0  0  0  0  0  0  0  0  0  0
    2.7290    0.0110    0.3800 N   0  0  0  0  0  0  0  0  0  0  0  0
    1.2920    0.0730    0.4650 C   0  0  0  0  0  0  0  0  0  0  0  0
    0.7650   -0.9400    1.2930 C   0  0  0  0  0  0  0  0  0  0  0  0
    1.6690   -1.8790    1.9890 C   0  0  0  0  0  0  0  0  0  0  0  0
   -0.5980   -0.9900    1.3990 C   0  0  0  0  0  0  0  0  0  0  0  0
   -1.4140   -0.1010    0.7350 C   0  0  0  0  0  0  0  0  0  0  0  0
   -2.8560   -0.3180    0.8680 C   0  0  0  0  0  0  0  0  0  0  0  0
   -3.3080   -0.7290    2.0000 O   0  0  0  0  0  0  0  0  0  0  0  0
   -3.7880   -0.1100   -0.1650 N   0  0  0  0  0  0  0  0  0  0  0  0
   -5.1830   -0.2780   -0.0680 C   0  0  0  0  0  0  0  0  0  0  0  0
   -5.9320   -0.4370   -1.2510 C   0  0  0  0  0  0  0  0  0  0  0  0
   -7.2960   -0.5720   -1.2010 C   0  0  0  0  0  0  0  0  0  0  0  0
   -7.9930   -0.5600   -0.0220 C   0  0  0  0  0  0  0  0  0  0  0  0
   -7.2850   -0.4070    1.1360 C   0  0  0  0  0  0  0  0  0  0  0  0
   -8.1250   -0.3820    2.6670 Cl  0  0  0  0  0  0  0  0  0  0  0  0
   -5.8830   -0.2670    1.1050 C   0  0  0  0  0  0  0  0  0  0  0  0
   -0.8850    0.8690   -0.0550 C   0  0  0  0  0  0  0  0  0  0  0  0
   -1.3860    1.8830   -0.7870 N   0  0  0  0  0  0  0  0  0  0  0  0
   -0.4260    2.5690   -1.3500 N   0  0  0  0  0  0  0  0  0  0  0  0
    0.7950    2.0430   -1.0160 C   0  0  0  0  0  0  0  0  0  0  0  0
    2.0630    2.5570   -1.4200 C   0  0  0  0  0  0  0  0  0  0  0  0
    1.9950    3.5980   -2.2000 O   0  0  0  0  0  0  0  0  0  0  0  0
    3.3450    2.1840   -1.1540 O   0  0  0  0  0  0  0  0  0  0  0  0
    4.4600    2.9050   -1.6920 C   0  0  0  0  0  0  0  0  0  0  0  0
    0.5070    0.9770   -0.2060 C   0  0  0  0  0  0  0  0  0  0  0  0
    5.8860   -0.3680   -0.0280 C   0  0  2  0  0  0  0  0  0  0  0  0
    6.3460    0.0850   -1.2260 F   0  0  0  0  0  0  0  0  0  0  0  0
    6.9740   -1.0350    0.5650 F   0  0  0  0  0  0  0  0  0  0  0  0
    5.5380    0.7220    0.7490 F   0  0  0  0  0  0  0  0  0  0  0  0
  1  2  2  0
  2  3  1  0
  2 29  1  0
  3  4  1  0
  4  5  1  0
  5  6  2  0
  5 28  1  0
  6  7  1  0
  6  8  1  0
  8  9  2  0
  9 10  1  0
  9 20  1  0
 10 11  2  0
 10 12  1  0
 12 13  1  0
 13 14  2  0
 13 19  1  0
 14 15  1  0
 15 16  2  0
 16 17  1  0
 17 18  1  0
 17 19  2  0
 20 21  1  0
 20 28  2  0
 21 22  1  0
 22 23  2  0
 23 24  1  0
 23 28  1  0
 24 25  2  0
 24 26  1  0
 26 27  1  0
 29 30  1  6
 29 31  1  0
 29 32  1  0
M  END
