
     RDKit          3D

 33 37  0  0  0  0  0  0  0  0999 V2000
   -7.5340    3.6810    0.0290 C   0  0  0  0  0  0  0  0  0  0  0  0
   -6.6920    2.4520    0.1600 C   0  0  0  0  0  0  0  0  0  0  0  0
   -5.9520    2.1920    1.2870 C   0  0  0  0  0  0  0  0  0  0  0  0
   -5.1870    1.0320    1.3520 C   0  0  0  0  0  0  0  0  0  0  0  0
   -5.1530    0.1330    0.3070 C   0  0  0  0  0  0  0  0  0  0  0  0
   -4.3550   -1.0800    0.3730 C   0  0  0  0  0  0  0  0  0  0  0  0
   -3.1800   -1.0930    1.0780 C   0  0  0  0  0  0  0  0  0  0  0  0
   -2.4020   -2.2100    1.1650 N   0  0  0  0  0  0  0  0  0  0  0  0
   -2.7870   -3.3320    0.5470 C   0  0  0  0  0  0  0  0  0  0  0  0
   -1.9760   -4.4870    0.6390 N   0  0  0  0  0  0  0  0  0  0  0  0
   -0.7590   -4.4510    1.3850 C   0  0  0  0  0  0  0  0  0  0  0  0
    0.2040   -3.4480    0.8420 C   0  0  0  0  0  0  0  0  0  0  0  0
   -0.1570   -2.7840   -0.1650 O   0  0  0  0  0  0  0  0  0  0  0  0
    1.4670   -3.2160    1.3920 N   0  0  0  0  0  0  0  0  0  0  0  0
    2.4170   -2.2500    0.8810 C   0  0  0  0  0  0  0  0  0  0  0  0
    3.4750   -1.7860    1.0260 N   0  0  0  0  0  0  0  0  0  0  0  0
    4.0970   -0.8670    0.3590 C   0  0  0  0  0  0  0  0  0  0  0  0
    3.3970   -0.3280   -0.7230 C   0  0  0  0  0  0  0  0  0  0  0  0
    1.8710   -1.2500   -0.6370 S   0  0  0  0  0  0  0  0  0  0  0  0
    3.9220    0.6990   -1.5790 C   0  0  0  0  0  0  0  0  0  0  0  0
    3.1300    1.2720   -2.3660 O   0  0  0  0  0  0  0  0  0  0  0  0
    5.3700    1.1030   -1.5640 C   0  0  1  0  0  0  0  0  0  0  0  0
    5.5060    2.3830   -0.8160 C   0  0  0  0  0  0  0  0  0  0  0  0
    6.9080    2.6610   -0.3390 C   0  0  0  0  0  0  0  0  0  0  0  0
    7.5700    1.4930    0.1820 N   0  0  0  0  0  0  0  0  0  0  0  0
    7.5210    0.3620   -0.7100 C   0  0  0  0  0  0  0  0  0  0  0  0
    6.0800   -0.0540   -0.8460 C   0  0  1  0  0  0  0  0  0  0  0  0
    5.4660   -0.2470    0.5250 C   0  0  0  0  0  0  0  0  0  0  0  0
   -3.9480   -3.3310   -0.1550 N   0  0  0  0  0  0  0  0  0  0  0  0
   -4.7310   -2.2480   -0.2560 C   0  0  0  0  0  0  0  0  0  0  0  0
   -5.9090    0.4330   -0.8020 C   0  0  0  0  0  0  0  0  0  0  0  0
   -6.6760    1.5740   -0.8930 C   0  0  0  0  0  0  0  0  0  0  0  0
   -7.4550    1.8200   -2.1160 C   0  0  0  0  0  0  0  0  0  0  0  0
  1  2  1  0
  2  3  2  0
  2 32  1  0
  3  4  1  0
  4  5  2  0
  5  6  1  0
  5 31  1  0
  6  7  2  0
  6 30  1  0
  7  8  1  0
  8  9  2  0
  9 10  1  0
  9 29  1  0
 10 11  1  0
 11 12  1  0
 12 13  2  0
 12 14  1  0
 14 15  1  0
 15 16  2  0
 15 19  1  0
 16 17  1  0
 17 18  2  0
 17 28  1  0
 18 19  1  0
 18 20  1  0
 20 21  2  0
 20 22  1  0
 22 23  1  1
 22 27  1  0
 23 24  1  0
 24 25  1  0
 25 26  1  0
 27 26  1  1
 27 28  1  0
 29 30  2  0
 31 32  2  0
 32 33  1  0
M  CHG  1  25   1
M  END
