
     RDKit          3D

 33 36  0  0  0  0  0  0  0  0999 V2000
    6.3270    2.2290   -0.0140 C   0  0  0  0  0  0  0  0  0  0  0  0
    6.2280    1.0340   -0.8070 N   0  0  0  0  0  0  0  0  0  0  0  0
    5.0720    0.2570   -0.4290 C   0  0  1  0  0  0  0  0  0  0  0  0
    3.8200    1.0390   -0.4210 C   0  0  0  0  0  0  0  0  0  0  0  0
    2.5970    0.2390   -0.7220 C   0  0  0  0  0  0  0  0  0  0  0  0
    2.6910   -1.1690   -0.3230 C   0  0  0  0  0  0  0  0  0  0  0  0
    3.8830   -1.8520   -0.5670 C   0  0  0  0  0  0  0  0  0  0  0  0
    4.0860   -3.1380   -0.2160 C   0  0  0  0  0  0  0  0  0  0  0  0
    3.0540   -3.8350    0.4310 C   0  0  0  0  0  0  0  0  0  0  0  0
    3.2270   -5.2330    0.8430 C   0  0  0  0  0  0  0  0  0  0  0  0
    1.8810   -3.1600    0.6690 C   0  0  0  0  0  0  0  0  0  0  0  0
    1.6860   -1.8520    0.3050 C   0  0  0  0  0  0  0  0  0  0  0  0
    0.3710   -1.2850    0.5550 C   0  0  0  0  0  0  0  0  0  0  0  0
   -0.1330   -1.6360    1.6410 O   0  0  0  0  0  0  0  0  0  0  0  0
   -0.3440   -0.4330   -0.2750 N   0  0  0  0  0  0  0  0  0  0  0  0
   -1.6410    0.1250   -0.0510 C   0  0  0  0  0  0  0  0  0  0  0  0
   -2.2200    1.4450   -1.1410 S   0  0  0  0  0  0  0  0  0  0  0  0
   -3.8040    1.6360   -0.4200 C   0  0  0  0  0  0  0  0  0  0  0  0
   -4.7890    2.6170   -0.8970 C   0  0  0  0  0  0  0  0  0  0  0  0
   -6.0690    2.7100   -0.4910 C   0  0  0  0  0  0  0  0  0  0  0  0
   -6.5880    3.7700   -1.1710 N   0  0  0  0  0  0  0  0  0  0  0  0
   -7.9500    4.2470   -1.0530 C   0  0  0  0  0  0  0  0  0  0  0  0
   -5.6540    4.2840   -1.9480 N   0  0  0  0  0  0  0  0  0  0  0  0
   -4.5360    3.5960   -1.8010 N   0  0  0  0  0  0  0  0  0  0  0  0
   -3.8190    0.7120    0.5880 C   0  0  0  0  0  0  0  0  0  0  0  0
   -4.9930    0.7130    1.5070 C   0  0  0  0  0  0  0  0  0  0  0  0
   -5.6580   -0.3660    1.7650 C   0  0  0  0  0  0  0  0  0  0  0  0
   -5.4560   -1.7080    1.2560 C   0  0  0  0  0  0  0  0  0  0  0  0
   -6.2130   -2.6300    1.6540 O   0  0  0  0  0  0  0  0  0  0  0  0
   -2.6840   -0.0470    0.7480 C   0  0  0  0  0  0  0  0  0  0  0  0
   -2.6200   -1.0090    1.8420 C   0  0  0  0  0  0  0  0  0  0  0  0
   -2.5870   -1.8140    2.7650 N   0  0  0  0  0  0  0  0  0  0  0  0
    4.9510   -1.0320   -1.2260 C   0  0  0  0  0  0  0  0  0  0  0  0
  1  2  1  0
  3  2  1  6
  3  4  1  0
  3 33  1  0
  4  5  1  0
  5  6  1  0
  6  7  2  0
  6 12  1  0
  7  8  1  0
  7 33  1  0
  8  9  2  0
  9 10  1  0
  9 11  1  0
 11 12  2  0
 12 13  1  0
 13 14  2  0
 13 15  1  0
 15 16  1  0
 16 17  1  0
 16 30  2  0
 17 18  1  0
 18 19  1  0
 18 25  2  0
 19 20  2  0
 19 24  1  0
 20 21  1  0
 21 22  1  0
 21 23  1  0
 23 24  2  0
 25 26  1  0
 25 30  1  0
 26 27  2  3
 27 28  1  0
 28 29  2  0
 30 31  1  0
 31 32  3  0
M  CHG  1   2   1
M  END
