
     RDKit          3D

 32 34  0  0  0  0  0  0  0  0999 V2000
    7.2590    1.5320    1.4300 C   0  0  0  0  0  0  0  0  0  0  0  0
    6.0990    1.0410    0.6200 C   0  0  0  0  0  0  0  0  0  0  0  0
    5.8710    1.7210   -0.4240 O   0  0  0  0  0  0  0  0  0  0  0  0
    5.3480   -0.0670    0.9670 N   0  0  0  0  0  0  0  0  0  0  0  0
    4.2400   -0.5990    0.2380 C   0  0  0  0  0  0  0  0  0  0  0  0
    3.8300   -1.8590    0.6270 C   0  0  0  0  0  0  0  0  0  0  0  0
    2.7650   -2.4970    0.0440 C   0  0  0  0  0  0  0  0  0  0  0  0
    2.1040   -1.8160   -0.9440 C   0  0  0  0  0  0  0  0  0  0  0  0
    2.4840   -0.5340   -1.3540 C   0  0  0  0  0  0  0  0  0  0  0  0
    1.6050    0.0800   -2.3140 N   0  0  0  0  0  0  0  0  0  0  0  0
    0.5160    0.7210   -1.6390 C   0  0  0  0  0  0  0  0  0  0  0  0
    0.8050    1.7200   -0.7500 C   0  0  0  0  0  0  0  0  0  0  0  0
   -0.1430    2.1240    0.1650 C   0  0  0  0  0  0  0  0  0  0  0  0
    0.0650    3.1670    1.2050 C   0  0  1  0  0  0  0  0  0  0  0  0
    1.3600    3.4170    1.4850 F   0  0  0  0  0  0  0  0  0  0  0  0
   -0.5920    4.3410    0.7610 F   0  0  0  0  0  0  0  0  0  0  0  0
   -0.8000    2.6870    2.6930 Cl  0  0  0  0  0  0  0  0  0  0  0  0
   -1.2980    1.4740    0.1000 N   0  0  0  0  0  0  0  0  0  0  0  0
   -1.6140    0.4730   -0.7540 C   0  0  0  0  0  0  0  0  0  0  0  0
   -2.7890   -0.2900   -0.3310 C   0  0  0  0  0  0  0  0  0  0  0  0
   -2.5100   -1.0770    0.7470 C   0  0  0  0  0  0  0  0  0  0  0  0
   -3.4900   -1.9220    1.4080 C   0  0  0  0  0  0  0  0  0  0  0  0
   -3.1960   -2.7120    2.4790 F   0  0  0  0  0  0  0  0  0  0  0  0
   -4.7200   -1.9270    0.9530 C   0  0  0  0  0  0  0  0  0  0  0  0
   -5.1220   -1.1310   -0.1690 C   0  0  0  0  0  0  0  0  0  0  0  0
   -6.3720   -0.9970   -0.4900 C   0  0  0  0  0  0  0  0  0  0  0  0
   -6.8870   -0.2160   -1.6100 C   0  0  0  0  0  0  0  0  0  0  0  0
   -7.2900   -1.6570    0.3510 O   0  0  0  0  0  0  0  0  0  0  0  0
   -4.0900   -0.2730   -0.8400 C   0  0  0  0  0  0  0  0  0  0  0  0
   -4.4120    0.4200   -1.8220 O   0  0  0  0  0  0  0  0  0  0  0  0
   -0.6990    0.1040   -1.6370 N   0  0  0  0  0  0  0  0  0  0  0  0
    3.5370    0.0290   -0.7630 C   0  0  0  0  0  0  0  0  0  0  0  0
  1  2  1  0
  2  3  2  0
  2  4  1  0
  4  5  1  0
  5  6  2  0
  5 32  1  0
  6  7  1  0
  7  8  2  0
  8  9  1  0
  9 10  1  0
  9 32  2  0
 10 11  1  0
 11 12  2  0
 11 31  1  0
 12 13  1  0
 13 14  1  0
 13 18  2  0
 14 15  1  1
 14 16  1  0
 14 17  1  0
 18 19  1  0
 19 20  1  0
 19 31  2  0
 20 21  2  0
 20 29  1  0
 21 22  1  0
 22 23  1  0
 22 24  2  0
 24 25  1  0
 25 26  2  3
 25 29  1  0
 26 27  1  0
 26 28  1  0
 29 30  2  0
M  END
