
     RDKit          3D

 17 19  0  0  0  0  0  0  0  0999 V2000
   -2.9800   -2.7570    0.4450 N   0  0  0  0  0  0  0  0  0  0  0  0
   -2.6750   -1.6300   -0.0250 C   0  0  0  0  0  0  0  0  0  0  0  0
   -3.6940   -1.0210   -0.7530 O   0  0  0  0  0  0  0  0  0  0  0  0
   -1.3810   -1.0390    0.1760 C   0  0  0  0  0  0  0  0  0  0  0  0
   -0.3280   -1.7770    0.5530 N   0  0  0  0  0  0  0  0  0  0  0  0
    0.7940   -1.0550    0.4930 C   0  0  0  0  0  0  0  0  0  0  0  0
    2.1240   -1.4130    0.6700 C   0  0  0  0  0  0  0  0  0  0  0  0
    3.0710   -0.4820    0.3680 N   0  0  0  0  0  0  0  0  0  0  0  0
    4.3760   -0.5530    0.3450 N   0  0  0  0  0  0  0  0  0  0  0  0
    4.9430    0.5530   -0.0640 C   0  0  0  0  0  0  0  0  0  0  0  0
    3.8920    1.4110   -0.3400 N   0  0  0  0  0  0  0  0  0  0  0  0
    2.7510    0.7690   -0.0680 C   0  0  0  0  0  0  0  0  0  0  0  0
    1.4270    1.1210   -0.2220 C   0  0  0  0  0  0  0  0  0  0  0  0
    0.4030    0.2100    0.0590 C   0  0  0  0  0  0  0  0  0  0  0  0
   -0.9570    0.2570   -0.1400 C   0  0  0  0  0  0  0  0  0  0  0  0
   -1.8870    1.2650   -0.6470 C   0  0  0  0  0  0  0  0  0  0  0  0
   -2.0270    2.4490    0.1350 N   0  0  0  0  0  0  0  0  0  0  0  0
  1  2  2  0
  2  3  1  0
  2  4  1  0
  4  5  1  0
  4 15  2  0
  5  6  1  0
  6  7  2  0
  6 14  1  0
  7  8  1  0
  8  9  1  0
  8 12  1  0
  9 10  2  0
 10 11  1  0
 11 12  2  0
 12 13  1  0
 13 14  2  0
 14 15  1  0
 15 16  1  0
 16 17  1  0
M  CHG  1  17   1
M  END
