
     RDKit          3D

 16 18  0  0  0  0  0  0  0  0999 V2000
   -1.3300   -2.7620   -0.6840 C   0  0  0  0  0  0  0  0  0  0  0  0
   -0.8380   -1.4490   -0.2820 C   0  0  0  0  0  0  0  0  0  0  0  0
    0.5010   -1.1980   -0.0610 C   0  0  0  0  0  0  0  0  0  0  0  0
    0.9540    0.0430    0.3180 C   0  0  0  0  0  0  0  0  0  0  0  0
    0.0480    1.0670    0.4810 C   0  0  0  0  0  0  0  0  0  0  0  0
   -1.2520    0.8240    0.2660 N   0  0  0  0  0  0  0  0  0  0  0  0
   -2.3220    1.6610    0.3610 C   0  0  0  0  0  0  0  0  0  0  0  0
   -2.2130    3.0220    0.7310 N   0  0  0  0  0  0  0  0  0  0  0  0
   -3.4330    0.9230    0.0390 C   0  0  0  0  0  0  0  0  0  0  0  0
   -3.0280   -0.3270   -0.2420 N   0  0  0  0  0  0  0  0  0  0  0  0
   -1.7070   -0.3990   -0.1080 C   0  0  0  0  0  0  0  0  0  0  0  0
    2.4280   -0.0710    0.4670 C   0  0  2  0  0  0  0  0  0  0  0  0
    3.1430    1.2020    0.1120 C   0  0  0  0  0  0  0  0  0  0  0  0
    2.8860    1.6580   -1.1560 O   0  0  0  0  0  0  0  0  0  0  0  0
    2.7520   -1.1730   -0.3790 N   0  0  0  0  0  0  0  0  0  0  0  0
    1.6620   -2.0520   -0.1580 N   0  0  0  0  0  0  0  0  0  0  0  0
  1  2  1  0
  2  3  2  0
  2 11  1  0
  3  4  1  0
  3 16  1  0
  4  5  2  0
  4 12  1  0
  5  6  1  0
  6  7  1  0
  6 11  1  0
  7  8  1  0
  7  9  2  0
  9 10  1  0
 10 11  2  0
 12 13  1  6
 12 15  1  0
 13 14  1  0
 15 16  1  0
M  CHG  1  10   1
M  END
