
     RDKit          3D

 17 18  0  0  0  0  0  0  0  0999 V2000
    2.1470    0.1750   -2.7730 N   0  0  0  0  0  0  0  0  0  0  0  0
    1.8680   -0.0810   -1.3500 C   0  0  0  0  0  0  0  0  0  0  0  0
    1.2940   -1.2370   -1.0840 C   0  0  0  0  0  0  0  0  0  0  0  0
    0.8860   -1.7940    0.1840 C   0  0  0  0  0  0  0  0  0  0  0  0
    1.6940   -2.7450    0.6160 O   0  0  0  0  0  0  0  0  0  0  0  0
   -0.2330   -1.4570    0.9850 N   0  0  0  0  0  0  0  0  0  0  0  0
   -1.6090   -1.3220    0.6530 C   0  0  0  0  0  0  0  0  0  0  0  0
   -2.6910   -1.9920    1.2750 C   0  0  0  0  0  0  0  0  0  0  0  0
   -3.8050   -1.6140    0.6640 N   0  0  0  0  0  0  0  0  0  0  0  0
   -3.5050   -0.7660   -0.2810 N   0  0  0  0  0  0  0  0  0  0  0  0
   -2.1490   -0.5440   -0.3320 C   0  0  0  0  0  0  0  0  0  0  0  0
   -1.4350    0.3760   -1.2410 C   0  0  0  0  0  0  0  0  0  0  0  0
   -0.7190    1.4370   -0.9940 C   0  0  0  0  0  0  0  0  0  0  0  0
   -0.3710    2.0780    0.2130 N   0  0  0  0  0  0  0  0  0  0  0  0
    0.6270    2.0080    0.9910 C   0  0  0  0  0  0  0  0  0  0  0  0
    1.8490    1.1750    0.8800 C   0  0  0  0  0  0  0  0  0  0  0  0
    2.2660    0.9270   -0.4460 N   0  0  0  0  0  0  0  0  0  0  0  0
  1  2  1  0
  2  3  2  0
  2 17  1  0
  3  4  1  0
  4  5  2  0
  4  6  1  0
  6  7  1  0
  7  8  1  0
  7 11  2  0
  8  9  2  0
  9 10  1  0
 10 11  1  0
 11 12  1  0
 12 13  2  0
 13 14  1  0
 14 15  2  0
 15 16  1  0
 16 17  1  0
M  CHG  1  14   1
M  END
