
     RDKit          3D

 17 18  0  0  0  0  0  0  0  0999 V2000
   -0.7390    3.3070   -0.2900 C   0  0  0  0  0  0  0  0  0  0  0  0
   -0.0300    2.2940   -1.1260 C   0  0  0  0  0  0  0  0  0  0  0  0
   -0.4370    0.9220   -0.8500 N   0  0  0  0  0  0  0  0  0  0  0  0
   -1.7510    0.5070   -1.2020 C   0  0  0  0  0  0  0  0  0  0  0  0
   -2.4500   -0.2720   -0.1360 C   0  0  0  0  0  0  0  0  0  0  0  0
   -3.7890   -0.1710    0.0990 C   0  0  0  0  0  0  0  0  0  0  0  0
   -4.0940   -0.9990    1.1070 N   0  0  0  0  0  0  0  0  0  0  0  0
   -2.9880   -1.6030    1.4970 N   0  0  0  0  0  0  0  0  0  0  0  0
   -1.9510   -1.1900    0.7650 C   0  0  0  0  0  0  0  0  0  0  0  0
   -0.5720   -1.6540    0.9300 C   0  0  0  0  0  0  0  0  0  0  0  0
   -0.4210   -2.8360    1.6280 O   0  0  0  0  0  0  0  0  0  0  0  0
    0.5000   -1.0910    0.5010 N   0  0  0  0  0  0  0  0  0  0  0  0
    0.5750    0.1230   -0.2360 C   0  0  0  0  0  0  0  0  0  0  0  0
    1.8020    0.5510   -0.3590 N   0  0  0  0  0  0  0  0  0  0  0  0
    2.8840   -0.1490    0.2000 C   0  0  0  0  0  0  0  0  0  0  0  0
    3.3960   -1.2720   -0.2760 C   0  0  0  0  0  0  0  0  0  0  0  0
    4.5040   -1.8630    0.4140 N   0  0  0  0  0  0  0  0  0  0  0  0
  1  2  1  0
  2  3  1  0
  3  4  1  0
  3 13  1  0
  4  5  1  0
  5  6  2  0
  5  9  1  0
  6  7  1  0
  7  8  1  0
  8  9  2  0
  9 10  1  0
 10 11  1  0
 10 12  2  0
 12 13  1  0
 13 14  2  3
 14 15  1  0
 15 16  2  3
 16 17  1  0
M  CHG  1  17   1
M  END
