
     RDKit          3D

 17 19  0  0  0  0  0  0  0  0999 V2000
    5.1750    0.9240    0.1700 N   0  0  0  0  0  0  0  0  0  0  0  0
    3.8180    0.5560   -0.0790 C   0  0  0  0  0  0  0  0  0  0  0  0
    3.2200   -0.6240    0.2120 N   0  0  0  0  0  0  0  0  0  0  0  0
    1.9460   -0.6030   -0.1670 C   0  0  0  0  0  0  0  0  0  0  0  0
    1.7180    0.6390   -0.7230 C   0  0  0  0  0  0  0  0  0  0  0  0
    2.8840    1.3350   -0.6580 N   0  0  0  0  0  0  0  0  0  0  0  0
    0.3080    0.7310   -1.1700 C   0  0  0  0  0  0  0  0  0  0  0  0
   -0.3400   -0.3290   -0.4000 N   0  0  0  0  0  0  0  0  0  0  0  0
   -1.6740   -0.2960    0.0690 C   0  0  0  0  0  0  0  0  0  0  0  0
   -1.9290   -0.3770    1.4200 C   0  0  0  0  0  0  0  0  0  0  0  0
   -3.2430   -0.3460    1.9040 C   0  0  0  0  0  0  0  0  0  0  0  0
   -3.4350   -0.4320    3.2760 O   0  0  0  0  0  0  0  0  0  0  0  0
   -4.2920   -0.2340    1.0180 C   0  0  0  0  0  0  0  0  0  0  0  0
   -4.0150   -0.1570   -0.2870 N   0  0  0  0  0  0  0  0  0  0  0  0
   -2.7540   -0.1850   -0.7770 C   0  0  0  0  0  0  0  0  0  0  0  0
   -2.5620   -0.0970   -2.1880 N   0  0  0  0  0  0  0  0  0  0  0  0
    0.6580   -1.3710   -0.2380 C   0  0  0  0  0  0  0  0  0  0  0  0
  1  2  1  0
  2  3  1  0
  2  6  2  0
  3  4  1  0
  4  5  2  0
  4 17  1  0
  5  6  1  0
  5  7  1  0
  7  8  1  0
  8  9  1  0
  8 17  1  0
  9 10  2  0
  9 15  1  0
 10 11  1  0
 11 12  1  0
 11 13  2  0
 13 14  1  0
 14 15  2  0
 15 16  1  0
M  CHG  1   6   1
M  END
