
     RDKit          3D

 21 23  0  0  0  0  0  0  0  0999 V2000
    2.1430   -0.8500   -2.6140 O   0  0  0  0  0  0  0  0  0  0  0  0
    2.8950   -0.5740   -1.5020 C   0  0  0  0  0  0  0  0  0  0  0  0
    4.1700   -0.0580   -1.6430 C   0  0  0  0  0  0  0  0  0  0  0  0
    4.9380    0.2210   -0.5220 C   0  0  0  0  0  0  0  0  0  0  0  0
    4.4430   -0.0110    0.7430 C   0  0  0  0  0  0  0  0  0  0  0  0
    3.1650   -0.5270    0.8840 C   0  0  0  0  0  0  0  0  0  0  0  0
    2.3950   -0.8070   -0.2340 C   0  0  0  0  0  0  0  0  0  0  0  0
    1.0310   -1.3440   -0.0350 C   0  0  0  0  0  0  0  0  0  0  0  0
   -0.0370   -0.2890   -0.2030 C   0  0  0  0  0  0  0  0  0  0  0  0
   -1.4240   -0.8910    0.0050 C   0  0  0  0  0  0  0  0  0  0  0  0
   -2.4930    0.1460   -0.1600 C   0  0  2  0  0  0  0  0  0  0  0  0
   -2.4420    0.6920   -1.4430 O   0  0  0  0  0  0  0  0  0  0  0  0
   -2.3350    1.2420    0.8410 C   0  0  0  0  0  0  0  0  0  0  0  0
   -3.4040    2.1140    0.8890 O   0  0  0  0  0  0  0  0  0  0  0  0
   -4.6350    1.5130    0.9480 C   0  0  0  0  0  0  0  0  0  0  0  0
   -4.8910    0.5280   -0.1800 C   0  0  0  0  0  0  0  0  0  0  0  0
   -3.8320   -0.5640   -0.0330 C   0  0  2  0  0  0  0  0  0  0  0  0
   -3.9240   -1.2260    1.1670 O   0  0  0  0  0  0  0  0  0  0  0  0
    5.4050    0.3510    1.6690 O   0  0  0  0  0  0  0  0  0  0  0  0
    6.3960    1.0730    0.9960 C   0  0  0  0  0  0  0  0  0  0  0  0
    6.2200    0.7310   -0.3580 O   0  0  0  0  0  0  0  0  0  0  0  0
  1  2  1  0
  2  3  2  0
  2  7  1  0
  3  4  1  0
  4  5  2  0
  4 21  1  0
  5  6  1  0
  5 19  1  0
  6  7  2  0
  7  8  1  0
  8  9  1  0
  9 10  1  0
 10 11  1  0
 11 12  1  6
 11 13  1  0
 11 17  1  0
 13 14  1  0
 14 15  1  0
 15 16  1  0
 16 17  1  0
 17 18  1  1
 19 20  1  0
 20 21  1  0
M  END
