
     RDKit          3D

 21 22  0  0  0  0  0  0  0  0999 V2000
   -0.6820    2.0970    1.5510 C   0  0  0  0  0  0  0  0  0  0  0  0
   -1.3580    2.0290    0.3270 O   0  0  0  0  0  0  0  0  0  0  0  0
   -2.1890    0.9900    0.0040 C   0  0  0  0  0  0  0  0  0  0  0  0
   -3.5140    1.1290    0.4210 C   0  0  0  0  0  0  0  0  0  0  0  0
   -3.9270    2.2410    1.1120 O   0  0  0  0  0  0  0  0  0  0  0  0
   -4.4050    0.1290    0.1270 C   0  0  0  0  0  0  0  0  0  0  0  0
   -4.0220   -0.9900   -0.5600 C   0  0  0  0  0  0  0  0  0  0  0  0
   -4.9250   -2.0050   -0.8580 O   0  0  0  0  0  0  0  0  0  0  0  0
   -2.7070   -1.1010   -0.9590 C   0  0  0  0  0  0  0  0  0  0  0  0
   -1.7610   -0.0990   -0.6790 C   0  0  0  0  0  0  0  0  0  0  0  0
   -0.3890   -0.2600   -1.1080 C   0  0  0  0  0  0  0  0  0  0  0  0
   -0.1500   -0.4140   -2.4820 C   0  0  0  0  0  0  0  0  0  0  0  0
    1.0910   -0.6000   -3.0120 C   0  0  0  0  0  0  0  0  0  0  0  0
    2.1780   -0.6430   -2.1840 C   0  0  0  0  0  0  0  0  0  0  0  0
    3.4430   -0.8360   -2.7700 O   0  0  0  0  0  0  0  0  0  0  0  0
    1.9910   -0.4980   -0.8430 C   0  0  0  0  0  0  0  0  0  0  0  0
    3.1030   -0.5440   -0.0230 O   0  0  0  0  0  0  0  0  0  0  0  0
    2.9260   -0.3940    1.3750 C   0  0  0  0  0  0  0  0  0  0  0  0
    4.2190   -0.4660    2.1280 C   0  0  0  0  0  0  0  0  0  0  0  0
    3.9290   -0.3090    3.4830 O   0  0  0  0  0  0  0  0  0  0  0  0
    0.7130   -0.3080   -0.3110 C   0  0  0  0  0  0  0  0  0  0  0  0
  1  2  1  0
  2  3  1  0
  3  4  2  0
  3 10  1  0
  4  5  1  0
  4  6  1  0
  6  7  2  0
  7  8  1  0
  7  9  1  0
  9 10  2  0
 10 11  1  0
 11 12  2  0
 11 21  1  0
 12 13  1  0
 13 14  2  0
 14 15  1  0
 14 16  1  0
 16 17  1  0
 16 21  2  0
 17 18  1  0
 18 19  1  0
 19 20  1  0
M  END
