
     RDKit          3D

 15 15  0  0  0  0  0  0  0  0999 V2000
    5.4980    0.2480   -1.1120 C   0  0  0  0  0  0  0  0  0  0  0  0
    4.7050    0.9280   -0.0210 C   0  0  0  0  0  0  0  0  0  0  0  0
    3.3850    0.4680    0.0750 O   0  0  0  0  0  0  0  0  0  0  0  0
    3.0280   -0.8470    0.3390 C   0  0  0  0  0  0  0  0  0  0  0  0
    3.9780   -1.6640    0.4990 O   0  0  0  0  0  0  0  0  0  0  0  0
    1.6110   -1.2740    0.4290 C   0  0  0  0  0  0  0  0  0  0  0  0
    0.8150   -0.1580    0.2080 O   0  0  0  0  0  0  0  0  0  0  0  0
   -0.5450   -0.4600    0.2730 C   0  0  1  0  0  0  0  0  0  0  0  0
   -1.0950    0.2370    1.4850 C   0  0  0  0  0  0  0  0  0  0  0  0
   -2.6010   -0.0370    1.5200 C   0  0  0  0  0  0  0  0  0  0  0  0
   -3.1370    0.7870    0.3490 C   0  0  2  0  0  0  0  0  0  0  0  0
   -4.5620    0.8900    0.4280 N   0  0  0  0  0  0  0  0  0  0  0  0
   -2.6540    0.2060   -0.9480 C   0  0  2  0  0  0  0  0  0  0  0  0
   -3.5050   -0.8690   -1.2480 O   0  0  0  0  0  0  0  0  0  0  0  0
   -1.2430   -0.1970   -0.9910 C   0  0  0  0  0  0  0  0  0  0  0  0
  1  2  1  0
  2  3  1  0
  3  4  1  0
  4  5  2  0
  4  6  1  0
  6  7  1  0
  8  7  1  6
  8  9  1  0
  8 15  1  0
  9 10  1  0
 10 11  1  0
 11 12  1  6
 11 13  1  0
 13 14  1  1
 13 15  1  0
M  CHG  1  12   1
M  END
