
     RDKit          3D

 26 28  0  0  0  0  0  0  0  0999 V2000
   -5.5660   -1.5180    0.1350 C   0  0  0  0  0  0  0  0  0  0  0  0
   -4.4070   -2.0760    0.9330 C   0  0  0  0  0  0  0  0  0  0  0  0
   -3.1890   -1.2370    0.7820 C   0  0  0  0  0  0  0  0  0  0  0  0
   -2.7980   -0.3750    1.7840 C   0  0  0  0  0  0  0  0  0  0  0  0
   -1.6750    0.4040    1.6460 C   0  0  0  0  0  0  0  0  0  0  0  0
   -0.8850    0.3690    0.5090 C   0  0  0  0  0  0  0  0  0  0  0  0
    0.2910    1.2540    0.4110 C   0  0  0  0  0  0  0  0  0  0  0  0
    0.0880    2.7080    0.6190 C   0  0  0  0  0  0  0  0  0  0  0  0
   -0.6840    3.4000   -0.4580 C   0  0  2  0  0  0  0  0  0  0  0  0
   -0.7920    4.8970   -0.0990 C   0  0  0  0  0  0  0  0  0  0  0  0
   -2.1060    2.9300   -0.6190 C   0  0  0  0  0  0  0  0  0  0  0  0
    1.4850    0.6940    0.1770 C   0  0  0  0  0  0  0  0  0  0  0  0
    1.7530   -0.7540    0.0050 C   0  0  0  0  0  0  0  0  0  0  0  0
    3.2320   -0.9150   -0.0470 C   0  0  0  0  0  0  0  0  0  0  0  0
    3.8510    0.3030   -0.0840 C   0  0  0  0  0  0  0  0  0  0  0  0
    5.2240    0.3780   -0.1840 C   0  0  0  0  0  0  0  0  0  0  0  0
    5.9810   -0.7760   -0.2440 C   0  0  0  0  0  0  0  0  0  0  0  0
    5.3400   -1.9970   -0.2030 C   0  0  0  0  0  0  0  0  0  0  0  0
    6.0650   -3.2010   -0.2600 O   0  0  0  0  0  0  0  0  0  0  0  0
    3.9660   -2.0580   -0.1040 C   0  0  0  0  0  0  0  0  0  0  0  0
    3.3290   -3.4240   -0.0620 C   0  0  0  0  0  0  0  0  0  0  0  0
    2.7880    1.3280    0.0480 C   0  0  0  0  0  0  0  0  0  0  0  0
    3.0480    2.5510    0.0420 O   0  0  0  0  0  0  0  0  0  0  0  0
   -1.2640   -0.4770   -0.4840 C   0  0  0  0  0  0  0  0  0  0  0  0
   -2.4080   -1.2750   -0.3480 C   0  0  0  0  0  0  0  0  0  0  0  0
   -2.7680   -2.1690   -1.4520 C   0  0  0  0  0  0  0  0  0  0  0  0
  1  2  1  0
  2  3  1  0
  3  4  2  0
  3 25  1  0
  4  5  1  0
  5  6  2  0
  6  7  1  0
  6 24  1  0
  7  8  1  0
  7 12  2  3
  8  9  1  0
  9 10  1  1
  9 11  1  0
 12 13  1  0
 12 22  1  0
 13 14  1  0
 14 15  2  0
 14 20  1  0
 15 16  1  0
 15 22  1  0
 16 17  2  0
 17 18  1  0
 18 19  1  0
 18 20  2  0
 20 21  1  0
 22 23  2  0
 24 25  2  0
 25 26  1  0
M  END
