
     RDKit          3D

 15 15  0  0  0  0  0  0  0  0999 V2000
    2.4770    0.9810    1.3930 C   0  0  0  0  0  0  0  0  0  0  0  0
    1.9940    0.6780    0.2270 C   0  0  0  0  0  0  0  0  0  0  0  0
    2.3230    1.6430   -0.8900 C   0  0  0  0  0  0  0  0  0  0  0  0
    1.2410   -0.5140   -0.0660 C   0  0  1  0  0  0  0  0  0  0  0  0
    1.1750   -1.6000    0.9620 C   0  0  0  0  0  0  0  0  0  0  0  0
   -0.2460   -1.9220    1.1140 N   0  0  0  0  0  0  0  0  0  0  0  0
   -0.8890   -0.6150    0.8780 C   0  0  2  0  0  0  0  0  0  0  0  0
   -2.3130   -0.8350    0.7870 C   0  0  0  0  0  0  0  0  0  0  0  0
   -3.1690    0.0860    1.0230 O   0  0  0  0  0  0  0  0  0  0  0  0
   -2.8130   -2.0780    0.4330 O   0  0  0  0  0  0  0  0  0  0  0  0
   -0.2030   -0.3560   -0.5060 C   0  0  1  0  0  0  0  0  0  0  0  0
   -0.5800    0.9600   -1.0430 C   0  0  0  0  0  0  0  0  0  0  0  0
   -1.9730    1.0360   -1.5610 C   0  0  0  0  0  0  0  0  0  0  0  0
   -2.6710    0.0240   -1.8180 O   0  0  0  0  0  0  0  0  0  0  0  0
   -2.5570    2.2850   -1.7820 O   0  0  0  0  0  0  0  0  0  0  0  0
  1  2  2  0
  2  3  1  0
  4  2  1  1
  4  5  1  0
  4 11  1  0
  5  6  1  0
  6  7  1  0
  7  8  1  6
  7 11  1  0
  8  9  2  0
  8 10  1  0
 11 12  1  1
 12 13  1  0
 13 14  2  0
 13 15  1  0
M  CHG  1   6   1
M  END
