
     RDKit          3D

 15 15  0  0  0  0  0  0  0  0999 V2000
    4.8850    0.4940    0.7790 C   0  0  0  0  0  0  0  0  0  0  0  0
    3.8400   -0.5650    0.9380 C   0  0  0  0  0  0  0  0  0  0  0  0
    2.5440   -0.0470    0.2960 C   0  0  1  0  0  0  0  0  0  0  0  0
    2.8210    0.2090   -1.1040 N   0  0  0  0  0  0  0  0  0  0  0  0
    1.5330   -1.1500    0.4760 C   0  0  0  0  0  0  0  0  0  0  0  0
    0.2950   -0.9040   -0.1100 O   0  0  0  0  0  0  0  0  0  0  0  0
   -0.4720    0.1830    0.2800 C   0  0  0  0  0  0  0  0  0  0  0  0
   -0.0470    0.9550    1.1750 O   0  0  0  0  0  0  0  0  0  0  0  0
   -1.8010    0.4800   -0.3260 C   0  0  2  0  0  0  0  0  0  0  0  0
   -2.3240    1.5870    0.2370 O   0  0  0  0  0  0  0  0  0  0  0  0
   -3.4230    1.4390    1.0260 C   0  0  0  0  0  0  0  0  0  0  0  0
   -4.5230    0.8100    0.1980 C   0  0  0  0  0  0  0  0  0  0  0  0
   -4.0840   -0.5760   -0.1550 C   0  0  0  0  0  0  0  0  0  0  0  0
   -2.6260   -0.7540   -0.3220 C   0  0  1  0  0  0  0  0  0  0  0  0
   -2.4170   -1.4840   -1.5150 O   0  0  0  0  0  0  0  0  0  0  0  0
  1  2  1  0
  2  3  1  0
  3  4  1  6
  3  5  1  0
  5  6  1  0
  6  7  1  0
  7  8  2  0
  9  7  1  1
  9 10  1  0
  9 14  1  0
 10 11  1  0
 11 12  1  0
 12 13  1  0
 13 14  1  0
 14 15  1  6
M  CHG  1   4   1
M  END
