
     RDKit          3D

 22 24  0  0  0  0  0  0  0  0999 V2000
    5.2170    0.8480    0.5900 C   0  0  0  0  0  0  0  0  0  0  0  0
    4.5640    0.2040   -0.6110 C   0  0  1  0  0  0  0  0  0  0  0  0
    4.9970   -1.2540   -0.6350 C   0  0  0  0  0  0  0  0  0  0  0  0
    3.0910    0.3060   -0.5560 C   0  0  0  0  0  0  0  0  0  0  0  0
    2.3240   -0.7650   -0.5340 C   0  0  0  0  0  0  0  0  0  0  0  0
    0.8710   -0.7030   -0.4790 C   0  0  0  0  0  0  0  0  0  0  0  0
    0.1860   -1.8160   -0.5230 C   0  0  0  0  0  0  0  0  0  0  0  0
   -1.3010   -1.8860   -0.4750 C   0  0  0  0  0  0  0  0  0  0  0  0
   -1.8760   -0.5110   -0.3920 C   0  0  1  0  0  0  0  0  0  0  0  0
   -3.3270   -0.4200   -0.0940 C   0  0  2  0  0  0  0  0  0  0  0  0
   -3.7590   -0.6040    1.3030 C   0  0  0  0  0  0  0  0  0  0  0  0
   -4.0420   -1.4160   -0.9350 C   0  0  0  0  0  0  0  0  0  0  0  0
   -4.8910   -1.1110   -1.7910 O   0  0  0  0  0  0  0  0  0  0  0  0
   -3.7490   -2.7590   -0.7580 O   0  0  0  0  0  0  0  0  0  0  0  0
   -3.7790    0.9730   -0.5620 C   0  0  0  0  0  0  0  0  0  0  0  0
   -2.7500    2.0180   -0.3000 C   0  0  0  0  0  0  0  0  0  0  0  0
   -1.7730    1.6320    0.7840 C   0  0  0  0  0  0  0  0  0  0  0  0
   -1.0120    0.3880    0.4710 C   0  0  1  0  0  0  0  0  0  0  0  0
   -0.5140   -0.3160    1.7200 C   0  0  0  0  0  0  0  0  0  0  0  0
    0.2350    0.6590   -0.3720 C   0  0  1  0  0  0  0  0  0  0  0  0
    1.1610    1.6580    0.2270 C   0  0  0  0  0  0  0  0  0  0  0  0
    2.4620    1.6350   -0.5260 C   0  0  0  0  0  0  0  0  0  0  0  0
  2  1  1  1
  2  3  1  0
  2  4  1  0
  4  5  2  0
  4 22  1  0
  5  6  1  0
  6  7  2  0
  6 20  1  0
  7  8  1  0
  9  8  1  1
  9 10  1  0
  9 18  1  0
 10 11  1  1
 10 12  1  0
 10 15  1  0
 12 13  2  0
 12 14  1  0
 15 16  1  0
 16 17  1  0
 17 18  1  0
 18 19  1  1
 18 20  1  0
 20 21  1  1
 21 22  1  0
M  END
