
     RDKit          3D

 22 24  0  0  0  0  0  0  0  0999 V2000
    1.4010    4.0040   -0.6740 C   0  0  0  0  0  0  0  0  0  0  0  0
    1.2690    3.7320    0.8080 C   0  0  0  0  0  0  0  0  0  0  0  0
    1.0410    2.2630    1.0900 C   0  0  2  0  0  0  0  0  0  0  0  0
    2.1690    1.4380    0.5860 C   0  0  0  0  0  0  0  0  0  0  0  0
    1.9840    0.0490    1.2180 C   0  0  2  0  0  0  0  0  0  0  0  0
    3.2410   -0.7150    0.9230 C   0  0  1  0  0  0  0  0  0  0  0  0
    3.2760   -2.1010    1.4490 C   0  0  0  0  0  0  0  0  0  0  0  0
    3.4530   -2.9580    0.2250 C   0  0  0  0  0  0  0  0  0  0  0  0
    4.0670   -1.9560   -0.7450 C   0  0  0  0  0  0  0  0  0  0  0  0
    3.4800   -0.7410   -0.4340 O   0  0  0  0  0  0  0  0  0  0  0  0
    0.7340   -0.5670    0.7220 C   0  0  0  0  0  0  0  0  0  0  0  0
   -0.2460    0.3460    0.0770 C   0  0  1  0  0  0  0  0  0  0  0  0
   -0.0120    0.3240   -1.4360 C   0  0  0  0  0  0  0  0  0  0  0  0
   -1.6550   -0.1920    0.2790 C   0  0  2  0  0  0  0  0  0  0  0  0
   -1.8800   -0.2500    1.6540 O   0  0  0  0  0  0  0  0  0  0  0  0
   -1.8620   -1.5240   -0.3860 C   0  0  0  0  0  0  0  0  0  0  0  0
   -2.7970   -2.3240    0.4970 C   0  0  0  0  0  0  0  0  0  0  0  0
   -4.2360   -2.1530    0.1550 C   0  0  0  0  0  0  0  0  0  0  0  0
   -4.6100   -0.8140   -0.3760 C   0  0  0  0  0  0  0  0  0  0  0  0
   -4.0250    0.3430    0.3640 C   0  0  0  0  0  0  0  0  0  0  0  0
   -2.7010    0.7420   -0.3020 C   0  0  0  0  0  0  0  0  0  0  0  0
   -0.2530    1.7510    0.5370 C   0  0  0  0  0  0  0  0  0  0  0  0
  1  2  1  0
  3  2  1  6
  3  4  1  0
  3 22  1  0
  5  4  1  6
  5  6  1  0
  5 11  1  0
  6  7  1  6
  6 10  1  0
  7  8  1  0
  8  9  1  0
  9 10  1  0
 11 12  1  0
 12 13  1  6
 12 14  1  0
 12 22  1  0
 14 15  1  1
 14 16  1  0
 14 21  1  0
 16 17  1  0
 17 18  1  0
 18 19  1  0
 19 20  1  0
 20 21  1  0
M  END
