
     RDKit          3D

 22 24  0  0  0  0  0  0  0  0999 V2000
   -5.5620    0.6690   -1.7340 C   0  0  0  0  0  0  0  0  0  0  0  0
   -4.1820    1.2430   -1.5600 C   0  0  0  0  0  0  0  0  0  0  0  0
   -3.4770    0.4750   -0.4330 C   0  0  2  0  0  0  0  0  0  0  0  0
   -4.2240    0.6000    0.8380 C   0  0  0  0  0  0  0  0  0  0  0  0
   -4.2220   -0.5640    1.7460 C   0  0  0  0  0  0  0  0  0  0  0  0
   -3.6300   -1.8230    1.2410 C   0  0  0  0  0  0  0  0  0  0  0  0
   -2.1560   -1.9250    1.2600 C   0  0  0  0  0  0  0  0  0  0  0  0
   -1.4070   -0.6390    1.3890 C   0  0  0  0  0  0  0  0  0  0  0  0
   -1.0810   -0.0080    0.0540 C   0  0  2  0  0  0  0  0  0  0  0  0
    0.2450    0.6520    0.0470 C   0  0  1  0  0  0  0  0  0  0  0  0
    0.2260    1.6530    1.0400 O   0  0  0  0  0  0  0  0  0  0  0  0
    1.4530   -0.1740    0.2400 C   0  0  1  0  0  0  0  0  0  0  0  0
    1.6640   -1.2480   -0.7780 C   0  0  0  0  0  0  0  0  0  0  0  0
    2.5800   -0.7000   -1.8550 C   0  0  0  0  0  0  0  0  0  0  0  0
    3.8530   -0.6380   -1.2830 O   0  0  0  0  0  0  0  0  0  0  0  0
    3.9100    0.1710   -0.1830 C   0  0  2  0  0  0  0  0  0  0  0  0
    4.8870    1.3100   -0.5160 C   0  0  0  0  0  0  0  0  0  0  0  0
    6.2130    0.6050   -0.5210 C   0  0  0  0  0  0  0  0  0  0  0  0
    6.0530   -0.6220    0.3540 C   0  0  0  0  0  0  0  0  0  0  0  0
    4.6630   -0.5110    0.9470 C   0  0  0  0  0  0  0  0  0  0  0  0
    2.6400    0.7900    0.2440 C   0  0  0  0  0  0  0  0  0  0  0  0
   -2.1020    1.1050   -0.2500 C   0  0  0  0  0  0  0  0  0  0  0  0
  1  2  1  0
  3  2  1  6
  3  4  1  0
  3 22  1  0
  4  5  1  0
  5  6  1  0
  6  7  1  0
  7  8  1  0
  9  8  1  1
  9 10  1  0
  9 22  1  0
 10 11  1  1
 10 12  1  0
 12 13  1  6
 12 21  1  0
 13 14  1  0
 14 15  1  0
 15 16  1  0
 16 17  1  6
 16 20  1  0
 16 21  1  0
 17 18  1  0
 18 19  1  0
 19 20  1  0
M  END
