
     RDKit          3D

 33 36  0  0  0  0  0  0  0  0999 V2000
    5.7590    3.2570   -0.6110 C   0  0  0  0  0  0  0  0  0  0  0  0
    4.8710    2.2020   -0.4240 O   0  0  0  0  0  0  0  0  0  0  0  0
    5.2610    0.8700   -0.2500 C   0  0  0  0  0  0  0  0  0  0  0  0
    6.6200    0.5830   -0.2630 C   0  0  0  0  0  0  0  0  0  0  0  0
    7.0890   -0.6960   -0.0970 C   0  0  0  0  0  0  0  0  0  0  0  0
    8.5380   -1.0240   -0.1060 C   0  0  0  0  0  0  0  0  0  0  0  0
    6.1970   -1.7250    0.0880 C   0  0  0  0  0  0  0  0  0  0  0  0
    6.6160   -3.0160    0.2590 F   0  0  0  0  0  0  0  0  0  0  0  0
    4.8620   -1.4360    0.1000 C   0  0  0  0  0  0  0  0  0  0  0  0
    4.3640   -0.1500   -0.0670 C   0  0  0  0  0  0  0  0  0  0  0  0
    2.9250    0.0480   -0.0790 C   0  0  0  0  0  0  0  0  0  0  0  0
    2.3460    1.1990   -0.5350 C   0  0  0  0  0  0  0  0  0  0  0  0
    0.9650    1.2830   -0.5390 C   0  0  0  0  0  0  0  0  0  0  0  0
    0.1280    0.2520   -0.1020 C   0  0  0  0  0  0  0  0  0  0  0  0
   -1.3160    0.4260   -0.1260 C   0  0  0  0  0  0  0  0  0  0  0  0
   -1.8560    1.5730   -0.5540 O   0  0  0  0  0  0  0  0  0  0  0  0
   -3.1440    1.5120   -0.4890 N   0  0  0  0  0  0  0  0  0  0  0  0
   -3.5390    0.3200   -0.0140 C   0  0  0  0  0  0  0  0  0  0  0  0
   -4.8810   -0.1860    0.2010 C   0  0  0  0  0  0  0  0  0  0  0  0
   -5.7070   -0.0690   -0.8090 C   0  0  0  0  0  0  0  0  0  0  0  0
   -5.0680    0.5720   -1.9830 C   0  0  0  0  0  0  0  0  0  0  0  0
   -7.0900   -0.4050   -1.0970 C   0  0  0  0  0  0  0  0  0  0  0  0
   -8.1710   -0.7960   -0.4170 C   0  0  0  0  0  0  0  0  0  0  0  0
   -8.4160   -1.0640    1.0030 C   0  0  0  0  0  0  0  0  0  0  0  0
   -7.6300   -1.1850    2.0620 C   0  0  0  0  0  0  0  0  0  0  0  0
   -6.1880   -1.0990    2.2410 C   0  0  0  0  0  0  0  0  0  0  0  0
   -5.1080   -0.7220    1.5530 C   0  0  0  0  0  0  0  0  0  0  0  0
   -3.9680   -0.8390    2.2580 F   0  0  0  0  0  0  0  0  0  0  0  0
   -2.3700   -0.3720    0.2170 C   0  0  0  0  0  0  0  0  0  0  0  0
   -2.2810   -1.6300    0.6800 F   0  0  0  0  0  0  0  0  0  0  0  0
    0.7620   -0.8770    0.3430 C   0  0  0  0  0  0  0  0  0  0  0  0
    0.0880   -1.8560    0.7550 O   0  0  0  0  0  0  0  0  0  0  0  0
    2.1260   -0.9450    0.3410 N   0  0  0  0  0  0  0  0  0  0  0  0
  1  2  1  0
  2  3  1  0
  3  4  2  0
  3 10  1  0
  4  5  1  0
  5  6  1  0
  5  7  2  0
  7  8  1  0
  7  9  1  0
  9 10  2  0
 10 11  1  0
 11 12  2  0
 11 33  1  0
 12 13  1  0
 13 14  2  0
 14 15  1  0
 14 31  1  0
 15 16  1  0
 15 29  2  0
 16 17  1  0
 17 18  2  0
 18 19  1  0
 18 29  1  0
 19 20  2  0
 19 27  1  0
 20 21  1  0
 20 22  1  0
 22 23  2  0
 23 24  1  0
 24 25  2  0
 25 26  1  0
 26 27  2  0
 27 28  1  0
 29 30  1  0
 31 32  2  0
 31 33  1  0
M  END
