
     RDKit          3D

 33 36  0  0  0  0  0  0  0  0999 V2000
   -6.1180   -2.0580   -0.7840 C   0  0  0  0  0  0  0  0  0  0  0  0
   -5.2310   -0.9620   -0.2980 C   0  0  0  0  0  0  0  0  0  0  0  0
   -3.8970   -1.2570   -0.1200 C   0  0  0  0  0  0  0  0  0  0  0  0
   -3.0520   -0.2800    0.3310 C   0  0  0  0  0  0  0  0  0  0  0  0
   -1.6760   -0.5460    0.5500 N   0  0  0  0  0  0  0  0  0  0  0  0
   -1.2540   -1.4540    1.5570 C   0  0  0  0  0  0  0  0  0  0  0  0
   -1.9840   -1.8230    2.4680 O   0  0  0  0  0  0  0  0  0  0  0  0
    0.1450   -1.9370    1.4420 C   0  0  0  0  0  0  0  0  0  0  0  0
    0.9830   -0.9300    0.9420 O   0  0  0  0  0  0  0  0  0  0  0  0
    0.6330   -0.0440   -0.0620 C   0  0  0  0  0  0  0  0  0  0  0  0
    1.5400    0.6130   -0.8280 C   0  0  0  0  0  0  0  0  0  0  0  0
    2.9820    0.4690   -0.6330 C   0  0  0  0  0  0  0  0  0  0  0  0
    3.7140    1.1460   -1.4540 O   0  0  0  0  0  0  0  0  0  0  0  0
    3.6380   -0.2980    0.3140 N   0  0  0  0  0  0  0  0  0  0  0  0
    5.0370   -0.4120    0.4670 C   0  0  0  0  0  0  0  0  0  0  0  0
    5.4980   -1.2360    1.5210 C   0  0  0  0  0  0  0  0  0  0  0  0
    6.8340   -1.4250    1.7710 C   0  0  0  0  0  0  0  0  0  0  0  0
    7.7760   -0.7960    0.9740 C   0  0  0  0  0  0  0  0  0  0  0  0
    7.3680    0.0110   -0.0570 C   0  0  0  0  0  0  0  0  0  0  0  0
    8.3690    0.6870   -0.9140 C   0  0  2  0  0  0  0  0  0  0  0  0
    9.4830    1.0350   -0.1570 F   0  0  0  0  0  0  0  0  0  0  0  0
    7.8470    1.9130   -1.3560 F   0  0  0  0  0  0  0  0  0  0  0  0
    8.7180   -0.0250   -2.0200 F   0  0  0  0  0  0  0  0  0  0  0  0
    6.0070    0.1850   -0.2870 C   0  0  0  0  0  0  0  0  0  0  0  0
    1.0770    1.4880   -1.8210 C   0  0  0  0  0  0  0  0  0  0  0  0
   -0.2570    1.7060   -2.0480 C   0  0  0  0  0  0  0  0  0  0  0  0
   -1.1470    1.0330   -1.2600 C   0  0  0  0  0  0  0  0  0  0  0  0
   -0.7390    0.1570   -0.2640 C   0  0  0  0  0  0  0  0  0  0  0  0
   -3.5590    0.9760    0.5960 C   0  0  0  0  0  0  0  0  0  0  0  0
   -4.8950    1.2640    0.4140 C   0  0  0  0  0  0  0  0  0  0  0  0
   -5.4070    2.6370    0.7180 C   0  0  0  0  0  0  0  0  0  0  0  0
   -5.7630    0.2810   -0.0440 C   0  0  0  0  0  0  0  0  0  0  0  0
   -7.2210    0.6100   -0.2350 C   0  0  0  0  0  0  0  0  0  0  0  0
  1  2  1  0
  2  3  2  0
  2 32  1  0
  3  4  1  0
  4  5  1  0
  4 29  2  0
  5  6  1  0
  5 28  1  0
  6  7  2  0
  6  8  1  0
  8  9  1  0
  9 10  1  0
 10 11  2  0
 10 28  1  0
 11 12  1  0
 11 25  1  0
 12 13  2  0
 12 14  1  0
 14 15  1  0
 15 16  2  0
 15 24  1  0
 16 17  1  0
 17 18  2  0
 18 19  1  0
 19 20  1  0
 19 24  2  0
 20 21  1  1
 20 22  1  0
 20 23  1  0
 25 26  2  0
 26 27  1  0
 27 28  2  0
 29 30  1  0
 30 31  1  0
 30 32  2  0
 32 33  1  0
M  END
