
     RDKit          3D

 32 34  0  0  0  0  0  0  0  0999 V2000
   -0.1090    5.5200   -2.0080 C   0  0  0  0  0  0  0  0  0  0  0  0
    0.5690    5.1910   -0.8490 O   0  0  0  0  0  0  0  0  0  0  0  0
    0.0290    4.1400   -0.1420 C   0  0  0  0  0  0  0  0  0  0  0  0
    0.0040    2.8750   -0.9670 C   0  0  0  0  0  0  0  0  0  0  0  0
   -0.5510    1.7630   -0.2560 N   0  0  0  0  0  0  0  0  0  0  0  0
   -1.9550    1.7510    0.0800 C   0  0  0  0  0  0  0  0  0  0  0  0
   -2.4340    0.4550   -0.4270 N   0  0  0  0  0  0  0  0  0  0  0  0
   -3.8850    0.4660   -0.3500 C   0  0  0  0  0  0  0  0  0  0  0  0
   -1.9800   -0.5330    0.5640 C   0  0  1  0  0  0  0  0  0  0  0  0
   -2.6080   -1.8250    0.2980 C   0  0  0  0  0  0  0  0  0  0  0  0
   -2.4220   -2.5760   -0.9180 C   0  0  0  0  0  0  0  0  0  0  0  0
   -1.7540   -2.2360   -1.9850 C   0  0  0  0  0  0  0  0  0  0  0  0
   -1.1140   -1.0740   -2.1100 F   0  0  0  0  0  0  0  0  0  0  0  0
   -3.3910   -2.4000    1.2360 C   0  0  0  0  0  0  0  0  0  0  0  0
   -3.9940   -3.5890    1.0510 F   0  0  0  0  0  0  0  0  0  0  0  0
   -3.5830   -1.7360    2.3820 F   0  0  0  0  0  0  0  0  0  0  0  0
   -0.5050   -0.5650    0.7580 C   0  0  2  0  0  0  0  0  0  0  0  0
   -0.2230   -0.6880    2.2200 C   0  0  0  0  0  0  0  0  0  0  0  0
   -0.4640   -1.9810    2.8880 C   0  0  0  0  0  0  0  0  0  0  0  0
    0.1880    0.2610    2.8200 O   0  0  0  0  0  0  0  0  0  0  0  0
    0.2010    0.5970    0.1680 C   0  0  0  0  0  0  0  0  0  0  0  0
    1.4510    0.6860   -0.0220 N   0  0  0  0  0  0  0  0  0  0  0  0
    2.5130   -0.1870    0.2380 C   0  0  0  0  0  0  0  0  0  0  0  0
    3.3210    0.1420    1.3080 C   0  0  0  0  0  0  0  0  0  0  0  0
    3.0780    1.6150    2.2640 Cl  0  0  0  0  0  0  0  0  0  0  0  0
    4.3710   -0.6950    1.6070 C   0  0  0  0  0  0  0  0  0  0  0  0
    4.5970   -1.8180    0.8540 C   0  0  0  0  0  0  0  0  0  0  0  0
    3.7780   -2.1660   -0.2480 C   0  0  0  0  0  0  0  0  0  0  0  0
    2.7470   -1.3490   -0.5450 C   0  0  0  0  0  0  0  0  0  0  0  0
    1.9350   -1.7290   -1.7330 C   0  0  0  0  0  0  0  0  0  0  0  0
    3.2040   -2.7120   -2.6480 S   0  0  0  0  0  0  0  0  0  0  0  0
    3.9720   -3.3640   -1.1050 C   0  0  0  0  0  0  0  0  0  0  0  0
  1  2  1  0
  2  3  1  0
  3  4  1  0
  4  5  1  0
  5  6  1  0
  5 21  1  0
  6  7  1  0
  7  8  1  0
  7  9  1  0
  9 10  1  6
  9 17  1  0
 10 11  1  0
 10 14  2  3
 11 12  2  3
 12 13  1  0
 14 15  1  0
 14 16  1  0
 17 18  1  1
 17 21  1  0
 18 19  1  0
 18 20  2  0
 21 22  2  3
 22 23  1  0
 23 24  2  0
 23 29  1  0
 24 25  1  0
 24 26  1  0
 26 27  2  0
 27 28  1  0
 28 29  2  0
 28 32  1  0
 29 30  1  0
 30 31  1  0
 31 32  1  0
M  END
