
     RDKit          3D

 32 34  0  0  0  0  0  0  0  0999 V2000
   -1.6920    1.3300    0.9900 C   0  0  0  0  0  0  0  0  0  0  0  0
   -2.1260    0.3600   -0.1130 C   0  0  1  0  0  0  0  0  0  0  0  0
   -1.5790   -0.9980    0.3210 C   0  0  0  0  0  0  0  0  0  0  0  0
   -0.2090   -0.8740    0.3660 O   0  0  0  0  0  0  0  0  0  0  0  0
    0.8360   -1.6540    0.6560 C   0  0  0  0  0  0  0  0  0  0  0  0
    2.0680   -1.0300    0.4780 C   0  0  0  0  0  0  0  0  0  0  0  0
    2.1010    0.3250    0.0200 C   0  0  0  0  0  0  0  0  0  0  0  0
    3.1030    1.1100   -0.2180 C   0  0  0  0  0  0  0  0  0  0  0  0
    2.9810    2.5240   -0.7000 C   0  0  0  0  0  0  0  0  0  0  0  0
    1.8960    3.0830   -0.9200 O   0  0  0  0  0  0  0  0  0  0  0  0
    4.2880    3.0270   -0.8330 N   0  0  0  0  0  0  0  0  0  0  0  0
    4.6130    4.3850   -1.2850 C   0  0  0  0  0  0  0  0  0  0  0  0
    5.2260    2.0330   -0.4710 C   0  0  0  0  0  0  0  0  0  0  0  0
    6.5740    1.9990   -0.4210 N   0  0  0  0  0  0  0  0  0  0  0  0
    7.2850    0.9440   -0.0440 C   0  0  0  0  0  0  0  0  0  0  0  0
    6.6640   -0.2090    0.3290 C   0  0  0  0  0  0  0  0  0  0  0  0
    7.3860   -1.2680    0.7090 F   0  0  0  0  0  0  0  0  0  0  0  0
    5.2670   -0.2320    0.2970 C   0  0  0  0  0  0  0  0  0  0  0  0
    4.5410    0.8690   -0.0960 C   0  0  0  0  0  0  0  0  0  0  0  0
    0.8480   -3.0180    1.1160 C   0  0  0  0  0  0  0  0  0  0  0  0
    2.4230   -3.7770    1.4130 Cl  0  0  0  0  0  0  0  0  0  0  0  0
   -0.2180   -3.7190    1.3230 C   0  0  0  0  0  0  0  0  0  0  0  0
   -0.0660   -5.1450    1.8070 C   0  0  2  0  0  0  0  0  0  0  0  0
   -0.5180   -5.9320    0.7710 F   0  0  0  0  0  0  0  0  0  0  0  0
   -0.8770   -5.2400    2.9210 F   0  0  0  0  0  0  0  0  0  0  0  0
   -3.5250    0.4030   -0.2260 N   0  0  0  0  0  0  0  0  0  0  0  0
   -4.3200    0.0000    0.8620 C   0  0  0  0  0  0  0  0  0  0  0  0
   -5.6750    0.6380    0.8880 C   0  0  0  0  0  0  0  0  0  0  0  0
   -5.9480    1.8100   -0.4370 S   0  0  0  0  0  0  0  0  0  0  0  0
   -4.8150    1.5580   -1.8480 C   0  0  0  0  0  0  0  0  0  0  0  0
   -4.0380    0.2840   -1.5320 C   0  0  2  0  0  0  0  0  0  0  0  0
   -4.8510   -0.9450   -1.7980 C   0  0  0  0  0  0  0  0  0  0  0  0
  2  1  1  1
  2  3  1  0
  2 26  1  0
  3  4  1  0
  4  5  1  0
  5  6  2  3
  5 20  1  0
  6  7  1  0
  7  8  2  3
  8  9  1  0
  8 19  1  0
  9 10  2  0
  9 11  1  0
 11 12  1  0
 11 13  1  0
 13 14  2  0
 13 19  1  0
 14 15  1  0
 15 16  2  0
 16 17  1  0
 16 18  1  0
 18 19  2  0
 20 21  1  0
 20 22  2  3
 22 23  1  0
 23 24  1  6
 23 25  1  0
 26 27  1  0
 26 31  1  0
 27 28  1  0
 28 29  1  0
 29 30  1  0
 30 31  1  0
 31 32  1  1
M  END
