
     RDKit          3D

 33 36  0  0  0  0  0  0  0  0999 V2000
   -0.8830    3.9820    3.7260 C   0  0  0  0  0  0  0  0  0  0  0  0
   -0.6150    3.0760    2.6840 O   0  0  0  0  0  0  0  0  0  0  0  0
   -1.5740    2.2740    2.1100 C   0  0  0  0  0  0  0  0  0  0  0  0
   -2.8900    2.3120    2.5280 C   0  0  0  0  0  0  0  0  0  0  0  0
   -3.8420    1.4980    1.9370 C   0  0  0  0  0  0  0  0  0  0  0  0
   -3.4650    0.6510    0.9220 C   0  0  0  0  0  0  0  0  0  0  0  0
   -4.3970   -0.1260    0.3520 N   0  0  0  0  0  0  0  0  0  0  0  0
   -4.0870   -0.9550   -0.6520 C   0  0  0  0  0  0  0  0  0  0  0  0
   -5.0900   -1.8580   -1.2580 C   0  0  2  0  0  0  0  0  0  0  0  0
   -4.5420   -3.2920   -1.1930 C   0  0  0  0  0  0  0  0  0  0  0  0
   -5.3930   -1.4690   -2.6840 C   0  0  0  0  0  0  0  0  0  0  0  0
   -6.3820   -1.8540   -0.4860 C   0  0  0  0  0  0  0  0  0  0  0  0
   -2.8080   -1.0070   -1.1020 N   0  0  0  0  0  0  0  0  0  0  0  0
   -1.8470   -0.2570   -0.5690 C   0  0  0  0  0  0  0  0  0  0  0  0
   -2.1370    0.5920    0.4680 C   0  0  0  0  0  0  0  0  0  0  0  0
   -1.2010    1.4030    1.0780 C   0  0  0  0  0  0  0  0  0  0  0  0
    0.1360    1.3050    0.6530 O   0  0  0  0  0  0  0  0  0  0  0  0
    0.5100    0.4170   -0.3330 C   0  0  0  0  0  0  0  0  0  0  0  0
    1.7940    0.0890   -0.5150 C   0  0  0  0  0  0  0  0  0  0  0  0
    2.8590    0.6310    0.2960 C   0  0  0  0  0  0  0  0  0  0  0  0
    2.5420    1.4630    1.2070 O   0  0  0  0  0  0  0  0  0  0  0  0
    4.2720    0.2970    0.1620 C   0  0  0  0  0  0  0  0  0  0  0  0
    5.0070    0.0940    1.3510 C   0  0  0  0  0  0  0  0  0  0  0  0
    6.3220   -0.3040    1.2810 C   0  0  0  0  0  0  0  0  0  0  0  0
    6.9610   -0.5190    0.0770 C   0  0  0  0  0  0  0  0  0  0  0  0
    8.3540   -0.9540    0.0520 C   0  0  2  0  0  0  0  0  0  0  0  0
    9.1440    0.0470   -0.5160 F   0  0  0  0  0  0  0  0  0  0  0  0
    8.5720   -2.0660   -0.7780 F   0  0  0  0  0  0  0  0  0  0  0  0
    8.8980   -1.2390    1.2650 F   0  0  0  0  0  0  0  0  0  0  0  0
    6.2470   -0.3230   -1.0860 C   0  0  0  0  0  0  0  0  0  0  0  0
    4.8960    0.0900   -1.0190 C   0  0  0  0  0  0  0  0  0  0  0  0
    4.1910    0.3540   -2.3140 C   0  0  0  0  0  0  0  0  0  0  0  0
   -0.4760   -0.2270   -1.2260 C   0  0  0  0  0  0  0  0  0  0  0  0
  1  2  1  0
  2  3  1  0
  3  4  2  0
  3 16  1  0
  4  5  1  0
  5  6  2  0
  6  7  1  0
  6 15  1  0
  7  8  2  0
  8  9  1  0
  8 13  1  0
  9 10  1  6
  9 11  1  0
  9 12  1  0
 13 14  2  0
 14 15  1  0
 14 33  1  0
 15 16  2  0
 16 17  1  0
 17 18  1  0
 18 19  2  3
 18 33  1  0
 19 20  1  0
 20 21  2  0
 20 22  1  0
 22 23  2  0
 22 31  1  0
 23 24  1  0
 24 25  2  0
 25 26  1  0
 25 30  1  0
 26 27  1  6
 26 28  1  0
 26 29  1  0
 30 31  2  0
 31 32  1  0
M  END
