
     RDKit          3D

 20 19  0  0  0  0  0  0  0  0999 V2000
    4.9970    0.4110    0.1490 C   0  0  0  0  0  0  0  0  0  0  0  0
    3.8150    0.9030    0.9770 C   0  0  0  0  0  0  0  0  0  0  0  0
    2.7110   -0.4250    1.4260 S   0  0  0  0  0  0  0  0  0  0  0  0
    1.8160   -1.2090    0.1180 C   0  0  0  0  0  0  0  0  0  0  0  0
    0.7100   -0.4630   -0.5240 C   0  0  2  0  0  0  0  0  0  0  0  0
    1.0480    0.8270   -1.1760 C   0  0  0  0  0  0  0  0  0  0  0  0
    2.2930    0.7260   -2.5210 P   0  0  0  0  0  0  0  0  0  0  0  0
   -0.3100   -0.1920    0.4020 O   0  0  0  0  0  0  0  0  0  0  0  0
   -1.5090   -0.8310    0.0880 C   0  0  2  0  0  0  0  0  0  0  0  0
   -1.9550   -0.4210   -1.1440 O   0  0  0  0  0  0  0  0  0  0  0  0
   -2.4250   -0.3790    1.0540 O   0  0  0  0  0  0  0  0  0  0  0  0
   -2.4850    1.0060    0.9090 C   0  0  0  0  0  0  0  0  0  0  0  0
   -3.4200    1.6160    1.8960 C   0  0  0  0  0  0  0  0  0  0  0  0
   -4.0220    0.8990    2.6760 O   0  0  0  0  0  0  0  0  0  0  0  0
   -3.7050    3.4180    1.9860 P   0  0  0  0  0  0  0  0  0  0  0  0
   -2.1860    4.2740    1.8440 O   0  0  0  0  0  0  0  0  0  0  0  0
   -1.2850   -2.1960    0.1690 O   0  0  0  0  0  0  0  0  0  0  0  0
   -2.4240   -2.9390   -0.1280 C   0  0  1  0  0  0  0  0  0  0  0  0
   -2.2700   -3.6920   -1.2930 O   0  0  0  0  0  0  0  0  0  0  0  0
   -2.8650   -3.7070    0.9440 O   0  0  0  0  0  0  0  0  0  0  0  0
  1  2  1  0
  2  3  1  0
  3  4  1  0
  5  4  1  1
  5  6  1  0
  5  8  1  0
  6  7  1  0
  8  9  1  0
  9 10  1  6
  9 11  1  0
  9 17  1  0
 11 12  1  0
 12 13  1  0
 13 14  2  0
 13 15  1  0
 15 16  1  0
 17 18  1  0
 18 19  1  6
 18 20  1  0
M  END
