
     RDKit          3D

 20 21  0  0  0  0  0  0  0  0999 V2000
   -2.1550    0.6450    1.9940 C   0  0  0  0  0  0  0  0  0  0  0  0
   -1.9870   -0.0270    0.8800 C   0  0  0  0  0  0  0  0  0  0  0  0
   -3.2030   -0.4580    0.2700 O   0  0  0  0  0  0  0  0  0  0  0  0
   -0.7590   -0.3840    0.1920 C   0  0  2  0  0  0  0  0  0  0  0  0
   -0.6940    0.2410   -1.0830 O   0  0  0  0  0  0  0  0  0  0  0  0
   -0.7520    1.6070   -1.0140 C   0  0  0  0  0  0  0  0  0  0  0  0
   -0.6940    2.1710   -2.3910 C   0  0  0  0  0  0  0  0  0  0  0  0
   -0.6140    1.4700   -3.3770 O   0  0  0  0  0  0  0  0  0  0  0  0
   -0.9380   -1.8790   -0.2070 C   0  0  0  0  0  0  0  0  0  0  0  0
   -1.1550   -2.6390    0.9160 O   0  0  0  0  0  0  0  0  0  0  0  0
   -0.4170   -2.3490    2.0220 C   0  0  0  0  0  0  0  0  0  0  0  0
    0.8040   -1.5230    1.7890 C   0  0  0  0  0  0  0  0  0  0  0  0
    0.5270   -0.3590    0.8990 C   0  0  2  0  0  0  0  0  0  0  0  0
    0.9280    1.1790    1.7710 S   0  0  0  0  0  0  0  0  0  0  0  0
    2.6030    1.3560    1.3430 O   0  0  0  0  0  0  0  0  0  0  0  0
    2.6520    1.2080    0.0580 O   0  0  0  0  0  0  0  0  0  0  0  0
    1.9650   -0.3260   -0.3490 P   0  0  0  0  0  0  0  0  0  0  0  0
    1.4010   -0.3900   -1.9600 O   0  0  0  0  0  0  0  0  0  0  0  0
    2.6520    0.2770   -2.9860 P   0  0  0  0  0  0  0  0  0  0  0  0
    4.0810    0.6450   -2.0680 O   0  0  0  0  0  0  0  0  0  0  0  0
  1  2  2  0
  2  3  1  0
  2  4  1  0
  4  5  1  6
  4  9  1  0
  4 13  1  0
  5  6  1  0
  6  7  1  0
  7  8  2  0
  9 10  1  0
 10 11  1  0
 11 12  1  0
 13 12  1  1
 13 14  1  0
 13 17  1  0
 14 15  1  0
 15 16  1  0
 16 17  1  0
 17 18  1  0
 18 19  1  0
 19 20  1  0
M  END
