
     RDKit          3D

 20 20  0  0  0  0  0  0  0  0999 V2000
   -4.1980    1.4760    1.6130 C   0  0  0  0  0  0  0  0  0  0  0  0
   -2.9060    1.2200    1.4790 C   0  0  0  0  0  0  0  0  0  0  0  0
   -2.3310    0.4900    0.3190 C   0  0  2  0  0  0  0  0  0  0  0  0
   -3.4050   -0.4090   -0.2200 C   0  0  0  0  0  0  0  0  0  0  0  0
   -3.8240   -0.3430   -1.3490 O   0  0  0  0  0  0  0  0  0  0  0  0
   -0.8450   -0.5070    0.8110 P   0  0  0  0  0  0  0  0  0  0  0  0
   -1.1650   -2.3090    0.5340 C   0  0  0  0  0  0  0  0  0  0  0  0
    0.6460    0.0010   -0.1990 C   0  0  2  0  0  0  0  0  0  0  0  0
    0.3230   -0.1130   -1.6650 C   0  0  0  0  0  0  0  0  0  0  0  0
   -0.1360   -1.8280   -2.1630 P   0  0  0  0  0  0  0  0  0  0  0  0
    1.2050   -2.9190   -2.0260 O   0  0  0  0  0  0  0  0  0  0  0  0
    1.8400   -0.7920    0.2220 C   0  0  0  0  0  0  0  0  0  0  0  0
    2.5640    0.1830    0.9520 O   0  0  0  0  0  0  0  0  0  0  0  0
    2.3360    1.3010    0.1510 C   0  0  2  0  0  0  0  0  0  0  0  0
    2.9400    1.0540   -1.0730 O   0  0  0  0  0  0  0  0  0  0  0  0
    4.6090    0.8140   -0.8060 S   0  0  0  0  0  0  0  0  0  0  0  0
    2.9190    2.5320    0.7230 C   0  0  0  0  0  0  0  0  0  0  0  0
    2.7810    3.6120    0.0940 O   0  0  0  0  0  0  0  0  0  0  0  0
    3.6120    2.5750    1.9140 O   0  0  0  0  0  0  0  0  0  0  0  0
    0.9650    1.3320    0.0650 O   0  0  0  0  0  0  0  0  0  0  0  0
  1  2  2  0
  2  3  1  0
  3  4  1  0
  3  6  1  1
  4  5  2  0
  6  7  1  0
  6  8  1  0
  8  9  1  6
  8 12  1  0
  8 20  1  0
  9 10  1  0
 10 11  1  0
 12 13  1  0
 13 14  1  0
 14 15  1  6
 14 17  1  0
 14 20  1  0
 15 16  1  0
 17 18  2  0
 17 19  1  0
M  END
