
     RDKit          3D

 20 20  0  0  0  0  0  0  0  0999 V2000
   -3.5640   -0.3930   -1.3320 C   0  0  0  0  0  0  0  0  0  0  0  0
   -3.1360    0.6910   -0.4270 C   0  0  2  0  0  0  0  0  0  0  0  0
   -4.0980    0.7980    0.6150 O   0  0  0  0  0  0  0  0  0  0  0  0
   -3.2700    1.9090   -1.1310 O   0  0  0  0  0  0  0  0  0  0  0  0
   -1.8170    0.5910    0.2420 C   0  0  2  0  0  0  0  0  0  0  0  0
   -1.7280    1.8090    1.0060 O   0  0  0  0  0  0  0  0  0  0  0  0
   -1.5100    1.4710    2.6730 P   0  0  0  0  0  0  0  0  0  0  0  0
   -0.6100   -0.0060    2.8900 O   0  0  0  0  0  0  0  0  0  0  0  0
   -0.6120    0.5950   -0.6450 C   0  0  1  0  0  0  0  0  0  0  0  0
    0.5200    0.7180    0.2300 O   0  0  0  0  0  0  0  0  0  0  0  0
    1.5400    0.5260   -0.6980 C   0  0  1  0  0  0  0  0  0  0  0  0
    2.8320    0.1030   -0.0950 C   0  0  1  0  0  0  0  0  0  0  0  0
    3.8300   -0.0600   -1.2380 C   0  0  0  0  0  0  0  0  0  0  0  0
    3.5110    1.2950    1.0640 S   0  0  0  0  0  0  0  0  0  0  0  0
    2.7560   -1.2370    0.6000 C   0  0  0  0  0  0  0  0  0  0  0  0
    4.4130   -1.6730    1.3160 P   0  0  0  0  0  0  0  0  0  0  0  0
    5.4780   -0.6070    1.6580 O   0  0  0  0  0  0  0  0  0  0  0  0
    1.1120   -0.5340   -1.5660 O   0  0  0  0  0  0  0  0  0  0  0  0
   -0.2440   -0.7320   -1.2070 C   0  0  0  0  0  0  0  0  0  0  0  0
   -0.9120   -1.7710   -1.3470 O   0  0  0  0  0  0  0  0  0  0  0  0
  2  1  1  6
  2  3  1  0
  2  4  1  0
  2  5  1  0
  5  6  1  1
  5  9  1  0
  6  7  1  0
  7  8  1  0
  9 10  1  1
  9 19  1  0
 11 10  1  1
 11 12  1  0
 11 18  1  0
 12 13  1  6
 12 14  1  0
 12 15  1  0
 15 16  1  0
 16 17  2  0
 18 19  1  0
 19 20  2  0
M  END
