
     RDKit          3D

 16 17  0  0  0  0  0  0  0  0999 V2000
    4.0980   -0.3640    0.2160 N   0  0  0  0  0  0  0  0  0  0  0  0
    3.3630    0.8600    0.4710 C   0  0  0  0  0  0  0  0  0  0  0  0
    1.9660    0.7360   -0.0960 C   0  0  0  0  0  0  0  0  0  0  0  0
    1.2440   -0.4230    0.5550 C   0  0  0  0  0  0  0  0  0  0  0  0
   -0.1530   -0.5600   -0.0010 C   0  0  2  0  0  0  0  0  0  0  0  0
   -0.9130    0.5780    0.2150 O   0  0  0  0  0  0  0  0  0  0  0  0
   -2.2230    0.2920    0.4390 C   0  0  1  0  0  0  0  0  0  0  0  0
   -3.2030    1.3220    0.1070 C   0  0  0  0  0  0  0  0  0  0  0  0
   -2.9800    2.6980    0.2900 O   0  0  0  0  0  0  0  0  0  0  0  0
   -4.2740    0.7830   -0.3660 N   0  0  0  0  0  0  0  0  0  0  0  0
   -4.1190   -0.6540   -0.4000 C   0  0  0  0  0  0  0  0  0  0  0  0
   -5.0180   -1.5160   -0.3140 O   0  0  0  0  0  0  0  0  0  0  0  0
   -2.6540   -0.8010   -0.5570 C   0  0  2  0  0  0  0  0  0  0  0  0
   -2.1250   -1.9880   -0.0280 O   0  0  0  0  0  0  0  0  0  0  0  0
   -0.8110   -1.8100    0.4600 C   0  0  0  0  0  0  0  0  0  0  0  0
   -0.2610   -2.6500    1.2200 O   0  0  0  0  0  0  0  0  0  0  0  0
  1  2  1  0
  2  3  1  0
  3  4  1  0
  5  4  1  1
  5  6  1  0
  5 15  1  0
  7  6  1  6
  7  8  1  0
  7 13  1  0
  8  9  1  0
  8 10  2  0
 10 11  1  0
 11 12  2  0
 11 13  1  0
 13 14  1  1
 14 15  1  0
 15 16  2  0
M  CHG  1   1   1
M  END
