
     RDKit          3D

 17 18  0  0  0  0  0  0  0  0999 V2000
    4.6950   -0.3050   -0.6340 N   0  0  0  0  0  0  0  0  0  0  0  0
    3.6470   -0.1280    0.3100 C   0  0  0  0  0  0  0  0  0  0  0  0
    3.8860    0.1280    1.6230 N   0  0  0  0  0  0  0  0  0  0  0  0
    2.8650    0.2910    2.4910 C   0  0  0  0  0  0  0  0  0  0  0  0
    1.5940    0.1990    2.0560 N   0  0  0  0  0  0  0  0  0  0  0  0
    1.3140   -0.0550    0.7540 C   0  0  0  0  0  0  0  0  0  0  0  0
   -0.0090   -0.1600    0.2550 N   0  0  0  0  0  0  0  0  0  0  0  0
   -0.5870   -1.3220   -0.3870 C   0  0  0  0  0  0  0  0  0  0  0  0
   -2.0680   -1.1230   -0.0830 C   0  0  0  0  0  0  0  0  0  0  0  0
   -2.2200    0.3620   -0.3200 C   0  0  1  0  0  0  0  0  0  0  0  0
   -2.1880    0.6550   -1.6810 O   0  0  0  0  0  0  0  0  0  0  0  0
   -3.4730    0.9270    0.2670 C   0  0  1  0  0  0  0  0  0  0  0  0
   -3.4650    2.2990    0.0690 O   0  0  0  0  0  0  0  0  0  0  0  0
   -4.5800    0.3840   -0.3830 O   0  0  0  0  0  0  0  0  0  0  0  0
   -0.9900    0.9200    0.3270 C   0  0  0  0  0  0  0  0  0  0  0  0
    2.3490   -0.2230   -0.1420 C   0  0  0  0  0  0  0  0  0  0  0  0
    2.1110   -0.4900   -1.5100 N   0  0  0  0  0  0  0  0  0  0  0  0
  1  2  1  0
  2  3  2  0
  2 16  1  0
  3  4  1  0
  4  5  2  0
  5  6  1  0
  6  7  1  0
  6 16  2  0
  7  8  1  0
  7 15  1  0
  8  9  1  0
  9 10  1  0
 10 11  1  6
 10 12  1  0
 10 15  1  0
 12 13  1  6
 12 14  1  0
 16 17  1  0
M  END
