
     RDKit          3D

 17 18  0  0  0  0  0  0  0  0999 V2000
   -2.5840    1.0640    2.2250 N   0  0  0  0  0  0  0  0  0  0  0  0
   -2.6420    0.2150    1.0620 C   0  0  0  0  0  0  0  0  0  0  0  0
   -3.6600   -0.5410    0.8480 N   0  0  0  0  0  0  0  0  0  0  0  0
   -3.8140   -1.4100   -0.2620 C   0  0  0  0  0  0  0  0  0  0  0  0
   -4.8640   -2.1290   -0.3950 O   0  0  0  0  0  0  0  0  0  0  0  0
   -2.7770   -1.4690   -1.2290 N   0  0  0  0  0  0  0  0  0  0  0  0
   -1.6330   -0.6510   -1.0340 C   0  0  0  0  0  0  0  0  0  0  0  0
   -0.6700   -0.6610   -1.8690 O   0  0  0  0  0  0  0  0  0  0  0  0
   -1.5130    0.2370    0.1320 C   0  0  0  0  0  0  0  0  0  0  0  0
   -0.4660    0.9990    0.3300 C   0  0  0  0  0  0  0  0  0  0  0  0
   -0.4410    1.8230    1.4850 N   0  0  0  0  0  0  0  0  0  0  0  0
    0.6190    0.9920   -0.6040 N   0  0  0  0  0  0  0  0  0  0  0  0
    1.9310    0.5460   -0.2860 C   0  0  1  0  0  0  0  0  0  0  0  0
    2.0490   -0.8700    0.1860 C   0  0  0  0  0  0  0  0  0  0  0  0
    3.4580   -1.2270   -0.3010 C   0  0  0  0  0  0  0  0  0  0  0  0
    3.8420   -0.2460   -1.1730 O   0  0  0  0  0  0  0  0  0  0  0  0
    2.7520    0.4800   -1.5740 C   0  0  0  0  0  0  0  0  0  0  0  0
  1  2  1  0
  2  3  2  0
  2  9  1  0
  3  4  1  0
  4  5  2  0
  4  6  1  0
  6  7  1  0
  7  8  2  0
  7  9  1  0
  9 10  2  3
 10 11  1  0
 10 12  1  0
 13 12  1  6
 13 14  1  0
 13 17  1  0
 14 15  1  0
 15 16  1  0
 16 17  1  0
M  END
