
     RDKit          3D

 17 18  0  0  0  0  0  0  0  0999 V2000
   -1.3240   -2.1610   -0.4050 N   0  0  0  0  0  0  0  0  0  0  0  0
   -0.4250   -1.1520    0.1240 C   0  0  1  0  0  0  0  0  0  0  0  0
    0.8590   -1.0540   -0.6630 C   0  0  0  0  0  0  0  0  0  0  0  0
    1.6540    0.0930   -0.0960 C   0  0  1  0  0  0  0  0  0  0  0  0
    2.9390    0.2060   -0.6450 O   0  0  0  0  0  0  0  0  0  0  0  0
    4.0430    0.1070    0.1900 C   0  0  0  0  0  0  0  0  0  0  0  0
    3.8540   -0.0800    1.4040 O   0  0  0  0  0  0  0  0  0  0  0  0
    5.3550    0.2110   -0.2970 O   0  0  0  0  0  0  0  0  0  0  0  0
    0.8650    1.3530   -0.3910 C   0  0  0  0  0  0  0  0  0  0  0  0
   -0.3140    1.3210    0.5630 C   0  0  0  0  0  0  0  0  0  0  0  0
   -1.1720    0.1380    0.2130 C   0  0  2  0  0  0  0  0  0  0  0  0
   -2.1910    0.0070    1.2370 N   0  0  0  0  0  0  0  0  0  0  0  0
   -3.2750    0.8490    0.8630 C   0  0  0  0  0  0  0  0  0  0  0  0
   -4.2100    1.2820    1.5850 O   0  0  0  0  0  0  0  0  0  0  0  0
   -3.1240    1.1350   -0.5320 N   0  0  0  0  0  0  0  0  0  0  0  0
   -1.9530    0.4650   -0.9830 C   0  0  0  0  0  0  0  0  0  0  0  0
   -1.7220    0.2430   -2.1990 O   0  0  0  0  0  0  0  0  0  0  0  0
  2  1  1  6
  2  3  1  0
  2 11  1  0
  3  4  1  0
  4  5  1  6
  4  9  1  0
  5  6  1  0
  6  7  2  0
  6  8  1  0
  9 10  1  0
 11 10  1  1
 11 12  1  0
 11 16  1  0
 12 13  1  0
 13 14  2  0
 13 15  1  0
 15 16  1  0
 16 17  2  0
M  CHG  1   1   1
M  END
