
     RDKit          3D

 16 17  0  0  0  0  0  0  0  0999 V2000
    4.2910    2.3130   -0.4640 O   0  0  0  0  0  0  0  0  0  0  0  0
    3.7790    1.2080   -0.2080 C   0  0  0  0  0  0  0  0  0  0  0  0
    2.7940    1.0350    0.8300 N   0  0  0  0  0  0  0  0  0  0  0  0
    2.5730   -0.1670    1.3870 O   0  0  0  0  0  0  0  0  0  0  0  0
    2.3440   -1.1730    0.4490 C   0  0  1  0  0  0  0  0  0  0  0  0
    1.0830   -0.8290   -0.3050 C   0  0  0  0  0  0  0  0  0  0  0  0
   -0.0700   -0.7310    0.5710 N   0  0  0  0  0  0  0  0  0  0  0  0
   -1.1510   -0.2250   -0.1990 C   0  0  1  0  0  0  0  0  0  0  0  0
   -2.3530   -1.1360   -0.2570 C   0  0  0  0  0  0  0  0  0  0  0  0
   -3.5720   -0.2420   -0.3620 C   0  0  0  0  0  0  0  0  0  0  0  0
   -2.9810    1.1590   -0.5040 C   0  0  1  0  0  0  0  0  0  0  0  0
   -3.8440    2.1410   -0.1080 O   0  0  0  0  0  0  0  0  0  0  0  0
   -1.7750    1.0290    0.4300 C   0  0  0  0  0  0  0  0  0  0  0  0
    3.4720   -1.1720   -0.5350 C   0  0  0  0  0  0  0  0  0  0  0  0
    3.8700   -2.2430   -1.0480 O   0  0  0  0  0  0  0  0  0  0  0  0
    4.1280    0.0280   -0.9240 N   0  0  0  0  0  0  0  0  0  0  0  0
  1  2  2  0
  2  3  1  0
  2 16  1  0
  3  4  1  0
  4  5  1  0
  5  6  1  6
  5 14  1  0
  6  7  1  0
  8  7  1  1
  8  9  1  0
  8 13  1  0
  9 10  1  0
 10 11  1  0
 11 12  1  1
 11 13  1  0
 14 15  2  0
 14 16  1  0
M  CHG  1   7   1
M  END
