
     RDKit          3D

 17 18  0  0  0  0  0  0  0  0999 V2000
    5.6200    0.9170    0.1570 N   0  0  0  0  0  0  0  0  0  0  0  0
    4.3110    0.4190    0.3570 C   0  0  0  0  0  0  0  0  0  0  0  0
    3.7020    0.7540    1.4180 O   0  0  0  0  0  0  0  0  0  0  0  0
    3.7240   -0.4290   -0.6170 N   0  0  0  0  0  0  0  0  0  0  0  0
    2.3910   -0.9560   -0.4460 C   0  0  0  0  0  0  0  0  0  0  0  0
    1.4510    0.2180   -0.3470 C   0  0  0  0  0  0  0  0  0  0  0  0
    1.7510    1.4650   -0.4020 N   0  0  0  0  0  0  0  0  0  0  0  0
    0.6110    2.2650   -0.2740 N   0  0  0  0  0  0  0  0  0  0  0  0
   -0.4950    1.4200   -0.1260 N   0  0  0  0  0  0  0  0  0  0  0  0
    0.0060    0.0900   -0.1680 C   0  0  0  0  0  0  0  0  0  0  0  0
   -0.6520   -1.0510   -0.0710 C   0  0  0  0  0  0  0  0  0  0  0  0
   -2.1240   -1.1160    0.1110 C   0  0  2  0  0  0  0  0  0  0  0  0
   -2.5490   -2.4350    0.2400 O   0  0  0  0  0  0  0  0  0  0  0  0
   -2.8870   -0.5120   -1.0390 C   0  0  0  0  0  0  0  0  0  0  0  0
   -4.0010    0.2400   -0.3820 C   0  0  0  0  0  0  0  0  0  0  0  0
   -3.7120    0.1270    1.0720 C   0  0  0  0  0  0  0  0  0  0  0  0
   -2.4340   -0.3750    1.2380 O   0  0  0  0  0  0  0  0  0  0  0  0
  1  2  1  0
  2  3  2  0
  2  4  1  0
  4  5  1  0
  5  6  1  0
  6  7  2  0
  6 10  1  0
  7  8  1  0
  8  9  1  0
  9 10  1  0
 10 11  2  3
 11 12  1  0
 12 13  1  1
 12 14  1  0
 12 17  1  0
 14 15  1  0
 15 16  1  0
 16 17  1  0
M  END
