
     RDKit          3D

 17 17  0  0  0  0  0  0  0  0999 V2000
    6.5880    0.3000    1.4390 N   0  0  0  0  0  0  0  0  0  0  0  0
    5.1900    0.4820    1.2800 C   0  0  0  0  0  0  0  0  0  0  0  0
    4.4290    0.8200    2.2420 O   0  0  0  0  0  0  0  0  0  0  0  0
    4.5670    0.2910    0.0130 N   0  0  0  0  0  0  0  0  0  0  0  0
    3.1520    0.4740   -0.1570 C   0  0  0  0  0  0  0  0  0  0  0  0
    2.4590    0.8030    0.8180 O   0  0  0  0  0  0  0  0  0  0  0  0
    2.5430    0.2690   -1.4760 C   0  0  0  0  0  0  0  0  0  0  0  0
    1.1170    0.5120   -1.3830 N   0  0  0  0  0  0  0  0  0  0  0  0
    0.2850   -0.2480   -0.5170 C   0  0  0  0  0  0  0  0  0  0  0  0
    0.8180   -1.1590    0.1860 O   0  0  0  0  0  0  0  0  0  0  0  0
   -1.1050   -0.0340   -0.4050 N   0  0  0  0  0  0  0  0  0  0  0  0
   -1.9080   -0.8300    0.4870 C   0  0  2  0  0  0  0  0  0  0  0  0
   -2.9110   -1.5920   -0.3540 C   0  0  0  0  0  0  0  0  0  0  0  0
   -4.1760   -0.7580   -0.3370 C   0  0  0  0  0  0  0  0  0  0  0  0
   -4.1190    0.0710    0.9260 C   0  0  2  0  0  0  0  0  0  0  0  0
   -4.4280    1.4640    0.5930 N   0  0  0  0  0  0  0  0  0  0  0  0
   -2.7200    0.0080    1.4460 C   0  0  0  0  0  0  0  0  0  0  0  0
  1  2  1  0
  2  3  2  0
  2  4  1  0
  4  5  1  0
  5  6  2  0
  5  7  1  0
  7  8  1  0
  8  9  1  0
  9 10  2  0
  9 11  1  0
 12 11  1  6
 12 13  1  0
 12 17  1  0
 13 14  1  0
 14 15  1  0
 15 16  1  6
 15 17  1  0
M  END
