
     RDKit          3D

 42 44  0  0  0  0  0  0  0  0999 V2000
    7.8600   -1.3460   -0.2150 C   0  0  0  0  0  0  0  0  0  0  0  0
    7.6360   -0.3380    0.9610 S   0  0  2  0  0  0  0  0  0  0  0  0
    7.9650   -0.8030    2.4460 O   0  0  0  0  0  0  0  0  0  0  0  0
    6.0190   -0.4440    1.0580 C   0  0  0  0  0  0  0  0  0  0  0  0
    4.7750   -0.4120    0.8360 C   0  0  0  0  0  0  0  0  0  0  0  0
    4.0230   -1.3690    0.1510 C   0  0  0  0  0  0  0  0  0  0  0  0
    2.8300   -0.5910   -0.2500 N   0  0  0  0  0  0  0  0  0  0  0  0
    2.7970    0.5330    0.6020 C   0  0  0  0  0  0  0  0  0  0  0  0
    3.9630    0.6080    1.2280 N   0  0  0  0  0  0  0  0  0  0  0  0
    1.6110    1.3450    0.6620 C   0  0  0  0  0  0  0  0  0  0  0  0
    0.5680    1.0240   -0.0820 C   0  0  0  0  0  0  0  0  0  0  0  0
   -0.6330    1.8750   -0.0020 C   0  0  0  0  0  0  0  0  0  0  0  0
   -1.8430    1.1730    0.6150 C   0  0  1  0  0  0  0  0  0  0  0  0
   -2.9970    2.0630    0.6370 C   0  0  0  0  0  0  0  0  0  0  0  0
   -4.2810    1.6440    1.2170 C   0  0  2  0  0  0  0  0  0  0  0  0
   -4.9960    0.4750    0.6340 C   0  0  0  0  0  0  0  0  0  0  0  0
   -5.2880    2.8270    1.0910 C   0  0  0  0  0  0  0  0  0  0  0  0
   -4.2480    1.4010    2.6210 O   0  0  0  0  0  0  0  0  0  0  0  0
   -3.9510    2.3580    3.5270 C   0  0  0  0  0  0  0  0  0  0  0  0
   -3.6870    3.5340    3.1940 O   0  0  0  0  0  0  0  0  0  0  0  0
   -3.9150    2.1070    4.9190 O   0  0  0  0  0  0  0  0  0  0  0  0
   -3.6020    3.1380    5.8190 C   0  0  0  0  0  0  0  0  0  0  0  0
   -1.8860   -0.2200    0.4570 N   0  0  0  0  0  0  0  0  0  0  0  0
   -1.3250   -1.0490    1.5060 C   0  0  0  0  0  0  0  0  0  0  0  0
   -1.5610   -2.4840    1.5240 C   0  0  0  0  0  0  0  0  0  0  0  0
   -2.7310   -2.9750    0.6500 C   0  0  0  0  0  0  0  0  0  0  0  0
   -2.4060   -2.3630   -0.6600 C   0  0  0  0  0  0  0  0  0  0  0  0
   -2.1370   -3.0660   -1.6180 O   0  0  0  0  0  0  0  0  0  0  0  0
   -2.4220   -0.9140   -0.7190 C   0  0  0  0  0  0  0  0  0  0  0  0
   -2.7780   -0.2350   -1.7440 C   0  0  0  0  0  0  0  0  0  0  0  0
   -3.3390   -0.5020   -3.0340 C   0  0  0  0  0  0  0  0  0  0  0  0
   -3.8810   -1.6970   -3.8740 P   0  0  0  0  0  0  0  0  0  0  0  0
   -4.1350   -3.4400   -3.7400 C   0  0  0  0  0  0  0  0  0  0  0  0
    0.6370   -0.1050   -0.9200 O   0  0  0  0  0  0  0  0  0  0  0  0
    1.8370   -0.7650   -1.2530 C   0  0  2  0  0  0  0  0  0  0  0  0
    1.6190   -2.2450   -1.4740 C   0  0  0  0  0  0  0  0  0  0  0  0
    2.4250   -0.2010   -2.5480 C   0  0  0  0  0  0  0  0  0  0  0  0
    1.5240   -0.3020   -3.6970 C   0  0  0  0  0  0  0  0  0  0  0  0
    1.9520    0.1910   -5.0100 C   0  0  0  0  0  0  0  0  0  0  0  0
    0.4130   -0.7970   -3.5680 O   0  0  0  0  0  0  0  0  0  0  0  0
    7.9350    1.2470    0.3910 C   0  0  0  0  0  0  0  0  0  0  0  0
    7.2280    2.1790    1.1520 O   0  0  0  0  0  0  0  0  0  0  0  0
  1  2  2  0
  2  3  1  1
  2  4  2  0
  2 41  1  0
  4  5  2  0
  5  6  1  0
  5  9  1  0
  6  7  1  0
  7  8  1  0
  7 35  1  0
  8  9  2  0
  8 10  1  0
 10 11  2  0
 11 12  1  0
 11 34  1  0
 13 12  1  6
 13 14  1  0
 13 23  1  0
 14 15  1  0
 15 16  1  6
 15 17  1  0
 15 18  1  0
 18 19  1  0
 19 20  2  0
 19 21  1  0
 21 22  1  0
 23 24  1  0
 23 29  1  0
 24 25  1  0
 25 26  1  0
 26 27  1  0
 27 28  2  0
 27 29  1  0
 29 30  2  3
 30 31  1  0
 31 32  2  3
 32 33  1  0
 34 35  1  0
 35 36  1  6
 35 37  1  0
 37 38  1  0
 38 39  1  0
 38 40  2  0
 41 42  1  0
M  END
