
     RDKit          3D

 40 44  0  0  0  0  0  0  0  0999 V2000
    3.0060    0.5610    1.0790 C   0  0  0  0  0  0  0  0  0  0  0  0
    2.1000    0.4550   -0.5330 P   0  0  0  0  0  0  0  0  0  0  0  0
    0.3240    0.3900   -0.2660 C   0  0  0  0  0  0  0  0  0  0  0  0
   -0.4200   -0.6580   -0.1960 N   0  0  0  0  0  0  0  0  0  0  0  0
   -1.8230   -0.5960    0.0180 N   0  0  0  0  0  0  0  0  0  0  0  0
   -2.4570   -1.5940    0.6840 N   0  0  0  0  0  0  0  0  0  0  0  0
   -1.5520   -2.6540    0.8750 O   0  0  0  0  0  0  0  0  0  0  0  0
   -1.3680   -3.2790   -0.3310 O   0  0  0  0  0  0  0  0  0  0  0  0
   -2.1400   -2.5060   -1.1090 N   0  0  0  0  0  0  0  0  0  0  0  0
   -2.2920   -1.5960   -2.1640 C   0  0  0  0  0  0  0  0  0  0  0  0
   -1.4240   -1.3080   -3.0210 O   0  0  0  0  0  0  0  0  0  0  0  0
   -3.6250   -1.0470   -2.0950 O   0  0  0  0  0  0  0  0  0  0  0  0
   -4.2810   -1.6520   -1.0260 C   0  0  0  0  0  0  0  0  0  0  0  0
   -5.4790   -1.5710   -0.6030 N   0  0  0  0  0  0  0  0  0  0  0  0
   -5.9220   -2.3410    0.4770 O   0  0  0  0  0  0  0  0  0  0  0  0
   -5.0610   -3.2090    1.0700 N   0  0  0  0  0  0  0  0  0  0  0  0
   -3.8290   -3.3250    0.6790 C   0  0  0  0  0  0  0  0  0  0  0  0
   -2.9600   -4.2560    1.2760 O   0  0  0  0  0  0  0  0  0  0  0  0
   -3.3260   -2.4570   -0.3550 C   0  0  2  0  0  0  0  0  0  0  0  0
   -2.4130    0.5440   -0.4810 O   0  0  0  0  0  0  0  0  0  0  0  0
   -1.7630    1.5950    0.1430 N   0  0  0  0  0  0  0  0  0  0  0  0
   -2.4660    2.5060    0.9360 C   0  0  0  0  0  0  0  0  0  0  0  0
   -3.7410    2.3820    1.0160 O   0  0  0  0  0  0  0  0  0  0  0  0
   -1.8990    3.5580    1.6660 N   0  0  0  0  0  0  0  0  0  0  0  0
   -2.7980    4.4210    2.4400 C   0  0  0  0  0  0  0  0  0  0  0  0
   -2.0560    5.4000    3.0920 O   0  0  0  0  0  0  0  0  0  0  0  0
   -1.4220    6.1100    2.1960 O   0  0  0  0  0  0  0  0  0  0  0  0
   -0.3760    1.6840   -0.0850 C   0  0  0  0  0  0  0  0  0  0  0  0
    0.3700    3.1050   -0.1830 S   0  0  0  0  0  0  0  0  0  0  0  0
    2.9100   -1.1530   -1.7200 P   0  0  0  0  0  0  0  0  0  0  0  0
    2.4110   -2.7180   -1.2390 O   0  0  0  0  0  0  0  0  0  0  0  0
    4.7740   -1.0070   -1.6780 C   0  0  1  0  0  0  0  0  0  0  0  0
    5.3530   -1.4230   -2.8570 O   0  0  0  0  0  0  0  0  0  0  0  0
    5.0960    0.3740   -1.5180 O   0  0  0  0  0  0  0  0  0  0  0  0
    6.2350    0.7890   -0.8460 C   0  0  0  0  0  0  0  0  0  0  0  0
    6.6200    1.9730   -1.0380 O   0  0  0  0  0  0  0  0  0  0  0  0
    6.8830   -0.0880   -0.0180 O   0  0  0  0  0  0  0  0  0  0  0  0
    6.4480   -1.3520    0.1690 O   0  0  0  0  0  0  0  0  0  0  0  0
    5.3060   -1.7620   -0.5060 C   0  0  0  0  0  0  0  0  0  0  0  0
    4.6920   -2.7790   -0.1480 O   0  0  0  0  0  0  0  0  0  0  0  0
  1  2  1  0
  2  3  1  0
  2 30  1  0
  3  4  2  0
  3 28  1  0
  4  5  1  0
  5  6  1  0
  5 20  1  0
  6  7  1  0
 19  6  1  1
  7  8  1  0
  8  9  1  0
  9 10  1  0
  9 19  1  0
 10 11  2  0
 10 12  1  0
 12 13  1  0
 13 14  2  0
 13 19  1  0
 14 15  1  0
 15 16  1  0
 16 17  2  0
 17 18  1  0
 17 19  1  0
 20 21  1  0
 21 22  1  0
 21 28  1  0
 22 23  2  0
 22 24  1  0
 24 25  1  0
 25 26  1  0
 26 27  1  0
 28 29  2  0
 30 31  1  0
 30 32  1  0
 32 33  1  6
 32 34  1  0
 32 39  1  0
 34 35  1  0
 35 36  2  0
 35 37  1  0
 37 38  1  0
 38 39  1  0
 39 40  2  0
M  END
