
     RDKit          3D

 35 39  0  0  0  0  0  0  0  0999 V2000
   -4.7660    1.2610    3.4760 N   0  0  0  0  0  0  0  0  0  0  0  0
   -5.4110    1.0050    2.2320 C   0  0  0  0  0  0  0  0  0  0  0  0
   -6.6130    1.5190    1.9400 N   0  0  0  0  0  0  0  0  0  0  0  0
   -7.2490    1.2980    0.7780 C   0  0  0  0  0  0  0  0  0  0  0  0
   -8.3710    1.7800    0.5080 O   0  0  0  0  0  0  0  0  0  0  0  0
   -6.6170    0.4930   -0.1560 C   0  0  0  0  0  0  0  0  0  0  0  0
   -6.9280    0.0640   -1.3770 N   0  0  0  0  0  0  0  0  0  0  0  0
   -5.9590   -0.7150   -1.8830 C   0  0  0  0  0  0  0  0  0  0  0  0
   -5.0150   -0.7770   -0.9550 N   0  0  0  0  0  0  0  0  0  0  0  0
   -3.7660   -1.5070   -1.0500 C   0  0  2  0  0  0  0  0  0  0  0  0
   -2.7620   -0.9220   -0.3310 O   0  0  0  0  0  0  0  0  0  0  0  0
   -1.5590   -1.0710   -0.9580 C   0  0  2  0  0  0  0  0  0  0  0  0
   -1.0560    0.3170   -1.3440 C   0  0  0  0  0  0  0  0  0  0  0  0
   -0.8700    1.3080    0.1290 S   0  0  0  0  0  0  0  0  0  0  0  0
    0.4670    0.8020    1.4000 P   0  0  0  0  0  0  0  0  0  0  0  0
   -0.6700   -0.0920    2.2260 O   0  0  0  0  0  0  0  0  0  0  0  0
    0.6830    2.3730    1.8680 O   0  0  0  0  0  0  0  0  0  0  0  0
    1.5380    0.0730    0.3500 N   0  0  0  0  0  0  0  0  0  0  0  0
    2.8520    0.5820    0.4080 C   0  0  0  0  0  0  0  0  0  0  0  0
    3.7990   -0.1110   -0.5730 C   0  0  0  0  0  0  0  0  0  0  0  0
    5.1600    0.4510   -0.4730 C   0  0  0  0  0  0  0  0  0  0  0  0
    5.7140    1.3290   -1.3730 C   0  0  0  0  0  0  0  0  0  0  0  0
    6.9740    1.6330   -0.9610 N   0  0  0  0  0  0  0  0  0  0  0  0
    7.1990    0.9430    0.1950 C   0  0  0  0  0  0  0  0  0  0  0  0
    8.2940    0.8720    1.0400 C   0  0  0  0  0  0  0  0  0  0  0  0
    8.2320    0.0630    2.1710 C   0  0  0  0  0  0  0  0  0  0  0  0
    7.1050   -0.6710    2.4740 C   0  0  0  0  0  0  0  0  0  0  0  0
    6.0080   -0.6010    1.6290 C   0  0  0  0  0  0  0  0  0  0  0  0
    6.0890    0.2150    0.5000 C   0  0  0  0  0  0  0  0  0  0  0  0
   -1.7890   -1.8440   -2.2360 C   0  0  1  0  0  0  0  0  0  0  0  0
   -1.6420   -3.2050   -1.9100 O   0  0  0  0  0  0  0  0  0  0  0  0
   -3.2650   -1.6070   -2.4730 C   0  0  1  0  0  0  0  0  0  0  0  0
   -3.8490   -2.6580   -3.1740 O   0  0  0  0  0  0  0  0  0  0  0  0
   -5.3660   -0.0530    0.1280 C   0  0  0  0  0  0  0  0  0  0  0  0
   -4.8260    0.2330    1.3130 N   0  0  0  0  0  0  0  0  0  0  0  0
  1  2  1  0
  2  3  1  0
  2 35  2  0
  3  4  1  0
  4  5  2  0
  4  6  1  0
  6  7  1  0
  6 34  2  0
  7  8  2  0
  8  9  1  0
 10  9  1  6
  9 34  1  0
 10 11  1  0
 10 32  1  0
 11 12  1  0
 12 13  1  6
 12 30  1  0
 13 14  1  0
 14 15  1  0
 15 16  1  0
 15 17  1  0
 15 18  1  0
 18 19  1  0
 19 20  1  0
 20 21  1  0
 21 22  2  0
 21 29  1  0
 22 23  1  0
 23 24  1  0
 24 25  2  0
 24 29  1  0
 25 26  1  0
 26 27  2  0
 27 28  1  0
 28 29  2  0
 30 31  1  1
 30 32  1  0
 32 33  1  1
 34 35  1  0
M  CHG  1  35   1
M  END
