
     RDKit          3D

 42 43  0  0  0  0  0  0  0  0999 V2000
    8.4580   -2.3930    1.6960 C   0  0  0  0  0  0  0  0  0  0  0  0
    7.4760   -1.5750    0.8730 C   0  0  0  0  0  0  0  0  0  0  0  0
    6.1440   -2.1690    0.9890 C   0  0  0  0  0  0  0  0  0  0  0  0
    5.5720   -2.0990    2.1720 C   0  0  0  0  0  0  0  0  0  0  0  0
    5.0860   -1.9070    3.3810 C   0  0  0  0  0  0  0  0  0  0  0  0
    4.3910   -0.6730    3.5650 C   0  0  0  0  0  0  0  0  0  0  0  0
    4.6070    0.4320    2.8770 C   0  0  0  0  0  0  0  0  0  0  0  0
    3.8550    1.6680    3.1200 C   0  0  0  0  0  0  0  0  0  0  0  0
    2.9680    2.1600    1.6280 S   0  0  0  0  0  0  0  0  0  0  0  0
    1.7290    1.0180    1.2470 O   0  0  0  0  0  0  0  0  0  0  0  0
    1.5010    1.0450   -0.0590 O   0  0  0  0  0  0  0  0  0  0  0  0
    2.3090    0.1520   -0.7270 C   0  0  2  0  0  0  0  0  0  0  0  0
    3.5310    1.1170   -1.7620 P   0  0  0  0  0  0  0  0  0  0  0  0
    1.6370   -0.7860   -1.5560 N   0  0  0  0  0  0  0  0  0  0  0  0
    0.7720   -0.1850   -2.5650 C   0  0  0  0  0  0  0  0  0  0  0  0
   -0.4540    0.4380   -1.9250 C   0  0  0  0  0  0  0  0  0  0  0  0
   -0.7250    1.7020   -2.0810 C   0  0  0  0  0  0  0  0  0  0  0  0
    0.0770    2.6510   -2.8750 C   0  0  0  0  0  0  0  0  0  0  0  0
    0.4600    2.4910   -4.1680 C   0  0  0  0  0  0  0  0  0  0  0  0
    1.2330    3.4320   -4.8290 C   0  0  0  0  0  0  0  0  0  0  0  0
    1.6300    4.5720   -4.1640 C   0  0  0  0  0  0  0  0  0  0  0  0
    1.2530    4.7520   -2.8570 C   0  0  0  0  0  0  0  0  0  0  0  0
    0.4860    3.8170   -2.2030 C   0  0  0  0  0  0  0  0  0  0  0  0
   -1.8950    2.2930   -1.3340 C   0  0  0  0  0  0  0  0  0  0  0  0
   -2.9260    1.3020   -0.9160 C   0  0  0  0  0  0  0  0  0  0  0  0
   -2.4820   -0.0850   -0.7760 C   0  0  0  0  0  0  0  0  0  0  0  0
   -3.2430   -1.1050   -0.0560 N   0  0  0  0  0  0  0  0  0  0  0  0
   -2.5830   -2.3720    0.0700 C   0  0  0  0  0  0  0  0  0  0  0  0
   -1.3970   -2.4110   -0.4760 O   0  0  0  0  0  0  0  0  0  0  0  0
   -2.9780   -3.6070    0.6880 C   0  0  0  0  0  0  0  0  0  0  0  0
   -4.2630   -3.7160    1.2000 O   0  0  0  0  0  0  0  0  0  0  0  0
   -4.6960   -4.8740    1.8590 C   0  0  0  0  0  0  0  0  0  0  0  0
   -3.8520   -5.7880    1.9540 O   0  0  0  0  0  0  0  0  0  0  0  0
   -5.9700   -4.9840    2.3640 O   0  0  0  0  0  0  0  0  0  0  0  0
   -4.5320   -0.8140    0.4640 C   0  0  2  0  0  0  0  0  0  0  0  0
   -5.5770   -0.6740   -0.6110 C   0  0  0  0  0  0  0  0  0  0  0  0
   -6.9460   -0.3990   -0.0130 C   0  0  0  0  0  0  0  0  0  0  0  0
   -4.6020    0.1670    1.5530 C   0  0  0  0  0  0  0  0  0  0  0  0
   -3.5750    0.4510    2.2720 O   0  0  0  0  0  0  0  0  0  0  0  0
   -5.7530    0.8390    1.8690 O   0  0  0  0  0  0  0  0  0  0  0  0
   -5.8210    1.7920    2.9110 C   0  0  0  0  0  0  0  0  0  0  0  0
   -1.3520   -0.4140   -1.2620 N   0  0  0  0  0  0  0  0  0  0  0  0
  1  2  1  0
  2  3  1  0
  3  4  2  0
  4  5  2  0
  5  6  1  0
  6  7  2  3
  7  8  1  0
  8  9  1  0
  9 10  1  0
 10 11  1  0
 11 12  1  0
 12 13  1  6
 12 14  1  0
 14 15  1  0
 15 16  1  0
 16 17  2  0
 16 42  1  0
 17 18  1  0
 17 24  1  0
 18 19  2  0
 18 23  1  0
 19 20  1  0
 20 21  2  0
 21 22  1  0
 22 23  2  0
 24 25  1  0
 25 26  1  0
 26 27  1  0
 26 42  2  0
 27 28  1  0
 27 35  1  0
 28 29  2  0
 28 30  1  0
 30 31  1  0
 31 32  1  0
 32 33  2  0
 32 34  1  0
 35 36  1  6
 35 38  1  0
 36 37  1  0
 38 39  2  0
 38 40  1  0
 40 41  1  0
M  END
