
     RDKit          3D

 42 45  0  0  0  0  0  0  0  0999 V2000
   -5.1910   -5.1770    1.6480 C   0  0  0  0  0  0  0  0  0  0  0  0
   -5.2900   -3.8590    0.8740 C   0  0  0  0  0  0  0  0  0  0  0  0
   -4.0620   -3.2600    0.7850 O   0  0  0  0  0  0  0  0  0  0  0  0
   -4.0420   -2.0530    0.0990 C   0  0  1  0  0  0  0  0  0  0  0  0
   -4.5300   -2.1930   -1.3290 C   0  0  0  0  0  0  0  0  0  0  0  0
   -4.7800   -0.9990    0.8300 C   0  0  0  0  0  0  0  0  0  0  0  0
   -5.3140   -1.1810    1.9000 O   0  0  0  0  0  0  0  0  0  0  0  0
   -2.2460   -1.5670   -0.0230 P   0  0  0  0  0  0  0  0  0  0  0  0
   -1.9960    0.2400    0.0340 C   0  0  0  0  0  0  0  0  0  0  0  0
   -1.1630    0.7970   -1.1120 C   0  0  1  0  0  0  0  0  0  0  0  0
    0.1870    0.2140   -1.1470 C   0  0  0  0  0  0  0  0  0  0  0  0
    0.4780   -0.8760   -1.9290 C   0  0  0  0  0  0  0  0  0  0  0  0
    1.7510   -1.3850   -1.8640 C   0  0  0  0  0  0  0  0  0  0  0  0
    2.7650   -0.8530   -1.0450 C   0  0  0  0  0  0  0  0  0  0  0  0
    4.0400   -1.4480   -1.0820 N   0  0  0  0  0  0  0  0  0  0  0  0
    5.0690   -1.5140   -0.0770 C   0  0  1  0  0  0  0  0  0  0  0  0
    5.4830   -0.1340    0.3360 C   0  0  0  0  0  0  0  0  0  0  0  0
    4.7880   -2.6630    1.1480 S   0  0  0  0  0  0  0  0  0  0  0  0
    3.4310   -1.6750    1.5530 N   0  0  0  0  0  0  0  0  0  0  0  0
    6.2250   -2.2030    1.7600 O   0  0  0  0  0  0  0  0  0  0  0  0
    4.5750   -3.8580    0.0520 C   0  0  0  0  0  0  0  0  0  0  0  0
    5.6710   -3.9790   -0.8430 O   0  0  0  0  0  0  0  0  0  0  0  0
    2.4760    0.2250   -0.2740 C   0  0  0  0  0  0  0  0  0  0  0  0
    1.1730    0.7540   -0.3350 C   0  0  0  0  0  0  0  0  0  0  0  0
    0.9960    1.9420    0.4960 C   0  0  0  0  0  0  0  0  0  0  0  0
    1.0400    1.8790    1.8750 C   0  0  0  0  0  0  0  0  0  0  0  0
    0.9110    3.0540    2.5800 C   0  0  0  0  0  0  0  0  0  0  0  0
    0.7410    4.2690    1.9140 C   0  0  0  0  0  0  0  0  0  0  0  0
    0.6970    4.3310    0.5450 C   0  0  0  0  0  0  0  0  0  0  0  0
    0.8280    3.1500   -0.1500 C   0  0  0  0  0  0  0  0  0  0  0  0
    0.5130    5.7140    0.0740 C   0  0  0  0  0  0  0  0  0  0  0  0
    0.6160    6.5850    1.2820 C   0  0  0  0  0  0  0  0  0  0  0  0
    0.5810    5.6310    2.4300 C   0  0  0  0  0  0  0  0  0  0  0  0
   -0.5130   -1.5230   -2.8450 C   0  0  0  0  0  0  0  0  0  0  0  0
   -1.6890   -0.6590   -3.0230 C   0  0  0  0  0  0  0  0  0  0  0  0
   -2.6150   -0.9630   -3.8180 O   0  0  0  0  0  0  0  0  0  0  0  0
   -1.8800    0.5960   -2.3080 N   0  0  0  0  0  0  0  0  0  0  0  0
   -2.7900    1.5360   -2.8230 C   0  0  0  0  0  0  0  0  0  0  0  0
   -3.3760    1.2920   -3.9290 O   0  0  0  0  0  0  0  0  0  0  0  0
   -3.1210    2.7730   -2.1900 C   0  0  0  0  0  0  0  0  0  0  0  0
   -2.6990    3.2160   -1.0960 O   0  0  0  0  0  0  0  0  0  0  0  0
   -4.0390    3.6840   -2.8070 O   0  0  0  0  0  0  0  0  0  0  0  0
  1  2  1  0
  2  3  1  0
  3  4  1  0
  4  5  1  6
  4  6  1  0
  4  8  1  0
  6  7  2  0
  8  9  1  0
 10  9  1  1
 10 11  1  0
 10 37  1  0
 11 12  2  0
 11 24  1  0
 12 13  1  0
 12 34  1  0
 13 14  2  0
 14 15  1  0
 14 23  1  0
 15 16  1  0
 16 17  1  1
 16 18  1  0
 18 19  1  0
 18 20  2  0
 18 21  1  0
 21 22  1  0
 23 24  2  0
 24 25  1  0
 25 26  2  0
 25 30  1  0
 26 27  1  0
 27 28  2  0
 28 29  1  0
 28 33  1  0
 29 30  2  0
 29 31  1  0
 31 32  1  0
 32 33  1  0
 34 35  1  0
 35 36  2  0
 35 37  1  0
 37 38  1  0
 38 39  2  0
 38 40  1  0
 40 41  2  0
 40 42  1  0
M  END
