
     RDKit          3D

 40 44  0  0  0  0  0  0  0  0999 V2000
   -5.6380    3.0010    3.0920 N   0  0  0  0  0  0  0  0  0  0  0  0
   -6.1570    2.0200    1.6540 P   0  0  0  0  0  0  0  0  0  0  0  0
   -7.2380    0.7860    2.2240 O   0  0  0  0  0  0  0  0  0  0  0  0
   -4.5930    1.1930    1.0190 C   0  0  0  0  0  0  0  0  0  0  0  0
   -3.8360    2.0880    0.4180 O   0  0  0  0  0  0  0  0  0  0  0  0
   -2.6650    1.8600   -0.1460 C   0  0  1  0  0  0  0  0  0  0  0  0
   -1.6640    1.3390    0.7820 C   0  0  0  0  0  0  0  0  0  0  0  0
   -0.7130    0.7880    1.5780 C   0  0  0  0  0  0  0  0  0  0  0  0
   -0.4090    1.2550    2.8400 N   0  0  0  0  0  0  0  0  0  0  0  0
    0.3100    0.5970    3.6550 N   0  0  0  0  0  0  0  0  0  0  0  0
    0.7690   -0.6290    3.1840 O   0  0  0  0  0  0  0  0  0  0  0  0
    1.2180   -0.7020    1.7960 C   0  0  1  0  0  0  0  0  0  0  0  0
    2.2340    0.2150    1.6480 O   0  0  0  0  0  0  0  0  0  0  0  0
    1.6490   -2.0340    1.6950 O   0  0  0  0  0  0  0  0  0  0  0  0
    2.2430   -2.3720    0.1650 S   0  0  0  0  0  0  0  0  0  0  0  0
    3.9830   -2.6640    0.1310 N   0  0  0  0  0  0  0  0  0  0  0  0
    4.7220   -3.7690    0.6780 C   0  0  0  0  0  0  0  0  0  0  0  0
    6.1330   -3.5050    0.3630 C   0  0  0  0  0  0  0  0  0  0  0  0
    6.2370   -2.3720   -0.2980 C   0  0  0  0  0  0  0  0  0  0  0  0
    4.9120   -1.7930   -0.4760 C   0  0  0  0  0  0  0  0  0  0  0  0
    4.6630   -0.6870   -1.0840 N   0  0  0  0  0  0  0  0  0  0  0  0
    5.6710    0.0440   -1.6190 O   0  0  0  0  0  0  0  0  0  0  0  0
    6.2290    1.4690   -0.7370 P   0  0  0  0  0  0  0  0  0  0  0  0
    0.0580   -0.3520    0.9550 C   0  0  2  0  0  0  0  0  0  0  0  0
    0.3810    0.0900   -0.4410 C   0  0  0  0  0  0  0  0  0  0  0  0
    1.5990    0.0090   -1.0090 O   0  0  0  0  0  0  0  0  0  0  0  0
    1.8850    0.4340   -2.2590 O   0  0  0  0  0  0  0  0  0  0  0  0
    1.5680   -0.5110   -3.1220 O   0  0  0  0  0  0  0  0  0  0  0  0
    0.6230   -1.2770   -2.5410 O   0  0  0  0  0  0  0  0  0  0  0  0
   -0.2510   -2.0010   -3.3440 C   0  0  0  0  0  0  0  0  0  0  0  0
   -0.0990   -1.8920   -4.5990 O   0  0  0  0  0  0  0  0  0  0  0  0
   -0.6460    0.5980   -1.1380 N   0  0  0  0  0  0  0  0  0  0  0  0
   -1.9290    0.6370   -0.4110 C   0  0  2  0  0  0  0  0  0  0  0  0
   -2.8630   -0.2550   -0.9240 N   0  0  0  0  0  0  0  0  0  0  0  0
   -3.6460    0.0390   -2.1060 C   0  0  0  0  0  0  0  0  0  0  0  0
   -4.3650   -0.8870   -2.5630 O   0  0  0  0  0  0  0  0  0  0  0  0
   -3.7080    1.2560   -2.8270 O   0  0  0  0  0  0  0  0  0  0  0  0
   -2.6310    2.0680   -3.0230 O   0  0  0  0  0  0  0  0  0  0  0  0
   -2.2380    2.9680   -1.5660 P   0  0  0  0  0  0  0  0  0  0  0  0
   -3.2520    4.4000   -1.5660 O   0  0  0  0  0  0  0  0  0  0  0  0
  1  2  1  0
  2  3  1  0
  2  4  1  0
  4  5  1  0
  6  5  1  1
  6  7  1  0
  6 33  1  0
  6 39  1  0
  7  8  2  0
  7 33  1  0
  8  9  1  0
  8 24  1  0
  9 10  2  0
 10 11  1  0
 11 12  1  0
 12 13  1  1
 12 14  1  0
 12 24  1  0
 14 15  1  0
 15 16  1  0
 16 17  1  0
 16 20  1  0
 17 18  1  0
 18 19  2  0
 19 20  1  0
 20 21  2  3
 21 22  1  0
 22 23  1  0
 24 25  1  6
 25 26  1  0
 25 32  2  0
 26 27  1  0
 27 28  1  0
 28 29  1  0
 29 30  1  0
 30 31  2  0
 32 33  1  0
 33 34  1  1
 34 35  1  0
 35 36  2  0
 35 37  1  0
 37 38  1  0
 38 39  1  0
 39 40  1  0
M  END
