
     RDKit          3D

 42 44  0  0  0  0  0  0  0  0999 V2000
   -4.1450    4.2460   -2.6050 C   0  0  0  0  0  0  0  0  0  0  0  0
   -3.3390    3.1600   -2.2730 O   0  0  0  0  0  0  0  0  0  0  0  0
   -2.4620    3.4760   -1.2330 C   0  0  0  0  0  0  0  0  0  0  0  0
   -1.6580    2.2140   -0.9820 C   0  0  0  0  0  0  0  0  0  0  0  0
   -0.6640    2.4100    0.0980 C   0  0  0  0  0  0  0  0  0  0  0  0
   -0.6510    3.6080    0.7990 C   0  0  0  0  0  0  0  0  0  0  0  0
    0.2870    3.7780    1.7870 C   0  0  0  0  0  0  0  0  0  0  0  0
    1.1810    2.8440    2.0980 N   0  0  0  0  0  0  0  0  0  0  0  0
    2.1340    3.1050    3.1530 C   0  0  0  0  0  0  0  0  0  0  0  0
    1.1500    1.6690    1.3920 C   0  0  0  0  0  0  0  0  0  0  0  0
    2.0430    0.8670    1.7660 O   0  0  0  0  0  0  0  0  0  0  0  0
    0.2630    1.3980    0.3960 C   0  0  0  0  0  0  0  0  0  0  0  0
    0.2180    0.1880   -0.4350 C   0  0  2  0  0  0  0  0  0  0  0  0
   -1.0220   -0.5750   -0.4690 C   0  0  0  0  0  0  0  0  0  0  0  0
   -1.5450   -0.9320   -1.7240 C   0  0  0  0  0  0  0  0  0  0  0  0
   -2.6250   -1.7180   -1.7750 N   0  0  0  0  0  0  0  0  0  0  0  0
   -3.2430   -2.1930   -0.6460 C   0  0  0  0  0  0  0  0  0  0  0  0
   -4.4200   -3.0930   -0.7830 C   0  0  1  0  0  0  0  0  0  0  0  0
   -4.9770   -2.8630   -2.2190 C   0  0  0  0  0  0  0  0  0  0  0  0
   -3.9950   -4.5540   -0.7550 C   0  0  0  0  0  0  0  0  0  0  0  0
   -3.3700   -4.8730    0.4000 O   0  0  0  0  0  0  0  0  0  0  0  0
   -2.7740   -1.8750    0.5890 C   0  0  0  0  0  0  0  0  0  0  0  0
   -3.3480   -2.3370    1.8660 C   0  0  0  0  0  0  0  0  0  0  0  0
   -1.6380   -1.0430    0.6550 C   0  0  0  0  0  0  0  0  0  0  0  0
   -1.0420   -0.5480    2.2860 P   0  0  0  0  0  0  0  0  0  0  0  0
   -1.7500    0.5030    3.3030 C   0  0  0  0  0  0  0  0  0  0  0  0
   -3.2300    1.3460    2.9920 S   0  0  2  0  0  0  0  0  0  0  0  0
   -2.9390    2.8260    2.9160 O   0  0  0  0  0  0  0  0  0  0  0  0
   -4.2450    1.1100    4.0890 O   0  0  0  0  0  0  0  0  0  0  0  0
   -3.9030    0.8480    1.5520 O   0  0  0  0  0  0  0  0  0  0  0  0
    1.3850   -0.6420   -0.4140 N   0  0  0  0  0  0  0  0  0  0  0  0
    1.5240   -1.7290    0.5110 C   0  0  0  0  0  0  0  0  0  0  0  0
    2.6150   -2.7020   -0.0150 C   0  0  0  0  0  0  0  0  0  0  0  0
    3.8630   -1.8790   -0.0440 C   0  0  0  0  0  0  0  0  0  0  0  0
    3.7740   -0.8820   -1.1610 C   0  0  2  0  0  0  0  0  0  0  0  0
    4.4270   -1.4390   -2.4220 C   0  0  0  0  0  0  0  0  0  0  0  0
    4.6250    0.3060   -0.7320 C   0  0  0  0  0  0  0  0  0  0  0  0
    6.0360   -0.2720   -0.5480 C   0  0  0  0  0  0  0  0  0  0  0  0
    7.0160    0.7920   -0.1160 C   0  0  0  0  0  0  0  0  0  0  0  0
    6.5960    1.3410    1.1030 O   0  0  0  0  0  0  0  0  0  0  0  0
    2.3750   -0.5240   -1.4180 C   0  0  0  0  0  0  0  0  0  0  0  0
    2.0530   -0.0940   -2.5910 O   0  0  0  0  0  0  0  0  0  0  0  0
  1  2  1  0
  2  3  1  0
  3  4  1  0
  4  5  1  0
  5  6  1  0
  5 12  2  0
  6  7  2  0
  7  8  1  0
  8  9  1  0
  8 10  1  0
 10 11  2  0
 10 12  1  0
 12 13  1  0
 13 14  1  0
 13 31  1  1
 14 15  2  0
 14 24  1  0
 15 16  1  0
 16 17  2  0
 17 18  1  0
 17 22  1  0
 18 19  1  6
 18 20  1  0
 20 21  1  0
 22 23  1  0
 22 24  2  0
 24 25  1  0
 25 26  2  3
 26 27  1  0
 27 28  2  0
 27 29  2  0
 27 30  1  6
 31 32  1  0
 31 41  1  0
 32 33  1  0
 33 34  1  0
 34 35  1  0
 35 36  1  6
 35 37  1  0
 35 41  1  0
 37 38  1  0
 38 39  1  0
 39 40  1  0
 41 42  2  0
M  END
