
     RDKit          3D

 16 16  0  0  0  0  0  0  0  0999 V2000
    6.9420   -0.5090    1.3080 C   0  0  0  0  0  0  0  0  0  0  0  0
    5.5530   -0.2550    1.4850 O   0  0  0  0  0  0  0  0  0  0  0  0
    4.6210   -0.9090    0.7200 C   0  0  0  0  0  0  0  0  0  0  0  0
    4.9630   -1.7500   -0.1580 O   0  0  0  0  0  0  0  0  0  0  0  0
    3.1810   -0.6300    0.9200 C   0  0  0  0  0  0  0  0  0  0  0  0
    2.6780    0.7410   -0.1730 S   0  0  0  0  0  0  0  0  0  0  0  0
    0.9480    1.0310    0.1090 C   0  0  0  0  0  0  0  0  0  0  0  0
    0.0800    0.3390   -0.5930 C   0  0  0  0  0  0  0  0  0  0  0  0
   -1.2990    0.6200   -0.3180 C   0  0  0  0  0  0  0  0  0  0  0  0
   -1.7740    1.4390    0.4920 O   0  0  0  0  0  0  0  0  0  0  0  0
   -2.2960   -0.0810   -1.0010 N   0  0  0  0  0  0  0  0  0  0  0  0
   -3.6260    0.2600   -0.7460 C   0  0  0  0  0  0  0  0  0  0  0  0
   -4.5100   -0.5060   -1.0190 N   0  0  0  0  0  0  0  0  0  0  0  0
   -5.8570   -0.2620   -0.7890 C   0  0  0  0  0  0  0  0  0  0  0  0
   -6.0120    0.8760    0.2770 C   0  0  0  0  0  0  0  0  0  0  0  0
   -4.6030    1.7990   -0.4140 S   0  0  0  0  0  0  0  0  0  0  0  0
  1  2  1  0
  2  3  1  0
  3  4  2  0
  3  5  1  0
  5  6  1  0
  6  7  1  0
  7  8  2  3
  8  9  1  0
  9 10  2  0
  9 11  1  0
 11 12  1  0
 12 13  2  0
 12 16  1  0
 13 14  1  0
 14 15  1  0
 15 16  1  0
M  END
