
     RDKit          3D

 16 17  0  0  0  0  0  0  0  0999 V2000
    4.1480    1.5150    0.0170 C   0  0  0  0  0  0  0  0  0  0  0  0
    3.1400    0.4320   -0.1630 C   0  0  0  0  0  0  0  0  0  0  0  0
    1.9550    0.3110   -0.0930 N   0  0  0  0  0  0  0  0  0  0  0  0
    1.2360   -0.7660   -0.2950 C   0  0  0  0  0  0  0  0  0  0  0  0
   -0.2480   -0.7460   -0.1660 C   0  0  0  0  0  0  0  0  0  0  0  0
   -0.9240    0.4180    0.1740 C   0  0  0  0  0  0  0  0  0  0  0  0
   -2.2880    0.4070    0.2850 C   0  0  0  0  0  0  0  0  0  0  0  0
   -3.1550    1.8830    0.7170 S   0  0  2  0  0  0  0  0  0  0  0  0
   -2.3400    2.7550    1.6110 O   0  0  0  0  0  0  0  0  0  0  0  0
   -4.4170    1.5420    1.4210 O   0  0  0  0  0  0  0  0  0  0  0  0
   -3.0080   -0.7470    0.0650 C   0  0  0  0  0  0  0  0  0  0  0  0
   -2.3710   -1.8750   -0.2630 N   0  0  0  0  0  0  0  0  0  0  0  0
   -1.0290   -1.8490   -0.3690 C   0  0  0  0  0  0  0  0  0  0  0  0
   -0.4750   -2.9310   -0.6780 O   0  0  0  0  0  0  0  0  0  0  0  0
    1.8940   -1.9030   -0.6260 C   0  0  0  0  0  0  0  0  0  0  0  0
    3.6800   -1.2950   -0.6280 S   0  0  0  0  0  0  0  0  0  0  0  0
  1  2  1  0
  2  3  2  0
  2 16  1  0
  3  4  1  0
  4  5  1  0
  4 15  2  0
  5  6  2  0
  5 13  1  0
  6  7  1  0
  8  7  1  1
  7 11  2  0
  8  9  2  0
  8 10  2  0
 11 12  1  0
 12 13  1  0
 13 14  2  0
 15 16  1  0
M  END
