
     RDKit          3D

 16 16  0  0  0  0  0  0  0  0999 V2000
    3.3760    3.0280    0.4700 C   0  0  0  0  0  0  0  0  0  0  0  0
    3.2290    1.2300    0.4240 S   0  0  0  0  0  0  0  0  0  0  0  0
    1.6400    0.7470   -0.1720 C   0  0  0  0  0  0  0  0  0  0  0  0
    0.8000    1.6350   -0.4930 O   0  0  0  0  0  0  0  0  0  0  0  0
    1.2850   -0.6620   -0.2990 C   0  0  0  0  0  0  0  0  0  0  0  0
    2.1950   -1.6050    0.0470 N   0  0  0  0  0  0  0  0  0  0  0  0
    1.9260   -2.9340   -0.0460 C   0  0  0  0  0  0  0  0  0  0  0  0
    2.7940   -3.7900    0.2830 O   0  0  0  0  0  0  0  0  0  0  0  0
    0.6970   -3.3490   -0.5030 C   0  0  0  0  0  0  0  0  0  0  0  0
    0.4720   -4.5840   -0.5800 O   0  0  0  0  0  0  0  0  0  0  0  0
   -0.2040   -2.4080   -0.8450 N   0  0  0  0  0  0  0  0  0  0  0  0
    0.0570   -1.0910   -0.7550 C   0  0  0  0  0  0  0  0  0  0  0  0
   -1.1330    0.1480   -1.2090 S   0  0  0  0  0  0  0  0  0  0  0  0
   -2.1810    0.6590    0.1410 C   0  0  2  0  0  0  0  0  0  0  0  0
   -3.1020   -0.4310    0.6370 C   0  0  0  0  0  0  0  0  0  0  0  0
   -2.9870    1.8640   -0.3550 C   0  0  0  0  0  0  0  0  0  0  0  0
  1  2  1  0
  2  3  1  0
  3  4  2  0
  3  5  1  0
  5  6  1  0
  5 12  2  0
  6  7  1  0
  7  8  2  0
  7  9  1  0
  9 10  2  0
  9 11  1  0
 11 12  1  0
 12 13  1  0
 13 14  1  0
 14 15  1  6
 14 16  1  0
M  END
