
     RDKit          3D

 16 17  0  0  0  0  0  0  0  0999 V2000
    1.4880    1.4380   -0.4060 O   0  0  0  0  0  0  0  0  0  0  0  0
    0.8540    0.3300   -0.2510 C   0  0  0  0  0  0  0  0  0  0  0  0
   -0.5270    0.2780   -0.2610 N   0  0  0  0  0  0  0  0  0  0  0  0
   -1.1260   -0.8110   -0.1090 C   0  0  0  0  0  0  0  0  0  0  0  0
   -2.8750   -1.1880   -0.0740 S   0  0  0  0  0  0  0  0  0  0  0  0
   -3.8970    0.2630   -0.2950 C   0  0  0  0  0  0  0  0  0  0  0  0
   -5.3560   -0.2060   -0.2500 C   0  0  0  0  0  0  0  0  0  0  0  0
   -6.2500    0.8250   -0.4120 O   0  0  0  0  0  0  0  0  0  0  0  0
    0.1490   -2.0640    0.0780 S   0  0  0  0  0  0  0  0  0  0  0  0
    1.5320   -0.9280   -0.0580 C   0  0  0  0  0  0  0  0  0  0  0  0
    2.7940   -1.2170    0.0110 C   0  0  0  0  0  0  0  0  0  0  0  0
    3.8520   -0.2280   -0.1030 C   0  0  0  0  0  0  0  0  0  0  0  0
    5.0600   -0.4220   -0.7870 C   0  0  0  0  0  0  0  0  0  0  0  0
    5.7590    0.6710   -0.6620 O   0  0  0  0  0  0  0  0  0  0  0  0
    5.1290    1.5600    0.0370 C   0  0  0  0  0  0  0  0  0  0  0  0
    3.9520    1.0150    0.3870 N   0  0  0  0  0  0  0  0  0  0  0  0
  1  2  2  0
  2  3  1  0
  2 10  1  0
  3  4  2  0
  4  5  1  0
  4  9  1  0
  5  6  1  0
  6  7  1  0
  7  8  1  0
  9 10  1  0
 10 11  2  3
 11 12  1  0
 12 13  2  0
 12 16  1  0
 13 14  1  0
 14 15  1  0
 15 16  2  0
M  END
