
     RDKit          3D

 20 22  0  0  0  0  0  0  0  0999 V2000
   -4.7270    0.5620   -0.0270 C   0  0  0  0  0  0  0  0  0  0  0  0
   -3.6230   -0.4890    0.0230 C   0  0  2  0  0  0  0  0  0  0  0  0
   -4.1980   -1.7550   -0.5820 C   0  0  0  0  0  0  0  0  0  0  0  0
   -3.3020   -0.7670    1.4440 C   0  0  0  0  0  0  0  0  0  0  0  0
   -2.0820   -0.1740    1.8420 O   0  0  0  0  0  0  0  0  0  0  0  0
   -1.5150    0.8960    1.2090 C   0  0  0  0  0  0  0  0  0  0  0  0
   -0.6000    1.5570    1.7270 O   0  0  0  0  0  0  0  0  0  0  0  0
   -1.9870    1.3150   -0.1590 C   0  0  1  0  0  0  0  0  0  0  0  0
   -0.9060    2.0280   -0.8870 C   0  0  0  0  0  0  0  0  0  0  0  0
    0.3180    1.2690   -1.1300 C   0  0  0  0  0  0  0  0  0  0  0  0
    0.5710    0.8520   -2.3090 O   0  0  0  0  0  0  0  0  0  0  0  0
    1.2590    0.9460   -0.1810 O   0  0  0  0  0  0  0  0  0  0  0  0
    2.4460    0.2050   -0.4680 C   0  0  2  0  0  0  0  0  0  0  0  0
    2.4240   -1.1510    0.2340 C   0  0  0  0  0  0  0  0  0  0  0  0
    3.7800   -1.7620    0.1290 C   0  0  0  0  0  0  0  0  0  0  0  0
    4.7500   -0.9450   -0.5530 N   0  0  0  0  0  0  0  0  0  0  0  0
    4.9010    0.3610    0.0700 C   0  0  2  0  0  0  0  0  0  0  0  0
    4.1840    0.6310    1.3460 C   0  0  0  0  0  0  0  0  0  0  0  0
    3.6060    1.0600   -0.0120 C   0  0  2  0  0  0  0  0  0  0  0  0
   -2.4650    0.0360   -0.8080 C   0  0  0  0  0  0  0  0  0  0  0  0
  2  1  1  1
  2  3  1  0
  2  4  1  0
  2 20  1  0
  4  5  1  0
  5  6  1  0
  6  7  2  0
  6  8  1  0
  8  9  1  6
  8 20  1  0
  9 10  1  0
 10 11  2  0
 10 12  1  0
 13 12  1  1
 13 14  1  0
 13 19  1  0
 14 15  1  0
 15 16  1  0
 16 17  1  0
 17 18  1  1
 17 19  1  0
 19 18  1  1
M  CHG  1  16   1
M  END
