
     RDKit          3D

 16 17  0  0  0  0  0  0  0  0999 V2000
    4.7810    1.2840   -0.4050 C   0  0  0  0  0  0  0  0  0  0  0  0
    3.5030    0.4820   -0.3630 C   0  0  0  0  0  0  0  0  0  0  0  0
    3.3340   -0.8910   -0.2130 C   0  0  0  0  0  0  0  0  0  0  0  0
    2.0970   -1.3560   -0.2050 C   0  0  0  0  0  0  0  0  0  0  0  0
    1.0390   -0.4830   -0.3420 C   0  0  0  0  0  0  0  0  0  0  0  0
   -0.4080   -0.7640   -0.3630 C   0  0  0  0  0  0  0  0  0  0  0  0
   -0.8900   -0.6920    1.0050 N   0  0  0  0  0  0  0  0  0  0  0  0
   -2.5690   -1.0080    1.0630 S   0  0  1  0  0  0  0  0  0  0  0  0
   -2.8060   -2.3580    0.4420 O   0  0  0  0  0  0  0  0  0  0  0  0
   -3.0070   -0.9610    2.4970 O   0  0  0  0  0  0  0  0  0  0  0  0
   -3.3970    0.2110    0.1280 C   0  0  0  0  0  0  0  0  0  0  0  0
   -3.9140    1.3970    0.3930 C   0  0  0  0  0  0  0  0  0  0  0  0
   -4.0030    2.1690    1.5660 O   0  0  0  0  0  0  0  0  0  0  0  0
   -4.3140    1.5300   -0.9720 N   0  0  0  0  0  0  0  0  0  0  0  0
   -3.8140    0.3660   -1.2610 C   0  0  0  0  0  0  0  0  0  0  0  0
    1.8440    1.0760   -0.4900 S   0  0  0  0  0  0  0  0  0  0  0  0
  1  2  1  0
  2  3  2  0
  2 16  1  0
  3  4  1  0
  4  5  2  0
  5  6  1  0
  5 16  1  0
  6  7  1  0
  8  7  1  1
  8  9  2  0
  8 10  2  0
  8 11  1  0
 11 12  2  0
 11 15  1  0
 12 13  1  0
 12 14  1  0
 14 15  2  0
M  END
