
     RDKit          3D

 36 38  0  0  0  0  0  0  0  0999 V2000
    7.3140    1.9880    1.2570 C   0  0  0  0  0  0  0  0  0  0  0  0
    7.3620    0.6680    0.5360 C   0  0  1  0  0  0  0  0  0  0  0  0
    7.8080    0.9320   -0.8960 C   0  0  0  0  0  0  0  0  0  0  0  0
    8.4670   -0.1640    1.1620 C   0  0  0  0  0  0  0  0  0  0  0  0
    6.1400   -0.0500    0.5950 O   0  0  0  0  0  0  0  0  0  0  0  0
    4.9590    0.4660    0.0980 C   0  0  0  0  0  0  0  0  0  0  0  0
    5.0850    1.6440   -0.4080 O   0  0  0  0  0  0  0  0  0  0  0  0
    3.6980   -0.1840    0.1110 N   0  0  0  0  0  0  0  0  0  0  0  0
    3.5880   -1.4840    0.6880 C   0  0  0  0  0  0  0  0  0  0  0  0
    2.3070   -2.2200    0.3490 C   0  0  0  0  0  0  0  0  0  0  0  0
    1.1380   -1.2260    0.2510 C   0  0  2  0  0  0  0  0  0  0  0  0
   -0.0260   -1.9260    0.1290 O   0  0  0  0  0  0  0  0  0  0  0  0
   -1.0680   -1.1730   -0.4410 C   0  0  2  0  0  0  0  0  0  0  0  0
   -1.1510   -1.5750   -1.9090 C   0  0  0  0  0  0  0  0  0  0  0  0
   -0.5910    0.2660   -0.3760 C   0  0  2  0  0  0  0  0  0  0  0  0
   -1.7030    1.2660   -0.6100 C   0  0  0  0  0  0  0  0  0  0  0  0
   -2.6260    1.0240    0.6080 C   0  0  1  0  0  0  0  0  0  0  0  0
   -3.4570    2.1190    0.8640 N   0  0  0  0  0  0  0  0  0  0  0  0
   -4.3900    2.5180   -0.1280 C   0  0  0  0  0  0  0  0  0  0  0  0
   -5.0290    3.8140    0.3760 C   0  0  0  0  0  0  0  0  0  0  0  0
   -5.9720    4.3190   -0.5060 O   0  0  0  0  0  0  0  0  0  0  0  0
   -6.5540    5.8020    0.2340 P   0  0  0  0  0  0  0  0  0  0  0  0
   -5.2910    6.9850    0.0060 O   0  0  0  0  0  0  0  0  0  0  0  0
   -8.0230    6.3140   -0.5360 O   0  0  0  0  0  0  0  0  0  0  0  0
   -3.3000   -0.2610    0.3310 C   0  0  0  0  0  0  0  0  0  0  0  0
   -2.3270   -1.4430    0.3090 C   0  0  2  0  0  0  0  0  0  0  0  0
   -1.9330   -1.6540    1.7630 C   0  0  0  0  0  0  0  0  0  0  0  0
   -3.0350   -2.5380   -0.2320 N   0  0  0  0  0  0  0  0  0  0  0  0
   -2.4860   -3.8280   -0.1980 C   0  0  0  0  0  0  0  0  0  0  0  0
   -3.4100   -4.7620   -1.0020 C   0  0  0  0  0  0  0  0  0  0  0  0
   -4.7830   -4.7870   -0.4550 C   0  0  0  0  0  0  0  0  0  0  0  0
   -5.5990   -5.5510   -1.0270 O   0  0  0  0  0  0  0  0  0  0  0  0
   -5.2490   -4.0610    0.6070 O   0  0  0  0  0  0  0  0  0  0  0  0
    0.4010    0.4000   -1.3420 O   0  0  0  0  0  0  0  0  0  0  0  0
    1.4880   -0.3510   -0.9290 C   0  0  1  0  0  0  0  0  0  0  0  0
    2.6080    0.5610   -0.4890 C   0  0  0  0  0  0  0  0  0  0  0  0
  2  1  1  1
  2  3  1  0
  2  4  1  0
  2  5  1  0
  5  6  1  0
  6  7  2  0
  6  8  1  0
  8  9  1  0
  8 36  1  0
  9 10  1  0
 11 10  1  6
 11 12  1  0
 11 35  1  0
 12 13  1  0
 13 14  1  6
 13 15  1  0
 13 26  1  0
 15 16  1  6
 15 34  1  0
 16 17  1  0
 17 18  1  6
 17 25  1  0
 18 19  1  0
 19 20  1  0
 20 21  1  0
 21 22  1  0
 22 23  1  0
 22 24  1  0
 25 26  1  0
 26 27  1  1
 26 28  1  0
 28 29  1  0
 29 30  1  0
 30 31  1  0
 31 32  2  0
 31 33  1  0
 34 35  1  0
 35 36  1  1
M  END
