
     RDKit          3D

 37 38  0  0  0  0  0  0  0  0999 V2000
    4.6810    2.5040   -5.1310 C   0  0  0  0  0  0  0  0  0  0  0  0
    4.1320    1.9400   -3.9520 O   0  0  0  0  0  0  0  0  0  0  0  0
    4.9680    1.3320   -3.0450 C   0  0  0  0  0  0  0  0  0  0  0  0
    6.1920    1.2890   -3.2790 O   0  0  0  0  0  0  0  0  0  0  0  0
    4.4180    0.7520   -1.8370 C   0  0  0  0  0  0  0  0  0  0  0  0
    3.0600    0.7440   -1.4790 C   0  0  0  0  0  0  0  0  0  0  0  0
    2.9690    0.1010   -0.2680 C   0  0  0  0  0  0  0  0  0  0  0  0
    1.8000   -0.1460    0.4920 N   0  0  0  0  0  0  0  0  0  0  0  0
    0.4860    0.2190    0.1340 C   0  0  0  0  0  0  0  0  0  0  0  0
    0.3100    0.8150   -0.9550 O   0  0  0  0  0  0  0  0  0  0  0  0
   -0.6440   -0.0710    0.9730 N   0  0  0  0  0  0  0  0  0  0  0  0
   -1.9600    0.3390    0.5300 C   0  0  2  0  0  0  0  0  0  0  0  0
   -2.5100    1.3700    1.4420 C   0  0  0  0  0  0  0  0  0  0  0  0
   -1.8110    2.4020    1.6230 O   0  0  0  0  0  0  0  0  0  0  0  0
   -3.7450    1.2720    2.1090 N   0  0  0  0  0  0  0  0  0  0  0  0
   -4.3760    2.4020    2.7800 C   0  0  0  0  0  0  0  0  0  0  0  0
   -3.9220    2.4700    4.2310 C   0  0  0  0  0  0  0  0  0  0  0  0
   -2.5490    2.6240    4.2980 O   0  0  0  0  0  0  0  0  0  0  0  0
   -4.4400    0.0190    2.1490 C   0  0  0  0  0  0  0  0  0  0  0  0
   -3.6390   -1.1370    1.6590 C   0  0  0  0  0  0  0  0  0  0  0  0
   -2.8850   -0.8440    0.3870 C   0  0  1  0  0  0  0  0  0  0  0  0
   -3.8410   -0.6450   -0.7290 C   0  0  0  0  0  0  0  0  0  0  0  0
   -3.7570    0.4370   -1.3990 O   0  0  0  0  0  0  0  0  0  0  0  0
   -4.8050   -1.5430   -1.0870 O   0  0  0  0  0  0  0  0  0  0  0  0
   -5.7190   -1.3720   -2.1400 C   0  0  1  0  0  0  0  0  0  0  0  0
   -6.5970   -2.6310   -2.1550 C   0  0  0  0  0  0  0  0  0  0  0  0
   -6.6130   -0.1980   -1.9020 C   0  0  0  0  0  0  0  0  0  0  0  0
   -5.0470   -1.2050   -3.4840 C   0  0  0  0  0  0  0  0  0  0  0  0
    4.2760   -0.2670    0.0790 C   0  0  0  0  0  0  0  0  0  0  0  0
    4.5730   -0.9770    1.3150 C   0  0  0  0  0  0  0  0  0  0  0  0
    5.8200   -1.2930    1.5800 C   0  0  0  0  0  0  0  0  0  0  0  0
    6.9860   -0.9950    0.7350 C   0  0  1  0  0  0  0  0  0  0  0  0
    7.3890    0.4660    0.8100 C   0  0  0  0  0  0  0  0  0  0  0  0
    8.4810   -1.9760    1.2710 P   0  0  0  0  0  0  0  0  0  0  0  0
    8.3220   -3.6400    0.8530 O   0  0  0  0  0  0  0  0  0  0  0  0
    8.8740   -1.7170    2.9150 O   0  0  0  0  0  0  0  0  0  0  0  0
    5.0560    0.1380   -0.8660 O   0  0  0  0  0  0  0  0  0  0  0  0
  1  2  1  0
  2  3  1  0
  3  4  2  0
  3  5  1  0
  5  6  2  0
  5 37  1  0
  6  7  1  0
  7  8  1  0
  7 29  2  0
  8  9  1  0
  9 10  2  0
  9 11  1  0
 12 11  1  1
 12 13  1  0
 12 21  1  0
 13 14  2  0
 13 15  1  0
 15 16  1  0
 15 19  1  0
 16 17  1  0
 17 18  1  0
 19 20  1  0
 20 21  1  0
 21 22  1  6
 22 23  2  0
 22 24  1  0
 24 25  1  0
 25 26  1  6
 25 27  1  0
 25 28  1  0
 29 30  1  0
 29 37  1  0
 30 31  2  3
 31 32  1  0
 32 33  1  1
 32 34  1  0
 34 35  1  0
 34 36  1  0
M  END
