
     RDKit          3D

 37 38  0  0  0  0  0  0  0  0999 V2000
    7.7870    1.6700    0.4090 C   0  0  0  0  0  0  0  0  0  0  0  0
    6.9170    2.2880   -0.6010 C   0  0  0  0  0  0  0  0  0  0  0  0
    5.6310    2.4060   -0.4190 C   0  0  0  0  0  0  0  0  0  0  0  0
    4.7980    3.0460   -1.4870 C   0  0  0  0  0  0  0  0  0  0  0  0
    4.1840    4.1630   -0.9380 O   0  0  0  0  0  0  0  0  0  0  0  0
    4.9930    1.9210    0.8040 C   0  0  0  0  0  0  0  0  0  0  0  0
    5.6750    1.3820    1.6960 O   0  0  0  0  0  0  0  0  0  0  0  0
    3.5830    2.0410    1.0260 N   0  0  0  0  0  0  0  0  0  0  0  0
    3.0280    1.5150    2.2910 C   0  0  1  0  0  0  0  0  0  0  0  0
    2.5200    2.6780    3.1190 C   0  0  0  0  0  0  0  0  0  0  0  0
    2.0470    0.6150    1.9380 O   0  0  0  0  0  0  0  0  0  0  0  0
    2.1060   -0.7570    2.0880 C   0  0  0  0  0  0  0  0  0  0  0  0
    3.2050   -1.3900    2.5970 C   0  0  0  0  0  0  0  0  0  0  0  0
    3.2460   -2.7840    2.7410 C   0  0  0  0  0  0  0  0  0  0  0  0
    2.1340   -3.4930    2.3470 C   0  0  0  0  0  0  0  0  0  0  0  0
    1.0190   -2.8650    1.8320 C   0  0  0  0  0  0  0  0  0  0  0  0
   -0.0520   -3.5980    1.4570 O   0  0  0  0  0  0  0  0  0  0  0  0
   -1.2770   -3.2920    0.9370 C   0  0  0  0  0  0  0  0  0  0  0  0
   -1.1180   -2.5640   -0.3900 C   0  0  0  0  0  0  0  0  0  0  0  0
   -2.4440   -2.2880   -0.8680 N   0  0  0  0  0  0  0  0  0  0  0  0
   -3.0990   -1.0880   -0.5160 C   0  0  0  0  0  0  0  0  0  0  0  0
   -2.4870   -0.2650    0.2140 O   0  0  0  0  0  0  0  0  0  0  0  0
   -4.4800   -0.7730   -0.9800 C   0  0  0  0  0  0  0  0  0  0  0  0
   -4.8690    0.4660   -0.4880 O   0  0  0  0  0  0  0  0  0  0  0  0
   -4.1790    1.6140   -0.8040 C   0  0  0  0  0  0  0  0  0  0  0  0
   -3.1760    1.5420   -1.5520 O   0  0  0  0  0  0  0  0  0  0  0  0
   -4.5860    2.9580   -0.2810 C   0  0  1  0  0  0  0  0  0  0  0  0
   -3.5110    3.5960    0.5390 C   0  0  0  0  0  0  0  0  0  0  0  0
   -4.8890    3.8480   -1.4730 C   0  0  0  0  0  0  0  0  0  0  0  0
   -5.7070    2.7860    0.5160 O   0  0  0  0  0  0  0  0  0  0  0  0
   -3.0930   -3.2280   -1.6960 C   0  0  0  0  0  0  0  0  0  0  0  0
   -2.8540   -3.2230   -3.0500 C   0  0  0  0  0  0  0  0  0  0  0  0
   -3.4840   -4.1430   -3.8570 C   0  0  0  0  0  0  0  0  0  0  0  0
   -4.3460   -5.0590   -3.3070 C   0  0  0  0  0  0  0  0  0  0  0  0
   -4.5750   -5.0540   -1.9570 C   0  0  0  0  0  0  0  0  0  0  0  0
   -3.9530   -4.1440   -1.1570 C   0  0  0  0  0  0  0  0  0  0  0  0
    1.0540   -1.5400    1.7260 N   0  0  0  0  0  0  0  0  0  0  0  0
  1  2  1  0
  2  3  2  3
  3  4  1  0
  3  6  1  0
  4  5  1  0
  6  7  2  0
  6  8  1  0
  8  9  1  0
  9 10  1  1
  9 11  1  0
 11 12  1  0
 12 13  2  0
 12 37  1  0
 13 14  1  0
 14 15  2  0
 15 16  1  0
 16 17  1  0
 16 37  2  0
 17 18  1  0
 18 19  1  0
 19 20  1  0
 20 21  1  0
 20 31  1  0
 21 22  2  0
 21 23  1  0
 23 24  1  0
 24 25  1  0
 25 26  2  0
 25 27  1  0
 27 28  1  1
 27 29  1  0
 27 30  1  0
 31 32  2  0
 31 36  1  0
 32 33  1  0
 33 34  2  0
 34 35  1  0
 35 36  2  0
M  END
