
     RDKit          3D

 36 38  0  0  0  0  0  0  0  0999 V2000
    1.2400    0.3280   -1.8560 C   0  0  0  0  0  0  0  0  0  0  0  0
    1.0690    1.3370   -0.9170 O   0  0  0  0  0  0  0  0  0  0  0  0
    1.8150    0.9820    0.2240 C   0  0  1  0  0  0  0  0  0  0  0  0
    2.9430    1.8390    0.3330 O   0  0  0  0  0  0  0  0  0  0  0  0
    4.2470    1.5610    0.1980 C   0  0  0  0  0  0  0  0  0  0  0  0
    4.7270    0.3170   -0.0900 C   0  0  0  0  0  0  0  0  0  0  0  0
    6.0940    0.0730   -0.2230 C   0  0  0  0  0  0  0  0  0  0  0  0
    6.9990    1.0750   -0.0670 C   0  0  0  0  0  0  0  0  0  0  0  0
    8.4470    0.8240   -0.2080 C   0  0  0  0  0  0  0  0  0  0  0  0
    9.3020    1.7070   -0.0730 O   0  0  0  0  0  0  0  0  0  0  0  0
    8.8520   -0.4670   -0.5050 O   0  0  0  0  0  0  0  0  0  0  0  0
    6.5330    2.3440    0.2250 C   0  0  0  0  0  0  0  0  0  0  0  0
    5.1840    2.5890    0.3570 C   0  0  0  0  0  0  0  0  0  0  0  0
    0.9860    0.9970    1.4530 C   0  0  2  0  0  0  0  0  0  0  0  0
    1.8610    0.5770    2.6400 C   0  0  0  0  0  0  0  0  0  0  0  0
   -0.1300    0.0980    1.4300 N   0  0  0  0  0  0  0  0  0  0  0  0
   -0.0460   -1.3150    1.1960 C   0  0  0  0  0  0  0  0  0  0  0  0
   -1.1260   -1.8300    0.3410 C   0  0  0  0  0  0  0  0  0  0  0  0
   -2.4800   -1.1880    0.4490 C   0  0  1  0  0  0  0  0  0  0  0  0
   -2.7310   -0.4490   -0.7320 N   0  0  0  0  0  0  0  0  0  0  0  0
   -3.9300    0.2500   -0.9080 C   0  0  0  0  0  0  0  0  0  0  0  0
   -4.7660    0.2030   -0.0010 O   0  0  0  0  0  0  0  0  0  0  0  0
   -4.2270    1.0430   -2.1470 C   0  0  0  0  0  0  0  0  0  0  0  0
   -3.3220    1.3710   -3.0880 C   0  0  0  0  0  0  0  0  0  0  0  0
   -3.6650    2.0860   -4.1870 C   0  0  0  0  0  0  0  0  0  0  0  0
   -5.4910    2.3670   -3.9210 P   0  0  0  0  0  0  0  0  0  0  0  0
   -6.4840    3.5150   -4.5680 O   0  0  0  0  0  0  0  0  0  0  0  0
   -5.5330    1.4720   -2.3530 C   0  0  0  0  0  0  0  0  0  0  0  0
   -3.5230   -2.2480    0.5440 C   0  0  0  0  0  0  0  0  0  0  0  0
   -4.4310   -2.3880   -0.3390 O   0  0  0  0  0  0  0  0  0  0  0  0
   -3.5680   -3.1740    1.6350 N   0  0  0  0  0  0  0  0  0  0  0  0
   -4.6200   -4.1980    1.6770 C   0  0  0  0  0  0  0  0  0  0  0  0
   -4.4860   -4.9720    2.8020 O   0  0  0  0  0  0  0  0  0  0  0  0
   -2.5210   -0.4230    1.7320 C   0  0  0  0  0  0  0  0  0  0  0  0
   -1.4580    0.6110    1.6980 C   0  0  0  0  0  0  0  0  0  0  0  0
   -1.6390    1.8240    1.8790 O   0  0  0  0  0  0  0  0  0  0  0  0
  1  2  1  0
  3  2  1  6
  3  4  1  0
  3 14  1  0
  4  5  1  0
  5  6  2  0
  5 13  1  0
  6  7  1  0
  7  8  2  0
  8  9  1  0
  8 12  1  0
  9 10  2  0
  9 11  1  0
 12 13  2  0
 14 15  1  1
 14 16  1  0
 16 17  1  0
 16 35  1  0
 17 18  1  0
 18 19  1  0
 19 20  1  6
 19 29  1  0
 19 34  1  0
 20 21  1  0
 21 22  2  0
 21 23  1  0
 23 24  1  0
 23 28  2  0
 24 25  2  0
 25 26  1  0
 26 27  1  0
 26 28  1  0
 29 30  2  0
 29 31  1  0
 31 32  1  0
 32 33  1  0
 34 35  1  0
 35 36  2  0
M  END
