
     RDKit          3D

 17 16  0  0  0  0  0  0  0  0999 V2000
   -1.7780   -0.3940   -1.8210 C   0  0  0  0  0  0  0  0  0  0  0  0
   -1.3670   -0.7140   -0.4030 C   0  0  1  0  0  0  0  0  0  0  0  0
   -0.0130   -0.3660   -0.2030 N   0  0  0  0  0  0  0  0  0  0  0  0
    0.5430    0.6530   -1.0290 C   0  0  0  0  0  0  0  0  0  0  0  0
    1.7360    0.0330   -1.7730 C   0  0  0  0  0  0  0  0  0  0  0  0
    2.7120   -0.4410   -0.9470 O   0  0  0  0  0  0  0  0  0  0  0  0
    3.3080    0.4730   -0.1120 C   0  0  0  0  0  0  0  0  0  0  0  0
    4.3870   -0.2230    0.7330 C   0  0  0  0  0  0  0  0  0  0  0  0
    5.0160    0.7380    1.6140 N   0  0  0  0  0  0  0  0  0  0  0  0
   -2.3870   -0.1610    0.5310 C   0  0  2  0  0  0  0  0  0  0  0  0
   -3.6500   -0.6900    0.0810 O   0  0  0  0  0  0  0  0  0  0  0  0
   -4.4100   -1.5590    0.8060 C   0  0  0  0  0  0  0  0  0  0  0  0
   -5.6600   -2.0560    0.3110 N   0  0  0  0  0  0  0  0  0  0  0  0
   -4.0250   -1.9380    1.9210 O   0  0  0  0  0  0  0  0  0  0  0  0
   -2.4320    1.2850    0.6810 C   0  0  0  0  0  0  0  0  0  0  0  0
   -1.2800    1.9840    1.1380 N   0  0  0  0  0  0  0  0  0  0  0  0
   -3.4330    2.0110    0.4370 O   0  0  0  0  0  0  0  0  0  0  0  0
  2  1  1  6
  2  3  1  0
  2 10  1  0
  3  4  1  0
  4  5  1  0
  5  6  1  0
  6  7  1  0
  7  8  1  0
  8  9  1  0
 10 11  1  6
 10 15  1  0
 11 12  1  0
 12 13  1  0
 12 14  2  0
 15 16  1  0
 15 17  2  0
M  CHG  2   3   1   9   1
M  END
