
     RDKit          3D

 17 16  0  0  0  0  0  0  0  0999 V2000
    6.0640    0.3540    0.3330 C   0  0  0  0  0  0  0  0  0  0  0  0
    4.8170   -0.4540    0.1480 C   0  0  0  0  0  0  0  0  0  0  0  0
    4.1070   -0.5360    1.4410 N   0  0  0  0  0  0  0  0  0  0  0  0
    3.0480    0.4780    1.4090 C   0  0  0  0  0  0  0  0  0  0  0  0
    2.0130   -0.0370    0.5530 C   0  0  0  0  0  0  0  0  0  0  0  0
    1.8360   -1.0300   -0.0530 O   0  0  0  0  0  0  0  0  0  0  0  0
    0.7030    1.0990    0.3730 N   0  0  0  0  0  0  0  0  0  0  0  0
   -0.0730    0.3670   -0.4530 C   0  0  0  0  0  0  0  0  0  0  0  0
   -0.0430   -0.7740   -0.8720 O   0  0  0  0  0  0  0  0  0  0  0  0
   -1.2100    1.2310   -0.9250 N   0  0  0  0  0  0  0  0  0  0  0  0
   -2.2680    0.8060   -1.6760 C   0  0  0  0  0  0  0  0  0  0  0  0
   -3.3610   -0.0100   -1.0010 C   0  0  1  0  0  0  0  0  0  0  0  0
   -4.2550   -0.2940   -2.0460 O   0  0  0  0  0  0  0  0  0  0  0  0
   -2.9010   -1.2800   -0.4250 C   0  0  0  0  0  0  0  0  0  0  0  0
   -4.0100   -2.1160    0.0660 N   0  0  0  0  0  0  0  0  0  0  0  0
   -4.0790    0.8900    0.0030 C   0  0  0  0  0  0  0  0  0  0  0  0
   -4.4560    2.0970   -0.6200 O   0  0  0  0  0  0  0  0  0  0  0  0
  1  2  1  0
  2  3  1  0
  3  4  1  0
  4  5  1  0
  5  6  2  0
  5  7  1  0
  7  8  1  0
  8  9  2  0
  8 10  1  0
 10 11  1  0
 11 12  1  0
 12 13  1  6
 12 14  1  0
 12 16  1  0
 14 15  1  0
 16 17  1  0
M  CHG  2   3   1  15   1
M  END
