
     RDKit          3D

 17 16  0  0  0  0  0  0  0  0999 V2000
   -1.9370    2.1000    0.1850 C   0  0  0  0  0  0  0  0  0  0  0  0
   -2.7060    0.8090    0.0030 C   0  0  1  0  0  0  0  0  0  0  0  0
   -1.9960   -0.3420    0.4870 N   0  0  0  0  0  0  0  0  0  0  0  0
   -1.1830   -0.9580   -0.5770 C   0  0  1  0  0  0  0  0  0  0  0  0
    0.2640   -0.7550   -0.2130 C   0  0  0  0  0  0  0  0  0  0  0  0
    1.1900   -1.3300   -1.2200 C   0  0  0  0  0  0  0  0  0  0  0  0
    2.6400   -1.0590   -0.8060 C   0  0  0  0  0  0  0  0  0  0  0  0
    2.8050    0.3650   -0.7310 N   0  0  0  0  0  0  0  0  0  0  0  0
    3.6600    0.8830    0.1080 C   0  0  0  0  0  0  0  0  0  0  0  0
    4.4380    0.0740    0.9560 N   0  0  0  0  0  0  0  0  0  0  0  0
    3.8110    2.2870    0.1700 N   0  0  0  0  0  0  0  0  0  0  0  0
   -1.4860   -2.3920   -0.6770 C   0  0  0  0  0  0  0  0  0  0  0  0
   -1.0530   -3.0820   -1.6140 O   0  0  0  0  0  0  0  0  0  0  0  0
   -2.2780   -3.0580    0.2760 O   0  0  0  0  0  0  0  0  0  0  0  0
   -3.9990    0.9380    0.6890 C   0  0  0  0  0  0  0  0  0  0  0  0
   -4.3160    0.0880    1.5580 O   0  0  0  0  0  0  0  0  0  0  0  0
   -4.8970    1.9570    0.4250 O   0  0  0  0  0  0  0  0  0  0  0  0
  2  1  1  1
  2  3  1  0
  2 15  1  0
  3  4  1  0
  4  5  1  1
  4 12  1  0
  5  6  1  0
  6  7  1  0
  7  8  1  0
  8  9  2  3
  9 10  1  0
  9 11  1  0
 12 13  2  0
 12 14  1  0
 15 16  2  0
 15 17  1  0
M  CHG  2   3   1   8   1
M  END
