
     RDKit          3D

 17 16  0  0  0  0  0  0  0  0999 V2000
   -2.8050   -1.7880    0.1330 C   0  0  0  0  0  0  0  0  0  0  0  0
   -2.4710   -0.2920    0.1600 C   0  0  2  0  0  0  0  0  0  0  0  0
   -2.4420    0.2520   -1.2260 C   0  0  0  0  0  0  0  0  0  0  0  0
   -3.7070    0.1140   -1.9170 N   0  0  0  0  0  0  0  0  0  0  0  0
   -1.2570   -0.1420    0.8010 O   0  0  0  0  0  0  0  0  0  0  0  0
   -0.1970   -0.8040    0.1950 C   0  0  0  0  0  0  0  0  0  0  0  0
    1.0360   -0.5400    1.0320 C   0  0  0  0  0  0  0  0  0  0  0  0
    2.1730   -1.1310    0.5610 O   0  0  0  0  0  0  0  0  0  0  0  0
    2.5600   -0.7550   -0.7060 C   0  0  0  0  0  0  0  0  0  0  0  0
    2.8370    0.7040   -0.8480 C   0  0  0  0  0  0  0  0  0  0  0  0
    3.8870    1.1770    0.0140 N   0  0  0  0  0  0  0  0  0  0  0  0
    5.2000    0.6600   -0.0740 C   0  0  0  0  0  0  0  0  0  0  0  0
    6.2490    1.1260    0.7820 N   0  0  0  0  0  0  0  0  0  0  0  0
    5.5320   -0.2350   -0.9020 O   0  0  0  0  0  0  0  0  0  0  0  0
   -3.5120    0.3370    1.0130 C   0  0  0  0  0  0  0  0  0  0  0  0
   -3.2520    0.9690    2.2590 N   0  0  0  0  0  0  0  0  0  0  0  0
   -4.6640    0.3090    0.6170 O   0  0  0  0  0  0  0  0  0  0  0  0
  2  1  1  6
  2  3  1  0
  2  5  1  0
  2 15  1  0
  3  4  1  0
  5  6  1  0
  6  7  1  0
  7  8  1  0
  8  9  1  0
  9 10  1  0
 10 11  1  0
 11 12  1  0
 12 13  1  0
 12 14  2  0
 15 16  1  0
 15 17  2  0
M  CHG  2   4   1  16   1
M  END
