
     RDKit          3D

 17 16  0  0  0  0  0  0  0  0999 V2000
   -6.9180   -0.7860   -0.1380 N   0  0  0  0  0  0  0  0  0  0  0  0
   -5.6490   -1.4650   -0.2700 C   0  0  0  0  0  0  0  0  0  0  0  0
   -4.5570   -0.4970   -0.0580 C   0  0  0  0  0  0  0  0  0  0  0  0
   -4.7830    0.7340    0.1990 O   0  0  0  0  0  0  0  0  0  0  0  0
   -3.1960   -0.9050   -0.1330 N   0  0  0  0  0  0  0  0  0  0  0  0
   -2.1260    0.0270    0.0710 C   0  0  0  0  0  0  0  0  0  0  0  0
   -2.4370    1.2200    0.3190 O   0  0  0  0  0  0  0  0  0  0  0  0
   -0.7340   -0.4680   -0.0220 C   0  0  0  0  0  0  0  0  0  0  0  0
    0.2790    0.6220    0.1610 C   0  0  2  0  0  0  0  0  0  0  0  0
    0.2130    1.6760   -0.8030 N   0  0  0  0  0  0  0  0  0  0  0  0
    1.6600    0.0990    0.2280 C   0  0  0  0  0  0  0  0  0  0  0  0
    1.9090   -0.8330    1.0220 O   0  0  0  0  0  0  0  0  0  0  0  0
    2.6710    0.6370   -0.5810 N   0  0  0  0  0  0  0  0  0  0  0  0
    4.0480    0.1730   -0.5650 C   0  0  0  0  0  0  0  0  0  0  0  0
    4.6030    0.3780    0.8150 C   0  0  0  0  0  0  0  0  0  0  0  0
    6.0490   -0.1180    0.7880 C   0  0  0  0  0  0  0  0  0  0  0  0
    6.5930    0.0560    2.0430 O   0  0  0  0  0  0  0  0  0  0  0  0
  1  2  1  0
  2  3  1  0
  3  4  2  0
  3  5  1  0
  5  6  1  0
  6  7  2  0
  6  8  1  0
  8  9  1  0
  9 10  1  6
  9 11  1  0
 11 12  2  0
 11 13  1  0
 13 14  1  0
 14 15  1  0
 15 16  1  0
 16 17  1  0
M  CHG  2   1   1  10   1
M  END
