
     RDKit          3D

 17 16  0  0  0  0  0  0  0  0999 V2000
    5.5980    0.2740    2.0510 N   0  0  0  0  0  0  0  0  0  0  0  0
    5.8330   -0.1120    0.6760 C   0  0  0  0  0  0  0  0  0  0  0  0
    4.5650   -0.3160   -0.0680 C   0  0  0  0  0  0  0  0  0  0  0  0
    4.6080   -0.6540   -1.2780 O   0  0  0  0  0  0  0  0  0  0  0  0
    3.2760   -0.1510    0.5070 N   0  0  0  0  0  0  0  0  0  0  0  0
    2.0830   -0.3550   -0.2380 C   0  0  0  0  0  0  0  0  0  0  0  0
    2.1900   -0.6920   -1.4420 O   0  0  0  0  0  0  0  0  0  0  0  0
    0.7770   -0.1760    0.3870 C   0  0  0  0  0  0  0  0  0  0  0  0
   -0.4050   -0.4010   -0.5110 C   0  0  2  0  0  0  0  0  0  0  0  0
   -0.4550    0.4710   -1.6420 N   0  0  0  0  0  0  0  0  0  0  0  0
   -1.6130   -0.2130    0.3280 C   0  0  0  0  0  0  0  0  0  0  0  0
   -1.7810   -0.8990    1.3690 O   0  0  0  0  0  0  0  0  0  0  0  0
   -2.5770    0.7430   -0.0470 N   0  0  0  0  0  0  0  0  0  0  0  0
   -3.7400    0.9130    0.7750 C   0  0  0  0  0  0  0  0  0  0  0  0
   -4.5780   -0.3360    0.9080 C   0  0  0  0  0  0  0  0  0  0  0  0
   -5.0750   -0.8090   -0.4350 C   0  0  0  0  0  0  0  0  0  0  0  0
   -5.8670    0.1590   -1.0670 O   0  0  0  0  0  0  0  0  0  0  0  0
  1  2  1  0
  2  3  1  0
  3  4  2  0
  3  5  1  0
  5  6  1  0
  6  7  2  0
  6  8  1  0
  8  9  1  0
  9 10  1  6
  9 11  1  0
 11 12  2  0
 11 13  1  0
 13 14  1  0
 14 15  1  0
 15 16  1  0
 16 17  1  0
M  CHG  2   1   1  10   1
M  END
