
     RDKit          3D

 17 16  0  0  0  0  0  0  0  0999 V2000
   -3.6680    0.3890   -0.9670 C   0  0  0  0  0  0  0  0  0  0  0  0
   -3.1680   -0.0380    0.3820 C   0  0  1  0  0  0  0  0  0  0  0  0
   -1.7620   -0.1970    0.4780 N   0  0  0  0  0  0  0  0  0  0  0  0
   -1.1230   -0.6480   -0.7400 C   0  0  1  0  0  0  0  0  0  0  0  0
   -0.0890    0.3090   -1.2080 C   0  0  0  0  0  0  0  0  0  0  0  0
    1.0450    0.6070   -0.3140 C   0  0  0  0  0  0  0  0  0  0  0  0
    1.9130   -0.5510    0.0730 C   0  0  0  0  0  0  0  0  0  0  0  0
    2.9910   -0.0710    0.9550 N   0  0  0  0  0  0  0  0  0  0  0  0
    4.1010    0.3510    0.4890 C   0  0  0  0  0  0  0  0  0  0  0  0
    5.1140    0.8040    1.3530 N   0  0  0  0  0  0  0  0  0  0  0  0
    4.3160    0.3640   -0.9060 N   0  0  0  0  0  0  0  0  0  0  0  0
   -0.6830   -2.0380   -0.5560 C   0  0  0  0  0  0  0  0  0  0  0  0
   -0.9560   -2.6560    0.4900 O   0  0  0  0  0  0  0  0  0  0  0  0
    0.0380   -2.6840   -1.5350 O   0  0  0  0  0  0  0  0  0  0  0  0
   -3.6500    0.9460    1.3950 C   0  0  0  0  0  0  0  0  0  0  0  0
   -2.8240    1.4890    2.1690 O   0  0  0  0  0  0  0  0  0  0  0  0
   -4.9840    1.2950    1.5270 O   0  0  0  0  0  0  0  0  0  0  0  0
  2  1  1  6
  2  3  1  0
  2 15  1  0
  3  4  1  0
  4  5  1  1
  4 12  1  0
  5  6  1  0
  6  7  1  0
  7  8  1  0
  8  9  2  3
  9 10  1  0
  9 11  1  0
 12 13  2  0
 12 14  1  0
 15 16  2  0
 15 17  1  0
M  CHG  2   3   1   8   1
M  END
