
     RDKit          3D

 17 16  0  0  0  0  0  0  0  0999 V2000
   -1.0310   -2.5470    0.4520 C   0  0  0  0  0  0  0  0  0  0  0  0
   -1.3770   -1.1420    0.9220 C   0  0  1  0  0  0  0  0  0  0  0  0
   -0.2460   -0.2720    0.6860 N   0  0  0  0  0  0  0  0  0  0  0  0
    0.2860   -0.3440   -0.6410 C   0  0  0  0  0  0  0  0  0  0  0  0
    1.5710    0.5030   -0.6330 C   0  0  0  0  0  0  0  0  0  0  0  0
    2.3880   -0.0910    0.3110 O   0  0  0  0  0  0  0  0  0  0  0  0
    3.5830    0.5410    0.4760 C   0  0  0  0  0  0  0  0  0  0  0  0
    4.3820    0.5570   -0.7880 C   0  0  0  0  0  0  0  0  0  0  0  0
    5.6560    1.2510   -0.5160 N   0  0  0  0  0  0  0  0  0  0  0  0
   -2.6150   -0.6970    0.2220 C   0  0  2  0  0  0  0  0  0  0  0  0
   -3.0300    0.6030    0.6080 O   0  0  0  0  0  0  0  0  0  0  0  0
   -3.1390    1.6660   -0.2760 C   0  0  0  0  0  0  0  0  0  0  0  0
   -3.5520    2.9650    0.1050 N   0  0  0  0  0  0  0  0  0  0  0  0
   -2.8390    1.4020   -1.4800 O   0  0  0  0  0  0  0  0  0  0  0  0
   -3.6790   -1.6990    0.4500 C   0  0  0  0  0  0  0  0  0  0  0  0
   -4.9180   -1.2400    1.0240 N   0  0  0  0  0  0  0  0  0  0  0  0
   -3.5870   -2.9010    0.1870 O   0  0  0  0  0  0  0  0  0  0  0  0
  2  1  1  6
  2  3  1  0
  2 10  1  0
  3  4  1  0
  4  5  1  0
  5  6  1  0
  6  7  1  0
  7  8  1  0
  8  9  1  0
 10 11  1  1
 10 15  1  0
 11 12  1  0
 12 13  1  0
 12 14  2  0
 15 16  1  0
 15 17  2  0
M  CHG  2   3   1   9   1
M  END
