
     RDKit          3D

 17 16  0  0  0  0  0  0  0  0999 V2000
   -5.1070    1.7490    1.0910 C   0  0  0  0  0  0  0  0  0  0  0  0
   -4.5560    0.5050    1.3760 O   0  0  0  0  0  0  0  0  0  0  0  0
   -4.0290   -0.0860    0.2300 C   0  0  1  0  0  0  0  0  0  0  0  0
   -2.5530   -0.3570    0.4530 C   0  0  0  0  0  0  0  0  0  0  0  0
   -1.9570   -0.9380   -0.6290 O   0  0  0  0  0  0  0  0  0  0  0  0
   -0.6430   -1.2420   -0.5610 C   0  0  0  0  0  0  0  0  0  0  0  0
    0.2480   -0.0680   -0.3980 C   0  0  0  0  0  0  0  0  0  0  0  0
   -0.1690    1.1170   -0.3780 O   0  0  0  0  0  0  0  0  0  0  0  0
    1.6620   -0.2240   -0.2510 N   0  0  0  0  0  0  0  0  0  0  0  0
    2.4960    0.9280   -0.0950 C   0  0  0  0  0  0  0  0  0  0  0  0
    3.9340    0.6650    0.0490 C   0  0  0  0  0  0  0  0  0  0  0  0
    4.7760    1.8220    0.2060 N   0  0  0  0  0  0  0  0  0  0  0  0
    4.5350   -0.5080    0.0500 C   0  0  0  0  0  0  0  0  0  0  0  0
    5.9550   -0.6390    0.2000 N   0  0  0  0  0  0  0  0  0  0  0  0
   -4.7860   -1.3320   -0.0250 C   0  0  0  0  0  0  0  0  0  0  0  0
   -4.4740   -2.1630   -1.1400 N   0  0  0  0  0  0  0  0  0  0  0  0
   -5.7340   -1.7040    0.7350 O   0  0  0  0  0  0  0  0  0  0  0  0
  1  2  1  0
  2  3  1  0
  3  4  1  1
  3 15  1  0
  4  5  1  0
  5  6  1  0
  6  7  1  0
  7  8  2  0
  7  9  1  0
  9 10  1  0
 10 11  1  0
 11 12  1  0
 11 13  2  3
 13 14  1  0
 15 16  1  0
 15 17  2  0
M  CHG  2  12   1  14   1
M  END
