
     RDKit          3D

 17 16  0  0  0  0  0  0  0  0999 V2000
   -5.6530   -0.0310    1.6720 N   0  0  0  0  0  0  0  0  0  0  0  0
   -4.6590   -0.6960    0.9160 C   0  0  0  0  0  0  0  0  0  0  0  0
   -4.4800   -1.9350    0.9550 O   0  0  0  0  0  0  0  0  0  0  0  0
   -3.7930    0.1650    0.0310 C   0  0  0  0  0  0  0  0  0  0  0  0
   -2.8970   -0.6670   -0.6120 O   0  0  0  0  0  0  0  0  0  0  0  0
   -2.0800    0.0420   -1.4610 C   0  0  0  0  0  0  0  0  0  0  0  0
   -1.2460    1.0920   -0.8040 C   0  0  0  0  0  0  0  0  0  0  0  0
   -0.3850    0.6050    0.1670 O   0  0  0  0  0  0  0  0  0  0  0  0
    0.5340   -0.3130   -0.3150 C   0  0  2  0  0  0  0  0  0  0  0  0
    0.4090   -1.5660    0.4520 C   0  0  0  0  0  0  0  0  0  0  0  0
    1.1820   -2.7110    0.1770 N   0  0  0  0  0  0  0  0  0  0  0  0
   -0.3930   -1.6230    1.3620 O   0  0  0  0  0  0  0  0  0  0  0  0
    1.9410    0.1870   -0.0940 C   0  0  0  0  0  0  0  0  0  0  0  0
    2.9460   -0.6700   -0.5790 N   0  0  0  0  0  0  0  0  0  0  0  0
    2.1930    1.3000    0.4860 C   0  0  0  0  0  0  0  0  0  0  0  0
    3.5020    1.8640    0.7430 C   0  0  0  0  0  0  0  0  0  0  0  0
    4.6480    1.1290    0.3150 N   0  0  0  0  0  0  0  0  0  0  0  0
  1  2  1  0
  2  3  2  0
  2  4  1  0
  4  5  1  0
  5  6  1  0
  6  7  1  0
  7  8  1  0
  9  8  1  1
  9 10  1  0
  9 13  1  0
 10 11  1  0
 10 12  2  0
 13 14  1  0
 13 15  2  3
 15 16  1  0
 16 17  1  0
M  CHG  2  11   1  17   1
M  END
