
     RDKit          3D

 17 16  0  0  0  0  0  0  0  0999 V2000
    3.8760    1.7430   -0.4980 C   0  0  0  0  0  0  0  0  0  0  0  0
    4.8610    0.8140   -0.5250 O   0  0  0  0  0  0  0  0  0  0  0  0
    4.7590   -0.3460    0.1410 C   0  0  0  0  0  0  0  0  0  0  0  0
    3.6620   -1.2960   -0.2160 C   0  0  0  0  0  0  0  0  0  0  0  0
    2.3770   -0.6880   -0.0110 N   0  0  0  0  0  0  0  0  0  0  0  0
    1.5450   -1.6840    0.6580 C   0  0  0  0  0  0  0  0  0  0  0  0
    0.1670   -1.0760    0.8520 C   0  0  0  0  0  0  0  0  0  0  0  0
   -0.6930   -1.7950    1.4180 O   0  0  0  0  0  0  0  0  0  0  0  0
   -0.1610    0.2000    0.4400 N   0  0  0  0  0  0  0  0  0  0  0  0
   -1.3900    0.8970    0.5340 C   0  0  0  0  0  0  0  0  0  0  0  0
   -2.4880    0.3080   -0.2520 C   0  0  2  0  0  0  0  0  0  0  0  0
   -2.0300    0.2220   -1.5910 O   0  0  0  0  0  0  0  0  0  0  0  0
   -3.6570    1.3310   -0.3880 C   0  0  0  0  0  0  0  0  0  0  0  0
   -4.5900    0.7190   -1.3140 N   0  0  0  0  0  0  0  0  0  0  0  0
   -3.0100   -0.9460    0.2200 C   0  0  0  0  0  0  0  0  0  0  0  0
   -3.5870   -0.9800    1.5440 N   0  0  0  0  0  0  0  0  0  0  0  0
   -2.9850   -2.0080   -0.4790 O   0  0  0  0  0  0  0  0  0  0  0  0
  1  2  1  0
  2  3  1  0
  3  4  1  0
  4  5  1  0
  5  6  1  0
  6  7  1  0
  7  8  2  0
  7  9  1  0
  9 10  1  0
 10 11  1  0
 11 12  1  6
 11 13  1  0
 11 15  1  0
 13 14  1  0
 15 16  1  0
 15 17  2  0
M  CHG  2   5   1  14   1
M  END
