
     RDKit          3D

 17 16  0  0  0  0  0  0  0  0999 V2000
    3.3680    4.0680    1.2930 N   0  0  0  0  0  0  0  0  0  0  0  0
    2.6840    2.8020    1.1940 C   0  0  0  0  0  0  0  0  0  0  0  0
    1.4840    2.7010    1.5730 O   0  0  0  0  0  0  0  0  0  0  0  0
    3.3010    1.6830    0.6920 O   0  0  0  0  0  0  0  0  0  0  0  0
    2.6380    0.3960    0.5700 C   0  0  0  0  0  0  0  0  0  0  0  0
    1.4940    0.4720   -0.3480 C   0  0  0  0  0  0  0  0  0  0  0  0
    0.6410   -0.6360   -0.6670 C   0  0  0  0  0  0  0  0  0  0  0  0
    0.5910   -1.8860   -0.3640 C   0  0  0  0  0  0  0  0  0  0  0  0
    1.3990   -2.7400    0.4540 C   0  0  0  0  0  0  0  0  0  0  0  0
    1.0300   -4.1520    0.5690 N   0  0  0  0  0  0  0  0  0  0  0  0
    2.3890   -2.4160    1.0860 O   0  0  0  0  0  0  0  0  0  0  0  0
   -0.4600   -0.2120   -1.5780 N   0  0  0  0  0  0  0  0  0  0  0  0
   -1.8270   -0.5210   -1.3190 C   0  0  0  0  0  0  0  0  0  0  0  0
   -2.2950    0.2010   -0.0840 C   0  0  0  0  0  0  0  0  0  0  0  0
   -1.5800    0.5700    0.8060 O   0  0  0  0  0  0  0  0  0  0  0  0
   -3.7770    0.4930    0.0610 C   0  0  0  0  0  0  0  0  0  0  0  0
   -4.0390    1.0570    1.3700 N   0  0  0  0  0  0  0  0  0  0  0  0
  1  2  1  0
  2  3  2  0
  2  4  1  0
  4  5  1  0
  5  6  1  0
  6  7  1  0
  7  8  2  3
  7 12  1  0
  8  9  1  0
  9 10  1  0
  9 11  2  0
 12 13  1  0
 13 14  1  0
 14 15  2  0
 14 16  1  0
 16 17  1  0
M  CHG  2  10   1  17   1
M  END
