
     RDKit          3D

 26 28  0  0  0  0  0  0  0  0999 V2000
   -5.7150    1.1620   -0.1240 C   0  0  0  0  0  0  0  0  0  0  0  0
   -4.5430    1.2690    0.8670 C   0  0  1  0  0  0  0  0  0  0  0  0
   -4.9070    2.3350    1.8950 C   0  0  0  0  0  0  0  0  0  0  0  0
   -4.4070    0.0200    1.4450 O   0  0  0  0  0  0  0  0  0  0  0  0
   -3.3230   -0.8020    1.4050 C   0  0  0  0  0  0  0  0  0  0  0  0
   -3.4200   -2.0350    2.0730 C   0  0  0  0  0  0  0  0  0  0  0  0
   -2.3390   -2.8800    2.0460 C   0  0  0  0  0  0  0  0  0  0  0  0
   -1.1700   -2.5770    1.3980 C   0  0  0  0  0  0  0  0  0  0  0  0
   -1.0730   -1.3720    0.7440 C   0  0  0  0  0  0  0  0  0  0  0  0
    0.0740   -1.0050    0.0740 O   0  0  0  0  0  0  0  0  0  0  0  0
    0.2260   -1.3320   -1.2670 C   0  0  0  0  0  0  0  0  0  0  0  0
   -0.7550   -2.0170   -1.9320 C   0  0  0  0  0  0  0  0  0  0  0  0
   -0.6300   -2.3530   -3.2610 C   0  0  0  0  0  0  0  0  0  0  0  0
    0.5070   -1.9910   -3.9310 C   0  0  0  0  0  0  0  0  0  0  0  0
    1.4880   -1.2980   -3.2360 C   0  0  0  0  0  0  0  0  0  0  0  0
    1.4120   -0.9410   -1.9180 C   0  0  0  0  0  0  0  0  0  0  0  0
    2.3950   -0.2400   -1.2040 N   0  0  0  0  0  0  0  0  0  0  0  0
    3.6280    0.2290   -1.6740 C   0  0  0  0  0  0  0  0  0  0  0  0
    3.9450    0.0290   -2.8680 O   0  0  0  0  0  0  0  0  0  0  0  0
    4.5600    0.9590   -0.7740 C   0  0  0  0  0  0  0  0  0  0  0  0
    5.7000    1.3690   -1.2890 C   0  0  0  0  0  0  0  0  0  0  0  0
    6.6310    2.0790   -0.4560 N   0  0  0  0  0  0  0  0  0  0  0  0
    6.3690    2.3640    0.9290 C   0  0  0  0  0  0  0  0  0  0  0  0
    5.0590    1.8500    1.3770 C   0  0  0  0  0  0  0  0  0  0  0  0
    4.2810    1.2250    0.5740 N   0  0  0  0  0  0  0  0  0  0  0  0
   -2.1590   -0.4860    0.7530 C   0  0  0  0  0  0  0  0  0  0  0  0
  2  1  1  6
  2  3  1  0
  2  4  1  0
  4  5  1  0
  5  6  2  0
  5 26  1  0
  6  7  1  0
  7  8  2  0
  8  9  1  0
  9 10  1  0
  9 26  2  0
 10 11  1  0
 11 12  2  0
 11 16  1  0
 12 13  1  0
 13 14  2  0
 14 15  1  0
 15 16  2  0
 16 17  1  0
 17 18  1  0
 18 19  2  0
 18 20  1  0
 20 21  2  0
 20 25  1  0
 21 22  1  0
 22 23  1  0
 23 24  1  0
 24 25  2  0
M  END
