
     RDKit          3D

 26 28  0  0  0  0  0  0  0  0999 V2000
    4.2780    3.1160    0.6620 O   0  0  0  0  0  0  0  0  0  0  0  0
    5.3520    2.4960    0.5870 C   0  0  0  0  0  0  0  0  0  0  0  0
    6.5530    3.1880    0.6630 O   0  0  0  0  0  0  0  0  0  0  0  0
    5.3750    1.0490    0.4180 C   0  0  0  0  0  0  0  0  0  0  0  0
    6.5660    0.3650    0.3340 C   0  0  0  0  0  0  0  0  0  0  0  0
    6.5600   -0.9850    0.1770 C   0  0  0  0  0  0  0  0  0  0  0  0
    5.3740   -1.6090    0.1090 N   0  0  0  0  0  0  0  0  0  0  0  0
    4.1860   -0.9990    0.1840 C   0  0  0  0  0  0  0  0  0  0  0  0
    2.9640   -1.7890    0.0970 C   0  0  0  0  0  0  0  0  0  0  0  0
    1.7120   -1.2220    0.1670 C   0  0  0  0  0  0  0  0  0  0  0  0
    0.5730   -1.9840    0.0820 C   0  0  0  0  0  0  0  0  0  0  0  0
   -0.7660   -1.4630    0.1480 C   0  0  0  0  0  0  0  0  0  0  0  0
   -1.7530   -2.2320    0.0620 O   0  0  0  0  0  0  0  0  0  0  0  0
   -1.0880   -0.0730    0.3110 N   0  0  0  0  0  0  0  0  0  0  0  0
   -2.4270    0.4080    0.3710 C   0  0  0  0  0  0  0  0  0  0  0  0
   -3.2480    0.1190   -0.8590 C   0  0  0  0  0  0  0  0  0  0  0  0
   -4.6220    0.6820   -0.6470 C   0  0  0  0  0  0  0  0  0  0  0  0
   -4.8590    1.9730   -1.0340 C   0  0  0  0  0  0  0  0  0  0  0  0
   -6.1000    2.5490   -0.8670 C   0  0  0  0  0  0  0  0  0  0  0  0
   -7.1120    1.8060   -0.3000 C   0  0  0  0  0  0  0  0  0  0  0  0
   -6.8690    0.5180    0.0840 C   0  0  0  0  0  0  0  0  0  0  0  0
   -5.6280   -0.0480   -0.0870 C   0  0  0  0  0  0  0  0  0  0  0  0
    0.7450   -3.3410   -0.0760 C   0  0  0  0  0  0  0  0  0  0  0  0
    1.9920   -3.9130   -0.1470 C   0  0  0  0  0  0  0  0  0  0  0  0
    3.0450   -3.1220   -0.0590 N   0  0  0  0  0  0  0  0  0  0  0  0
    4.1640    0.3580    0.3420 C   0  0  0  0  0  0  0  0  0  0  0  0
  1  2  2  0
  2  3  1  0
  2  4  1  0
  4  5  2  0
  4 26  1  0
  5  6  1  0
  6  7  2  0
  7  8  1  0
  8  9  1  0
  8 26  2  0
  9 10  2  0
  9 25  1  0
 10 11  1  0
 11 12  1  0
 11 23  2  0
 12 13  2  0
 12 14  1  0
 14 15  1  0
 15 16  1  0
 16 17  1  0
 17 18  2  0
 17 22  1  0
 18 19  1  0
 19 20  2  0
 20 21  1  0
 21 22  2  0
 23 24  1  0
 24 25  2  0
M  END
