
     RDKit          3D

 26 28  0  0  0  0  0  0  0  0999 V2000
   -8.3240    0.8450    1.3740 C   0  0  0  0  0  0  0  0  0  0  0  0
   -7.2070    0.2810    0.9490 C   0  0  0  0  0  0  0  0  0  0  0  0
   -7.2430   -1.0080    0.2530 C   0  0  0  0  0  0  0  0  0  0  0  0
   -6.1640   -1.5950   -0.1830 C   0  0  0  0  0  0  0  0  0  0  0  0
   -4.8610   -0.9370    0.0320 C   0  0  0  0  0  0  0  0  0  0  0  0
   -3.8400   -1.5330   -0.4020 O   0  0  0  0  0  0  0  0  0  0  0  0
   -4.7410    0.3340    0.7100 C   0  0  0  0  0  0  0  0  0  0  0  0
   -3.5120    1.0290    0.9700 C   0  0  0  0  0  0  0  0  0  0  0  0
   -3.5310    2.1260    1.5870 O   0  0  0  0  0  0  0  0  0  0  0  0
   -2.2540    0.5550    0.5710 N   0  0  0  0  0  0  0  0  0  0  0  0
   -1.0290    1.3000    0.8700 C   0  0  0  0  0  0  0  0  0  0  0  0
    0.0340    0.8200   -0.0300 C   0  0  0  0  0  0  0  0  0  0  0  0
   -0.2700    0.5230   -1.3470 C   0  0  0  0  0  0  0  0  0  0  0  0
    0.7290    0.0830   -2.1910 C   0  0  0  0  0  0  0  0  0  0  0  0
    1.9960   -0.0590   -1.7440 N   0  0  0  0  0  0  0  0  0  0  0  0
    2.3390    0.2190   -0.4650 C   0  0  0  0  0  0  0  0  0  0  0  0
    3.6520    0.0700   -0.0060 O   0  0  0  0  0  0  0  0  0  0  0  0
    4.5780   -0.3830   -0.9700 C   0  0  0  0  0  0  0  0  0  0  0  0
    5.9530   -0.5430   -0.4880 C   0  0  0  0  0  0  0  0  0  0  0  0
    7.0020   -0.2060   -1.3510 C   0  0  0  0  0  0  0  0  0  0  0  0
    8.3130   -0.3450   -0.9600 C   0  0  0  0  0  0  0  0  0  0  0  0
    8.5360   -0.8290    0.3120 C   0  0  0  0  0  0  0  0  0  0  0  0
    7.4830   -1.1580    1.1550 C   0  0  0  0  0  0  0  0  0  0  0  0
    6.2320   -1.0050    0.7290 N   0  0  0  0  0  0  0  0  0  0  0  0
    1.3540    0.6590    0.3880 C   0  0  0  0  0  0  0  0  0  0  0  0
   -5.9060    0.8750    1.1300 C   0  0  0  0  0  0  0  0  0  0  0  0
  1  2  2  0
  2  3  1  0
  2 26  1  0
  3  4  2  0
  4  5  1  0
  5  6  2  0
  5  7  1  0
  7  8  1  0
  7 26  2  0
  8  9  2  0
  8 10  1  0
 10 11  1  0
 11 12  1  0
 12 13  2  0
 12 25  1  0
 13 14  1  0
 14 15  2  0
 15 16  1  0
 16 17  1  0
 16 25  2  0
 17 18  1  0
 18 19  1  0
 19 20  2  0
 19 24  1  0
 20 21  1  0
 21 22  2  0
 22 23  1  0
 23 24  2  0
M  END
