
     RDKit          3D

 26 28  0  0  0  0  0  0  0  0999 V2000
   -6.6110    1.4010    1.2220 C   0  0  0  0  0  0  0  0  0  0  0  0
   -5.8940    1.7070   -0.0530 C   0  0  0  0  0  0  0  0  0  0  0  0
   -4.6430    1.1050   -0.0680 O   0  0  0  0  0  0  0  0  0  0  0  0
   -4.4800   -0.2580   -0.0170 C   0  0  0  0  0  0  0  0  0  0  0  0
   -5.5820   -1.0860    0.0350 C   0  0  0  0  0  0  0  0  0  0  0  0
   -5.4440   -2.4570    0.0860 C   0  0  0  0  0  0  0  0  0  0  0  0
   -4.1810   -2.9760    0.0820 C   0  0  0  0  0  0  0  0  0  0  0  0
   -3.0630   -2.1220    0.0270 C   0  0  0  0  0  0  0  0  0  0  0  0
   -3.1690   -0.7570   -0.0230 C   0  0  0  0  0  0  0  0  0  0  0  0
   -2.1110    0.1690   -0.0790 N   0  0  0  0  0  0  0  0  0  0  0  0
   -0.7380   -0.1350   -0.0940 C   0  0  0  0  0  0  0  0  0  0  0  0
   -0.3720   -1.3390   -0.0540 O   0  0  0  0  0  0  0  0  0  0  0  0
    0.3240    0.8930   -0.1530 C   0  0  0  0  0  0  0  0  0  0  0  0
   -0.0110    2.2130   -0.1980 C   0  0  0  0  0  0  0  0  0  0  0  0
    0.9900    3.1820   -0.2540 C   0  0  0  0  0  0  0  0  0  0  0  0
    2.2880    2.7680   -0.2630 C   0  0  0  0  0  0  0  0  0  0  0  0
    2.6160    1.4320   -0.2180 C   0  0  0  0  0  0  0  0  0  0  0  0
    3.9870    1.0780   -0.2310 N   0  0  0  0  0  0  0  0  0  0  0  0
    4.4220   -0.2840   -0.1870 C   0  0  0  0  0  0  0  0  0  0  0  0
    3.5200   -1.1540   -0.1360 O   0  0  0  0  0  0  0  0  0  0  0  0
    5.8470   -0.6400   -0.2000 C   0  0  0  0  0  0  0  0  0  0  0  0
    6.3090   -1.8730   -0.1620 C   0  0  0  0  0  0  0  0  0  0  0  0
    7.7950   -1.8600   -0.1910 C   0  0  0  0  0  0  0  0  0  0  0  0
    8.1330   -0.4150   -0.2530 C   0  0  0  0  0  0  0  0  0  0  0  0
    6.9970    0.2320   -0.2560 C   0  0  0  0  0  0  0  0  0  0  0  0
    1.6190    0.5440   -0.1650 N   0  0  0  0  0  0  0  0  0  0  0  0
  1  2  1  0
  2  3  1  0
  3  4  1  0
  4  5  2  0
  4  9  1  0
  5  6  1  0
  6  7  2  0
  7  8  1  0
  8  9  2  0
  9 10  1  0
 10 11  1  0
 11 12  2  0
 11 13  1  0
 13 14  2  0
 13 26  1  0
 14 15  1  0
 15 16  2  0
 16 17  1  0
 17 18  1  0
 17 26  2  0
 18 19  1  0
 19 20  2  0
 19 21  1  0
 21 22  2  0
 21 25  1  0
 22 23  1  0
 23 24  1  0
 24 25  2  0
M  END
