
     RDKit          3D

 26 28  0  0  0  0  0  0  0  0999 V2000
    7.4730   -0.8790    1.2160 C   0  0  0  0  0  0  0  0  0  0  0  0
    6.2280   -0.5860    0.4310 C   0  0  0  0  0  0  0  0  0  0  0  0
    6.1170    0.6290   -0.2360 C   0  0  0  0  0  0  0  0  0  0  0  0
    4.9670    0.8550   -0.9390 C   0  0  0  0  0  0  0  0  0  0  0  0
    3.9170   -0.0410   -1.0280 C   0  0  0  0  0  0  0  0  0  0  0  0
    2.6960    0.2580   -1.8060 C   0  0  0  0  0  0  0  0  0  0  0  0
    1.6260    0.9380   -1.0090 C   0  0  0  0  0  0  0  0  0  0  0  0
    1.1490    0.1280    0.1710 C   0  0  0  0  0  0  0  0  0  0  0  0
    0.0980    0.9010    0.8750 C   0  0  0  0  0  0  0  0  0  0  0  0
    0.4630    1.7830    1.7210 O   0  0  0  0  0  0  0  0  0  0  0  0
   -1.3120    0.6730    0.6170 C   0  0  0  0  0  0  0  0  0  0  0  0
   -2.2570    1.4170    1.3010 C   0  0  0  0  0  0  0  0  0  0  0  0
   -3.5930    1.2030    1.0560 C   0  0  0  0  0  0  0  0  0  0  0  0
   -4.0560    0.2720    0.1500 C   0  0  0  0  0  0  0  0  0  0  0  0
   -5.4980    0.0730   -0.0850 C   0  0  0  0  0  0  0  0  0  0  0  0
   -6.3440    1.1080   -0.2390 N   0  0  0  0  0  0  0  0  0  0  0  0
   -7.6440    0.8890   -0.4510 N   0  0  0  0  0  0  0  0  0  0  0  0
   -8.1670   -0.3480   -0.5210 C   0  0  0  0  0  0  0  0  0  0  0  0
   -9.4190   -0.4790   -0.7260 O   0  0  0  0  0  0  0  0  0  0  0  0
   -7.3570   -1.4030   -0.3720 N   0  0  0  0  0  0  0  0  0  0  0  0
   -6.0360   -1.1990   -0.1570 C   0  0  0  0  0  0  0  0  0  0  0  0
   -5.2670   -2.1970   -0.0160 O   0  0  0  0  0  0  0  0  0  0  0  0
   -3.1060   -0.4620   -0.5240 C   0  0  0  0  0  0  0  0  0  0  0  0
   -1.7440   -0.2500   -0.2800 C   0  0  0  0  0  0  0  0  0  0  0  0
    4.0400   -1.2400   -0.3630 C   0  0  0  0  0  0  0  0  0  0  0  0
    5.1980   -1.4950    0.3590 C   0  0  0  0  0  0  0  0  0  0  0  0
  1  2  1  0
  2  3  2  0
  2 26  1  0
  3  4  1  0
  4  5  2  0
  5  6  1  0
  5 25  1  0
  6  7  1  0
  7  8  1  0
  8  9  1  0
  9 10  2  0
  9 11  1  0
 11 12  2  0
 11 24  1  0
 12 13  1  0
 13 14  2  0
 14 15  1  0
 14 23  1  0
 15 16  2  0
 15 21  1  0
 16 17  1  0
 17 18  1  0
 18 19  2  0
 18 20  1  0
 20 21  1  0
 21 22  2  0
 23 24  2  0
 25 26  2  0
M  END
