
     RDKit          3D

 26 28  0  0  0  0  0  0  0  0999 V2000
   -4.0740   -0.7870   -1.5450 C   0  0  0  0  0  0  0  0  0  0  0  0
   -2.9710   -1.1840   -1.0070 O   0  0  0  0  0  0  0  0  0  0  0  0
   -1.8590   -1.5120   -0.4280 C   0  0  0  0  0  0  0  0  0  0  0  0
   -1.2660   -2.7710   -0.6670 C   0  0  0  0  0  0  0  0  0  0  0  0
   -0.0970   -3.0910   -0.0440 C   0  0  0  0  0  0  0  0  0  0  0  0
    0.4850   -4.3500   -0.2890 O   0  0  0  0  0  0  0  0  0  0  0  0
   -0.0620   -5.3050   -1.1400 C   0  0  0  0  0  0  0  0  0  0  0  0
    0.5550   -2.2490    0.8190 C   0  0  0  0  0  0  0  0  0  0  0  0
    0.0150   -1.0080    1.0810 C   0  0  0  0  0  0  0  0  0  0  0  0
    0.5970   -0.0670    1.9960 C   0  0  0  0  0  0  0  0  0  0  0  0
    0.7260   -0.3200    3.3480 C   0  0  0  0  0  0  0  0  0  0  0  0
    1.2320    0.6050    4.2230 C   0  0  0  0  0  0  0  0  0  0  0  0
    1.6260    1.8340    3.7220 C   0  0  0  0  0  0  0  0  0  0  0  0
    2.1200    2.7860    4.5800 C   0  0  0  0  0  0  0  0  0  0  0  0
    2.5920    3.6710    5.3570 N   0  0  0  0  0  0  0  0  0  0  0  0
    1.5030    2.0930    2.3790 N   0  0  0  0  0  0  0  0  0  0  0  0
    1.0010    1.1660    1.5360 C   0  0  0  0  0  0  0  0  0  0  0  0
    0.8850    1.4100    0.1440 N   0  0  0  0  0  0  0  0  0  0  0  0
    1.2830    2.6860   -0.4060 C   0  0  0  0  0  0  0  0  0  0  0  0
    1.7160    3.5130    0.4420 O   0  0  0  0  0  0  0  0  0  0  0  0
    1.1970    2.9990   -1.8070 C   0  0  0  0  0  0  0  0  0  0  0  0
    0.7790    2.2720   -2.8210 C   0  0  0  0  0  0  0  0  0  0  0  0
    0.9050    3.0940   -4.0440 C   0  0  0  0  0  0  0  0  0  0  0  0
    1.5720    4.1630   -3.6410 C   0  0  0  0  0  0  0  0  0  0  0  0
    1.6090    4.3050   -2.3440 C   0  0  0  0  0  0  0  0  0  0  0  0
   -1.1640   -0.6710    0.4610 C   0  0  0  0  0  0  0  0  0  0  0  0
  1  2  1  0
  2  3  1  0
  3  4  2  0
  3 26  1  0
  4  5  1  0
  5  6  1  0
  5  8  2  0
  6  7  1  0
  8  9  1  0
  9 10  1  0
  9 26  2  0
 10 11  2  0
 10 17  1  0
 11 12  1  0
 12 13  2  0
 13 14  1  0
 13 16  1  0
 14 15  3  0
 16 17  2  0
 17 18  1  0
 18 19  1  0
 19 20  2  0
 19 21  1  0
 21 22  2  0
 21 25  1  0
 22 23  1  0
 23 24  2  0
 24 25  2  0
M  END
