
     RDKit          3D

 26 28  0  0  0  0  0  0  0  0999 V2000
   -3.8760   -2.3360   -1.0800 C   0  0  0  0  0  0  0  0  0  0  0  0
   -3.9440   -1.0100   -0.4790 C   0  0  0  0  0  0  0  0  0  0  0  0
   -5.0950   -0.3970   -0.0870 C   0  0  0  0  0  0  0  0  0  0  0  0
   -4.8240    0.8280    0.3070 N   0  0  0  0  0  0  0  0  0  0  0  0
   -3.4600    1.0470    0.2060 C   0  0  0  0  0  0  0  0  0  0  0  0
   -2.5880    2.0430    0.5120 C   0  0  0  0  0  0  0  0  0  0  0  0
   -1.2570    1.9800    0.3980 C   0  0  0  0  0  0  0  0  0  0  0  0
   -0.7150    0.7950   -0.0870 C   0  0  0  0  0  0  0  0  0  0  0  0
    0.6900    0.8280   -0.1250 O   0  0  0  0  0  0  0  0  0  0  0  0
    1.4770   -0.2240   -0.3000 N   0  0  0  0  0  0  0  0  0  0  0  0
    2.7340   -0.2700    0.0070 C   0  0  0  0  0  0  0  0  0  0  0  0
    3.3480    0.7810    0.6220 O   0  0  0  0  0  0  0  0  0  0  0  0
    3.8190   -1.3270   -0.2110 C   0  0  0  0  0  0  0  0  0  0  0  0
    3.5040   -2.4040   -0.5730 O   0  0  0  0  0  0  0  0  0  0  0  0
    5.1370   -0.7580    0.0440 C   0  0  0  0  0  0  0  0  0  0  0  0
    6.2670   -1.5510   -0.3780 C   0  0  0  0  0  0  0  0  0  0  0  0
    7.5770   -0.7450   -0.1000 C   0  0  0  0  0  0  0  0  0  0  0  0
    7.4970    0.5920   -0.7440 C   0  0  0  0  0  0  0  0  0  0  0  0
    8.9020    1.2460   -0.3050 C   0  0  0  0  0  0  0  0  0  0  0  0
    9.8570    1.6950    0.0130 N   0  0  0  0  0  0  0  0  0  0  0  0
   -1.4910   -0.2270   -0.4380 C   0  0  0  0  0  0  0  0  0  0  0  0
   -2.9030   -0.1480   -0.3030 C   0  0  0  0  0  0  0  0  0  0  0  0
   -5.7770    1.8820    0.7210 C   0  0  0  0  0  0  0  0  0  0  0  0
   -7.1790    1.3220    0.9150 C   0  0  0  0  0  0  0  0  0  0  0  0
   -7.3490   -0.0190    0.4690 C   0  0  0  0  0  0  0  0  0  0  0  0
   -6.5300   -0.8760    0.0070 C   0  0  0  0  0  0  0  0  0  0  0  0
  1  2  1  0
  2  3  2  0
  2 22  1  0
  3  4  1  0
  3 26  1  0
  4  5  1  0
  4 23  1  0
  5  6  2  0
  5 22  1  0
  6  7  1  0
  7  8  2  0
  8  9  1  0
  8 21  1  0
  9 10  1  0
 10 11  1  0
 11 12  2  0
 11 13  1  0
 13 14  2  0
 13 15  1  0
 15 16  1  0
 16 17  1  0
 17 18  1  0
 18 19  1  0
 19 20  3  0
 21 22  2  0
 23 24  1  0
 24 25  1  0
 25 26  2  0
M  END
