
     RDKit          3D

 16 17  0  0  0  0  0  0  0  0999 V2000
   -0.5440    1.1880    1.9030 C   0  0  0  0  0  0  0  0  0  0  0  0
    0.1120    0.5020    0.7740 C   0  0  0  0  0  0  0  0  0  0  0  0
    1.4580    0.5040    0.6730 N   0  0  0  0  0  0  0  0  0  0  0  0
    2.1570   -0.2330   -0.2230 C   0  0  0  0  0  0  0  0  0  0  0  0
    3.5350   -0.3070   -0.4620 C   0  0  0  0  0  0  0  0  0  0  0  0
    4.5690    0.3570    0.2320 C   0  0  0  0  0  0  0  0  0  0  0  0
    5.4770    0.9500    0.8230 N   0  0  0  0  0  0  0  0  0  0  0  0
    3.6370   -1.2030   -1.5290 C   0  0  0  0  0  0  0  0  0  0  0  0
    2.3580   -1.6040   -1.8470 N   0  0  0  0  0  0  0  0  0  0  0  0
    1.4840   -1.0220   -1.0730 N   0  0  0  0  0  0  0  0  0  0  0  0
    0.1250   -1.0370   -0.9770 C   0  0  0  0  0  0  0  0  0  0  0  0
   -0.5040   -1.7940   -1.7600 O   0  0  0  0  0  0  0  0  0  0  0  0
   -0.6140   -0.2740   -0.0570 C   0  0  0  0  0  0  0  0  0  0  0  0
   -2.0850   -0.1200   -0.1230 C   0  0  1  0  0  0  0  0  0  0  0  0
   -2.9990   -1.2460   -0.2970 C   0  0  0  0  0  0  0  0  0  0  0  0
   -2.6350    1.2610    0.1180 C   0  0  0  0  0  0  0  0  0  0  0  0
  1  2  1  0
  2  3  1  0
  2 13  2  0
  3  4  1  0
  4  5  2  0
  4 10  1  0
  5  6  1  0
  5  8  1  0
  6  7  3  0
  8  9  2  0
  9 10  1  0
 10 11  1  0
 11 12  2  0
 11 13  1  0
 13 14  1  0
 14 15  1  1
 14 16  1  0
M  END
