
     RDKit          3D

 21 24  0  0  0  0  0  0  0  0999 V2000
    3.2670   -0.6080   -1.8700 C   0  0  0  0  0  0  0  0  0  0  0  0
    3.2750    0.3530   -0.7620 N   0  0  0  0  0  0  0  0  0  0  0  0
    4.2740    1.1610   -0.4490 C   0  0  0  0  0  0  0  0  0  0  0  0
    3.8820    1.9120    0.6510 C   0  0  0  0  0  0  0  0  0  0  0  0
    2.6060    1.5010    0.9620 C   0  0  0  0  0  0  0  0  0  0  0  0
    2.2320    0.5230    0.0730 C   0  0  0  0  0  0  0  0  0  0  0  0
    0.9450   -0.2230    0.0470 C   0  0  0  0  0  0  0  0  0  0  0  0
   -0.1360    0.4670    0.1610 C   0  0  0  0  0  0  0  0  0  0  0  0
   -0.0380    1.8680    0.2970 O   0  0  0  0  0  0  0  0  0  0  0  0
   -1.1500    2.6880    0.4190 C   0  0  0  0  0  0  0  0  0  0  0  0
   -1.0370    4.0910    0.5530 N   0  0  0  0  0  0  0  0  0  0  0  0
   -2.3520    2.2130    0.4170 N   0  0  0  0  0  0  0  0  0  0  0  0
   -2.5410    0.7980    0.2850 C   0  0  0  0  0  0  0  0  0  0  0  0
   -3.8410    0.3580    0.2870 C   0  0  0  0  0  0  0  0  0  0  0  0
   -4.1140   -0.9690    0.1650 C   0  0  0  0  0  0  0  0  0  0  0  0
   -3.0360   -1.8410    0.0420 C   0  0  0  0  0  0  0  0  0  0  0  0
   -1.7260   -1.4260    0.0380 C   0  0  0  0  0  0  0  0  0  0  0  0
   -1.4870   -0.0750    0.1610 C   0  0  0  0  0  0  0  0  0  0  0  0
   -0.8400   -2.5920   -0.0620 C   0  0  0  0  0  0  0  0  0  0  0  0
   -1.8270   -3.7670   -0.0060 C   0  0  0  0  0  0  0  0  0  0  0  0
   -3.1150   -3.2390   -0.0980 O   0  0  0  0  0  0  0  0  0  0  0  0
  1  2  1  0
  2  3  1  0
  2  6  1  0
  3  4  2  0
  4  5  1  0
  5  6  2  0
  6  7  1  0
  7  8  2  3
  8  9  1  0
  8 18  1  0
  9 10  1  0
 10 11  1  0
 10 12  2  0
 12 13  1  0
 13 14  2  0
 13 18  1  0
 14 15  1  0
 15 16  2  0
 16 17  1  0
 16 21  1  0
 17 18  2  0
 17 19  1  0
 19 20  1  0
 20 21  1  0
M  END
