
     RDKit          3D

 21 24  0  0  0  0  0  0  0  0999 V2000
    5.9510   -0.7820   -0.6920 C   0  0  0  0  0  0  0  0  0  0  0  0
    4.9960    0.1840   -0.1030 C   0  0  0  0  0  0  0  0  0  0  0  0
    3.6430   -0.0960   -0.1220 C   0  0  0  0  0  0  0  0  0  0  0  0
    2.7170    0.7730    0.4140 C   0  0  0  0  0  0  0  0  0  0  0  0
    1.2900    0.4530    0.3820 C   0  0  0  0  0  0  0  0  0  0  0  0
    0.3270    1.2590    0.8880 N   0  0  0  0  0  0  0  0  0  0  0  0
   -0.8510    0.6450    0.6810 C   0  0  0  0  0  0  0  0  0  0  0  0
   -2.1840    0.9660    0.9710 C   0  0  0  0  0  0  0  0  0  0  0  0
   -3.1370    0.0540    0.5890 C   0  0  0  0  0  0  0  0  0  0  0  0
   -2.8230   -1.1250   -0.0500 C   0  0  0  0  0  0  0  0  0  0  0  0
   -1.4990   -1.4520   -0.3430 C   0  0  0  0  0  0  0  0  0  0  0  0
   -0.5380   -0.5430    0.0370 C   0  0  0  0  0  0  0  0  0  0  0  0
    0.7680   -0.6150   -0.1220 O   0  0  0  0  0  0  0  0  0  0  0  0
   -3.9640   -2.0070   -0.3990 C   0  0  0  0  0  0  0  0  0  0  0  0
   -5.0160   -1.2600   -1.0070 N   0  0  0  0  0  0  0  0  0  0  0  0
   -5.2990    0.0200   -0.4490 C   0  0  0  0  0  0  0  0  0  0  0  0
   -4.5700    0.2990    0.8480 C   0  0  0  0  0  0  0  0  0  0  0  0
    3.1930    1.9400    0.9730 C   0  0  0  0  0  0  0  0  0  0  0  0
    4.5300    2.2230    0.9950 C   0  0  0  0  0  0  0  0  0  0  0  0
    4.8990    3.3010    1.5180 O   0  0  0  0  0  0  0  0  0  0  0  0
    5.3890    1.3420    0.4590 N   0  0  0  0  0  0  0  0  0  0  0  0
  1  2  1  0
  2  3  2  0
  2 21  1  0
  3  4  1  0
  4  5  1  0
  4 18  2  0
  5  6  2  0
  5 13  1  0
  6  7  1  0
  7  8  2  0
  7 12  1  0
  8  9  1  0
  9 10  2  0
  9 17  1  0
 10 11  1  0
 10 14  1  0
 11 12  2  0
 12 13  1  0
 14 15  1  0
 15 16  1  0
 16 17  1  0
 18 19  1  0
 19 20  2  0
 19 21  1  0
M  END
