
     RDKit          3D

 21 24  0  0  0  0  0  0  0  0999 V2000
    6.5970    0.9550    0.4800 O   0  0  0  0  0  0  0  0  0  0  0  0
    5.4120    0.3080    0.1380 C   0  0  0  0  0  0  0  0  0  0  0  0
    5.3980   -0.9150   -0.5190 C   0  0  0  0  0  0  0  0  0  0  0  0
    4.2140   -1.4810   -0.8180 N   0  0  0  0  0  0  0  0  0  0  0  0
    3.0370   -0.9110   -0.5080 C   0  0  0  0  0  0  0  0  0  0  0  0
    1.7450   -1.2950   -0.7090 N   0  0  0  0  0  0  0  0  0  0  0  0
    0.9060   -0.3800   -0.2150 C   0  0  0  0  0  0  0  0  0  0  0  0
   -0.5620   -0.3510   -0.1940 C   0  0  0  0  0  0  0  0  0  0  0  0
   -1.2170    0.7390    0.3940 C   0  0  0  0  0  0  0  0  0  0  0  0
   -2.5870    0.7870    0.4250 C   0  0  0  0  0  0  0  0  0  0  0  0
   -3.2350    1.8680    1.0070 C   0  0  0  0  0  0  0  0  0  0  0  0
   -4.6130    1.9210    1.0410 C   0  0  0  0  0  0  0  0  0  0  0  0
   -5.3860    0.9170    0.5050 C   0  0  0  0  0  0  0  0  0  0  0  0
   -4.7400   -0.1480   -0.0680 C   0  0  0  0  0  0  0  0  0  0  0  0
   -3.3590   -0.2200   -0.1120 C   0  0  0  0  0  0  0  0  0  0  0  0
   -2.7420   -1.2890   -0.6880 C   0  0  0  0  0  0  0  0  0  0  0  0
   -1.3420   -1.3430   -0.7230 C   0  0  0  0  0  0  0  0  0  0  0  0
   -0.7430   -2.4450   -1.3160 O   0  0  0  0  0  0  0  0  0  0  0  0
    1.7090    0.5960    0.3060 N   0  0  0  0  0  0  0  0  0  0  0  0
    2.9910    0.2980    0.1410 C   0  0  0  0  0  0  0  0  0  0  0  0
    4.2020    0.8830    0.4510 C   0  0  0  0  0  0  0  0  0  0  0  0
  1  2  1  0
  2  3  2  0
  2 21  1  0
  3  4  1  0
  4  5  2  0
  5  6  1  0
  5 20  1  0
  6  7  1  0
  7  8  1  0
  7 19  2  0
  8  9  2  0
  8 17  1  0
  9 10  1  0
 10 11  2  0
 10 15  1  0
 11 12  1  0
 12 13  2  0
 13 14  1  0
 14 15  2  0
 15 16  1  0
 16 17  2  0
 17 18  1  0
 19 20  1  0
 20 21  2  0
M  END
