
     RDKit          3D

 20 23  0  0  0  0  0  0  0  0999 V2000
    3.8510    1.5450   -0.0870 C   0  0  0  0  0  0  0  0  0  0  0  0
    2.5630    0.8580   -0.0420 N   0  0  0  0  0  0  0  0  0  0  0  0
    1.4020    1.5300   -0.0010 C   0  0  0  0  0  0  0  0  0  0  0  0
    0.1780    0.9030    0.0420 C   0  0  0  0  0  0  0  0  0  0  0  0
   -1.0170    1.6120    0.0830 C   0  0  0  0  0  0  0  0  0  0  0  0
   -2.2470    0.9870    0.1260 C   0  0  0  0  0  0  0  0  0  0  0  0
   -3.4360    1.7000    0.1670 C   0  0  0  0  0  0  0  0  0  0  0  0
   -3.4280    2.9580    0.1670 O   0  0  0  0  0  0  0  0  0  0  0  0
   -4.5910    1.0130    0.2080 N   0  0  0  0  0  0  0  0  0  0  0  0
   -4.6410   -0.3150    0.2100 N   0  0  0  0  0  0  0  0  0  0  0  0
   -3.4840   -1.0220    0.1700 C   0  0  0  0  0  0  0  0  0  0  0  0
   -3.5790   -2.2760    0.1730 O   0  0  0  0  0  0  0  0  0  0  0  0
   -2.2560   -0.3970    0.1270 C   0  0  0  0  0  0  0  0  0  0  0  0
   -1.1000   -1.1460    0.0870 C   0  0  0  0  0  0  0  0  0  0  0  0
    0.1290   -0.4730    0.0440 C   0  0  0  0  0  0  0  0  0  0  0  0
    1.2880   -1.1920    0.0030 C   0  0  0  0  0  0  0  0  0  0  0  0
    1.5850   -2.5470   -0.0070 C   0  0  0  0  0  0  0  0  0  0  0  0
    2.9550   -2.6670   -0.0550 C   0  0  0  0  0  0  0  0  0  0  0  0
    3.5640   -1.4400   -0.0760 C   0  0  0  0  0  0  0  0  0  0  0  0
    2.5500   -0.4870   -0.0410 C   0  0  0  0  0  0  0  0  0  0  0  0
  1  2  1  0
  2  3  1  0
  2 20  1  0
  3  4  2  0
  4  5  1  0
  4 15  1  0
  5  6  2  0
  6  7  1  0
  6 13  1  0
  7  8  2  0
  7  9  1  0
  9 10  1  0
 10 11  1  0
 11 12  2  0
 11 13  1  0
 13 14  2  0
 14 15  1  0
 15 16  2  0
 16 17  1  0
 16 20  1  0
 17 18  2  0
 18 19  1  0
 19 20  2  0
M  END
