
     RDKit          3D

 20 22  0  0  0  0  0  0  0  0999 V2000
    3.1440    2.4610   -1.1470 C   0  0  0  0  0  0  0  0  0  0  0  0
    2.2810    1.4060   -0.6660 N   0  0  0  0  0  0  0  0  0  0  0  0
    0.9350    1.3170   -0.6750 C   0  0  0  0  0  0  0  0  0  0  0  0
    0.4900    0.1400   -0.1190 C   0  0  0  0  0  0  0  0  0  0  0  0
   -0.7830   -0.3900    0.1420 N   0  0  0  0  0  0  0  0  0  0  0  0
   -2.0310    0.0060   -0.3460 C   0  0  0  0  0  0  0  0  0  0  0  0
   -2.1260    0.6890   -1.5530 C   0  0  0  0  0  0  0  0  0  0  0  0
   -3.2750    1.0360   -2.1430 N   0  0  0  0  0  0  0  0  0  0  0  0
   -4.4140    0.7000   -1.5280 C   0  0  0  0  0  0  0  0  0  0  0  0
   -4.4270    0.0240   -0.3330 C   0  0  0  0  0  0  0  0  0  0  0  0
   -3.2150   -0.3330    0.2800 C   0  0  0  0  0  0  0  0  0  0  0  0
   -3.2710   -0.9970    1.5530 C   0  0  0  0  0  0  0  0  0  0  0  0
   -4.4210   -1.2780    2.0410 O   0  0  0  0  0  0  0  0  0  0  0  0
   -2.2130   -1.3720    2.3310 O   0  0  0  0  0  0  0  0  0  0  0  0
    1.6850   -0.5080    0.2440 C   0  0  0  0  0  0  0  0  0  0  0  0
    1.9450   -1.7250    0.8480 C   0  0  0  0  0  0  0  0  0  0  0  0
    3.2180   -2.1800    1.1200 C   0  0  0  0  0  0  0  0  0  0  0  0
    4.2570   -1.3460    0.7540 C   0  0  0  0  0  0  0  0  0  0  0  0
    4.0120   -0.1630    0.1680 N   0  0  0  0  0  0  0  0  0  0  0  0
    2.7470    0.2850   -0.1000 C   0  0  0  0  0  0  0  0  0  0  0  0
  1  2  1  0
  2  3  1  0
  2 20  1  0
  3  4  2  0
  4  5  1  0
  4 15  1  0
  5  6  1  0
  6  7  2  0
  6 11  1  0
  7  8  1  0
  8  9  2  0
  9 10  1  0
 10 11  2  0
 11 12  1  0
 12 13  2  0
 12 14  1  0
 15 16  2  0
 15 20  1  0
 16 17  1  0
 17 18  2  0
 18 19  1  0
 19 20  2  0
M  END
