
     RDKit          3D

 28 30  0  0  0  0  0  0  0  0999 V2000
   -3.1520    1.1740    1.1530 C   0  0  0  0  0  0  0  0  0  0  0  0
   -2.1980    1.9160    2.0460 C   0  0  0  0  0  0  0  0  0  0  0  0
   -2.7580    2.9480    2.7630 C   0  0  0  0  0  0  0  0  0  0  0  0
   -3.2760    3.9220    3.4610 N   0  0  0  0  0  0  0  0  0  0  0  0
   -0.9070    1.6460    2.1610 C   0  0  0  0  0  0  0  0  0  0  0  0
   -0.0160    0.7080    1.6000 C   0  0  0  0  0  0  0  0  0  0  0  0
    1.3110    0.8650    1.9740 C   0  0  0  0  0  0  0  0  0  0  0  0
    1.8010    1.8840    2.8800 C   0  0  0  0  0  0  0  0  0  0  0  0
    2.4290   -0.2400    1.0240 S   0  0  0  0  0  0  0  0  0  0  0  0
    1.6560   -0.0830   -0.6410 C   0  0  0  0  0  0  0  0  0  0  0  0
    2.4710    0.1920   -1.8120 C   0  0  2  0  0  0  0  0  0  0  0  0
    1.9440    1.3570   -2.6140 C   0  0  0  0  0  0  0  0  0  0  0  0
    2.7590    1.8900   -3.7020 C   0  0  0  0  0  0  0  0  0  0  0  0
    4.2060    1.4360   -3.7850 C   0  0  0  0  0  0  0  0  0  0  0  0
    4.2000    0.0810   -4.3720 N   0  0  0  0  0  0  0  0  0  0  0  0
    3.4610   -1.0250   -3.8170 C   0  0  0  0  0  0  0  0  0  0  0  0
    3.4910   -2.0980   -4.4820 O   0  0  0  0  0  0  0  0  0  0  0  0
    2.7210   -0.9960   -2.6030 N   0  0  0  0  0  0  0  0  0  0  0  0
    0.3630   -0.2310   -0.5630 N   0  0  0  0  0  0  0  0  0  0  0  0
   -0.1820   -0.4790    0.7700 C   0  0  2  0  0  0  0  0  0  0  0  0
   -1.3700   -1.2840    0.7680 C   0  0  0  0  0  0  0  0  0  0  0  0
   -2.0080   -1.5670   -0.2640 O   0  0  0  0  0  0  0  0  0  0  0  0
   -1.9160   -1.8370    1.9430 O   0  0  0  0  0  0  0  0  0  0  0  0
   -3.0350   -2.6190    2.0090 C   0  0  0  0  0  0  0  0  0  0  0  0
   -3.2390   -3.9070    1.5190 C   0  0  0  0  0  0  0  0  0  0  0  0
   -4.5200   -4.3160    1.8120 C   0  0  0  0  0  0  0  0  0  0  0  0
   -5.1190   -3.2990    2.4820 N   0  0  0  0  0  0  0  0  0  0  0  0
   -4.2290   -2.2900    2.5970 C   0  0  0  0  0  0  0  0  0  0  0  0
  1  2  1  0
  2  3  1  0
  2  5  2  3
  3  4  3  0
  5  6  1  0
  6  7  2  0
  6 20  1  0
  7  8  1  0
  7  9  1  0
  9 10  1  0
 11 10  1  1
 10 19  2  0
 11 12  1  0
 11 18  1  0
 12 13  1  0
 13 14  1  0
 14 15  1  0
 15 16  1  0
 16 17  2  0
 16 18  1  0
 19 20  1  0
 20 21  1  6
 21 22  2  0
 21 23  1  0
 23 24  1  0
 24 25  1  0
 24 28  2  0
 25 26  2  0
 26 27  1  0
 27 28  1  0
M  END
