
     RDKit          3D

 13 13  0  0  0  0  0  0  0  0999 V2000
    4.4330   -0.1630   -0.4750 C   0  0  0  0  0  0  0  0  0  0  0  0
    3.0390   -0.4620   -0.5450 N   0  0  0  0  0  0  0  0  0  0  0  0
    2.3060    0.1620    0.5420 C   0  0  0  0  0  0  0  0  0  0  0  0
    0.8720   -0.2350    0.4700 C   0  0  0  0  0  0  0  0  0  0  0  0
   -0.0870    0.6230    0.3300 C   0  0  0  0  0  0  0  0  0  0  0  0
   -1.5060    0.4000    0.2450 C   0  0  0  0  0  0  0  0  0  0  0  0
   -2.3430    1.5110    0.0920 C   0  0  0  0  0  0  0  0  0  0  0  0
   -3.7110    1.4270   -0.0000 C   0  0  0  0  0  0  0  0  0  0  0  0
   -4.7270    2.8450   -0.1910 Cl  0  0  0  0  0  0  0  0  0  0  0  0
   -4.3120    0.2130    0.0560 C   0  0  0  0  0  0  0  0  0  0  0  0
   -3.5360   -0.9080    0.2050 C   0  0  0  0  0  0  0  0  0  0  0  0
   -2.1480   -0.7990    0.2970 C   0  0  0  0  0  0  0  0  0  0  0  0
   -1.4260   -1.9450    0.4440 O   0  0  0  0  0  0  0  0  0  0  0  0
  1  2  1  0
  2  3  1  0
  3  4  1  0
  4  5  2  3
  5  6  1  0
  6  7  2  0
  6 12  1  0
  7  8  1  0
  8  9  1  0
  8 10  2  0
 10 11  1  0
 11 12  2  0
 12 13  1  0
M  CHG  1   2   1
M  END
