
     RDKit          3D

 20 21  0  0  0  0  0  0  0  0999 V2000
   -3.2200   -2.7300    0.6200 C   0  0  0  0  0  0  0  0  0  0  0  0
   -4.0510   -1.7110    0.4710 C   0  0  0  0  0  0  0  0  0  0  0  0
   -5.7510   -2.0710    0.7550 Cl  0  0  0  0  0  0  0  0  0  0  0  0
   -3.6040   -0.3840    0.1210 C   0  0  0  0  0  0  0  0  0  0  0  0
   -4.3930    0.6280   -0.0500 C   0  0  0  0  0  0  0  0  0  0  0  0
   -5.8540    0.6100    0.0780 C   0  0  0  0  0  0  0  0  0  0  0  0
   -2.1910   -0.1880   -0.0510 N   0  0  0  0  0  0  0  0  0  0  0  0
   -1.3340   -0.3130    1.0730 C   0  0  0  0  0  0  0  0  0  0  0  0
   -1.9020   -0.5890    2.1950 O   0  0  0  0  0  0  0  0  0  0  0  0
    0.1120   -0.1470    1.0120 C   0  0  0  0  0  0  0  0  0  0  0  0
    0.6490    0.1580   -0.2840 N   0  0  0  0  0  0  0  0  0  0  0  0
    2.0520    0.3290   -0.3860 C   0  0  0  0  0  0  0  0  0  0  0  0
    2.6260    0.6210   -1.5950 C   0  0  0  0  0  0  0  0  0  0  0  0
    4.0110    0.7920   -1.7110 C   0  0  0  0  0  0  0  0  0  0  0  0
    4.8080    0.6660   -0.5990 C   0  0  0  0  0  0  0  0  0  0  0  0
    4.2360    0.3730    0.6110 C   0  0  0  0  0  0  0  0  0  0  0  0
    2.8660    0.2070    0.7090 C   0  0  0  0  0  0  0  0  0  0  0  0
    5.2300    0.2930    1.5880 O   0  0  0  0  0  0  0  0  0  0  0  0
    6.3260    1.0310    1.0640 C   0  0  0  0  0  0  0  0  0  0  0  0
    6.1810    0.7640   -0.3390 O   0  0  0  0  0  0  0  0  0  0  0  0
  1  2  2  0
  2  3  1  0
  2  4  1  0
  4  5  2  3
  4  7  1  0
  5  6  1  0
  7  8  1  0
  8  9  2  0
  8 10  1  0
 10 11  1  0
 11 12  1  0
 12 13  2  0
 12 17  1  0
 13 14  1  0
 14 15  2  0
 15 16  1  0
 15 20  1  0
 16 17  2  0
 16 18  1  0
 18 19  1  0
 19 20  1  0
M  END
