
     RDKit          3D

 20 21  0  0  0  0  0  0  0  0999 V2000
    6.1010   -0.0710    0.7110 C   0  0  0  0  0  0  0  0  0  0  0  0
    4.7370    0.2940    0.6030 O   0  0  0  0  0  0  0  0  0  0  0  0
    3.8210   -0.7100    0.3240 C   0  0  0  0  0  0  0  0  0  0  0  0
    4.2100   -1.9110    0.1730 O   0  0  0  0  0  0  0  0  0  0  0  0
    2.3980   -0.3740    0.2030 C   0  0  0  0  0  0  0  0  0  0  0  0
    1.9720    0.8540    0.3540 C   0  0  0  0  0  0  0  0  0  0  0  0
    2.8720    1.9860    0.6520 C   0  0  0  0  0  0  0  0  0  0  0  0
    0.5270    1.0810    0.2180 C   0  0  0  0  0  0  0  0  0  0  0  0
   -0.0880    2.7300    0.4140 Cl  0  0  0  0  0  0  0  0  0  0  0  0
   -0.3490    0.1450   -0.0390 C   0  0  0  0  0  0  0  0  0  0  0  0
   -1.7930    0.5040   -0.1530 C   0  0  0  0  0  0  0  0  0  0  0  0
   -2.1530    1.6910   -0.0030 O   0  0  0  0  0  0  0  0  0  0  0  0
   -2.7610   -0.4880   -0.4300 N   0  0  0  0  0  0  0  0  0  0  0  0
   -4.1470   -0.2330   -0.5550 C   0  0  0  0  0  0  0  0  0  0  0  0
   -4.7980    0.9640   -0.4380 C   0  0  0  0  0  0  0  0  0  0  0  0
   -6.1640    0.7610   -0.6340 C   0  0  0  0  0  0  0  0  0  0  0  0
   -6.3350   -0.5520   -0.8680 N   0  0  0  0  0  0  0  0  0  0  0  0
   -5.1400   -1.1690   -0.8260 C   0  0  0  0  0  0  0  0  0  0  0  0
    0.0700   -1.2580   -0.2120 C   0  0  0  0  0  0  0  0  0  0  0  0
    1.5060   -1.5170   -0.1010 C   0  0  0  0  0  0  0  0  0  0  0  0
  1  2  1  0
  2  3  1  0
  3  4  2  0
  3  5  1  0
  5  6  2  0
  5 20  1  0
  6  7  1  0
  6  8  1  0
  8  9  1  0
  8 10  2  0
 10 11  1  0
 10 19  1  0
 11 12  2  0
 11 13  1  0
 13 14  1  0
 14 15  1  0
 14 18  2  0
 15 16  2  0
 16 17  1  0
 17 18  1  0
 19 20  1  0
M  END
