
     RDKit          3D

 20 21  0  0  0  0  0  0  0  0999 V2000
    5.6100    1.4780   -0.0980 C   0  0  0  0  0  0  0  0  0  0  0  0
    4.7330    0.4460    0.0360 C   0  0  0  0  0  0  0  0  0  0  0  0
    3.3570    0.7360   -0.2150 C   0  0  0  0  0  0  0  0  0  0  0  0
    2.2490    0.1080   -0.2090 C   0  0  0  0  0  0  0  0  0  0  0  0
    0.8540    1.2160   -0.6610 Cl  0  0  0  0  0  0  0  0  0  0  0  0
    1.8160   -1.2220    0.0560 C   0  0  0  0  0  0  0  0  0  0  0  0
    0.5680   -1.5840   -0.0210 N   0  0  0  0  0  0  0  0  0  0  0  0
   -0.5280   -0.8430   -0.3450 C   0  0  0  0  0  0  0  0  0  0  0  0
   -0.9590   -0.7700   -1.6810 C   0  0  0  0  0  0  0  0  0  0  0  0
   -2.0930   -0.0530   -1.9790 C   0  0  0  0  0  0  0  0  0  0  0  0
   -2.8320    0.6050   -1.0130 C   0  0  0  0  0  0  0  0  0  0  0  0
   -2.4280    0.5490    0.3090 C   0  0  0  0  0  0  0  0  0  0  0  0
   -1.3060   -0.1610    0.6070 C   0  0  0  0  0  0  0  0  0  0  0  0
   -3.1870    1.2190    1.2680 O   0  0  0  0  0  0  0  0  0  0  0  0
   -4.5770    1.4050    1.0700 C   0  0  0  0  0  0  0  0  0  0  0  0
   -4.9340    1.7170   -0.3510 C   0  0  0  0  0  0  0  0  0  0  0  0
   -3.9750    1.3320   -1.2870 O   0  0  0  0  0  0  0  0  0  0  0  0
    2.6660   -2.3590    0.4430 C   0  0  0  0  0  0  0  0  0  0  0  0
    2.0260   -3.6490    0.6710 N   0  0  0  0  0  0  0  0  0  0  0  0
    3.8750   -2.3700    0.6050 O   0  0  0  0  0  0  0  0  0  0  0  0
  1  2  2  0
  2  3  1  0
  3  4  2  3
  4  5  1  0
  4  6  1  0
  6  7  2  3
  6 18  1  0
  7  8  1  0
  8  9  2  0
  8 13  1  0
  9 10  1  0
 10 11  2  0
 11 12  1  0
 11 17  1  0
 12 13  2  0
 12 14  1  0
 14 15  1  0
 15 16  1  0
 16 17  1  0
 18 19  1  0
 18 20  2  0
M  END
