
     RDKit          3D

 20 21  0  0  0  0  0  0  0  0999 V2000
    0.1490    1.4220   -1.4320 O   0  0  0  0  0  0  0  0  0  0  0  0
   -0.0160    0.2780   -0.9540 C   0  0  0  0  0  0  0  0  0  0  0  0
    1.1290   -0.4770   -0.4510 C   0  0  0  0  0  0  0  0  0  0  0  0
    2.2940    0.2990   -0.6180 O   0  0  0  0  0  0  0  0  0  0  0  0
    3.5020   -0.2050   -0.2160 C   0  0  0  0  0  0  0  0  0  0  0  0
    3.5760   -1.4510    0.3430 C   0  0  0  0  0  0  0  0  0  0  0  0
    4.7940   -1.9640    0.7500 C   0  0  0  0  0  0  0  0  0  0  0  0
    5.9240   -1.2010    0.5840 C   0  0  0  0  0  0  0  0  0  0  0  0
    5.8570    0.0480    0.0250 C   0  0  0  0  0  0  0  0  0  0  0  0
    4.6400    0.5480   -0.3770 C   0  0  0  0  0  0  0  0  0  0  0  0
    4.6160    1.8160   -0.9370 O   0  0  0  0  0  0  0  0  0  0  0  0
   -1.3500   -0.2400   -0.9260 N   0  0  0  0  0  0  0  0  0  0  0  0
   -2.4440    0.4730   -1.4030 N   0  0  0  0  0  0  0  0  0  0  0  0
   -3.5200    0.5440   -0.7170 C   0  0  0  0  0  0  0  0  0  0  0  0
   -3.5750   -0.1320    0.5680 C   0  0  0  0  0  0  0  0  0  0  0  0
   -4.6870   -0.0620    1.2850 C   0  0  0  0  0  0  0  0  0  0  0  0
   -4.7790   -0.8710    2.8400 Cl  0  0  0  0  0  0  0  0  0  0  0  0
   -5.8450    0.6810    0.8020 C   0  0  0  0  0  0  0  0  0  0  0  0
   -5.8280    1.2990   -0.3470 C   0  0  0  0  0  0  0  0  0  0  0  0
   -4.6600    1.3180   -1.2710 C   0  0  0  0  0  0  0  0  0  0  0  0
  1  2  2  0
  2  3  1  0
  2 12  1  0
  3  4  1  0
  4  5  1  0
  5  6  2  0
  5 10  1  0
  6  7  1  0
  7  8  2  0
  8  9  1  0
  9 10  2  0
 10 11  1  0
 12 13  1  0
 13 14  2  3
 14 15  1  0
 14 20  1  0
 15 16  2  0
 16 17  1  0
 16 18  1  0
 18 19  2  0
 19 20  1  0
M  END
