
     RDKit          3D

 13 13  0  0  0  0  0  0  0  0999 V2000
    3.0390   -1.4570   -1.0450 C   0  0  0  0  0  0  0  0  0  0  0  0
    2.5430   -1.1620    0.2320 O   0  0  0  0  0  0  0  0  0  0  0  0
    1.4120   -0.3610    0.3170 C   0  0  0  0  0  0  0  0  0  0  0  0
    1.5710    0.9380    0.5570 C   0  0  0  0  0  0  0  0  0  0  0  0
    3.2830    1.3740    0.7240 Cl  0  0  0  0  0  0  0  0  0  0  0  0
    0.6320    2.0330    0.7040 C   0  0  1  0  0  0  0  0  0  0  0  0
    1.3140    3.2320    0.4680 O   0  0  0  0  0  0  0  0  0  0  0  0
   -0.5840    2.0230   -0.1300 C   0  0  0  0  0  0  0  0  0  0  0  0
   -1.3190    0.8520   -0.2130 O   0  0  0  0  0  0  0  0  0  0  0  0
   -1.0920   -0.4970   -0.0990 C   0  0  0  0  0  0  0  0  0  0  0  0
   -2.2460   -1.4350   -0.2400 C   0  0  0  0  0  0  0  0  0  0  0  0
   -3.2680   -1.2060    0.7350 N   0  0  0  0  0  0  0  0  0  0  0  0
    0.1080   -1.0090    0.1330 C   0  0  0  0  0  0  0  0  0  0  0  0
  1  2  1  0
  2  3  1  0
  3  4  2  0
  3 13  1  0
  4  5  1  0
  4  6  1  0
  6  7  1  6
  6  8  1  0
  8  9  1  0
  9 10  1  0
 10 11  1  0
 10 13  2  0
 11 12  1  0
M  CHG  1  12   1
M  END
