
     RDKit          3D

 13 13  0  0  0  0  0  0  0  0999 V2000
    4.0720    0.8060   -0.0260 C   0  0  0  0  0  0  0  0  0  0  0  0
    3.3200   -0.1610    0.6200 O   0  0  0  0  0  0  0  0  0  0  0  0
    2.1870   -0.4810   -0.1240 C   0  0  0  0  0  0  0  0  0  0  0  0
    1.3670   -1.5420    0.5910 C   0  0  0  0  0  0  0  0  0  0  0  0
    0.2140   -1.8870   -0.1370 O   0  0  0  0  0  0  0  0  0  0  0  0
   -0.7430   -0.8950   -0.4310 C   0  0  0  0  0  0  0  0  0  0  0  0
   -0.8310   -0.2490   -1.5730 C   0  0  0  0  0  0  0  0  0  0  0  0
    0.2460   -0.5120   -2.9630 Cl  0  0  0  0  0  0  0  0  0  0  0  0
   -1.9490    0.6940   -1.4840 C   0  0  0  0  0  0  0  0  0  0  0  0
   -2.5040    0.5160   -0.1360 C   0  0  0  0  0  0  0  0  0  0  0  0
   -3.6180    1.2060    0.4580 N   0  0  0  0  0  0  0  0  0  0  0  0
   -1.7860   -0.4130    0.4570 C   0  0  0  0  0  0  0  0  0  0  0  0
   -2.0280   -0.8520    1.7710 O   0  0  0  0  0  0  0  0  0  0  0  0
  1  2  1  0
  2  3  1  0
  3  4  1  0
  4  5  1  0
  5  6  1  0
  6  7  2  0
  6 12  1  0
  7  8  1  0
  7  9  1  0
  9 10  1  0
 10 11  1  0
 10 12  2  0
 12 13  1  0
M  CHG  1  11   1
M  END
