
     RDKit          3D

 13 12  0  0  0  0  0  0  0  0999 V2000
   -3.1640   -1.8570    0.8280 C   0  0  0  0  0  0  0  0  0  0  0  0
   -1.9480   -2.1080    0.1660 O   0  0  0  0  0  0  0  0  0  0  0  0
   -0.7070   -1.6600    0.5690 C   0  0  0  0  0  0  0  0  0  0  0  0
   -0.0150   -2.3440    1.4230 C   0  0  0  0  0  0  0  0  0  0  0  0
    1.5490   -1.9800    2.0660 Cl  0  0  0  0  0  0  0  0  0  0  0  0
   -0.2090   -0.4090    0.0100 C   0  0  0  0  0  0  0  0  0  0  0  0
   -1.0830    0.1810   -0.8840 C   0  0  0  0  0  0  0  0  0  0  0  0
   -0.6860    1.4440   -1.5090 C   0  0  0  0  0  0  0  0  0  0  0  0
   -1.6890    2.4500   -1.1390 N   0  0  0  0  0  0  0  0  0  0  0  0
    0.9160    0.1390    0.2810 O   0  0  0  0  0  0  0  0  0  0  0  0
    2.0450    0.6880    0.5530 C   0  0  0  0  0  0  0  0  0  0  0  0
    3.2960    0.1280   -0.1460 C   0  0  0  0  0  0  0  0  0  0  0  0
    4.4410    0.8120    0.2400 O   0  0  0  0  0  0  0  0  0  0  0  0
  1  2  1  0
  2  3  1  0
  3  4  2  3
  3  6  1  0
  4  5  1  0
  6  7  2  3
  6 10  1  0
  7  8  1  0
  8  9  1  0
 10 11  1  0
 11 12  1  0
 12 13  1  0
M  CHG  1   9   1
M  END
