
     RDKit          3D

 13 13  0  0  0  0  0  0  0  0999 V2000
    3.8160   -0.9790    0.2690 C   0  0  0  0  0  0  0  0  0  0  0  0
    3.0350   -0.0350    0.9700 O   0  0  0  0  0  0  0  0  0  0  0  0
    1.7370    0.3040    0.5980 C   0  0  0  0  0  0  0  0  0  0  0  0
    0.6300   -0.4130    0.7390 C   0  0  0  0  0  0  0  0  0  0  0  0
   -0.5120    0.3130    0.2160 C   0  0  0  0  0  0  0  0  0  0  0  0
   -1.8910   -0.2010    0.2190 C   0  0  1  0  0  0  0  0  0  0  0  0
   -2.8420    0.7140   -0.3580 N   0  0  0  0  0  0  0  0  0  0  0  0
   -2.0190   -1.4880   -0.5660 C   0  0  0  0  0  0  0  0  0  0  0  0
   -1.1700   -2.4750   -0.1360 O   0  0  0  0  0  0  0  0  0  0  0  0
   -0.0930    1.4750   -0.2430 C   0  0  0  0  0  0  0  0  0  0  0  0
   -1.0280    2.7530   -0.9820 Cl  0  0  0  0  0  0  0  0  0  0  0  0
    1.3750    1.5710   -0.0400 C   0  0  1  0  0  0  0  0  0  0  0  0
    1.6040    2.6790    0.7840 O   0  0  0  0  0  0  0  0  0  0  0  0
  1  2  1  0
  2  3  1  0
  3  4  2  0
  3 12  1  0
  4  5  1  0
  5  6  1  0
  5 10  2  0
  6  7  1  6
  6  8  1  0
  8  9  1  0
 10 11  1  0
 10 12  1  0
 12 13  1  1
M  CHG  1   7   1
M  END
