
     RDKit          3D

 25 27  0  0  0  0  0  0  0  0999 V2000
   -5.9460    0.8720   -0.2440 C   0  0  0  0  0  0  0  0  0  0  0  0
   -4.7260    0.4600   -0.5990 C   0  0  0  0  0  0  0  0  0  0  0  0
   -4.0440   -0.2130    0.4880 C   0  0  0  0  0  0  0  0  0  0  0  0
   -2.7920   -0.3640    0.8860 C   0  0  0  0  0  0  0  0  0  0  0  0
   -2.6620   -1.1850    2.1120 C   0  0  0  0  0  0  0  0  0  0  0  0
   -3.9540   -1.5690    2.5080 O   0  0  0  0  0  0  0  0  0  0  0  0
   -1.5060    0.1450    0.3530 C   0  0  0  0  0  0  0  0  0  0  0  0
   -0.5300    0.2030    1.3590 N   0  0  0  0  0  0  0  0  0  0  0  0
    0.5230   -0.7590    1.5120 C   0  0  0  0  0  0  0  0  0  0  0  0
    1.5970   -0.7270    0.4540 C   0  0  1  0  0  0  0  0  0  0  0  0
    2.3060    0.5870    0.4110 C   0  0  0  0  0  0  0  0  0  0  0  0
    3.5460    0.6360   -0.1350 C   0  0  0  0  0  0  0  0  0  0  0  0
    4.2740    1.8680   -0.1990 C   0  0  0  0  0  0  0  0  0  0  0  0
    5.5050    1.8680   -0.6680 C   0  0  0  0  0  0  0  0  0  0  0  0
    6.1300    0.6440   -1.1300 C   0  0  0  0  0  0  0  0  0  0  0  0
    5.4740   -0.4930   -1.1040 C   0  0  0  0  0  0  0  0  0  0  0  0
    4.1100   -0.6350   -0.6390 C   0  0  1  0  0  0  0  0  0  0  0  0
    3.9460   -1.6060    0.4300 N   0  0  0  0  0  0  0  0  0  0  0  0
    2.5910   -1.7900    0.8680 C   0  0  0  0  0  0  0  0  0  0  0  0
    2.2690   -2.7730    1.5480 O   0  0  0  0  0  0  0  0  0  0  0  0
   -1.1790    0.5360   -0.8680 C   0  0  0  0  0  0  0  0  0  0  0  0
   -1.8660    0.6360   -2.1370 C   0  0  0  0  0  0  0  0  0  0  0  0
   -3.1210    0.7390   -2.5020 C   0  0  0  0  0  0  0  0  0  0  0  0
   -4.4670    0.8110   -1.9730 C   0  0  2  0  0  0  0  0  0  0  0  0
   -4.8990    2.1420   -2.1390 F   0  0  0  0  0  0  0  0  0  0  0  0
  1  2  2  0
  2  3  1  0
  2 24  1  0
  3  4  2  0
  4  5  1  0
  4  7  1  0
  5  6  1  0
  7  8  1  0
  7 21  2  0
  8  9  1  0
 10  9  1  1
 10 11  1  0
 10 19  1  0
 11 12  2  0
 12 13  1  0
 12 17  1  0
 13 14  2  0
 14 15  1  0
 15 16  2  0
 16 17  1  0
 17 18  1  1
 18 19  1  0
 19 20  2  0
 21 22  1  0
 22 23  2  0
 23 24  1  0
 24 25  1  1
M  END
