
     RDKit          3D

 25 27  0  0  0  0  0  0  0  0999 V2000
    7.6050   -0.7600   -0.4830 C   0  0  0  0  0  0  0  0  0  0  0  0
    6.3330   -1.4860   -0.5220 C   0  0  0  0  0  0  0  0  0  0  0  0
    5.1870   -0.8230   -0.2380 C   0  0  0  0  0  0  0  0  0  0  0  0
    3.9610   -1.5550   -0.2840 C   0  0  0  0  0  0  0  0  0  0  0  0
    4.1710   -2.9190   -0.6370 F   0  0  0  0  0  0  0  0  0  0  0  0
    2.7410   -1.2650   -0.0820 C   0  0  0  0  0  0  0  0  0  0  0  0
    2.0130   -0.0680    0.2860 C   0  0  0  0  0  0  0  0  0  0  0  0
    0.6660   -0.1730    0.4050 C   0  0  0  0  0  0  0  0  0  0  0  0
   -0.1390    0.9840    0.7720 C   0  0  0  0  0  0  0  0  0  0  0  0
   -1.4610    0.8620    0.8870 C   0  0  0  0  0  0  0  0  0  0  0  0
   -2.4050    1.8960    1.2390 C   0  0  0  0  0  0  0  0  0  0  0  0
   -2.2840    3.1420    1.2580 O   0  0  0  0  0  0  0  0  0  0  0  0
   -3.6370    1.2440    1.6030 N   0  0  0  0  0  0  0  0  0  0  0  0
   -4.8540    1.9300    2.0160 C   0  0  0  0  0  0  0  0  0  0  0  0
   -3.5140   -0.1920    1.5070 C   0  0  0  0  0  0  0  0  0  0  0  0
   -2.2540   -0.3660    0.6830 C   0  0  1  0  0  0  0  0  0  0  0  0
   -2.6560   -0.5390   -0.7330 C   0  0  0  0  0  0  0  0  0  0  0  0
   -2.3940    0.2400   -1.7550 C   0  0  0  0  0  0  0  0  0  0  0  0
   -2.9730   -0.2770   -3.0090 C   0  0  0  0  0  0  0  0  0  0  0  0
   -3.6430   -1.5360   -2.5350 C   0  0  0  0  0  0  0  0  0  0  0  0
   -3.4410   -1.6540   -1.2270 C   0  0  0  0  0  0  0  0  0  0  0  0
   -3.9600   -2.7480   -0.5120 O   0  0  0  0  0  0  0  0  0  0  0  0
    0.5380    2.2130    0.9980 N   0  0  0  0  0  0  0  0  0  0  0  0
    1.9420    2.3320    0.8760 C   0  0  0  0  0  0  0  0  0  0  0  0
    2.6260    1.2220    0.5330 C   0  0  0  0  0  0  0  0  0  0  0  0
  1  2  1  0
  2  3  2  3
  3  4  1  0
  4  5  1  0
  4  6  2  3
  6  7  1  0
  7  8  2  0
  7 25  1  0
  8  9  1  0
  9 10  2  3
  9 23  1  0
 10 11  1  0
 10 16  1  0
 11 12  2  0
 11 13  1  0
 13 14  1  0
 13 15  1  0
 15 16  1  0
 16 17  1  6
 17 18  2  0
 17 21  1  0
 18 19  1  0
 19 20  1  0
 20 21  2  0
 21 22  1  0
 23 24  1  0
 24 25  2  0
M  END
