
     RDKit          3D

 25 27  0  0  0  0  0  0  0  0999 V2000
    1.1070   -3.3070    1.5050 C   0  0  0  0  0  0  0  0  0  0  0  0
    1.4020   -2.0050    0.8720 C   0  0  0  0  0  0  0  0  0  0  0  0
    0.4100   -1.3190    0.3440 C   0  0  0  0  0  0  0  0  0  0  0  0
   -0.9590   -1.7760    0.3560 C   0  0  0  0  0  0  0  0  0  0  0  0
   -1.3120   -2.8550    0.8630 O   0  0  0  0  0  0  0  0  0  0  0  0
   -1.9520   -0.9220   -0.2560 N   0  0  0  0  0  0  0  0  0  0  0  0
   -3.2660   -1.5350   -0.1610 C   0  0  0  0  0  0  0  0  0  0  0  0
   -3.9910   -1.4190   -1.4650 C   0  0  0  0  0  0  0  0  0  0  0  0
   -4.8140   -0.1990   -1.6700 C   0  0  0  0  0  0  0  0  0  0  0  0
   -4.8380    0.7990   -0.5560 C   0  0  0  0  0  0  0  0  0  0  0  0
   -3.5240    1.4360   -0.3110 C   0  0  2  0  0  0  0  0  0  0  0  0
   -3.6790    2.9400   -0.0380 C   0  0  0  0  0  0  0  0  0  0  0  0
   -2.4820    1.1930   -1.3540 C   0  0  0  0  0  0  0  0  0  0  0  0
   -1.3930    0.2760   -0.7860 C   0  0  0  0  0  0  0  0  0  0  0  0
    2.7790   -1.4950    0.9060 C   0  0  0  0  0  0  0  0  0  0  0  0
    3.8430   -2.0890    1.3520 C   0  0  0  0  0  0  0  0  0  0  0  0
    3.9570   -3.3170    1.9020 F   0  0  0  0  0  0  0  0  0  0  0  0
    5.0520   -1.2210    1.1120 C   0  0  0  0  0  0  0  0  0  0  0  0
    4.5370   -0.2690    0.0170 C   0  0  2  0  0  0  0  0  0  0  0  0
    5.2490    1.0220    0.1790 C   0  0  0  0  0  0  0  0  0  0  0  0
    4.5650    2.1380   -0.4020 N   0  0  0  0  0  0  0  0  0  0  0  0
    3.2200    2.2880    0.0170 C   0  0  2  0  0  0  0  0  0  0  0  0
    3.1990    3.2120    1.0860 O   0  0  0  0  0  0  0  0  0  0  0  0
    2.5720    1.0610    0.5440 C   0  0  0  0  0  0  0  0  0  0  0  0
    3.1220   -0.1030    0.4980 C   0  0  0  0  0  0  0  0  0  0  0  0
  1  2  1  0
  2  3  2  3
  2 15  1  0
  3  4  1  0
  4  5  2  0
  4  6  1  0
  6  7  1  0
  6 14  1  0
  7  8  1  0
  8  9  1  0
  9 10  1  0
 10 11  1  0
 11 12  1  6
 11 13  1  0
 13 14  1  0
 15 16  2  0
 15 25  1  0
 16 17  1  0
 16 18  1  0
 19 18  1  1
 19 20  1  0
 19 25  1  0
 20 21  1  0
 21 22  1  0
 22 23  1  1
 22 24  1  0
 24 25  2  0
M  END
