
     RDKit          3D

 35 38  0  0  0  0  0  0  0  0999 V2000
   -3.3390   -0.2740   -0.0590 C   0  0  0  0  0  0  0  0  0  0  0  0
   -2.2110    0.1960   -0.9150 C   0  0  1  0  0  0  0  0  0  0  0  0
   -2.2800    1.6230   -1.2660 C   0  0  0  0  0  0  0  0  0  0  0  0
   -3.4280    2.1280   -2.0390 C   0  0  0  0  0  0  0  0  0  0  0  0
   -4.7750    1.9710   -1.4360 C   0  0  0  0  0  0  0  0  0  0  0  0
   -5.6620    0.9820   -1.6060 N   0  0  0  0  0  0  0  0  0  0  0  0
   -6.7620    1.1950   -0.8970 C   0  0  0  0  0  0  0  0  0  0  0  0
   -6.5640    2.3870   -0.2390 C   0  0  0  0  0  0  0  0  0  0  0  0
   -5.3560    2.8520   -0.5700 N   0  0  0  0  0  0  0  0  0  0  0  0
   -0.8840   -0.0970   -0.2460 C   0  0  0  0  0  0  0  0  0  0  0  0
   -0.2060    0.8950    0.0100 O   0  0  0  0  0  0  0  0  0  0  0  0
   -0.5490   -1.5010    0.0240 C   0  0  0  0  0  0  0  0  0  0  0  0
    0.5210   -1.9870    0.5330 C   0  0  0  0  0  0  0  0  0  0  0  0
    1.6670   -1.1260    0.9320 C   0  0  0  0  0  0  0  0  0  0  0  0
    2.1370   -0.2450    0.0980 C   0  0  0  0  0  0  0  0  0  0  0  0
    3.2150    0.6830    0.2880 C   0  0  0  0  0  0  0  0  0  0  0  0
    3.8990    0.7430    1.4360 F   0  0  0  0  0  0  0  0  0  0  0  0
    3.5570    1.5100   -0.6810 C   0  0  0  0  0  0  0  0  0  0  0  0
    2.8750    1.4780   -1.8800 F   0  0  0  0  0  0  0  0  0  0  0  0
    4.6090    2.5080   -0.6060 C   0  0  0  0  0  0  0  0  0  0  0  0
    4.7720    3.2050    0.5730 C   0  0  0  0  0  0  0  0  0  0  0  0
    5.7310    4.1460    0.6870 N   0  0  0  0  0  0  0  0  0  0  0  0
    6.5450    4.4310   -0.3260 C   0  0  0  0  0  0  0  0  0  0  0  0
    6.3770    3.7300   -1.5000 C   0  0  0  0  0  0  0  0  0  0  0  0
    5.4210    2.7850   -1.6290 N   0  0  0  0  0  0  0  0  0  0  0  0
    2.2850   -1.4930    2.2090 C   0  0  0  0  0  0  0  0  0  0  0  0
    2.6930   -2.9090    2.0250 O   0  0  0  0  0  0  0  0  0  0  0  0
    1.6910   -3.8090    1.6760 C   0  0  0  0  0  0  0  0  0  0  0  0
    1.8060   -5.1490    2.0800 C   0  0  0  0  0  0  0  0  0  0  0  0
    0.8590   -6.0900    1.7730 C   0  0  0  0  0  0  0  0  0  0  0  0
   -0.2300   -5.6770    1.0420 C   0  0  0  0  0  0  0  0  0  0  0  0
   -1.1660   -6.6030    0.7380 F   0  0  0  0  0  0  0  0  0  0  0  0
   -0.3570   -4.3470    0.6330 C   0  0  0  0  0  0  0  0  0  0  0  0
   -1.7620   -3.9790   -0.3070 Cl  0  0  0  0  0  0  0  0  0  0  0  0
    0.5920   -3.4150    0.9460 C   0  0  0  0  0  0  0  0  0  0  0  0
  2  1  1  1
  2  3  1  0
  2 10  1  0
  3  4  1  0
  4  5  1  0
  5  6  2  0
  5  9  1  0
  6  7  1  0
  7  8  2  0
  8  9  1  0
 10 11  2  0
 10 12  1  0
 12 13  2  3
 13 14  1  0
 13 35  1  0
 14 15  2  3
 14 26  1  0
 15 16  1  0
 16 17  1  0
 16 18  2  3
 18 19  1  0
 18 20  1  0
 20 21  2  0
 20 25  1  0
 21 22  1  0
 22 23  2  0
 23 24  1  0
 24 25  2  0
 26 27  1  0
 27 28  1  0
 28 29  2  0
 28 35  1  0
 29 30  1  0
 30 31  2  0
 31 32  1  0
 31 33  1  0
 33 34  1  0
 33 35  2  0
M  END
