
     RDKit          3D

 34 37  0  0  0  0  0  0  0  0999 V2000
   -8.4140   -0.8520   -1.7560 N   0  0  0  0  0  0  0  0  0  0  0  0
   -8.2780    0.3360   -1.2630 C   0  0  0  0  0  0  0  0  0  0  0  0
   -7.2020    1.2470   -1.7420 C   0  0  0  0  0  0  0  0  0  0  0  0
   -6.0290    0.9980   -0.9290 N   0  0  0  0  0  0  0  0  0  0  0  0
   -6.0410    1.7590    0.3060 C   0  0  0  0  0  0  0  0  0  0  0  0
   -4.7660    1.4960    1.0120 C   0  0  0  0  0  0  0  0  0  0  0  0
   -4.5160    2.0430    2.1300 O   0  0  0  0  0  0  0  0  0  0  0  0
   -3.7650    0.6310    0.4880 N   0  0  0  0  0  0  0  0  0  0  0  0
   -2.5070    0.3790    1.1970 C   0  0  1  0  0  0  0  0  0  0  0  0
   -2.3580   -1.0710    1.5490 C   0  0  0  0  0  0  0  0  0  0  0  0
   -0.9570   -1.5200    1.7610 C   0  0  1  0  0  0  0  0  0  0  0  0
   -0.5320   -2.5340    0.7280 C   0  0  0  0  0  0  0  0  0  0  0  0
   -1.2310   -3.7530    0.5710 N   0  0  0  0  0  0  0  0  0  0  0  0
    0.4540   -2.3390   -0.0300 O   0  0  0  0  0  0  0  0  0  0  0  0
   -0.0590   -0.4320    1.6560 O   0  0  0  0  0  0  0  0  0  0  0  0
   -0.1770    0.4310    0.5770 C   0  0  0  0  0  0  0  0  0  0  0  0
   -1.4160    0.8720    0.3050 C   0  0  0  0  0  0  0  0  0  0  0  0
   -1.3750    1.7610   -0.8430 C   0  0  0  0  0  0  0  0  0  0  0  0
   -2.4040    2.3340   -1.3330 O   0  0  0  0  0  0  0  0  0  0  0  0
   -0.0390    1.8590   -1.2850 N   0  0  0  0  0  0  0  0  0  0  0  0
    0.7230    1.0350   -0.4090 C   0  0  0  0  0  0  0  0  0  0  0  0
    2.0390    0.8550   -0.4860 C   0  0  0  0  0  0  0  0  0  0  0  0
    2.7210    0.0120    0.4370 C   0  0  0  0  0  0  0  0  0  0  0  0
    4.0390   -0.2090    0.4130 C   0  0  0  0  0  0  0  0  0  0  0  0
    4.6360   -1.0800    1.3920 N   0  0  0  0  0  0  0  0  0  0  0  0
    6.0290   -1.3350    1.3930 C   0  0  0  0  0  0  0  0  0  0  0  0
    6.5390   -2.1020    2.2590 O   0  0  0  0  0  0  0  0  0  0  0  0
    6.8430   -0.6800    0.3610 C   0  0  0  0  0  0  0  0  0  0  0  0
    6.3170    0.1080   -0.5280 C   0  0  0  0  0  0  0  0  0  0  0  0
    7.3640    0.6480   -1.4680 C   0  0  0  0  0  0  0  0  0  0  0  0
    8.6370    0.3340   -0.7550 C   0  0  0  0  0  0  0  0  0  0  0  0
    8.3180   -0.8130    0.1870 C   0  0  2  0  0  0  0  0  0  0  0  0
    8.6750   -2.0260   -0.3440 F   0  0  0  0  0  0  0  0  0  0  0  0
    4.9030    0.3730   -0.5370 N   0  0  0  0  0  0  0  0  0  0  0  0
  1  2  2  0
  2  3  1  0
  3  4  1  0
  4  5  1  0
  5  6  1  0
  6  7  2  0
  6  8  1  0
  9  8  1  6
  9 10  1  0
  9 17  1  0
 10 11  1  0
 11 12  1  6
 11 15  1  0
 12 13  1  0
 12 14  2  0
 15 16  1  0
 16 17  2  0
 16 21  1  0
 17 18  1  0
 18 19  2  0
 18 20  1  0
 20 21  1  0
 21 22  2  3
 22 23  1  0
 23 24  2  3
 24 25  1  0
 24 34  1  0
 25 26  1  0
 26 27  2  0
 26 28  1  0
 28 29  2  0
 28 32  1  0
 29 30  1  0
 29 34  1  0
 30 31  1  0
 31 32  1  0
 32 33  1  6
M  CHG  1   4   1
M  END
