
     RDKit          3D

 35 38  0  0  0  0  0  0  0  0999 V2000
    0.0370   -2.0220    0.0540 O   0  0  0  0  0  0  0  0  0  0  0  0
    0.9180   -1.1380   -0.0150 C   0  0  0  0  0  0  0  0  0  0  0  0
    2.2920   -1.6420    0.1730 C   0  0  0  0  0  0  0  0  0  0  0  0
    3.3460   -0.8110   -0.1200 O   0  0  0  0  0  0  0  0  0  0  0  0
    4.6840   -1.1580    0.0380 C   0  0  0  0  0  0  0  0  0  0  0  0
    5.6990   -0.2850   -0.2860 C   0  0  0  0  0  0  0  0  0  0  0  0
    7.0310   -0.6680   -0.1110 C   0  0  0  0  0  0  0  0  0  0  0  0
    7.3680   -1.9000    0.3790 C   0  0  0  0  0  0  0  0  0  0  0  0
    9.0640   -2.3090    0.5730 Cl  0  0  0  0  0  0  0  0  0  0  0  0
    6.3550   -2.7620    0.6990 C   0  0  0  0  0  0  0  0  0  0  0  0
    5.0290   -2.3950    0.5310 C   0  0  0  0  0  0  0  0  0  0  0  0
    0.5700    0.1970   -0.2510 N   0  0  0  0  0  0  0  0  0  0  0  0
    1.6920    1.1400   -0.1900 C   0  0  0  0  0  0  0  0  0  0  0  0
    1.3080    2.5750    0.0210 C   0  0  0  0  0  0  0  0  0  0  0  0
   -0.0440    2.7390    0.4030 N   0  0  0  0  0  0  0  0  0  0  0  0
   -0.4350    3.8950    1.0940 C   0  0  0  0  0  0  0  0  0  0  0  0
   -0.1530    5.1070    0.2610 C   0  0  0  0  0  0  0  0  0  0  0  0
   -1.0270    5.5840   -0.6910 C   0  0  0  0  0  0  0  0  0  0  0  0
   -0.4830    6.7030   -1.2720 C   0  0  0  0  0  0  0  0  0  0  0  0
    0.7330    6.8890   -0.6510 C   0  0  0  0  0  0  0  0  0  0  0  0
    0.9050    5.9210    0.2600 N   0  0  0  0  0  0  0  0  0  0  0  0
   -0.9680    2.1320   -0.4920 C   0  0  0  0  0  0  0  0  0  0  0  0
   -0.7660    0.6100   -0.5570 C   0  0  2  0  0  0  0  0  0  0  0  0
   -1.8890    0.0070    0.1290 C   0  0  0  0  0  0  0  0  0  0  0  0
   -2.2860   -1.3340    0.0520 N   0  0  0  0  0  0  0  0  0  0  0  0
   -3.2800   -1.5730    1.1000 C   0  0  0  0  0  0  0  0  0  0  0  0
   -3.2770   -3.1010    1.2600 C   0  0  0  0  0  0  0  0  0  0  0  0
   -4.0030   -3.5750    0.0550 C   0  0  0  0  0  0  0  0  0  0  0  0
   -4.7080   -4.6790    0.1160 C   0  0  0  0  0  0  0  0  0  0  0  0
   -4.8010   -5.4260    1.2730 F   0  0  0  0  0  0  0  0  0  0  0  0
   -5.4910   -5.2450   -1.0230 C   0  0  2  0  0  0  0  0  0  0  0  0
   -6.8420   -5.2640   -0.6430 F   0  0  0  0  0  0  0  0  0  0  0  0
   -5.1460   -6.5680   -1.1860 F   0  0  0  0  0  0  0  0  0  0  0  0
   -3.9130   -2.7850   -1.1600 C   0  0  0  0  0  0  0  0  0  0  0  0
   -2.7990   -1.7740   -1.2180 C   0  0  0  0  0  0  0  0  0  0  0  0
  1  2  2  0
  2  3  1  0
  2 12  1  0
  3  4  1  0
  4  5  1  0
  5  6  2  0
  5 11  1  0
  6  7  1  0
  7  8  2  0
  8  9  1  0
  8 10  1  0
 10 11  2  0
 12 13  1  0
 12 23  1  0
 13 14  1  0
 14 15  1  0
 15 16  1  0
 15 22  1  0
 16 17  1  0
 17 18  2  0
 17 21  1  0
 18 19  1  0
 19 20  2  0
 20 21  1  0
 22 23  1  0
 23 24  1  1
 24 25  1  0
 25 26  1  0
 25 35  1  0
 26 27  1  0
 27 28  1  0
 28 29  2  3
 28 34  1  0
 29 30  1  0
 29 31  1  0
 31 32  1  1
 31 33  1  0
 34 35  1  0
M  END
