
     RDKit          3D

 25 27  0  0  0  0  0  0  0  0999 V2000
    0.3220    0.8830    0.1580 O   0  0  0  0  0  0  0  0  0  0  0  0
    1.3610    0.2100    0.5100 C   0  0  0  0  0  0  0  0  0  0  0  0
    1.2140   -1.1790    0.4600 N   0  0  0  0  0  0  0  0  0  0  0  0
   -0.0230   -1.7970    0.0360 C   0  0  0  0  0  0  0  0  0  0  0  0
   -0.4250   -1.4590   -1.3740 C   0  0  0  0  0  0  0  0  0  0  0  0
   -1.9620   -2.3010   -1.7430 S   0  0  2  0  0  0  0  0  0  0  0  0
   -1.7290   -3.7760   -1.6690 O   0  0  0  0  0  0  0  0  0  0  0  0
   -2.3730   -1.8980   -3.1320 O   0  0  0  0  0  0  0  0  0  0  0  0
   -3.2040   -1.8000   -0.6560 N   0  0  0  0  0  0  0  0  0  0  0  0
   -3.6560   -0.4600   -0.5730 C   0  0  0  0  0  0  0  0  0  0  0  0
   -3.3090    0.4980   -1.5000 C   0  0  0  0  0  0  0  0  0  0  0  0
   -3.7840    1.7920   -1.3750 C   0  0  0  0  0  0  0  0  0  0  0  0
   -4.6030    2.1330   -0.3290 C   0  0  0  0  0  0  0  0  0  0  0  0
   -4.9660    1.1860    0.6170 C   0  0  0  0  0  0  0  0  0  0  0  0
   -4.4800   -0.0930    0.4680 C   0  0  0  0  0  0  0  0  0  0  0  0
   -5.0020   -1.3840    1.7970 Br  0  0  0  0  0  0  0  0  0  0  0  0
    2.5200    0.9730    0.9030 C   0  0  0  0  0  0  0  0  0  0  0  0
    2.5500    2.7780    0.9140 S   0  0  0  0  0  0  0  0  0  0  0  0
    4.1510    2.9840    1.4570 C   0  0  0  0  0  0  0  0  0  0  0  0
    5.1000    4.5080    1.7790 Cl  0  0  0  0  0  0  0  0  0  0  0  0
    4.6460    1.6510    1.6250 C   0  0  0  0  0  0  0  0  0  0  0  0
    5.8380    1.0690    2.0290 C   0  0  0  0  0  0  0  0  0  0  0  0
    5.7000   -0.2980    1.9820 C   0  0  0  0  0  0  0  0  0  0  0  0
    4.4450   -0.5180    1.5560 N   0  0  0  0  0  0  0  0  0  0  0  0
    3.7880    0.6850    1.3330 C   0  0  0  0  0  0  0  0  0  0  0  0
  1  2  2  0
  2  3  1  0
  2 17  1  0
  3  4  1  0
  4  5  1  0
  6  5  1  1
  6  7  2  0
  6  8  2  0
  6  9  1  0
  9 10  1  0
 10 11  2  0
 10 15  1  0
 11 12  1  0
 12 13  2  0
 13 14  1  0
 14 15  2  0
 15 16  1  0
 17 18  1  0
 17 25  2  0
 18 19  1  0
 19 20  1  0
 19 21  2  0
 21 22  1  0
 21 25  1  0
 22 23  2  0
 23 24  1  0
 24 25  1  0
M  END
