
     RDKit          3D

 14 15  0  0  0  0  0  0  0  0999 V2000
   -1.0040   -2.4810    0.5290 O   0  0  0  0  0  0  0  0  0  0  0  0
   -1.0040   -1.3170    0.0850 C   0  0  0  0  0  0  0  0  0  0  0  0
    0.2450   -0.7480   -0.4550 C   0  0  0  0  0  0  0  0  0  0  0  0
    1.1650   -0.2940    0.6640 C   0  0  0  0  0  0  0  0  0  0  0  0
    2.4190    0.2780    0.1460 C   0  0  0  0  0  0  0  0  0  0  0  0
    3.6130   -0.3990   -0.1310 C   0  0  0  0  0  0  0  0  0  0  0  0
    4.4910    0.5330   -0.5870 C   0  0  0  0  0  0  0  0  0  0  0  0
    3.8970    1.6890   -0.5950 O   0  0  0  0  0  0  0  0  0  0  0  0
    2.6620    1.5930   -0.1670 C   0  0  0  0  0  0  0  0  0  0  0  0
   -2.1960   -0.5460    0.0990 N   0  0  0  0  0  0  0  0  0  0  0  0
   -3.4140   -0.9250    0.5590 C   0  0  0  0  0  0  0  0  0  0  0  0
   -4.3400    0.0800    0.4150 C   0  0  0  0  0  0  0  0  0  0  0  0
   -3.6730    1.1370   -0.1610 C   0  0  0  0  0  0  0  0  0  0  0  0
   -2.3730    0.7220   -0.3390 C   0  0  0  0  0  0  0  0  0  0  0  0
  1  2  2  0
  2  3  1  0
  2 10  1  0
  3  4  1  0
  4  5  1  0
  5  6  1  0
  5  9  2  0
  6  7  2  0
  7  8  1  0
  8  9  1  0
 10 11  1  0
 10 14  1  0
 11 12  2  0
 12 13  1  0
 13 14  2  0
M  END
