
     RDKit          3D

 19 20  0  0  0  0  0  0  0  0999 V2000
   -1.5250   -2.4000   -1.8010 C   0  0  0  0  0  0  0  0  0  0  0  0
   -1.3400   -1.9580   -0.3450 C   0  0  2  0  0  0  0  0  0  0  0  0
   -2.2500   -0.8370   -0.0230 C   0  0  0  0  0  0  0  0  0  0  0  0
   -1.6410    0.5290   -0.1390 C   0  0  2  0  0  0  0  0  0  0  0  0
   -0.1340    0.4870   -0.1970 C   0  0  0  0  0  0  0  0  0  0  0  0
    0.3410   -0.7460    0.5950 C   0  0  2  0  0  0  0  0  0  0  0  0
    1.8150   -0.7160    0.5000 C   0  0  0  0  0  0  0  0  0  0  0  0
    2.4800   -1.5940   -0.0460 O   0  0  0  0  0  0  0  0  0  0  0  0
    2.5320    0.3390    1.0340 N   0  0  0  0  0  0  0  0  0  0  0  0
    3.8780    0.3980    0.9580 C   0  0  0  0  0  0  0  0  0  0  0  0
    4.1290    1.5930    1.5380 N   0  0  0  0  0  0  0  0  0  0  0  0
    5.0550   -0.2100    0.5760 N   0  0  0  0  0  0  0  0  0  0  0  0
   -0.0230   -1.8400   -0.1240 O   0  0  0  0  0  0  0  0  0  0  0  0
   -2.0060    1.3590    0.9930 N   0  0  0  0  0  0  0  0  0  0  0  0
   -2.7050    2.5040    0.5400 C   0  0  0  0  0  0  0  0  0  0  0  0
   -3.1720    3.3940    1.3050 O   0  0  0  0  0  0  0  0  0  0  0  0
   -2.7680    2.4460   -0.8680 N   0  0  0  0  0  0  0  0  0  0  0  0
   -2.1200    1.2850   -1.3210 C   0  0  0  0  0  0  0  0  0  0  0  0
   -1.9710    0.9430   -2.5050 O   0  0  0  0  0  0  0  0  0  0  0  0
  2  1  1  6
  2  3  1  0
  2 13  1  0
  4  3  1  1
  4  5  1  0
  4 14  1  0
  4 18  1  0
  5  6  1  0
  6  7  1  6
  6 13  1  0
  7  8  2  0
  7  9  1  0
  9 10  1  0
 10 11  2  0
 10 12  1  0
 14 15  1  0
 15 16  2  0
 15 17  1  0
 17 18  1  0
 18 19  2  0
M  END
