
     RDKit          3D

 19 21  0  0  0  0  0  0  0  0999 V2000
   -4.7300    1.3260    0.5200 N   0  0  0  0  0  0  0  0  0  0  0  0
   -3.6030    1.5070   -0.1800 O   0  0  0  0  0  0  0  0  0  0  0  0
   -2.6280    0.5580    0.0910 C   0  0  2  0  0  0  0  0  0  0  0  0
   -1.4160    1.0990    0.6160 N   0  0  0  0  0  0  0  0  0  0  0  0
   -0.2780    0.5490    0.3850 C   0  0  0  0  0  0  0  0  0  0  0  0
    0.9470    1.1610    0.9600 C   0  0  0  0  0  0  0  0  0  0  0  0
    2.1190    0.6070    0.7310 C   0  0  0  0  0  0  0  0  0  0  0  0
    3.2350    1.1660    1.2560 N   0  0  0  0  0  0  0  0  0  0  0  0
    4.4140    0.5990    1.0180 C   0  0  0  0  0  0  0  0  0  0  0  0
    5.4530    1.1170    1.5050 O   0  0  0  0  0  0  0  0  0  0  0  0
    4.5360   -0.5380    0.2550 C   0  0  0  0  0  0  0  0  0  0  0  0
    5.6670   -1.0770    0.0310 O   0  0  0  0  0  0  0  0  0  0  0  0
    3.4260   -1.0800   -0.2580 N   0  0  0  0  0  0  0  0  0  0  0  0
    2.2050   -0.5330   -0.0390 C   0  0  0  0  0  0  0  0  0  0  0  0
    1.1770   -1.1390   -0.5850 C   0  0  0  0  0  0  0  0  0  0  0  0
   -0.1350   -0.6180   -0.3960 N   0  0  0  0  0  0  0  0  0  0  0  0
   -1.2950   -1.2560   -0.9800 C   0  0  0  0  0  0  0  0  0  0  0  0
   -2.4170   -0.2880   -1.1410 C   0  0  1  0  0  0  0  0  0  0  0  0
   -3.5840   -1.0120   -1.3840 O   0  0  0  0  0  0  0  0  0  0  0  0
  1  2  1  0
  3  2  1  6
  3  4  1  0
  3 18  1  0
  4  5  2  0
  5  6  1  0
  5 16  1  0
  6  7  2  0
  7  8  1  0
  7 14  1  0
  8  9  1  0
  9 10  2  0
  9 11  1  0
 11 12  2  0
 11 13  1  0
 13 14  1  0
 14 15  2  0
 15 16  1  0
 16 17  1  0
 17 18  1  0
 18 19  1  1
M  END
