
     RDKit          3D

 25 27  0  0  0  0  0  0  0  0999 V2000
   -4.7630   -1.1810    0.8640 C   0  0  0  0  0  0  0  0  0  0  0  0
   -3.9860   -0.2400    0.0200 C   0  0  0  0  0  0  0  0  0  0  0  0
   -2.7030   -0.5200   -0.4270 C   0  0  0  0  0  0  0  0  0  0  0  0
   -1.9620    0.3330   -1.2080 C   0  0  0  0  0  0  0  0  0  0  0  0
   -0.3370   -0.0190   -1.7450 S   0  0  0  0  0  0  0  0  0  0  0  0
    0.4400   -1.4930   -1.0980 C   0  0  0  0  0  0  0  0  0  0  0  0
    0.7580   -1.3350    0.3100 C   0  0  0  0  0  0  0  0  0  0  0  0
   -0.0590   -1.9100    1.1240 O   0  0  0  0  0  0  0  0  0  0  0  0
    1.9090   -0.5890    0.8870 C   0  0  0  0  0  0  0  0  0  0  0  0
    1.9610   -0.6020    2.2720 C   0  0  0  0  0  0  0  0  0  0  0  0
    1.1440   -1.1860    3.2530 N   0  0  0  0  0  0  0  0  0  0  0  0
    3.4400    0.3750    2.7090 S   0  0  0  0  0  0  0  0  0  0  0  0
    3.8570    0.7130    0.9920 C   0  0  0  0  0  0  0  0  0  0  0  0
    4.9190    1.4440    0.4820 C   0  0  0  0  0  0  0  0  0  0  0  0
    5.7160    1.9490    1.2910 O   0  0  0  0  0  0  0  0  0  0  0  0
    5.0490    1.5780   -0.8560 N   0  0  0  0  0  0  0  0  0  0  0  0
    4.1250    0.9850   -1.6110 C   0  0  0  0  0  0  0  0  0  0  0  0
    4.1960    1.0790   -2.9010 O   0  0  0  0  0  0  0  0  0  0  0  0
    3.1030    0.2810   -1.1060 N   0  0  0  0  0  0  0  0  0  0  0  0
    2.8930    0.0920    0.2490 C   0  0  0  0  0  0  0  0  0  0  0  0
   -2.5660    1.5320   -1.5470 C   0  0  0  0  0  0  0  0  0  0  0  0
   -1.6750    2.6450   -2.5360 Cl  0  0  0  0  0  0  0  0  0  0  0  0
   -3.8160    1.8410   -1.1300 C   0  0  0  0  0  0  0  0  0  0  0  0
   -4.5450    0.9510   -0.3350 C   0  0  0  0  0  0  0  0  0  0  0  0
   -6.3000    1.3620    0.2590 Br  0  0  0  0  0  0  0  0  0  0  0  0
  1  2  1  0
  2  3  2  0
  2 24  1  0
  3  4  1  0
  4  5  1  0
  4 21  2  0
  5  6  1  0
  6  7  1  0
  7  8  2  0
  7  9  1  0
  9 10  2  0
  9 20  1  0
 10 11  1  0
 10 12  1  0
 12 13  1  0
 13 14  1  0
 13 20  2  0
 14 15  2  0
 14 16  1  0
 16 17  1  0
 17 18  2  0
 17 19  1  0
 19 20  1  0
 21 22  1  0
 21 23  1  0
 23 24  2  0
 24 25  1  0
M  END
