
     RDKit          3D

 25 27  0  0  0  0  0  0  0  0999 V2000
    0.8870    0.0840   -0.6620 O   0  0  0  0  0  0  0  0  0  0  0  0
    0.5310   -0.7220    0.2890 C   0  0  0  0  0  0  0  0  0  0  0  0
    1.6830   -1.4030    0.9600 C   0  0  0  0  0  0  0  0  0  0  0  0
    2.8850   -0.7610    0.3370 N   0  0  0  0  0  0  0  0  0  0  0  0
    4.1980   -1.0550    0.7600 C   0  0  0  0  0  0  0  0  0  0  0  0
    4.3460   -1.8670    1.6660 O   0  0  0  0  0  0  0  0  0  0  0  0
    5.3400   -0.3430    0.0780 C   0  0  0  0  0  0  0  0  0  0  0  0
    6.5470   -0.2450    0.6410 C   0  0  0  0  0  0  0  0  0  0  0  0
    7.5750    0.3850   -0.1060 C   0  0  0  0  0  0  0  0  0  0  0  0
    6.7640    0.8040   -1.5840 S   0  0  0  0  0  0  0  0  0  0  0  0
    5.1610    0.1580   -1.1650 C   0  0  0  0  0  0  0  0  0  0  0  0
   -0.8060   -0.8560    0.6080 N   0  0  0  0  0  0  0  0  0  0  0  0
   -1.8110   -0.0790   -0.1390 C   0  0  0  0  0  0  0  0  0  0  0  0
   -1.4250    0.4160   -1.3550 C   0  0  0  0  0  0  0  0  0  0  0  0
   -2.3850    1.1360   -2.0250 C   0  0  0  0  0  0  0  0  0  0  0  0
   -2.0430    1.8790   -3.5700 Cl  0  0  0  0  0  0  0  0  0  0  0  0
   -3.6520    1.3320   -1.4890 C   0  0  0  0  0  0  0  0  0  0  0  0
   -5.0650    2.0640   -2.1780 S   0  0  0  0  0  0  0  0  0  0  0  0
   -6.1500    1.6400   -0.7680 N   0  0  0  0  0  0  0  0  0  0  0  0
   -5.3030    0.9920    0.1030 C   0  0  0  0  0  0  0  0  0  0  0  0
   -5.9100    0.5670    1.4420 C   0  0  0  0  0  0  0  0  0  0  0  0
   -6.6630   -0.6140    1.2150 O   0  0  0  0  0  0  0  0  0  0  0  0
   -4.0530    0.8530   -0.2770 C   0  0  0  0  0  0  0  0  0  0  0  0
   -3.0480    0.1190    0.3990 C   0  0  0  0  0  0  0  0  0  0  0  0
   -3.3150   -0.6140    2.1450 Br  0  0  0  0  0  0  0  0  0  0  0  0
  1  2  2  0
  2  3  1  0
  2 12  1  0
  3  4  1  0
  4  5  1  0
  5  6  2  0
  5  7  1  0
  7  8  1  0
  7 11  2  0
  8  9  2  0
  9 10  1  0
 10 11  1  0
 12 13  1  0
 13 14  2  0
 13 24  1  0
 14 15  1  0
 15 16  1  0
 15 17  2  0
 17 18  1  0
 17 23  1  0
 18 19  1  0
 19 20  2  0
 20 21  1  0
 20 23  1  0
 21 22  1  0
 23 24  2  0
 24 25  1  0
M  END
