
     RDKit          3D

 25 27  0  0  0  0  0  0  0  0999 V2000
    5.3920    2.7260    0.0610 C   0  0  0  0  0  0  0  0  0  0  0  0
    4.5410    1.5090    0.2670 C   0  0  0  0  0  0  0  0  0  0  0  0
    3.2910    1.5210   -0.1770 N   0  0  0  0  0  0  0  0  0  0  0  0
    2.5240    0.4240    0.0100 C   0  0  0  0  0  0  0  0  0  0  0  0
    1.1650    0.4590   -0.5050 C   0  0  0  0  0  0  0  0  0  0  0  0
    0.7320    1.4810   -1.1320 O   0  0  0  0  0  0  0  0  0  0  0  0
    0.2500   -0.6080   -0.3570 N   0  0  0  0  0  0  0  0  0  0  0  0
   -1.0590   -0.5130   -0.8970 N   0  0  0  0  0  0  0  0  0  0  0  0
   -1.5620   -1.6030   -1.6240 C   0  0  0  0  0  0  0  0  0  0  0  0
   -2.8190   -1.9620   -1.5420 C   0  0  0  0  0  0  0  0  0  0  0  0
   -3.3450   -3.3400   -2.4910 Cl  0  0  0  0  0  0  0  0  0  0  0  0
   -3.7330   -1.2130   -0.7030 C   0  0  0  0  0  0  0  0  0  0  0  0
   -4.9830   -1.5720   -0.6120 C   0  0  0  0  0  0  0  0  0  0  0  0
   -5.6540   -3.0630   -1.5490 Br  0  0  0  0  0  0  0  0  0  0  0  0
   -5.8880   -0.7940    0.2160 C   0  0  0  0  0  0  0  0  0  0  0  0
   -5.6900    0.3280    0.9430 C   0  0  0  0  0  0  0  0  0  0  0  0
   -6.6890    0.8750    1.6420 C   0  0  0  0  0  0  0  0  0  0  0  0
   -7.9220    0.2320    1.5780 C   0  0  0  0  0  0  0  0  0  0  0  0
   -7.5600   -1.1530    0.4900 S   0  0  0  0  0  0  0  0  0  0  0  0
    2.9860   -0.7020    0.6430 C   0  0  0  0  0  0  0  0  0  0  0  0
    4.3010   -0.7290    1.1150 C   0  0  0  0  0  0  0  0  0  0  0  0
    5.0610    0.3910    0.9150 C   0  0  0  0  0  0  0  0  0  0  0  0
    6.7110    0.4720    1.4490 S   0  0  1  0  0  0  0  0  0  0  0  0
    7.1620   -0.8870    1.9250 O   0  0  0  0  0  0  0  0  0  0  0  0
    7.5750    0.9010    0.3010 O   0  0  0  0  0  0  0  0  0  0  0  0
  1  2  1  0
  2  3  2  0
  2 22  1  0
  3  4  1  0
  4  5  1  0
  4 20  2  0
  5  6  2  0
  5  7  1  0
  7  8  1  0
  8  9  1  0
  9 10  2  3
 10 11  1  0
 10 12  1  0
 12 13  2  0
 13 14  1  0
 13 15  1  0
 15 16  2  0
 15 19  1  0
 16 17  1  0
 17 18  2  0
 18 19  1  0
 20 21  1  0
 21 22  2  0
 23 22  1  6
 23 24  2  0
 23 25  2  0
 14 11  1  0
M  END
