
     RDKit          3D

 31 33  0  0  0  0  0  0  0  0999 V2000
   -4.2220   -0.7070    2.3690 C   0  0  0  0  0  0  0  0  0  0  0  0
   -3.9170    0.6720    2.1590 N   0  0  0  0  0  0  0  0  0  0  0  0
   -2.7260    0.8740    1.3300 C   0  0  2  0  0  0  0  0  0  0  0  0
   -2.5030    2.3150    1.0670 C   0  0  0  0  0  0  0  0  0  0  0  0
   -3.1190    2.9200   -0.1300 C   0  0  0  0  0  0  0  0  0  0  0  0
   -4.3910    2.3940   -0.4040 N   0  0  0  0  0  0  0  0  0  0  0  0
   -5.4120    3.3040   -0.7630 C   0  0  0  0  0  0  0  0  0  0  0  0
   -4.4830    1.0970   -0.9920 C   0  0  0  0  0  0  0  0  0  0  0  0
   -3.2070    0.3610   -1.0930 C   0  0  2  0  0  0  0  0  0  0  0  0
   -3.3310   -0.7450   -2.0860 C   0  0  0  0  0  0  0  0  0  0  0  0
   -4.3540   -1.7830   -1.8250 C   0  0  0  0  0  0  0  0  0  0  0  0
   -5.6570   -1.3580   -1.7540 O   0  0  0  0  0  0  0  0  0  0  0  0
   -2.6200   -0.0760    0.2090 C   0  0  1  0  0  0  0  0  0  0  0  0
   -1.2270   -0.5390    0.0440 C   0  0  0  0  0  0  0  0  0  0  0  0
   -0.9020   -1.8480    0.3050 C   0  0  0  0  0  0  0  0  0  0  0  0
    0.3600   -2.3320    0.1690 C   0  0  0  0  0  0  0  0  0  0  0  0
    1.3920   -1.5100   -0.2460 C   0  0  0  0  0  0  0  0  0  0  0  0
    2.7690   -2.0530   -0.3920 C   0  0  0  0  0  0  0  0  0  0  0  0
    3.7100   -1.1010   -0.9010 N   0  0  0  0  0  0  0  0  0  0  0  0
    4.9350   -1.7910   -1.2710 C   0  0  0  0  0  0  0  0  0  0  0  0
    6.0310   -1.6390   -0.2480 C   0  0  2  0  0  0  0  0  0  0  0  0
    5.5910   -2.1640    0.9730 O   0  0  0  0  0  0  0  0  0  0  0  0
    6.5000   -0.2480   -0.1410 C   0  0  0  0  0  0  0  0  0  0  0  0
    6.0470    0.7760   -0.8790 N   0  0  0  0  0  0  0  0  0  0  0  0
    6.7280    1.8890   -0.4820 C   0  0  0  0  0  0  0  0  0  0  0  0
    6.5530    3.1690   -1.0050 O   0  0  0  0  0  0  0  0  0  0  0  0
    7.5820    1.5480    0.4820 N   0  0  0  0  0  0  0  0  0  0  0  0
    7.4630    0.2370    0.7130 C   0  0  0  0  0  0  0  0  0  0  0  0
    8.2270   -0.4710    1.6840 N   0  0  0  0  0  0  0  0  0  0  0  0
    1.0980   -0.2040   -0.5120 C   0  0  0  0  0  0  0  0  0  0  0  0
   -0.1950    0.2740   -0.3680 C   0  0  0  0  0  0  0  0  0  0  0  0
  1  2  1  0
  3  2  1  6
  3  4  1  0
  3 13  1  0
  4  5  1  0
  5  6  1  0
  6  7  1  0
  6  8  1  0
  8  9  1  0
  9 10  1  6
  9 13  1  0
 10 11  1  0
 11 12  1  0
 13 14  1  6
 14 15  2  0
 14 31  1  0
 15 16  1  0
 16 17  2  0
 17 18  1  0
 17 30  1  0
 18 19  1  0
 19 20  1  0
 20 21  1  0
 21 22  1  1
 21 23  1  0
 23 24  1  0
 23 28  2  0
 24 25  1  0
 25 26  1  0
 25 27  2  0
 27 28  1  0
 28 29  1  0
 30 31  2  0
M  CHG  2   2   1  19   1
M  END
