
     RDKit          3D

 31 33  0  0  0  0  0  0  0  0999 V2000
    9.1560    0.2530   -1.6360 C   0  0  0  0  0  0  0  0  0  0  0  0
    8.7560   -1.1160   -1.8370 N   0  0  2  0  0  0  0  0  0  0  0  0
    7.6940   -1.2730   -2.7980 C   0  0  0  0  0  0  0  0  0  0  0  0
    6.4020   -1.7730   -2.1440 C   0  0  0  0  0  0  0  0  0  0  0  0
    6.1320   -0.8470   -0.9900 C   0  0  1  0  0  0  0  0  0  0  0  0
    4.8650   -1.0460   -0.3620 N   0  0  0  0  0  0  0  0  0  0  0  0
    3.8300   -0.0880   -0.3700 C   0  0  0  0  0  0  0  0  0  0  0  0
    4.0360    0.9940   -0.9620 O   0  0  0  0  0  0  0  0  0  0  0  0
    2.5630   -0.2640    0.2510 N   0  0  0  0  0  0  0  0  0  0  0  0
    1.5400    0.7550    0.2070 C   0  0  0  0  0  0  0  0  0  0  0  0
    0.3350    0.2420    0.9610 C   0  0  0  0  0  0  0  0  0  0  0  0
   -0.7650    1.2650    0.9450 C   0  0  0  0  0  0  0  0  0  0  0  0
   -0.6210    2.3710    0.3650 O   0  0  0  0  0  0  0  0  0  0  0  0
   -2.0100    1.0230    1.5830 N   0  0  0  0  0  0  0  0  0  0  0  0
   -3.0490    2.0170    1.5520 C   0  0  2  0  0  0  0  0  0  0  0  0
   -3.3650    2.5290    2.9170 C   0  0  0  0  0  0  0  0  0  0  0  0
   -4.3660    3.5230    3.1030 N   0  0  0  0  0  0  0  0  0  0  0  0
   -2.7750    2.1170    3.9480 O   0  0  0  0  0  0  0  0  0  0  0  0
   -4.2900    1.5470    0.9340 C   0  0  0  0  0  0  0  0  0  0  0  0
   -4.9480    2.3530    0.0320 C   0  0  0  0  0  0  0  0  0  0  0  0
   -6.1320    1.9470   -0.5840 C   0  0  0  0  0  0  0  0  0  0  0  0
   -6.6400    0.6910   -0.2610 C   0  0  0  0  0  0  0  0  0  0  0  0
   -5.9960   -0.1370    0.6430 C   0  0  0  0  0  0  0  0  0  0  0  0
   -4.8410    0.3170    1.2120 C   0  0  0  0  0  0  0  0  0  0  0  0
   -6.6190   -1.4460    0.9150 C   0  0  2  0  0  0  0  0  0  0  0  0
   -5.7280   -2.3420    1.6380 N   0  0  0  0  0  0  0  0  0  0  0  0
   -6.9190   -2.0910   -0.4160 C   0  0  0  0  0  0  0  0  0  0  0  0
   -7.6620   -1.2160   -1.3620 C   0  0  0  0  0  0  0  0  0  0  0  0
   -7.8930    0.1770   -0.8690 C   0  0  0  0  0  0  0  0  0  0  0  0
    7.2200   -1.0260    0.0190 C   0  0  0  0  0  0  0  0  0  0  0  0
    8.4390   -1.7140   -0.5560 C   0  0  0  0  0  0  0  0  0  0  0  0
  2  1  1  1
  2  3  1  0
  2 31  1  0
  3  4  1  0
  4  5  1  0
  5  6  1  1
  5 30  1  0
  6  7  1  0
  7  8  2  0
  7  9  1  0
  9 10  1  0
 10 11  1  0
 11 12  1  0
 12 13  2  0
 12 14  1  0
 15 14  1  1
 15 16  1  0
 15 19  1  0
 16 17  1  0
 16 18  2  0
 19 20  2  0
 19 24  1  0
 20 21  1  0
 21 22  2  0
 22 23  1  0
 22 29  1  0
 23 24  2  0
 23 25  1  0
 25 26  1  1
 25 27  1  0
 27 28  1  0
 28 29  1  0
 30 31  1  0
M  CHG  2   2   1  26   1
M  END
