
     RDKit          3D

 31 33  0  0  0  0  0  0  0  0999 V2000
   10.4630   -2.6310    0.4310 N   0  0  0  0  0  0  0  0  0  0  0  0
   10.7560   -1.4870   -0.3430 C   0  0  0  0  0  0  0  0  0  0  0  0
   11.8820   -1.3170   -0.8200 O   0  0  0  0  0  0  0  0  0  0  0  0
    9.6810   -0.4920   -0.5670 C   0  0  0  0  0  0  0  0  0  0  0  0
    8.4880   -1.0200   -0.0760 O   0  0  0  0  0  0  0  0  0  0  0  0
    7.2440   -0.4270   -0.0330 C   0  0  0  0  0  0  0  0  0  0  0  0
    6.1710   -1.1480    0.4810 C   0  0  0  0  0  0  0  0  0  0  0  0
    4.9190   -0.5730    0.5400 C   0  0  0  0  0  0  0  0  0  0  0  0
    4.6480    0.7080    0.1090 C   0  0  0  0  0  0  0  0  0  0  0  0
    3.3250    1.2190    0.2250 N   0  0  0  0  0  0  0  0  0  0  0  0
    2.9570    2.5780    0.2260 C   0  0  0  0  0  0  0  0  0  0  0  0
    3.8990    3.4390    0.1230 O   0  0  0  0  0  0  0  0  0  0  0  0
    1.6170    3.1500    0.3350 C   0  0  0  0  0  0  0  0  0  0  0  0
    0.5230    2.2580    0.4490 N   0  0  0  0  0  0  0  0  0  0  0  0
    0.0450    1.7620    1.6330 C   0  0  0  0  0  0  0  0  0  0  0  0
   -1.0640    0.9940    1.3660 C   0  0  0  0  0  0  0  0  0  0  0  0
   -1.2270    1.0500    0.0040 C   0  0  0  0  0  0  0  0  0  0  0  0
   -2.3800    0.3810   -0.7280 C   0  0  0  0  0  0  0  0  0  0  0  0
   -3.4360    0.2160    0.1830 N   0  0  0  0  0  0  0  0  0  0  0  0
   -4.6590   -0.3730   -0.2070 C   0  0  2  0  0  0  0  0  0  0  0  0
   -5.0190   -1.3590    0.9030 C   0  0  0  0  0  0  0  0  0  0  0  0
   -5.1240   -0.5870    2.1350 N   0  0  0  0  0  0  0  0  0  0  0  0
   -4.5250   -1.1950   -1.4770 C   0  0  0  0  0  0  0  0  0  0  0  0
   -5.5040   -2.3050   -1.6120 C   0  0  0  0  0  0  0  0  0  0  0  0
   -6.8030   -1.8290   -2.1310 C   0  0  0  0  0  0  0  0  0  0  0  0
   -7.3870   -0.6880   -1.5120 N   0  0  0  0  0  0  0  0  0  0  0  0
   -6.6080    0.5040   -1.5180 C   0  0  0  0  0  0  0  0  0  0  0  0
   -5.7280    0.6500   -0.2890 C   0  0  0  0  0  0  0  0  0  0  0  0
   -0.2500    1.8240   -0.5530 C   0  0  0  0  0  0  0  0  0  0  0  0
    5.7070    1.4220   -0.4020 C   0  0  0  0  0  0  0  0  0  0  0  0
    6.9930    0.8490   -0.4690 C   0  0  0  0  0  0  0  0  0  0  0  0
  1  2  1  0
  2  3  2  0
  2  4  1  0
  4  5  1  0
  5  6  1  0
  6  7  2  0
  6 31  1  0
  7  8  1  0
  8  9  2  0
  9 10  1  0
  9 30  1  0
 10 11  1  0
 11 12  2  0
 11 13  1  0
 13 14  1  0
 14 15  1  0
 14 29  1  0
 15 16  2  0
 16 17  1  0
 17 18  1  0
 17 29  2  0
 18 19  1  0
 19 20  1  0
 20 21  1  1
 20 23  1  0
 20 28  1  0
 21 22  1  0
 23 24  1  0
 24 25  1  0
 25 26  1  0
 26 27  1  0
 27 28  1  0
 30 31  2  0
M  CHG  2  22   1  26   1
M  END
