
     RDKit          3D

 31 33  0  0  0  0  0  0  0  0999 V2000
   -8.1900   -2.9760    1.5530 C   0  0  0  0  0  0  0  0  0  0  0  0
   -7.2530   -1.9320    1.4980 O   0  0  0  0  0  0  0  0  0  0  0  0
   -5.9620   -2.1460    1.0310 C   0  0  0  0  0  0  0  0  0  0  0  0
   -5.5000   -3.3690    0.5960 C   0  0  0  0  0  0  0  0  0  0  0  0
   -4.1900   -3.5180    0.1360 C   0  0  0  0  0  0  0  0  0  0  0  0
   -3.3190   -2.4580    0.1010 C   0  0  0  0  0  0  0  0  0  0  0  0
   -3.7930   -1.2460    0.5360 C   0  0  0  0  0  0  0  0  0  0  0  0
   -5.0700   -1.0790    0.9900 C   0  0  0  0  0  0  0  0  0  0  0  0
   -2.8650   -0.0780    0.4700 C   0  0  2  0  0  0  0  0  0  0  0  0
   -3.5950    1.1440    0.5290 N   0  0  0  0  0  0  0  0  0  0  0  0
   -2.6930    2.2690    0.2590 C   0  0  0  0  0  0  0  0  0  0  0  0
   -2.8710    3.3390    1.2850 C   0  0  0  0  0  0  0  0  0  0  0  0
   -2.0740    4.4950    1.1710 N   0  0  0  0  0  0  0  0  0  0  0  0
   -3.6990    3.2140    2.2160 O   0  0  0  0  0  0  0  0  0  0  0  0
   -2.1560   -0.2270   -0.8690 C   0  0  0  0  0  0  0  0  0  0  0  0
   -1.2390   -1.4270   -0.8120 C   0  0  1  0  0  0  0  0  0  0  0  0
   -0.0470   -1.0830   -0.0620 N   0  0  0  0  0  0  0  0  0  0  0  0
    1.1850   -0.7660   -0.6700 C   0  0  0  0  0  0  0  0  0  0  0  0
    1.1970   -0.7940   -1.9160 O   0  0  0  0  0  0  0  0  0  0  0  0
    2.3560   -0.4310    0.0300 N   0  0  0  0  0  0  0  0  0  0  0  0
    3.5950   -0.0970   -0.5750 C   0  0  0  0  0  0  0  0  0  0  0  0
    3.8870   -0.0160   -1.8550 C   0  0  0  0  0  0  0  0  0  0  0  0
    5.3260    0.3710   -2.0390 C   0  0  0  0  0  0  0  0  0  0  0  0
    5.8060    0.5030   -0.6610 C   0  0  0  0  0  0  0  0  0  0  0  0
    7.1990    0.8940   -0.2740 C   0  0  0  0  0  0  0  0  0  0  0  0
    7.4560    2.2820   -0.8760 C   0  0  0  0  0  0  0  0  0  0  0  0
    8.7850    2.7610   -0.5570 N   0  0  0  0  0  0  0  0  0  0  0  0
    4.8160    0.2320    0.1550 C   0  0  0  0  0  0  0  0  0  0  0  0
    4.9180    0.2380    1.5820 C   0  0  0  0  0  0  0  0  0  0  0  0
    5.0190    0.2350    2.7490 N   0  0  0  0  0  0  0  0  0  0  0  0
   -1.9490   -2.6190   -0.3590 C   0  0  0  0  0  0  0  0  0  0  0  0
  1  2  1  0
  2  3  1  0
  3  4  2  0
  3  8  1  0
  4  5  1  0
  5  6  2  0
  6  7  1  0
  6 31  1  0
  7  8  2  0
  7  9  1  0
  9 10  1  6
  9 15  1  0
 10 11  1  0
 11 12  1  0
 12 13  1  0
 12 14  2  0
 15 16  1  0
 16 17  1  1
 16 31  1  0
 17 18  1  0
 18 19  2  0
 18 20  1  0
 20 21  1  0
 21 22  2  0
 21 28  1  0
 22 23  1  0
 23 24  1  0
 24 25  1  0
 24 28  2  0
 25 26  1  0
 26 27  1  0
 28 29  1  0
 29 30  3  0
M  CHG  2  10   1  27   1
M  END
