
     RDKit          3D

 30 32  0  0  0  0  0  0  0  0999 V2000
   -1.2670   -3.2210    2.3920 C   0  0  0  0  0  0  0  0  0  0  0  0
   -1.7390   -2.4840    1.1290 C   0  0  0  0  0  0  0  0  0  0  0  0
   -1.8270   -1.0200    1.3830 C   0  0  2  0  0  0  0  0  0  0  0  0
   -2.8010   -0.7610    2.4380 C   0  0  0  0  0  0  0  0  0  0  0  0
   -4.1490   -1.4250    2.3050 C   0  0  0  0  0  0  0  0  0  0  0  0
   -4.8580   -1.1950    1.0230 C   0  0  0  0  0  0  0  0  0  0  0  0
   -4.3130    0.0550    0.3510 C   0  0  0  0  0  0  0  0  0  0  0  0
   -3.1760   -0.3080   -0.5060 C   0  0  1  0  0  0  0  0  0  0  0  0
   -3.2580   -1.6600   -0.8680 O   0  0  0  0  0  0  0  0  0  0  0  0
   -3.2400    0.4610   -1.7970 C   0  0  0  0  0  0  0  0  0  0  0  0
   -2.6840    1.8260   -1.7810 C   0  0  0  0  0  0  0  0  0  0  0  0
   -1.9580    2.2620   -0.5810 C   0  0  2  0  0  0  0  0  0  0  0  0
   -2.7040    3.4910   -0.0030 C   0  0  0  0  0  0  0  0  0  0  0  0
   -0.6360    2.8960   -1.0340 C   0  0  0  0  0  0  0  0  0  0  0  0
   -1.6670    1.2830    0.4790 C   0  0  0  0  0  0  0  0  0  0  0  0
   -1.7810   -0.1570    0.1610 C   0  0  1  0  0  0  0  0  0  0  0  0
   -0.8770   -0.6710   -0.8740 C   0  0  0  0  0  0  0  0  0  0  0  0
    0.5460   -0.9160   -0.7380 C   0  0  1  0  0  0  0  0  0  0  0  0
    1.0780   -1.5000   -2.1010 C   0  0  0  0  0  0  0  0  0  0  0  0
    2.3990   -2.1250   -1.8030 C   0  0  0  0  0  0  0  0  0  0  0  0
    3.4330   -1.0830   -1.3710 C   0  0  1  0  0  0  0  0  0  0  0  0
    3.8580   -0.3040   -2.5590 C   0  0  0  0  0  0  0  0  0  0  0  0
    2.8570   -0.3510   -0.2330 C   0  0  1  0  0  0  0  0  0  0  0  0
    3.7070    0.6240    0.4930 C   0  0  1  0  0  0  0  0  0  0  0  0
    4.2310    1.7600   -0.3240 C   0  0  0  0  0  0  0  0  0  0  0  0
    2.8630    1.2170    1.4700 O   0  0  0  0  0  0  0  0  0  0  0  0
    4.7720   -0.0800    1.2690 C   0  0  0  0  0  0  0  0  0  0  0  0
    5.6700    0.8590    2.0370 C   0  0  0  0  0  0  0  0  0  0  0  0
    6.3520    1.7600    1.2450 O   0  0  0  0  0  0  0  0  0  0  0  0
    1.4930    0.2490   -0.6070 C   0  0  0  0  0  0  0  0  0  0  0  0
  1  2  1  0
  3  2  1  6
  3  4  1  0
  3 16  1  0
  4  5  1  0
  5  6  1  0
  6  7  1  0
  7  8  1  0
  8  9  1  6
  8 10  1  0
  8 16  1  0
 10 11  1  0
 11 12  1  0
 12 13  1  1
 12 14  1  0
 12 15  1  0
 15 16  1  0
 16 17  1  6
 18 17  1  6
 18 19  1  0
 18 30  1  0
 19 20  1  0
 20 21  1  0
 21 22  1  6
 21 23  1  0
 23 24  1  0
 23 30  1  6
 24 25  1  6
 24 26  1  0
 24 27  1  0
 27 28  1  0
 28 29  1  0
M  END
