
     RDKit          3D

 29 31  0  0  0  0  0  0  0  0999 V2000
   -6.5920   -0.4240   -0.3360 C   0  0  0  0  0  0  0  0  0  0  0  0
   -5.4430   -1.3070    0.1330 C   0  0  0  0  0  0  0  0  0  0  0  0
   -4.4110   -0.4590    0.8950 C   0  0  0  0  0  0  0  0  0  0  0  0
   -3.8970    0.5420    0.0780 N   0  0  0  0  0  0  0  0  0  0  0  0
   -4.1820    1.8990    0.4610 C   0  0  0  0  0  0  0  0  0  0  0  0
   -2.6880    0.3150   -1.0260 S   0  0  1  0  0  0  0  0  0  0  0  0
   -3.2130   -0.6390   -2.1160 O   0  0  0  0  0  0  0  0  0  0  0  0
   -2.4850    1.6210   -1.8020 O   0  0  0  0  0  0  0  0  0  0  0  0
   -1.1340   -0.2060   -0.4900 C   0  0  0  0  0  0  0  0  0  0  0  0
   -0.0880    0.7220   -0.4530 C   0  0  0  0  0  0  0  0  0  0  0  0
    1.1910    0.4110    0.0120 C   0  0  0  0  0  0  0  0  0  0  0  0
    2.1880    1.4730    0.0560 C   0  0  0  0  0  0  0  0  0  0  0  0
    1.8400    2.8120    0.1310 N   0  0  0  0  0  0  0  0  0  0  0  0
    2.8950    3.5650    0.1010 N   0  0  0  0  0  0  0  0  0  0  0  0
    3.9380    2.7720    0.0080 C   0  0  0  0  0  0  0  0  0  0  0  0
    5.1320    3.1230   -0.0460 O   0  0  0  0  0  0  0  0  0  0  0  0
    3.5020    1.4530   -0.0230 N   0  0  0  0  0  0  0  0  0  0  0  0
    4.4150    0.3810   -0.1710 C   0  0  0  0  0  0  0  0  0  0  0  0
    4.4970   -0.4030   -1.3010 C   0  0  0  0  0  0  0  0  0  0  0  0
    5.4510   -1.4160   -1.3990 C   0  0  0  0  0  0  0  0  0  0  0  0
    6.3340   -1.6590   -0.3700 C   0  0  0  0  0  0  0  0  0  0  0  0
    6.2560   -0.8800    0.7590 C   0  0  0  0  0  0  0  0  0  0  0  0
    5.3090    0.1150    0.8390 C   0  0  0  0  0  0  0  0  0  0  0  0
    5.2370    0.8900    1.9720 F   0  0  0  0  0  0  0  0  0  0  0  0
    1.3770   -0.8640    0.4370 C   0  0  0  0  0  0  0  0  0  0  0  0
    2.5680   -1.3220    0.9300 O   0  0  0  0  0  0  0  0  0  0  0  0
    0.3490   -1.8190    0.4120 C   0  0  0  0  0  0  0  0  0  0  0  0
   -0.9110   -1.4740   -0.0590 C   0  0  0  0  0  0  0  0  0  0  0  0
   -1.9290   -2.4120   -0.0950 O   0  0  0  0  0  0  0  0  0  0  0  0
  1  2  1  0
  2  3  1  0
  3  4  1  0
  4  5  1  0
  6  4  1  1
  6  7  2  0
  6  8  2  0
  6  9  1  0
  9 10  2  0
  9 28  1  0
 10 11  1  0
 11 12  1  0
 11 25  2  0
 12 13  2  0
 12 17  1  0
 13 14  1  0
 14 15  1  0
 15 16  2  0
 15 17  1  0
 17 18  1  0
 18 19  2  0
 18 23  1  0
 19 20  1  0
 20 21  2  0
 21 22  1  0
 22 23  2  0
 23 24  1  0
 25 26  1  0
 25 27  1  0
 27 28  2  0
 28 29  1  0
M  END
