
     RDKit          3D

 30 32  0  0  0  0  0  0  0  0999 V2000
   -1.5000    3.5320    1.6690 C   0  0  0  0  0  0  0  0  0  0  0  0
   -0.4960    3.2930    0.8540 O   0  0  0  0  0  0  0  0  0  0  0  0
   -0.4640    2.6150   -0.2770 C   0  0  2  0  0  0  0  0  0  0  0  0
   -1.4730    3.0650   -1.3270 C   0  0  0  0  0  0  0  0  0  0  0  0
   -0.4680    1.1410   -0.1730 C   0  0  1  0  0  0  0  0  0  0  0  0
    0.6790    0.7360    0.5690 O   0  0  0  0  0  0  0  0  0  0  0  0
    0.5350   -0.5570    0.9810 C   0  0  2  0  0  0  0  0  0  0  0  0
    0.5390   -0.6780    2.4650 C   0  0  0  0  0  0  0  0  0  0  0  0
    1.4160   -1.5140    0.2470 C   0  0  0  0  0  0  0  0  0  0  0  0
    2.8790   -1.3010    0.3030 C   0  0  2  0  0  0  0  0  0  0  0  0
    3.5380   -2.4250   -0.5330 C   0  0  0  0  0  0  0  0  0  0  0  0
    5.0310   -2.2760   -0.5150 C   0  0  0  0  0  0  0  0  0  0  0  0
    5.4940   -2.5110    0.9190 C   0  0  0  0  0  0  0  0  0  0  0  0
    4.9380   -1.4050    1.7510 C   0  0  2  0  0  0  0  0  0  0  0  0
    5.2830   -1.6680    3.1460 N   0  0  0  0  0  0  0  0  0  0  0  0
    3.4140   -1.4370    1.6810 C   0  0  0  0  0  0  0  0  0  0  0  0
   -0.9240   -0.9640    0.5490 C   0  0  0  0  0  0  0  0  0  0  0  0
   -1.5110    0.4610    0.6270 C   0  0  2  0  0  0  0  0  0  0  0  0
   -2.9170    0.5970    0.3210 C   0  0  0  0  0  0  0  0  0  0  0  0
   -3.5470    0.2060   -0.9390 C   0  0  0  0  0  0  0  0  0  0  0  0
   -3.5300   -1.2100   -1.3270 C   0  0  0  0  0  0  0  0  0  0  0  0
   -4.6800   -1.9180   -1.4110 C   0  0  0  0  0  0  0  0  0  0  0  0
   -4.7660   -3.3670   -1.7980 C   0  0  0  0  0  0  0  0  0  0  0  0
   -6.1600   -3.7190   -1.3860 C   0  0  0  0  0  0  0  0  0  0  0  0
   -6.6510   -2.6690   -0.6400 O   0  0  0  0  0  0  0  0  0  0  0  0
   -6.0700   -1.4940   -1.1620 C   0  0  0  0  0  0  0  0  0  0  0  0
    0.9210    3.0510   -0.9230 C   0  0  2  0  0  0  0  0  0  0  0  0
    0.8950    4.5250   -1.1600 C   0  0  0  0  0  0  0  0  0  0  0  0
    1.1980    2.3220   -2.1770 C   0  0  0  0  0  0  0  0  0  0  0  0
    1.9860    2.7820    0.1170 C   0  0  0  0  0  0  0  0  0  0  0  0
  1  2  1  0
  2  3  1  0
  3  4  1  6
  3  5  1  0
  3 27  1  0
  5  6  1  1
  5 18  1  0
  6  7  1  0
  7  8  1  1
  7  9  1  0
  7 17  1  0
 10  9  1  1
 10 11  1  0
 10 16  1  0
 11 12  1  0
 12 13  1  0
 13 14  1  0
 14 15  1  1
 14 16  1  0
 17 18  1  0
 18 19  1  6
 19 20  1  0
 20 21  1  0
 21 22  2  3
 22 23  1  0
 22 26  1  0
 23 24  1  0
 24 25  1  0
 25 26  1  0
 27 28  1  6
 27 29  1  0
 27 30  1  0
M  END
