
     RDKit          3D

 30 32  0  0  0  0  0  0  0  0999 V2000
    3.5100    2.5180   -2.2100 C   0  0  0  0  0  0  0  0  0  0  0  0
    2.3670    2.7350   -1.2590 C   0  0  0  0  0  0  0  0  0  0  0  0
    2.5100    2.1640    0.1030 C   0  0  0  0  0  0  0  0  0  0  0  0
    2.6530    0.7680    0.4050 C   0  0  1  0  0  0  0  0  0  0  0  0
    3.9060    0.1850   -0.3170 C   0  0  0  0  0  0  0  0  0  0  0  0
    3.2860    0.7500    1.8480 C   0  0  0  0  0  0  0  0  0  0  0  0
    2.3720    1.3680    2.8040 C   0  0  0  0  0  0  0  0  0  0  0  0
    1.1710    0.4710    2.9750 C   0  0  0  0  0  0  0  0  0  0  0  0
    0.0720    0.7090    2.0150 C   0  0  0  0  0  0  0  0  0  0  0  0
    0.2100    0.1310    0.6120 C   0  0  2  0  0  0  0  0  0  0  0  0
   -0.3040    1.1680   -0.2110 O   0  0  0  0  0  0  0  0  0  0  0  0
   -0.9210   -0.8710    0.5130 C   0  0  2  0  0  0  0  0  0  0  0  0
   -0.8050   -1.9280    1.5970 C   0  0  0  0  0  0  0  0  0  0  0  0
   -1.8370   -2.9800    1.6310 C   0  0  0  0  0  0  0  0  0  0  0  0
   -1.1960   -1.4310   -0.8230 C   0  0  0  0  0  0  0  0  0  0  0  0
   -2.5890   -1.9110   -1.1250 C   0  0  0  0  0  0  0  0  0  0  0  0
   -3.7020   -1.0370   -0.7180 C   0  0  2  0  0  0  0  0  0  0  0  0
   -4.5770   -0.8660   -1.8160 O   0  0  0  0  0  0  0  0  0  0  0  0
   -3.0930    0.2360   -0.2780 C   0  0  1  0  0  0  0  0  0  0  0  0
   -4.1340    1.2020    0.3100 C   0  0  2  0  0  0  0  0  0  0  0  0
   -5.1910    1.5530   -0.6760 C   0  0  0  0  0  0  0  0  0  0  0  0
   -3.4930    2.4500    0.8190 C   0  0  0  0  0  0  0  0  0  0  0  0
   -2.1590   -0.0320    0.8860 C   0  0  0  0  0  0  0  0  0  0  0  0
    1.5880   -0.2650    0.3470 C   0  0  1  0  0  0  0  0  0  0  0  0
    1.8360   -1.2100   -0.8050 C   0  0  0  0  0  0  0  0  0  0  0  0
    2.1040   -2.5050   -0.6510 C   0  0  0  0  0  0  0  0  0  0  0  0
    2.3490   -3.4550   -1.7500 C   0  0  0  0  0  0  0  0  0  0  0  0
    2.2800   -2.9220   -3.0300 O   0  0  0  0  0  0  0  0  0  0  0  0
    2.0080   -1.5990   -3.2220 C   0  0  0  0  0  0  0  0  0  0  0  0
    1.8000   -0.7950   -2.2020 C   0  0  0  0  0  0  0  0  0  0  0  0
  1  2  1  0
  2  3  1  0
  3  4  1  0
  4  5  1  6
  4  6  1  0
  4 24  1  0
  6  7  1  0
  7  8  1  0
  8  9  1  0
  9 10  1  0
 10 11  1  6
 10 12  1  0
 10 24  1  0
 12 13  1  1
 12 15  1  0
 12 23  1  0
 13 14  1  0
 15 16  1  0
 16 17  1  0
 17 18  1  6
 17 19  1  0
 19 20  1  0
 19 23  1  1
 20 21  1  6
 20 22  1  0
 24 25  1  6
 25 26  2  0
 25 30  1  0
 26 27  1  0
 27 28  1  0
 28 29  1  0
 29 30  2  0
M  END
