
     RDKit          3D

 22 24  0  0  0  0  0  0  0  0999 V2000
   -4.7240    1.2810   -0.4170 C   0  0  0  0  0  0  0  0  0  0  0  0
   -3.2810    0.8500   -0.3600 C   0  0  0  0  0  0  0  0  0  0  0  0
   -2.4070    1.5040    0.4680 C   0  0  0  0  0  0  0  0  0  0  0  0
   -1.0980    1.0490    0.6160 C   0  0  0  0  0  0  0  0  0  0  0  0
   -0.0480    1.4970    1.3170 N   0  0  0  0  0  0  0  0  0  0  0  0
    1.0290    0.6890    1.0930 C   0  0  0  0  0  0  0  0  0  0  0  0
    2.3410    0.6550    1.4840 C   0  0  0  0  0  0  0  0  0  0  0  0
    2.6990    1.5950    2.2870 O   0  0  0  0  0  0  0  0  0  0  0  0
    3.2520   -0.2960    1.0730 N   0  0  0  0  0  0  0  0  0  0  0  0
    4.6350    0.0080    1.3940 C   0  0  0  0  0  0  0  0  0  0  0  0
    5.5860   -0.1880    0.2630 C   0  0  1  0  0  0  0  0  0  0  0  0
    5.7320   -1.5750   -0.0440 F   0  0  0  0  0  0  0  0  0  0  0  0
    4.7730    0.5960   -1.3740 Br  0  0  0  0  0  0  0  0  0  0  0  0
    2.7790   -1.2200    0.2480 C   0  0  0  0  0  0  0  0  0  0  0  0
    3.4950   -2.1170   -0.1810 O   0  0  0  0  0  0  0  0  0  0  0  0
    1.4640   -1.2060   -0.1690 N   0  0  0  0  0  0  0  0  0  0  0  0
    0.6050   -0.2620    0.2410 C   0  0  0  0  0  0  0  0  0  0  0  0
   -0.7400   -0.0750   -0.0960 C   0  0  0  0  0  0  0  0  0  0  0  0
   -1.6170   -0.7320   -0.9330 C   0  0  0  0  0  0  0  0  0  0  0  0
   -2.9000   -0.2650   -1.0720 C   0  0  0  0  0  0  0  0  0  0  0  0
   -3.8070   -0.8830   -2.0710 C   0  0  0  0  0  0  0  0  0  0  0  0
   -4.0810   -2.1950   -1.5880 O   0  0  0  0  0  0  0  0  0  0  0  0
  1  2  1  0
  2  3  2  0
  2 20  1  0
  3  4  1  0
  4  5  1  0
  4 18  2  0
  5  6  1  0
  6  7  1  0
  6 17  2  0
  7  8  2  0
  7  9  1  0
  9 10  1  0
  9 14  1  0
 10 11  1  0
 11 12  1  6
 11 13  1  0
 14 15  2  0
 14 16  1  0
 16 17  1  0
 17 18  1  0
 18 19  1  0
 19 20  2  0
 20 21  1  0
 21 22  1  0
M  END
