
     RDKit          3D

 22 24  0  0  0  0  0  0  0  0999 V2000
   -4.1340    1.2160    0.3600 C   0  0  0  0  0  0  0  0  0  0  0  0
   -2.8990    0.3840    0.2300 C   0  0  2  0  0  0  0  0  0  0  0  0
   -3.1180   -0.8940   -0.5460 C   0  0  0  0  0  0  0  0  0  0  0  0
   -2.2660    0.0260    1.5400 C   0  0  0  0  0  0  0  0  0  0  0  0
   -0.8160   -0.1680    1.1990 C   0  0  0  0  0  0  0  0  0  0  0  0
    0.0250   -0.7020    1.9420 O   0  0  0  0  0  0  0  0  0  0  0  0
   -0.5750    0.3700   -0.1350 C   0  0  0  0  0  0  0  0  0  0  0  0
    0.4800    0.2230   -0.9140 C   0  0  0  0  0  0  0  0  0  0  0  0
    0.5140    0.8370   -2.1880 N   0  0  0  0  0  0  0  0  0  0  0  0
    1.5940   -0.5550   -0.4800 N   0  0  0  0  0  0  0  0  0  0  0  0
    1.6550   -1.8750   -0.2380 C   0  0  0  0  0  0  0  0  0  0  0  0
    0.6670   -2.6640   -0.3700 O   0  0  0  0  0  0  0  0  0  0  0  0
    2.8900   -2.2290    0.1550 N   0  0  0  0  0  0  0  0  0  0  0  0
    3.6530   -1.1430    0.1750 C   0  0  0  0  0  0  0  0  0  0  0  0
    2.8440   -0.0890   -0.2230 C   0  0  0  0  0  0  0  0  0  0  0  0
    3.5300    1.0400   -0.2310 C   0  0  0  0  0  0  0  0  0  0  0  0
    3.0640    2.2590   -0.5650 F   0  0  0  0  0  0  0  0  0  0  0  0
    4.9090    0.7170    0.1950 C   0  0  0  0  0  0  0  0  0  0  0  0
    5.8480    1.5330    0.3090 O   0  0  0  0  0  0  0  0  0  0  0  0
    4.8790   -0.7180    0.4320 C   0  0  0  0  0  0  0  0  0  0  0  0
    6.3930   -1.7140    1.0110 Br  0  0  0  0  0  0  0  0  0  0  0  0
   -1.7960    1.1500   -0.4650 C   0  0  0  0  0  0  0  0  0  0  0  0
  2  1  1  1
  2  3  1  0
  2  4  1  0
  2 22  1  0
  4  5  1  0
  5  6  2  0
  5  7  1  0
  7  8  2  3
  7 22  1  0
  8  9  1  0
  8 10  1  0
 10 11  1  0
 10 15  1  0
 11 12  2  0
 11 13  1  0
 13 14  1  0
 14 15  1  0
 14 20  2  0
 15 16  2  0
 16 17  1  0
 16 18  1  0
 18 19  2  0
 18 20  1  0
 20 21  1  0
M  END
