
     RDKit          3D

 22 24  0  0  0  0  0  0  0  0999 V2000
    0.8070   -0.3030   -2.7750 O   0  0  0  0  0  0  0  0  0  0  0  0
    0.1840   -0.0920   -1.7210 C   0  0  0  0  0  0  0  0  0  0  0  0
   -1.1520    0.1490   -1.6710 N   0  0  0  0  0  0  0  0  0  0  0  0
   -1.5280    0.3340   -0.4210 N   0  0  0  0  0  0  0  0  0  0  0  0
   -2.8710    0.6140    0.0290 C   0  0  0  0  0  0  0  0  0  0  0  0
   -3.2890    1.9010    0.2770 C   0  0  0  0  0  0  0  0  0  0  0  0
   -4.5850    2.1330    0.7080 C   0  0  0  0  0  0  0  0  0  0  0  0
   -5.1370    3.9370    1.0460 Br  0  0  0  0  0  0  0  0  0  0  0  0
   -5.4670    1.0930    0.8920 C   0  0  0  0  0  0  0  0  0  0  0  0
   -5.0630   -0.2010    0.6470 C   0  0  0  0  0  0  0  0  0  0  0  0
   -3.7720   -0.4280    0.2190 C   0  0  0  0  0  0  0  0  0  0  0  0
   -3.3300   -1.6960   -0.0360 O   0  0  0  0  0  0  0  0  0  0  0  0
   -0.4580    0.2170    0.3360 N   0  0  0  0  0  0  0  0  0  0  0  0
    0.6280   -0.0490   -0.4350 C   0  0  0  0  0  0  0  0  0  0  0  0
    1.9960   -0.2470    0.0230 C   0  0  0  0  0  0  0  0  0  0  0  0
    3.0180   -0.5030   -0.7690 C   0  0  0  0  0  0  0  0  0  0  0  0
    4.3530   -0.6870   -0.2230 C   0  0  0  0  0  0  0  0  0  0  0  0
    4.7170   -0.6240    1.1190 C   0  0  0  0  0  0  0  0  0  0  0  0
    6.0800   -0.8590    1.1850 C   0  0  0  0  0  0  0  0  0  0  0  0
    6.4710   -1.0520   -0.1220 C   0  0  0  0  0  0  0  0  0  0  0  0
    7.7070   -1.3170   -0.6110 F   0  0  0  0  0  0  0  0  0  0  0  0
    5.4200   -0.9400   -0.8990 O   0  0  0  0  0  0  0  0  0  0  0  0
  1  2  2  0
  2  3  1  0
  2 14  1  0
  3  4  1  0
  4  5  1  0
  4 13  1  0
  5  6  2  0
  5 11  1  0
  6  7  1  0
  7  8  1  0
  7  9  2  0
  9 10  1  0
 10 11  2  0
 11 12  1  0
 13 14  2  0
 14 15  1  0
 15 16  2  3
 16 17  1  0
 17 18  2  0
 17 22  1  0
 18 19  1  0
 19 20  2  0
 20 21  1  0
 20 22  1  0
M  END
