
     RDKit          3D

 37 37  0  0  0  0  0  0  0  0999 V2000
    4.8970   -0.5240   -3.3990 C   0  0  0  0  0  0  0  0  0  0  0  0
    5.6900   -0.2820   -2.2520 O   0  0  0  0  0  0  0  0  0  0  0  0
    5.0460    0.0620   -1.0840 C   0  0  0  0  0  0  0  0  0  0  0  0
    3.6750    0.1750   -1.0010 C   0  0  0  0  0  0  0  0  0  0  0  0
    3.0420    0.5220    0.1830 C   0  0  0  0  0  0  0  0  0  0  0  0
    1.5680    0.6260    0.1980 C   0  0  2  0  0  0  0  0  0  0  0  0
    1.1720    2.0350    0.5740 C   0  0  0  0  0  0  0  0  0  0  0  0
    1.7460    2.9740   -0.4440 C   0  0  0  0  0  0  0  0  0  0  0  0
    2.9360    3.3540   -0.4130 O   0  0  0  0  0  0  0  0  0  0  0  0
    0.9280    3.4500   -1.4730 O   0  0  0  0  0  0  0  0  0  0  0  0
    0.8090   -0.6130    1.2580 S   0  0  0  0  0  0  0  0  0  0  0  0
   -0.9630   -0.5280    1.3210 C   0  0  0  0  0  0  0  0  0  0  0  0
   -1.6730   -0.8430    0.0220 C   0  0  2  0  0  0  0  0  0  0  0  0
   -3.0920   -0.7170    0.2970 N   0  0  0  0  0  0  0  0  0  0  0  0
   -3.8450    0.2190   -0.4510 C   0  0  0  0  0  0  0  0  0  0  0  0
   -3.3500    0.9400   -1.3320 O   0  0  0  0  0  0  0  0  0  0  0  0
   -5.3110    0.3310   -0.1490 C   0  0  0  0  0  0  0  0  0  0  0  0
   -5.8950    1.3730   -1.0510 C   0  0  0  0  0  0  0  0  0  0  0  0
   -7.3670    1.5100   -0.8140 C   0  0  2  0  0  0  0  0  0  0  0  0
   -7.8750    2.5360   -1.7300 N   0  0  0  0  0  0  0  0  0  0  0  0
   -7.6270    1.9620    0.5560 C   0  0  0  0  0  0  0  0  0  0  0  0
   -8.0500    3.1460    0.7330 O   0  0  0  0  0  0  0  0  0  0  0  0
   -7.4460    1.1770    1.6910 O   0  0  0  0  0  0  0  0  0  0  0  0
   -1.4560   -2.2210   -0.4550 C   0  0  0  0  0  0  0  0  0  0  0  0
   -2.3970   -3.0730   -0.5350 O   0  0  0  0  0  0  0  0  0  0  0  0
   -0.1870   -2.6630   -0.8480 N   0  0  0  0  0  0  0  0  0  0  0  0
    0.0190   -4.0250   -1.3150 C   0  0  0  0  0  0  0  0  0  0  0  0
   -0.3400   -5.0220   -0.2910 C   0  0  0  0  0  0  0  0  0  0  0  0
   -0.7590   -4.6440    0.8180 O   0  0  0  0  0  0  0  0  0  0  0  0
   -0.2150   -6.3640   -0.5570 O   0  0  0  0  0  0  0  0  0  0  0  0
    3.8200    0.7600    1.3080 C   0  0  0  0  0  0  0  0  0  0  0  0
    5.1960    0.6530    1.2500 C   0  0  0  0  0  0  0  0  0  0  0  0
    5.9910    0.8850    2.3590 O   0  0  0  0  0  0  0  0  0  0  0  0
    5.3450    1.2400    3.5660 C   0  0  0  0  0  0  0  0  0  0  0  0
    5.7900    0.3040    0.0470 C   0  0  0  0  0  0  0  0  0  0  0  0
    7.1470    0.2000   -0.0020 O   0  0  0  0  0  0  0  0  0  0  0  0
    7.8890   -0.9710    0.2540 C   0  0  0  0  0  0  0  0  0  0  0  0
  1  2  1  0
  2  3  1  0
  3  4  2  0
  3 35  1  0
  4  5  1  0
  5  6  1  0
  5 31  2  0
  6  7  1  1
  6 11  1  0
  7  8  1  0
  8  9  2  0
  8 10  1  0
 11 12  1  0
 13 12  1  1
 13 14  1  0
 13 24  1  0
 14 15  1  0
 15 16  2  0
 15 17  1  0
 17 18  1  0
 18 19  1  0
 19 20  1  6
 19 21  1  0
 21 22  2  0
 21 23  1  0
 24 25  2  0
 24 26  1  0
 26 27  1  0
 27 28  1  0
 28 29  2  0
 28 30  1  0
 31 32  1  0
 32 33  1  0
 32 35  2  0
 33 34  1  0
 35 36  1  0
 36 37  1  0
M  CHG  1  20   1
M  END
