
     RDKit          3D

 37 39  0  0  0  0  0  0  0  0999 V2000
   -6.2460    0.9430   -1.6840 C   0  0  0  0  0  0  0  0  0  0  0  0
   -5.2430    1.5530   -0.7450 C   0  0  0  0  0  0  0  0  0  0  0  0
   -4.2700    0.6790   -0.0960 C   0  0  0  0  0  0  0  0  0  0  0  0
   -4.5480   -0.3580    0.8670 C   0  0  2  0  0  0  0  0  0  0  0  0
   -5.3980   -1.5270    0.6440 C   0  0  0  0  0  0  0  0  0  0  0  0
   -7.1060   -1.3030    0.2770 S   0  0  0  0  0  0  0  0  0  0  0  0
   -7.8900   -2.8900    0.0520 C   0  0  0  0  0  0  0  0  0  0  0  0
   -7.8270   -0.3720    1.1970 O   0  0  0  0  0  0  0  0  0  0  0  0
   -5.0140    0.2720    2.1970 C   0  0  0  0  0  0  0  0  0  0  0  0
   -4.0070    1.2400    2.7270 C   0  0  0  0  0  0  0  0  0  0  0  0
   -2.5980    0.7030    2.8140 C   0  0  0  0  0  0  0  0  0  0  0  0
   -2.2530    0.1120    1.5570 N   0  0  0  0  0  0  0  0  0  0  0  0
   -1.2000    0.5010    0.6880 C   0  0  0  0  0  0  0  0  0  0  0  0
   -1.0290   -0.1820   -0.3860 O   0  0  0  0  0  0  0  0  0  0  0  0
   -0.2940    1.6110    0.8980 C   0  0  0  0  0  0  0  0  0  0  0  0
   -0.3190    2.4670    1.9270 O   0  0  0  0  0  0  0  0  0  0  0  0
    0.6300    3.3480    1.7970 C   0  0  0  0  0  0  0  0  0  0  0  0
    1.3490    3.0930    0.6240 C   0  0  0  0  0  0  0  0  0  0  0  0
    0.7340    1.9810    0.0820 C   0  0  0  0  0  0  0  0  0  0  0  0
    1.2220    1.2930   -1.1310 C   0  0  0  0  0  0  0  0  0  0  0  0
    1.3260    1.9090   -2.2190 O   0  0  0  0  0  0  0  0  0  0  0  0
    1.5770   -0.0610   -1.0690 N   0  0  0  0  0  0  0  0  0  0  0  0
    2.0430   -0.8320   -2.2010 C   0  0  0  0  0  0  0  0  0  0  0  0
    3.2900   -0.2190   -2.7840 C   0  0  0  0  0  0  0  0  0  0  0  0
    4.3800   -0.0890   -1.9950 O   0  0  0  0  0  0  0  0  0  0  0  0
    5.1550   -0.9950   -1.3830 C   0  0  0  0  0  0  0  0  0  0  0  0
    4.9420   -2.3530   -1.4940 C   0  0  0  0  0  0  0  0  0  0  0  0
    5.7690   -3.2690   -0.8420 C   0  0  0  0  0  0  0  0  0  0  0  0
    5.5370   -4.7480   -0.9600 C   0  0  0  0  0  0  0  0  0  0  0  0
    6.8000   -2.7630   -0.0920 C   0  0  0  0  0  0  0  0  0  0  0  0
    7.0260   -1.4130    0.0270 C   0  0  0  0  0  0  0  0  0  0  0  0
    6.2210   -0.5070   -0.6070 C   0  0  0  0  0  0  0  0  0  0  0  0
    6.4140    0.9490   -0.5420 C   0  0  1  0  0  0  0  0  0  0  0  0
    6.2810    1.4740   -1.9010 N   0  0  0  0  0  0  0  0  0  0  0  0
    5.2310    1.8080    0.4880 S   0  0  0  0  0  0  0  0  0  0  0  0
    5.6230    3.5820    0.4260 C   0  0  0  0  0  0  0  0  0  0  0  0
   -3.1390   -1.0000    1.1650 C   0  0  0  0  0  0  0  0  0  0  0  0
  1  2  1  0
  2  3  1  0
  4  3  1  6
  4  5  1  0
  4  9  1  0
  4 37  1  0
  5  6  1  0
  6  7  1  1
  6  8  2  0
  9 10  1  0
 10 11  1  0
 11 12  1  0
 12 13  1  0
 12 37  1  0
 13 14  2  0
 13 15  1  0
 15 16  1  0
 15 19  2  0
 16 17  1  0
 17 18  2  0
 18 19  1  0
 19 20  1  0
 20 21  2  0
 20 22  1  0
 22 23  1  0
 23 24  1  0
 24 25  1  0
 25 26  1  0
 26 27  2  0
 26 32  1  0
 27 28  1  0
 28 29  1  0
 28 30  2  0
 30 31  1  0
 31 32  2  0
 32 33  1  0
 33 34  1  6
 33 35  1  0
 35 36  1  0
M  END
