
     RDKit          3D

 21 22  0  0  0  0  0  0  0  0999 V2000
   -5.7440    1.0480   -0.5180 C   0  0  0  0  0  0  0  0  0  0  0  0
   -4.3970    1.5740   -0.9520 C   0  0  0  0  0  0  0  0  0  0  0  0
   -3.3200    0.7090   -0.4290 C   0  0  0  0  0  0  0  0  0  0  0  0
   -1.9930    0.9250   -0.6500 N   0  0  0  0  0  0  0  0  0  0  0  0
   -1.3100   -0.0370   -0.0380 C   0  0  0  0  0  0  0  0  0  0  0  0
    0.1280   -0.1790   -0.0260 N   0  0  0  0  0  0  0  0  0  0  0  0
    0.9690    0.7290   -0.6860 C   0  0  0  0  0  0  0  0  0  0  0  0
    0.3010    1.6840   -1.2870 O   0  0  0  0  0  0  0  0  0  0  0  0
    2.3920    0.7410   -0.7830 C   0  0  0  0  0  0  0  0  0  0  0  0
    2.9370    1.8900   -1.5730 C   0  0  0  0  0  0  0  0  0  0  0  0
    2.0860    2.8650   -2.1520 N   0  0  0  0  0  0  0  0  0  0  0  0
    4.1720    1.9580   -1.7040 O   0  0  0  0  0  0  0  0  0  0  0  0
    3.2000   -0.1420   -0.2680 C   0  0  0  0  0  0  0  0  0  0  0  0
    4.6970   -0.0400   -0.4180 C   0  0  0  0  0  0  0  0  0  0  0  0
    5.1920   -1.2230    0.3510 C   0  0  0  0  0  0  0  0  0  0  0  0
    4.1790   -2.1030    0.5150 O   0  0  0  0  0  0  0  0  0  0  0  0
    2.9810   -1.3730    0.4800 C   0  0  0  0  0  0  0  0  0  0  0  0
   -2.1780   -0.8830    0.5840 C   0  0  0  0  0  0  0  0  0  0  0  0
   -1.8310   -2.0720    1.3750 C   0  0  0  0  0  0  0  0  0  0  0  0
   -1.3180   -1.7310    2.7590 C   0  0  0  0  0  0  0  0  0  0  0  0
   -3.4060   -0.4080    0.3320 N   0  0  0  0  0  0  0  0  0  0  0  0
  1  2  1  0
  2  3  1  0
  3  4  2  0
  3 21  1  0
  4  5  1  0
  5  6  1  0
  5 18  2  0
  6  7  1  0
  7  8  2  0
  7  9  1  0
  9 10  1  0
  9 13  2  3
 10 11  1  0
 10 12  2  0
 13 14  1  0
 13 17  1  0
 14 15  1  0
 15 16  1  0
 16 17  1  0
 18 19  1  0
 18 21  1  0
 19 20  1  0
M  END
