
     RDKit          3D

 21 23  0  0  0  0  0  0  0  0999 V2000
    3.6690    1.3270    0.8450 C   0  0  0  0  0  0  0  0  0  0  0  0
    2.2020    1.4420    0.5080 C   0  0  2  0  0  0  0  0  0  0  0  0
    2.0240    2.5360   -0.5360 C   0  0  0  0  0  0  0  0  0  0  0  0
    1.5140    1.8180    1.6340 O   0  0  0  0  0  0  0  0  0  0  0  0
    1.6790    0.1430   -0.0450 C   0  0  0  0  0  0  0  0  0  0  0  0
    2.4980   -0.7450   -0.6180 N   0  0  0  0  0  0  0  0  0  0  0  0
    2.1150   -1.9260   -1.1260 C   0  0  0  0  0  0  0  0  0  0  0  0
    0.7650   -2.2620   -1.0560 C   0  0  0  0  0  0  0  0  0  0  0  0
    0.2920   -3.4610   -1.5280 C   0  0  0  0  0  0  0  0  0  0  0  0
   -1.0450   -3.7090   -1.3820 C   0  0  0  0  0  0  0  0  0  0  0  0
   -1.8850   -2.7990   -0.7930 C   0  0  0  0  0  0  0  0  0  0  0  0
   -1.4370   -1.5980   -0.3190 C   0  0  0  0  0  0  0  0  0  0  0  0
   -2.2760   -0.6230    0.3480 C   0  0  0  0  0  0  0  0  0  0  0  0
   -2.0250    0.6460    0.6220 N   0  0  0  0  0  0  0  0  0  0  0  0
   -3.1060    1.2330    1.2220 C   0  0  0  0  0  0  0  0  0  0  0  0
   -3.2580    2.6560    1.6100 C   0  0  0  0  0  0  0  0  0  0  0  0
   -2.5540    3.0070    2.7360 F   0  0  0  0  0  0  0  0  0  0  0  0
   -4.0250    0.2740    1.3060 N   0  0  0  0  0  0  0  0  0  0  0  0
   -3.5330   -0.8550    0.7780 N   0  0  0  0  0  0  0  0  0  0  0  0
   -0.0720   -1.3420   -0.4650 C   0  0  0  0  0  0  0  0  0  0  0  0
    0.3640   -0.1490    0.0390 N   0  0  0  0  0  0  0  0  0  0  0  0
  2  1  1  1
  2  3  1  0
  2  4  1  0
  2  5  1  0
  5  6  2  0
  5 21  1  0
  6  7  1  0
  7  8  2  0
  8  9  1  0
  8 20  1  0
  9 10  2  0
 10 11  1  0
 11 12  2  0
 12 13  1  0
 12 20  1  0
 13 14  2  0
 13 19  1  0
 14 15  1  0
 15 16  1  0
 15 18  2  0
 16 17  1  0
 18 19  1  0
 20 21  2  0
M  END
