
     RDKit          3D

 21 23  0  0  0  0  0  0  0  0999 V2000
    2.5040   -2.6900   -1.6880 O   0  0  0  0  0  0  0  0  0  0  0  0
    1.3160   -2.4120   -1.4410 C   0  0  0  0  0  0  0  0  0  0  0  0
    0.2300   -3.1340   -1.7320 N   0  0  0  0  0  0  0  0  0  0  0  0
   -0.8120   -2.4790   -1.2970 N   0  0  0  0  0  0  0  0  0  0  0  0
   -0.3770   -1.2980   -0.7090 C   0  0  0  0  0  0  0  0  0  0  0  0
   -1.3330   -0.3700   -0.1370 C   0  0  0  0  0  0  0  0  0  0  0  0
   -0.9650    0.7960    0.4500 C   0  0  0  0  0  0  0  0  0  0  0  0
   -1.9240    1.6840    1.0000 C   0  0  0  0  0  0  0  0  0  0  0  0
   -3.2490    1.3550    0.9370 C   0  0  0  0  0  0  0  0  0  0  0  0
   -4.2160    2.2070    1.4690 O   0  0  0  0  0  0  0  0  0  0  0  0
   -3.6580    0.1790    0.3490 C   0  0  0  0  0  0  0  0  0  0  0  0
   -2.6970   -0.6500   -0.1710 C   0  0  0  0  0  0  0  0  0  0  0  0
   -3.1120   -1.8260   -0.7590 O   0  0  0  0  0  0  0  0  0  0  0  0
    0.9290   -1.2610   -0.7990 N   0  0  0  0  0  0  0  0  0  0  0  0
    1.8390   -0.2710   -0.3520 C   0  0  0  0  0  0  0  0  0  0  0  0
    2.4170   -0.3150    0.9100 C   0  0  0  0  0  0  0  0  0  0  0  0
    3.3270    0.6170    1.3500 C   0  0  0  0  0  0  0  0  0  0  0  0
    3.6920    1.6450    0.5170 C   0  0  0  0  0  0  0  0  0  0  0  0
    3.1410    1.7240   -0.7430 C   0  0  0  0  0  0  0  0  0  0  0  0
    2.2290    0.7890   -1.1830 C   0  0  0  0  0  0  0  0  0  0  0  0
    1.7040    0.9040   -2.4460 F   0  0  0  0  0  0  0  0  0  0  0  0
  1  2  2  0
  2  3  1  0
  2 14  1  0
  3  4  1  0
  4  5  2  0
  5  6  1  0
  5 14  1  0
  6  7  2  0
  6 12  1  0
  7  8  1  0
  8  9  2  0
  9 10  1  0
  9 11  1  0
 11 12  2  0
 12 13  1  0
 14 15  1  0
 15 16  2  0
 15 20  1  0
 16 17  1  0
 17 18  2  0
 18 19  1  0
 19 20  2  0
 20 21  1  0
M  END
