
     RDKit          3D

 20 22  0  0  0  0  0  0  0  0999 V2000
    4.9230    1.2560    0.4690 C   0  0  0  0  0  0  0  0  0  0  0  0
    3.8370    0.2530    0.6820 C   0  0  0  0  0  0  0  0  0  0  0  0
    4.0730   -0.8880    1.4290 C   0  0  0  0  0  0  0  0  0  0  0  0
    3.1060   -1.8390    1.6520 C   0  0  0  0  0  0  0  0  0  0  0  0
    1.8580   -1.6250    1.1000 C   0  0  0  0  0  0  0  0  0  0  0  0
    0.7310   -2.3480    1.1350 N   0  0  0  0  0  0  0  0  0  0  0  0
   -0.2050   -1.6730    0.4200 C   0  0  0  0  0  0  0  0  0  0  0  0
   -1.5600   -2.1760    0.2490 C   0  0  0  0  0  0  0  0  0  0  0  0
   -2.5210   -1.6570   -0.3830 N   0  0  0  0  0  0  0  0  0  0  0  0
   -2.5260   -0.4710   -1.0770 C   0  0  0  0  0  0  0  0  0  0  0  0
   -2.1980   -0.4340   -2.4350 C   0  0  0  0  0  0  0  0  0  0  0  0
   -2.2340    0.7370   -3.0840 N   0  0  0  0  0  0  0  0  0  0  0  0
   -2.5730    1.8800   -2.4780 C   0  0  0  0  0  0  0  0  0  0  0  0
   -2.9010    1.8690   -1.1400 C   0  0  0  0  0  0  0  0  0  0  0  0
   -2.8830    0.6980   -0.4180 C   0  0  0  0  0  0  0  0  0  0  0  0
   -3.2280    0.6470    1.0200 C   0  0  0  0  0  0  0  0  0  0  0  0
   -3.5430    1.9420    1.4230 O   0  0  0  0  0  0  0  0  0  0  0  0
    0.3380   -0.5450   -0.0520 N   0  0  0  0  0  0  0  0  0  0  0  0
    1.6380   -0.4920    0.3630 C   0  0  0  0  0  0  0  0  0  0  0  0
    2.6090    0.4090    0.1690 N   0  0  0  0  0  0  0  0  0  0  0  0
  1  2  1  0
  2  3  2  0
  2 20  1  0
  3  4  1  0
  4  5  2  0
  5  6  1  0
  5 19  1  0
  6  7  2  0
  7  8  1  0
  7 18  1  0
  8  9  2  3
  9 10  1  0
 10 11  2  0
 10 15  1  0
 11 12  1  0
 12 13  2  0
 13 14  1  0
 14 15  2  0
 15 16  1  0
 16 17  1  0
 18 19  1  0
 19 20  2  0
M  END
