
     RDKit          3D

 21 23  0  0  0  0  0  0  0  0999 V2000
    0.0090   -2.1010    2.6550 O   0  0  0  0  0  0  0  0  0  0  0  0
   -0.0880   -1.3430    1.6550 C   0  0  0  0  0  0  0  0  0  0  0  0
    0.9900   -0.8930    0.9980 N   0  0  0  0  0  0  0  0  0  0  0  0
    0.9440   -0.0870   -0.0680 C   0  0  0  0  0  0  0  0  0  0  0  0
    2.0910    0.3770   -0.7440 N   0  0  0  0  0  0  0  0  0  0  0  0
    3.4320    0.1000   -0.4490 C   0  0  0  0  0  0  0  0  0  0  0  0
    3.8910   -0.7610    0.5140 C   0  0  0  0  0  0  0  0  0  0  0  0
    5.2600   -0.9310    0.7020 C   0  0  0  0  0  0  0  0  0  0  0  0
    6.2110   -0.2730   -0.0370 C   0  0  0  0  0  0  0  0  0  0  0  0
    7.5340   -0.4790    0.1900 F   0  0  0  0  0  0  0  0  0  0  0  0
    5.7560    0.5920   -1.0060 C   0  0  0  0  0  0  0  0  0  0  0  0
    4.4070    0.7700   -1.2020 C   0  0  0  0  0  0  0  0  0  0  0  0
   -0.3020    0.2650   -0.4670 N   0  0  0  0  0  0  0  0  0  0  0  0
   -1.4160   -0.1790    0.1840 C   0  0  0  0  0  0  0  0  0  0  0  0
   -2.6780    0.2420   -0.3080 N   0  0  0  0  0  0  0  0  0  0  0  0
   -3.3260    1.4580    0.1000 C   0  0  0  0  0  0  0  0  0  0  0  0
   -4.7690    1.4800   -0.2010 C   0  0  0  0  0  0  0  0  0  0  0  0
   -5.4160    0.3750   -0.5440 C   0  0  0  0  0  0  0  0  0  0  0  0
   -4.6990   -0.9240   -0.6350 C   0  0  0  0  0  0  0  0  0  0  0  0
   -3.3360   -0.6150   -1.2700 C   0  0  0  0  0  0  0  0  0  0  0  0
   -1.3160   -0.9810    1.2410 N   0  0  0  0  0  0  0  0  0  0  0  0
  1  2  2  0
  2  3  1  0
  2 21  1  0
  3  4  2  0
  4  5  1  0
  4 13  1  0
  5  6  1  0
  6  7  2  0
  6 12  1  0
  7  8  1  0
  8  9  2  0
  9 10  1  0
  9 11  1  0
 11 12  2  0
 13 14  1  0
 14 15  1  0
 14 21  2  0
 15 16  1  0
 15 20  1  0
 16 17  1  0
 17 18  2  0
 18 19  1  0
 19 20  1  0
M  END
