
     RDKit          3D

 21 23  0  0  0  0  0  0  0  0999 V2000
   -3.2070   -1.2370    1.4950 C   0  0  0  0  0  0  0  0  0  0  0  0
   -3.2750   -1.3070   -0.0180 C   0  0  0  0  0  0  0  0  0  0  0  0
   -3.0610    0.0290   -0.5860 C   0  0  0  0  0  0  0  0  0  0  0  0
   -4.1750    0.7140   -1.0130 C   0  0  0  0  0  0  0  0  0  0  0  0
   -4.1240    1.9790   -1.5540 C   0  0  0  0  0  0  0  0  0  0  0  0
   -2.9470    2.5650   -1.6680 N   0  0  0  0  0  0  0  0  0  0  0  0
   -1.8230    1.9030   -1.2490 C   0  0  0  0  0  0  0  0  0  0  0  0
   -1.8360    0.6500   -0.7100 C   0  0  0  0  0  0  0  0  0  0  0  0
   -0.7090   -0.0630   -0.2880 N   0  0  0  0  0  0  0  0  0  0  0  0
    0.6390    0.3930   -0.2890 C   0  0  0  0  0  0  0  0  0  0  0  0
    0.9080    1.5480   -0.6980 O   0  0  0  0  0  0  0  0  0  0  0  0
    1.7290   -0.4760    0.1880 C   0  0  0  0  0  0  0  0  0  0  0  0
    1.6470   -1.7170    0.6390 N   0  0  0  0  0  0  0  0  0  0  0  0
    2.8660   -2.1650    0.9800 N   0  0  0  0  0  0  0  0  0  0  0  0
    3.7930   -1.2010    0.7530 C   0  0  0  0  0  0  0  0  0  0  0  0
    5.1330   -1.1490    0.9260 N   0  0  0  0  0  0  0  0  0  0  0  0
    5.7540   -0.0060    0.5910 C   0  0  0  0  0  0  0  0  0  0  0  0
    7.1050    0.0570    0.7630 F   0  0  0  0  0  0  0  0  0  0  0  0
    5.1260    1.1050    0.0870 C   0  0  0  0  0  0  0  0  0  0  0  0
    3.7480    1.0380   -0.0870 C   0  0  0  0  0  0  0  0  0  0  0  0
    3.0550   -0.1270    0.2470 C   0  0  0  0  0  0  0  0  0  0  0  0
  1  2  1  0
  2  3  1  0
  3  4  2  0
  3  8  1  0
  4  5  1  0
  5  6  2  0
  6  7  1  0
  7  8  2  0
  8  9  1  0
  9 10  1  0
 10 11  2  0
 10 12  1  0
 12 13  2  0
 12 21  1  0
 13 14  1  0
 14 15  1  0
 15 16  2  0
 15 21  1  0
 16 17  1  0
 17 18  1  0
 17 19  2  0
 19 20  1  0
 20 21  2  0
M  END
