
     RDKit          3D

 48 52  0  0  0  0  0  0  0  0999 V2000
   -6.0270    6.2480    0.8640 C   0  0  0  0  0  0  0  0  0  0  0  0
   -5.5530    5.0150    1.4350 N   0  0  0  0  0  0  0  0  0  0  0  0
   -5.1830    3.8710    0.6520 C   0  0  0  0  0  0  0  0  0  0  0  0
   -5.2890    3.9270   -0.5780 O   0  0  0  0  0  0  0  0  0  0  0  0
   -4.6930    2.6860    1.2880 N   0  0  0  0  0  0  0  0  0  0  0  0
   -4.2400    1.5090    0.5290 C   0  0  0  0  0  0  0  0  0  0  0  0
   -3.0610    1.8560   -0.2990 C   0  0  1  0  0  0  0  0  0  0  0  0
   -1.9890    2.3090    0.4480 O   0  0  0  0  0  0  0  0  0  0  0  0
   -2.7400    0.9060   -1.3950 C   0  0  0  0  0  0  0  0  0  0  0  0
   -2.2020   -0.3360   -1.3110 N   0  0  2  0  0  0  0  0  0  0  0  0
   -3.1000   -1.5030   -1.4830 C   0  0  0  0  0  0  0  0  0  0  0  0
   -4.5520   -1.0530   -1.3520 C   0  0  0  0  0  0  0  0  0  0  0  0
   -5.1840   -1.5270   -0.2530 C   0  0  0  0  0  0  0  0  0  0  0  0
   -6.5970   -1.1500   -0.0260 C   0  0  0  0  0  0  0  0  0  0  0  0
   -7.3370   -0.6700   -1.0690 C   0  0  0  0  0  0  0  0  0  0  0  0
   -8.6380   -0.2250   -0.7340 C   0  0  0  0  0  0  0  0  0  0  0  0
   -9.1460   -0.2490    0.5090 C   0  0  0  0  0  0  0  0  0  0  0  0
   -8.3550   -0.7490    1.5550 C   0  0  0  0  0  0  0  0  0  0  0  0
   -7.0870   -1.1960    1.2710 C   0  0  0  0  0  0  0  0  0  0  0  0
   -1.5680   -0.6460   -0.0100 C   0  0  0  0  0  0  0  0  0  0  0  0
   -0.4600   -1.6100   -0.2900 C   0  0  0  0  0  0  0  0  0  0  0  0
   -0.7620   -2.7860   -0.7750 N   0  0  0  0  0  0  0  0  0  0  0  0
    0.4840   -3.5040   -0.9620 C   0  0  0  0  0  0  0  0  0  0  0  0
    0.5550   -4.4510   -1.7440 O   0  0  0  0  0  0  0  0  0  0  0  0
    1.4310   -2.8150   -0.0580 C   0  0  1  0  0  0  0  0  0  0  0  0
    1.2210   -3.3580    1.3680 C   0  0  0  0  0  0  0  0  0  0  0  0
    1.2070   -4.8540    1.3720 C   0  0  0  0  0  0  0  0  0  0  0  0
    2.4830   -5.4350    1.3770 O   0  0  0  0  0  0  0  0  0  0  0  0
    3.3750   -5.3240    0.2930 C   0  0  0  0  0  0  0  0  0  0  0  0
    4.3220   -6.1390    0.3190 O   0  0  0  0  0  0  0  0  0  0  0  0
    3.2970   -4.3930   -0.7950 C   0  0  0  0  0  0  0  0  0  0  0  0
    2.8640   -3.0060   -0.3460 C   0  0  0  0  0  0  0  0  0  0  0  0
    0.9380   -1.4470   -0.1710 N   0  0  0  0  0  0  0  0  0  0  0  0
    1.6650   -0.2060   -0.1530 C   0  0  0  0  0  0  0  0  0  0  0  0
    1.1080    0.9110   -0.8150 C   0  0  0  0  0  0  0  0  0  0  0  0
    1.8080    2.0770   -0.9530 C   0  0  0  0  0  0  0  0  0  0  0  0
    3.0620    2.2120   -0.4620 C   0  0  0  0  0  0  0  0  0  0  0  0
    3.6850    1.1230    0.2080 C   0  0  0  0  0  0  0  0  0  0  0  0
    5.1070    1.1930    0.3860 C   0  0  0  0  0  0  0  0  0  0  0  0
    6.2650    1.2420    0.5430 C   0  0  0  0  0  0  0  0  0  0  0  0
    7.6760    1.2810    0.7460 C   0  0  0  0  0  0  0  0  0  0  0  0
    8.3780    2.3080    1.3430 C   0  0  0  0  0  0  0  0  0  0  0  0
    9.7440    2.4180    1.4220 C   0  0  0  0  0  0  0  0  0  0  0  0
   10.5570    1.4110    0.8580 C   0  0  0  0  0  0  0  0  0  0  0  0
   12.0150    1.4510    0.8380 C   0  0  0  0  0  0  0  0  0  0  0  0
    9.8450    0.3920    0.2730 C   0  0  0  0  0  0  0  0  0  0  0  0
    8.5330    0.2660    0.1870 C   0  0  0  0  0  0  0  0  0  0  0  0
    2.9250   -0.0170    0.3200 C   0  0  0  0  0  0  0  0  0  0  0  0
  1  2  1  0
  2  3  1  0
  3  4  2  0
  3  5  1  0
  5  6  1  0
  6  7  1  0
  7  8  1  1
  7  9  1  0
 10  9  1  1
 10 11  1  0
 10 20  1  0
 11 12  1  0
 12 13  2  3
 13 14  1  0
 14 15  2  0
 14 19  1  0
 15 16  1  0
 16 17  2  0
 17 18  1  0
 18 19  2  0
 20 21  1  0
 21 22  2  0
 21 33  1  0
 22 23  1  0
 23 24  2  0
 23 25  1  0
 25 26  1  1
 25 32  1  0
 25 33  1  0
 26 27  1  0
 27 28  1  0
 28 29  1  0
 29 30  2  0
 29 31  1  0
 31 32  1  0
 33 34  1  0
 34 35  2  0
 34 48  1  0
 35 36  1  0
 36 37  2  0
 37 38  1  0
 38 39  1  0
 38 48  2  0
 39 40  3  0
 40 41  1  0
 41 42  2  0
 41 47  1  0
 42 43  1  0
 43 44  2  0
 44 45  1  0
 44 46  1  0
 46 47  2  0
M  CHG  1  10   1
M  END
