
     RDKit          3D

 47 51  0  0  0  0  0  0  0  0999 V2000
    7.2820    1.9140    0.8790 C   0  0  0  0  0  0  0  0  0  0  0  0
    7.9540    1.1170   -0.1950 C   0  0  0  0  0  0  0  0  0  0  0  0
    9.0740    1.5980   -0.8340 C   0  0  0  0  0  0  0  0  0  0  0  0
    9.6850    0.8460   -1.8280 C   0  0  0  0  0  0  0  0  0  0  0  0
    9.1670   -0.3710   -2.1670 C   0  0  0  0  0  0  0  0  0  0  0  0
    8.0420   -0.8200   -1.5040 C   0  0  0  0  0  0  0  0  0  0  0  0
    7.5900   -1.9410   -1.8360 O   0  0  0  0  0  0  0  0  0  0  0  0
    7.4670   -0.0750   -0.5440 N   0  0  0  0  0  0  0  0  0  0  0  0
    6.3160   -0.5730    0.1100 C   0  0  0  0  0  0  0  0  0  0  0  0
    6.4090   -1.5270    1.0750 C   0  0  0  0  0  0  0  0  0  0  0  0
    5.2450   -1.9870    1.6930 C   0  0  0  0  0  0  0  0  0  0  0  0
    4.0180   -1.5030    1.3530 C   0  0  0  0  0  0  0  0  0  0  0  0
    3.8850   -0.5180    0.3620 C   0  0  0  0  0  0  0  0  0  0  0  0
    2.5760   -0.0610    0.0440 N   0  0  0  0  0  0  0  0  0  0  0  0
    2.2450    1.0260   -0.7570 C   0  0  0  0  0  0  0  0  0  0  0  0
    3.1400    1.7230   -1.2910 O   0  0  0  0  0  0  0  0  0  0  0  0
    0.8500    1.4630   -1.0580 C   0  0  0  0  0  0  0  0  0  0  0  0
   -0.1160    0.5870   -0.3250 N   0  0  0  0  0  0  0  0  0  0  0  0
   -0.4600   -0.6270   -0.9670 C   0  0  0  0  0  0  0  0  0  0  0  0
   -1.3070   -1.5700   -0.7950 C   0  0  0  0  0  0  0  0  0  0  0  0
   -2.3580   -1.8210    0.2050 C   0  0  2  0  0  0  0  0  0  0  0  0
   -1.7640   -2.7470    1.2480 C   0  0  1  0  0  0  0  0  0  0  0  0
   -2.7610   -3.0770    2.3350 C   0  0  0  0  0  0  0  0  0  0  0  0
   -1.3710   -4.0550    0.5970 C   0  0  0  0  0  0  0  0  0  0  0  0
   -3.5250   -2.6240   -0.4220 C   0  0  0  0  0  0  0  0  0  0  0  0
   -4.3160   -1.7260   -1.3950 C   0  0  0  0  0  0  0  0  0  0  0  0
   -4.8640   -0.6990   -0.6420 O   0  0  0  0  0  0  0  0  0  0  0  0
   -5.7060    0.3420   -0.9380 C   0  0  0  0  0  0  0  0  0  0  0  0
   -6.9570    0.4070   -0.3110 C   0  0  0  0  0  0  0  0  0  0  0  0
   -7.8750    1.4010   -0.5340 C   0  0  0  0  0  0  0  0  0  0  0  0
   -7.5530    2.3970   -1.4260 C   0  0  0  0  0  0  0  0  0  0  0  0
   -6.3140    2.3610   -2.0670 C   0  0  0  0  0  0  0  0  0  0  0  0
   -5.4030    1.3520   -1.8280 C   0  0  0  0  0  0  0  0  0  0  0  0
   -4.2050    1.4440   -2.5330 O   0  0  0  0  0  0  0  0  0  0  0  0
   -2.9140    1.2770   -1.9910 C   0  0  0  0  0  0  0  0  0  0  0  0
   -2.3820    2.5950   -1.4810 C   0  0  0  0  0  0  0  0  0  0  0  0
   -1.6930    3.2680   -2.2730 O   0  0  0  0  0  0  0  0  0  0  0  0
   -2.6620    3.0290   -0.1640 N   0  0  0  0  0  0  0  0  0  0  0  0
   -2.7400    2.3000    1.0370 C   0  0  0  0  0  0  0  0  0  0  0  0
   -3.9230    2.5250    1.7940 C   0  0  0  0  0  0  0  0  0  0  0  0
   -4.1480    1.9060    2.9940 C   0  0  0  0  0  0  0  0  0  0  0  0
   -3.1870    1.0470    3.4600 C   0  0  0  0  0  0  0  0  0  0  0  0
   -2.0300    0.8020    2.7630 C   0  0  0  0  0  0  0  0  0  0  0  0
   -1.7820    1.4260    1.5300 C   0  0  0  0  0  0  0  0  0  0  0  0
   -0.4980    1.0900    0.9350 C   0  0  0  0  0  0  0  0  0  0  0  0
    0.5050    1.3140    1.7770 O   0  0  0  0  0  0  0  0  0  0  0  0
    5.0450   -0.0880   -0.2250 C   0  0  0  0  0  0  0  0  0  0  0  0
  1  2  1  0
  2  3  2  0
  2  8  1  0
  3  4  1  0
  4  5  2  0
  5  6  1  0
  6  7  2  0
  6  8  1  0
  8  9  1  0
  9 10  2  0
  9 47  1  0
 10 11  1  0
 11 12  2  0
 12 13  1  0
 13 14  1  0
 13 47  2  0
 14 15  1  0
 15 16  2  0
 15 17  1  0
 17 18  1  0
 18 19  1  0
 18 45  1  0
 19 20  2  0
 20 21  1  0
 21 22  1  0
 21 25  1  6
 22 23  1  1
 22 24  1  0
 25 26  1  0
 26 27  1  0
 27 28  1  0
 28 29  2  0
 28 33  1  0
 29 30  1  0
 30 31  2  0
 31 32  1  0
 32 33  2  0
 33 34  1  0
 34 35  1  0
 35 36  1  0
 36 37  2  0
 36 38  1  0
 38 39  1  0
 39 40  2  0
 39 44  1  0
 40 41  1  0
 41 42  2  0
 42 43  1  0
 43 44  2  0
 44 45  1  0
 45 46  2  0
M  END
