
     RDKit          3D

 48 53  0  0  0  0  0  0  0  0999 V2000
    9.7140    3.3650   -2.5650 C   0  0  0  0  0  0  0  0  0  0  0  0
    8.9070    2.3170   -1.8390 C   0  0  0  0  0  0  0  0  0  0  0  0
    9.5210    1.3230   -1.1040 C   0  0  0  0  0  0  0  0  0  0  0  0
    8.7960    0.3520   -0.4480 C   0  0  0  0  0  0  0  0  0  0  0  0
    9.5190   -0.6570    0.3630 C   0  0  0  0  0  0  0  0  0  0  0  0
    7.4160    0.3500   -0.5130 C   0  0  0  0  0  0  0  0  0  0  0  0
    6.7640    1.3380   -1.2420 C   0  0  0  0  0  0  0  0  0  0  0  0
    7.5300    2.3050   -1.8920 C   0  0  0  0  0  0  0  0  0  0  0  0
    5.3510    1.3390   -1.3070 N   0  0  0  0  0  0  0  0  0  0  0  0
    4.5260    0.3530   -0.6500 C   0  0  0  0  0  0  0  0  0  0  0  0
    3.1100    0.3970   -0.7730 N   0  0  0  0  0  0  0  0  0  0  0  0
    2.2170   -0.6600   -0.5280 C   0  0  0  0  0  0  0  0  0  0  0  0
    2.6620   -1.7890   -0.2920 O   0  0  0  0  0  0  0  0  0  0  0  0
    0.8270   -0.4300   -0.5440 N   0  0  0  0  0  0  0  0  0  0  0  0
   -0.1940   -1.4450   -0.3480 C   0  0  2  0  0  0  0  0  0  0  0  0
   -1.4720   -0.9670   -0.8950 C   0  0  0  0  0  0  0  0  0  0  0  0
   -1.8570   -1.3730   -2.0170 O   0  0  0  0  0  0  0  0  0  0  0  0
   -2.2910   -0.0560   -0.1980 N   0  0  0  0  0  0  0  0  0  0  0  0
   -3.3700    0.7490   -0.8110 C   0  0  0  0  0  0  0  0  0  0  0  0
   -4.6190   -0.0390   -0.6600 C   0  0  0  0  0  0  0  0  0  0  0  0
   -4.4630   -1.2030   -0.1340 O   0  0  0  0  0  0  0  0  0  0  0  0
   -5.9180    0.3360   -1.0110 N   0  0  0  0  0  0  0  0  0  0  0  0
   -6.9900   -0.6330   -0.7380 C   0  0  0  0  0  0  0  0  0  0  0  0
   -7.5440   -0.5190    0.6320 C   0  0  0  0  0  0  0  0  0  0  0  0
   -6.9410    0.3180    1.5470 C   0  0  0  0  0  0  0  0  0  0  0  0
   -7.4600    0.3670    2.8500 C   0  0  0  0  0  0  0  0  0  0  0  0
   -8.5380   -0.3790    3.2390 C   0  0  0  0  0  0  0  0  0  0  0  0
   -9.1090   -1.1920    2.3060 C   0  0  0  0  0  0  0  0  0  0  0  0
   -8.6300   -1.2780    0.9990 C   0  0  0  0  0  0  0  0  0  0  0  0
   -6.2470    1.5830   -1.6470 C   0  0  1  0  0  0  0  0  0  0  0  0
   -5.7240    2.8140   -0.9740 C   0  0  0  0  0  0  0  0  0  0  0  0
   -5.7710    1.6460   -3.1110 C   0  0  2  0  0  0  0  0  0  0  0  0
   -6.1280    2.9570   -3.7600 C   0  0  0  0  0  0  0  0  0  0  0  0
   -6.7660    1.6190   -4.1840 C   0  0  0  0  0  0  0  0  0  0  0  0
   -2.0990    0.0710    1.2280 C   0  0  0  0  0  0  0  0  0  0  0  0
   -2.8270    0.8770    1.8520 O   0  0  0  0  0  0  0  0  0  0  0  0
   -1.0740   -0.7420    1.8480 C   0  0  0  0  0  0  0  0  0  0  0  0
   -1.0030   -0.8070    3.2560 C   0  0  0  0  0  0  0  0  0  0  0  0
   -0.1580   -1.7230    3.8450 C   0  0  0  0  0  0  0  0  0  0  0  0
    0.6310   -2.5870    3.1600 C   0  0  0  0  0  0  0  0  0  0  0  0
    1.5160   -3.5630    3.7500 C   0  0  0  0  0  0  0  0  0  0  0  0
    2.3800   -4.3990    2.9760 N   0  0  0  0  0  0  0  0  0  0  0  0
    1.5600   -3.7190    4.9950 O   0  0  0  0  0  0  0  0  0  0  0  0
    0.5480   -2.5060    1.7580 C   0  0  0  0  0  0  0  0  0  0  0  0
   -0.2740   -1.6090    1.1500 C   0  0  0  0  0  0  0  0  0  0  0  0
    5.1700   -0.5680    0.0220 C   0  0  0  0  0  0  0  0  0  0  0  0
    6.6500   -0.6870    0.1680 C   0  0  1  0  0  0  0  0  0  0  0  0
    7.0230   -2.1050   -0.1950 C   0  0  0  0  0  0  0  0  0  0  0  0
  1  2  1  0
  2  3  2  0
  2  8  1  0
  3  4  1  0
  4  5  1  0
  4  6  2  0
  6  7  1  0
  6 47  1  0
  7  8  2  0
  7  9  1  0
  9 10  1  0
 10 11  1  0
 10 46  2  0
 11 12  1  0
 12 13  2  0
 12 14  1  0
 15 14  1  1
 15 16  1  0
 15 45  1  0
 16 17  2  0
 16 18  1  0
 18 19  1  0
 18 35  1  0
 19 20  1  0
 20 21  2  0
 20 22  1  0
 22 23  1  0
 22 30  1  0
 23 24  1  0
 24 25  2  0
 24 29  1  0
 25 26  1  0
 26 27  2  0
 27 28  1  0
 28 29  2  0
 30 31  1  1
 30 32  1  0
 32 33  1  1
 32 34  1  0
 33 34  1  0
 35 36  2  0
 35 37  1  0
 37 38  2  0
 37 45  1  0
 38 39  1  0
 39 40  2  0
 40 41  1  0
 40 44  1  0
 41 42  1  0
 41 43  2  0
 44 45  2  0
 46 47  1  0
 47 48  1  6
M  END
