
     RDKit          3D

 47 53  0  0  0  0  0  0  0  0999 V2000
  -11.8550    0.0900    0.0340 C   0  0  0  0  0  0  0  0  0  0  0  0
  -11.0880   -1.1790   -0.1150 C   0  0  0  0  0  0  0  0  0  0  0  0
   -9.7140   -0.9690   -0.6970 C   0  0  0  0  0  0  0  0  0  0  0  0
   -9.6380   -0.9840   -1.9230 O   0  0  0  0  0  0  0  0  0  0  0  0
   -8.5910   -0.7680    0.2000 C   0  0  0  0  0  0  0  0  0  0  0  0
   -8.8370   -0.5660    1.5660 C   0  0  0  0  0  0  0  0  0  0  0  0
   -7.8030   -0.3560    2.4320 C   0  0  0  0  0  0  0  0  0  0  0  0
   -6.5020   -0.3350    2.0110 C   0  0  0  0  0  0  0  0  0  0  0  0
   -6.2320   -0.5280    0.6880 C   0  0  0  0  0  0  0  0  0  0  0  0
   -7.2910   -0.7470   -0.2230 C   0  0  0  0  0  0  0  0  0  0  0  0
   -6.8350   -0.9600   -1.6160 C   0  0  0  0  0  0  0  0  0  0  0  0
   -5.9920    0.2420   -2.0230 C   0  0  0  0  0  0  0  0  0  0  0  0
   -4.9140    0.5220   -1.0230 C   0  0  0  0  0  0  0  0  0  0  0  0
   -4.8850   -0.5350    0.0790 C   0  0  1  0  0  0  0  0  0  0  0  0
   -3.8230   -0.1660    0.9650 N   0  0  0  0  0  0  0  0  0  0  0  0
   -2.4420   -0.2450    0.5920 C   0  0  0  0  0  0  0  0  0  0  0  0
   -2.1070   -0.6850   -0.6310 N   0  0  0  0  0  0  0  0  0  0  0  0
   -0.8100   -0.7730   -1.0150 C   0  0  0  0  0  0  0  0  0  0  0  0
   -0.4430   -1.2640   -2.3780 C   0  0  0  0  0  0  0  0  0  0  0  0
    0.1620   -0.3960   -0.1110 C   0  0  0  0  0  0  0  0  0  0  0  0
    1.5100   -0.4710   -0.4620 C   0  0  0  0  0  0  0  0  0  0  0  0
    1.7820   -0.8790   -1.6060 O   0  0  0  0  0  0  0  0  0  0  0  0
    2.4620   -0.0870    0.4680 C   0  0  0  0  0  0  0  0  0  0  0  0
    3.7900   -0.1610    0.1120 C   0  0  0  0  0  0  0  0  0  0  0  0
    4.3470   -0.5850   -1.1560 C   0  0  0  0  0  0  0  0  0  0  0  0
    5.5460    0.0590   -1.5490 C   0  0  0  0  0  0  0  0  0  0  0  0
    6.1790   -0.2260   -2.7360 C   0  0  0  0  0  0  0  0  0  0  0  0
    7.3420    0.3400   -3.2030 O   0  0  0  0  0  0  0  0  0  0  0  0
    8.0450    1.2920   -2.4580 C   0  0  0  0  0  0  0  0  0  0  0  0
    8.6350    0.7850   -1.1930 C   0  0  0  0  0  0  0  0  0  0  0  0
    8.5380   -0.4470   -0.7910 C   0  0  0  0  0  0  0  0  0  0  0  0
    9.1650   -0.8570    0.4970 C   0  0  0  0  0  0  0  0  0  0  0  0
    9.0840    0.2400    1.5270 C   0  0  0  0  0  0  0  0  0  0  0  0
    9.5610    1.5650    0.9730 C   0  0  0  0  0  0  0  0  0  0  0  0
    9.3350    1.6910   -0.3970 O   0  0  0  0  0  0  0  0  0  0  0  0
    5.5870   -1.1840   -3.5430 C   0  0  0  0  0  0  0  0  0  0  0  0
    4.4210   -1.7890   -3.1270 C   0  0  0  0  0  0  0  0  0  0  0  0
    3.8430   -1.4740   -1.9590 N   0  0  0  0  0  0  0  0  0  0  0  0
    4.7110    0.2570    1.1080 C   0  0  0  0  0  0  0  0  0  0  0  0
    4.2880    0.6950    2.3250 C   0  0  0  0  0  0  0  0  0  0  0  0
    2.9620    0.7600    2.6640 C   0  0  0  0  0  0  0  0  0  0  0  0
    2.5690    1.2170    3.9320 O   0  0  0  0  0  0  0  0  0  0  0  0
    3.4940    1.6230    4.9010 C   0  0  0  0  0  0  0  0  0  0  0  0
    2.0450    0.3660    1.7250 C   0  0  0  0  0  0  0  0  0  0  0  0
    0.7770    0.4140    1.9970 O   0  0  0  0  0  0  0  0  0  0  0  0
   -0.1610    0.0580    1.1460 C   0  0  0  0  0  0  0  0  0  0  0  0
   -1.4700    0.1190    1.4610 N   0  0  0  0  0  0  0  0  0  0  0  0
  1  2  1  0
  2  3  1  0
  3  4  2  0
  3  5  1  0
  5  6  2  0
  5 10  1  0
  6  7  1  0
  7  8  2  0
  8  9  1  0
  9 10  2  0
  9 14  1  0
 10 11  1  0
 11 12  1  0
 12 13  1  0
 13 14  1  0
 14 15  1  1
 15 16  1  0
 16 17  2  0
 16 47  1  0
 17 18  1  0
 18 19  1  0
 18 20  2  0
 20 21  1  0
 20 46  1  0
 21 22  2  0
 21 23  1  0
 23 24  2  0
 23 44  1  0
 24 25  1  0
 24 39  1  0
 25 26  2  0
 25 38  1  0
 26 27  1  0
 27 28  1  0
 27 36  2  0
 28 29  1  0
 29 30  1  0
 30 31  2  0
 30 35  1  0
 31 32  1  0
 32 33  1  0
 33 34  1  0
 34 35  1  0
 36 37  1  0
 37 38  2  0
 39 40  2  0
 40 41  1  0
 41 42  1  0
 41 44  2  0
 42 43  1  0
 44 45  1  0
 45 46  1  0
 46 47  2  0
M  END
