
     RDKit          3D

 48 53  0  0  0  0  0  0  0  0999 V2000
   -2.5620   -8.3180   -0.5080 C   0  0  0  0  0  0  0  0  0  0  0  0
   -2.8150   -6.8680   -0.3470 C   0  0  0  0  0  0  0  0  0  0  0  0
   -1.9330   -5.9370   -0.9450 C   0  0  0  0  0  0  0  0  0  0  0  0
   -1.9390   -4.5860   -0.8050 C   0  0  0  0  0  0  0  0  0  0  0  0
   -2.9940   -4.0810    0.0620 C   0  0  0  0  0  0  0  0  0  0  0  0
   -2.8560   -2.5530    0.3950 C   0  0  0  0  0  0  0  0  0  0  0  0
   -2.0290   -1.8090   -0.4450 N   0  0  1  0  0  0  0  0  0  0  0  0
   -2.7070   -0.5030   -0.7570 C   0  0  0  0  0  0  0  0  0  0  0  0
   -3.1830    0.1280    0.5110 C   0  0  2  0  0  0  0  0  0  0  0  0
   -3.4480    1.5310    0.3230 N   0  0  0  0  0  0  0  0  0  0  0  0
   -4.7410    2.0880    0.4460 C   0  0  0  0  0  0  0  0  0  0  0  0
   -5.6890    1.3060    0.7420 O   0  0  0  0  0  0  0  0  0  0  0  0
   -4.8690    3.4500    0.2360 N   0  0  0  0  0  0  0  0  0  0  0  0
   -6.0060    4.2410    0.1630 C   0  0  0  0  0  0  0  0  0  0  0  0
   -6.3250    5.2050    1.1700 C   0  0  0  0  0  0  0  0  0  0  0  0
   -7.2960    6.1280    0.8090 C   0  0  0  0  0  0  0  0  0  0  0  0
   -7.9430    6.1810   -0.4120 C   0  0  0  0  0  0  0  0  0  0  0  0
   -8.6730    7.4060   -0.6370 C   0  0  0  0  0  0  0  0  0  0  0  0
   -9.3550    8.5230   -0.8250 N   0  0  0  0  0  0  0  0  0  0  0  0
   -7.6770    5.2590   -1.3640 C   0  0  0  0  0  0  0  0  0  0  0  0
   -6.7010    4.2820   -1.0540 C   0  0  0  0  0  0  0  0  0  0  0  0
   -2.0400    0.0680    1.4860 C   0  0  0  0  0  0  0  0  0  0  0  0
   -0.7900   -0.0720    0.6580 C   0  0  0  0  0  0  0  0  0  0  0  0
   -0.7020   -1.4580    0.0080 C   0  0  2  0  0  0  0  0  0  0  0  0
    0.2680   -1.4260   -1.0840 C   0  0  2  0  0  0  0  0  0  0  0  0
    0.9710   -2.6210   -1.6450 C   0  0  0  0  0  0  0  0  0  0  0  0
    1.8810   -1.9590   -2.7370 C   0  0  0  0  0  0  0  0  0  0  0  0
    1.5000   -0.4390   -2.5970 C   0  0  0  0  0  0  0  0  0  0  0  0
    1.3810   -0.5420   -1.0750 N   0  0  0  0  0  0  0  0  0  0  0  0
    2.3350    0.0220   -0.3110 C   0  0  0  0  0  0  0  0  0  0  0  0
    3.2210    0.7150   -1.1500 O   0  0  0  0  0  0  0  0  0  0  0  0
    2.7520    0.1020    0.9900 N   0  0  0  0  0  0  0  0  0  0  0  0
    3.9980    0.8200    1.1930 C   0  0  0  0  0  0  0  0  0  0  0  0
    4.2090    2.0240    0.5480 C   0  0  0  0  0  0  0  0  0  0  0  0
    5.5440    2.4500    0.4040 C   0  0  0  0  0  0  0  0  0  0  0  0
    6.5820    1.7150    0.8740 C   0  0  0  0  0  0  0  0  0  0  0  0
    7.9380    2.1120    0.5040 C   0  0  0  0  0  0  0  0  0  0  0  0
    8.8680    1.0450    0.3650 C   0  0  0  0  0  0  0  0  0  0  0  0
   10.1610    1.4900   -0.0250 C   0  0  0  0  0  0  0  0  0  0  0  0
   10.4910    2.7310   -0.2390 C   0  0  0  0  0  0  0  0  0  0  0  0
   11.7950    3.1180   -0.5960 O   0  0  0  0  0  0  0  0  0  0  0  0
    9.5040    3.8490   -0.1020 C   0  0  0  0  0  0  0  0  0  0  0  0
    8.3030    3.3220    0.2840 C   0  0  0  0  0  0  0  0  0  0  0  0
    6.3910    0.4830    1.5510 C   0  0  0  0  0  0  0  0  0  0  0  0
    5.0700    0.1340    1.6450 C   0  0  0  0  0  0  0  0  0  0  0  0
   -3.8000   -4.8390    0.5890 C   0  0  0  0  0  0  0  0  0  0  0  0
   -4.8910   -4.5090    1.4550 O   0  0  0  0  0  0  0  0  0  0  0  0
   -3.8060   -6.2810    0.4540 C   0  0  0  0  0  0  0  0  0  0  0  0
  1  2  1  0
  2  3  2  0
  2 48  1  0
  3  4  1  0
  4  5  2  0
  5  6  1  0
  5 46  1  0
  7  6  1  1
  7  8  1  0
  7 24  1  0
  8  9  1  0
  9 10  1  6
  9 22  1  0
 10 11  1  0
 11 12  2  0
 11 13  1  0
 13 14  1  0
 14 15  2  0
 14 21  1  0
 15 16  1  0
 16 17  2  0
 17 18  1  0
 17 20  1  0
 18 19  3  0
 20 21  2  0
 22 23  1  0
 24 23  1  6
 24 25  1  0
 25 26  1  1
 25 29  1  0
 26 27  1  0
 27 28  1  0
 28 29  1  0
 29 30  1  0
 30 31  2  0
 30 32  1  0
 32 33  1  0
 33 34  2  0
 33 45  1  0
 34 35  1  0
 35 36  2  0
 36 37  1  0
 36 44  1  0
 37 38  2  0
 37 43  1  0
 38 39  1  0
 39 40  2  0
 40 41  1  0
 40 42  1  0
 42 43  2  0
 44 45  2  0
 46 47  1  0
 46 48  2  0
M  CHG  1   7   1
M  END
