
     RDKit          3D

 47 52  0  0  0  0  0  0  0  0999 V2000
   -8.8640    2.8400    1.6800 C   0  0  0  0  0  0  0  0  0  0  0  0
   -8.4000    2.5010    0.2800 C   0  0  0  0  0  0  0  0  0  0  0  0
   -8.4510    1.0970    0.1420 O   0  0  0  0  0  0  0  0  0  0  0  0
   -8.1080    0.4110   -0.9820 C   0  0  0  0  0  0  0  0  0  0  0  0
   -7.1660   -0.5270   -0.9370 C   0  0  0  0  0  0  0  0  0  0  0  0
   -6.4470   -0.8810    0.2950 C   0  0  0  0  0  0  0  0  0  0  0  0
   -4.9740   -0.6500    0.2600 C   0  0  0  0  0  0  0  0  0  0  0  0
   -4.4020   -1.0660    1.5930 C   0  0  0  0  0  0  0  0  0  0  0  0
   -5.1660   -1.5430    2.4270 O   0  0  0  0  0  0  0  0  0  0  0  0
   -3.0230   -0.9140    1.8810 N   0  0  0  0  0  0  0  0  0  0  0  0
   -2.3580   -1.2550    3.0730 C   0  0  0  0  0  0  0  0  0  0  0  0
   -3.0440   -1.6380    4.1980 C   0  0  0  0  0  0  0  0  0  0  0  0
   -2.3200   -1.9110    5.3690 C   0  0  0  0  0  0  0  0  0  0  0  0
   -0.9670   -1.8080    5.4220 C   0  0  0  0  0  0  0  0  0  0  0  0
   -0.2840   -1.4160    4.2620 C   0  0  0  0  0  0  0  0  0  0  0  0
   -0.9540   -1.1390    3.0920 C   0  0  0  0  0  0  0  0  0  0  0  0
   -0.3020   -0.8050    1.8930 N   0  0  0  0  0  0  0  0  0  0  0  0
    1.0490   -0.4340    1.8130 C   0  0  0  0  0  0  0  0  0  0  0  0
    1.7940   -0.3610    2.8050 O   0  0  0  0  0  0  0  0  0  0  0  0
    1.7070   -0.0910    0.5110 C   0  0  1  0  0  0  0  0  0  0  0  0
    2.9400   -0.9260    0.3680 C   0  0  0  0  0  0  0  0  0  0  0  0
    3.6050   -0.6920   -0.9040 N   0  0  0  0  0  0  0  0  0  0  0  0
    5.0080   -0.9310   -0.9660 C   0  0  0  0  0  0  0  0  0  0  0  0
    5.8030    0.0610   -0.1650 C   0  0  0  0  0  0  0  0  0  0  0  0
    5.1420    0.9370    0.4310 O   0  0  0  0  0  0  0  0  0  0  0  0
    7.2100   -0.0060   -0.1000 N   0  0  0  0  0  0  0  0  0  0  0  0
    7.9390   -0.9970   -0.8680 C   0  0  0  0  0  0  0  0  0  0  0  0
    9.4060   -0.6820   -0.9870 C   0  0  0  0  0  0  0  0  0  0  0  0
    9.6270    0.8150   -1.0310 C   0  0  0  0  0  0  0  0  0  0  0  0
    9.1580    1.3500    0.2860 C   0  0  0  0  0  0  0  0  0  0  0  0
    9.9060    2.2410    1.0380 C   0  0  0  0  0  0  0  0  0  0  0  0
    9.4050    2.6890    2.2440 C   0  0  0  0  0  0  0  0  0  0  0  0
    8.1600    2.2250    2.6590 C   0  0  0  0  0  0  0  0  0  0  0  0
    7.4090    1.3450    1.9270 C   0  0  0  0  0  0  0  0  0  0  0  0
    7.9290    0.9040    0.7150 C   0  0  0  0  0  0  0  0  0  0  0  0
    2.7950   -0.2330   -1.9960 C   0  0  0  0  0  0  0  0  0  0  0  0
    3.3680   -0.0260   -3.2210 C   0  0  0  0  0  0  0  0  0  0  0  0
    2.6200    0.4130   -4.2850 C   0  0  0  0  0  0  0  0  0  0  0  0
    1.2700    0.6630   -4.1630 C   0  0  0  0  0  0  0  0  0  0  0  0
    0.7200    0.4480   -2.9240 C   0  0  0  0  0  0  0  0  0  0  0  0
    1.4270    0.0120   -1.8370 C   0  0  0  0  0  0  0  0  0  0  0  0
    0.8390   -0.1970   -0.5870 O   0  0  0  0  0  0  0  0  0  0  0  0
   -6.8950   -1.1940   -2.2050 C   0  0  0  0  0  0  0  0  0  0  0  0
   -5.7240   -1.6470   -2.4170 O   0  0  0  0  0  0  0  0  0  0  0  0
   -7.9390   -1.3690   -3.2710 C   0  0  0  0  0  0  0  0  0  0  0  0
   -9.1480   -0.5310   -3.0250 C   0  0  0  0  0  0  0  0  0  0  0  0
   -8.8140    0.7360   -2.2640 C   0  0  0  0  0  0  0  0  0  0  0  0
  1  2  1  0
  2  3  1  0
  3  4  1  0
  4  5  2  0
  4 47  1  0
  5  6  1  0
  5 43  1  0
  6  7  1  0
  7  8  1  0
  8  9  2  0
  8 10  1  0
 10 11  1  0
 11 12  2  0
 11 16  1  0
 12 13  1  0
 13 14  2  0
 14 15  1  0
 15 16  2  0
 16 17  1  0
 17 18  1  0
 18 19  2  0
 20 18  1  1
 20 21  1  0
 20 42  1  0
 21 22  1  0
 22 23  1  0
 22 36  1  0
 23 24  1  0
 24 25  2  0
 24 26  1  0
 26 27  1  0
 26 35  1  0
 27 28  1  0
 28 29  1  0
 29 30  1  0
 30 31  2  0
 30 35  1  0
 31 32  1  0
 32 33  2  0
 33 34  1  0
 34 35  2  0
 36 37  2  0
 36 41  1  0
 37 38  1  0
 38 39  2  0
 39 40  1  0
 40 41  2  0
 41 42  1  0
 43 44  2  0
 43 45  1  0
 45 46  1  0
 46 47  1  0
M  END
