
     RDKit          3D

 30 33  0  0  0  0  0  0  0  0999 V2000
   -3.5600    0.4610    3.9560 C   0  0  0  0  0  0  0  0  0  0  0  0
   -2.6170    0.5920    2.9100 O   0  0  0  0  0  0  0  0  0  0  0  0
   -3.0900    0.5050    1.5990 C   0  0  0  0  0  0  0  0  0  0  0  0
   -4.3990    0.3040    1.3110 C   0  0  0  0  0  0  0  0  0  0  0  0
   -4.8470    0.2210    0.0030 C   0  0  0  0  0  0  0  0  0  0  0  0
   -3.9350    0.3480   -1.0170 C   0  0  0  0  0  0  0  0  0  0  0  0
   -2.5900    0.5550   -0.7480 C   0  0  0  0  0  0  0  0  0  0  0  0
   -2.1540    0.6350    0.5500 C   0  0  0  0  0  0  0  0  0  0  0  0
   -0.8510    0.8320    0.9240 O   0  0  0  0  0  0  0  0  0  0  0  0
    0.2490    0.9490    0.1310 C   0  0  0  0  0  0  0  0  0  0  0  0
    0.6650   -0.2170   -0.6970 C   0  0  0  0  0  0  0  0  0  0  0  0
    0.9850   -1.4400    0.1370 C   0  0  0  0  0  0  0  0  0  0  0  0
    2.0540   -1.2340    1.0800 N   0  0  0  0  0  0  0  0  0  0  0  0
    3.3890   -0.9200    0.7490 C   0  0  0  0  0  0  0  0  0  0  0  0
    4.3390   -0.7300    1.6720 N   0  0  0  0  0  0  0  0  0  0  0  0
    5.6120   -0.4390    1.4710 C   0  0  0  0  0  0  0  0  0  0  0  0
    6.3440   -0.3020    2.5120 O   0  0  0  0  0  0  0  0  0  0  0  0
    6.2580   -0.2630    0.2710 C   0  0  0  0  0  0  0  0  0  0  0  0
    7.6290    0.0450    0.2500 C   0  0  0  0  0  0  0  0  0  0  0  0
    8.3110    0.2290   -0.9300 C   0  0  0  0  0  0  0  0  0  0  0  0
    9.6240    0.5230   -0.9050 F   0  0  0  0  0  0  0  0  0  0  0  0
    7.6680    0.1160   -2.1420 C   0  0  0  0  0  0  0  0  0  0  0  0
    8.3380    0.2960   -3.2970 F   0  0  0  0  0  0  0  0  0  0  0  0
    6.3390   -0.1830   -2.1290 C   0  0  0  0  0  0  0  0  0  0  0  0
    5.6270   -0.3730   -0.9510 C   0  0  0  0  0  0  0  0  0  0  0  0
    3.9600   -0.7510   -0.8450 S   0  0  0  0  0  0  0  0  0  0  0  0
   -4.3860    0.2650   -2.3380 O   0  0  0  0  0  0  0  0  0  0  0  0
   -5.5770   -0.4160   -2.6760 C   0  0  0  0  0  0  0  0  0  0  0  0
   -6.2850   -1.0020   -1.4950 C   0  0  0  0  0  0  0  0  0  0  0  0
   -6.2670    0.0020   -0.3410 C   0  0  0  0  0  0  0  0  0  0  0  0
  1  2  1  0
  2  3  1  0
  3  4  2  0
  3  8  1  0
  4  5  1  0
  5  6  2  0
  5 30  1  0
  6  7  1  0
  6 27  1  0
  7  8  2  0
  8  9  1  0
  9 10  1  0
 10 11  1  0
 11 12  1  0
 12 13  1  0
 13 14  1  0
 14 15  2  0
 14 26  1  0
 15 16  1  0
 16 17  2  0
 16 18  1  0
 18 19  2  0
 18 25  1  0
 19 20  1  0
 20 21  1  0
 20 22  2  0
 22 23  1  0
 22 24  1  0
 24 25  2  0
 25 26  1  0
 27 28  1  0
 28 29  1  0
 29 30  1  0
M  END
