
     RDKit          3D

 31 34  0  0  0  0  0  0  0  0999 V2000
   -0.4440    0.2420   -5.0250 C   0  0  0  0  0  0  0  0  0  0  0  0
    0.0040    0.6410   -3.7110 N   0  0  0  0  0  0  0  0  0  0  0  0
    1.2270    1.3450   -3.5660 C   0  0  0  0  0  0  0  0  0  0  0  0
    1.7340    1.9480   -4.5440 O   0  0  0  0  0  0  0  0  0  0  0  0
    1.9340    1.3880   -2.2640 C   0  0  0  0  0  0  0  0  0  0  0  0
    0.9610    1.4640   -1.1930 N   0  0  0  0  0  0  0  0  0  0  0  0
    1.2510    2.2730    0.0110 C   0  0  0  0  0  0  0  0  0  0  0  0
    1.9440    1.4270    1.0210 C   0  0  0  0  0  0  0  0  0  0  0  0
    1.3170    0.7630    2.0390 C   0  0  0  0  0  0  0  0  0  0  0  0
    2.3240    0.0980    2.7440 C   0  0  0  0  0  0  0  0  0  0  0  0
    3.5100    0.3990    2.1080 C   0  0  0  0  0  0  0  0  0  0  0  0
    4.8740   -0.0950    2.5120 C   0  0  0  0  0  0  0  0  0  0  0  0
    5.1370   -1.4080    1.7770 C   0  0  0  0  0  0  0  0  0  0  0  0
    6.5030   -1.9480    2.1490 C   0  0  2  0  0  0  0  0  0  0  0  0
    6.7600   -3.1340    1.4930 F   0  0  0  0  0  0  0  0  0  0  0  0
    6.5810   -2.1360    3.5200 F   0  0  0  0  0  0  0  0  0  0  0  0
    3.2310    1.1870    1.0980 O   0  0  0  0  0  0  0  0  0  0  0  0
   -0.2680    0.7600   -1.2850 C   0  0  0  0  0  0  0  0  0  0  0  0
   -0.8800    0.5310   -0.2090 O   0  0  0  0  0  0  0  0  0  0  0  0
   -0.8120    0.3120   -2.5550 C   0  0  0  0  0  0  0  0  0  0  0  0
   -1.9260   -0.3550   -2.7100 C   0  0  0  0  0  0  0  0  0  0  0  0
   -2.8560   -0.7660   -1.7200 C   0  0  0  0  0  0  0  0  0  0  0  0
   -3.4720   -1.9690   -1.5070 C   0  0  0  0  0  0  0  0  0  0  0  0
   -4.3490   -2.0550   -0.5050 C   0  0  0  0  0  0  0  0  0  0  0  0
   -4.6200   -0.9910    0.2720 C   0  0  0  0  0  0  0  0  0  0  0  0
   -5.5140   -0.8210    1.4030 C   0  0  0  0  0  0  0  0  0  0  0  0
   -5.7340    0.3150    2.1500 C   0  0  0  0  0  0  0  0  0  0  0  0
   -6.6690   -0.0090    3.1160 C   0  0  0  0  0  0  0  0  0  0  0  0
   -6.9580   -1.3440    2.8850 C   0  0  0  0  0  0  0  0  0  0  0  0
   -6.2600   -1.7890    1.8690 O   0  0  0  0  0  0  0  0  0  0  0  0
   -3.5740    0.2870   -0.4160 S   0  0  0  0  0  0  0  0  0  0  0  0
  1  2  1  0
  2  3  1  0
  2 20  1  0
  3  4  2  0
  3  5  1  0
  5  6  1  0
  6  7  1  0
  6 18  1  0
  7  8  1  0
  8  9  2  0
  8 17  1  0
  9 10  1  0
 10 11  2  0
 11 12  1  0
 11 17  1  0
 12 13  1  0
 13 14  1  0
 14 15  1  6
 14 16  1  0
 18 19  2  0
 18 20  1  0
 20 21  2  3
 21 22  1  0
 22 23  2  0
 22 31  1  0
 23 24  1  0
 24 25  2  0
 25 26  1  0
 25 31  1  0
 26 27  2  0
 26 30  1  0
 27 28  1  0
 28 29  2  0
 29 30  1  0
M  END
