
     RDKit          3D

 30 33  0  0  0  0  0  0  0  0999 V2000
    9.2590    0.7750    0.3360 C   0  0  0  0  0  0  0  0  0  0  0  0
    8.0600    0.8300    1.0530 O   0  0  0  0  0  0  0  0  0  0  0  0
    6.7990    0.7850    0.5110 C   0  0  0  0  0  0  0  0  0  0  0  0
    6.5620    0.6780   -0.8370 C   0  0  0  0  0  0  0  0  0  0  0  0
    5.2760    0.6370   -1.3230 C   0  0  0  0  0  0  0  0  0  0  0  0
    4.1820    0.7030   -0.4760 C   0  0  0  0  0  0  0  0  0  0  0  0
    2.8330    0.6580   -1.0250 C   0  0  0  0  0  0  0  0  0  0  0  0
    2.4650    0.5550   -2.3110 N   0  0  0  0  0  0  0  0  0  0  0  0
    1.1590    0.5490   -2.3650 O   0  0  0  0  0  0  0  0  0  0  0  0
    0.6400    0.6430   -1.1640 C   0  0  0  0  0  0  0  0  0  0  0  0
   -0.7740    0.6730   -0.7690 C   0  0  0  0  0  0  0  0  0  0  0  0
   -1.2720   -0.6300   -0.5240 O   0  0  0  0  0  0  0  0  0  0  0  0
   -2.5620   -0.8760   -0.1420 C   0  0  0  0  0  0  0  0  0  0  0  0
   -3.4970    0.1130    0.0430 C   0  0  0  0  0  0  0  0  0  0  0  0
   -4.7930   -0.1400    0.4280 C   0  0  0  0  0  0  0  0  0  0  0  0
   -5.7600    0.9450    0.6140 C   0  0  0  0  0  0  0  0  0  0  0  0
   -7.0750    0.9410    0.9840 C   0  0  0  0  0  0  0  0  0  0  0  0
   -7.7180    2.1110    1.0720 C   0  0  0  0  0  0  0  0  0  0  0  0
   -7.1000    3.2690    0.8060 C   0  0  0  0  0  0  0  0  0  0  0  0
   -7.4620    4.5420    0.8060 F   0  0  0  0  0  0  0  0  0  0  0  0
   -5.4120    2.6940    0.3760 S   0  0  0  0  0  0  0  0  0  0  0  0
   -5.1500   -1.4560    0.6340 C   0  0  0  0  0  0  0  0  0  0  0  0
   -4.2180   -2.4640    0.4520 C   0  0  0  0  0  0  0  0  0  0  0  0
   -2.9280   -2.1970    0.0670 C   0  0  0  0  0  0  0  0  0  0  0  0
   -1.9950   -3.2060   -0.1150 O   0  0  0  0  0  0  0  0  0  0  0  0
   -2.3070   -4.5720    0.0820 C   0  0  0  0  0  0  0  0  0  0  0  0
    1.6930    0.7120   -0.3170 N   0  0  0  0  0  0  0  0  0  0  0  0
    4.4240    0.8100    0.8620 C   0  0  0  0  0  0  0  0  0  0  0  0
    5.7120    0.8510    1.3520 C   0  0  0  0  0  0  0  0  0  0  0  0
    5.9190    0.9560    2.6730 F   0  0  0  0  0  0  0  0  0  0  0  0
  1  2  1  0
  2  3  1  0
  3  4  2  0
  3 29  1  0
  4  5  1  0
  5  6  2  0
  6  7  1  0
  6 28  1  0
  7  8  2  0
  7 27  1  0
  8  9  1  0
  9 10  1  0
 10 11  1  0
 10 27  2  0
 11 12  1  0
 12 13  1  0
 13 14  2  0
 13 24  1  0
 14 15  1  0
 15 16  1  0
 15 22  2  0
 16 17  2  0
 16 21  1  0
 17 18  1  0
 18 19  2  0
 19 20  1  0
 19 21  1  0
 22 23  1  0
 23 24  2  0
 24 25  1  0
 25 26  1  0
 28 29  2  0
 29 30  1  0
M  END
