
     RDKit          3D

 31 33  0  0  0  0  0  0  0  0999 V2000
   -1.4700    3.4370    0.9710 C   0  0  0  0  0  0  0  0  0  0  0  0
   -2.0770    2.9910   -0.2530 N   0  0  0  0  0  0  0  0  0  0  0  0
   -3.1330    2.0240   -0.0450 C   0  0  2  0  0  0  0  0  0  0  0  0
   -3.9700    2.5290    1.1400 C   0  0  0  0  0  0  0  0  0  0  0  0
   -5.3310    1.9110    1.1520 C   0  0  0  0  0  0  0  0  0  0  0  0
   -5.3080    0.4650    1.0370 N   0  0  0  0  0  0  0  0  0  0  0  0
   -6.6160   -0.0320    1.4340 C   0  0  0  0  0  0  0  0  0  0  0  0
   -5.0560    0.0400   -0.3260 C   0  0  0  0  0  0  0  0  0  0  0  0
   -3.6230   -0.3660   -0.5330 C   0  0  2  0  0  0  0  0  0  0  0  0
   -3.3300   -1.6860    0.1310 C   0  0  0  0  0  0  0  0  0  0  0  0
   -4.1330   -2.8410   -0.3510 C   0  0  0  0  0  0  0  0  0  0  0  0
   -3.7070   -3.9730    0.3730 O   0  0  0  0  0  0  0  0  0  0  0  0
   -2.7060    0.6330    0.1970 C   0  0  1  0  0  0  0  0  0  0  0  0
   -1.3020    0.3050   -0.1570 C   0  0  0  0  0  0  0  0  0  0  0  0
   -0.4220   -0.1290    0.8070 C   0  0  0  0  0  0  0  0  0  0  0  0
    0.9000   -0.4610    0.5030 C   0  0  0  0  0  0  0  0  0  0  0  0
    1.3750   -0.3670   -0.7770 C   0  0  0  0  0  0  0  0  0  0  0  0
    2.7360   -0.7030   -1.1810 C   0  0  0  0  0  0  0  0  0  0  0  0
    3.5720   -1.3160   -0.2060 N   0  0  0  0  0  0  0  0  0  0  0  0
    4.5810   -2.1580   -0.8740 C   0  0  0  0  0  0  0  0  0  0  0  0
    5.7560   -1.3150   -1.3470 C   0  0  2  0  0  0  0  0  0  0  0  0
    6.6130   -2.2400   -2.0020 O   0  0  0  0  0  0  0  0  0  0  0  0
    6.4770   -0.6810   -0.2260 C   0  0  0  0  0  0  0  0  0  0  0  0
    6.3380   -0.9820    1.0670 N   0  0  0  0  0  0  0  0  0  0  0  0
    7.1810   -0.2050    1.8040 C   0  0  0  0  0  0  0  0  0  0  0  0
    7.3580   -0.1920    3.1770 O   0  0  0  0  0  0  0  0  0  0  0  0
    7.8360    0.5730    0.9460 N   0  0  0  0  0  0  0  0  0  0  0  0
    7.4210    0.3030   -0.3250 C   0  0  0  0  0  0  0  0  0  0  0  0
    7.9090    0.9470   -1.4720 N   0  0  0  0  0  0  0  0  0  0  0  0
    0.4810    0.0700   -1.7360 C   0  0  0  0  0  0  0  0  0  0  0  0
   -0.8210    0.3990   -1.4430 C   0  0  0  0  0  0  0  0  0  0  0  0
  1  2  1  0
  3  2  1  1
  3  4  1  0
  3 13  1  0
  4  5  1  0
  5  6  1  0
  6  7  1  0
  6  8  1  0
  8  9  1  0
  9 10  1  1
  9 13  1  0
 10 11  1  0
 11 12  1  0
 13 14  1  6
 14 15  2  0
 14 31  1  0
 15 16  1  0
 16 17  2  0
 17 18  1  0
 17 30  1  0
 18 19  1  0
 19 20  1  0
 20 21  1  0
 21 22  1  1
 21 23  1  0
 23 24  1  0
 23 28  2  0
 24 25  1  0
 25 26  1  0
 25 27  2  0
 27 28  1  0
 28 29  1  0
 30 31  2  0
M  CHG  2   2   1  19   1
M  END
