
     RDKit          3D

 31 33  0  0  0  0  0  0  0  0999 V2000
    9.0230   -0.3300    0.0690 C   0  0  0  0  0  0  0  0  0  0  0  0
    8.2430    0.8240   -0.3310 N   0  0  1  0  0  0  0  0  0  0  0  0
    7.3480    0.4840   -1.4180 C   0  0  0  0  0  0  0  0  0  0  0  0
    6.3730   -0.5760   -1.0250 C   0  0  0  0  0  0  0  0  0  0  0  0
    5.5130    0.0300    0.0910 C   0  0  1  0  0  0  0  0  0  0  0  0
    4.5880   -1.0060    0.5680 N   0  0  0  0  0  0  0  0  0  0  0  0
    3.4880   -1.3010   -0.3150 C   0  0  0  0  0  0  0  0  0  0  0  0
    3.4370   -0.6910   -1.4120 O   0  0  0  0  0  0  0  0  0  0  0  0
    2.4620   -2.2430   -0.0210 N   0  0  0  0  0  0  0  0  0  0  0  0
    1.4730   -2.4440   -1.0600 C   0  0  0  0  0  0  0  0  0  0  0  0
    0.7260   -1.1830   -1.3390 C   0  0  0  0  0  0  0  0  0  0  0  0
   -0.0860   -0.8960   -0.0700 C   0  0  0  0  0  0  0  0  0  0  0  0
    0.2170   -1.4340    1.0130 O   0  0  0  0  0  0  0  0  0  0  0  0
   -1.1840   -0.0310   -0.1610 N   0  0  0  0  0  0  0  0  0  0  0  0
   -2.0230    0.2030    1.0060 C   0  0  2  0  0  0  0  0  0  0  0  0
   -2.1300   -1.1010    1.7340 C   0  0  0  0  0  0  0  0  0  0  0  0
   -2.8320   -2.1950    1.1350 N   0  0  0  0  0  0  0  0  0  0  0  0
   -1.6010   -1.2740    2.8450 O   0  0  0  0  0  0  0  0  0  0  0  0
   -3.3150    0.6680    0.5660 C   0  0  0  0  0  0  0  0  0  0  0  0
   -3.3650    1.7390   -0.3140 C   0  0  0  0  0  0  0  0  0  0  0  0
   -4.5610    2.1970   -0.7940 C   0  0  0  0  0  0  0  0  0  0  0  0
   -5.7620    1.6080   -0.4160 C   0  0  0  0  0  0  0  0  0  0  0  0
   -5.7430    0.5480    0.4520 C   0  0  0  0  0  0  0  0  0  0  0  0
   -4.5540    0.1030    0.9230 C   0  0  0  0  0  0  0  0  0  0  0  0
   -7.0760   -0.0490    0.8150 C   0  0  2  0  0  0  0  0  0  0  0  0
   -7.6450   -0.8580   -0.2080 N   0  0  0  0  0  0  0  0  0  0  0  0
   -7.9740    1.1020    1.2520 C   0  0  0  0  0  0  0  0  0  0  0  0
   -8.1160    2.1630    0.2000 C   0  0  0  0  0  0  0  0  0  0  0  0
   -7.0800    2.1080   -0.8980 C   0  0  0  0  0  0  0  0  0  0  0  0
    6.3100    0.5590    1.1890 C   0  0  0  0  0  0  0  0  0  0  0  0
    7.4810    1.4090    0.7390 C   0  0  0  0  0  0  0  0  0  0  0  0
  2  1  1  1
  2  3  1  0
  2 31  1  0
  3  4  1  0
  4  5  1  0
  5  6  1  1
  5 30  1  0
  6  7  1  0
  7  8  2  0
  7  9  1  0
  9 10  1  0
 10 11  1  0
 11 12  1  0
 12 13  2  0
 12 14  1  0
 15 14  1  6
 15 16  1  0
 15 19  1  0
 16 17  1  0
 16 18  2  0
 19 20  2  0
 19 24  1  0
 20 21  1  0
 21 22  2  0
 22 23  1  0
 22 29  1  0
 23 24  2  0
 23 25  1  0
 25 26  1  6
 25 27  1  0
 27 28  1  0
 28 29  1  0
 30 31  1  0
M  CHG  2   2   1  26   1
M  END
