
     RDKit          3D

 31 33  0  0  0  0  0  0  0  0999 V2000
   -8.7840    2.5620   -0.8480 C   0  0  0  0  0  0  0  0  0  0  0  0
   -7.9800    2.8460    0.4010 C   0  0  0  0  0  0  0  0  0  0  0  0
   -6.6870    2.1430    0.3420 N   0  0  0  0  0  0  0  0  0  0  0  0
   -6.6320    0.7350    0.3550 C   0  0  0  0  0  0  0  0  0  0  0  0
   -7.8270    0.0170    0.5490 C   0  0  0  0  0  0  0  0  0  0  0  0
   -7.8610   -1.3540    0.5990 C   0  0  0  0  0  0  0  0  0  0  0  0
   -6.6770   -2.0280    0.4520 C   0  0  0  0  0  0  0  0  0  0  0  0
   -5.4860   -1.3140    0.2590 C   0  0  0  0  0  0  0  0  0  0  0  0
   -5.4350    0.0660    0.2060 C   0  0  0  0  0  0  0  0  0  0  0  0
   -4.2530    0.8090   -0.0040 N   0  0  0  0  0  0  0  0  0  0  0  0
   -2.9760    0.2580   -0.1250 C   0  0  0  0  0  0  0  0  0  0  0  0
   -2.7420   -0.9470   -0.0590 O   0  0  0  0  0  0  0  0  0  0  0  0
   -1.7980    1.0860   -0.3430 N   0  0  0  0  0  0  0  0  0  0  0  0
   -0.4780    0.4970   -0.4680 C   0  0  1  0  0  0  0  0  0  0  0  0
    0.0380    0.8340   -1.8590 C   0  0  0  0  0  0  0  0  0  0  0  0
    1.0300    1.9770   -1.8050 C   0  0  0  0  0  0  0  0  0  0  0  0
    2.1280    1.6110   -1.0800 O   0  0  0  0  0  0  0  0  0  0  0  0
    1.8800    1.0810    0.1490 C   0  0  2  0  0  0  0  0  0  0  0  0
    2.6630    1.8830    1.1860 C   0  0  0  0  0  0  0  0  0  0  0  0
    4.0940    1.8370    0.9330 N   0  0  0  0  0  0  0  0  0  0  0  0
    2.4270   -0.3310    0.2260 C   0  0  0  0  0  0  0  0  0  0  0  0
    2.3020   -0.9940    1.2730 O   0  0  0  0  0  0  0  0  0  0  0  0
    3.0780   -0.8790   -0.9030 N   0  0  0  0  0  0  0  0  0  0  0  0
    3.6840   -2.1620   -1.0370 C   0  0  0  0  0  0  0  0  0  0  0  0
    4.9060   -2.3690   -0.2530 C   0  0  2  0  0  0  0  0  0  0  0  0
    4.8600   -2.2490    1.2150 C   0  0  0  0  0  0  0  0  0  0  0  0
    6.2150   -2.7500    1.8030 C   0  0  0  0  0  0  0  0  0  0  0  0
    7.2900   -1.9760    1.2340 N   0  0  0  0  0  0  0  0  0  0  0  0
    7.3440   -2.2270   -0.1860 C   0  0  0  0  0  0  0  0  0  0  0  0
    6.1150   -1.6100   -0.8250 C   0  0  0  0  0  0  0  0  0  0  0  0
    0.4440    1.0740    0.5880 C   0  0  0  0  0  0  0  0  0  0  0  0
  1  2  1  0
  2  3  1  0
  3  4  1  0
  4  5  2  0
  4  9  1  0
  5  6  1  0
  6  7  2  0
  7  8  1  0
  8  9  2  0
  9 10  1  0
 10 11  1  0
 11 12  2  0
 11 13  1  0
 14 13  1  1
 14 15  1  0
 14 31  1  0
 15 16  1  0
 16 17  1  0
 17 18  1  0
 18 19  1  1
 18 21  1  0
 18 31  1  0
 19 20  1  0
 21 22  2  0
 21 23  1  0
 23 24  1  0
 25 24  1  6
 25 26  1  0
 25 30  1  0
 26 27  1  0
 27 28  1  0
 28 29  1  0
 29 30  1  0
M  CHG  2  20   1  28   1
M  END
