
     RDKit          3D

 28 30  0  0  0  0  0  0  0  0999 V2000
    8.3800   -0.7510    0.3800 C   0  0  0  0  0  0  0  0  0  0  0  0
    7.2510   -0.2400    1.2490 C   0  0  0  0  0  0  0  0  0  0  0  0
    5.9740   -0.6060    0.5840 C   0  0  0  0  0  0  0  0  0  0  0  0
    5.5430   -1.9120    0.6540 C   0  0  0  0  0  0  0  0  0  0  0  0
    6.2540   -2.8690    1.3160 F   0  0  0  0  0  0  0  0  0  0  0  0
    4.3550   -2.3040    0.0470 C   0  0  0  0  0  0  0  0  0  0  0  0
    3.5970   -1.3790   -0.6340 C   0  0  0  0  0  0  0  0  0  0  0  0
    4.0200   -0.0620   -0.7120 C   0  0  0  0  0  0  0  0  0  0  0  0
    3.4690    1.0560   -1.3190 C   0  0  0  0  0  0  0  0  0  0  0  0
    2.1950    1.0130   -2.0640 C   0  0  0  0  0  0  0  0  0  0  0  0
    1.0860    0.9550   -1.0590 C   0  0  0  0  0  0  0  0  0  0  0  0
    1.2980    0.9500    0.1600 O   0  0  0  0  0  0  0  0  0  0  0  0
   -0.2230    0.9070   -1.5590 N   0  0  0  0  0  0  0  0  0  0  0  0
   -1.3750    0.8500   -0.7410 C   0  0  0  0  0  0  0  0  0  0  0  0
   -1.3120    0.8380    0.5230 N   0  0  0  0  0  0  0  0  0  0  0  0
   -2.6410    0.8060   -1.3840 N   0  0  0  0  0  0  0  0  0  0  0  0
   -3.7920    0.4410   -0.6130 C   0  0  0  0  0  0  0  0  0  0  0  0
   -4.3680    1.4630    0.0000 C   0  0  0  0  0  0  0  0  0  0  0  0
   -5.4870    1.7980    0.8800 C   0  0  0  0  0  0  0  0  0  0  0  0
   -6.5160    0.7860    0.9520 N   0  0  0  0  0  0  0  0  0  0  0  0
   -6.0640   -0.4530    1.4890 C   0  0  0  0  0  0  0  0  0  0  0  0
   -6.2200   -1.5610    0.4850 C   0  0  0  0  0  0  0  0  0  0  0  0
   -5.5880   -1.2510   -0.8400 C   0  0  0  0  0  0  0  0  0  0  0  0
   -4.1030   -1.0200   -0.6650 C   0  0  2  0  0  0  0  0  0  0  0  0
   -3.7050   -1.6960    0.4850 O   0  0  0  0  0  0  0  0  0  0  0  0
    4.3230    2.0840   -1.0700 C   0  0  0  0  0  0  0  0  0  0  0  0
    5.3580    1.6050   -0.3350 N   0  0  0  0  0  0  0  0  0  0  0  0
    5.2050    0.2970   -0.0990 C   0  0  0  0  0  0  0  0  0  0  0  0
  1  2  1  0
  2  3  1  0
  3  4  2  0
  3 28  1  0
  4  5  1  0
  4  6  1  0
  6  7  2  0
  7  8  1  0
  8  9  1  0
  8 28  2  0
  9 10  1  0
  9 26  2  0
 10 11  1  0
 11 12  2  0
 11 13  1  0
 13 14  1  0
 14 15  2  0
 14 16  1  0
 16 17  1  0
 17 18  2  0
 17 24  1  0
 18 19  1  0
 19 20  1  0
 20 21  1  0
 21 22  1  0
 22 23  1  0
 23 24  1  0
 24 25  1  1
 26 27  1  0
 27 28  1  0
M  CHG  2  15   1  20   1
M  END
