
     RDKit          3D

 29 31  0  0  0  0  0  0  0  0999 V2000
    0.2750   -0.5790    1.3740 C   0  0  0  0  0  0  0  0  0  0  0  0
    0.2700   -1.0780   -0.0280 C   0  0  1  0  0  0  0  0  0  0  0  0
    0.9400   -2.4240   -0.0920 C   0  0  0  0  0  0  0  0  0  0  0  0
    1.2860   -2.8270   -1.4360 N   0  0  0  0  0  0  0  0  0  0  0  0
   -0.9630   -0.9770   -0.6750 O   0  0  0  0  0  0  0  0  0  0  0  0
   -2.1090   -1.5240   -0.1770 C   0  0  0  0  0  0  0  0  0  0  0  0
   -2.3630   -2.8580   -0.4980 C   0  0  0  0  0  0  0  0  0  0  0  0
   -1.5480   -3.5700   -1.2910 F   0  0  0  0  0  0  0  0  0  0  0  0
   -3.5050   -3.4430   -0.0010 C   0  0  0  0  0  0  0  0  0  0  0  0
   -4.3920   -2.7590    0.7910 C   0  0  0  0  0  0  0  0  0  0  0  0
   -4.1210   -1.4530    1.0880 C   0  0  0  0  0  0  0  0  0  0  0  0
   -2.9580   -0.7950    0.6020 C   0  0  0  0  0  0  0  0  0  0  0  0
   -2.7960    0.5940    0.9470 C   0  0  0  0  0  0  0  0  0  0  0  0
   -2.0180    1.4630    0.2590 C   0  0  0  0  0  0  0  0  0  0  0  0
   -1.9510    2.8270    0.5910 C   0  0  0  0  0  0  0  0  0  0  0  0
   -2.6900    3.2710    1.6280 N   0  0  0  0  0  0  0  0  0  0  0  0
   -3.4710    2.4120    2.3210 C   0  0  0  0  0  0  0  0  0  0  0  0
   -4.2230    2.9530    3.4020 N   0  0  0  0  0  0  0  0  0  0  0  0
   -3.5110    1.1330    1.9820 N   0  0  0  0  0  0  0  0  0  0  0  0
    1.2650   -0.1460   -0.7660 C   0  0  0  0  0  0  0  0  0  0  0  0
    0.8880    0.4380   -1.7920 O   0  0  0  0  0  0  0  0  0  0  0  0
    2.5660    0.0250   -0.2680 N   0  0  0  0  0  0  0  0  0  0  0  0
    3.5880    0.8260   -0.8110 C   0  0  0  0  0  0  0  0  0  0  0  0
    3.4420    1.5710   -1.9390 C   0  0  0  0  0  0  0  0  0  0  0  0
    4.4920    2.3570   -2.4460 C   0  0  0  0  0  0  0  0  0  0  0  0
    5.7000    2.4040   -1.8260 C   0  0  0  0  0  0  0  0  0  0  0  0
    5.8780    1.6540   -0.6730 C   0  0  0  0  0  0  0  0  0  0  0  0
    4.8380    0.8920   -0.1940 C   0  0  0  0  0  0  0  0  0  0  0  0
    5.0610    0.1760    0.9370 F   0  0  0  0  0  0  0  0  0  0  0  0
  2  1  1  1
  2  3  1  0
  2  5  1  0
  2 20  1  0
  3  4  1  0
  5  6  1  0
  6  7  2  0
  6 12  1  0
  7  8  1  0
  7  9  1  0
  9 10  2  0
 10 11  1  0
 11 12  2  0
 12 13  1  0
 13 14  2  0
 13 19  1  0
 14 15  1  0
 15 16  2  0
 16 17  1  0
 17 18  1  0
 17 19  2  0
 20 21  2  0
 20 22  1  0
 22 23  1  0
 23 24  2  0
 23 28  1  0
 24 25  1  0
 25 26  2  0
 26 27  1  0
 27 28  2  0
 28 29  1  0
M  CHG  2   4   1  16   1
M  END
