
     RDKit          3D

 31 34  0  0  0  0  0  0  0  0999 V2000
    3.1920    0.3190   -1.0460 C   0  0  0  0  0  0  0  0  0  0  0  0
    3.0590   -1.0940   -1.0400 N   0  0  0  0  0  0  0  0  0  0  0  0
    4.3220   -1.8550   -1.2250 C   0  0  0  0  0  0  0  0  0  0  0  0
    4.9050   -2.1160    0.1180 C   0  0  0  0  0  0  0  0  0  0  0  0
    6.1380   -2.6660    0.3650 C   0  0  0  0  0  0  0  0  0  0  0  0
    6.2960   -2.7400    1.7280 C   0  0  0  0  0  0  0  0  0  0  0  0
    5.1260   -2.2210    2.2700 C   0  0  0  0  0  0  0  0  0  0  0  0
    4.3570   -1.8750    1.2830 O   0  0  0  0  0  0  0  0  0  0  0  0
    1.8740   -1.8010   -0.8880 C   0  0  0  0  0  0  0  0  0  0  0  0
    2.0570   -3.1000   -0.8960 O   0  0  0  0  0  0  0  0  0  0  0  0
    0.5050   -1.3690   -0.7240 C   0  0  0  0  0  0  0  0  0  0  0  0
    0.0660   -0.0930   -0.8730 C   0  0  0  0  0  0  0  0  0  0  0  0
   -1.2720    0.3090   -0.7320 C   0  0  0  0  0  0  0  0  0  0  0  0
   -1.5630    1.7260   -0.9850 C   0  0  0  0  0  0  0  0  0  0  0  0
   -0.7640    2.5000   -1.8020 N   0  0  0  0  0  0  0  0  0  0  0  0
   -1.1740    3.7290   -1.8460 N   0  0  0  0  0  0  0  0  0  0  0  0
   -2.2430    3.7860   -1.0610 C   0  0  0  0  0  0  0  0  0  0  0  0
   -2.9020    4.8490   -0.8700 O   0  0  0  0  0  0  0  0  0  0  0  0
   -2.4920    2.5480   -0.5210 N   0  0  0  0  0  0  0  0  0  0  0  0
   -3.5330    2.3250    0.3840 C   0  0  0  0  0  0  0  0  0  0  0  0
   -4.8770    2.4230    0.0040 C   0  0  0  0  0  0  0  0  0  0  0  0
   -5.9040    2.2440    0.9020 C   0  0  0  0  0  0  0  0  0  0  0  0
   -5.6060    1.9590    2.2170 C   0  0  0  0  0  0  0  0  0  0  0  0
   -4.2860    1.8600    2.6040 C   0  0  0  0  0  0  0  0  0  0  0  0
   -3.2450    2.0360    1.7180 C   0  0  0  0  0  0  0  0  0  0  0  0
   -1.9810    1.9200    2.1900 F   0  0  0  0  0  0  0  0  0  0  0  0
   -2.1820   -0.6390   -0.4300 C   0  0  0  0  0  0  0  0  0  0  0  0
   -3.5180   -0.3440   -0.2790 O   0  0  0  0  0  0  0  0  0  0  0  0
   -1.7800   -1.9670   -0.2670 C   0  0  0  0  0  0  0  0  0  0  0  0
   -0.4780   -2.3270   -0.4090 C   0  0  0  0  0  0  0  0  0  0  0  0
   -0.0720   -3.6400   -0.2480 O   0  0  0  0  0  0  0  0  0  0  0  0
  1  2  1  0
  2  3  1  0
  2  9  1  0
  3  4  1  0
  4  5  2  0
  4  8  1  0
  5  6  1  0
  6  7  2  0
  7  8  1  0
  9 10  2  0
  9 11  1  0
 11 12  2  0
 11 30  1  0
 12 13  1  0
 13 14  1  0
 13 27  2  0
 14 15  2  0
 14 19  1  0
 15 16  1  0
 16 17  1  0
 17 18  2  0
 17 19  1  0
 19 20  1  0
 20 21  2  0
 20 25  1  0
 21 22  1  0
 22 23  2  0
 23 24  1  0
 24 25  2  0
 25 26  1  0
 27 28  1  0
 27 29  1  0
 29 30  2  0
 30 31  1  0
M  END
