
     RDKit          3D

 30 32  0  0  0  0  0  0  0  0999 V2000
    2.1440    2.6790   -1.6940 C   0  0  0  0  0  0  0  0  0  0  0  0
    2.1090    2.5410   -0.1750 C   0  0  0  0  0  0  0  0  0  0  0  0
    2.2960    1.1470    0.2280 C   0  0  0  0  0  0  0  0  0  0  0  0
    3.4710    1.0170    0.9310 C   0  0  0  0  0  0  0  0  0  0  0  0
    4.4620    1.9770    1.3010 C   0  0  0  0  0  0  0  0  0  0  0  0
    5.7510    1.6690    0.7650 O   0  0  0  0  0  0  0  0  0  0  0  0
    1.4710    0.0180   -0.0770 C   0  0  0  0  0  0  0  0  0  0  0  0
    0.1570   -0.4690    0.2630 C   0  0  2  0  0  0  0  0  0  0  0  0
    0.0000   -0.6160    1.8060 C   0  0  2  0  0  0  0  0  0  0  0  0
    0.0510    0.6600    2.5400 C   0  0  0  0  0  0  0  0  0  0  0  0
    0.4540    0.2630    3.9090 C   0  0  0  0  0  0  0  0  0  0  0  0
    1.0120   -0.9020    3.8990 C   0  0  0  0  0  0  0  0  0  0  0  0
    1.0300   -1.4030    2.4770 C   0  0  0  0  0  0  0  0  0  0  0  0
    0.3320   -2.0100   -0.0400 C   0  0  2  0  0  0  0  0  0  0  0  0
    0.5690   -2.4840   -1.3820 C   0  0  1  0  0  0  0  0  0  0  0  0
    1.6710   -2.1210   -2.2840 C   0  0  0  0  0  0  0  0  0  0  0  0
    0.7790   -4.0220   -1.1720 C   0  0  0  0  0  0  0  0  0  0  0  0
   -0.8110   -2.8200    0.5090 C   0  0  0  0  0  0  0  0  0  0  0  0
   -2.1170   -2.3770   -0.0850 C   0  0  1  0  0  0  0  0  0  0  0  0
   -3.1320   -3.0290    0.6210 O   0  0  0  0  0  0  0  0  0  0  0  0
   -2.3280   -0.9120   -0.0250 C   0  0  2  0  0  0  0  0  0  0  0  0
   -3.4570   -0.6960   -1.0330 C   0  0  0  0  0  0  0  0  0  0  0  0
   -1.1390   -0.0440   -0.3060 C   0  0  2  0  0  0  0  0  0  0  0  0
   -0.9590   -0.2500   -1.7310 O   0  0  0  0  0  0  0  0  0  0  0  0
   -1.5370    1.4100   -0.3050 C   0  0  1  0  0  0  0  0  0  0  0  0
   -1.1430    2.2150   -1.4970 C   0  0  0  0  0  0  0  0  0  0  0  0
   -2.2770    2.6780   -2.3400 C   0  0  0  0  0  0  0  0  0  0  0  0
   -3.3840    3.0320   -1.7600 C   0  0  0  0  0  0  0  0  0  0  0  0
   -3.5130    2.9760   -0.3200 C   0  0  0  0  0  0  0  0  0  0  0  0
   -2.7890    1.8360    0.3600 C   0  0  0  0  0  0  0  0  0  0  0  0
  1  2  1  0
  2  3  1  0
  3  4  2  3
  3  7  1  0
  4  5  1  0
  5  6  1  0
  8  7  1  1
  8  9  1  0
  8 14  1  0
  8 23  1  0
  9 10  1  1
  9 13  1  0
 10 11  1  0
 11 12  2  0
 12 13  1  0
 14 15  1  0
 14 18  1  6
 15 16  1  1
 15 17  1  0
 18 19  1  0
 19 20  1  1
 19 21  1  0
 21 22  1  6
 21 23  1  0
 23 24  1  6
 23 25  1  0
 25 26  1  6
 25 30  1  0
 26 27  1  0
 27 28  2  0
 28 29  1  0
 29 30  1  0
M  END
