
     RDKit          3D

 30 32  0  0  0  0  0  0  0  0999 V2000
   -5.2180   -0.3670    1.3610 C   0  0  0  0  0  0  0  0  0  0  0  0
   -3.7970    0.1540    1.0490 C   0  0  0  0  0  0  0  0  0  0  0  0
   -3.2580   -0.5710   -0.1880 C   0  0  2  0  0  0  0  0  0  0  0  0
   -3.3080   -2.0030    0.2240 C   0  0  0  0  0  0  0  0  0  0  0  0
   -3.1260   -3.1030   -0.7220 C   0  0  0  0  0  0  0  0  0  0  0  0
   -2.4020   -2.8280   -1.9930 C   0  0  0  0  0  0  0  0  0  0  0  0
   -2.6560   -1.5080   -2.5870 C   0  0  0  0  0  0  0  0  0  0  0  0
   -1.8820   -0.3470   -2.0860 C   0  0  1  0  0  0  0  0  0  0  0  0
   -0.6910   -0.3120   -2.7650 O   0  0  0  0  0  0  0  0  0  0  0  0
   -2.6760    0.8320   -2.7210 C   0  0  0  0  0  0  0  0  0  0  0  0
   -1.6230    1.9150   -2.8340 C   0  0  0  0  0  0  0  0  0  0  0  0
   -1.2790    2.2990   -1.4520 C   0  0  2  0  0  0  0  0  0  0  0  0
   -1.8750    3.7230   -1.2890 C   0  0  0  0  0  0  0  0  0  0  0  0
    0.2130    2.5630   -1.4030 C   0  0  0  0  0  0  0  0  0  0  0  0
   -1.7160    1.4060   -0.3540 C   0  0  0  0  0  0  0  0  0  0  0  0
   -1.8530   -0.0780   -0.6150 C   0  0  1  0  0  0  0  0  0  0  0  0
   -0.9400   -0.7930    0.2670 C   0  0  0  0  0  0  0  0  0  0  0  0
    0.4620   -0.8580    0.4850 C   0  0  1  0  0  0  0  0  0  0  0  0
    1.3110   -1.3000   -0.6620 C   0  0  0  0  0  0  0  0  0  0  0  0
    2.6330   -1.8930   -0.2570 C   0  0  0  0  0  0  0  0  0  0  0  0
    2.9260   -1.6000    1.1390 C   0  0  1  0  0  0  0  0  0  0  0  0
    4.3250   -2.0870    1.5640 C   0  0  0  0  0  0  0  0  0  0  0  0
    2.6030   -0.2760    1.6740 C   0  0  1  0  0  0  0  0  0  0  0  0
    3.4800    0.8890    1.4240 C   0  0  1  0  0  0  0  0  0  0  0  0
    3.6880    1.2530   -0.0290 C   0  0  0  0  0  0  0  0  0  0  0  0
    2.7390    2.0070    1.9260 O   0  0  0  0  0  0  0  0  0  0  0  0
    4.7840    0.9790    2.1200 C   0  0  0  0  0  0  0  0  0  0  0  0
    4.7100    1.0100    3.6320 C   0  0  0  0  0  0  0  0  0  0  0  0
    6.0550    1.0980    4.0660 O   0  0  0  0  0  0  0  0  0  0  0  0
    1.1560    0.0610    1.4490 C   0  0  0  0  0  0  0  0  0  0  0  0
  1  2  1  0
  3  2  1  1
  3  4  1  0
  3 16  1  0
  4  5  1  0
  5  6  1  0
  6  7  1  0
  7  8  1  0
  8  9  1  6
  8 10  1  0
  8 16  1  0
 10 11  1  0
 11 12  1  0
 12 13  1  1
 12 14  1  0
 12 15  1  0
 15 16  1  0
 16 17  1  1
 18 17  1  6
 18 19  1  0
 18 30  1  0
 19 20  1  0
 20 21  1  0
 21 22  1  6
 21 23  1  0
 23 24  1  0
 23 30  1  6
 24 25  1  6
 24 26  1  0
 24 27  1  0
 27 28  1  0
 28 29  1  0
M  END
