
     RDKit          3D

 30 32  0  0  0  0  0  0  0  0999 V2000
   -3.7340   -0.9600   -3.1200 C   0  0  0  0  0  0  0  0  0  0  0  0
   -3.8460   -0.4540   -1.8750 C   0  0  0  0  0  0  0  0  0  0  0  0
   -2.6090   -0.1960   -1.1020 C   0  0  0  0  0  0  0  0  0  0  0  0
   -2.7690    0.5010    0.0870 N   0  0  0  0  0  0  0  0  0  0  0  0
   -1.9740    0.1200    1.2200 C   0  0  2  0  0  0  0  0  0  0  0  0
   -0.7420   -0.6370    0.9150 C   0  0  0  0  0  0  0  0  0  0  0  0
    0.1840    0.0950    0.0690 N   0  0  0  0  0  0  0  0  0  0  0  0
    1.3860    0.4460    0.7350 C   0  0  2  0  0  0  0  0  0  0  0  0
    1.5000    1.9440    1.0100 C   0  0  0  0  0  0  0  0  0  0  0  0
    2.6410   -0.0990    0.2250 C   0  0  0  0  0  0  0  0  0  0  0  0
    3.7650    0.6920    0.3070 C   0  0  0  0  0  0  0  0  0  0  0  0
    5.0340    0.2790   -0.1290 C   0  0  0  0  0  0  0  0  0  0  0  0
    6.1360    1.1620   -0.0260 N   0  0  0  0  0  0  0  0  0  0  0  0
    7.4880    0.7930   -0.1510 C   0  0  0  0  0  0  0  0  0  0  0  0
    7.8280   -0.3880   -0.3640 O   0  0  0  0  0  0  0  0  0  0  0  0
    8.6010    1.7830   -0.0400 C   0  0  0  0  0  0  0  0  0  0  0  0
    9.8860    1.1440   -0.2130 N   0  0  0  0  0  0  0  0  0  0  0  0
    5.0970   -0.9790   -0.6520 C   0  0  0  0  0  0  0  0  0  0  0  0
    3.9480   -1.7930   -0.7380 C   0  0  0  0  0  0  0  0  0  0  0  0
    2.7170   -1.3700   -0.3060 C   0  0  0  0  0  0  0  0  0  0  0  0
    1.5960   -2.1860   -0.4000 O   0  0  0  0  0  0  0  0  0  0  0  0
    1.5260   -3.4710   -0.9100 C   0  0  0  0  0  0  0  0  0  0  0  0
   -2.7650   -0.6100    2.2840 C   0  0  0  0  0  0  0  0  0  0  0  0
   -3.9250    0.2060    2.7980 C   0  0  0  0  0  0  0  0  0  0  0  0
   -4.1330    1.4160    1.9050 C   0  0  0  0  0  0  0  0  0  0  0  0
   -4.0390    1.0240    0.4400 C   0  0  2  0  0  0  0  0  0  0  0  0
   -5.1670    0.0400    0.1920 C   0  0  0  0  0  0  0  0  0  0  0  0
   -5.1380   -0.1730   -1.3010 C   0  0  0  0  0  0  0  0  0  0  0  0
   -6.2460   -0.0950   -2.0080 C   0  0  0  0  0  0  0  0  0  0  0  0
   -7.5260    0.1790   -1.4550 N   0  0  0  0  0  0  0  0  0  0  0  0
  1  2  2  0
  2  3  1  0
  2 28  1  0
  3  4  1  0
  4  5  1  0
  4 26  1  0
  5  6  1  6
  5 23  1  0
  6  7  1  0
  7  8  1  0
  8  9  1  6
  8 10  1  0
 10 11  2  0
 10 20  1  0
 11 12  1  0
 12 13  1  0
 12 18  2  0
 13 14  1  0
 14 15  2  0
 14 16  1  0
 16 17  1  0
 18 19  1  0
 19 20  2  0
 20 21  1  0
 21 22  1  0
 23 24  1  0
 24 25  1  0
 26 25  1  1
 26 27  1  0
 27 28  1  0
 28 29  2  3
 29 30  1  0
M  CHG  2   7   1  30   1
M  END
