
     RDKit          3D

 30 32  0  0  0  0  0  0  0  0999 V2000
   -1.4260    2.8800   -0.5530 C   0  0  0  0  0  0  0  0  0  0  0  0
   -0.6960    2.8350    0.7310 C   0  0  0  0  0  0  0  0  0  0  0  0
   -0.1880    1.6260    1.2290 N   0  0  0  0  0  0  0  0  0  0  0  0
   -0.0190    0.4800    0.4070 C   0  0  1  0  0  0  0  0  0  0  0  0
    1.3240   -0.1190    0.3580 C   0  0  0  0  0  0  0  0  0  0  0  0
    1.5350   -1.4280    0.7200 C   0  0  0  0  0  0  0  0  0  0  0  0
    2.8200   -1.9830    0.6790 C   0  0  0  0  0  0  0  0  0  0  0  0
    3.0150   -3.3130    1.0560 C   0  0  0  0  0  0  0  0  0  0  0  0
    4.2960   -3.8330    1.0110 C   0  0  0  0  0  0  0  0  0  0  0  0
    5.3140   -3.0680    0.6130 N   0  0  0  0  0  0  0  0  0  0  0  0
    5.1290   -1.7610    0.2410 C   0  0  0  0  0  0  0  0  0  0  0  0
    6.2390   -0.9970   -0.1810 N   0  0  0  0  0  0  0  0  0  0  0  0
    6.3030   -0.5130   -1.5320 C   0  0  0  0  0  0  0  0  0  0  0  0
    7.2930   -0.7160    0.7630 C   0  0  0  0  0  0  0  0  0  0  0  0
    3.8730   -1.2010    0.2700 C   0  0  0  0  0  0  0  0  0  0  0  0
    3.6300    0.0990   -0.0850 C   0  0  0  0  0  0  0  0  0  0  0  0
    2.3840    0.6960   -0.0630 C   0  0  0  0  0  0  0  0  0  0  0  0
    2.1940    2.0860   -0.4750 C   0  0  0  0  0  0  0  0  0  0  0  0
   -0.9880   -0.5560    0.9300 C   0  0  1  0  0  0  0  0  0  0  0  0
   -0.7870   -0.8950    2.3300 N   0  0  0  0  0  0  0  0  0  0  0  0
   -2.4480   -0.2180    0.6860 C   0  0  0  0  0  0  0  0  0  0  0  0
   -2.7330   -0.1020   -0.6690 N   0  0  0  0  0  0  0  0  0  0  0  0
   -4.0750    0.1170   -1.0950 C   0  0  2  0  0  0  0  0  0  0  0  0
   -3.9880    0.6880   -2.4790 C   0  0  0  0  0  0  0  0  0  0  0  0
   -2.9080    0.8970   -3.0490 O   0  0  0  0  0  0  0  0  0  0  0  0
   -5.1700    0.9920   -3.1460 O   0  0  0  0  0  0  0  0  0  0  0  0
   -4.8730    1.0570   -0.2860 C   0  0  0  0  0  0  0  0  0  0  0  0
   -6.2530    0.4500   -0.2340 C   0  0  0  0  0  0  0  0  0  0  0  0
   -6.0050   -1.0620   -0.2470 C   0  0  0  0  0  0  0  0  0  0  0  0
   -4.8590   -1.1720   -1.2490 C   0  0  0  0  0  0  0  0  0  0  0  0
  1  2  1  0
  2  3  1  0
  4  3  1  1
  4  5  1  0
  4 19  1  0
  5  6  2  0
  5 17  1  0
  6  7  1  0
  7  8  2  0
  7 15  1  0
  8  9  1  0
  9 10  2  0
 10 11  1  0
 11 12  1  0
 11 15  2  0
 12 13  1  0
 12 14  1  0
 15 16  1  0
 16 17  2  0
 17 18  1  0
 19 20  1  1
 19 21  1  0
 21 22  1  0
 23 22  1  1
 23 24  1  0
 23 27  1  0
 23 30  1  0
 24 25  2  0
 24 26  1  0
 27 28  1  0
 28 29  1  0
 29 30  1  0
M  CHG  2   3   1  20   1
M  END
