
     RDKit          3D

 30 32  0  0  0  0  0  0  0  0999 V2000
   -1.9900    3.3550    1.2280 C   0  0  0  0  0  0  0  0  0  0  0  0
   -0.7340    3.7500    0.9950 O   0  0  0  0  0  0  0  0  0  0  0  0
    0.0650    3.1320    0.0560 C   0  0  2  0  0  0  0  0  0  0  0  0
   -0.7010    3.3280   -1.2800 C   0  0  0  0  0  0  0  0  0  0  0  0
    0.1860    1.7210    0.3410 C   0  0  1  0  0  0  0  0  0  0  0  0
   -1.1080    1.2180    0.2420 O   0  0  0  0  0  0  0  0  0  0  0  0
   -1.0660   -0.1090   -0.1640 C   0  0  2  0  0  0  0  0  0  0  0  0
   -1.3880   -0.2010   -1.6520 C   0  0  0  0  0  0  0  0  0  0  0  0
   -2.0830   -0.8530    0.5960 C   0  0  0  0  0  0  0  0  0  0  0  0
   -2.3160   -2.2830    0.4780 C   0  0  2  0  0  0  0  0  0  0  0  0
   -2.7360   -2.8240   -0.8530 C   0  0  0  0  0  0  0  0  0  0  0  0
   -3.6320   -4.0680   -0.6630 C   0  0  0  0  0  0  0  0  0  0  0  0
   -4.9450   -3.6850   -0.0430 C   0  0  0  0  0  0  0  0  0  0  0  0
   -4.7500   -2.6670    1.0430 C   0  0  2  0  0  0  0  0  0  0  0  0
   -5.2390   -1.4070    0.6190 N   0  0  0  0  0  0  0  0  0  0  0  0
   -3.3460   -2.7050    1.5550 C   0  0  0  0  0  0  0  0  0  0  0  0
    0.3430   -0.5030    0.0210 C   0  0  0  0  0  0  0  0  0  0  0  0
    1.0650    0.7990   -0.4280 C   0  0  2  0  0  0  0  0  0  0  0  0
    2.4450    0.6680    0.1480 C   0  0  0  0  0  0  0  0  0  0  0  0
    3.4410   -0.1630   -0.5770 C   0  0  0  0  0  0  0  0  0  0  0  0
    3.1970   -1.5590   -0.8260 C   0  0  0  0  0  0  0  0  0  0  0  0
    3.9220   -2.5060   -0.2030 C   0  0  0  0  0  0  0  0  0  0  0  0
    5.0330   -2.2820    0.7930 C   0  0  0  0  0  0  0  0  0  0  0  0
    5.4870   -3.6930    1.0740 C   0  0  0  0  0  0  0  0  0  0  0  0
    5.0880   -4.4740   -0.0120 O   0  0  0  0  0  0  0  0  0  0  0  0
    3.8140   -3.9690   -0.3330 C   0  0  0  0  0  0  0  0  0  0  0  0
    1.2440    4.0440   -0.0560 C   0  0  2  0  0  0  0  0  0  0  0  0
    1.9700    4.2090    1.2710 C   0  0  0  0  0  0  0  0  0  0  0  0
    0.6150    5.4410   -0.2950 C   0  0  0  0  0  0  0  0  0  0  0  0
    2.1290    3.8770   -1.2280 C   0  0  0  0  0  0  0  0  0  0  0  0
  1  2  1  0
  2  3  1  0
  3  4  1  6
  3  5  1  0
  3 27  1  0
  5  6  1  6
  5 18  1  0
  6  7  1  0
  7  8  1  6
  7  9  1  0
  7 17  1  0
 10  9  1  6
 10 11  1  0
 10 16  1  0
 11 12  1  0
 12 13  1  0
 13 14  1  0
 14 15  1  6
 14 16  1  0
 17 18  1  0
 18 19  1  1
 19 20  1  0
 20 21  1  0
 21 22  2  3
 22 23  1  0
 22 26  1  0
 23 24  1  0
 24 25  1  0
 25 26  1  0
 27 28  1  1
 27 29  1  0
 27 30  1  0
M  END
