
     RDKit          3D

 20 19  0  0  0  0  0  0  0  0999 V2000
    0.0290    1.4450   -2.7430 C   0  0  0  0  0  0  0  0  0  0  0  0
    0.2630    0.4140   -1.9940 O   0  0  0  0  0  0  0  0  0  0  0  0
    0.4910   -0.6230   -1.2480 C   0  0  0  0  0  0  0  0  0  0  0  0
   -0.0910   -1.0390   -0.1440 C   0  0  0  0  0  0  0  0  0  0  0  0
   -1.1960   -0.4270    0.5690 C   0  0  0  0  0  0  0  0  0  0  0  0
   -1.5980   -1.0240    1.6810 C   0  0  0  0  0  0  0  0  0  0  0  0
   -0.9560   -2.1930    2.1140 N   0  0  0  0  0  0  0  0  0  0  0  0
   -2.9320   -0.3700    2.6350 S   0  0  0  0  0  0  0  0  0  0  0  0
   -1.9630    0.7530    0.1690 C   0  0  2  0  0  0  0  0  0  0  0  0
   -2.5670    1.4420    1.2060 O   0  0  0  0  0  0  0  0  0  0  0  0
   -2.8580    0.6110   -0.9710 C   0  0  0  0  0  0  0  0  0  0  0  0
   -4.0980    1.3430   -0.9610 N   0  0  0  0  0  0  0  0  0  0  0  0
   -2.6970   -0.0660   -1.9680 O   0  0  0  0  0  0  0  0  0  0  0  0
    1.5670   -1.4540   -1.7180 O   0  0  0  0  0  0  0  0  0  0  0  0
    2.4060   -2.1870   -0.9040 C   0  0  0  0  0  0  0  0  0  0  0  0
    3.1780   -1.4270    0.0920 C   0  0  0  0  0  0  0  0  0  0  0  0
    3.9450   -2.0500    0.8700 O   0  0  0  0  0  0  0  0  0  0  0  0
    3.1200   -0.0180    0.2410 N   0  0  0  0  0  0  0  0  0  0  0  0
    3.9130    0.6740    1.2520 C   0  0  0  0  0  0  0  0  0  0  0  0
    3.6570    2.0240    1.1670 O   0  0  0  0  0  0  0  0  0  0  0  0
  1  2  1  0
  2  3  1  0
  3  4  2  3
  3 14  1  0
  4  5  1  0
  5  6  2  3
  5  9  1  0
  6  7  1  0
  6  8  1  0
  9 10  1  1
  9 11  1  0
 11 12  1  0
 11 13  2  0
 14 15  1  0
 15 16  1  0
 16 17  2  0
 16 18  1  0
 18 19  1  0
 19 20  1  0
M  CHG  1  12   1
M  END
