
     RDKit          3D

 20 19  0  0  0  0  0  0  0  0999 V2000
    3.4490    2.5070    1.9020 N   0  0  0  0  0  0  0  0  0  0  0  0
    3.7870    1.1980    1.4210 C   0  0  0  0  0  0  0  0  0  0  0  0
    4.3430    0.4020    2.2060 O   0  0  0  0  0  0  0  0  0  0  0  0
    3.5270    0.7840    0.1410 O   0  0  0  0  0  0  0  0  0  0  0  0
    3.8450   -0.4900   -0.3580 C   0  0  0  0  0  0  0  0  0  0  0  0
    3.1930   -1.6210    0.3500 C   0  0  0  0  0  0  0  0  0  0  0  0
    1.8280   -1.6480    0.3630 O   0  0  0  0  0  0  0  0  0  0  0  0
    1.3240   -1.7680   -0.9160 C   0  0  2  0  0  0  0  0  0  0  0  0
    0.5420   -0.5510   -1.3510 C   0  0  0  0  0  0  0  0  0  0  0  0
   -0.6170   -0.3170   -0.4390 C   0  0  0  0  0  0  0  0  0  0  0  0
   -0.8570   -1.0700    0.5430 O   0  0  0  0  0  0  0  0  0  0  0  0
   -1.4830    0.7420   -0.6340 O   0  0  0  0  0  0  0  0  0  0  0  0
   -2.5760    0.9870    0.2010 C   0  0  2  0  0  0  0  0  0  0  0  0
   -3.8360    0.8660   -0.6300 C   0  0  0  0  0  0  0  0  0  0  0  0
   -5.0140    1.1070    0.1660 N   0  0  0  0  0  0  0  0  0  0  0  0
   -2.5430    2.3610    0.8280 C   0  0  0  0  0  0  0  0  0  0  0  0
   -1.3860    2.5160    1.6040 O   0  0  0  0  0  0  0  0  0  0  0  0
    0.5010   -3.0110   -1.0520 C   0  0  0  0  0  0  0  0  0  0  0  0
   -0.1110   -3.3270   -2.2890 N   0  0  0  0  0  0  0  0  0  0  0  0
    0.2820   -4.0310    0.1970 S   0  0  0  0  0  0  0  0  0  0  0  0
  1  2  1  0
  2  3  2  0
  2  4  1  0
  4  5  1  0
  5  6  1  0
  6  7  1  0
  7  8  1  0
  8  9  1  1
  8 18  1  0
  9 10  1  0
 10 11  2  0
 10 12  1  0
 12 13  1  0
 13 14  1  6
 13 16  1  0
 14 15  1  0
 16 17  1  0
 18 19  1  0
 18 20  2  0
M  CHG  1  15   1
M  END
