
     RDKit          3D

 17 19  0  0  0  0  0  0  0  0999 V2000
   -5.4310    0.2630   -0.2030 O   0  0  0  0  0  0  0  0  0  0  0  0
   -4.0290    0.2100   -0.1650 C   0  0  0  0  0  0  0  0  0  0  0  0
   -3.3610   -1.0030   -0.1930 C   0  0  0  0  0  0  0  0  0  0  0  0
   -1.9860   -1.0890   -0.1560 C   0  0  0  0  0  0  0  0  0  0  0  0
   -1.2220    0.0520   -0.0900 C   0  0  0  0  0  0  0  0  0  0  0  0
    0.2470    0.0050   -0.0490 C   0  0  0  0  0  0  0  0  0  0  0  0
    1.0000   -1.1490   -0.0730 C   0  0  0  0  0  0  0  0  0  0  0  0
    2.3110   -0.7760   -0.0200 N   0  0  0  0  0  0  0  0  0  0  0  0
    3.4590   -1.4810   -0.0150 C   0  0  0  0  0  0  0  0  0  0  0  0
    4.6990   -0.8850    0.0440 C   0  0  0  0  0  0  0  0  0  0  0  0
    4.7880    0.4840    0.1000 C   0  0  0  0  0  0  0  0  0  0  0  0
    3.6200    1.2110    0.0950 C   0  0  0  0  0  0  0  0  0  0  0  0
    2.3870    0.5700    0.0340 C   0  0  0  0  0  0  0  0  0  0  0  0
    1.1090    1.0240    0.0150 N   0  0  0  0  0  0  0  0  0  0  0  0
   -1.8820    1.2620   -0.0620 C   0  0  0  0  0  0  0  0  0  0  0  0
   -3.2640    1.3490   -0.0980 C   0  0  0  0  0  0  0  0  0  0  0  0
   -3.8980    2.5790   -0.0680 O   0  0  0  0  0  0  0  0  0  0  0  0
  1  2  1  0
  2  3  2  0
  2 16  1  0
  3  4  1  0
  4  5  2  0
  5  6  1  0
  5 15  1  0
  6  7  2  0
  6 14  1  0
  7  8  1  0
  8  9  1  0
  8 13  1  0
  9 10  2  0
 10 11  1  0
 11 12  2  0
 12 13  1  0
 13 14  2  0
 15 16  2  0
 16 17  1  0
M  END
