
     RDKit          3D

 20 19  0  0  0  0  0  0  0  0999 V2000
   -4.1440    0.2010   -1.7200 C   0  0  0  0  0  0  0  0  0  0  0  0
   -3.4220   -0.4370   -0.5730 C   0  0  2  0  0  0  0  0  0  0  0  0
   -3.3510   -1.9360   -0.7550 C   0  0  0  0  0  0  0  0  0  0  0  0
   -2.6580   -2.1750   -1.9540 O   0  0  0  0  0  0  0  0  0  0  0  0
   -4.1370   -0.1370    0.7290 C   0  0  0  0  0  0  0  0  0  0  0  0
   -4.1670    1.3670    0.9140 C   0  0  0  0  0  0  0  0  0  0  0  0
   -4.8010    1.7460    2.0770 O   0  0  0  0  0  0  0  0  0  0  0  0
   -2.0510    0.1560   -0.4450 C   0  0  0  0  0  0  0  0  0  0  0  0
   -1.6780    1.0610   -1.2550 O   0  0  0  0  0  0  0  0  0  0  0  0
   -1.1330   -0.2390    0.5410 N   0  0  0  0  0  0  0  0  0  0  0  0
    0.1740    0.3180    0.6730 C   0  0  0  0  0  0  0  0  0  0  0  0
    0.5220    1.2080   -0.1350 O   0  0  0  0  0  0  0  0  0  0  0  0
    1.0740   -0.0740    1.6450 O   0  0  0  0  0  0  0  0  0  0  0  0
    2.3590    0.4040    1.8470 C   0  0  0  0  0  0  0  0  0  0  0  0
    3.1840    0.1200    0.6160 C   0  0  0  0  0  0  0  0  0  0  0  0
    4.6120    0.6350    0.8130 C   0  0  0  0  0  0  0  0  0  0  0  0
    5.4880    0.2510   -0.6850 S   0  0  2  0  0  0  0  0  0  0  0  0
    4.7570    1.0120   -2.0190 N   0  0  0  0  0  0  0  0  0  0  0  0
    5.5880   -1.2960   -0.8350 N   0  0  0  0  0  0  0  0  0  0  0  0
    6.9580    0.6240   -0.5510 O   0  0  0  0  0  0  0  0  0  0  0  0
  2  1  1  6
  2  3  1  0
  2  5  1  0
  2  8  1  0
  3  4  1  0
  5  6  1  0
  6  7  1  0
  8  9  2  0
  8 10  1  0
 10 11  1  0
 11 12  2  0
 11 13  1  0
 13 14  1  0
 14 15  1  0
 15 16  1  0
 16 17  1  0
 17 18  1  6
 17 19  2  0
 17 20  2  0
M  CHG  1  19   1
M  END
