
     RDKit          3D

 20 19  0  0  0  0  0  0  0  0999 V2000
    3.0770   -2.1340    0.7700 C   0  0  0  0  0  0  0  0  0  0  0  0
    1.8890   -1.4380    0.2000 C   0  0  0  0  0  0  0  0  0  0  0  0
    1.9040   -0.3350   -0.4880 C   0  0  0  0  0  0  0  0  0  0  0  0
    3.0050    0.5190   -0.8960 C   0  0  0  0  0  0  0  0  0  0  0  0
    4.3250    0.1700   -0.5240 N   0  0  0  0  0  0  0  0  0  0  0  0
    0.6650   -2.0840    0.4650 O   0  0  0  0  0  0  0  0  0  0  0  0
   -0.5730   -1.7050   -0.0780 C   0  0  2  0  0  0  0  0  0  0  0  0
   -0.6460   -1.7400   -1.5420 C   0  0  0  0  0  0  0  0  0  0  0  0
    0.4330   -2.1940   -2.3350 N   0  0  0  0  0  0  0  0  0  0  0  0
   -1.6930   -1.3590   -2.1130 O   0  0  0  0  0  0  0  0  0  0  0  0
   -1.1030   -0.4450    0.5040 C   0  0  0  0  0  0  0  0  0  0  0  0
   -0.5180    0.1560    1.4230 O   0  0  0  0  0  0  0  0  0  0  0  0
   -2.2790    0.0960    0.0280 O   0  0  0  0  0  0  0  0  0  0  0  0
   -2.8110    1.2980    0.5640 C   0  0  1  0  0  0  0  0  0  0  0  0
   -2.8510    2.3320   -0.4980 C   0  0  0  0  0  0  0  0  0  0  0  0
   -3.3390    3.6410   -0.2460 N   0  0  0  0  0  0  0  0  0  0  0  0
   -2.4460    2.0520   -1.6490 O   0  0  0  0  0  0  0  0  0  0  0  0
   -4.1830    1.0820    1.0700 C   0  0  0  0  0  0  0  0  0  0  0  0
   -4.9000    2.1140    1.6370 O   0  0  0  0  0  0  0  0  0  0  0  0
   -4.8390   -0.4010    0.9470 S   0  0  0  0  0  0  0  0  0  0  0  0
  1  2  1  0
  2  3  2  3
  2  6  1  0
  3  4  1  0
  4  5  1  0
  7  6  1  6
  7  8  1  0
  7 11  1  0
  8  9  1  0
  8 10  2  0
 11 12  2  0
 11 13  1  0
 14 13  1  6
 14 15  1  0
 14 18  1  0
 15 16  1  0
 15 17  2  0
 18 19  1  0
 18 20  2  0
M  CHG  1   5   1
M  END
