
     RDKit          3D

 30 33  0  0  0  0  0  0  0  0999 V2000
    1.5930    0.3390    2.3370 C   0  0  0  0  0  0  0  0  0  0  0  0
    2.0120   -0.4170    1.1010 C   0  0  2  0  0  0  0  0  0  0  0  0
    2.9820    0.2420    0.3170 N   0  0  0  0  0  0  0  0  0  0  0  0
    4.2450   -0.4740    0.3420 C   0  0  1  0  0  0  0  0  0  0  0  0
    4.3920   -1.5080   -0.7230 C   0  0  0  0  0  0  0  0  0  0  0  0
    5.8940   -1.5530   -0.9980 C   0  0  0  0  0  0  0  0  0  0  0  0
    6.2180   -0.0780   -1.0250 C   0  0  0  0  0  0  0  0  0  0  0  0
    5.3760    0.5090    0.0710 C   0  0  0  0  0  0  0  0  0  0  0  0
    0.9190   -1.1220    0.4010 C   0  0  0  0  0  0  0  0  0  0  0  0
    1.0270   -2.4860   -0.0040 C   0  0  0  0  0  0  0  0  0  0  0  0
   -0.1460   -2.8440   -0.5180 N   0  0  0  0  0  0  0  0  0  0  0  0
   -0.9960   -1.8150   -0.4750 C   0  0  0  0  0  0  0  0  0  0  0  0
   -2.4030   -1.7690   -0.9460 C   0  0  0  0  0  0  0  0  0  0  0  0
   -3.2830   -2.1860    0.2150 C   0  0  0  0  0  0  0  0  0  0  0  0
   -4.7110   -2.1730   -0.1320 C   0  0  0  0  0  0  0  0  0  0  0  0
   -5.6380   -1.1630   -0.0330 C   0  0  0  0  0  0  0  0  0  0  0  0
   -6.8050   -1.6640   -0.4890 N   0  0  0  0  0  0  0  0  0  0  0  0
   -6.6790   -2.9210   -0.8690 N   0  0  0  0  0  0  0  0  0  0  0  0
   -7.7380   -3.7750   -1.4150 C   0  0  0  0  0  0  0  0  0  0  0  0
   -5.3880   -3.2530   -0.6550 C   0  0  0  0  0  0  0  0  0  0  0  0
   -0.3100   -0.7410    0.1030 N   0  0  0  0  0  0  0  0  0  0  0  0
   -0.9540    0.4830    0.1340 N   0  0  0  0  0  0  0  0  0  0  0  0
   -0.4750    1.7970    0.1390 C   0  0  0  0  0  0  0  0  0  0  0  0
    0.7300    2.0620    0.0460 O   0  0  0  0  0  0  0  0  0  0  0  0
   -1.3420    2.9390    0.2520 N   0  0  0  0  0  0  0  0  0  0  0  0
   -0.7950    4.2710    0.2520 C   0  0  0  0  0  0  0  0  0  0  0  0
   -0.9000    5.1690    1.2110 C   0  0  0  0  0  0  0  0  0  0  0  0
   -0.2000    6.4120    0.8270 C   0  0  0  0  0  0  0  0  0  0  0  0
    0.3240    6.0590   -0.5280 C   0  0  0  0  0  0  0  0  0  0  0  0
   -0.0350    4.8700   -0.7880 N   0  0  0  0  0  0  0  0  0  0  0  0
  2  1  1  1
  2  3  1  0
  2  9  1  0
  4  3  1  6
  4  5  1  0
  4  8  1  0
  5  6  1  0
  6  7  1  0
  7  8  1  0
  9 10  2  0
  9 21  1  0
 10 11  1  0
 11 12  2  0
 12 13  1  0
 12 21  1  0
 13 14  1  0
 14 15  1  0
 15 16  1  0
 15 20  2  0
 16 17  2  0
 17 18  1  0
 18 19  1  0
 18 20  1  0
 21 22  1  0
 22 23  1  0
 23 24  2  0
 23 25  1  0
 25 26  1  0
 26 27  2  0
 26 30  1  0
 27 28  1  0
 28 29  1  0
 29 30  2  0
M  CHG  1   3   1
M  END
