
     RDKit          3D

 29 31  0  0  0  0  0  0  0  0999 V2000
    5.5280    0.1560    0.4600 C   0  0  0  0  0  0  0  0  0  0  0  0
    4.4000   -0.8050    0.2070 C   0  0  1  0  0  0  0  0  0  0  0  0
    3.4630   -0.8820    1.3870 C   0  0  0  0  0  0  0  0  0  0  0  0
    3.7520   -0.7470   -0.9980 N   0  0  0  0  0  0  0  0  0  0  0  0
    3.9410   -1.9450   -1.8250 C   0  0  0  0  0  0  0  0  0  0  0  0
    2.8260    0.4170   -1.6640 S   0  0  1  0  0  0  0  0  0  0  0  0
    3.5260    1.7370   -1.9500 O   0  0  0  0  0  0  0  0  0  0  0  0
    2.4190   -0.0480   -3.0740 O   0  0  0  0  0  0  0  0  0  0  0  0
    1.3430    0.8830   -0.8540 C   0  0  0  0  0  0  0  0  0  0  0  0
    0.1340    0.4290   -1.3500 C   0  0  0  0  0  0  0  0  0  0  0  0
   -1.1030    0.6860   -0.7400 C   0  0  0  0  0  0  0  0  0  0  0  0
   -2.3140    0.1900   -1.3850 C   0  0  0  0  0  0  0  0  0  0  0  0
   -2.3750   -0.0930   -2.7410 N   0  0  0  0  0  0  0  0  0  0  0  0
   -3.5310   -0.5720   -3.0690 N   0  0  0  0  0  0  0  0  0  0  0  0
   -4.2730   -0.6290   -1.9760 C   0  0  0  0  0  0  0  0  0  0  0  0
   -5.4530   -1.0480   -1.9480 O   0  0  0  0  0  0  0  0  0  0  0  0
   -3.5030   -0.1550   -0.9410 N   0  0  0  0  0  0  0  0  0  0  0  0
   -4.0430   -0.1560    0.3620 C   0  0  0  0  0  0  0  0  0  0  0  0
   -5.0920    0.6890    0.6750 C   0  0  0  0  0  0  0  0  0  0  0  0
   -5.6980    0.7170    1.9090 C   0  0  0  0  0  0  0  0  0  0  0  0
   -5.2030   -0.1610    2.8570 C   0  0  0  0  0  0  0  0  0  0  0  0
   -4.1480   -1.0190    2.5580 C   0  0  0  0  0  0  0  0  0  0  0  0
   -3.5630   -1.0230    1.3140 C   0  0  0  0  0  0  0  0  0  0  0  0
   -2.5280   -1.8560    1.0020 F   0  0  0  0  0  0  0  0  0  0  0  0
   -1.0600    1.4280    0.4000 C   0  0  0  0  0  0  0  0  0  0  0  0
   -2.2110    1.7530    1.0880 O   0  0  0  0  0  0  0  0  0  0  0  0
    0.1660    1.8880    0.9030 C   0  0  0  0  0  0  0  0  0  0  0  0
    1.3740    1.6300    0.2960 C   0  0  0  0  0  0  0  0  0  0  0  0
    2.5350    2.1380    0.8640 O   0  0  0  0  0  0  0  0  0  0  0  0
  2  1  1  1
  2  3  1  0
  2  4  1  0
  4  5  1  0
  6  4  1  1
  6  7  2  0
  6  8  2  0
  6  9  1  0
  9 10  2  0
  9 28  1  0
 10 11  1  0
 11 12  1  0
 11 25  2  0
 12 13  2  0
 12 17  1  0
 13 14  1  0
 14 15  1  0
 15 16  2  0
 15 17  1  0
 17 18  1  0
 18 19  2  0
 18 23  1  0
 19 20  1  0
 20 21  2  0
 21 22  1  0
 22 23  2  0
 23 24  1  0
 25 26  1  0
 25 27  1  0
 27 28  2  0
 28 29  1  0
M  END
