
     RDKit          3D

 30 33  0  0  0  0  0  0  0  0999 V2000
    1.8380   -3.7970    0.9960 C   0  0  0  0  0  0  0  0  0  0  0  0
    1.8750   -3.4180   -0.4800 C   0  0  1  0  0  0  0  0  0  0  0  0
    1.4600   -1.9570   -0.6530 C   0  0  0  0  0  0  0  0  0  0  0  0
    0.1320   -1.8060   -0.1460 N   0  0  0  0  0  0  0  0  0  0  0  0
   -0.5240   -0.5310   -0.1610 C   0  0  0  0  0  0  0  0  0  0  0  0
    0.1070    0.5960   -0.6570 C   0  0  0  0  0  0  0  0  0  0  0  0
   -0.5250    1.8260   -0.6690 C   0  0  0  0  0  0  0  0  0  0  0  0
   -1.7710    1.9080   -0.1880 N   0  0  0  0  0  0  0  0  0  0  0  0
   -2.4640    0.8580    0.3170 C   0  0  0  0  0  0  0  0  0  0  0  0
   -3.8440    1.0200    0.8440 C   0  0  0  0  0  0  0  0  0  0  0  0
   -4.7560    1.2570   -0.2200 N   0  0  0  0  0  0  0  0  0  0  0  0
   -4.7500    0.1400   -1.1310 C   0  0  0  0  0  0  0  0  0  0  0  0
   -6.0110   -0.6720   -0.8680 C   0  0  0  0  0  0  0  0  0  0  0  0
   -6.7290    0.0570    0.2370 C   0  0  0  0  0  0  0  0  0  0  0  0
   -6.1190    1.4190    0.1490 C   0  0  1  0  0  0  0  0  0  0  0  0
   -6.3140    2.2250    1.4110 C   0  0  0  0  0  0  0  0  0  0  0  0
   -1.8060   -0.3750    0.3190 C   0  0  0  0  0  0  0  0  0  0  0  0
    3.5740   -3.6170   -1.0490 S   0  0  0  0  0  0  0  0  0  0  0  0
    4.6220   -2.4180   -0.2400 C   0  0  0  0  0  0  0  0  0  0  0  0
    4.9050   -1.1780   -0.6800 N   0  0  0  0  0  0  0  0  0  0  0  0
    5.7270   -0.5400    0.1690 C   0  0  0  0  0  0  0  0  0  0  0  0
    6.2610    0.8220    0.0400 C   0  0  0  0  0  0  0  0  0  0  0  0
    5.8980    1.5600   -1.0670 C   0  0  0  0  0  0  0  0  0  0  0  0
    6.3600    2.8370   -1.2500 C   0  0  0  0  0  0  0  0  0  0  0  0
    6.0190    3.4980   -2.2650 O   0  0  0  0  0  0  0  0  0  0  0  0
    7.1790    3.3470   -0.3130 N   0  0  0  0  0  0  0  0  0  0  0  0
    7.5340    2.6240    0.7700 C   0  0  0  0  0  0  0  0  0  0  0  0
    7.0690    1.3670    0.9340 N   0  0  0  0  0  0  0  0  0  0  0  0
    5.9560   -1.4190    1.1650 N   0  0  0  0  0  0  0  0  0  0  0  0
    5.2880   -2.5570    0.9200 N   0  0  0  0  0  0  0  0  0  0  0  0
  2  1  1  1
  2  3  1  0
  2 18  1  0
  3  4  1  0
  4  5  1  0
  5  6  2  0
  5 17  1  0
  6  7  1  0
  7  8  2  0
  8  9  1  0
  9 10  1  0
  9 17  2  0
 10 11  1  0
 11 12  1  0
 11 15  1  0
 12 13  1  0
 13 14  1  0
 14 15  1  0
 15 16  1  1
 18 19  1  0
 19 20  2  0
 19 30  1  0
 20 21  1  0
 21 22  1  0
 21 29  2  0
 22 23  2  0
 22 28  1  0
 23 24  1  0
 24 25  2  0
 24 26  1  0
 26 27  1  0
 27 28  2  0
 29 30  1  0
M  CHG  1   8   1
M  END
