
     RDKit          3D

 29 32  0  0  0  0  0  0  0  0999 V2000
   -3.9550    1.4960   -0.2080 C   0  0  0  0  0  0  0  0  0  0  0  0
   -3.6040    0.5580   -1.3320 C   0  0  0  0  0  0  0  0  0  0  0  0
   -2.3120   -0.0950   -0.9640 C   0  0  0  0  0  0  0  0  0  0  0  0
   -2.2880   -1.3910   -0.8480 C   0  0  0  0  0  0  0  0  0  0  0  0
   -3.4370   -2.1960   -1.0570 N   0  0  0  0  0  0  0  0  0  0  0  0
   -4.3890   -2.4730    0.0180 C   0  0  1  0  0  0  0  0  0  0  0  0
   -5.5070   -3.3520   -0.4980 C   0  0  0  0  0  0  0  0  0  0  0  0
   -3.7370   -3.2020    1.1720 C   0  0  0  0  0  0  0  0  0  0  0  0
   -1.1580    0.7670   -0.7580 C   0  0  0  0  0  0  0  0  0  0  0  0
   -1.2260    2.0910   -0.8880 N   0  0  0  0  0  0  0  0  0  0  0  0
   -0.2170    2.9530   -0.7180 C   0  0  0  0  0  0  0  0  0  0  0  0
   -0.3930    4.3710   -0.8810 N   0  0  0  0  0  0  0  0  0  0  0  0
   -1.6550    4.9390   -1.2350 C   0  0  0  0  0  0  0  0  0  0  0  0
    1.0240    2.4290   -0.3730 C   0  0  0  0  0  0  0  0  0  0  0  0
    1.1210    1.0690   -0.2330 C   0  0  0  0  0  0  0  0  0  0  0  0
    0.0600    0.2600   -0.4200 N   0  0  0  0  0  0  0  0  0  0  0  0
    2.4240    0.5110    0.1450 C   0  0  0  0  0  0  0  0  0  0  0  0
    2.5250   -0.8910    0.2700 C   0  0  0  0  0  0  0  0  0  0  0  0
    3.7320   -1.4360    0.6030 C   0  0  0  0  0  0  0  0  0  0  0  0
    4.1700   -2.7050    0.8000 N   0  0  0  0  0  0  0  0  0  0  0  0
    5.4760   -2.6690    1.1170 C   0  0  0  0  0  0  0  0  0  0  0  0
    6.3810   -3.8210    1.4200 C   0  0  0  0  0  0  0  0  0  0  0  0
    6.3570   -4.0970    2.8060 O   0  0  0  0  0  0  0  0  0  0  0  0
    5.8560   -1.4170    1.1200 O   0  0  0  0  0  0  0  0  0  0  0  0
    4.8280   -0.6270    0.8130 C   0  0  0  0  0  0  0  0  0  0  0  0
    4.7000    0.7290    0.6850 C   0  0  0  0  0  0  0  0  0  0  0  0
    3.4730    1.3450    0.3420 C   0  0  0  0  0  0  0  0  0  0  0  0
    3.4150    2.7960    0.2410 C   0  0  0  0  0  0  0  0  0  0  0  0
    2.1310    3.3600   -0.2000 C   0  0  0  0  0  0  0  0  0  0  0  0
  1  2  1  0
  2  3  1  0
  3  4  2  3
  3  9  1  0
  4  5  1  0
  5  6  1  0
  6  7  1  6
  6  8  1  0
  9 10  2  0
  9 16  1  0
 10 11  1  0
 11 12  1  0
 11 14  2  0
 12 13  1  0
 14 15  1  0
 14 29  1  0
 15 16  2  0
 15 17  1  0
 17 18  2  0
 17 27  1  0
 18 19  1  0
 19 20  1  0
 19 25  2  0
 20 21  2  0
 21 22  1  0
 21 24  1  0
 22 23  1  0
 24 25  1  0
 25 26  1  0
 26 27  2  0
 27 28  1  0
 28 29  1  0
M  END
