
     RDKit          3D

 29 32  0  0  0  0  0  0  0  0999 V2000
   -5.3440   -3.2500    2.6760 C   0  0  0  0  0  0  0  0  0  0  0  0
   -5.4810   -2.7910    1.2240 C   0  0  0  0  0  0  0  0  0  0  0  0
   -4.1960   -2.3290    0.6820 C   0  0  0  0  0  0  0  0  0  0  0  0
   -3.1180   -2.3470    1.4300 C   0  0  0  0  0  0  0  0  0  0  0  0
   -1.8360   -1.8910    0.9030 C   0  0  0  0  0  0  0  0  0  0  0  0
   -0.7480   -1.9060    1.6500 C   0  0  0  0  0  0  0  0  0  0  0  0
    0.5250   -1.4500    1.1140 C   0  0  0  0  0  0  0  0  0  0  0  0
    1.6870   -1.4210    1.7900 N   0  0  0  0  0  0  0  0  0  0  0  0
    2.6770   -0.9410    0.9820 C   0  0  0  0  0  0  0  0  0  0  0  0
    2.0920   -0.6760   -0.2070 C   0  0  0  0  0  0  0  0  0  0  0  0
    0.7970   -0.9860   -0.1160 N   0  0  0  0  0  0  0  0  0  0  0  0
    2.8940   -0.1390   -1.3200 C   0  0  0  0  0  0  0  0  0  0  0  0
    4.2080    0.4320   -0.9660 C   0  0  0  0  0  0  0  0  0  0  0  0
    4.6170    0.3990    0.3800 N   0  0  0  0  0  0  0  0  0  0  0  0
    6.0360    0.4640    0.5460 C   0  0  0  0  0  0  0  0  0  0  0  0
    6.6180    1.8000    0.1500 C   0  0  0  0  0  0  0  0  0  0  0  0
    7.2840    2.6970    0.8060 C   0  0  0  0  0  0  0  0  0  0  0  0
    7.3920    3.5630   -0.3540 C   0  0  0  0  0  0  0  0  0  0  0  0
    6.6600    2.5460   -1.0190 N   0  0  0  0  0  0  0  0  0  0  0  0
    4.1140   -0.6920    1.1670 C   0  0  0  0  0  0  0  0  0  0  0  0
   -4.1190   -1.8740   -0.6150 O   0  0  0  0  0  0  0  0  0  0  0  0
   -4.3090   -0.5680   -0.9740 C   0  0  0  0  0  0  0  0  0  0  0  0
   -4.5950    0.3910   -0.0430 C   0  0  0  0  0  0  0  0  0  0  0  0
   -4.7770    1.6870   -0.4550 C   0  0  0  0  0  0  0  0  0  0  0  0
   -4.6640    1.9890   -1.8020 C   0  0  0  0  0  0  0  0  0  0  0  0
   -4.8570    3.3820   -2.2540 C   0  0  0  0  0  0  0  0  0  0  0  0
   -4.3830    1.0540   -2.7240 N   0  0  0  0  0  0  0  0  0  0  0  0
   -4.2060   -0.2260   -2.3000 C   0  0  0  0  0  0  0  0  0  0  0  0
   -3.9420   -1.1210   -3.1420 O   0  0  0  0  0  0  0  0  0  0  0  0
  1  2  1  0
  2  3  1  0
  3  4  2  3
  3 21  1  0
  4  5  1  0
  5  6  2  3
  6  7  1  0
  7  8  2  0
  7 11  1  0
  8  9  1  0
  9 10  2  0
  9 20  1  0
 10 11  1  0
 10 12  1  0
 12 13  1  0
 13 14  1  0
 14 15  1  0
 14 20  1  0
 15 16  1  0
 16 17  2  0
 16 19  1  0
 17 18  1  0
 18 19  1  0
 21 22  1  0
 22 23  2  0
 22 28  1  0
 23 24  1  0
 24 25  2  0
 25 26  1  0
 25 27  1  0
 27 28  1  0
 28 29  2  0
M  END
