
     RDKit          3D

 29 32  0  0  0  0  0  0  0  0999 V2000
    7.1380    0.2380    1.4320 C   0  0  0  0  0  0  0  0  0  0  0  0
    5.7000    0.1120    1.2380 N   0  0  0  0  0  0  0  0  0  0  0  0
    4.9520   -0.9050    1.7290 C   0  0  0  0  0  0  0  0  0  0  0  0
    3.6340   -0.7240    1.3670 C   0  0  0  0  0  0  0  0  0  0  0  0
    2.4740   -1.6040    1.6950 C   0  0  0  0  0  0  0  0  0  0  0  0
    2.3470   -2.6180    0.5990 C   0  0  0  0  0  0  0  0  0  0  0  0
    2.1220   -2.0460   -0.7660 C   0  0  0  0  0  0  0  0  0  0  0  0
    0.8470   -1.2870   -0.8120 C   0  0  0  0  0  0  0  0  0  0  0  0
    0.1240   -1.3040    0.1930 O   0  0  0  0  0  0  0  0  0  0  0  0
    0.4500   -0.5610   -1.9570 N   0  0  0  0  0  0  0  0  0  0  0  0
   -0.7320    0.1940   -2.1180 C   0  0  0  0  0  0  0  0  0  0  0  0
   -1.6820    0.3330   -1.1490 C   0  0  0  0  0  0  0  0  0  0  0  0
   -2.8270    1.1000   -1.3900 C   0  0  0  0  0  0  0  0  0  0  0  0
   -3.7620    1.2310   -0.3940 C   0  0  0  0  0  0  0  0  0  0  0  0
   -3.6640    0.5630    0.9080 C   0  0  0  0  0  0  0  0  0  0  0  0
   -3.5340   -0.8030    1.0220 C   0  0  0  0  0  0  0  0  0  0  0  0
   -3.4270   -1.4650    2.2230 C   0  0  0  0  0  0  0  0  0  0  0  0
   -3.4540   -0.7140    3.3390 N   0  0  0  0  0  0  0  0  0  0  0  0
   -3.5800    0.6280    3.2790 C   0  0  0  0  0  0  0  0  0  0  0  0
   -3.6860    1.2930    2.0830 C   0  0  0  0  0  0  0  0  0  0  0  0
   -4.8830    2.0220   -0.6830 C   0  0  0  0  0  0  0  0  0  0  0  0
   -5.0400    2.6360   -1.9040 C   0  0  0  0  0  0  0  0  0  0  0  0
   -4.0860    2.4850   -2.8840 C   0  0  0  0  0  0  0  0  0  0  0  0
   -2.9740    1.7140   -2.6270 C   0  0  0  0  0  0  0  0  0  0  0  0
   -2.0470    1.5860   -3.5910 N   0  0  0  0  0  0  0  0  0  0  0  0
   -0.9680    0.8490   -3.3320 C   0  0  0  0  0  0  0  0  0  0  0  0
   -0.0580    0.6970   -4.2160 O   0  0  0  0  0  0  0  0  0  0  0  0
    3.6110    0.4450    0.6350 C   0  0  0  0  0  0  0  0  0  0  0  0
    4.8730    0.9110    0.5840 N   0  0  0  0  0  0  0  0  0  0  0  0
  1  2  1  0
  2  3  1  0
  2 29  1  0
  3  4  2  0
  4  5  1  0
  4 28  1  0
  5  6  1  0
  6  7  1  0
  7  8  1  0
  8  9  2  0
  8 10  1  0
 10 11  1  0
 11 12  2  0
 11 26  1  0
 12 13  1  0
 13 14  2  0
 13 24  1  0
 14 15  1  0
 14 21  1  0
 15 16  2  0
 15 20  1  0
 16 17  1  0
 17 18  2  0
 18 19  1  0
 19 20  2  0
 21 22  2  0
 22 23  1  0
 23 24  2  0
 24 25  1  0
 25 26  1  0
 26 27  2  0
 28 29  2  0
M  END
