
     RDKit          3D

 29 32  0  0  0  0  0  0  0  0999 V2000
   -3.5450   -2.1340   -2.9020 C   0  0  0  0  0  0  0  0  0  0  0  0
   -4.2900   -2.1230   -1.8110 C   0  0  0  0  0  0  0  0  0  0  0  0
   -3.6890   -2.3290   -0.5400 N   0  0  0  0  0  0  0  0  0  0  0  0
   -4.0050   -3.5350    0.1940 C   0  0  0  0  0  0  0  0  0  0  0  0
   -2.7820   -1.3340   -0.0180 C   0  0  0  0  0  0  0  0  0  0  0  0
   -1.5270   -1.4680   -0.2150 C   0  0  0  0  0  0  0  0  0  0  0  0
   -0.4070   -0.6280    0.1870 C   0  0  0  0  0  0  0  0  0  0  0  0
   -0.5930    0.6730    0.5940 C   0  0  0  0  0  0  0  0  0  0  0  0
   -1.8010    1.3680    0.3260 N   0  0  0  0  0  0  0  0  0  0  0  0
   -2.2360    2.5280    1.0020 C   0  0  0  0  0  0  0  0  0  0  0  0
   -1.5680    3.0410    1.9270 O   0  0  0  0  0  0  0  0  0  0  0  0
   -3.5490    3.1630    0.5930 C   0  0  1  0  0  0  0  0  0  0  0  0
   -4.3270    3.7010    1.7610 C   0  0  0  0  0  0  0  0  0  0  0  0
   -3.6970    4.6310    0.7590 C   0  0  0  0  0  0  0  0  0  0  0  0
    0.4990    1.3490    1.1170 C   0  0  0  0  0  0  0  0  0  0  0  0
    1.7600    0.7500    1.2320 C   0  0  0  0  0  0  0  0  0  0  0  0
    1.9600   -0.5450    0.8260 C   0  0  0  0  0  0  0  0  0  0  0  0
    3.1770   -1.2250    0.8970 N   0  0  0  0  0  0  0  0  0  0  0  0
    4.3200   -0.9220    0.4760 C   0  0  0  0  0  0  0  0  0  0  0  0
    5.4500   -1.7970    0.6690 N   0  0  0  0  0  0  0  0  0  0  0  0
    6.5750   -1.1980    0.0920 C   0  0  0  0  0  0  0  0  0  0  0  0
    7.7400   -1.6780    0.0710 O   0  0  0  0  0  0  0  0  0  0  0  0
    6.1440    0.0670   -0.4700 C   0  0  0  0  0  0  0  0  0  0  0  0
    6.6460    1.1530   -1.1570 C   0  0  0  0  0  0  0  0  0  0  0  0
    5.5760    1.9950   -1.3490 C   0  0  0  0  0  0  0  0  0  0  0  0
    4.4880    1.3780   -0.7710 C   0  0  0  0  0  0  0  0  0  0  0  0
    4.8290    0.1970   -0.2300 N   0  0  0  0  0  0  0  0  0  0  0  0
    0.8730   -1.2110    0.3100 C   0  0  0  0  0  0  0  0  0  0  0  0
    1.0150   -2.6120   -0.1470 C   0  0  0  0  0  0  0  0  0  0  0  0
  1  2  2  0
  2  3  1  0
  3  4  1  0
  3  5  1  0
  5  6  2  3
  6  7  1  0
  7  8  2  0
  7 28  1  0
  8  9  1  0
  8 15  1  0
  9 10  1  0
 10 11  2  0
 12 10  1  1
 12 13  1  0
 12 14  1  0
 13 14  1  0
 15 16  2  0
 16 17  1  0
 17 18  1  0
 17 28  2  0
 18 19  2  3
 19 20  1  0
 19 27  1  0
 20 21  1  0
 21 22  2  0
 21 23  1  0
 23 24  2  0
 23 27  1  0
 24 25  1  0
 25 26  2  0
 26 27  1  0
 28 29  1  0
M  END
