
     RDKit          3D

 22 23  0  0  0  0  0  0  0  0999 V2000
   -4.4250   -2.5870   -0.5370 C   0  0  0  0  0  0  0  0  0  0  0  0
   -4.7820   -1.1230   -0.3920 C   0  0  0  0  0  0  0  0  0  0  0  0
   -6.0780   -0.8420   -0.4360 F   0  0  0  0  0  0  0  0  0  0  0  0
   -3.8000   -0.2820   -0.2410 C   0  0  0  0  0  0  0  0  0  0  0  0
   -2.4280   -0.7610   -0.2160 N   0  0  0  0  0  0  0  0  0  0  0  0
   -1.3800    0.1760   -0.0500 C   0  0  0  0  0  0  0  0  0  0  0  0
   -1.6470    1.5200    0.0870 C   0  0  0  0  0  0  0  0  0  0  0  0
   -0.6140    2.3760    0.2430 N   0  0  0  0  0  0  0  0  0  0  0  0
    0.6680    1.9190    0.2650 C   0  0  0  0  0  0  0  0  0  0  0  0
    1.0080    0.6040    0.1370 C   0  0  0  0  0  0  0  0  0  0  0  0
    2.2980    0.0390    0.1470 N   0  0  0  0  0  0  0  0  0  0  0  0
    3.5110    0.7320    0.2960 C   0  0  0  0  0  0  0  0  0  0  0  0
    3.5060    1.9760    0.4350 O   0  0  0  0  0  0  0  0  0  0  0  0
    4.8280   -0.0220    0.2870 C   0  0  1  0  0  0  0  0  0  0  0  0
    4.8930   -1.0270    1.3900 C   0  0  0  0  0  0  0  0  0  0  0  0
    4.9240   -0.6950   -1.0890 C   0  0  0  0  0  0  0  0  0  0  0  0
   -0.0790   -0.2660   -0.0240 C   0  0  0  0  0  0  0  0  0  0  0  0
    0.1420   -1.5160   -0.1530 O   0  0  0  0  0  0  0  0  0  0  0  0
   -2.9200    2.0300    0.0710 O   0  0  0  0  0  0  0  0  0  0  0  0
   -4.0050    1.1390   -0.0920 C   0  0  0  0  0  0  0  0  0  0  0  0
   -5.1810    1.7020   -0.0970 C   0  0  0  0  0  0  0  0  0  0  0  0
   -5.3320    3.5960    0.1080 Br  0  0  0  0  0  0  0  0  0  0  0  0
  1  2  1  0
  2  3  1  0
  2  4  2  3
  4  5  1  0
  4 20  1  0
  5  6  1  0
  6  7  2  0
  6 17  1  0
  7  8  1  0
  7 19  1  0
  8  9  1  0
  9 10  2  0
 10 11  1  0
 10 17  1  0
 11 12  1  0
 12 13  2  0
 12 14  1  0
 14 15  1  1
 14 16  1  0
 17 18  2  0
 19 20  1  0
 20 21  2  3
 21 22  1  0
M  END
