
     RDKit          3D

 22 24  0  0  0  0  0  0  0  0999 V2000
    5.7340    1.4320   -0.6460 N   0  0  0  0  0  0  0  0  0  0  0  0
    4.4650    1.0220   -0.1490 C   0  0  0  0  0  0  0  0  0  0  0  0
    3.9940    1.6580    0.8280 O   0  0  0  0  0  0  0  0  0  0  0  0
    3.7190   -0.1260   -0.7710 C   0  0  0  0  0  0  0  0  0  0  0  0
    2.4450   -0.3310   -0.0580 C   0  0  0  0  0  0  0  0  0  0  0  0
    1.3000    0.1010   -0.5950 N   0  0  0  0  0  0  0  0  0  0  0  0
    0.1020   -0.0500    0.0100 C   0  0  0  0  0  0  0  0  0  0  0  0
    0.0080   -0.6710    1.2370 C   0  0  0  0  0  0  0  0  0  0  0  0
    1.1840   -1.1250    1.8080 C   0  0  0  0  0  0  0  0  0  0  0  0
    2.3870   -0.9570    1.1680 C   0  0  0  0  0  0  0  0  0  0  0  0
    3.9690   -1.5860    1.9730 Br  0  0  0  0  0  0  0  0  0  0  0  0
   -1.1080   -0.9420    2.0500 O   0  0  0  0  0  0  0  0  0  0  0  0
   -2.4600   -0.8860    1.6980 C   0  0  0  0  0  0  0  0  0  0  0  0
   -3.2440   -1.3760    2.5480 O   0  0  0  0  0  0  0  0  0  0  0  0
   -3.0850   -0.3470    0.4960 C   0  0  0  0  0  0  0  0  0  0  0  0
   -4.4670   -0.4910    0.5030 C   0  0  0  0  0  0  0  0  0  0  0  0
   -5.1930   -0.0320   -0.5510 C   0  0  0  0  0  0  0  0  0  0  0  0
   -6.5400   -0.1800   -0.5340 F   0  0  0  0  0  0  0  0  0  0  0  0
   -4.5370    0.5690   -1.6070 C   0  0  0  0  0  0  0  0  0  0  0  0
   -3.1530    0.7100   -1.6070 C   0  0  0  0  0  0  0  0  0  0  0  0
   -2.3980    0.2480   -0.5410 C   0  0  0  0  0  0  0  0  0  0  0  0
   -1.0010    0.4800   -0.7190 N   0  0  0  0  0  0  0  0  0  0  0  0
  1  2  1  0
  2  3  2  0
  2  4  1  0
  4  5  1  0
  5  6  2  0
  5 10  1  0
  6  7  1  0
  7  8  2  0
  7 22  1  0
  8  9  1  0
  8 12  1  0
  9 10  2  0
 10 11  1  0
 12 13  1  0
 13 14  2  0
 13 15  1  0
 15 16  2  0
 15 21  1  0
 16 17  1  0
 17 18  1  0
 17 19  2  0
 19 20  1  0
 20 21  2  0
 21 22  1  0
M  END
