
     RDKit          3D

 22 24  0  0  0  0  0  0  0  0999 V2000
   -3.1440   -0.5130    1.4230 C   0  0  0  0  0  0  0  0  0  0  0  0
   -2.8890    0.1940    0.1100 C   0  0  1  0  0  0  0  0  0  0  0  0
   -4.1650    0.5240   -0.6160 C   0  0  0  0  0  0  0  0  0  0  0  0
   -2.1430    1.5030    0.3240 C   0  0  0  0  0  0  0  0  0  0  0  0
   -0.7200    1.1190    0.4620 C   0  0  0  0  0  0  0  0  0  0  0  0
    0.1500    1.8330    1.0010 O   0  0  0  0  0  0  0  0  0  0  0  0
   -0.5950   -0.1960   -0.1400 C   0  0  0  0  0  0  0  0  0  0  0  0
    0.5080   -0.9430   -0.1600 C   0  0  0  0  0  0  0  0  0  0  0  0
    0.5570   -2.2170   -0.7660 N   0  0  0  0  0  0  0  0  0  0  0  0
    1.7050   -0.4560    0.4500 N   0  0  0  0  0  0  0  0  0  0  0  0
    1.9630   -0.3000    1.7610 C   0  0  0  0  0  0  0  0  0  0  0  0
    1.1290   -0.5810    2.6810 O   0  0  0  0  0  0  0  0  0  0  0  0
    3.2080    0.1860    1.8970 N   0  0  0  0  0  0  0  0  0  0  0  0
    3.7100    0.3250    0.6500 C   0  0  0  0  0  0  0  0  0  0  0  0
    2.7880   -0.0700   -0.2720 C   0  0  0  0  0  0  0  0  0  0  0  0
    3.2370    0.0500   -1.5180 C   0  0  0  0  0  0  0  0  0  0  0  0
    2.5650   -0.2580   -2.6610 F   0  0  0  0  0  0  0  0  0  0  0  0
    4.5800    0.5730   -1.3880 C   0  0  0  0  0  0  0  0  0  0  0  0
    5.3440    0.8250   -2.3580 O   0  0  0  0  0  0  0  0  0  0  0  0
    4.8050    0.7210    0.0360 C   0  0  0  0  0  0  0  0  0  0  0  0
    6.4230    1.3780    0.8230 Br  0  0  0  0  0  0  0  0  0  0  0  0
   -1.9210   -0.5820   -0.7410 C   0  0  0  0  0  0  0  0  0  0  0  0
  2  1  1  1
  2  3  1  0
  2  4  1  0
  2 22  1  0
  4  5  1  0
  5  6  2  0
  5  7  1  0
  7  8  2  3
  7 22  1  0
  8  9  1  0
  8 10  1  0
 10 11  1  0
 10 15  1  0
 11 12  2  0
 11 13  1  0
 13 14  1  0
 14 15  1  0
 14 20  2  0
 15 16  2  0
 16 17  1  0
 16 18  1  0
 18 19  2  0
 18 20  1  0
 20 21  1  0
M  END
