
     RDKit          3D

 21 23  0  0  0  0  0  0  0  0999 V2000
   -1.3660   -4.5100    0.5030 O   0  0  0  0  0  0  0  0  0  0  0  0
   -0.8870   -3.3500    0.3330 C   0  0  0  0  0  0  0  0  0  0  0  0
    0.4330   -3.1650    0.2560 N   0  0  0  0  0  0  0  0  0  0  0  0
    0.9860   -1.9200    0.0720 C   0  0  0  0  0  0  0  0  0  0  0  0
    2.3860   -1.8210    0.0450 N   0  0  0  0  0  0  0  0  0  0  0  0
    3.1220   -0.6370   -0.1500 C   0  0  0  0  0  0  0  0  0  0  0  0
    2.8140    0.2730   -1.1330 C   0  0  0  0  0  0  0  0  0  0  0  0
    3.5740    1.4360   -1.2490 C   0  0  0  0  0  0  0  0  0  0  0  0
    4.6410    1.7240   -0.4100 C   0  0  0  0  0  0  0  0  0  0  0  0
    5.3860    2.8530   -0.5170 F   0  0  0  0  0  0  0  0  0  0  0  0
    4.9510    0.8110    0.5760 C   0  0  0  0  0  0  0  0  0  0  0  0
    4.2090   -0.3370    0.7000 C   0  0  0  0  0  0  0  0  0  0  0  0
    0.1580   -0.8740   -0.0290 N   0  0  0  0  0  0  0  0  0  0  0  0
   -1.1920   -1.0310    0.0460 C   0  0  0  0  0  0  0  0  0  0  0  0
   -2.1180    0.0300   -0.0610 N   0  0  0  0  0  0  0  0  0  0  0  0
   -3.0280    0.0550   -1.1850 C   0  0  0  0  0  0  0  0  0  0  0  0
   -4.3050    0.7090   -0.8570 C   0  0  0  0  0  0  0  0  0  0  0  0
   -4.5130    1.3920    0.2580 C   0  0  0  0  0  0  0  0  0  0  0  0
   -3.4840    1.5650    1.2780 C   0  0  0  0  0  0  0  0  0  0  0  0
   -2.1290    1.0690    0.9560 C   0  0  0  0  0  0  0  0  0  0  0  0
   -1.7040   -2.2840    0.2280 N   0  0  0  0  0  0  0  0  0  0  0  0
  1  2  2  0
  2  3  1  0
  2 21  1  0
  3  4  2  0
  4  5  1  0
  4 13  1  0
  5  6  1  0
  6  7  2  0
  6 12  1  0
  7  8  1  0
  8  9  2  0
  9 10  1  0
  9 11  1  0
 11 12  2  0
 13 14  1  0
 14 15  1  0
 14 21  2  0
 15 16  1  0
 15 20  1  0
 16 17  1  0
 17 18  2  0
 18 19  1  0
 19 20  1  0
M  END
