
     RDKit          3D

 20 22  0  0  0  0  0  0  0  0999 V2000
   -5.7990   -0.4700    0.1220 C   0  0  0  0  0  0  0  0  0  0  0  0
   -4.3580   -0.1060    0.3120 C   0  0  0  0  0  0  0  0  0  0  0  0
   -3.9880    1.2120    0.4990 C   0  0  0  0  0  0  0  0  0  0  0  0
   -2.6750    1.5660    0.6720 C   0  0  0  0  0  0  0  0  0  0  0  0
   -1.6910    0.5650    0.6590 C   0  0  0  0  0  0  0  0  0  0  0  0
   -0.3680    0.9870    0.8440 O   0  0  0  0  0  0  0  0  0  0  0  0
   -2.0590   -0.7320    0.4740 C   0  0  0  0  0  0  0  0  0  0  0  0
   -1.0460   -1.8060    0.4260 C   0  0  0  0  0  0  0  0  0  0  0  0
   -0.3560   -2.0050   -0.8660 C   0  0  0  0  0  0  0  0  0  0  0  0
    0.4330   -0.9610   -1.3840 N   0  0  0  0  0  0  0  0  0  0  0  0
    1.7180   -0.5580   -0.8670 C   0  0  0  0  0  0  0  0  0  0  0  0
    2.2740   -1.1740    0.1840 N   0  0  0  0  0  0  0  0  0  0  0  0
    3.4900   -0.7960    0.6700 C   0  0  0  0  0  0  0  0  0  0  0  0
    4.1760    0.2390    0.0840 C   0  0  0  0  0  0  0  0  0  0  0  0
    5.3780    0.8500    0.3150 C   0  0  0  0  0  0  0  0  0  0  0  0
    5.5390    1.8470   -0.6130 C   0  0  0  0  0  0  0  0  0  0  0  0
    4.4550    1.8530   -1.4070 N   0  0  0  0  0  0  0  0  0  0  0  0
    3.5980    0.8890   -1.0180 C   0  0  0  0  0  0  0  0  0  0  0  0
    2.4060    0.4520   -1.4260 N   0  0  0  0  0  0  0  0  0  0  0  0
   -3.3860   -1.0240    0.3070 N   0  0  0  0  0  0  0  0  0  0  0  0
  1  2  1  0
  2  3  2  0
  2 20  1  0
  3  4  1  0
  4  5  2  0
  5  6  1  0
  5  7  1  0
  7  8  1  0
  7 20  2  0
  8  9  1  0
  9 10  1  0
 10 11  1  0
 11 12  2  0
 11 19  1  0
 12 13  1  0
 13 14  2  0
 14 15  1  0
 14 18  1  0
 15 16  2  0
 16 17  1  0
 17 18  1  0
 18 19  2  0
M  END
