
     RDKit          3D

 21 23  0  0  0  0  0  0  0  0999 V2000
   -3.1720   -1.5650    0.3870 C   0  0  0  0  0  0  0  0  0  0  0  0
   -3.3250   -0.4650   -0.6310 C   0  0  0  0  0  0  0  0  0  0  0  0
   -3.0590    0.8700   -0.0680 C   0  0  0  0  0  0  0  0  0  0  0  0
   -4.0620    1.7680    0.2310 C   0  0  0  0  0  0  0  0  0  0  0  0
   -3.7140    2.9900    0.7500 C   0  0  0  0  0  0  0  0  0  0  0  0
   -2.4540    3.3580    0.9810 N   0  0  0  0  0  0  0  0  0  0  0  0
   -1.4520    2.4730    0.6880 C   0  0  0  0  0  0  0  0  0  0  0  0
   -1.7270    1.2340    0.1670 C   0  0  0  0  0  0  0  0  0  0  0  0
   -0.7470    0.2780   -0.1520 N   0  0  0  0  0  0  0  0  0  0  0  0
    0.6450    0.4610    0.0040 C   0  0  0  0  0  0  0  0  0  0  0  0
    1.1470    1.5220    0.4530 O   0  0  0  0  0  0  0  0  0  0  0  0
    1.5600   -0.6380   -0.3750 C   0  0  0  0  0  0  0  0  0  0  0  0
    1.2310   -1.8260   -0.8640 N   0  0  0  0  0  0  0  0  0  0  0  0
    2.3130   -2.5580   -1.0870 N   0  0  0  0  0  0  0  0  0  0  0  0
    3.3880   -1.8420   -0.7380 C   0  0  0  0  0  0  0  0  0  0  0  0
    4.7070   -2.0970   -0.7570 N   0  0  0  0  0  0  0  0  0  0  0  0
    5.6270   -1.2050   -0.3480 C   0  0  0  0  0  0  0  0  0  0  0  0
    6.9680   -1.5020   -0.3830 F   0  0  0  0  0  0  0  0  0  0  0  0
    5.2240    0.0330    0.1170 C   0  0  0  0  0  0  0  0  0  0  0  0
    3.8670    0.2970    0.1370 C   0  0  0  0  0  0  0  0  0  0  0  0
    2.9280   -0.6170   -0.2820 C   0  0  0  0  0  0  0  0  0  0  0  0
  1  2  1  0
  2  3  1  0
  3  4  2  0
  3  8  1  0
  4  5  1  0
  5  6  2  0
  6  7  1  0
  7  8  2  0
  8  9  1  0
  9 10  1  0
 10 11  2  0
 10 12  1  0
 12 13  2  0
 12 21  1  0
 13 14  1  0
 14 15  1  0
 15 16  2  0
 15 21  1  0
 16 17  1  0
 17 18  1  0
 17 19  2  0
 19 20  1  0
 20 21  2  0
M  END
