
     RDKit          3D

 20 22  0  0  0  0  0  0  0  0999 V2000
    4.8330   -1.9270   -0.2190 C   0  0  0  0  0  0  0  0  0  0  0  0
    3.3430   -1.8810   -0.4870 C   0  0  0  0  0  0  0  0  0  0  0  0
    2.7700   -0.6240    0.1070 C   0  0  0  0  0  0  0  0  0  0  0  0
    3.6010    0.2250    0.7530 N   0  0  0  0  0  0  0  0  0  0  0  0
    3.1130    1.3500    1.2910 C   0  0  0  0  0  0  0  0  0  0  0  0
    1.7480    1.6340    1.1770 C   0  0  0  0  0  0  0  0  0  0  0  0
    0.9070    0.7650    0.5170 C   0  0  0  0  0  0  0  0  0  0  0  0
   -0.5130    1.0140    0.3710 C   0  0  0  0  0  0  0  0  0  0  0  0
   -1.1660    2.1160    0.8630 N   0  0  0  0  0  0  0  0  0  0  0  0
   -2.4640    2.0110    0.5320 C   0  0  0  0  0  0  0  0  0  0  0  0
   -3.5010    2.8340    0.7870 N   0  0  0  0  0  0  0  0  0  0  0  0
   -4.7270    2.5080    0.3480 C   0  0  0  0  0  0  0  0  0  0  0  0
   -4.9060    1.3780   -0.3320 N   0  0  0  0  0  0  0  0  0  0  0  0
   -3.8950    0.5210   -0.6120 C   0  0  0  0  0  0  0  0  0  0  0  0
   -4.0830   -0.5420   -1.2570 O   0  0  0  0  0  0  0  0  0  0  0  0
   -2.6400    0.8400   -0.1710 C   0  0  0  0  0  0  0  0  0  0  0  0
   -1.4150    0.1970   -0.2820 C   0  0  0  0  0  0  0  0  0  0  0  0
   -1.1330   -1.0900   -0.9420 C   0  0  0  0  0  0  0  0  0  0  0  0
   -0.9920   -2.2410    0.0370 C   0  0  0  0  0  0  0  0  0  0  0  0
    1.4530   -0.3370    0.0050 N   0  0  0  0  0  0  0  0  0  0  0  0
  1  2  1  0
  2  3  1  0
  3  4  2  0
  3 20  1  0
  4  5  1  0
  5  6  2  0
  6  7  1  0
  7  8  1  0
  7 20  2  0
  8  9  1  0
  8 17  2  0
  9 10  1  0
 10 11  1  0
 10 16  2  0
 11 12  2  0
 12 13  1  0
 13 14  1  0
 14 15  2  0
 14 16  1  0
 16 17  1  0
 17 18  1  0
 18 19  1  0
M  END
