
     RDKit          3D

 32 34  0  0  0  0  0  0  0  0999 V2000
    0.3680    0.4110    1.5520 C   0  0  0  0  0  0  0  0  0  0  0  0
   -0.2470    0.0870    0.2350 C   0  0  1  0  0  0  0  0  0  0  0  0
    1.0540   -0.7420   -0.7800 S   0  0  0  0  0  0  0  0  0  0  0  0
    2.2890    0.5390   -1.1660 C   0  0  0  0  0  0  0  0  0  0  0  0
    2.9560    1.1320   -0.2570 N   0  0  0  0  0  0  0  0  0  0  0  0
    3.7970    2.1720   -0.3370 C   0  0  0  0  0  0  0  0  0  0  0  0
    4.4730    2.8410    0.7280 C   0  0  0  0  0  0  0  0  0  0  0  0
    4.2920    4.3100    0.7710 C   0  0  0  0  0  0  0  0  0  0  0  0
    4.9850    4.9190    1.7760 C   0  0  0  0  0  0  0  0  0  0  0  0
    5.7860    4.4150    2.7050 C   0  0  0  0  0  0  0  0  0  0  0  0
    6.5840    5.4290    3.9190 Cl  0  0  0  0  0  0  0  0  0  0  0  0
    5.9590    3.0240    2.6670 C   0  0  0  0  0  0  0  0  0  0  0  0
    5.2770    2.3060    1.6600 C   0  0  0  0  0  0  0  0  0  0  0  0
    3.9710    2.6910   -1.6790 C   0  0  0  0  0  0  0  0  0  0  0  0
    4.7560    3.8670   -1.8330 C   0  0  0  0  0  0  0  0  0  0  0  0
    5.4170    4.8850   -1.9740 N   0  0  0  0  0  0  0  0  0  0  0  0
    3.2710    2.0630   -2.6510 C   0  0  0  0  0  0  0  0  0  0  0  0
    3.4170    2.5080   -3.8440 O   0  0  0  0  0  0  0  0  0  0  0  0
    2.4290    1.0020   -2.4620 N   0  0  0  0  0  0  0  0  0  0  0  0
   -1.3650   -0.9260    0.4400 C   0  0  0  0  0  0  0  0  0  0  0  0
   -1.0920   -1.9520    1.1060 O   0  0  0  0  0  0  0  0  0  0  0  0
   -2.6510   -0.7360   -0.1020 N   0  0  0  0  0  0  0  0  0  0  0  0
   -3.6390   -1.7500   -0.0030 C   0  0  0  0  0  0  0  0  0  0  0  0
   -4.9860   -1.5450    0.0440 C   0  0  0  0  0  0  0  0  0  0  0  0
   -5.9660   -2.5130    0.0580 C   0  0  0  0  0  0  0  0  0  0  0  0
   -5.4810   -3.8510    0.0180 C   0  0  0  0  0  0  0  0  0  0  0  0
   -6.6560   -5.1270   -0.0340 S   0  0  1  0  0  0  0  0  0  0  0  0
   -6.7780   -5.6420   -1.6810 N   0  0  0  0  0  0  0  0  0  0  0  0
   -6.2900   -6.2330    0.8950 O   0  0  0  0  0  0  0  0  0  0  0  0
   -8.0180   -4.5690    0.4040 O   0  0  0  0  0  0  0  0  0  0  0  0
   -4.1700   -4.0840   -0.0250 C   0  0  0  0  0  0  0  0  0  0  0  0
   -3.1880   -3.1190   -0.0390 C   0  0  0  0  0  0  0  0  0  0  0  0
  2  1  1  1
  2  3  1  0
  2 20  1  0
  3  4  1  0
  4  5  2  0
  4 19  1  0
  5  6  1  0
  6  7  1  0
  6 14  2  0
  7  8  2  0
  7 13  1  0
  8  9  1  0
  9 10  2  0
 10 11  1  0
 10 12  1  0
 12 13  2  0
 14 15  1  0
 14 17  1  0
 15 16  3  0
 17 18  2  0
 17 19  1  0
 20 21  2  0
 20 22  1  0
 22 23  1  0
 23 24  2  0
 23 32  1  0
 24 25  1  0
 25 26  2  0
 26 27  1  0
 26 31  1  0
 27 28  1  6
 27 29  2  0
 27 30  2  0
 31 32  2  0
M  END
