
     RDKit          3D

 32 36  0  0  0  0  0  0  0  0999 V2000
    9.7320    2.3650   -0.0350 C   0  0  0  0  0  0  0  0  0  0  0  0
    8.2990    2.0480   -0.1600 C   0  0  0  0  0  0  0  0  0  0  0  0
    7.7660    1.0250    0.5840 C   0  0  0  0  0  0  0  0  0  0  0  0
    6.4060    0.7180    0.4700 C   0  0  0  0  0  0  0  0  0  0  0  0
    5.5700    1.4110   -0.3700 C   0  0  0  0  0  0  0  0  0  0  0  0
    4.1560    1.1440   -0.5340 C   0  0  0  0  0  0  0  0  0  0  0  0
    3.4710    1.8330   -1.3290 O   0  0  0  0  0  0  0  0  0  0  0  0
    3.5150    0.0820    0.2120 C   0  0  0  0  0  0  0  0  0  0  0  0
    2.2080   -0.1640    0.0600 C   0  0  0  0  0  0  0  0  0  0  0  0
    1.5760   -1.1780    0.7680 N   0  0  0  0  0  0  0  0  0  0  0  0
    2.2380   -1.9100    1.6970 N   0  0  0  0  0  0  0  0  0  0  0  0
    1.4210   -2.7620    2.2430 N   0  0  0  0  0  0  0  0  0  0  0  0
    0.2580   -2.5820    1.6730 N   0  0  0  0  0  0  0  0  0  0  0  0
    0.3240   -1.5810    0.7270 C   0  0  0  0  0  0  0  0  0  0  0  0
   -0.8290   -1.1680   -0.0160 C   0  0  0  0  0  0  0  0  0  0  0  0
   -0.8500   -0.4500   -1.1600 C   0  0  0  0  0  0  0  0  0  0  0  0
   -2.0140   -0.0100   -1.8100 C   0  0  0  0  0  0  0  0  0  0  0  0
   -3.2220   -0.3340   -1.2430 C   0  0  0  0  0  0  0  0  0  0  0  0
   -4.4850   -0.0720   -1.6060 N   0  0  0  0  0  0  0  0  0  0  0  0
   -5.3260   -0.6090   -0.7160 C   0  0  0  0  0  0  0  0  0  0  0  0
   -6.7070   -0.6020   -0.6690 C   0  0  0  0  0  0  0  0  0  0  0  0
   -7.4710    0.0930   -1.7410 C   0  0  0  0  0  0  0  0  0  0  0  0
   -7.3510   -1.2410    0.3740 C   0  0  0  0  0  0  0  0  0  0  0  0
   -6.6020   -1.8780    1.3560 C   0  0  0  0  0  0  0  0  0  0  0  0
   -7.3460   -2.5460    2.4480 C   0  0  0  0  0  0  0  0  0  0  0  0
   -5.2270   -1.8940    1.3220 C   0  0  0  0  0  0  0  0  0  0  0  0
   -4.3170   -2.7060    2.5750 Cl  0  0  0  0  0  0  0  0  0  0  0  0
   -4.5970   -1.2530    0.2770 C   0  0  0  0  0  0  0  0  0  0  0  0
   -3.2670   -1.0700   -0.0710 C   0  0  0  0  0  0  0  0  0  0  0  0
   -2.0990   -1.4740    0.5230 C   0  0  0  0  0  0  0  0  0  0  0  0
    6.1530    2.4450   -1.1100 C   0  0  0  0  0  0  0  0  0  0  0  0
    7.4880    2.7650   -1.0140 C   0  0  0  0  0  0  0  0  0  0  0  0
  1  2  1  0
  2  3  2  0
  2 32  1  0
  3  4  1  0
  4  5  2  0
  5  6  1  0
  5 31  1  0
  6  7  2  0
  6  8  1  0
  8  9  2  3
  9 10  1  0
 10 11  1  0
 10 14  1  0
 11 12  2  0
 12 13  1  0
 13 14  2  0
 14 15  1  0
 15 16  2  0
 15 30  1  0
 16 17  1  0
 17 18  2  0
 18 19  1  0
 18 29  1  0
 19 20  1  0
 20 21  2  0
 20 28  1  0
 21 22  1  0
 21 23  1  0
 23 24  2  0
 24 25  1  0
 24 26  1  0
 26 27  1  0
 26 28  2  0
 28 29  1  0
 29 30  2  0
 31 32  2  0
M  END
