
     RDKit          3D

 33 35  0  0  0  0  0  0  0  0999 V2000
    9.8600    0.4330    1.2140 C   0  0  0  0  0  0  0  0  0  0  0  0
    8.7960    0.4760    2.2810 C   0  0  0  0  0  0  0  0  0  0  0  0
    7.5280   -0.0510    1.8390 N   0  0  0  0  0  0  0  0  0  0  0  0
    6.8000    0.5180    0.7280 C   0  0  0  0  0  0  0  0  0  0  0  0
    7.3320    1.4830    0.1830 O   0  0  0  0  0  0  0  0  0  0  0  0
    5.5760    0.0110    0.2990 N   0  0  0  0  0  0  0  0  0  0  0  0
    4.8090    0.5070   -0.7740 C   0  0  0  0  0  0  0  0  0  0  0  0
    5.1480    1.5580   -1.5860 C   0  0  0  0  0  0  0  0  0  0  0  0
    4.3570    2.0090   -2.6440 C   0  0  0  0  0  0  0  0  0  0  0  0
    3.1670    1.3790   -2.9030 C   0  0  0  0  0  0  0  0  0  0  0  0
    2.0990    1.8610   -4.2010 Cl  0  0  0  0  0  0  0  0  0  0  0  0
    2.7700    0.2970   -2.1030 C   0  0  0  0  0  0  0  0  0  0  0  0
    3.5790   -0.1080   -1.0780 C   0  0  0  0  0  0  0  0  0  0  0  0
    3.1880   -1.2350   -0.2160 C   0  0  0  0  0  0  0  0  0  0  0  0
    1.8380   -1.8030   -0.4490 C   0  0  0  0  0  0  0  0  0  0  0  0
    0.8800   -0.8330   -1.0970 C   0  0  1  0  0  0  0  0  0  0  0  0
    0.5860    0.3710   -0.2750 C   0  0  0  0  0  0  0  0  0  0  0  0
   -0.0030    0.1170    0.9990 N   0  0  0  0  0  0  0  0  0  0  0  0
   -1.2350   -0.5930    0.9920 C   0  0  0  0  0  0  0  0  0  0  0  0
   -2.3840    0.1590    0.3730 C   0  0  2  0  0  0  0  0  0  0  0  0
   -2.6980    1.4400    1.0520 C   0  0  0  0  0  0  0  0  0  0  0  0
   -4.0900    1.5710    1.5860 C   0  0  0  0  0  0  0  0  0  0  0  0
   -5.0770    1.2240    0.4600 C   0  0  0  0  0  0  0  0  0  0  0  0
   -4.8160   -0.1440    0.0680 N   0  0  0  0  0  0  0  0  0  0  0  0
   -5.7580   -0.8490   -0.7210 C   0  0  0  0  0  0  0  0  0  0  0  0
   -5.4530   -2.0590   -1.0160 O   0  0  0  0  0  0  0  0  0  0  0  0
   -7.0020   -0.3010   -1.1950 C   0  0  2  0  0  0  0  0  0  0  0  0
   -6.8490    1.1360   -1.3380 O   0  0  0  0  0  0  0  0  0  0  0  0
   -8.2650   -0.4850   -0.4590 C   0  0  0  0  0  0  0  0  0  0  0  0
   -8.6960   -1.6980   -0.1060 O   0  0  0  0  0  0  0  0  0  0  0  0
   -8.0870   -2.4230    0.8520 C   0  0  0  0  0  0  0  0  0  0  0  0
   -3.5940   -0.7770    0.4870 C   0  0  0  0  0  0  0  0  0  0  0  0
    1.4730   -0.3750   -2.4120 C   0  0  0  0  0  0  0  0  0  0  0  0
  1  2  1  0
  2  3  1  0
  3  4  1  0
  4  5  2  0
  4  6  1  0
  6  7  1  0
  7  8  2  0
  7 13  1  0
  8  9  1  0
  9 10  2  0
 10 11  1  0
 10 12  1  0
 12 13  2  0
 12 33  1  0
 13 14  1  0
 14 15  1  0
 15 16  1  0
 16 17  1  1
 16 33  1  0
 17 18  1  0
 18 19  1  0
 20 19  1  1
 20 21  1  0
 20 32  1  0
 21 22  1  0
 22 23  1  0
 23 24  1  0
 24 25  1  0
 24 32  1  0
 25 26  2  0
 25 27  1  0
 27 28  1  1
 27 29  1  0
 29 30  1  0
 30 31  1  0
M  CHG  1  18   1
M  END
