
     RDKit          3D

 32 36  0  0  0  0  0  0  0  0999 V2000
   -7.1930   -1.3370    2.1320 C   0  0  0  0  0  0  0  0  0  0  0  0
   -6.2800   -1.4090    0.9440 C   0  0  0  0  0  0  0  0  0  0  0  0
   -4.8990   -1.0930    1.2640 N   0  0  0  0  0  0  0  0  0  0  0  0
   -3.9490   -1.1250    0.2350 C   0  0  0  0  0  0  0  0  0  0  0  0
   -4.3290   -1.4300   -0.9450 O   0  0  0  0  0  0  0  0  0  0  0  0
   -2.5060   -0.8220    0.4310 C   0  0  0  0  0  0  0  0  0  0  0  0
   -1.7430   -0.9310   -0.8720 C   0  0  0  0  0  0  0  0  0  0  0  0
   -0.3030   -0.6350   -0.6970 C   0  0  0  0  0  0  0  0  0  0  0  0
    0.6390   -1.6390   -0.6820 C   0  0  0  0  0  0  0  0  0  0  0  0
    1.9610   -1.3560   -0.5220 C   0  0  0  0  0  0  0  0  0  0  0  0
    2.9910   -2.4120   -0.5000 C   0  0  0  0  0  0  0  0  0  0  0  0
    2.7960   -3.7390   -0.6190 N   0  0  0  0  0  0  0  0  0  0  0  0
    3.9830   -4.3720   -0.5470 C   0  0  0  0  0  0  0  0  0  0  0  0
    4.3890   -5.6900   -0.6050 C   0  0  0  0  0  0  0  0  0  0  0  0
    5.7010   -6.0070   -0.4970 N   0  0  0  0  0  0  0  0  0  0  0  0
    6.6460   -5.0620   -0.3310 C   0  0  0  0  0  0  0  0  0  0  0  0
    6.3070   -3.7440   -0.2670 C   0  0  0  0  0  0  0  0  0  0  0  0
    4.9620   -3.4090   -0.3770 C   0  0  0  0  0  0  0  0  0  0  0  0
    4.3000   -2.2330   -0.3550 N   0  0  0  0  0  0  0  0  0  0  0  0
    2.3340   -0.0410   -0.3750 C   0  0  0  0  0  0  0  0  0  0  0  0
    1.4300    0.9950   -0.3830 C   0  0  0  0  0  0  0  0  0  0  0  0
    1.8430    2.3200   -0.2290 C   0  0  0  0  0  0  0  0  0  0  0  0
    0.8590    3.2840   -0.2500 C   0  0  0  0  0  0  0  0  0  0  0  0
    1.2670    4.6150   -0.0950 C   0  0  0  0  0  0  0  0  0  0  0  0
    0.3120    5.6090   -0.1090 C   0  0  0  0  0  0  0  0  0  0  0  0
    0.7030    7.0340    0.0520 C   0  0  0  0  0  0  0  0  0  0  0  0
   -1.0310    5.3090   -0.2730 C   0  0  0  0  0  0  0  0  0  0  0  0
   -2.2020    6.6180   -0.2830 Cl  0  0  0  0  0  0  0  0  0  0  0  0
   -1.4290    3.9960   -0.4250 C   0  0  0  0  0  0  0  0  0  0  0  0
   -0.4740    2.9740   -0.4130 C   0  0  0  0  0  0  0  0  0  0  0  0
   -0.8340    1.6880   -0.5580 N   0  0  0  0  0  0  0  0  0  0  0  0
    0.0890    0.6790   -0.5470 C   0  0  0  0  0  0  0  0  0  0  0  0
  1  2  1  0
  2  3  1  0
  3  4  1  0
  4  5  2  0
  4  6  1  0
  6  7  1  0
  7  8  1  0
  8  9  2  0
  8 32  1  0
  9 10  1  0
 10 11  1  0
 10 20  2  0
 11 12  2  0
 11 19  1  0
 12 13  1  0
 13 14  2  0
 13 18  1  0
 14 15  1  0
 15 16  2  0
 16 17  1  0
 17 18  2  0
 18 19  1  0
 20 21  1  0
 21 22  2  0
 21 32  1  0
 22 23  1  0
 23 24  2  0
 23 30  1  0
 24 25  1  0
 25 26  1  0
 25 27  2  0
 27 28  1  0
 27 29  1  0
 29 30  2  0
 30 31  1  0
 31 32  2  0
M  END
