
     RDKit          3D

 33 35  0  0  0  0  0  0  0  0999 V2000
    3.9720   -0.4370    1.2980 C   0  0  0  0  0  0  0  0  0  0  0  0
    4.1250   -1.1060    0.1590 C   0  0  0  0  0  0  0  0  0  0  0  0
    5.1090   -2.1170    0.1080 O   0  0  0  0  0  0  0  0  0  0  0  0
    5.3400   -2.8620   -1.0160 C   0  0  0  0  0  0  0  0  0  0  0  0
    4.6230   -2.6360   -2.0990 C   0  0  0  0  0  0  0  0  0  0  0  0
    3.6000   -1.6150   -2.1120 C   0  0  0  0  0  0  0  0  0  0  0  0
    3.3480   -0.8630   -1.0210 C   0  0  0  0  0  0  0  0  0  0  0  0
    2.3110    0.1510   -1.1170 C   0  0  0  0  0  0  0  0  0  0  0  0
    2.6370    1.5450   -0.8750 C   0  0  0  0  0  0  0  0  0  0  0  0
    3.5580    2.1480   -1.7520 C   0  0  0  0  0  0  0  0  0  0  0  0
    4.3010    1.1880   -3.0040 Cl  0  0  0  0  0  0  0  0  0  0  0  0
    3.8870    3.4700   -1.6440 C   0  0  0  0  0  0  0  0  0  0  0  0
    3.2940    4.2040   -0.6510 C   0  0  0  0  0  0  0  0  0  0  0  0
    2.3730    3.6150    0.2300 C   0  0  0  0  0  0  0  0  0  0  0  0
    2.0290    2.2800    0.1320 C   0  0  0  0  0  0  0  0  0  0  0  0
    1.0500    1.7000    0.9750 N   0  0  0  0  0  0  0  0  0  0  0  0
    0.5170    2.2740    2.1520 C   0  0  0  0  0  0  0  0  0  0  0  0
    0.9520    3.4000    2.5210 O   0  0  0  0  0  0  0  0  0  0  0  0
   -0.5360    1.6210    2.9950 C   0  0  0  0  0  0  0  0  0  0  0  0
   -1.0580    0.3950    2.5070 N   0  0  0  0  0  0  0  0  0  0  0  0
   -1.7860    0.3670    1.2650 C   0  0  0  0  0  0  0  0  0  0  0  0
   -1.9120    1.4640    0.6730 O   0  0  0  0  0  0  0  0  0  0  0  0
   -2.3530   -0.8860    0.7210 C   0  0  2  0  0  0  0  0  0  0  0  0
   -3.0800   -1.6160    1.8080 C   0  0  0  0  0  0  0  0  0  0  0  0
   -3.6820   -2.8570    1.5040 N   0  0  0  0  0  0  0  0  0  0  0  0
   -3.1790   -1.1730    2.9800 O   0  0  0  0  0  0  0  0  0  0  0  0
   -1.2970   -1.7790    0.1670 C   0  0  0  0  0  0  0  0  0  0  0  0
   -1.2040   -1.8720   -1.3020 C   0  0  0  0  0  0  0  0  0  0  0  0
   -2.3370   -1.3910   -2.1240 C   0  0  0  0  0  0  0  0  0  0  0  0
   -2.8300   -0.1510   -1.5610 N   0  0  0  0  0  0  0  0  0  0  0  0
   -3.4090   -0.5270   -0.2900 C   0  0  2  0  0  0  0  0  0  0  0  0
   -4.4720    0.4050    0.1800 C   0  0  0  0  0  0  0  0  0  0  0  0
   -5.4870    0.6980   -0.9230 C   0  0  0  0  0  0  0  0  0  0  0  0
  1  2  2  0
  2  3  1  0
  2  7  1  0
  3  4  1  0
  4  5  2  0
  5  6  1  0
  6  7  2  0
  7  8  1  0
  8  9  1  0
  9 10  2  0
  9 15  1  0
 10 11  1  0
 10 12  1  0
 12 13  2  0
 13 14  1  0
 14 15  2  0
 15 16  1  0
 16 17  1  0
 17 18  2  0
 17 19  1  0
 19 20  1  0
 20 21  1  0
 21 22  2  0
 23 21  1  1
 23 24  1  0
 23 27  1  0
 23 31  1  0
 24 25  1  0
 24 26  2  0
 27 28  1  0
 28 29  1  0
 29 30  1  0
 30 31  1  0
 31 32  1  1
 32 33  1  0
M  CHG  1  30   1
M  END
