
     RDKit          3D

 33 35  0  0  0  0  0  0  0  0999 V2000
   11.1540   -2.1710    0.5630 C   0  0  0  0  0  0  0  0  0  0  0  0
   10.0350   -1.2670    0.7690 N   0  0  0  0  0  0  0  0  0  0  0  0
    9.3060   -1.1240   -0.4630 C   0  0  0  0  0  0  0  0  0  0  0  0
    7.8410   -0.9180   -0.2650 C   0  0  0  0  0  0  0  0  0  0  0  0
    6.8990   -1.9120   -0.4110 C   0  0  0  0  0  0  0  0  0  0  0  0
    5.5580   -1.6660   -0.2130 C   0  0  0  0  0  0  0  0  0  0  0  0
    5.0800   -0.4070    0.1450 C   0  0  0  0  0  0  0  0  0  0  0  0
    6.0280    0.5820    0.2890 C   0  0  0  0  0  0  0  0  0  0  0  0
    7.3670    0.3440    0.0930 C   0  0  0  0  0  0  0  0  0  0  0  0
    5.5220    1.8810    0.6580 N   0  0  0  0  0  0  0  0  0  0  0  0
    4.1270    2.1670    0.3750 C   0  0  0  0  0  0  0  0  0  0  0  0
    3.3210    1.0360    0.9530 C   0  0  1  0  0  0  0  0  0  0  0  0
    1.8610    1.2770    0.8380 C   0  0  0  0  0  0  0  0  0  0  0  0
    1.4310    2.3440    1.3450 O   0  0  0  0  0  0  0  0  0  0  0  0
    1.0100    0.4090    0.2220 O   0  0  0  0  0  0  0  0  0  0  0  0
   -0.3820    0.6720    0.1200 C   0  0  0  0  0  0  0  0  0  0  0  0
   -0.6120    1.9160   -0.6770 C   0  0  0  0  0  0  0  0  0  0  0  0
   -2.0340    2.1680   -0.7660 N   0  0  0  0  0  0  0  0  0  0  0  0
   -2.9610    1.2680   -1.3570 C   0  0  0  0  0  0  0  0  0  0  0  0
   -2.5570    0.1790   -1.8360 O   0  0  0  0  0  0  0  0  0  0  0  0
   -4.3660    1.5680   -1.4260 N   0  0  0  0  0  0  0  0  0  0  0  0
   -5.3390    0.6760   -2.0070 C   0  0  0  0  0  0  0  0  0  0  0  0
   -5.4550   -0.6520   -1.3990 C   0  0  0  0  0  0  0  0  0  0  0  0
   -5.9180   -0.8440   -0.0150 C   0  0  0  0  0  0  0  0  0  0  0  0
   -7.2690   -0.4540    0.3330 C   0  0  0  0  0  0  0  0  0  0  0  0
   -8.2960   -1.4010    0.1820 C   0  0  0  0  0  0  0  0  0  0  0  0
   -9.6150   -1.1140    0.4260 C   0  0  0  0  0  0  0  0  0  0  0  0
  -10.6360   -2.1860    0.2350 C   0  0  0  0  0  0  0  0  0  0  0  0
   -9.9660    0.1560    0.8400 C   0  0  0  0  0  0  0  0  0  0  0  0
   -8.9900    1.1010    0.9980 C   0  0  0  0  0  0  0  0  0  0  0  0
   -7.6460    0.7810    0.7420 C   0  0  0  0  0  0  0  0  0  0  0  0
   -6.5090    2.0640    1.0620 Cl  0  0  0  0  0  0  0  0  0  0  0  0
    3.7330   -0.1660    0.3420 O   0  0  0  0  0  0  0  0  0  0  0  0
  1  2  1  0
  2  3  1  0
  3  4  1  0
  4  5  2  0
  4  9  1  0
  5  6  1  0
  6  7  2  0
  7  8  1  0
  7 33  1  0
  8  9  2  0
  8 10  1  0
 10 11  1  0
 11 12  1  0
 12 13  1  6
 12 33  1  0
 13 14  2  0
 13 15  1  0
 15 16  1  0
 16 17  1  0
 17 18  1  0
 18 19  1  0
 19 20  2  0
 19 21  1  0
 21 22  1  0
 22 23  1  0
 23 24  1  0
 24 25  1  0
 25 26  2  0
 25 31  1  0
 26 27  1  0
 27 28  1  0
 27 29  2  0
 29 30  1  0
 30 31  2  0
 31 32  1  0
M  CHG  1   2   1
M  END
