
     RDKit          3D

  4  3  0  0  0  0  0  0  0  0999 V2000
    0.8730    1.1790   -0.2110 O   0  0  0  0  0  0  0  0  0  0  0  0
    0.8080    0.0180    0.2710 C   0  0  0  0  0  0  0  0  0  0  0  0
   -0.2520   -0.7610   -0.1090 O   0  0  0  0  0  0  0  0  0  0  0  0
   -1.2200   -0.4110   -0.9390 O   0  0  0  0  0  0  0  0  0  0  0  0
  1  2  2  0
  2  3  1  0
  3  4  1  0
M  END
