
     RDKit          3D

 43 48  0  0  0  0  0  0  0  0999 V2000
  -10.3970   -2.9740   -0.3950 C   0  0  0  0  0  0  0  0  0  0  0  0
  -10.0210   -1.8190    0.4630 C   0  0  0  0  0  0  0  0  0  0  0  0
   -8.9200   -1.1350    0.2900 C   0  0  0  0  0  0  0  0  0  0  0  0
   -8.5720    0.0090    1.1590 C   0  0  2  0  0  0  0  0  0  0  0  0
   -8.6080   -0.3340    2.6140 C   0  0  0  0  0  0  0  0  0  0  0  0
   -9.5960    1.1280    0.9270 C   0  0  0  0  0  0  0  0  0  0  0  0
   -7.2230    0.5640    0.8200 C   0  0  0  0  0  0  0  0  0  0  0  0
   -6.8480    0.7860   -0.4900 C   0  0  0  0  0  0  0  0  0  0  0  0
   -5.5880    1.3020   -0.7990 C   0  0  0  0  0  0  0  0  0  0  0  0
   -4.6730    1.6100    0.1790 C   0  0  0  0  0  0  0  0  0  0  0  0
   -3.3810    2.1470   -0.0650 N   0  0  0  0  0  0  0  0  0  0  0  0
   -2.4110    2.2630    1.0290 C   0  0  0  0  0  0  0  0  0  0  0  0
   -1.0010    2.4070    0.5210 C   0  0  0  0  0  0  0  0  0  0  0  0
   -0.7810    1.6730   -0.7540 C   0  0  0  0  0  0  0  0  0  0  0  0
    0.2260    0.8680   -1.2410 C   0  0  0  0  0  0  0  0  0  0  0  0
    1.4660    0.4870   -0.5670 C   0  0  0  0  0  0  0  0  0  0  0  0
    1.7140    0.8880    0.5960 O   0  0  0  0  0  0  0  0  0  0  0  0
    2.4130   -0.3430   -1.2160 N   0  0  0  0  0  0  0  0  0  0  0  0
    3.6690   -0.7610   -0.6140 C   0  0  2  0  0  0  0  0  0  0  0  0
    4.7980   -0.3930   -1.5150 C   0  0  0  0  0  0  0  0  0  0  0  0
    5.7870   -0.8110   -1.9240 N   0  0  0  0  0  0  0  0  0  0  0  0
    6.6620   -0.3080   -2.7530 C   0  0  0  0  0  0  0  0  0  0  0  0
    7.9140   -0.9660   -3.1930 C   0  0  0  0  0  0  0  0  0  0  0  0
    8.3930   -1.9110   -2.2590 O   0  0  0  0  0  0  0  0  0  0  0  0
    8.7330   -1.5240   -0.9690 C   0  0  0  0  0  0  0  0  0  0  0  0
    8.6420   -0.2360   -0.4950 C   0  0  0  0  0  0  0  0  0  0  0  0
    8.9950    0.0890    0.8020 C   0  0  0  0  0  0  0  0  0  0  0  0
    9.4510   -0.8680    1.6660 C   0  0  0  0  0  0  0  0  0  0  0  0
    9.8000   -0.5360    2.9550 O   0  0  0  0  0  0  0  0  0  0  0  0
    9.6830    0.8080    3.3770 C   0  0  0  0  0  0  0  0  0  0  0  0
    9.5470   -2.1630    1.2050 C   0  0  0  0  0  0  0  0  0  0  0  0
    9.1940   -2.4720   -0.0820 C   0  0  0  0  0  0  0  0  0  0  0  0
    6.3180    0.9730   -3.2170 C   0  0  0  0  0  0  0  0  0  0  0  0
    4.7390    1.2930   -2.3780 S   0  0  0  0  0  0  0  0  0  0  0  0
    3.7210   -2.2810   -0.4970 C   0  0  2  0  0  0  0  0  0  0  0  0
    2.6120   -2.9280    0.3570 C   0  0  0  0  0  0  0  0  0  0  0  0
    4.0170   -2.9240    0.8130 C   0  0  0  0  0  0  0  0  0  0  0  0
   -0.1830    0.5140   -2.4710 N   0  0  0  0  0  0  0  0  0  0  0  0
   -1.3520    1.0420   -2.7590 N   0  0  0  0  0  0  0  0  0  0  0  0
   -1.7590    1.7710   -1.7150 C   0  0  0  0  0  0  0  0  0  0  0  0
   -2.9410    2.6140   -1.3650 C   0  0  0  0  0  0  0  0  0  0  0  0
   -5.0560    1.3850    1.4940 C   0  0  0  0  0  0  0  0  0  0  0  0
   -6.3010    0.8740    1.7970 C   0  0  0  0  0  0  0  0  0  0  0  0
  1  2  1  0
  2  3  2  3
  3  4  1  0
  4  5  1  1
  4  6  1  0
  4  7  1  0
  7  8  2  0
  7 43  1  0
  8  9  1  0
  9 10  2  0
 10 11  1  0
 10 42  1  0
 11 12  1  0
 11 41  1  0
 12 13  1  0
 13 14  1  0
 14 15  1  0
 14 40  2  0
 15 16  1  0
 15 38  2  0
 16 17  2  0
 16 18  1  0
 19 18  1  6
 19 20  1  0
 19 35  1  0
 20 21  2  0
 20 34  1  0
 21 22  1  0
 22 23  1  0
 22 33  2  0
 23 24  1  0
 24 25  1  0
 25 26  2  0
 25 32  1  0
 26 27  1  0
 27 28  2  0
 28 29  1  0
 28 31  1  0
 29 30  1  0
 31 32  2  0
 33 34  1  0
 35 36  1  1
 35 37  1  0
 36 37  1  0
 38 39  1  0
 39 40  1  0
 40 41  1  0
 42 43  2  0
M  END
