
     RDKit          3D

 42 47  0  0  0  0  0  0  0  0999 V2000
   -4.6520    5.5930   -2.4650 C   0  0  0  0  0  0  0  0  0  0  0  0
   -4.2200    5.0780   -1.1490 C   0  0  0  0  0  0  0  0  0  0  0  0
   -2.8980    4.6780   -0.9760 C   0  0  0  0  0  0  0  0  0  0  0  0
   -2.4830    4.2000    0.2510 C   0  0  0  0  0  0  0  0  0  0  0  0
   -3.3660    4.1090    1.3270 C   0  0  0  0  0  0  0  0  0  0  0  0
   -2.8680    3.5960    2.6440 C   0  0  0  0  0  0  0  0  0  0  0  0
   -1.8160    2.6190    2.3150 N   0  0  0  0  0  0  0  0  0  0  0  0
   -2.1790    1.4290    1.6940 C   0  0  0  0  0  0  0  0  0  0  0  0
   -3.5450    1.1280    1.5870 C   0  0  0  0  0  0  0  0  0  0  0  0
   -3.9850   -0.0620    1.0260 C   0  0  0  0  0  0  0  0  0  0  0  0
   -5.3260   -0.3500    0.9410 C   0  0  0  0  0  0  0  0  0  0  0  0
   -5.7280   -1.5510    0.3890 C   0  0  0  0  0  0  0  0  0  0  0  0
   -4.7840   -2.4700   -0.0810 C   0  0  0  0  0  0  0  0  0  0  0  0
   -5.2150   -3.6600   -0.6220 O   0  0  0  0  0  0  0  0  0  0  0  0
   -4.2830   -4.5840   -1.1140 C   0  0  0  0  0  0  0  0  0  0  0  0
   -5.0700   -5.7650   -1.6220 C   0  0  0  0  0  0  0  0  0  0  0  0
   -4.5510   -6.8360   -2.2550 N   0  0  0  0  0  0  0  0  0  0  0  0
   -5.5480   -7.6860   -2.5600 C   0  0  0  0  0  0  0  0  0  0  0  0
   -6.7110   -7.1020   -2.0900 C   0  0  0  0  0  0  0  0  0  0  0  0
   -6.3550   -5.9690   -1.5480 O   0  0  0  0  0  0  0  0  0  0  0  0
   -3.4950   -2.1430    0.0240 N   0  0  0  0  0  0  0  0  0  0  0  0
   -3.0630   -0.9690    0.5630 C   0  0  0  0  0  0  0  0  0  0  0  0
   -1.7040   -0.7000    0.6540 C   0  0  0  0  0  0  0  0  0  0  0  0
   -1.2960    0.5030    1.2220 C   0  0  0  0  0  0  0  0  0  0  0  0
    0.1730    0.7280    1.2590 C   0  0  0  0  0  0  0  0  0  0  0  0
    0.6190    1.8120    1.7040 O   0  0  0  0  0  0  0  0  0  0  0  0
    1.1230   -0.2060    0.8230 N   0  0  0  0  0  0  0  0  0  0  0  0
    2.5320   -0.0160    0.8390 C   0  0  0  0  0  0  0  0  0  0  0  0
    3.3600   -1.1460    0.7740 C   0  0  0  0  0  0  0  0  0  0  0  0
    4.7080   -1.0200    0.7620 C   0  0  0  0  0  0  0  0  0  0  0  0
    5.3300    0.2070    0.8120 C   0  0  0  0  0  0  0  0  0  0  0  0
    6.7990    0.2830    0.7960 C   0  0  0  0  0  0  0  0  0  0  0  0
    7.4100   -0.9210    0.2560 N   0  0  0  0  0  0  0  0  0  0  0  0
    8.8340   -0.7470    0.3570 C   0  0  0  0  0  0  0  0  0  0  0  0
    9.6470   -1.9070   -0.1480 C   0  0  0  0  0  0  0  0  0  0  0  0
    9.3510   -1.9410   -1.9650 S   0  0  0  0  0  0  0  0  0  0  0  0
    7.9060   -0.8230   -2.1730 C   0  0  0  0  0  0  0  0  0  0  0  0
    6.9450   -1.1940   -1.0700 C   0  0  0  0  0  0  0  0  0  0  0  0
    4.5260    1.3190    0.8760 C   0  0  0  0  0  0  0  0  0  0  0  0
    3.1350    1.2090    0.8890 C   0  0  0  0  0  0  0  0  0  0  0  0
   -4.6670    4.5110    1.1280 C   0  0  0  0  0  0  0  0  0  0  0  0
   -5.0960    4.9900   -0.0900 C   0  0  0  0  0  0  0  0  0  0  0  0
  1  2  1  0
  2  3  2  0
  2 42  1  0
  3  4  1  0
  4  5  2  0
  5  6  1  0
  5 41  1  0
  6  7  1  0
  7  8  1  0
  8  9  2  0
  8 24  1  0
  9 10  1  0
 10 11  2  0
 10 22  1  0
 11 12  1  0
 12 13  2  0
 13 14  1  0
 13 21  1  0
 14 15  1  0
 15 16  1  0
 16 17  2  0
 16 20  1  0
 17 18  1  0
 18 19  2  0
 19 20  1  0
 21 22  2  0
 22 23  1  0
 23 24  2  0
 24 25  1  0
 25 26  2  0
 25 27  1  0
 27 28  1  0
 28 29  2  0
 28 40  1  0
 29 30  1  0
 30 31  2  0
 31 32  1  0
 31 39  1  0
 32 33  1  0
 33 34  1  0
 33 38  1  0
 34 35  1  0
 35 36  1  0
 36 37  1  0
 37 38  1  0
 39 40  2  0
 41 42  2  0
M  END
