
     RDKit          3D

 43 48  0  0  0  0  0  0  0  0999 V2000
   -1.5040    6.5650   -2.1080 C   0  0  0  0  0  0  0  0  0  0  0  0
   -2.1150    5.7990   -1.1180 O   0  0  0  0  0  0  0  0  0  0  0  0
   -2.0220    4.4440   -0.9820 C   0  0  0  0  0  0  0  0  0  0  0  0
   -1.2590    3.7210   -1.8810 C   0  0  0  0  0  0  0  0  0  0  0  0
   -1.1340    2.3520   -1.7870 C   0  0  0  0  0  0  0  0  0  0  0  0
   -1.7610    1.6280   -0.7960 C   0  0  0  0  0  0  0  0  0  0  0  0
   -1.6760    0.1980   -0.6250 C   0  0  0  0  0  0  0  0  0  0  0  0
   -0.6490   -0.5830   -0.5590 C   0  0  0  0  0  0  0  0  0  0  0  0
   -0.7980   -2.0090   -0.3890 N   0  0  0  0  0  0  0  0  0  0  0  0
    0.3380   -2.5620   -0.3240 C   0  0  0  0  0  0  0  0  0  0  0  0
    0.5440   -4.0210   -0.1510 C   0  0  0  0  0  0  0  0  0  0  0  0
    1.4080   -1.5370   -0.4460 C   0  0  0  0  0  0  0  0  0  0  0  0
    0.8210   -0.3510   -0.5860 C   0  0  0  0  0  0  0  0  0  0  0  0
    1.5980    0.7700   -0.7050 C   0  0  0  0  0  0  0  0  0  0  0  0
    3.2530    0.1160   -0.6150 S   0  0  0  0  0  0  0  0  0  0  0  0
    2.7820   -1.5850   -0.4280 C   0  0  0  0  0  0  0  0  0  0  0  0
    3.6930   -2.6810   -0.3080 N   0  0  0  0  0  0  0  0  0  0  0  0
    5.0930   -2.4790   -0.2740 C   0  0  0  0  0  0  0  0  0  0  0  0
    5.9920   -3.5000   -0.1680 C   0  0  0  0  0  0  0  0  0  0  0  0
    7.3370   -3.2170   -0.1260 C   0  0  0  0  0  0  0  0  0  0  0  0
    7.8030   -1.9340   -0.1890 C   0  0  0  0  0  0  0  0  0  0  0  0
    9.1630   -1.6320   -0.1430 C   0  0  0  0  0  0  0  0  0  0  0  0
    9.6270   -0.3360   -0.2030 C   0  0  0  0  0  0  0  0  0  0  0  0
   11.0820   -0.0360   -0.1490 C   0  0  0  0  0  0  0  0  0  0  0  0
    8.6640    0.6510   -0.3110 C   0  0  0  0  0  0  0  0  0  0  0  0
    7.3190    0.3720   -0.3570 C   0  0  0  0  0  0  0  0  0  0  0  0
    6.8720   -0.9260   -0.2960 C   0  0  0  0  0  0  0  0  0  0  0  0
    5.5580   -1.2210   -0.3360 N   0  0  0  0  0  0  0  0  0  0  0  0
   -2.5350    2.3550    0.1170 C   0  0  0  0  0  0  0  0  0  0  0  0
   -3.2090    1.7420    1.1510 O   0  0  0  0  0  0  0  0  0  0  0  0
   -4.5390    1.3100    1.0040 C   0  0  0  0  0  0  0  0  0  0  0  0
   -5.0430    0.6640    2.2960 C   0  0  0  0  0  0  0  0  0  0  0  0
   -6.3970    0.2130    2.1280 N   0  0  0  0  0  0  0  0  0  0  0  0
   -6.7560   -0.9410    1.3700 C   0  0  0  0  0  0  0  0  0  0  0  0
   -5.7690   -1.7200    0.8280 C   0  0  0  0  0  0  0  0  0  0  0  0
   -6.1120   -2.8330    0.0770 C   0  0  0  0  0  0  0  0  0  0  0  0
   -7.4300   -3.1210   -0.1030 C   0  0  0  0  0  0  0  0  0  0  0  0
   -7.8180   -4.3230   -0.9130 C   0  0  0  0  0  0  0  0  0  0  0  0
   -8.4140   -2.3330    0.4450 C   0  0  0  0  0  0  0  0  0  0  0  0
   -8.0360   -1.2730    1.1610 N   0  0  0  0  0  0  0  0  0  0  0  0
   -2.6510    3.7250    0.0120 C   0  0  0  0  0  0  0  0  0  0  0  0
   -3.4310    4.3900    0.9460 O   0  0  0  0  0  0  0  0  0  0  0  0
   -2.7780    4.8470    2.1230 C   0  0  0  0  0  0  0  0  0  0  0  0
  1  2  1  0
  2  3  1  0
  3  4  2  0
  3 41  1  0
  4  5  1  0
  5  6  2  0
  6  7  1  0
  6 29  1  0
  7  8  2  3
  8  9  1  0
  8 13  1  0
  9 10  2  0
 10 11  1  0
 10 12  1  0
 12 13  1  0
 12 16  2  0
 13 14  2  0
 14 15  1  0
 15 16  1  0
 16 17  1  0
 17 18  1  0
 18 19  2  0
 18 28  1  0
 19 20  1  0
 20 21  2  0
 21 22  1  0
 21 27  1  0
 22 23  2  0
 23 24  1  0
 23 25  1  0
 25 26  2  0
 26 27  1  0
 27 28  2  0
 29 30  1  0
 29 41  2  0
 30 31  1  0
 31 32  1  0
 32 33  1  0
 33 34  1  0
 34 35  2  0
 34 40  1  0
 35 36  1  0
 36 37  2  0
 37 38  1  0
 37 39  1  0
 39 40  2  0
 41 42  1  0
 42 43  1  0
M  END
