
     RDKit          3D

 43 48  0  0  0  0  0  0  0  0999 V2000
   -8.4110   -4.9340    1.1010 C   0  0  0  0  0  0  0  0  0  0  0  0
   -8.8830   -4.1630   -0.1090 C   0  0  0  0  0  0  0  0  0  0  0  0
   -8.6240   -2.7580    0.0190 N   0  0  0  0  0  0  0  0  0  0  0  0
   -7.2680   -2.3060    0.0850 C   0  0  0  0  0  0  0  0  0  0  0  0
   -6.1990   -3.1500   -0.0020 C   0  0  0  0  0  0  0  0  0  0  0  0
   -4.9150   -2.6520    0.0780 C   0  0  0  0  0  0  0  0  0  0  0  0
   -4.7060   -1.3090    0.2460 C   0  0  0  0  0  0  0  0  0  0  0  0
   -3.4140   -0.6820    0.3420 C   0  0  0  0  0  0  0  0  0  0  0  0
   -3.3390    0.6820    0.5120 C   0  0  0  0  0  0  0  0  0  0  0  0
   -2.1140    1.3110    0.6050 C   0  0  0  0  0  0  0  0  0  0  0  0
   -0.9600    0.6140    0.5330 C   0  0  0  0  0  0  0  0  0  0  0  0
    0.3620    1.2940    0.6460 C   0  0  1  0  0  0  0  0  0  0  0  0
    1.1600    1.0060   -0.4520 O   0  0  0  0  0  0  0  0  0  0  0  0
    2.4010    0.4140   -0.4200 C   0  0  0  0  0  0  0  0  0  0  0  0
    3.0190    0.2100   -1.6740 C   0  0  0  0  0  0  0  0  0  0  0  0
    4.2530   -0.3760   -1.6740 C   0  0  0  0  0  0  0  0  0  0  0  0
    4.9140   -0.7700   -0.5340 C   0  0  0  0  0  0  0  0  0  0  0  0
    6.2310   -1.3870   -0.6440 C   0  0  0  0  0  0  0  0  0  0  0  0
    6.2350   -2.8250   -0.6500 N   0  0  0  0  0  0  0  0  0  0  0  0
    6.1190   -3.6440   -1.8080 C   0  0  0  0  0  0  0  0  0  0  0  0
    6.0010   -3.2790   -2.9980 O   0  0  0  0  0  0  0  0  0  0  0  0
    6.1660   -5.0170   -1.3370 C   0  0  0  0  0  0  0  0  0  0  0  0
    6.3350   -4.9190    0.1800 C   0  0  0  0  0  0  0  0  0  0  0  0
    6.4460   -5.9130    1.1330 C   0  0  0  0  0  0  0  0  0  0  0  0
    6.6050   -4.9970    2.6650 S   0  0  0  0  0  0  0  0  0  0  0  0
    6.5140   -3.4180    1.9410 C   0  0  0  0  0  0  0  0  0  0  0  0
    6.3640   -3.6480    0.5340 C   0  0  0  0  0  0  0  0  0  0  0  0
    4.3020   -0.5660    0.6740 C   0  0  0  0  0  0  0  0  0  0  0  0
    3.0580    0.0210    0.7150 C   0  0  0  0  0  0  0  0  0  0  0  0
    0.1590    2.7730    0.8520 C   0  0  0  0  0  0  0  0  0  0  0  0
   -0.4320    3.1190    1.8740 O   0  0  0  0  0  0  0  0  0  0  0  0
    0.6220    3.7110   -0.0790 N   0  0  0  0  0  0  0  0  0  0  0  0
    0.4940    5.1100    0.0030 C   0  0  0  0  0  0  0  0  0  0  0  0
    1.0020    5.8890   -1.0420 C   0  0  0  0  0  0  0  0  0  0  0  0
    0.9200    7.2600   -1.0420 C   0  0  0  0  0  0  0  0  0  0  0  0
    0.3200    7.9250    0.0120 C   0  0  0  0  0  0  0  0  0  0  0  0
    0.1990    9.4000    0.0700 C   0  0  0  0  0  0  0  0  0  0  0  0
   -0.1710    7.1590    1.0230 C   0  0  0  0  0  0  0  0  0  0  0  0
   -0.0990    5.7570    1.0460 C   0  0  0  0  0  0  0  0  0  0  0  0
   -1.0350   -0.7630    0.3610 C   0  0  0  0  0  0  0  0  0  0  0  0
   -2.2560   -1.3960    0.2670 C   0  0  0  0  0  0  0  0  0  0  0  0
   -5.8120   -0.5350    0.3230 N   0  0  0  0  0  0  0  0  0  0  0  0
   -7.0310   -0.9940    0.2480 N   0  0  0  0  0  0  0  0  0  0  0  0
  1  2  1  0
  2  3  1  0
  3  4  1  0
  4  5  2  0
  4 43  1  0
  5  6  1  0
  6  7  2  0
  7  8  1  0
  7 42  1  0
  8  9  2  0
  8 41  1  0
  9 10  1  0
 10 11  2  0
 11 12  1  0
 11 40  1  0
 12 13  1  6
 12 30  1  0
 13 14  1  0
 14 15  2  0
 14 29  1  0
 15 16  1  0
 16 17  2  0
 17 18  1  0
 17 28  1  0
 18 19  1  0
 19 20  1  0
 19 27  1  0
 20 21  2  0
 20 22  1  0
 22 23  1  0
 23 24  2  0
 23 27  1  0
 24 25  1  0
 25 26  1  0
 26 27  2  0
 28 29  2  0
 30 31  2  0
 30 32  1  0
 32 33  1  0
 33 34  2  0
 33 39  1  0
 34 35  1  0
 35 36  2  0
 36 37  1  0
 36 38  1  0
 38 39  2  0
 40 41  2  0
 42 43  2  0
M  END
