
     RDKit          3D

 46 49  0  0  0  0  0  0  0  0999 V2000
    8.5280    3.5810    1.2700 C   0  0  0  0  0  0  0  0  0  0  0  0
    8.1790    2.7030    0.3090 C   0  0  0  0  0  0  0  0  0  0  0  0
    6.7890    2.6220   -0.1130 C   0  0  0  0  0  0  0  0  0  0  0  0
    6.4120    1.7470   -1.0290 C   0  0  0  0  0  0  0  0  0  0  0  0
    5.0380    1.5980   -1.5090 C   0  0  0  0  0  0  0  0  0  0  0  0
    4.1900    2.4020   -0.9680 N   0  0  0  0  0  0  0  0  0  0  0  0
    2.8420    2.6370   -1.0840 C   0  0  0  0  0  0  0  0  0  0  0  0
    2.2930    3.4420   -1.9670 O   0  0  0  0  0  0  0  0  0  0  0  0
    1.9250    1.9830   -0.2010 N   0  0  0  0  0  0  0  0  0  0  0  0
    2.1480    1.3870    1.0390 C   0  0  0  0  0  0  0  0  0  0  0  0
    1.4970    1.8420    2.0670 O   0  0  0  0  0  0  0  0  0  0  0  0
    3.0540    0.2630    1.3720 C   0  0  0  0  0  0  0  0  0  0  0  0
    2.5300   -1.1000    1.1790 C   0  0  0  0  0  0  0  0  0  0  0  0
    1.6290   -1.3710    0.1170 N   0  0  2  0  0  0  0  0  0  0  0  0
    0.5580   -2.2430    0.5680 C   0  0  2  0  0  0  0  0  0  0  0  0
   -0.0160   -1.5780    1.8450 C   0  0  0  0  0  0  0  0  0  0  0  0
    0.9550   -3.5970    1.0190 C   0  0  0  0  0  0  0  0  0  0  0  0
   -0.3150   -4.4690    1.0040 C   0  0  2  0  0  0  0  0  0  0  0  0
    0.1310   -5.7950    1.6450 C   0  0  0  0  0  0  0  0  0  0  0  0
   -0.7180   -4.8100   -0.3970 C   0  0  0  0  0  0  0  0  0  0  0  0
   -0.5760   -3.5730   -1.2710 C   0  0  0  0  0  0  0  0  0  0  0  0
   -0.6090   -2.3630   -0.3580 C   0  0  2  0  0  0  0  0  0  0  0  0
   -0.9820   -1.1980   -0.9990 O   0  0  0  0  0  0  0  0  0  0  0  0
   -2.1670   -0.5040   -0.8730 C   0  0  0  0  0  0  0  0  0  0  0  0
   -2.3390    0.6710   -1.6190 C   0  0  0  0  0  0  0  0  0  0  0  0
   -3.4840    1.4220   -1.5540 C   0  0  0  0  0  0  0  0  0  0  0  0
   -4.5580    1.0620   -0.7360 C   0  0  0  0  0  0  0  0  0  0  0  0
   -5.6940    1.8420   -0.6950 O   0  0  0  0  0  0  0  0  0  0  0  0
   -6.8040    1.5560    0.0820 C   0  0  1  0  0  0  0  0  0  0  0  0
   -7.0390    2.6330    1.1090 C   0  0  0  0  0  0  0  0  0  0  0  0
   -7.9880    2.5770    1.9180 O   0  0  0  0  0  0  0  0  0  0  0  0
   -6.1800    3.7110    1.1550 O   0  0  0  0  0  0  0  0  0  0  0  0
   -6.3710    4.7420    2.1070 C   0  0  0  0  0  0  0  0  0  0  0  0
   -8.0870    1.4840   -0.7350 C   0  0  2  0  0  0  0  0  0  0  0  0
   -8.4030    2.7670   -1.4440 C   0  0  0  0  0  0  0  0  0  0  0  0
   -9.2290    1.1270    0.1700 C   0  0  0  0  0  0  0  0  0  0  0  0
   -4.4000   -0.0870   -0.0010 C   0  0  0  0  0  0  0  0  0  0  0  0
   -3.2250   -0.8420   -0.0790 C   0  0  0  0  0  0  0  0  0  0  0  0
    2.2470   -1.8460   -1.0680 C   0  0  0  0  0  0  0  0  0  0  0  0
    3.5990   -1.4220   -1.4350 C   0  0  0  0  0  0  0  0  0  0  0  0
    3.7220   -0.3670   -2.4720 C   0  0  0  0  0  0  0  0  0  0  0  0
    2.8650   -0.3570   -3.3840 O   0  0  0  0  0  0  0  0  0  0  0  0
    4.7510    0.6260   -2.4920 N   0  0  0  0  0  0  0  0  0  0  0  0
    7.4510    0.9080   -1.5840 C   0  0  0  0  0  0  0  0  0  0  0  0
    8.7180    0.9370   -1.2640 C   0  0  0  0  0  0  0  0  0  0  0  0
    9.2350    1.8740   -0.2590 C   0  0  0  0  0  0  0  0  0  0  0  0
  1  2  2  0
  2  3  1  0
  2 46  1  0
  3  4  2  0
  4  5  1  0
  4 44  1  0
  5  6  2  0
  5 43  1  0
  6  7  1  0
  7  8  2  0
  7  9  1  0
  9 10  1  0
 10 11  2  0
 10 12  1  0
 12 13  1  0
 14 13  1  1
 14 15  1  0
 14 39  1  0
 15 16  1  1
 15 17  1  0
 15 22  1  0
 17 18  1  0
 18 19  1  1
 18 20  1  0
 20 21  1  0
 21 22  1  0
 22 23  1  6
 23 24  1  0
 24 25  2  0
 24 38  1  0
 25 26  1  0
 26 27  2  0
 27 28  1  0
 27 37  1  0
 29 28  1  6
 29 30  1  0
 29 34  1  0
 30 31  2  0
 30 32  1  0
 32 33  1  0
 34 35  1  1
 34 36  1  0
 37 38  2  0
 39 40  1  0
 40 41  1  0
 41 42  2  0
 41 43  1  0
 44 45  2  0
 45 46  1  0
M  CHG  1  14   1
M  END
