
     RDKit          3D

 45 48  0  0  0  0  0  0  0  0999 V2000
   -0.2740   -6.0870   -3.0290 C   0  0  0  0  0  0  0  0  0  0  0  0
   -0.7600   -4.7560   -3.3430 C   0  0  0  0  0  0  0  0  0  0  0  0
   -0.8970   -3.6000   -2.5520 C   0  0  0  0  0  0  0  0  0  0  0  0
   -1.3550   -2.5130   -3.0450 N   0  0  0  0  0  0  0  0  0  0  0  0
   -1.4070   -1.2350   -2.3420 C   0  0  0  0  0  0  0  0  0  0  0  0
   -0.6130   -0.7290   -1.4880 C   0  0  0  0  0  0  0  0  0  0  0  0
    0.6140   -1.2330   -0.9310 C   0  0  0  0  0  0  0  0  0  0  0  0
    1.1180   -2.3050   -1.2720 O   0  0  0  0  0  0  0  0  0  0  0  0
    1.3230   -0.4780    0.0790 N   0  0  0  0  0  0  0  0  0  0  0  0
    2.5210   -0.9170    0.6770 C   0  0  0  0  0  0  0  0  0  0  0  0
    2.8960   -2.2230    0.7860 C   0  0  0  0  0  0  0  0  0  0  0  0
    4.1170   -2.5880    1.3790 C   0  0  0  0  0  0  0  0  0  0  0  0
    4.9830   -1.6410    1.8730 C   0  0  0  0  0  0  0  0  0  0  0  0
    6.1890   -2.0440    2.4640 O   0  0  0  0  0  0  0  0  0  0  0  0
    7.0870   -1.0900    2.9200 C   0  0  0  0  0  0  0  0  0  0  0  0
    7.6310   -0.2860    1.7970 C   0  0  0  0  0  0  0  0  0  0  0  0
    7.3620   -0.5270    0.4820 C   0  0  0  0  0  0  0  0  0  0  0  0
    7.9680    0.2800   -0.4720 C   0  0  0  0  0  0  0  0  0  0  0  0
    7.6880    0.0490   -1.9120 C   0  0  0  0  0  0  0  0  0  0  0  0
    8.8200    1.2980   -0.1210 C   0  0  0  0  0  0  0  0  0  0  0  0
    9.4180    2.1040   -1.1470 N   0  0  0  0  0  0  0  0  0  0  0  0
    9.0800    1.5250    1.1990 C   0  0  0  0  0  0  0  0  0  0  0  0
    8.4900    0.7390    2.1550 C   0  0  0  0  0  0  0  0  0  0  0  0
    8.7740    0.9980    3.5790 C   0  0  0  0  0  0  0  0  0  0  0  0
    4.6160   -0.3210    1.7690 C   0  0  0  0  0  0  0  0  0  0  0  0
    3.4230    0.0310    1.1900 C   0  0  0  0  0  0  0  0  0  0  0  0
   -2.6790   -0.4380   -2.6270 C   0  0  0  0  0  0  0  0  0  0  0  0
   -3.2070    0.1170   -1.3570 C   0  0  0  0  0  0  0  0  0  0  0  0
   -2.7830   -0.2190   -0.2130 O   0  0  0  0  0  0  0  0  0  0  0  0
   -4.2510    1.0840   -1.3520 N   0  0  0  0  0  0  0  0  0  0  0  0
   -4.7620    1.6070   -0.1320 C   0  0  1  0  0  0  0  0  0  0  0  0
   -4.6420    3.1040   -0.0190 C   0  0  0  0  0  0  0  0  0  0  0  0
   -5.7000    3.4110    0.9810 C   0  0  0  0  0  0  0  0  0  0  0  0
   -5.6540    4.2820    1.8830 O   0  0  0  0  0  0  0  0  0  0  0  0
   -6.8000    2.5000    0.7020 N   0  0  0  0  0  0  0  0  0  0  0  0
   -8.1020    2.7360    1.1820 C   0  0  1  0  0  0  0  0  0  0  0  0
   -8.9980    2.9990   -0.0340 C   0  0  0  0  0  0  0  0  0  0  0  0
   -8.7700    1.7410    2.0370 C   0  0  1  0  0  0  0  0  0  0  0  0
   -8.9960    0.3790    1.4720 C   0  0  0  0  0  0  0  0  0  0  0  0
   -8.1580    1.6830    3.4360 C   0  0  0  0  0  0  0  0  0  0  0  0
   -6.2640    1.4660   -0.0990 C   0  0  0  0  0  0  0  0  0  0  0  0
   -6.9490    0.5980   -0.6690 O   0  0  0  0  0  0  0  0  0  0  0  0
   -1.7270   -2.4540   -4.3580 C   0  0  0  0  0  0  0  0  0  0  0  0
   -2.3260   -1.2760   -5.2820 S   0  0  0  0  0  0  0  0  0  0  0  0
   -1.3550   -4.1680   -4.8960 S   0  0  0  0  0  0  0  0  0  0  0  0
  1  2  1  0
  2  3  2  0
  2 45  1  0
  3  4  1  0
  4  5  1  0
  4 43  1  0
  5  6  2  3
  5 27  1  0
  6  7  1  0
  7  8  2  0
  7  9  1  0
  9 10  1  0
 10 11  2  0
 10 26  1  0
 11 12  1  0
 12 13  2  0
 13 14  1  0
 13 25  1  0
 14 15  1  0
 15 16  1  0
 16 17  2  0
 16 23  1  0
 17 18  1  0
 18 19  1  0
 18 20  2  0
 20 21  1  0
 20 22  1  0
 22 23  2  0
 23 24  1  0
 25 26  2  0
 27 28  1  0
 28 29  2  0
 28 30  1  0
 31 30  1  6
 31 32  1  0
 31 41  1  0
 32 33  1  0
 33 34  2  0
 33 35  1  0
 35 36  1  0
 35 41  1  0
 36 37  1  6
 36 38  1  0
 38 39  1  6
 38 40  1  0
 41 42  2  0
 43 44  2  0
 43 45  1  0
M  END
