
     RDKit          3D

 46 49  0  0  0  0  0  0  0  0999 V2000
    2.9360   -3.6060   -1.1080 C   0  0  0  0  0  0  0  0  0  0  0  0
    3.1940   -2.1050   -1.2660 C   0  0  0  0  0  0  0  0  0  0  0  0
    4.1720   -1.7260   -0.1710 C   0  0  2  0  0  0  0  0  0  0  0  0
    3.5900   -2.0230    1.2050 C   0  0  0  0  0  0  0  0  0  0  0  0
    4.5200   -0.3850   -0.1880 O   0  0  0  0  0  0  0  0  0  0  0  0
    5.7820    0.0620   -0.4160 C   0  0  0  0  0  0  0  0  0  0  0  0
    6.8620   -0.7610   -0.6760 C   0  0  0  0  0  0  0  0  0  0  0  0
    8.1490   -0.2720   -0.9040 C   0  0  0  0  0  0  0  0  0  0  0  0
    8.3300    1.0830   -0.8640 C   0  0  0  0  0  0  0  0  0  0  0  0
    7.2470    1.9360   -0.6010 C   0  0  0  0  0  0  0  0  0  0  0  0
    5.9830    1.4550   -0.3770 C   0  0  0  0  0  0  0  0  0  0  0  0
    4.8640    2.2790   -0.1260 N   0  0  0  0  0  0  0  0  0  0  0  0
    4.8060    3.6650    0.0520 C   0  0  0  0  0  0  0  0  0  0  0  0
    5.9530    4.2450   -0.0220 O   0  0  0  0  0  0  0  0  0  0  0  0
    3.6990    4.5490    0.2980 C   0  0  0  0  0  0  0  0  0  0  0  0
    3.9650    5.9130    0.4890 C   0  0  0  0  0  0  0  0  0  0  0  0
    2.9460    6.7980    0.7570 C   0  0  0  0  0  0  0  0  0  0  0  0
    1.6330    6.3890    0.8480 C   0  0  0  0  0  0  0  0  0  0  0  0
    1.3470    5.0510    0.6610 C   0  0  0  0  0  0  0  0  0  0  0  0
    2.3800    4.1370    0.3870 C   0  0  0  0  0  0  0  0  0  0  0  0
    2.1240    2.8060    0.1950 O   0  0  0  0  0  0  0  0  0  0  0  0
    0.8830    2.2300    0.2910 C   0  0  2  0  0  0  0  0  0  0  0  0
    0.8530    0.8530    0.9180 C   0  0  0  0  0  0  0  0  0  0  0  0
   -0.5710    0.4670    1.1630 C   0  0  1  0  0  0  0  0  0  0  0  0
   -1.5030    0.6070    0.0010 C   0  0  0  0  0  0  0  0  0  0  0  0
   -1.0220    1.4140   -1.0870 N   0  0  0  0  0  0  0  0  0  0  0  0
   -1.8460    1.6770   -2.2330 C   0  0  0  0  0  0  0  0  0  0  0  0
   -2.6120    0.5420   -2.7990 C   0  0  1  0  0  0  0  0  0  0  0  0
   -2.1070   -0.7150   -2.6000 O   0  0  0  0  0  0  0  0  0  0  0  0
   -4.0920    0.6760   -2.4610 C   0  0  0  0  0  0  0  0  0  0  0  0
   -4.5510   -0.2430   -1.3790 C   0  0  0  0  0  0  0  0  0  0  0  0
   -5.9370   -0.8370   -1.6790 C   0  0  0  0  0  0  0  0  0  0  0  0
   -5.8920   -2.2930   -1.3280 C   0  0  0  0  0  0  0  0  0  0  0  0
   -6.9670   -2.6860   -0.3740 C   0  0  0  0  0  0  0  0  0  0  0  0
   -6.9340   -2.5600    0.9280 C   0  0  0  0  0  0  0  0  0  0  0  0
   -5.8110   -1.9940    1.7260 C   0  0  0  0  0  0  0  0  0  0  0  0
   -4.5940   -2.7590    1.6450 N   0  0  0  0  0  0  0  0  0  0  0  0
   -4.5750   -4.1850    1.7010 C   0  0  0  0  0  0  0  0  0  0  0  0
   -5.7170   -4.7480    1.8340 O   0  0  0  0  0  0  0  0  0  0  0  0
   -3.4600   -4.9710    1.6270 O   0  0  0  0  0  0  0  0  0  0  0  0
   -3.3340   -2.0780    1.5050 C   0  0  0  0  0  0  0  0  0  0  0  0
   -2.3970   -2.2550    2.6600 C   0  0  0  0  0  0  0  0  0  0  0  0
   -1.4420   -1.0650    2.8270 C   0  0  0  0  0  0  0  0  0  0  0  0
   -0.5920   -0.9080    1.6900 N   0  0  0  0  0  0  0  0  0  0  0  0
    0.2740    2.0030   -1.0800 C   0  0  0  0  0  0  0  0  0  0  0  0
    0.8230    2.2910   -2.1510 O   0  0  0  0  0  0  0  0  0  0  0  0
  1  2  1  0
  2  3  1  0
  3  4  1  1
  3  5  1  0
  5  6  1  0
  6  7  2  0
  6 11  1  0
  7  8  1  0
  8  9  2  0
  9 10  1  0
 10 11  2  0
 11 12  1  0
 12 13  1  0
 13 14  2  0
 13 15  1  0
 15 16  2  0
 15 20  1  0
 16 17  1  0
 17 18  2  0
 18 19  1  0
 19 20  2  0
 20 21  1  0
 22 21  1  6
 22 23  1  0
 22 45  1  0
 24 23  1  6
 24 25  1  0
 24 44  1  0
 25 26  1  0
 26 27  1  0
 26 45  1  0
 27 28  1  0
 28 29  1  1
 28 30  1  0
 30 31  1  0
 31 32  1  0
 32 33  1  0
 33 34  1  0
 34 35  2  0
 35 36  1  0
 36 37  1  0
 37 38  1  0
 37 41  1  0
 38 39  2  0
 38 40  1  0
 41 42  1  0
 42 43  1  0
 43 44  1  0
 45 46  2  0
M  CHG  1  44   1
M  END
