
     RDKit          3D

 46 52  0  0  0  0  0  0  0  0999 V2000
    6.6230   -0.9650    4.1760 C   0  0  0  0  0  0  0  0  0  0  0  0
    7.0270   -0.6340    2.8660 O   0  0  0  0  0  0  0  0  0  0  0  0
    6.2260   -0.0230    1.9420 C   0  0  0  0  0  0  0  0  0  0  0  0
    4.9280    0.3210    2.2370 C   0  0  0  0  0  0  0  0  0  0  0  0
    4.1260    0.9460    1.2760 C   0  0  0  0  0  0  0  0  0  0  0  0
    4.6180    1.2270    0.0200 C   0  0  0  0  0  0  0  0  0  0  0  0
    3.6340    1.9950   -1.1640 S   0  0  2  0  0  0  0  0  0  0  0  0
    4.4980    2.8340   -2.0780 O   0  0  0  0  0  0  0  0  0  0  0  0
    2.6640    2.9450   -0.5260 O   0  0  0  0  0  0  0  0  0  0  0  0
    2.7540    0.9010   -2.1490 N   0  0  0  0  0  0  0  0  0  0  0  0
    3.6340    0.0290   -2.9070 C   0  0  0  0  0  0  0  0  0  0  0  0
    3.9620    0.6630   -4.1930 C   0  0  0  0  0  0  0  0  0  0  0  0
    3.0240    1.4200   -4.8510 C   0  0  0  0  0  0  0  0  0  0  0  0
    3.3080    2.0380   -6.0720 C   0  0  0  0  0  0  0  0  0  0  0  0
    4.5450    1.9050   -6.6530 C   0  0  0  0  0  0  0  0  0  0  0  0
    5.4830    1.1380   -5.9770 C   0  0  0  0  0  0  0  0  0  0  0  0
    5.2090    0.5280   -4.7770 C   0  0  0  0  0  0  0  0  0  0  0  0
    1.7760    0.1420   -1.3930 C   0  0  0  0  0  0  0  0  0  0  0  0
    0.4560    0.8760   -1.3810 C   0  0  1  0  0  0  0  0  0  0  0  0
    0.0340    1.0130   -2.6800 O   0  0  0  0  0  0  0  0  0  0  0  0
   -0.5200    0.1390   -0.4800 C   0  0  2  0  0  0  0  0  0  0  0  0
   -0.6240   -1.2920   -0.7870 C   0  0  0  0  0  0  0  0  0  0  0  0
   -1.5280   -2.1610   -0.0080 C   0  0  2  0  0  0  0  0  0  0  0  0
   -1.3240   -3.5780   -0.6180 C   0  0  0  0  0  0  0  0  0  0  0  0
   -2.0480   -4.6160    0.1860 C   0  0  1  0  0  0  0  0  0  0  0  0
   -1.5850   -4.6300    1.6170 C   0  0  0  0  0  0  0  0  0  0  0  0
   -1.8490   -3.2700    2.2270 C   0  0  2  0  0  0  0  0  0  0  0  0
   -3.2970   -2.8760    2.1580 C   0  0  0  0  0  0  0  0  0  0  0  0
   -3.7290   -2.9620    0.7170 C   0  0  2  0  0  0  0  0  0  0  0  0
   -3.5390   -4.3470    0.1980 C   0  0  0  0  0  0  0  0  0  0  0  0
   -2.9920   -1.9250   -0.1440 C   0  0  0  0  0  0  0  0  0  0  0  0
   -1.0400   -2.2740    1.4120 C   0  0  0  0  0  0  0  0  0  0  0  0
   -1.7840    0.7810   -0.3860 N   0  0  0  0  0  0  0  0  0  0  0  0
   -2.2200    1.5240    0.7530 C   0  0  0  0  0  0  0  0  0  0  0  0
   -1.4110    1.5900    1.7040 O   0  0  0  0  0  0  0  0  0  0  0  0
   -3.4240    2.1540    0.8840 O   0  0  0  0  0  0  0  0  0  0  0  0
   -3.8450    2.8810    2.0090 C   0  0  1  0  0  0  0  0  0  0  0  0
   -4.2540    4.2860    1.7230 C   0  0  0  0  0  0  0  0  0  0  0  0
   -5.1050    4.6580    2.7430 O   0  0  0  0  0  0  0  0  0  0  0  0
   -5.6370    3.5490    3.3280 C   0  0  1  0  0  0  0  0  0  0  0  0
   -7.0180    3.4590    3.2640 O   0  0  0  0  0  0  0  0  0  0  0  0
   -7.3410    2.8650    2.0590 C   0  0  0  0  0  0  0  0  0  0  0  0
   -6.1750    2.0600    1.6060 C   0  0  0  0  0  0  0  0  0  0  0  0
   -5.1110    2.3230    2.6180 C   0  0  1  0  0  0  0  0  0  0  0  0
    5.9170    0.8730   -0.2490 C   0  0  0  0  0  0  0  0  0  0  0  0
    6.7250    0.2540    0.6920 C   0  0  0  0  0  0  0  0  0  0  0  0
  1  2  1  0
  2  3  1  0
  3  4  2  0
  3 46  1  0
  4  5  1  0
  5  6  2  0
  6  7  1  0
  6 45  1  0
  7  8  2  0
  7  9  2  0
  7 10  1  6
 10 11  1  0
 10 18  1  0
 11 12  1  0
 12 13  2  0
 12 17  1  0
 13 14  1  0
 14 15  2  0
 15 16  1  0
 16 17  2  0
 18 19  1  0
 19 20  1  6
 19 21  1  0
 21 22  1  6
 21 33  1  0
 23 22  1  6
 23 24  1  0
 23 31  1  0
 23 32  1  0
 25 24  1  6
 25 26  1  0
 25 30  1  0
 26 27  1  0
 27 28  1  6
 27 32  1  0
 29 28  1  1
 29 30  1  0
 29 31  1  0
 33 34  1  0
 34 35  2  0
 34 36  1  0
 37 36  1  6
 37 38  1  0
 37 44  1  0
 38 39  1  0
 40 39  1  6
 40 41  1  0
 40 44  1  0
 41 42  1  0
 42 43  1  0
 44 43  1  6
 45 46  2  0
M  END
