
     RDKit          3D

 44 48  0  0  0  0  0  0  0  0999 V2000
   -4.3230   -1.8940    2.5450 C   0  0  0  0  0  0  0  0  0  0  0  0
   -3.2730   -1.9790    1.4440 C   0  0  1  0  0  0  0  0  0  0  0  0
   -3.9400   -1.8200    0.0860 C   0  0  0  0  0  0  0  0  0  0  0  0
   -4.5750   -0.5250   -0.0760 N   0  0  0  0  0  0  0  0  0  0  0  0
   -3.8360    0.5630   -0.6100 C   0  0  0  0  0  0  0  0  0  0  0  0
   -2.6380    0.3700   -0.9190 O   0  0  0  0  0  0  0  0  0  0  0  0
   -4.4180    1.9160   -0.8190 C   0  0  2  0  0  0  0  0  0  0  0  0
   -5.5970    1.8810   -1.7470 C   0  0  0  0  0  0  0  0  0  0  0  0
   -5.4690    3.1510   -2.5550 C   0  0  0  0  0  0  0  0  0  0  0  0
   -3.9660    3.1760   -2.8040 C   0  0  0  0  0  0  0  0  0  0  0  0
   -3.3700    2.7890   -1.4660 C   0  0  0  0  0  0  0  0  0  0  0  0
   -5.9360   -0.3450    0.2890 C   0  0  0  0  0  0  0  0  0  0  0  0
   -6.3900    0.4360    1.3160 C   0  0  0  0  0  0  0  0  0  0  0  0
   -7.7290    0.5730    1.6260 C   0  0  0  0  0  0  0  0  0  0  0  0
   -8.7040   -0.1030    0.8800 C   0  0  0  0  0  0  0  0  0  0  0  0
  -10.0260    0.0490    1.2080 C   0  0  0  0  0  0  0  0  0  0  0  0
  -10.2630    0.8230    2.2040 O   0  0  0  0  0  0  0  0  0  0  0  0
  -11.0740   -0.5160    0.6100 N   0  0  0  0  0  0  0  0  0  0  0  0
  -11.0320   -1.3510   -0.4410 C   0  0  0  0  0  0  0  0  0  0  0  0
  -12.1110   -1.8300   -0.9280 O   0  0  0  0  0  0  0  0  0  0  0  0
   -9.4720   -1.6860   -1.0240 S   0  0  0  0  0  0  0  0  0  0  0  0
   -8.2370   -0.8880   -0.1530 C   0  0  0  0  0  0  0  0  0  0  0  0
   -6.8890   -1.0120   -0.4490 C   0  0  0  0  0  0  0  0  0  0  0  0
   -2.2880   -1.0350    1.6660 O   0  0  0  0  0  0  0  0  0  0  0  0
   -0.9340   -1.2010    1.7800 C   0  0  0  0  0  0  0  0  0  0  0  0
   -0.1320   -0.1050    2.0150 C   0  0  0  0  0  0  0  0  0  0  0  0
    1.2600   -0.2100    2.1410 C   0  0  0  0  0  0  0  0  0  0  0  0
    1.8900   -1.4250    2.0310 C   0  0  0  0  0  0  0  0  0  0  0  0
    3.1980   -1.6470    2.1260 O   0  0  0  0  0  0  0  0  0  0  0  0
    4.3970   -1.0740    2.2980 C   0  0  0  0  0  0  0  0  0  0  0  0
    4.8790   -0.1270    1.2400 C   0  0  1  0  0  0  0  0  0  0  0  0
    4.0480    0.9470    1.1080 O   0  0  0  0  0  0  0  0  0  0  0  0
    6.2450    0.3790    1.6710 C   0  0  0  0  0  0  0  0  0  0  0  0
    6.8170    1.2630    0.7940 O   0  0  0  0  0  0  0  0  0  0  0  0
    7.0330    0.8090   -0.4770 C   0  0  0  0  0  0  0  0  0  0  0  0
    7.9280   -0.3720   -0.6160 C   0  0  1  0  0  0  0  0  0  0  0  0
    7.8230   -0.8610   -2.0470 C   0  0  0  0  0  0  0  0  0  0  0  0
    8.6970   -0.0470   -2.9770 C   0  0  0  0  0  0  0  0  0  0  0  0
   10.1320   -0.4640   -2.6850 C   0  0  0  0  0  0  0  0  0  0  0  0
   10.7320    0.6250   -1.8230 C   0  0  0  0  0  0  0  0  0  0  0  0
    9.9040    0.8670   -0.5790 C   0  0  0  0  0  0  0  0  0  0  0  0
    9.2000   -0.2230   -0.1580 O   0  0  0  0  0  0  0  0  0  0  0  0
    1.0470   -2.5350    1.7910 C   0  0  0  0  0  0  0  0  0  0  0  0
   -0.3160   -2.4230    1.6710 C   0  0  0  0  0  0  0  0  0  0  0  0
  2  1  1  1
  2  3  1  0
  2 24  1  0
  3  4  1  0
  4  5  1  0
  4 12  1  0
  5  6  2  0
  7  5  1  6
  7  8  1  0
  7 11  1  0
  8  9  1  0
  9 10  1  0
 10 11  1  0
 12 13  2  0
 12 23  1  0
 13 14  1  0
 14 15  2  0
 15 16  1  0
 15 22  1  0
 16 17  2  0
 16 18  1  0
 18 19  1  0
 19 20  2  0
 19 21  1  0
 21 22  1  0
 22 23  2  0
 24 25  1  0
 25 26  2  0
 25 44  1  0
 26 27  1  0
 27 28  2  0
 28 29  1  0
 28 43  1  0
 29 30  1  0
 30 31  1  0
 31 32  1  1
 31 33  1  0
 33 34  1  0
 34 35  1  0
 36 35  1  6
 36 37  1  0
 36 42  1  0
 37 38  1  0
 38 39  1  0
 39 40  1  0
 40 41  1  0
 41 42  1  0
 43 44  2  0
M  END
