
     RDKit          3D

 44 49  0  0  0  0  0  0  0  0999 V2000
   -6.2380    3.8980   -0.2190 C   0  0  0  0  0  0  0  0  0  0  0  0
   -6.0050    3.0480    0.9820 C   0  0  0  0  0  0  0  0  0  0  0  0
   -5.0460    2.0550    0.8210 O   0  0  0  0  0  0  0  0  0  0  0  0
   -5.0670    1.0180   -0.0900 C   0  0  0  0  0  0  0  0  0  0  0  0
   -6.1280    0.8970   -0.9650 C   0  0  0  0  0  0  0  0  0  0  0  0
   -6.1760   -0.1240   -1.8830 C   0  0  0  0  0  0  0  0  0  0  0  0
   -5.1220   -1.0110   -1.8850 C   0  0  0  0  0  0  0  0  0  0  0  0
   -4.0570   -0.8990   -1.0150 C   0  0  0  0  0  0  0  0  0  0  0  0
   -4.0020    0.1180   -0.0950 C   0  0  0  0  0  0  0  0  0  0  0  0
   -2.8950    0.3020    0.8670 C   0  0  2  0  0  0  0  0  0  0  0  0
   -1.5500    0.1470    0.2250 C   0  0  0  0  0  0  0  0  0  0  0  0
   -1.1090    0.9240   -0.9300 C   0  0  0  0  0  0  0  0  0  0  0  0
    0.2070    0.8160   -1.5220 C   0  0  0  0  0  0  0  0  0  0  0  0
   -1.9350    1.7480   -1.4450 O   0  0  0  0  0  0  0  0  0  0  0  0
   -0.8880   -0.7530    0.9010 C   0  0  0  0  0  0  0  0  0  0  0  0
    0.4970   -1.2950    0.6940 C   0  0  0  0  0  0  0  0  0  0  0  0
    1.4100   -0.8270    1.7930 C   0  0  0  0  0  0  0  0  0  0  0  0
    2.7710   -1.3320    1.6210 N   0  0  0  0  0  0  0  0  0  0  0  0
    3.2020   -2.5640    2.1800 C   0  0  0  0  0  0  0  0  0  0  0  0
    2.7150   -3.2040    3.1630 O   0  0  0  0  0  0  0  0  0  0  0  0
    4.6170   -3.0330    1.1720 S   0  0  0  0  0  0  0  0  0  0  0  0
    4.6450   -1.5440    0.1140 C   0  0  2  0  0  0  0  0  0  0  0  0
    4.1160   -1.8260   -1.2550 C   0  0  0  0  0  0  0  0  0  0  0  0
    6.0310   -0.9920    0.0360 C   0  0  0  0  0  0  0  0  0  0  0  0
    6.9310   -1.5850    0.6660 O   0  0  0  0  0  0  0  0  0  0  0  0
    6.3490    0.1530   -0.7100 N   0  0  0  0  0  0  0  0  0  0  0  0
    7.5890    0.7850   -0.8690 C   0  0  0  0  0  0  0  0  0  0  0  0
    8.6780    0.4790   -0.1160 C   0  0  0  0  0  0  0  0  0  0  0  0
    9.9170    1.1220   -0.3100 C   0  0  0  0  0  0  0  0  0  0  0  0
   10.0570    2.0810   -1.2740 C   0  0  0  0  0  0  0  0  0  0  0  0
    8.9590    2.3920   -2.0360 C   0  0  0  0  0  0  0  0  0  0  0  0
    7.7520    1.7620   -1.8430 C   0  0  0  0  0  0  0  0  0  0  0  0
    3.7600   -0.6530    0.9060 C   0  0  0  0  0  0  0  0  0  0  0  0
    3.9530    0.6140    0.8820 O   0  0  0  0  0  0  0  0  0  0  0  0
   -1.7500   -1.2430    2.0100 C   0  0  0  0  0  0  0  0  0  0  0  0
   -2.9010   -0.6300    1.9810 C   0  0  0  0  0  0  0  0  0  0  0  0
   -3.7220   -1.1560    3.1000 C   0  0  0  0  0  0  0  0  0  0  0  0
   -5.1070   -0.6790    3.3740 C   0  0  0  0  0  0  0  0  0  0  0  0
   -3.0420   -2.0580    3.7550 C   0  0  0  0  0  0  0  0  0  0  0  0
   -1.7340   -2.1980    3.1290 C   0  0  0  0  0  0  0  0  0  0  0  0
   -0.8280   -2.9830    3.5070 O   0  0  0  0  0  0  0  0  0  0  0  0
   -5.4280   -1.9340   -2.9050 O   0  0  0  0  0  0  0  0  0  0  0  0
   -6.8080   -1.8680   -3.2290 C   0  0  0  0  0  0  0  0  0  0  0  0
   -7.0930   -0.5070   -2.8790 O   0  0  0  0  0  0  0  0  0  0  0  0
  1  2  1  0
  2  3  1  0
  3  4  1  0
  4  5  2  0
  4  9  1  0
  5  6  1  0
  6  7  2  0
  6 44  1  0
  7  8  1  0
  7 42  1  0
  8  9  2  0
 10  9  1  6
 10 11  1  0
 10 36  1  0
 11 12  1  0
 11 15  2  0
 12 13  1  0
 12 14  2  0
 15 16  1  0
 15 35  1  0
 16 17  1  0
 17 18  1  0
 18 19  1  0
 18 33  1  0
 19 20  2  0
 19 21  1  0
 21 22  1  0
 22 23  1  6
 22 24  1  0
 22 33  1  0
 24 25  2  0
 24 26  1  0
 26 27  1  0
 27 28  2  0
 27 32  1  0
 28 29  1  0
 29 30  2  0
 30 31  1  0
 31 32  2  0
 33 34  2  0
 35 36  2  0
 35 40  1  0
 36 37  1  0
 37 38  1  0
 37 39  2  0
 39 40  1  0
 40 41  2  0
 42 43  1  0
 43 44  1  0
M  END
