
     RDKit          3D

 44 49  0  0  0  0  0  0  0  0999 V2000
    9.6650    0.1760   -2.6830 C   0  0  0  0  0  0  0  0  0  0  0  0
    9.1950    1.0800   -1.7040 O   0  0  0  0  0  0  0  0  0  0  0  0
    7.8370    1.0310   -1.3830 C   0  0  0  0  0  0  0  0  0  0  0  0
    6.9690    0.1420   -1.9890 C   0  0  0  0  0  0  0  0  0  0  0  0
    5.6150    0.0890   -1.6720 C   0  0  0  0  0  0  0  0  0  0  0  0
    5.0930    0.9290   -0.7340 C   0  0  0  0  0  0  0  0  0  0  0  0
    3.4020    0.9490   -0.2650 S   0  0  1  0  0  0  0  0  0  0  0  0
    3.0800    2.3760    0.1750 O   0  0  0  0  0  0  0  0  0  0  0  0
    2.5970    0.7130   -1.5030 O   0  0  0  0  0  0  0  0  0  0  0  0
    2.9990   -0.1720    0.9090 N   0  0  0  0  0  0  0  0  0  0  0  0
    3.5970   -0.0870    2.1630 C   0  0  0  0  0  0  0  0  0  0  0  0
    4.9120   -0.6980    2.4240 C   0  0  1  0  0  0  0  0  0  0  0  0
    5.3410   -0.4590    3.8850 C   0  0  0  0  0  0  0  0  0  0  0  0
    4.9730   -2.1970    2.2500 C   0  0  0  0  0  0  0  0  0  0  0  0
    2.1220   -1.2200    0.6040 C   0  0  0  0  0  0  0  0  0  0  0  0
    0.7360   -1.2440    1.0660 C   0  0  1  0  0  0  0  0  0  0  0  0
    0.5960   -1.2230    2.4550 O   0  0  0  0  0  0  0  0  0  0  0  0
   -0.3120   -0.4260    0.3690 C   0  0  2  0  0  0  0  0  0  0  0  0
   -0.3510    0.9880    0.7780 C   0  0  0  0  0  0  0  0  0  0  0  0
   -1.3820    1.8610    0.1270 C   0  0  2  0  0  0  0  0  0  0  0  0
   -1.1600    1.8360   -1.3560 C   0  0  0  0  0  0  0  0  0  0  0  0
   -2.0220    2.8380   -2.0480 C   0  0  1  0  0  0  0  0  0  0  0  0
   -3.4660    2.5700   -1.6620 C   0  0  0  0  0  0  0  0  0  0  0  0
   -3.6550    2.6940   -0.1650 C   0  0  2  0  0  0  0  0  0  0  0  0
   -3.2680    4.1020    0.2240 C   0  0  0  0  0  0  0  0  0  0  0  0
   -1.8130    4.3210   -0.1370 C   0  0  2  0  0  0  0  0  0  0  0  0
   -1.6520    4.2420   -1.6200 C   0  0  0  0  0  0  0  0  0  0  0  0
   -0.9840    3.3020    0.5600 C   0  0  0  0  0  0  0  0  0  0  0  0
   -2.7770    1.6820    0.5860 C   0  0  0  0  0  0  0  0  0  0  0  0
   -1.5990   -1.0560    0.7200 N   0  0  0  0  0  0  0  0  0  0  0  0
   -2.3450   -1.8170   -0.2500 C   0  0  0  0  0  0  0  0  0  0  0  0
   -1.8410   -1.9100   -1.3920 O   0  0  0  0  0  0  0  0  0  0  0  0
   -3.5370   -2.4220    0.0050 O   0  0  0  0  0  0  0  0  0  0  0  0
   -4.2940   -3.1670   -0.9170 C   0  0  1  0  0  0  0  0  0  0  0  0
   -4.6620   -4.5270   -0.4350 C   0  0  0  0  0  0  0  0  0  0  0  0
   -5.9620   -4.7940   -0.7880 O   0  0  0  0  0  0  0  0  0  0  0  0
   -6.4180   -3.7740   -1.6070 C   0  0  1  0  0  0  0  0  0  0  0  0
   -7.7730   -3.6490   -1.6830 O   0  0  0  0  0  0  0  0  0  0  0  0
   -8.3290   -2.6470   -0.9330 C   0  0  0  0  0  0  0  0  0  0  0  0
   -7.6730   -2.4900    0.4230 C   0  0  0  0  0  0  0  0  0  0  0  0
   -6.1990   -2.2120    0.2910 C   0  0  0  0  0  0  0  0  0  0  0  0
   -5.6930   -2.5450   -1.0980 C   0  0  1  0  0  0  0  0  0  0  0  0
    5.9550    1.8200   -0.1240 C   0  0  0  0  0  0  0  0  0  0  0  0
    7.2970    1.8840   -0.4280 C   0  0  0  0  0  0  0  0  0  0  0  0
  1  2  1  0
  2  3  1  0
  3  4  2  0
  3 44  1  0
  4  5  1  0
  5  6  2  0
  6  7  1  0
  6 43  1  0
  7  8  2  0
  7  9  2  0
  7 10  1  1
 10 11  1  0
 10 15  1  0
 11 12  1  0
 12 13  1  1
 12 14  1  0
 15 16  1  0
 16 17  1  1
 16 18  1  0
 18 19  1  1
 18 30  1  0
 20 19  1  1
 20 21  1  0
 20 28  1  0
 20 29  1  0
 22 21  1  1
 22 23  1  0
 22 27  1  0
 23 24  1  0
 24 25  1  1
 24 29  1  0
 26 25  1  6
 26 27  1  0
 26 28  1  0
 30 31  1  0
 31 32  2  0
 31 33  1  0
 34 33  1  1
 34 35  1  0
 34 42  1  0
 35 36  1  0
 37 36  1  1
 37 38  1  0
 37 42  1  0
 38 39  1  0
 39 40  1  0
 40 41  1  0
 42 41  1  1
 43 44  2  0
M  END
