
     RDKit          3D

 34 37  0  0  0  0  0  0  0  0999 V2000
   -5.6860   -3.3160   -1.3720 C   0  0  0  0  0  0  0  0  0  0  0  0
   -5.3250   -3.7540   -0.1270 O   0  0  0  0  0  0  0  0  0  0  0  0
   -4.0830   -4.3420   -0.0570 C   0  0  0  0  0  0  0  0  0  0  0  0
   -2.9910   -3.3940   -0.4680 C   0  0  0  0  0  0  0  0  0  0  0  0
   -3.0270   -2.1820    0.4480 C   0  0  0  0  0  0  0  0  0  0  0  0
   -1.9910   -1.2210    0.1220 N   0  0  0  0  0  0  0  0  0  0  0  0
   -0.6260   -1.6090    0.3840 C   0  0  0  0  0  0  0  0  0  0  0  0
    0.3590   -0.5630    0.0200 C   0  0  0  0  0  0  0  0  0  0  0  0
    1.7800   -0.8050    0.2310 C   0  0  0  0  0  0  0  0  0  0  0  0
    2.3390   -1.9410    0.7570 C   0  0  0  0  0  0  0  0  0  0  0  0
    3.6790   -1.7340    0.7690 N   0  0  0  0  0  0  0  0  0  0  0  0
    3.9900   -0.5650    0.2930 N   0  0  0  0  0  0  0  0  0  0  0  0
    5.2740    0.0380    0.1290 C   0  0  0  0  0  0  0  0  0  0  0  0
    6.3460   -0.6200   -0.4350 C   0  0  0  0  0  0  0  0  0  0  0  0
    7.5640   -0.0220   -0.5930 C   0  0  0  0  0  0  0  0  0  0  0  0
    7.7800    1.2790   -0.1920 C   0  0  0  0  0  0  0  0  0  0  0  0
    9.0490    1.8770   -0.3750 N   0  0  0  0  0  0  0  0  0  0  0  0
   10.1190    1.1370   -0.9910 C   0  0  2  0  0  0  0  0  0  0  0  0
   11.2800    1.9090   -1.0810 F   0  0  0  0  0  0  0  0  0  0  0  0
    9.7200    0.7320   -2.2530 F   0  0  0  0  0  0  0  0  0  0  0  0
    6.7160    1.9500    0.3750 C   0  0  0  0  0  0  0  0  0  0  0  0
    5.4880    1.3430    0.5330 C   0  0  0  0  0  0  0  0  0  0  0  0
    2.8390    0.0460   -0.0540 C   0  0  0  0  0  0  0  0  0  0  0  0
   -0.0180    0.5600   -0.4810 N   0  0  0  0  0  0  0  0  0  0  0  0
   -1.3640    0.8880   -0.7200 C   0  0  0  0  0  0  0  0  0  0  0  0
   -2.3300    0.0360   -0.4330 C   0  0  0  0  0  0  0  0  0  0  0  0
   -3.7100    0.3840   -0.6860 N   0  0  0  0  0  0  0  0  0  0  0  0
   -4.2430    1.5280   -0.0780 C   0  0  0  0  0  0  0  0  0  0  0  0
   -5.5610    1.8840   -0.3830 C   0  0  0  0  0  0  0  0  0  0  0  0
   -6.1010    3.0010    0.2010 C   0  0  0  0  0  0  0  0  0  0  0  0
   -5.4020    3.7890    1.0760 C   0  0  0  0  0  0  0  0  0  0  0  0
   -5.9960    4.9980    1.7060 C   0  0  0  0  0  0  0  0  0  0  0  0
   -4.1250    3.4340    1.3650 N   0  0  0  0  0  0  0  0  0  0  0  0
   -3.5680    2.3340    0.7990 C   0  0  0  0  0  0  0  0  0  0  0  0
  1  2  1  0
  2  3  1  0
  3  4  1  0
  4  5  1  0
  5  6  1  0
  6  7  1  0
  6 26  1  0
  7  8  1  0
  8  9  1  0
  8 24  2  0
  9 10  1  0
  9 23  2  0
 10 11  2  0
 11 12  1  0
 12 13  1  0
 12 23  1  0
 13 14  2  0
 13 22  1  0
 14 15  1  0
 15 16  2  0
 16 17  1  0
 16 21  1  0
 17 18  1  0
 18 19  1  6
 18 20  1  0
 21 22  2  0
 24 25  1  0
 25 26  2  0
 26 27  1  0
 27 28  1  0
 28 29  2  0
 28 34  1  0
 29 30  1  0
 30 31  2  0
 31 32  1  0
 31 33  1  0
 33 34  2  0
M  END
