
     RDKit          3D

 34 37  0  0  0  0  0  0  0  0999 V2000
    0.6690    3.5390   -0.5300 C   0  0  0  0  0  0  0  0  0  0  0  0
   -0.1270    2.2860   -0.4640 C   0  0  0  0  0  0  0  0  0  0  0  0
   -1.1370    1.9430   -1.1930 N   0  0  0  0  0  0  0  0  0  0  0  0
   -1.6220    0.7290   -0.8580 N   0  0  0  0  0  0  0  0  0  0  0  0
   -2.7330    0.1840   -1.5720 C   0  0  0  0  0  0  0  0  0  0  0  0
   -4.0110    0.5600   -0.9250 C   0  0  2  0  0  0  0  0  0  0  0  0
   -4.1700    0.1540    0.3800 O   0  0  0  0  0  0  0  0  0  0  0  0
   -5.2220   -0.0240   -1.6820 C   0  0  0  0  0  0  0  0  0  0  0  0
   -6.3810    0.5250   -1.0680 N   0  0  0  0  0  0  0  0  0  0  0  0
   -6.5600    1.9280   -1.2650 C   0  0  0  0  0  0  0  0  0  0  0  0
   -7.5800   -0.2460   -1.2570 C   0  0  2  0  0  0  0  0  0  0  0  0
   -8.6380    0.3710   -0.6220 F   0  0  0  0  0  0  0  0  0  0  0  0
   -7.3850   -1.4590   -0.6140 F   0  0  0  0  0  0  0  0  0  0  0  0
   -0.8680    0.2760    0.1520 C   0  0  0  0  0  0  0  0  0  0  0  0
   -1.0060   -0.9650    0.8950 C   0  0  0  0  0  0  0  0  0  0  0  0
   -1.8810   -1.9560    0.5560 C   0  0  0  0  0  0  0  0  0  0  0  0
   -2.0170   -3.1510    1.3030 C   0  0  0  0  0  0  0  0  0  0  0  0
   -1.2330   -3.3170    2.4130 C   0  0  0  0  0  0  0  0  0  0  0  0
   -0.3800   -2.3540    2.7470 N   0  0  0  0  0  0  0  0  0  0  0  0
   -0.2590   -1.2030    2.0170 C   0  0  0  0  0  0  0  0  0  0  0  0
    0.0960    1.2290    0.4370 C   0  0  0  0  0  0  0  0  0  0  0  0
    1.1540    1.2660    1.3700 N   0  0  0  0  0  0  0  0  0  0  0  0
    2.4630    0.7760    1.0540 C   0  0  0  0  0  0  0  0  0  0  0  0
    2.7530    0.2400   -0.1830 C   0  0  0  0  0  0  0  0  0  0  0  0
    4.0270   -0.2280   -0.4640 C   0  0  0  0  0  0  0  0  0  0  0  0
    5.0310   -0.1690    0.4800 C   0  0  0  0  0  0  0  0  0  0  0  0
    6.3950   -0.6470    0.2480 C   0  0  0  0  0  0  0  0  0  0  0  0
    7.2960   -0.5210    1.3070 C   0  0  0  0  0  0  0  0  0  0  0  0
    8.5990   -0.9330    1.2150 C   0  0  0  0  0  0  0  0  0  0  0  0
    9.0050   -1.4880    0.0170 C   0  0  0  0  0  0  0  0  0  0  0  0
    8.1410   -1.6260   -1.0460 C   0  0  0  0  0  0  0  0  0  0  0  0
    6.8170   -1.1960   -0.9210 C   0  0  0  0  0  0  0  0  0  0  0  0
    4.6750    0.3670    1.6670 N   0  0  0  0  0  0  0  0  0  0  0  0
    3.4650    0.8160    1.9470 N   0  0  0  0  0  0  0  0  0  0  0  0
  1  2  1  0
  2  3  2  0
  2 21  1  0
  3  4  1  0
  4  5  1  0
  4 14  1  0
  5  6  1  0
  6  7  1  1
  6  8  1  0
  8  9  1  0
  9 10  1  0
  9 11  1  0
 11 12  1  1
 11 13  1  0
 14 15  1  0
 14 21  2  0
 15 16  2  0
 15 20  1  0
 16 17  1  0
 17 18  2  0
 18 19  1  0
 19 20  2  0
 21 22  1  0
 22 23  1  0
 23 24  2  0
 23 34  1  0
 24 25  1  0
 25 26  2  0
 26 27  1  0
 26 33  1  0
 27 28  2  0
 27 32  1  0
 28 29  1  0
 29 30  2  0
 30 31  1  0
 31 32  2  0
 33 34  2  0
M  END
