
     RDKit          3D

 34 37  0  0  0  0  0  0  0  0999 V2000
    5.2350    3.1320   -2.0680 C   0  0  0  0  0  0  0  0  0  0  0  0
    4.9520    1.8600   -1.8930 C   0  0  0  0  0  0  0  0  0  0  0  0
    3.9340    1.4940   -1.0050 N   0  0  0  0  0  0  0  0  0  0  0  0
    3.5270    0.1690   -0.7230 C   0  0  0  0  0  0  0  0  0  0  0  0
    4.0870   -0.7780   -1.2850 O   0  0  0  0  0  0  0  0  0  0  0  0
    2.4770   -0.1230    0.2020 N   0  0  0  0  0  0  0  0  0  0  0  0
    2.0790   -1.4830    0.4750 C   0  0  0  0  0  0  0  0  0  0  0  0
    0.9610   -1.4920    1.4780 C   0  0  2  0  0  0  0  0  0  0  0  0
    0.5090   -2.8920    1.7960 C   0  0  0  0  0  0  0  0  0  0  0  0
    1.5440   -3.7040    2.3410 N   0  0  0  0  0  0  0  0  0  0  0  0
    1.8300   -3.8290    3.6490 C   0  0  0  0  0  0  0  0  0  0  0  0
    2.8920   -4.6990    3.7760 C   0  0  0  0  0  0  0  0  0  0  0  0
    3.1930   -5.0570    2.5200 N   0  0  0  0  0  0  0  0  0  0  0  0
    2.3810   -4.4580    1.6570 N   0  0  0  0  0  0  0  0  0  0  0  0
   -0.2200   -0.7520    0.9510 C   0  0  0  0  0  0  0  0  0  0  0  0
   -0.9770   -1.0440   -0.1590 C   0  0  0  0  0  0  0  0  0  0  0  0
   -1.9950   -0.0990   -0.3040 C   0  0  0  0  0  0  0  0  0  0  0  0
   -2.9600   -0.1350   -1.3810 C   0  0  0  0  0  0  0  0  0  0  0  0
   -3.9710    0.7680   -1.5590 C   0  0  0  0  0  0  0  0  0  0  0  0
   -4.8650    0.6560   -2.6360 C   0  0  0  0  0  0  0  0  0  0  0  0
   -4.7690   -0.3590   -3.5560 C   0  0  0  0  0  0  0  0  0  0  0  0
   -3.7570   -1.2770   -3.3900 C   0  0  0  0  0  0  0  0  0  0  0  0
   -2.8990   -1.1560   -2.3440 C   0  0  0  0  0  0  0  0  0  0  0  0
   -1.8380    0.7360    0.7060 N   0  0  0  0  0  0  0  0  0  0  0  0
   -2.6160    1.8900    1.0320 C   0  0  0  0  0  0  0  0  0  0  0  0
   -2.3230    3.1600    0.5740 C   0  0  0  0  0  0  0  0  0  0  0  0
   -3.1270    4.2150    0.9770 C   0  0  0  0  0  0  0  0  0  0  0  0
   -4.2110    4.0430    1.8200 C   0  0  0  0  0  0  0  0  0  0  0  0
   -4.5050    2.7700    2.2790 C   0  0  0  0  0  0  0  0  0  0  0  0
   -3.7120    1.7150    1.8850 C   0  0  0  0  0  0  0  0  0  0  0  0
   -0.7760    0.3520    1.4640 N   0  0  0  0  0  0  0  0  0  0  0  0
    5.7300    0.8490   -2.6400 C   0  0  1  0  0  0  0  0  0  0  0  0
    6.4650    0.0040   -1.8310 F   0  0  0  0  0  0  0  0  0  0  0  0
    4.9360    0.1410   -3.5480 F   0  0  0  0  0  0  0  0  0  0  0  0
  1  2  2  0
  2  3  1  0
  2 32  1  0
  3  4  1  0
  4  5  2  0
  4  6  1  0
  6  7  1  0
  8  7  1  6
  8  9  1  0
  8 15  1  0
  9 10  1  0
 10 11  1  0
 10 14  1  0
 11 12  2  0
 12 13  1  0
 13 14  2  0
 15 16  1  0
 15 31  2  0
 16 17  2  0
 17 18  1  0
 17 24  1  0
 18 19  2  0
 18 23  1  0
 19 20  1  0
 20 21  2  0
 21 22  1  0
 22 23  2  0
 24 25  1  0
 24 31  1  0
 25 26  2  0
 25 30  1  0
 26 27  1  0
 27 28  2  0
 28 29  1  0
 29 30  2  0
 32 33  1  1
 32 34  1  0
M  END
