
     RDKit          3D

 35 37  0  0  0  0  0  0  0  0999 V2000
    7.6250   -2.5330    2.3440 C   0  0  0  0  0  0  0  0  0  0  0  0
    6.5480   -1.5070    2.1030 C   0  0  0  0  0  0  0  0  0  0  0  0
    6.8590   -0.7020    0.8510 C   0  0  0  0  0  0  0  0  0  0  0  0
    5.5910    0.5370    0.5290 S   0  0  0  0  0  0  0  0  0  0  0  0
    4.0500   -0.2520    0.1130 C   0  0  0  0  0  0  0  0  0  0  0  0
    2.9100    0.4480   -0.1780 C   0  0  0  0  0  0  0  0  0  0  0  0
    1.7070   -0.1780   -0.5070 C   0  0  0  0  0  0  0  0  0  0  0  0
    0.5820    0.7030   -0.7850 C   0  0  0  0  0  0  0  0  0  0  0  0
    0.5830    1.9530   -0.7410 N   0  0  0  0  0  0  0  0  0  0  0  0
   -0.4400    2.9230   -0.9870 C   0  0  0  0  0  0  0  0  0  0  0  0
    0.0490    4.0860   -1.4690 C   0  0  0  0  0  0  0  0  0  0  0  0
   -0.8400    5.1810   -1.7770 C   0  0  0  0  0  0  0  0  0  0  0  0
   -0.5380    6.3300   -2.2340 C   0  0  0  0  0  0  0  0  0  0  0  0
    0.7300    6.9660   -2.6060 C   0  0  0  0  0  0  0  0  0  0  0  0
    2.1910    6.0500   -2.4290 Cl  0  0  0  0  0  0  0  0  0  0  0  0
   -1.8950    2.6750   -0.7860 C   0  0  0  0  0  0  0  0  0  0  0  0
   -2.6780    2.3940    0.2010 C   0  0  0  0  0  0  0  0  0  0  0  0
   -4.1190    2.1350    0.3780 C   0  0  0  0  0  0  0  0  0  0  0  0
   -4.8760    2.8510    1.0710 O   0  0  0  0  0  0  0  0  0  0  0  0
   -4.7710    1.0300   -0.2260 O   0  0  0  0  0  0  0  0  0  0  0  0
   -4.1090    0.1090   -1.0970 C   0  0  0  0  0  0  0  0  0  0  0  0
   -3.6940   -1.0880   -0.3220 C   0  0  0  0  0  0  0  0  0  0  0  0
   -4.7030   -2.0610   -0.0610 C   0  0  0  0  0  0  0  0  0  0  0  0
   -4.4850   -3.1880    0.6700 C   0  0  0  0  0  0  0  0  0  0  0  0
   -5.5790   -4.1740    0.9110 C   0  0  0  0  0  0  0  0  0  0  0  0
   -3.2440   -3.4430    1.2020 C   0  0  0  0  0  0  0  0  0  0  0  0
   -2.9980   -4.6950    2.0160 C   0  0  0  0  0  0  0  0  0  0  0  0
   -2.2610   -2.5410    0.9740 C   0  0  0  0  0  0  0  0  0  0  0  0
   -2.4640   -1.3500    0.2090 C   0  0  0  0  0  0  0  0  0  0  0  0
   -1.3170   -0.4780    0.0470 C   0  0  0  0  0  0  0  0  0  0  0  0
   -0.8030   -0.1220    1.2070 O   0  0  0  0  0  0  0  0  0  0  0  0
   -0.7060    0.0120   -1.1830 C   0  0  0  0  0  0  0  0  0  0  0  0
    1.6720   -1.5280   -0.5380 C   0  0  0  0  0  0  0  0  0  0  0  0
    2.8330   -2.2180   -0.2420 C   0  0  0  0  0  0  0  0  0  0  0  0
    3.9830   -1.5900    0.0730 N   0  0  0  0  0  0  0  0  0  0  0  0
  1  2  1  0
  2  3  1  0
  3  4  1  0
  4  5  1  0
  5  6  2  0
  5 35  1  0
  6  7  1  0
  7  8  1  0
  7 33  2  0
  8  9  2  0
  8 32  1  0
  9 10  1  0
 10 11  2  3
 10 16  1  0
 11 12  1  0
 12 13  2  3
 13 14  1  0
 14 15  1  0
 16 17  2  0
 17 18  1  0
 18 19  2  0
 18 20  1  0
 20 21  1  0
 21 22  1  0
 22 23  2  0
 22 29  1  0
 23 24  1  0
 24 25  1  0
 24 26  2  0
 26 27  1  0
 26 28  1  0
 28 29  2  0
 29 30  1  0
 30 31  2  0
 30 32  1  0
 33 34  1  0
 34 35  2  0
M  END
