
     RDKit          3D

 34 37  0  0  0  0  0  0  0  0999 V2000
   -6.1510    4.8890    0.2220 C   0  0  0  0  0  0  0  0  0  0  0  0
   -5.4870    3.5360    0.0040 C   0  0  0  0  0  0  0  0  0  0  0  0
   -5.4810    2.8150    1.3240 C   0  0  1  0  0  0  0  0  0  0  0  0
   -6.9190    2.6570    1.7580 C   0  0  0  0  0  0  0  0  0  0  0  0
   -4.8490    1.5360    1.3030 N   0  0  0  0  0  0  0  0  0  0  0  0
   -3.4650    1.3140    1.0720 C   0  0  0  0  0  0  0  0  0  0  0  0
   -2.5590    2.3470    1.0250 C   0  0  0  0  0  0  0  0  0  0  0  0
   -1.2310    2.0930    0.7890 C   0  0  0  0  0  0  0  0  0  0  0  0
   -0.7390    0.8200    0.5900 C   0  0  0  0  0  0  0  0  0  0  0  0
    0.7020    0.6470    0.3490 C   0  0  0  0  0  0  0  0  0  0  0  0
    1.6490    1.5620    0.2860 N   0  0  0  0  0  0  0  0  0  0  0  0
    2.8120    0.9920    0.0540 N   0  0  0  0  0  0  0  0  0  0  0  0
    2.6570   -0.3160   -0.0410 C   0  0  0  0  0  0  0  0  0  0  0  0
    3.5380   -1.4350   -0.2730 C   0  0  0  0  0  0  0  0  0  0  0  0
    4.7900   -1.5770   -0.4460 C   0  0  0  0  0  0  0  0  0  0  0  0
    5.9090   -0.6810   -0.4880 C   0  0  0  0  0  0  0  0  0  0  0  0
    7.2380   -1.0840   -0.7160 C   0  0  0  0  0  0  0  0  0  0  0  0
    8.0170    0.0010   -0.6810 N   0  0  0  0  0  0  0  0  0  0  0  0
    9.4580   -0.0130   -0.8740 C   0  0  0  0  0  0  0  0  0  0  0  0
    9.7210    0.1670   -2.3540 C   0  0  2  0  0  0  0  0  0  0  0  0
   11.0890    0.1550   -2.5480 F   0  0  0  0  0  0  0  0  0  0  0  0
    9.1530    1.3650   -2.7900 F   0  0  0  0  0  0  0  0  0  0  0  0
    7.2640    1.0650   -0.4460 C   0  0  0  0  0  0  0  0  0  0  0  0
    6.0090    0.6320   -0.3350 N   0  0  0  0  0  0  0  0  0  0  0  0
    1.2980   -0.5180    0.1500 N   0  0  0  0  0  0  0  0  0  0  0  0
   -1.6270   -0.2340    0.6320 C   0  0  0  0  0  0  0  0  0  0  0  0
   -1.1500   -1.5920    0.4470 C   0  0  0  0  0  0  0  0  0  0  0  0
   -2.1300   -2.6430    0.4590 N   0  0  0  0  0  0  0  0  0  0  0  0
   -1.5030   -3.9560    0.4470 C   0  0  0  0  0  0  0  0  0  0  0  0
   -2.6070   -4.9670    0.2400 C   0  0  0  0  0  0  0  0  0  0  0  0
   -3.1170   -4.8610   -1.0720 O   0  0  0  0  0  0  0  0  0  0  0  0
   -2.7640   -3.6330   -1.6240 C   0  0  0  0  0  0  0  0  0  0  0  0
   -3.0890   -2.5210   -0.6210 C   0  0  0  0  0  0  0  0  0  0  0  0
   -2.9550    0.0320    0.8700 C   0  0  0  0  0  0  0  0  0  0  0  0
  1  2  1  0
  2  3  1  0
  3  4  1  6
  3  5  1  0
  5  6  1  0
  6  7  2  0
  6 34  1  0
  7  8  1  0
  8  9  2  0
  9 10  1  0
  9 26  1  0
 10 11  2  0
 10 25  1  0
 11 12  1  0
 12 13  1  0
 13 14  1  0
 13 25  2  0
 14 15  2  3
 15 16  1  0
 16 17  2  0
 16 24  1  0
 17 18  1  0
 18 19  1  0
 18 23  1  0
 19 20  1  0
 20 21  1  1
 20 22  1  0
 23 24  2  0
 26 27  1  0
 26 34  2  0
 27 28  1  0
 28 29  1  0
 28 33  1  0
 29 30  1  0
 30 31  1  0
 31 32  1  0
 32 33  1  0
M  END
