
     RDKit          3D

 31 34  0  0  0  0  0  0  0  0999 V2000
   -3.1220    5.8210    2.1660 N   0  0  0  0  0  0  0  0  0  0  0  0
   -2.5890    4.5750    1.7580 C   0  0  0  0  0  0  0  0  0  0  0  0
   -3.4140    3.6080    1.2190 C   0  0  0  0  0  0  0  0  0  0  0  0
   -2.9450    2.3860    0.8080 C   0  0  0  0  0  0  0  0  0  0  0  0
   -3.8650    1.3780    0.2120 C   0  0  1  0  0  0  0  0  0  0  0  0
   -3.4850    1.1100   -1.0680 F   0  0  0  0  0  0  0  0  0  0  0  0
   -3.9810    0.2580    0.9780 F   0  0  0  0  0  0  0  0  0  0  0  0
   -5.1430    1.9610    0.1940 F   0  0  0  0  0  0  0  0  0  0  0  0
   -1.6200    2.0890    0.9280 C   0  0  0  0  0  0  0  0  0  0  0  0
   -0.9870    0.8400    0.5440 C   0  0  0  0  0  0  0  0  0  0  0  0
   -1.6100   -0.2350    0.0510 N   0  0  0  0  0  0  0  0  0  0  0  0
   -0.9760   -1.3690   -0.2910 C   0  0  0  0  0  0  0  0  0  0  0  0
   -1.6280   -2.5220   -0.8110 N   0  0  0  0  0  0  0  0  0  0  0  0
   -0.8870   -3.7060   -1.1790 C   0  0  0  0  0  0  0  0  0  0  0  0
   -1.5480   -4.6110   -2.1350 C   0  0  0  0  0  0  0  0  0  0  0  0
   -2.9230   -4.4680   -2.2290 O   0  0  0  0  0  0  0  0  0  0  0  0
   -3.3240   -3.1580   -2.3450 C   0  0  0  0  0  0  0  0  0  0  0  0
   -3.0570   -2.5140   -0.9730 C   0  0  0  0  0  0  0  0  0  0  0  0
    0.3850   -1.3870   -0.1100 N   0  0  0  0  0  0  0  0  0  0  0  0
    1.0640   -0.3530    0.3760 C   0  0  0  0  0  0  0  0  0  0  0  0
    2.4610   -0.3380    0.5740 N   0  0  0  0  0  0  0  0  0  0  0  0
    3.5910   -1.2530    0.3840 C   0  0  0  0  0  0  0  0  0  0  0  0
    4.4630   -0.0290    0.2110 C   0  0  1  0  0  0  0  0  0  0  0  0
    5.8400   -0.1510    0.8200 C   0  0  0  0  0  0  0  0  0  0  0  0
    6.5400    1.0320    0.5950 O   0  0  0  0  0  0  0  0  0  0  0  0
    4.4320    0.4660   -1.2030 C   0  0  0  0  0  0  0  0  0  0  0  0
    2.7990    0.9030   -1.6880 Cl  0  0  0  0  0  0  0  0  0  0  0  0
    3.4230    0.6210    1.0700 C   0  0  0  0  0  0  0  0  0  0  0  0
    0.3520    0.7400    0.6910 N   0  0  0  0  0  0  0  0  0  0  0  0
   -0.8100    3.0840    1.4750 C   0  0  0  0  0  0  0  0  0  0  0  0
   -1.2910    4.2630    1.8650 N   0  0  0  0  0  0  0  0  0  0  0  0
  1  2  1  0
  2  3  2  0
  2 31  1  0
  3  4  1  0
  4  5  1  0
  4  9  2  0
  5  6  1  6
  5  7  1  0
  5  8  1  0
  9 10  1  0
  9 30  1  0
 10 11  2  0
 10 29  1  0
 11 12  1  0
 12 13  1  0
 12 19  2  0
 13 14  1  0
 13 18  1  0
 14 15  1  0
 15 16  1  0
 16 17  1  0
 17 18  1  0
 19 20  1  0
 20 21  1  0
 20 29  2  0
 21 22  1  0
 21 28  1  0
 22 23  1  0
 23 24  1  1
 23 26  1  0
 23 28  1  0
 24 25  1  0
 26 27  1  0
 30 31  2  0
M  END
