
     RDKit          3D

 31 32  0  0  0  0  0  0  0  0999 V2000
    7.7730    1.8040   -2.4690 C   0  0  0  0  0  0  0  0  0  0  0  0
    6.8780    1.1870   -1.7240 C   0  0  0  0  0  0  0  0  0  0  0  0
    6.7030    1.6310   -0.3070 C   0  0  2  0  0  0  0  0  0  0  0  0
    8.0020    1.8280    0.3900 C   0  0  0  0  0  0  0  0  0  0  0  0
    8.9080    0.6550    0.4720 C   0  0  0  0  0  0  0  0  0  0  0  0
    8.4140   -0.4970    1.1540 N   0  0  0  0  0  0  0  0  0  0  0  0
    5.7330    0.8710    0.4230 N   0  0  0  0  0  0  0  0  0  0  0  0
    4.4000    0.7290   -0.0630 C   0  0  0  0  0  0  0  0  0  0  0  0
    3.9910    1.5000   -0.9830 N   0  0  0  0  0  0  0  0  0  0  0  0
    3.5140   -0.2590    0.4540 N   0  0  0  0  0  0  0  0  0  0  0  0
    2.5620   -0.8730   -0.3360 N   0  0  0  0  0  0  0  0  0  0  0  0
    1.1750   -0.8120   -0.1440 C   0  0  0  0  0  0  0  0  0  0  0  0
    0.7160   -0.1530    0.8190 O   0  0  0  0  0  0  0  0  0  0  0  0
    0.2680   -1.5040   -1.0520 C   0  0  0  0  0  0  0  0  0  0  0  0
   -1.0880   -1.3780   -0.7750 O   0  0  0  0  0  0  0  0  0  0  0  0
   -1.7290   -1.7650    0.3630 C   0  0  0  0  0  0  0  0  0  0  0  0
   -1.0910   -2.2920    1.2860 O   0  0  0  0  0  0  0  0  0  0  0  0
   -3.2300   -1.5710    0.5470 C   0  0  1  0  0  0  0  0  0  0  0  0
   -3.4310   -0.1560    0.5480 C   0  0  0  0  0  0  0  0  0  0  0  0
   -4.6580    0.5950    0.6810 C   0  0  1  0  0  0  0  0  0  0  0  0
   -5.4620    0.3580    1.9390 C   0  0  0  0  0  0  0  0  0  0  0  0
   -4.1340    2.0700    0.9310 C   0  0  0  0  0  0  0  0  0  0  0  0
   -5.5450    0.8100   -0.5120 C   0  0  2  0  0  0  0  0  0  0  0  0
   -6.7800    1.6480   -0.1150 C   0  0  0  0  0  0  0  0  0  0  0  0
   -7.6690    1.2850   -1.3150 C   0  0  0  0  0  0  0  0  0  0  0  0
   -7.3370   -0.2090   -1.4000 C   0  0  0  0  0  0  0  0  0  0  0  0
   -6.0250   -0.3440   -1.0230 O   0  0  0  0  0  0  0  0  0  0  0  0
   -3.8150   -2.4610   -0.5080 C   0  0  0  0  0  0  0  0  0  0  0  0
   -3.2590   -3.8150    0.0360 C   0  0  0  0  0  0  0  0  0  0  0  0
   -3.0720   -3.6380    1.3820 O   0  0  0  0  0  0  0  0  0  0  0  0
   -3.5540   -2.3860    1.7700 C   0  0  0  0  0  0  0  0  0  0  0  0
  1  2  2  0
  2  3  1  0
  3  4  1  1
  3  7  1  0
  4  5  1  0
  5  6  1  0
  7  8  1  0
  8  9  2  0
  8 10  1  0
 10 11  1  0
 11 12  1  0
 12 13  2  0
 12 14  1  0
 14 15  1  0
 15 16  1  0
 16 17  2  0
 16 18  1  0
 18 19  1  1
 18 28  1  0
 18 31  1  0
 19 20  1  0
 20 21  1  1
 20 22  1  0
 20 23  1  0
 23 24  1  1
 23 27  1  0
 24 25  1  0
 25 26  1  0
 26 27  1  0
 28 29  1  0
 29 30  1  0
 30 31  1  0
M  CHG  2   6   1   9   1
M  END
