
     RDKit          3D

 31 32  0  0  0  0  0  0  0  0999 V2000
   -2.8350    5.9670    1.8700 C   0  0  0  0  0  0  0  0  0  0  0  0
   -2.1630    5.8490    0.7460 C   0  0  0  0  0  0  0  0  0  0  0  0
   -1.5200    4.5800    0.3230 C   0  0  0  0  0  0  0  0  0  0  0  0
   -1.7520    3.5300    1.3270 N   0  0  0  0  0  0  0  0  0  0  0  0
   -1.0860    2.3840    0.7990 N   0  0  0  0  0  0  0  0  0  0  0  0
   -1.6240    1.6650   -0.2890 C   0  0  0  0  0  0  0  0  0  0  0  0
   -2.7090    2.0650   -0.7770 O   0  0  0  0  0  0  0  0  0  0  0  0
   -0.9790    0.4880   -0.8640 C   0  0  1  0  0  0  0  0  0  0  0  0
    0.2600    0.0880   -0.2520 N   0  0  0  0  0  0  0  0  0  0  0  0
    1.3380    0.4760   -1.1340 C   0  0  0  0  0  0  0  0  0  0  0  0
    2.6610    0.5930   -0.4400 C   0  0  2  0  0  0  0  0  0  0  0  0
    2.7320    1.5900    0.6490 C   0  0  0  0  0  0  0  0  0  0  0  0
    2.4540    3.0090    0.2730 C   0  0  0  0  0  0  0  0  0  0  0  0
    3.3230    3.5300   -0.6750 O   0  0  0  0  0  0  0  0  0  0  0  0
    3.7390    0.6730   -1.4790 C   0  0  0  0  0  0  0  0  0  0  0  0
    4.9200    0.1540   -0.7860 C   0  0  0  0  0  0  0  0  0  0  0  0
    6.1240    0.3710   -1.0660 O   0  0  0  0  0  0  0  0  0  0  0  0
    4.4560   -0.6580    0.2850 N   0  0  0  0  0  0  0  0  0  0  0  0
    5.3310   -1.2570    1.2710 C   0  0  0  0  0  0  0  0  0  0  0  0
    5.7430   -2.6270    0.7570 C   0  0  0  0  0  0  0  0  0  0  0  0
    6.5920   -3.2680    1.6630 O   0  0  0  0  0  0  0  0  0  0  0  0
    2.9950   -0.7670    0.2050 C   0  0  0  0  0  0  0  0  0  0  0  0
   -1.9460   -0.6710   -0.9020 C   0  0  0  0  0  0  0  0  0  0  0  0
   -2.3360   -1.1940   -2.0430 C   0  0  0  0  0  0  0  0  0  0  0  0
   -3.2650   -2.3140   -2.1830 C   0  0  0  0  0  0  0  0  0  0  0  0
   -4.0620   -2.5030   -0.8690 C   0  0  1  0  0  0  0  0  0  0  0  0
   -5.0300   -3.6190   -1.0310 C   0  0  0  0  0  0  0  0  0  0  0  0
   -3.0570   -2.5710    0.2120 C   0  0  2  0  0  0  0  0  0  0  0  0
   -3.5160   -3.0310    1.5340 C   0  0  0  0  0  0  0  0  0  0  0  0
   -4.0170   -4.3540    1.5990 N   0  0  0  0  0  0  0  0  0  0  0  0
   -2.4590   -1.2220    0.2990 N   0  0  0  0  0  0  0  0  0  0  0  0
  1  2  2  0
  2  3  1  0
  3  4  1  0
  4  5  1  0
  5  6  1  0
  6  7  2  0
  6  8  1  0
  8  9  1  1
  8 23  1  0
  9 10  1  0
 11 10  1  6
 11 12  1  0
 11 15  1  0
 11 22  1  0
 12 13  1  0
 13 14  1  0
 15 16  1  0
 16 17  2  0
 16 18  1  0
 18 19  1  0
 18 22  1  0
 19 20  1  0
 20 21  1  0
 23 24  2  0
 23 31  1  0
 24 25  1  0
 25 26  1  0
 26 27  1  6
 26 28  1  0
 28 29  1  1
 28 31  1  0
 29 30  1  0
M  CHG  2   9   1  30   1
M  END
