
     RDKit          3D

 29 29  0  0  0  0  0  0  0  0999 V2000
    3.3530   -0.0670   -1.1340 O   0  0  0  0  0  0  0  0  0  0  0  0
    3.1700   -0.6920   -0.0610 C   0  0  0  0  0  0  0  0  0  0  0  0
    4.2090   -0.7600    0.8840 N   0  0  0  0  0  0  0  0  0  0  0  0
    5.4880   -0.1630    0.7300 C   0  0  0  0  0  0  0  0  0  0  0  0
    6.5900   -0.3410    1.9360 S   0  0  0  0  0  0  0  0  0  0  0  0
    5.8950    0.6180   -0.4520 C   0  0  1  0  0  0  0  0  0  0  0  0
    5.1150    1.7450   -0.6570 F   0  0  0  0  0  0  0  0  0  0  0  0
    7.1970    1.0780   -0.3450 F   0  0  0  0  0  0  0  0  0  0  0  0
    5.8960   -0.2360   -1.5470 F   0  0  0  0  0  0  0  0  0  0  0  0
    1.8230   -1.3450    0.1530 C   0  0  1  0  0  0  0  0  0  0  0  0
    1.8150   -1.9930    1.3900 O   0  0  0  0  0  0  0  0  0  0  0  0
    0.8510   -0.2240    0.1820 C   0  0  0  0  0  0  0  0  0  0  0  0
   -0.1270   -0.1460   -0.6960 C   0  0  0  0  0  0  0  0  0  0  0  0
   -0.9790    0.9220   -0.6010 O   0  0  0  0  0  0  0  0  0  0  0  0
   -2.2700    0.8750   -0.1170 C   0  0  0  0  0  0  0  0  0  0  0  0
   -2.8960   -0.2650    0.3440 C   0  0  0  0  0  0  0  0  0  0  0  0
   -4.1600   -0.2920    0.8120 N   0  0  0  0  0  0  0  0  0  0  0  0
   -4.9100    0.8160    0.8600 C   0  0  0  0  0  0  0  0  0  0  0  0
   -6.3090    0.7960    1.3730 C   0  0  2  0  0  0  0  0  0  0  0  0
   -7.0970   -0.0610    0.5950 F   0  0  0  0  0  0  0  0  0  0  0  0
   -6.8020    2.0790    1.2830 F   0  0  0  0  0  0  0  0  0  0  0  0
   -6.3100    0.3060    2.6600 F   0  0  0  0  0  0  0  0  0  0  0  0
   -4.3240    1.9770    0.4100 C   0  0  0  0  0  0  0  0  0  0  0  0
   -3.0440    2.0420   -0.0710 C   0  0  0  0  0  0  0  0  0  0  0  0
   -2.4610    3.1830   -0.5140 F   0  0  0  0  0  0  0  0  0  0  0  0
   -0.2720   -1.1850   -1.7320 C   0  0  2  0  0  0  0  0  0  0  0  0
   -0.5090   -2.4190   -1.1690 F   0  0  0  0  0  0  0  0  0  0  0  0
    0.8360   -1.2570   -2.5700 F   0  0  0  0  0  0  0  0  0  0  0  0
   -1.3600   -0.9340   -2.5610 F   0  0  0  0  0  0  0  0  0  0  0  0
  1  2  2  0
  2  3  1  0
  2 10  1  0
  3  4  1  0
  4  5  2  0
  4  6  1  0
  6  7  1  6
  6  8  1  0
  6  9  1  0
 10 11  1  1
 10 12  1  0
 12 13  2  3
 13 14  1  0
 13 26  1  0
 14 15  1  0
 15 16  2  0
 15 24  1  0
 16 17  1  0
 17 18  2  0
 18 19  1  0
 18 23  1  0
 19 20  1  6
 19 21  1  0
 19 22  1  0
 23 24  2  0
 24 25  1  0
 26 27  1  1
 26 28  1  0
 26 29  1  0
M  END
