
     RDKit          3D

 29 29  0  0  0  0  0  0  0  0999 V2000
    3.5190    0.4220   -2.5210 N   0  0  0  0  0  0  0  0  0  0  0  0
    2.6280   -0.6680   -2.0610 C   0  0  2  0  0  0  0  0  0  0  0  0
    1.9850   -0.1420   -0.8730 O   0  0  0  0  0  0  0  0  0  0  0  0
    0.6110   -0.0280   -0.8250 C   0  0  0  0  0  0  0  0  0  0  0  0
   -0.0560   -0.3870   -1.8190 O   0  0  0  0  0  0  0  0  0  0  0  0
   -0.0760    0.4910    0.3440 C   0  0  0  0  0  0  0  0  0  0  0  0
    0.5950    0.8800    1.3330 O   0  0  0  0  0  0  0  0  0  0  0  0
   -1.5030    0.5630    0.3870 N   0  0  0  0  0  0  0  0  0  0  0  0
   -2.2470    1.0510    1.4930 C   0  0  0  0  0  0  0  0  0  0  0  0
   -2.5890    2.3920    1.6150 C   0  0  0  0  0  0  0  0  0  0  0  0
   -2.1670    3.3650    0.5510 C   0  0  2  0  0  0  0  0  0  0  0  0
   -2.5860    4.6470    0.8930 F   0  0  0  0  0  0  0  0  0  0  0  0
   -2.8860    3.0760   -0.6200 F   0  0  0  0  0  0  0  0  0  0  0  0
   -0.8200    3.3680    0.3340 F   0  0  0  0  0  0  0  0  0  0  0  0
   -3.3210    2.8710    2.6790 C   0  0  0  0  0  0  0  0  0  0  0  0
   -3.7110    1.9640    3.6380 C   0  0  0  0  0  0  0  0  0  0  0  0
   -3.3780    0.6390    3.5270 C   0  0  0  0  0  0  0  0  0  0  0  0
   -3.7650   -0.2790    4.4770 F   0  0  0  0  0  0  0  0  0  0  0  0
   -2.6460    0.1490    2.4650 C   0  0  0  0  0  0  0  0  0  0  0  0
   -2.3150   -1.3140    2.3790 C   0  0  1  0  0  0  0  0  0  0  0  0
   -2.8310   -1.9910    3.4670 F   0  0  0  0  0  0  0  0  0  0  0  0
   -2.9050   -1.7980    1.2290 F   0  0  0  0  0  0  0  0  0  0  0  0
   -0.9740   -1.4900    2.2870 F   0  0  0  0  0  0  0  0  0  0  0  0
    3.6600   -2.0680   -1.6610 S   0  0  0  0  0  0  0  0  0  0  0  0
    4.5170   -2.8080   -3.0360 C   0  0  0  0  0  0  0  0  0  0  0  0
    3.6280   -3.5220   -4.0230 C   0  0  1  0  0  0  0  0  0  0  0  0
    2.9580   -4.5490   -3.3440 F   0  0  0  0  0  0  0  0  0  0  0  0
    2.7140   -2.6620   -4.5860 F   0  0  0  0  0  0  0  0  0  0  0  0
    4.4320   -4.0680   -5.0300 F   0  0  0  0  0  0  0  0  0  0  0  0
  2  1  1  1
  2  3  1  0
  2 24  1  0
  3  4  1  0
  4  5  2  0
  4  6  1  0
  6  7  2  0
  6  8  1  0
  8  9  1  0
  9 10  2  0
  9 19  1  0
 10 11  1  0
 10 15  1  0
 11 12  1  1
 11 13  1  0
 11 14  1  0
 15 16  2  0
 16 17  1  0
 17 18  1  0
 17 19  2  0
 19 20  1  0
 20 21  1  1
 20 22  1  0
 20 23  1  0
 24 25  1  0
 25 26  1  0
 26 27  1  1
 26 28  1  0
 26 29  1  0
M  END
