
     RDKit          3D

 24 24  0  0  0  0  0  0  0  0999 V2000
    3.6140   -3.6330   -0.6550 O   0  0  0  0  0  0  0  0  0  0  0  0
    2.8570   -2.7310   -0.1460 C   0  0  0  0  0  0  0  0  0  0  0  0
    3.2560   -2.1400    1.0690 N   0  0  0  0  0  0  0  0  0  0  0  0
    3.3210   -0.7270    1.3610 C   0  0  0  0  0  0  0  0  0  0  0  0
    3.5340    0.1220    0.1520 C   0  0  0  0  0  0  0  0  0  0  0  0
    3.1860    1.4350    0.2550 O   0  0  0  0  0  0  0  0  0  0  0  0
    1.8880    1.7620    0.4970 C   0  0  0  0  0  0  0  0  0  0  0  0
    1.1790    1.9860   -0.8390 C   0  0  1  0  0  0  0  0  0  0  0  0
    1.5100    0.9190   -1.6460 O   0  0  0  0  0  0  0  0  0  0  0  0
   -0.2290    2.3520   -0.7330 C   0  0  0  0  0  0  0  0  0  0  0  0
   -0.4380    4.2000   -0.9150 S   0  0  0  0  0  0  0  0  0  0  0  0
   -1.3390    1.7400   -0.5430 C   0  0  0  0  0  0  0  0  0  0  0  0
   -1.7600    0.3280   -0.3320 C   0  0  2  0  0  0  0  0  0  0  0  0
   -3.3320    0.3240   -0.4860 C   0  0  0  0  0  0  0  0  0  0  0  0
   -3.9480    1.1360    0.4000 O   0  0  0  0  0  0  0  0  0  0  0  0
   -1.6270   -0.1560    1.0730 C   0  0  2  0  0  0  0  0  0  0  0  0
   -2.0500   -1.4640    1.1730 O   0  0  0  0  0  0  0  0  0  0  0  0
   -2.5750    0.6200    1.9020 N   0  0  0  0  0  0  0  0  0  0  0  0
   -2.5140    0.2090    3.1890 O   0  0  0  0  0  0  0  0  0  0  0  0
   -1.3470   -0.5940   -1.4180 C   0  0  0  0  0  0  0  0  0  0  0  0
   -0.6190   -1.8310   -1.1670 C   0  0  2  0  0  0  0  0  0  0  0  0
   -1.4380   -2.9380   -0.8810 O   0  0  0  0  0  0  0  0  0  0  0  0
    0.5280   -1.8870   -0.2540 C   0  0  0  0  0  0  0  0  0  0  0  0
    1.7120   -2.4410   -0.8670 O   0  0  0  0  0  0  0  0  0  0  0  0
  1  2  2  0
  2  3  1  0
  2 24  1  0
  3  4  1  0
  4  5  1  0
  5  6  1  0
  6  7  1  0
  7  8  1  0
  8  9  1  6
  8 10  1  0
 10 11  1  0
 10 12  2  0
 12 13  1  0
 13 14  1  6
 13 16  1  0
 13 20  1  0
 14 15  1  0
 16 17  1  6
 16 18  1  0
 18 19  1  0
 20 21  1  0
 21 22  1  1
 21 23  1  0
 23 24  1  0
M  END
