
     RDKit          3D

 24 24  0  0  0  0  0  0  0  0999 V2000
   -4.1130    1.6190   -1.1530 C   0  0  0  0  0  0  0  0  0  0  0  0
   -4.0790    1.0780    0.2610 C   0  0  1  0  0  0  0  0  0  0  0  0
   -5.2330    0.1700    0.5660 C   0  0  0  0  0  0  0  0  0  0  0  0
   -5.3170   -0.9430   -0.2330 O   0  0  0  0  0  0  0  0  0  0  0  0
   -2.7390    0.5230    0.6200 C   0  0  1  0  0  0  0  0  0  0  0  0
   -2.7840    0.0470    1.9240 O   0  0  0  0  0  0  0  0  0  0  0  0
   -2.3020   -0.6000   -0.2760 C   0  0  0  0  0  0  0  0  0  0  0  0
   -0.9920   -1.1040    0.0830 N   0  0  0  0  0  0  0  0  0  0  0  0
    0.1760   -0.3400    0.0860 C   0  0  0  0  0  0  0  0  0  0  0  0
    0.1390    0.8640   -0.2340 O   0  0  0  0  0  0  0  0  0  0  0  0
    1.5270   -0.8970    0.4650 C   0  0  2  0  0  0  0  0  0  0  0  0
    2.5470    0.1870    0.3590 C   0  0  0  0  0  0  0  0  0  0  0  0
    3.2020    0.4790    1.4920 C   0  0  0  0  0  0  0  0  0  0  0  0
    4.2260    1.4870    1.6410 C   0  0  0  0  0  0  0  0  0  0  0  0
    4.8610    1.7220    2.8630 O   0  0  0  0  0  0  0  0  0  0  0  0
    4.5890    2.3300    0.2890 S   0  0  0  0  0  0  0  0  0  0  0  0
    5.7850    3.5560    0.3240 O   0  0  0  0  0  0  0  0  0  0  0  0
    3.6270    1.8230   -1.1090 N   0  0  0  0  0  0  0  0  0  0  0  0
    2.7830    0.8720   -0.8940 C   0  0  0  0  0  0  0  0  0  0  0  0
    2.0290    0.5060   -2.0350 O   0  0  0  0  0  0  0  0  0  0  0  0
    1.8180   -2.1500   -0.2370 C   0  0  2  0  0  0  0  0  0  0  0  0
    3.0930   -2.6310    0.1650 O   0  0  0  0  0  0  0  0  0  0  0  0
    1.7180   -2.2690   -1.7030 C   0  0  0  0  0  0  0  0  0  0  0  0
    1.7750   -3.6850   -1.9780 O   0  0  0  0  0  0  0  0  0  0  0  0
  2  1  1  6
  2  3  1  0
  2  5  1  0
  3  4  1  0
  5  6  1  1
  5  7  1  0
  7  8  1  0
  8  9  1  0
  9 10  2  0
 11  9  1  6
 11 12  1  0
 11 21  1  0
 12 13  2  0
 12 19  1  0
 13 14  1  0
 14 15  1  0
 14 16  2  0
 16 17  1  0
 16 18  1  0
 18 19  2  0
 19 20  1  0
 21 22  1  6
 21 23  1  0
 23 24  1  0
M  END
