
     RDKit          3D

 25 25  0  0  0  0  0  0  0  0999 V2000
   -3.2230    2.0460    0.8480 C   0  0  0  0  0  0  0  0  0  0  0  0
   -3.3030    1.2310   -0.4520 C   0  0  2  0  0  0  0  0  0  0  0  0
   -4.4480    0.2520   -0.3200 C   0  0  0  0  0  0  0  0  0  0  0  0
   -4.3280   -0.6250    0.7260 O   0  0  0  0  0  0  0  0  0  0  0  0
   -1.7100    0.4080   -0.7000 S   0  0  0  0  0  0  0  0  0  0  0  0
   -1.4710   -0.7900    0.5940 C   0  0  0  0  0  0  0  0  0  0  0  0
   -0.1770   -1.5150    0.5570 C   0  0  1  0  0  0  0  0  0  0  0  0
   -0.1030   -2.4140    1.6040 O   0  0  0  0  0  0  0  0  0  0  0  0
    0.1380   -2.1290   -0.6140 O   0  0  0  0  0  0  0  0  0  0  0  0
    1.4680   -2.5090   -0.4660 C   0  0  0  0  0  0  0  0  0  0  0  0
    2.1050   -1.5560    0.5400 C   0  0  1  0  0  0  0  0  0  0  0  0
    2.0770   -2.3040    1.7700 O   0  0  0  0  0  0  0  0  0  0  0  0
    3.4850   -1.2210    0.2440 C   0  0  1  0  0  0  0  0  0  0  0  0
    4.2070   -2.4580    0.1450 O   0  0  0  0  0  0  0  0  0  0  0  0
    3.8830   -0.3910   -0.8910 C   0  0  0  0  0  0  0  0  0  0  0  0
    3.4400    1.0030   -0.9410 C   0  0  0  0  0  0  0  0  0  0  0  0
    2.9410    1.6780   -0.0280 O   0  0  0  0  0  0  0  0  0  0  0  0
    3.5960    1.6970   -2.2070 N   0  0  0  0  0  0  0  0  0  0  0  0
    3.2100    2.9870   -2.3300 O   0  0  0  0  0  0  0  0  0  0  0  0
    1.0420   -0.5460    0.6960 C   0  0  2  0  0  0  0  0  0  0  0  0
    0.9690    0.0940    2.0690 C   0  0  0  0  0  0  0  0  0  0  0  0
    1.0140   -0.9220    3.0330 O   0  0  0  0  0  0  0  0  0  0  0  0
   -3.6370    2.1210   -1.5880 C   0  0  0  0  0  0  0  0  0  0  0  0
   -4.8390    2.8470   -1.5650 N   0  0  0  0  0  0  0  0  0  0  0  0
   -2.8560    2.2190   -2.5460 O   0  0  0  0  0  0  0  0  0  0  0  0
  2  1  1  1
  2  3  1  0
  2  5  1  0
  2 23  1  0
  3  4  1  0
  5  6  1  0
  6  7  1  0
  7  8  1  1
  7  9  1  0
  7 20  1  0
  9 10  1  0
 10 11  1  0
 11 12  1  1
 11 13  1  0
 11 20  1  0
 13 14  1  6
 13 15  1  0
 15 16  1  0
 16 17  2  0
 16 18  1  0
 18 19  1  0
 20 21  1  1
 21 22  1  0
 23 24  1  0
 23 25  2  0
M  END
