
     RDKit          3D

 25 25  0  0  0  0  0  0  0  0999 V2000
   -4.8640    1.3920   -0.6130 C   0  0  0  0  0  0  0  0  0  0  0  0
   -3.6800    0.5220   -1.0010 C   0  0  2  0  0  0  0  0  0  0  0  0
   -2.8180    1.3460   -1.7240 O   0  0  0  0  0  0  0  0  0  0  0  0
   -4.1620   -0.5690   -1.8970 C   0  0  0  0  0  0  0  0  0  0  0  0
   -3.1460   -1.3590   -2.4010 O   0  0  0  0  0  0  0  0  0  0  0  0
   -3.0430    0.0250    0.2700 C   0  0  1  0  0  0  0  0  0  0  0  0
   -4.0070   -0.9340    0.9480 C   0  0  0  0  0  0  0  0  0  0  0  0
   -5.2040   -0.3050    1.2440 O   0  0  0  0  0  0  0  0  0  0  0  0
   -1.8860   -0.7110    0.0250 O   0  0  0  0  0  0  0  0  0  0  0  0
   -0.7800   -0.2070    0.6640 C   0  0  2  0  0  0  0  0  0  0  0  0
    0.1800    0.1840   -0.3580 N   0  0  0  0  0  0  0  0  0  0  0  0
   -0.0850   -1.2060    1.5580 C   0  0  2  0  0  0  0  0  0  0  0  0
   -0.8910   -1.6670    2.5850 O   0  0  0  0  0  0  0  0  0  0  0  0
    1.1470   -0.5930    2.1090 C   0  0  2  0  0  0  0  0  0  0  0  0
    1.9800   -0.1190    1.0930 O   0  0  0  0  0  0  0  0  0  0  0  0
    3.1910    0.2100    1.6340 C   0  0  2  0  0  0  0  0  0  0  0  0
    4.0780    0.7320    0.5940 C   0  0  0  0  0  0  0  0  0  0  0  0
    5.2720    1.1120    0.8470 O   0  0  0  0  0  0  0  0  0  0  0  0
    3.6380    0.8310   -0.7150 O   0  0  0  0  0  0  0  0  0  0  0  0
    4.4660    1.3290   -1.7470 C   0  0  0  0  0  0  0  0  0  0  0  0
    5.6840    0.4940   -1.9040 C   0  0  0  0  0  0  0  0  0  0  0  0
    6.6840    0.7860   -2.8680 N   0  0  0  0  0  0  0  0  0  0  0  0
    5.8190   -0.5010   -1.1500 O   0  0  0  0  0  0  0  0  0  0  0  0
    3.8190   -1.0870    2.1710 C   0  0  0  0  0  0  0  0  0  0  0  0
    2.2780   -1.8650    2.8160 S   0  0  0  0  0  0  0  0  0  0  0  0
  2  1  1  1
  2  3  1  0
  2  4  1  0
  2  6  1  0
  4  5  1  0
  6  7  1  6
  6  9  1  0
  7  8  1  0
  9 10  1  0
 10 11  1  6
 10 12  1  0
 12 13  1  1
 12 14  1  0
 14 15  1  6
 14 25  1  0
 15 16  1  0
 16 17  1  6
 16 24  1  0
 17 18  2  0
 17 19  1  0
 19 20  1  0
 20 21  1  0
 21 22  1  0
 21 23  2  0
 24 25  1  0
M  END
