
     RDKit          3D

 11 12  0  0  0  0  0  0  0  0999 V2000
    3.6830   -0.0240   -0.4240 O   0  0  0  0  0  0  0  0  0  0  0  0
    2.4330    0.0190   -0.2830 C   0  0  0  0  0  0  0  0  0  0  0  0
    1.6820   -1.0790   -0.0830 N   0  0  0  0  0  0  0  0  0  0  0  0
    0.3890   -0.7050    0.0280 C   0  0  0  0  0  0  0  0  0  0  0  0
   -0.7980   -1.3780    0.2350 C   0  0  0  0  0  0  0  0  0  0  0  0
   -1.9990   -0.7170    0.3060 C   0  0  0  0  0  0  0  0  0  0  0  0
   -2.0720    0.6500    0.1720 C   0  0  0  0  0  0  0  0  0  0  0  0
   -3.6340    1.4690    0.2680 Cl  0  0  0  0  0  0  0  0  0  0  0  0
   -0.8990    1.3430   -0.0350 C   0  0  0  0  0  0  0  0  0  0  0  0
    0.3170    0.6660   -0.1060 C   0  0  0  0  0  0  0  0  0  0  0  0
    1.5920    1.0690   -0.2950 N   0  0  0  0  0  0  0  0  0  0  0  0
  1  2  2  0
  2  3  1  0
  2 11  1  0
  3  4  1  0
  4  5  2  0
  4 10  1  0
  5  6  1  0
  6  7  2  0
  7  8  1  0
  7  9  1  0
  9 10  2  0
 10 11  1  0
M  END
