
     RDKit          3D

 11 12  0  0  0  0  0  0  0  0999 V2000
   -0.0510    2.4670   -0.1990 N   0  0  0  0  0  0  0  0  0  0  0  0
    0.4570    1.1560   -0.0960 C   0  0  0  0  0  0  0  0  0  0  0  0
    1.7780    0.8830   -0.0820 N   0  0  0  0  0  0  0  0  0  0  0  0
    2.2130   -0.3850    0.0180 C   0  0  0  0  0  0  0  0  0  0  0  0
    3.9260   -0.6890    0.0330 Cl  0  0  0  0  0  0  0  0  0  0  0  0
    1.3650   -1.4690    0.1100 C   0  0  0  0  0  0  0  0  0  0  0  0
    0.0160   -1.2220    0.0980 C   0  0  0  0  0  0  0  0  0  0  0  0
   -1.0390   -2.0180    0.1680 O   0  0  0  0  0  0  0  0  0  0  0  0
   -2.1410   -1.3370    0.1190 C   0  0  0  0  0  0  0  0  0  0  0  0
   -1.8080   -0.0100    0.0100 C   0  0  0  0  0  0  0  0  0  0  0  0
   -0.4170    0.0810   -0.0050 C   0  0  0  0  0  0  0  0  0  0  0  0
  1  2  1  0
  2  3  2  0
  2 11  1  0
  3  4  1  0
  4  5  1  0
  4  6  2  0
  6  7  1  0
  7  8  1  0
  7 11  2  0
  8  9  1  0
  9 10  2  0
 10 11  1  0
M  END
