
     RDKit          3D

 11 12  0  0  0  0  0  0  0  0999 V2000
    1.6260    1.9520    0.3080 O   0  0  0  0  0  0  0  0  0  0  0  0
    1.1930    0.6630    0.1000 C   0  0  0  0  0  0  0  0  0  0  0  0
    2.1220   -0.3430   -0.0730 C   0  0  0  0  0  0  0  0  0  0  0  0
    1.7230   -1.6600   -0.2860 C   0  0  0  0  0  0  0  0  0  0  0  0
    0.4130   -1.8940   -0.3150 N   0  0  0  0  0  0  0  0  0  0  0  0
   -0.5580   -0.9810   -0.1570 C   0  0  0  0  0  0  0  0  0  0  0  0
   -1.9330   -0.9880   -0.1480 C   0  0  0  0  0  0  0  0  0  0  0  0
   -2.4010    0.2530    0.0600 N   0  0  0  0  0  0  0  0  0  0  0  0
   -1.3210    1.0440    0.1820 C   0  0  0  0  0  0  0  0  0  0  0  0
   -1.4520    2.7690    0.4670 Cl  0  0  0  0  0  0  0  0  0  0  0  0
   -0.1460    0.3380    0.0570 C   0  0  0  0  0  0  0  0  0  0  0  0
  1  2  1  0
  2  3  2  0
  2 11  1  0
  3  4  1  0
  4  5  2  0
  5  6  1  0
  6  7  2  0
  6 11  1  0
  7  8  1  0
  8  9  1  0
  9 10  1  0
  9 11  2  0
M  END
