
     RDKit          3D

 29 31  0  0  0  0  0  0  0  0999 V2000
   -3.1650    0.2680   -3.4620 C   0  0  0  0  0  0  0  0  0  0  0  0
   -3.6410    0.2440   -2.0500 C   0  0  0  0  0  0  0  0  0  0  0  0
   -2.8250    0.5010   -1.0420 C   0  0  0  0  0  0  0  0  0  0  0  0
   -1.3990    0.8350   -1.0930 C   0  0  0  0  0  0  0  0  0  0  0  0
   -0.5910   -0.1540   -0.3540 N   0  0  0  0  0  0  0  0  0  0  0  0
    0.8110    0.0130   -0.2980 C   0  0  0  0  0  0  0  0  0  0  0  0
    1.1490    1.0860   -0.9580 O   0  0  0  0  0  0  0  0  0  0  0  0
    1.7980   -0.7990    0.3470 C   0  0  0  0  0  0  0  0  0  0  0  0
    3.2010   -0.4290    0.2710 N   0  0  0  0  0  0  0  0  0  0  0  0
    3.8260    0.6330   -0.3460 C   0  0  0  0  0  0  0  0  0  0  0  0
    3.1910    1.4780   -0.9690 O   0  0  0  0  0  0  0  0  0  0  0  0
    5.3090    0.7990   -0.2810 C   0  0  0  0  0  0  0  0  0  0  0  0
    6.0290    1.8090   -0.8520 C   0  0  0  0  0  0  0  0  0  0  0  0
    7.3210    1.5860   -0.5570 N   0  0  0  0  0  0  0  0  0  0  0  0
    7.3940    0.4560    0.1850 C   0  0  0  0  0  0  0  0  0  0  0  0
    8.7760   -0.1680    0.7520 S   0  0  0  0  0  0  0  0  0  0  0  0
    6.1330   -0.0270    0.3510 N   0  0  0  0  0  0  0  0  0  0  0  0
    1.6190   -1.8750    1.0250 C   0  0  0  0  0  0  0  0  0  0  0  0
    2.8970   -2.4160    1.5280 O   0  0  0  0  0  0  0  0  0  0  0  0
    0.5410   -2.6590    1.4060 C   0  0  0  0  0  0  0  0  0  0  0  0
   -0.6810   -2.6890    1.2800 O   0  0  0  0  0  0  0  0  0  0  0  0
   -3.5960    0.3950    0.1890 C   0  0  0  0  0  0  0  0  0  0  0  0
   -3.3010    0.5490    1.5340 C   0  0  0  0  0  0  0  0  0  0  0  0
   -4.2790    0.3780    2.4900 C   0  0  0  0  0  0  0  0  0  0  0  0
   -3.8960    0.5750    4.1850 Cl  0  0  0  0  0  0  0  0  0  0  0  0
   -5.5650    0.0510    2.1310 C   0  0  0  0  0  0  0  0  0  0  0  0
   -5.8510   -0.1010    0.7970 C   0  0  0  0  0  0  0  0  0  0  0  0
   -4.8820    0.0680   -0.1740 C   0  0  0  0  0  0  0  0  0  0  0  0
   -4.9420   -0.0340   -1.5730 N   0  0  0  0  0  0  0  0  0  0  0  0
  1  2  1  0
  2  3  2  0
  2 29  1  0
  3  4  1  0
  3 22  1  0
  4  5  1  0
  5  6  1  0
  6  7  2  0
  6  8  1  0
  8  9  1  0
  8 18  2  3
  9 10  1  0
 10 11  2  0
 10 12  1  0
 12 13  2  0
 12 17  1  0
 13 14  1  0
 14 15  1  0
 15 16  2  0
 15 17  1  0
 18 19  1  0
 18 20  1  0
 20 21  2  0
 22 23  2  0
 22 28  1  0
 23 24  1  0
 24 25  1  0
 24 26  2  0
 26 27  1  0
 27 28  2  0
 28 29  1  0
M  CHG  1  29   1
M  END
