
     RDKit          3D

 29 31  0  0  0  0  0  0  0  0999 V2000
   -0.4560   -2.9130    2.7300 C   0  0  0  0  0  0  0  0  0  0  0  0
    0.0220   -1.1940    3.1130 S   0  0  0  0  0  0  0  0  0  0  0  0
    1.2570   -0.6100    1.9560 C   0  0  0  0  0  0  0  0  0  0  0  0
    2.6030   -0.7600    2.1810 C   0  0  0  0  0  0  0  0  0  0  0  0
    3.5510   -0.3060    1.2810 C   0  0  0  0  0  0  0  0  0  0  0  0
    5.2740   -0.5060    1.5840 Cl  0  0  0  0  0  0  0  0  0  0  0  0
    3.1990    0.3240    0.1060 C   0  0  0  0  0  0  0  0  0  0  0  0
    4.1980    0.8020   -0.8410 C   0  0  0  0  0  0  0  0  0  0  0  0
    3.9820    1.4420   -2.0400 C   0  0  0  0  0  0  0  0  0  0  0  0
    5.1790    1.7030   -2.5870 N   0  0  0  0  0  0  0  0  0  0  0  0
    6.1210    1.2400   -1.7530 C   0  0  0  0  0  0  0  0  0  0  0  0
    7.6040    1.3170   -1.9640 C   0  0  0  0  0  0  0  0  0  0  0  0
    5.4900    0.7150   -0.7340 O   0  0  0  0  0  0  0  0  0  0  0  0
    1.8470    0.4800   -0.1290 C   0  0  0  0  0  0  0  0  0  0  0  0
    0.8910    0.0290    0.7640 C   0  0  0  0  0  0  0  0  0  0  0  0
   -0.4680    0.1600    0.5760 O   0  0  0  0  0  0  0  0  0  0  0  0
   -1.1250    0.7410   -0.4940 C   0  0  2  0  0  0  0  0  0  0  0  0
   -2.1070    1.8210   -0.0760 C   0  0  0  0  0  0  0  0  0  0  0  0
   -3.3350    1.2580    0.4220 N   0  0  0  0  0  0  0  0  0  0  0  0
   -4.5620    1.9750    0.4260 C   0  0  0  0  0  0  0  0  0  0  0  0
   -4.5400    3.3140   -0.0950 N   0  0  0  0  0  0  0  0  0  0  0  0
   -5.6160    1.4570    0.8660 O   0  0  0  0  0  0  0  0  0  0  0  0
   -3.3140   -0.0810    0.9330 C   0  0  0  0  0  0  0  0  0  0  0  0
   -2.7200   -1.0580   -0.0750 C   0  0  1  0  0  0  0  0  0  0  0  0
   -3.8180   -1.9150   -0.6290 C   0  0  0  0  0  0  0  0  0  0  0  0
   -4.5450   -2.7080    0.3020 N   0  0  0  0  0  0  0  0  0  0  0  0
   -4.0620   -1.9150   -1.8550 O   0  0  0  0  0  0  0  0  0  0  0  0
   -1.9870   -0.3330   -1.1760 C   0  0  2  0  0  0  0  0  0  0  0  0
   -1.0360   -1.2570   -1.7860 N   0  0  0  0  0  0  0  0  0  0  0  0
  1  2  1  0
  2  3  1  0
  3  4  2  0
  3 15  1  0
  4  5  1  0
  5  6  1  0
  5  7  2  0
  7  8  1  0
  7 14  1  0
  8  9  2  0
  8 13  1  0
  9 10  1  0
 10 11  2  0
 11 12  1  0
 11 13  1  0
 14 15  2  0
 15 16  1  0
 17 16  1  1
 17 18  1  0
 17 28  1  0
 18 19  1  0
 19 20  1  0
 19 23  1  0
 20 21  1  0
 20 22  2  0
 23 24  1  0
 24 25  1  6
 24 28  1  0
 25 26  1  0
 25 27  2  0
 28 29  1  1
M  CHG  1  29   1
M  END
