
     RDKit          3D

 28 30  0  0  0  0  0  0  0  0999 V2000
   -6.2640    0.4880    0.3260 C   0  0  0  0  0  0  0  0  0  0  0  0
   -4.8810   -0.0780    0.4260 C   0  0  2  0  0  0  0  0  0  0  0  0
   -3.7870    0.9220    0.2200 C   0  0  2  0  0  0  0  0  0  0  0  0
   -3.4450    1.5240    1.5570 C   0  0  0  0  0  0  0  0  0  0  0  0
   -4.1970    1.9970   -0.7000 C   0  0  0  0  0  0  0  0  0  0  0  0
   -5.2390    2.9050   -0.3880 N   0  0  0  0  0  0  0  0  0  0  0  0
   -3.6280    2.1470   -1.8070 O   0  0  0  0  0  0  0  0  0  0  0  0
   -2.6740    0.2290   -0.3820 N   0  0  0  0  0  0  0  0  0  0  0  0
   -2.3200   -0.9990    0.2310 C   0  0  2  0  0  0  0  0  0  0  0  0
   -0.8600   -1.2330    0.0150 C   0  0  0  0  0  0  0  0  0  0  0  0
   -0.3630   -2.4550   -0.3800 C   0  0  0  0  0  0  0  0  0  0  0  0
    0.9870   -2.6220   -0.5660 C   0  0  0  0  0  0  0  0  0  0  0  0
    1.9240   -1.5950   -0.3740 C   0  0  0  0  0  0  0  0  0  0  0  0
    3.3040   -1.8640   -0.5580 N   0  0  0  0  0  0  0  0  0  0  0  0
    4.3790   -0.9700   -0.4180 C   0  0  0  0  0  0  0  0  0  0  0  0
    4.3790    0.3200   -0.8850 C   0  0  0  0  0  0  0  0  0  0  0  0
    5.4600    1.1730   -0.6850 C   0  0  0  0  0  0  0  0  0  0  0  0
    6.5850    0.7590   -0.0070 C   0  0  0  0  0  0  0  0  0  0  0  0
    7.7470    1.6920    0.2030 C   0  0  0  0  0  0  0  0  0  0  0  0
    8.7090    0.9800    0.9110 O   0  0  0  0  0  0  0  0  0  0  0  0
    6.6120   -0.5270    0.4700 C   0  0  0  0  0  0  0  0  0  0  0  0
    5.5450   -1.3580    0.2690 C   0  0  0  0  0  0  0  0  0  0  0  0
    1.4100   -0.4200    0.0110 N   0  0  0  0  0  0  0  0  0  0  0  0
    0.0730   -0.2410    0.1990 C   0  0  0  0  0  0  0  0  0  0  0  0
   -3.0850   -2.0870   -0.3950 N   0  0  0  0  0  0  0  0  0  0  0  0
   -4.6410   -1.3900   -0.7810 S   0  0  1  0  0  0  0  0  0  0  0  0
   -5.7310   -2.3950   -0.6960 O   0  0  0  0  0  0  0  0  0  0  0  0
   -4.5070   -0.7820   -2.1490 O   0  0  0  0  0  0  0  0  0  0  0  0
  2  1  1  6
  2  3  1  0
  2 26  1  0
  3  4  1  1
  3  5  1  0
  3  8  1  0
  5  6  1  0
  5  7  2  0
  8  9  1  0
  9 10  1  6
  9 25  1  0
 10 11  2  0
 10 24  1  0
 11 12  1  0
 12 13  2  0
 13 14  1  0
 13 23  1  0
 14 15  1  0
 15 16  2  0
 15 22  1  0
 16 17  1  0
 17 18  2  0
 18 19  1  0
 18 21  1  0
 19 20  1  0
 21 22  2  0
 23 24  2  0
 26 25  1  1
 26 27  2  0
 26 28  2  0
M  CHG  1  23   1
M  END
