
     RDKit          3D

 35 37  0  0  0  0  0  0  0  0999 V2000
   -4.6700    1.3280   -3.2750 N   0  0  0  0  0  0  0  0  0  0  0  0
   -5.2860    1.2390   -2.0730 O   0  0  0  0  0  0  0  0  0  0  0  0
   -4.9430    0.0530   -1.4130 C   0  0  2  0  0  0  0  0  0  0  0  0
   -6.1140   -0.6790   -1.1770 O   0  0  0  0  0  0  0  0  0  0  0  0
   -4.3040    0.4880   -0.0790 C   0  0  2  0  0  0  0  0  0  0  0  0
   -5.3760    1.2630    0.6080 C   0  0  0  0  0  0  0  0  0  0  0  0
   -5.2980    2.4600    0.9310 O   0  0  0  0  0  0  0  0  0  0  0  0
   -6.5770    0.6010    0.9230 O   0  0  0  0  0  0  0  0  0  0  0  0
   -3.1660    1.3760   -0.4390 C   0  0  0  0  0  0  0  0  0  0  0  0
   -1.9910    0.6150   -0.9690 C   0  0  0  0  0  0  0  0  0  0  0  0
   -1.5860   -0.5670   -0.1340 C   0  0  2  0  0  0  0  0  0  0  0  0
   -0.6860   -1.2690   -0.9140 O   0  0  0  0  0  0  0  0  0  0  0  0
    0.6120   -1.3570   -0.4880 C   0  0  0  0  0  0  0  0  0  0  0  0
    1.3480   -0.0400   -0.3830 C   0  0  0  0  0  0  0  0  0  0  0  0
    2.5720   -0.0300    0.0270 O   0  0  0  0  0  0  0  0  0  0  0  0
    3.7330   -0.4950   -0.2860 C   0  0  1  0  0  0  0  0  0  0  0  0
    3.8770   -2.0160   -0.2830 C   0  0  0  0  0  0  0  0  0  0  0  0
    5.1920   -2.3850   -0.6090 O   0  0  0  0  0  0  0  0  0  0  0  0
    4.3730   -0.0090   -1.5720 C   0  0  0  0  0  0  0  0  0  0  0  0
    4.6940    1.3600   -1.4500 O   0  0  0  0  0  0  0  0  0  0  0  0
    5.9360    1.4150   -0.8120 C   0  0  1  0  0  0  0  0  0  0  0  0
    6.1900    2.7320   -0.1510 C   0  0  0  0  0  0  0  0  0  0  0  0
    6.0480    2.5360    1.2160 O   0  0  0  0  0  0  0  0  0  0  0  0
    6.6530    1.2900    1.4190 C   0  0  0  0  0  0  0  0  0  0  0  0
    6.0320    0.4240    0.3070 C   0  0  2  0  0  0  0  0  0  0  0  0
    6.9390   -0.5830    0.0100 O   0  0  0  0  0  0  0  0  0  0  0  0
    4.7140   -0.0220    0.8020 C   0  0  0  0  0  0  0  0  0  0  0  0
   -2.7280   -1.4290    0.3020 C   0  0  2  0  0  0  0  0  0  0  0  0
   -2.2940   -2.1450    1.4320 O   0  0  0  0  0  0  0  0  0  0  0  0
   -3.0260   -2.2830   -0.7600 O   0  0  0  0  0  0  0  0  0  0  0  0
   -3.9740   -0.7140    0.7320 C   0  0  2  0  0  0  0  0  0  0  0  0
   -5.0330   -1.6300    0.4400 O   0  0  0  0  0  0  0  0  0  0  0  0
   -4.0820   -0.5430    2.2170 C   0  0  0  0  0  0  0  0  0  0  0  0
   -3.2390    0.4690    2.8640 C   0  0  0  0  0  0  0  0  0  0  0  0
   -3.5370    0.4220    4.2510 O   0  0  0  0  0  0  0  0  0  0  0  0
  1  2  1  0
  2  3  1  0
  3  4  1  1
  3  5  1  0
  5  6  1  1
  5  9  1  0
  5 31  1  0
  6  7  2  0
  6  8  1  0
  9 10  1  0
 10 11  1  0
 11 12  1  6
 11 28  1  0
 12 13  1  0
 13 14  1  0
 14 15  1  0
 15 16  1  0
 16 17  1  6
 16 19  1  0
 16 27  1  0
 17 18  1  0
 19 20  1  0
 20 21  1  0
 21 22  1  1
 21 25  1  0
 22 23  1  0
 23 24  1  0
 24 25  1  0
 25 26  1  6
 25 27  1  0
 28 29  1  1
 28 30  1  0
 28 31  1  0
 31 32  1  6
 31 33  1  0
 33 34  1  0
 34 35  1  0
M  END
