
     RDKit          3D

 35 37  0  0  0  0  0  0  0  0999 V2000
   -4.6200   -4.8780    0.7270 O   0  0  0  0  0  0  0  0  0  0  0  0
   -3.7500   -5.4080    1.4410 C   0  0  0  0  0  0  0  0  0  0  0  0
   -3.6610   -6.7880    1.5150 O   0  0  0  0  0  0  0  0  0  0  0  0
   -2.8760   -4.5750    2.1580 N   0  0  0  0  0  0  0  0  0  0  0  0
   -2.8870   -3.1270    2.1470 C   0  0  1  0  0  0  0  0  0  0  0  0
   -3.2420   -2.6030    3.3870 O   0  0  0  0  0  0  0  0  0  0  0  0
   -1.6580   -2.5030    1.6500 C   0  0  1  0  0  0  0  0  0  0  0  0
   -1.3780   -2.8430    0.3350 O   0  0  0  0  0  0  0  0  0  0  0  0
   -0.0760   -2.4340    0.0500 C   0  0  0  0  0  0  0  0  0  0  0  0
    0.0110   -0.9380    0.1660 C   0  0  2  0  0  0  0  0  0  0  0  0
    1.4900   -0.5070    0.1400 C   0  0  1  0  0  0  0  0  0  0  0  0
    2.1010   -1.0800    1.2360 O   0  0  0  0  0  0  0  0  0  0  0  0
    2.0960   -0.8440   -1.1780 C   0  0  0  0  0  0  0  0  0  0  0  0
    3.4040   -0.4770   -1.3170 O   0  0  0  0  0  0  0  0  0  0  0  0
    3.6190    0.8680   -1.1850 C   0  0  0  0  0  0  0  0  0  0  0  0
    5.0960    1.2250   -1.3690 C   0  0  2  0  0  0  0  0  0  0  0  0
    5.9170    0.4960   -0.3170 C   0  0  0  0  0  0  0  0  0  0  0  0
    6.6860    1.5530    0.4230 C   0  0  0  0  0  0  0  0  0  0  0  0
    5.7850    2.7660    0.3570 C   0  0  0  0  0  0  0  0  0  0  0  0
    5.2220    2.6980   -1.0270 C   0  0  1  0  0  0  0  0  0  0  0  0
    5.9840    3.3780   -1.9620 O   0  0  0  0  0  0  0  0  0  0  0  0
   -0.4820   -0.4460    1.3620 O   0  0  0  0  0  0  0  0  0  0  0  0
   -1.7350   -0.9970    1.7110 C   0  0  1  0  0  0  0  0  0  0  0  0
   -2.8040   -0.4180    0.8820 C   0  0  0  0  0  0  0  0  0  0  0  0
   -4.0140   -0.6930    1.0190 O   0  0  0  0  0  0  0  0  0  0  0  0
   -2.5350    0.5050   -0.1460 O   0  0  0  0  0  0  0  0  0  0  0  0
   -3.5530    1.0460   -0.9240 C   0  0  2  0  0  0  0  0  0  0  0  0
   -3.3490    0.8260   -2.3810 C   0  0  0  0  0  0  0  0  0  0  0  0
   -2.9960   -0.2930   -2.8450 O   0  0  0  0  0  0  0  0  0  0  0  0
   -3.6050    2.0060   -3.0670 O   0  0  0  0  0  0  0  0  0  0  0  0
   -4.3040    2.8600   -2.2010 C   0  0  0  0  0  0  0  0  0  0  0  0
   -3.6580    2.5390   -0.8520 C   0  0  2  0  0  0  0  0  0  0  0  0
   -2.4580    3.1950   -0.7390 O   0  0  0  0  0  0  0  0  0  0  0  0
   -4.6550    2.9810    0.2150 C   0  0  0  0  0  0  0  0  0  0  0  0
   -4.9230    4.3340    0.1250 O   0  0  0  0  0  0  0  0  0  0  0  0
  1  2  2  0
  2  3  1  0
  2  4  1  0
  4  5  1  0
  5  6  1  1
  5  7  1  0
  7  8  1  6
  7 23  1  0
  8  9  1  0
 10  9  1  1
 10 11  1  0
 10 22  1  0
 11 12  1  1
 11 13  1  0
 13 14  1  0
 14 15  1  0
 16 15  1  1
 16 17  1  0
 16 20  1  0
 17 18  1  0
 18 19  1  0
 19 20  1  0
 20 21  1  6
 22 23  1  0
 23 24  1  6
 24 25  2  0
 24 26  1  0
 27 26  1  1
 27 28  1  0
 27 32  1  0
 28 29  2  0
 28 30  1  0
 30 31  1  0
 31 32  1  0
 32 33  1  1
 32 34  1  0
 34 35  1  0
M  END
