
     RDKit          3D

 35 36  0  0  0  0  0  0  0  0999 V2000
   -1.9870    4.3640   -1.6240 C   0  0  0  0  0  0  0  0  0  0  0  0
   -0.8950    3.8340   -0.7050 C   0  0  1  0  0  0  0  0  0  0  0  0
    0.0000    5.0430   -0.3990 C   0  0  0  0  0  0  0  0  0  0  0  0
   -0.7090    6.0410    0.2370 O   0  0  0  0  0  0  0  0  0  0  0  0
   -1.3770    3.3710    0.5160 O   0  0  0  0  0  0  0  0  0  0  0  0
   -2.6340    2.8610    0.7660 C   0  0  0  0  0  0  0  0  0  0  0  0
   -3.3940    3.1980    1.7040 O   0  0  0  0  0  0  0  0  0  0  0  0
   -3.1400    1.8160   -0.1560 C   0  0  0  0  0  0  0  0  0  0  0  0
   -3.7550    0.8240    0.6490 O   0  0  0  0  0  0  0  0  0  0  0  0
   -3.3180   -0.4860    0.7350 C   0  0  0  0  0  0  0  0  0  0  0  0
   -3.0970   -1.0920    1.8120 O   0  0  0  0  0  0  0  0  0  0  0  0
   -3.0950   -1.2280   -0.5300 C   0  0  2  0  0  0  0  0  0  0  0  0
   -4.2670   -1.8040   -1.0180 O   0  0  0  0  0  0  0  0  0  0  0  0
   -2.0390   -2.2980   -0.3990 C   0  0  2  0  0  0  0  0  0  0  0  0
   -2.6990   -3.6210   -0.0850 C   0  0  2  0  0  0  0  0  0  0  0  0
   -3.4300   -3.5990    1.0730 O   0  0  0  0  0  0  0  0  0  0  0  0
   -1.7250   -4.7320   -0.0430 C   0  0  0  0  0  0  0  0  0  0  0  0
   -1.6900   -5.5570    1.1100 N   0  0  0  0  0  0  0  0  0  0  0  0
   -0.9350   -4.9420   -1.0220 O   0  0  0  0  0  0  0  0  0  0  0  0
   -1.1700   -1.9230    0.6150 O   0  0  0  0  0  0  0  0  0  0  0  0
   -0.0330   -1.3240    0.0250 C   0  0  0  0  0  0  0  0  0  0  0  0
    0.8250   -0.8110    1.1480 C   0  0  2  0  0  0  0  0  0  0  0  0
   -0.0840   -0.3790    2.1510 O   0  0  0  0  0  0  0  0  0  0  0  0
    1.6680    0.3560    0.7710 C   0  0  1  0  0  0  0  0  0  0  0  0
    2.6490    0.1470   -0.3190 C   0  0  0  0  0  0  0  0  0  0  0  0
    3.6440   -0.9080    0.0020 C   0  0  1  0  0  0  0  0  0  0  0  0
    3.1550   -2.1640    0.2410 O   0  0  0  0  0  0  0  0  0  0  0  0
    4.6790   -1.0640   -1.1230 C   0  0  0  0  0  0  0  0  0  0  0  0
    5.8320   -1.6560   -0.3140 C   0  0  0  0  0  0  0  0  0  0  0  0
    5.8310   -0.9090    0.8320 O   0  0  0  0  0  0  0  0  0  0  0  0
    4.5550   -0.5380    1.1500 C   0  0  0  0  0  0  0  0  0  0  0  0
    0.8040    1.5840    0.5350 C   0  0  0  0  0  0  0  0  0  0  0  0
    0.3920    1.6540   -0.8170 O   0  0  0  0  0  0  0  0  0  0  0  0
   -0.0750    2.8120   -1.4050 C   0  0  0  0  0  0  0  0  0  0  0  0
    0.2250    3.0000   -2.6260 O   0  0  0  0  0  0  0  0  0  0  0  0
  2  1  1  6
  2  3  1  0
  2  5  1  0
  2 34  1  0
  3  4  1  0
  5  6  1  0
  6  7  2  0
  6  8  1  0
  8  9  1  0
  9 10  1  0
 10 11  2  0
 10 12  1  0
 12 13  1  1
 12 14  1  0
 14 15  1  0
 14 20  1  1
 15 16  1  1
 15 17  1  0
 17 18  1  0
 17 19  2  0
 20 21  1  0
 21 22  1  0
 22 23  1  1
 22 24  1  0
 24 25  1  6
 24 32  1  0
 25 26  1  0
 26 27  1  1
 26 28  1  0
 26 31  1  0
 28 29  1  0
 29 30  1  0
 30 31  1  0
 32 33  1  0
 33 34  1  0
 34 35  2  0
M  END
