
     RDKit          3D

 13 13  0  0  0  0  0  0  0  0999 V2000
    3.9070    0.9490    0.5290 C   0  0  0  0  0  0  0  0  0  0  0  0
    2.9390   -0.1550    0.3870 C   0  0  0  0  0  0  0  0  0  0  0  0
    3.3690   -1.3280    0.4610 O   0  0  0  0  0  0  0  0  0  0  0  0
    1.5890    0.0240    0.1770 O   0  0  0  0  0  0  0  0  0  0  0  0
    0.7130   -1.0530    0.0480 C   0  0  0  0  0  0  0  0  0  0  0  0
   -0.7090   -0.5230   -0.1750 C   0  0  1  0  0  0  0  0  0  0  0  0
   -1.5840   -1.7770   -0.3030 C   0  0  0  0  0  0  0  0  0  0  0  0
   -1.4430   -2.4780    0.9020 O   0  0  0  0  0  0  0  0  0  0  0  0
   -1.2060    0.2370    1.0060 C   0  0  0  0  0  0  0  0  0  0  0  0
   -1.2740    1.7170    0.8080 C   0  0  0  0  0  0  0  0  0  0  0  0
   -1.9080    2.1320   -0.3190 O   0  0  0  0  0  0  0  0  0  0  0  0
   -1.8480    1.3330   -1.4070 C   0  0  0  0  0  0  0  0  0  0  0  0
   -0.7730    0.3010   -1.4130 C   0  0  0  0  0  0  0  0  0  0  0  0
  1  2  1  0
  2  3  2  0
  2  4  1  0
  4  5  1  0
  6  5  1  1
  6  7  1  0
  6  9  1  0
  6 13  1  0
  7  8  1  0
  9 10  1  0
 10 11  1  0
 11 12  1  0
 12 13  1  0
M  END
