
     RDKit          3D

 16 17  0  0  0  0  0  0  0  0999 V2000
   -1.5310   -2.1100   -1.0180 C   0  0  0  0  0  0  0  0  0  0  0  0
   -1.0350   -0.7870   -0.4190 C   0  0  2  0  0  0  0  0  0  0  0  0
    0.4770   -0.8820   -0.4140 C   0  0  2  0  0  0  0  0  0  0  0  0
    0.7920   -2.0790    0.2500 O   0  0  0  0  0  0  0  0  0  0  0  0
    1.1110    0.2400    0.3690 C   0  0  1  0  0  0  0  0  0  0  0  0
    2.6240    0.1090    0.1570 C   0  0  0  0  0  0  0  0  0  0  0  0
    3.0260    1.5710    0.2840 C   0  0  0  0  0  0  0  0  0  0  0  0
    1.9000    2.3270    0.0970 O   0  0  0  0  0  0  0  0  0  0  0  0
    0.8730    1.5350   -0.1930 N   0  0  0  0  0  0  0  0  0  0  0  0
   -1.5560   -0.7690    0.9510 N   0  0  0  0  0  0  0  0  0  0  0  0
   -2.2160    0.3580    1.4700 C   0  0  0  0  0  0  0  0  0  0  0  0
   -2.7420    0.3010    2.6130 O   0  0  0  0  0  0  0  0  0  0  0  0
   -2.3150    1.6190    0.7120 C   0  0  0  0  0  0  0  0  0  0  0  0
   -1.9990    1.4870   -0.6450 O   0  0  0  0  0  0  0  0  0  0  0  0
   -1.5400    0.3270   -1.2260 C   0  0  0  0  0  0  0  0  0  0  0  0
   -1.5620    0.2370   -2.4810 O   0  0  0  0  0  0  0  0  0  0  0  0
  2  1  1  6
  2  3  1  0
  2 10  1  0
  2 15  1  0
  3  4  1  1
  3  5  1  0
  5  6  1  6
  5  9  1  0
  6  7  1  0
  7  8  1  0
  8  9  1  0
 10 11  1  0
 11 12  2  0
 11 13  1  0
 13 14  1  0
 14 15  1  0
 15 16  2  0
M  END
