
     RDKit          3D

 13 13  0  0  0  0  0  0  0  0999 V2000
    0.8510   -1.3240    0.2190 O   0  0  0  0  0  0  0  0  0  0  0  0
    0.9630   -0.4820   -0.6750 C   0  0  0  0  0  0  0  0  0  0  0  0
    0.0370    0.5660   -1.1010 C   0  0  0  0  0  0  0  0  0  0  0  0
   -1.2400    0.7060   -0.4150 C   0  0  0  0  0  0  0  0  0  0  0  0
   -1.7870    0.0550    0.5730 C   0  0  0  0  0  0  0  0  0  0  0  0
   -1.3150   -1.0240    1.3220 O   0  0  0  0  0  0  0  0  0  0  0  0
   -3.1580    0.6230    0.8990 C   0  0  0  0  0  0  0  0  0  0  0  0
   -3.5220    1.1440   -0.4990 C   0  0  0  0  0  0  0  0  0  0  0  0
   -2.2070    1.8040   -0.8540 C   0  0  0  0  0  0  0  0  0  0  0  0
    2.1730   -0.5340   -1.4030 O   0  0  0  0  0  0  0  0  0  0  0  0
    3.1820   -1.4520   -1.1550 C   0  0  0  0  0  0  0  0  0  0  0  0
    3.7570   -1.3550    0.2490 C   0  0  0  0  0  0  0  0  0  0  0  0
    4.3010   -0.0940    0.4850 O   0  0  0  0  0  0  0  0  0  0  0  0
  1  2  2  0
  2  3  1  0
  2 10  1  0
  3  4  1  0
  4  5  2  0
  4  9  1  0
  5  6  1  0
  5  7  1  0
  7  8  1  0
  8  9  1  0
 10 11  1  0
 11 12  1  0
 12 13  1  0
M  END
