
     RDKit          3D

 29 31  0  0  0  0  0  0  0  0999 V2000
   -6.9250   -0.4150   -1.5860 C   0  0  0  0  0  0  0  0  0  0  0  0
   -5.5540    0.1080   -1.4910 N   0  0  0  0  0  0  0  0  0  0  0  0
   -5.0950    0.7480   -0.3210 C   0  0  0  0  0  0  0  0  0  0  0  0
   -6.1110    1.2480    0.5410 C   0  0  0  0  0  0  0  0  0  0  0  0
   -5.7600    2.0220    1.6120 C   0  0  0  0  0  0  0  0  0  0  0  0
   -6.7460    2.5040    2.4410 F   0  0  0  0  0  0  0  0  0  0  0  0
   -4.4360    2.3080    1.8460 C   0  0  0  0  0  0  0  0  0  0  0  0
   -3.4670    1.8180    1.0110 C   0  0  0  0  0  0  0  0  0  0  0  0
   -3.7940    1.0090   -0.1090 C   0  0  0  0  0  0  0  0  0  0  0  0
   -2.6890    0.3970   -0.8350 C   0  0  0  0  0  0  0  0  0  0  0  0
   -2.8930   -0.7950   -1.6760 C   0  0  0  0  0  0  0  0  0  0  0  0
   -1.4790    0.8550   -0.6400 N   0  0  0  0  0  0  0  0  0  0  0  0
   -0.3950    0.3200   -1.2990 N   0  0  0  0  0  0  0  0  0  0  0  0
    0.9410    0.8100   -1.0680 C   0  0  0  0  0  0  0  0  0  0  0  0
    1.8180    0.0450   -0.4510 C   0  0  0  0  0  0  0  0  0  0  0  0
    1.5010   -1.2930    0.0180 C   0  0  0  0  0  0  0  0  0  0  0  0
    0.3800   -1.8010   -0.1330 O   0  0  0  0  0  0  0  0  0  0  0  0
    2.4740   -2.1150    0.6890 N   0  0  0  0  0  0  0  0  0  0  0  0
    2.1710   -3.4450    1.1590 C   0  0  0  0  0  0  0  0  0  0  0  0
    3.7680   -1.5970    0.8930 C   0  0  0  0  0  0  0  0  0  0  0  0
    4.6450   -2.3060    1.4850 O   0  0  0  0  0  0  0  0  0  0  0  0
    4.1600   -0.2990    0.4660 N   0  0  0  0  0  0  0  0  0  0  0  0
    5.4970    0.1830    0.6990 C   0  0  0  0  0  0  0  0  0  0  0  0
    6.6110   -0.3580    0.2540 C   0  0  0  0  0  0  0  0  0  0  0  0
    7.7500    0.4550    0.7260 C   0  0  0  0  0  0  0  0  0  0  0  0
    7.1360    1.5370    1.5020 C   0  0  0  0  0  0  0  0  0  0  0  0
    5.8330    1.3660    1.4770 C   0  0  0  0  0  0  0  0  0  0  0  0
    3.1950    0.5080   -0.1970 C   0  0  0  0  0  0  0  0  0  0  0  0
    3.4830    1.6640   -0.5970 O   0  0  0  0  0  0  0  0  0  0  0  0
  1  2  1  0
  2  3  1  0
  3  4  2  0
  3  9  1  0
  4  5  1  0
  5  6  1  0
  5  7  2  0
  7  8  1  0
  8  9  2  0
  9 10  1  0
 10 11  1  0
 10 12  2  3
 12 13  1  0
 13 14  1  0
 14 15  2  3
 15 16  1  0
 15 28  1  0
 16 17  2  0
 16 18  1  0
 18 19  1  0
 18 20  1  0
 20 21  2  0
 20 22  1  0
 22 23  1  0
 22 28  1  0
 23 24  2  0
 23 27  1  0
 24 25  1  0
 25 26  1  0
 26 27  2  0
 28 29  2  0
M  END
