
     RDKit          3D

 29 33  0  0  0  0  0  0  0  0999 V2000
   -3.2620    2.5230    1.6500 C   0  0  0  0  0  0  0  0  0  0  0  0
   -3.6660    1.0460    1.5890 C   0  0  2  0  0  0  0  0  0  0  0  0
   -3.0300    0.3770    2.8000 C   0  0  0  0  0  0  0  0  0  0  0  0
   -3.2220    0.4700    0.4110 O   0  0  0  0  0  0  0  0  0  0  0  0
   -4.0150   -0.0620   -0.5710 C   0  0  0  0  0  0  0  0  0  0  0  0
   -5.3890   -0.1120   -0.5150 C   0  0  0  0  0  0  0  0  0  0  0  0
   -6.1950   -0.6450   -1.4990 C   0  0  0  0  0  0  0  0  0  0  0  0
   -5.5480   -1.1550   -2.6020 C   0  0  0  0  0  0  0  0  0  0  0  0
   -6.2470   -1.7050   -3.6360 F   0  0  0  0  0  0  0  0  0  0  0  0
   -4.1490   -1.1150   -2.6810 C   0  0  0  0  0  0  0  0  0  0  0  0
   -3.3490   -0.5880   -1.7070 C   0  0  0  0  0  0  0  0  0  0  0  0
   -1.9360   -0.5350   -1.7230 N   0  0  0  0  0  0  0  0  0  0  0  0
   -1.0820   -0.8910   -2.7990 C   0  0  0  0  0  0  0  0  0  0  0  0
   -1.5970   -1.2930   -3.8630 O   0  0  0  0  0  0  0  0  0  0  0  0
    0.3660   -0.7920   -2.6700 C   0  0  0  0  0  0  0  0  0  0  0  0
    1.1600   -1.0180   -3.7710 C   0  0  0  0  0  0  0  0  0  0  0  0
    2.5540   -0.9500   -3.6430 C   0  0  0  0  0  0  0  0  0  0  0  0
    3.0290   -0.6600   -2.4180 N   0  0  0  0  0  0  0  0  0  0  0  0
    2.2670   -0.4370   -1.3320 C   0  0  0  0  0  0  0  0  0  0  0  0
    2.8000   -0.1730   -0.0600 N   0  0  0  0  0  0  0  0  0  0  0  0
    4.2190   -0.1310    0.1820 C   0  0  0  0  0  0  0  0  0  0  0  0
    4.9010   -0.3480   -0.8930 O   0  0  0  0  0  0  0  0  0  0  0  0
    4.8050    0.0910    1.3280 N   0  0  0  0  0  0  0  0  0  0  0  0
    6.6360    0.0060    1.0750 C   0  0  0  0  0  0  0  0  0  0  0  0
    6.3340    0.1360    2.1510 C   0  0  0  0  0  0  0  0  0  0  0  0
    6.1470    0.2110    2.7770 C   0  0  0  0  0  0  0  0  0  0  0  0
    5.7960    0.3480    3.8770 C   0  0  0  0  0  0  0  0  0  0  0  0
    4.3400    0.3540    2.6560 C   0  0  0  0  0  0  0  0  0  0  0  0
    0.9270   -0.5160   -1.5200 N   0  0  0  0  0  0  0  0  0  0  0  0
  2  1  1  6
  2  3  1  0
  2  4  1  0
  4  5  1  0
  5  6  2  0
  5 11  1  0
  6  7  1  0
  7  8  2  0
  8  9  1  0
  8 10  1  0
 10 11  2  0
 11 12  1  0
 12 13  1  0
 13 14  2  0
 13 15  1  0
 15 16  2  0
 15 29  1  0
 16 17  1  0
 17 18  2  0
 18 19  1  0
 19 20  1  0
 19 29  2  0
 20 21  1  0
 21 22  2  0
 21 23  1  0
 23 24  1  0
 23 28  1  0
 24 25  1  0
 25 26  3  0
 26 27  1  0
 27 28  1  0
 25 23  1  0
 26 24  1  0
M  CHG  1  23   1
M  END
