
     RDKit          3D

 28 30  0  0  0  0  0  0  0  0999 V2000
    6.5240   -2.9900    2.6770 C   0  0  0  0  0  0  0  0  0  0  0  0
    6.7060   -1.8800    1.6690 C   0  0  0  0  0  0  0  0  0  0  0  0
    5.4090   -1.3530    1.2110 C   0  0  0  0  0  0  0  0  0  0  0  0
    4.3510   -1.8730    1.6970 O   0  0  0  0  0  0  0  0  0  0  0  0
    5.2750   -0.2840    0.2450 C   0  0  0  0  0  0  0  0  0  0  0  0
    6.3980    0.2930   -0.2950 C   0  0  0  0  0  0  0  0  0  0  0  0
    6.1960    1.3030   -1.2060 C   0  0  0  0  0  0  0  0  0  0  0  0
    4.9720    1.7110   -1.5580 N   0  0  0  0  0  0  0  0  0  0  0  0
    3.8220    1.1720   -1.0530 C   0  0  0  0  0  0  0  0  0  0  0  0
    2.5670    1.6610   -1.4760 N   0  0  0  0  0  0  0  0  0  0  0  0
    1.2940    1.2440   -1.0800 C   0  0  0  0  0  0  0  0  0  0  0  0
    1.1900    0.3210   -0.2440 O   0  0  0  0  0  0  0  0  0  0  0  0
    0.0600    1.8570   -1.6160 C   0  0  0  0  0  0  0  0  0  0  0  0
    0.1820    2.7680   -2.4410 O   0  0  0  0  0  0  0  0  0  0  0  0
   -1.2210    1.4220   -1.2040 N   0  0  0  0  0  0  0  0  0  0  0  0
   -2.4500    1.9720   -1.6320 C   0  0  0  0  0  0  0  0  0  0  0  0
   -2.5750    3.0870   -2.4800 C   0  0  0  0  0  0  0  0  0  0  0  0
   -3.9300    3.3240   -2.6360 C   0  0  0  0  0  0  0  0  0  0  0  0
   -4.5440    2.4150   -1.9330 N   0  0  0  0  0  0  0  0  0  0  0  0
   -3.6660    1.5690   -1.3060 N   0  0  0  0  0  0  0  0  0  0  0  0
   -4.1500    0.4790   -0.5590 C   0  0  0  0  0  0  0  0  0  0  0  0
   -5.4700    0.4880   -0.2670 C   0  0  0  0  0  0  0  0  0  0  0  0
   -6.3170   -0.4550    0.4770 C   0  0  0  0  0  0  0  0  0  0  0  0
   -5.6910   -0.9720    1.7530 C   0  0  0  0  0  0  0  0  0  0  0  0
   -4.5420   -1.9100    1.4760 C   0  0  0  0  0  0  0  0  0  0  0  0
   -4.1290   -1.9260    0.0460 C   0  0  0  0  0  0  0  0  0  0  0  0
   -3.2780   -0.6300   -0.1740 C   0  0  0  0  0  0  0  0  0  0  0  0
    4.0030    0.1680   -0.1460 C   0  0  0  0  0  0  0  0  0  0  0  0
  1  2  1  0
  2  3  1  0
  3  4  2  0
  3  5  1  0
  5  6  2  0
  5 28  1  0
  6  7  1  0
  7  8  2  0
  8  9  1  0
  9 10  1  0
  9 28  2  0
 10 11  1  0
 11 12  2  0
 11 13  1  0
 13 14  2  0
 13 15  1  0
 15 16  1  0
 16 17  2  0
 16 20  1  0
 17 18  1  0
 18 19  2  0
 19 20  1  0
 20 21  1  0
 21 22  2  0
 21 27  1  0
 22 23  1  0
 23 24  1  0
 24 25  1  0
 25 26  1  0
 26 27  1  0
M  END
