
     RDKit          3D

 29 31  0  0  0  0  0  0  0  0999 V2000
   -4.8100   -1.2300    4.4570 C   0  0  0  0  0  0  0  0  0  0  0  0
   -3.9110   -1.0510    3.3670 O   0  0  0  0  0  0  0  0  0  0  0  0
   -4.4020   -0.6820    2.0800 C   0  0  0  0  0  0  0  0  0  0  0  0
   -5.6220   -0.5430    2.0220 O   0  0  0  0  0  0  0  0  0  0  0  0
   -3.5070   -0.5100    1.0240 N   0  0  0  0  0  0  0  0  0  0  0  0
   -3.7920   -0.1840   -0.2950 C   0  0  0  0  0  0  0  0  0  0  0  0
   -4.9420   -0.0100   -0.9780 C   0  0  0  0  0  0  0  0  0  0  0  0
   -6.3170   -0.1700   -0.5330 C   0  0  0  0  0  0  0  0  0  0  0  0
   -7.3930   -0.3130   -0.1750 N   0  0  0  0  0  0  0  0  0  0  0  0
   -4.6170    0.3520   -2.2920 C   0  0  0  0  0  0  0  0  0  0  0  0
   -5.6160    0.6380   -3.3740 C   0  0  0  0  0  0  0  0  0  0  0  0
   -3.2930    0.3840   -2.3590 N   0  0  0  0  0  0  0  0  0  0  0  0
   -2.7820    0.0720   -1.1990 N   0  0  0  0  0  0  0  0  0  0  0  0
   -1.3710    0.0220   -0.9740 C   0  0  0  0  0  0  0  0  0  0  0  0
   -0.6520    1.1880   -1.0730 C   0  0  0  0  0  0  0  0  0  0  0  0
    0.7280    1.1320   -0.8520 C   0  0  0  0  0  0  0  0  0  0  0  0
    1.4090   -0.0090   -0.5420 C   0  0  0  0  0  0  0  0  0  0  0  0
    2.7910   -0.1400   -0.3090 N   0  0  0  0  0  0  0  0  0  0  0  0
    3.7800    0.8510   -0.3500 C   0  0  0  0  0  0  0  0  0  0  0  0
    3.3940    2.0140   -0.6300 O   0  0  0  0  0  0  0  0  0  0  0  0
    5.2160    0.6590   -0.0980 C   0  0  0  0  0  0  0  0  0  0  0  0
    6.0550    1.7070   -0.1690 C   0  0  0  0  0  0  0  0  0  0  0  0
    5.7690    2.9970   -0.4550 F   0  0  0  0  0  0  0  0  0  0  0  0
    7.4160    1.2310    0.1250 C   0  0  0  0  0  0  0  0  0  0  0  0
    7.2500   -0.2030    0.3690 C   0  0  0  0  0  0  0  0  0  0  0  0
    5.9540   -0.5440    0.2380 C   0  0  0  0  0  0  0  0  0  0  0  0
    5.4260   -1.9230    0.4150 C   0  0  0  0  0  0  0  0  0  0  0  0
    0.6210   -1.1650   -0.4550 C   0  0  0  0  0  0  0  0  0  0  0  0
   -0.7350   -1.1620   -0.6630 C   0  0  0  0  0  0  0  0  0  0  0  0
  1  2  1  0
  2  3  1  0
  3  4  2  0
  3  5  1  0
  5  6  1  0
  6  7  2  0
  6 13  1  0
  7  8  1  0
  7 10  1  0
  8  9  3  0
 10 11  1  0
 10 12  2  0
 12 13  1  0
 13 14  1  0
 14 15  2  0
 14 29  1  0
 15 16  1  0
 16 17  2  0
 17 18  1  0
 17 28  1  0
 18 19  1  0
 19 20  2  0
 19 21  1  0
 21 22  2  0
 21 26  1  0
 22 23  1  0
 22 24  1  0
 24 25  1  0
 25 26  2  0
 26 27  1  0
 28 29  2  0
M  END
