
     RDKit          3D

 30 31  0  0  0  0  0  0  0  0999 V2000
    6.4870    2.6690    0.3680 C   0  0  0  0  0  0  0  0  0  0  0  0
    5.8540    2.1710    1.6880 C   0  0  0  0  0  0  0  0  0  0  0  0
    4.5500    1.8300    1.3290 O   0  0  0  0  0  0  0  0  0  0  0  0
    4.4870    0.2870    0.6440 P   0  0  0  0  0  0  0  0  0  0  0  0
    3.9400    0.4770   -1.1750 C   0  0  0  0  0  0  0  0  0  0  0  0
    2.9910    1.6630   -1.0810 C   0  0  0  0  0  0  0  0  0  0  0  0
    1.7270    1.3950   -0.3860 C   0  0  0  0  0  0  0  0  0  0  0  0
    0.7180    0.6400   -1.1020 N   0  0  0  0  0  0  0  0  0  0  0  0
    0.0730   -0.4210   -0.4800 C   0  0  0  0  0  0  0  0  0  0  0  0
    0.8660   -1.3570    0.2090 C   0  0  0  0  0  0  0  0  0  0  0  0
    0.2810   -2.5280    0.7280 C   0  0  0  0  0  0  0  0  0  0  0  0
   -1.0550   -2.7520    0.5730 C   0  0  0  0  0  0  0  0  0  0  0  0
   -1.8370   -1.8260   -0.1050 C   0  0  0  0  0  0  0  0  0  0  0  0
   -3.0970   -2.1520   -0.5630 N   0  0  0  0  0  0  0  0  0  0  0  0
   -3.9690   -3.0300    0.0790 C   0  0  0  0  0  0  0  0  0  0  0  0
   -3.7070   -3.6160    1.1830 O   0  0  0  0  0  0  0  0  0  0  0  0
   -5.2170   -3.3150   -0.4470 O   0  0  0  0  0  0  0  0  0  0  0  0
   -6.0420   -4.1800    0.3050 C   0  0  0  0  0  0  0  0  0  0  0  0
   -1.3050   -0.6980   -0.6160 C   0  0  0  0  0  0  0  0  0  0  0  0
   -2.0500    0.5390   -0.9660 C   0  0  2  0  0  0  0  0  0  0  0  0
   -2.0600    1.1460    0.5030 C   0  0  0  0  0  0  0  0  0  0  0  0
   -3.1790    2.0770    0.5880 C   0  0  1  0  0  0  0  0  0  0  0  0
   -2.8890    3.4380    0.1890 N   0  0  0  0  0  0  0  0  0  0  0  0
   -4.2230    1.3870   -0.1920 C   0  0  2  0  0  0  0  0  0  0  0  0
   -5.2800    2.2650   -0.7500 C   0  0  0  0  0  0  0  0  0  0  0  0
   -4.9070    0.3090    0.6510 C   0  0  0  0  0  0  0  0  0  0  0  0
   -3.4010    0.6650   -1.3120 C   0  0  0  0  0  0  0  0  0  0  0  0
    5.7080   -0.8280    0.8620 O   0  0  0  0  0  0  0  0  0  0  0  0
    5.9540   -1.4860   -0.3660 C   0  0  0  0  0  0  0  0  0  0  0  0
    5.8780   -2.9810    0.0420 C   0  0  0  0  0  0  0  0  0  0  0  0
  1  2  1  0
  2  3  1  0
  3  4  1  0
  4  5  1  0
  4 28  1  0
  5  6  1  0
  6  7  1  0
  7  8  1  0
  8  9  1  0
  9 10  2  0
  9 19  1  0
 10 11  1  0
 11 12  2  0
 12 13  1  0
 13 14  1  0
 13 19  2  0
 14 15  1  0
 15 16  2  0
 15 17  1  0
 17 18  1  0
 20 19  1  1
 20 21  1  0
 20 27  1  0
 21 22  1  0
 22 23  1  6
 22 24  1  0
 24 25  1  6
 24 26  1  0
 24 27  1  0
 28 29  1  0
 29 30  1  0
M  END
