
     RDKit          3D

 31 32  0  0  0  0  0  0  0  0999 V2000
   -8.8530   -0.8030    1.1460 C   0  0  0  0  0  0  0  0  0  0  0  0
   -7.4580   -0.5550    0.5960 C   0  0  0  0  0  0  0  0  0  0  0  0
   -6.7250    0.2850    1.4080 O   0  0  0  0  0  0  0  0  0  0  0  0
   -5.1600    0.4840    0.6650 P   0  0  0  0  0  0  0  0  0  0  0  0
   -3.8840   -0.5760    1.4730 C   0  0  0  0  0  0  0  0  0  0  0  0
   -3.5410   -1.7480    0.5890 C   0  0  0  0  0  0  0  0  0  0  0  0
   -2.9990   -1.3230   -0.7400 C   0  0  0  0  0  0  0  0  0  0  0  0
   -1.8190   -0.5510   -0.7080 N   0  0  0  0  0  0  0  0  0  0  0  0
   -0.6330   -1.1850   -0.2800 C   0  0  1  0  0  0  0  0  0  0  0  0
   -0.1630   -2.3230   -1.1370 C   0  0  0  0  0  0  0  0  0  0  0  0
    0.8740   -3.0970   -0.3570 C   0  0  0  0  0  0  0  0  0  0  0  0
    1.7300   -2.1430    0.3940 C   0  0  0  0  0  0  0  0  0  0  0  0
    2.4980   -2.5460    1.3380 O   0  0  0  0  0  0  0  0  0  0  0  0
    1.7480   -0.7330    0.1110 N   0  0  0  0  0  0  0  0  0  0  0  0
    2.9430    0.0320    0.2060 C   0  0  0  0  0  0  0  0  0  0  0  0
    3.7530    0.1070   -1.0700 C   0  0  1  0  0  0  0  0  0  0  0  0
    4.2120   -1.2260   -1.5870 C   0  0  0  0  0  0  0  0  0  0  0  0
    2.8640    0.6790   -2.1990 C   0  0  0  0  0  0  0  0  0  0  0  0
    4.8860    0.9830   -0.9430 N   0  0  0  0  0  0  0  0  0  0  0  0
    5.9880    0.8210   -0.0600 C   0  0  0  0  0  0  0  0  0  0  0  0
    6.8830    1.8760    0.0420 C   0  0  0  0  0  0  0  0  0  0  0  0
    7.9680    1.7920    0.8610 C   0  0  0  0  0  0  0  0  0  0  0  0
    8.1870    0.6400    1.6050 C   0  0  0  0  0  0  0  0  0  0  0  0
    9.2850    0.5620    2.4300 O   0  0  0  0  0  0  0  0  0  0  0  0
    7.3090   -0.4150    1.5140 C   0  0  0  0  0  0  0  0  0  0  0  0
    6.2240   -0.3020    0.6810 C   0  0  0  0  0  0  0  0  0  0  0  0
    0.4660   -0.1790   -0.2660 C   0  0  0  0  0  0  0  0  0  0  0  0
    0.3730    1.0180   -0.5350 O   0  0  0  0  0  0  0  0  0  0  0  0
   -4.6740    2.1700    0.7510 O   0  0  0  0  0  0  0  0  0  0  0  0
   -5.5230    2.8590   -0.1010 C   0  0  0  0  0  0  0  0  0  0  0  0
   -5.2410    4.3400   -0.1470 C   0  0  0  0  0  0  0  0  0  0  0  0
  1  2  1  0
  2  3  1  0
  3  4  1  0
  4  5  1  0
  4 29  1  0
  5  6  1  0
  6  7  1  0
  7  8  1  0
  9  8  1  6
  9 10  1  0
  9 27  1  0
 10 11  1  0
 11 12  1  0
 12 13  2  0
 12 14  1  0
 14 15  1  0
 14 27  1  0
 15 16  1  0
 16 17  1  6
 16 18  1  0
 16 19  1  0
 19 20  1  0
 20 21  2  0
 20 26  1  0
 21 22  1  0
 22 23  2  0
 23 24  1  0
 23 25  1  0
 25 26  2  0
 27 28  2  0
 29 30  1  0
 30 31  1  0
M  END
