
     RDKit          3D

 31 32  0  0  0  0  0  0  0  0999 V2000
   -6.4590    3.4360    0.2590 C   0  0  0  0  0  0  0  0  0  0  0  0
   -5.1430    4.1470    0.1230 C   0  0  0  0  0  0  0  0  0  0  0  0
   -4.1100    3.3740   -0.4690 N   0  0  0  0  0  0  0  0  0  0  0  0
   -3.5920    2.1590    0.0300 C   0  0  0  0  0  0  0  0  0  0  0  0
   -4.0820    1.7140    1.0890 O   0  0  0  0  0  0  0  0  0  0  0  0
   -2.5180    1.3850   -0.6120 C   0  0  0  0  0  0  0  0  0  0  0  0
   -2.0940    0.1670    0.1130 C   0  0  1  0  0  0  0  0  0  0  0  0
   -3.2280   -0.7170    0.2510 N   0  0  0  0  0  0  0  0  0  0  0  0
   -3.9210   -1.3030   -0.8420 C   0  0  0  0  0  0  0  0  0  0  0  0
   -3.5070   -1.0330   -1.9900 O   0  0  0  0  0  0  0  0  0  0  0  0
   -5.0760   -2.1910   -0.6220 C   0  0  0  0  0  0  0  0  0  0  0  0
   -5.8120   -2.8040   -1.5250 C   0  0  0  0  0  0  0  0  0  0  0  0
   -6.8710   -3.5960   -0.8740 C   0  0  0  0  0  0  0  0  0  0  0  0
   -6.6380   -3.3490    0.5730 C   0  0  0  0  0  0  0  0  0  0  0  0
   -5.6040   -2.5410    0.6880 C   0  0  0  0  0  0  0  0  0  0  0  0
   -0.9660   -0.5240   -0.6400 C   0  0  0  0  0  0  0  0  0  0  0  0
    0.3310    0.2370   -0.4990 C   0  0  2  0  0  0  0  0  0  0  0  0
    1.4000   -0.2050   -1.2420 N   0  0  0  0  0  0  0  0  0  0  0  0
    2.0340   -1.4300   -1.1650 C   0  0  0  0  0  0  0  0  0  0  0  0
    2.8650   -1.6480    0.0710 C   0  0  0  0  0  0  0  0  0  0  0  0
    3.9260   -0.5690    0.0810 C   0  0  0  0  0  0  0  0  0  0  0  0
    5.0540   -0.6440    1.5270 P   0  0  0  0  0  0  0  0  0  0  0  0
    6.5040   -1.5380    1.2250 O   0  0  0  0  0  0  0  0  0  0  0  0
    6.6770   -1.8810   -0.0930 C   0  0  0  0  0  0  0  0  0  0  0  0
    7.9800   -2.6520   -0.1920 C   0  0  0  0  0  0  0  0  0  0  0  0
    5.5700    1.0030    1.8760 O   0  0  0  0  0  0  0  0  0  0  0  0
    6.4050    1.4400    0.8230 C   0  0  0  0  0  0  0  0  0  0  0  0
    6.8520    2.8400    1.0950 C   0  0  0  0  0  0  0  0  0  0  0  0
    0.6570    0.5740    0.9190 C   0  0  0  0  0  0  0  0  0  0  0  0
   -0.5750    1.3150    1.4630 C   0  0  0  0  0  0  0  0  0  0  0  0
   -1.6030    0.4150    1.3880 O   0  0  0  0  0  0  0  0  0  0  0  0
  1  2  1  0
  2  3  1  0
  3  4  1  0
  4  5  2  0
  4  6  1  0
  7  6  1  6
  7  8  1  0
  7 16  1  0
  7 31  1  0
  8  9  1  0
  9 10  2  0
  9 11  1  0
 11 12  2  0
 11 15  1  0
 12 13  1  0
 13 14  1  0
 14 15  2  0
 16 17  1  0
 17 18  1  1
 17 29  1  0
 18 19  1  0
 19 20  1  0
 20 21  1  0
 21 22  1  0
 22 23  1  0
 22 26  1  0
 23 24  1  0
 24 25  1  0
 26 27  1  0
 27 28  1  0
 29 30  1  0
 30 31  1  0
M  END
