
     RDKit          3D

 31 32  0  0  0  0  0  0  0  0999 V2000
    4.1700   -3.5020    0.3860 C   0  0  0  0  0  0  0  0  0  0  0  0
    5.0130   -2.2590    0.6540 C   0  0  0  0  0  0  0  0  0  0  0  0
    4.2390   -1.2430    1.1970 O   0  0  0  0  0  0  0  0  0  0  0  0
    5.2670    0.1230    1.4690 P   0  0  0  0  0  0  0  0  0  0  0  0
    4.6140    1.6450    0.6380 C   0  0  0  0  0  0  0  0  0  0  0  0
    3.1800    1.5440    0.3300 C   0  0  0  0  0  0  0  0  0  0  0  0
    2.6990    1.0410   -0.8530 C   0  0  0  0  0  0  0  0  0  0  0  0
    1.3580    0.9580   -1.1150 C   0  0  0  0  0  0  0  0  0  0  0  0
    0.3900    1.3760   -0.2040 C   0  0  0  0  0  0  0  0  0  0  0  0
   -0.9720    1.2530   -0.5370 N   0  0  0  0  0  0  0  0  0  0  0  0
   -2.0470    1.7440    0.1930 C   0  0  0  0  0  0  0  0  0  0  0  0
   -1.8860    2.3690    1.2570 O   0  0  0  0  0  0  0  0  0  0  0  0
   -3.4730    1.5630   -0.2360 C   0  0  2  0  0  0  0  0  0  0  0  0
   -4.4020    2.1550    0.6770 N   0  0  0  0  0  0  0  0  0  0  0  0
   -5.7370    1.9450    0.2050 C   0  0  0  0  0  0  0  0  0  0  0  0
   -6.7360    2.5500    1.1330 C   0  0  0  0  0  0  0  0  0  0  0  0
   -8.1050    2.4250    0.8030 N   0  0  0  0  0  0  0  0  0  0  0  0
   -6.4150    3.1560    2.1800 O   0  0  0  0  0  0  0  0  0  0  0  0
   -3.6930    0.0980   -0.3860 C   0  0  0  0  0  0  0  0  0  0  0  0
   -3.9030   -0.6830    0.7400 C   0  0  0  0  0  0  0  0  0  0  0  0
   -4.1050   -2.0370    0.5860 C   0  0  0  0  0  0  0  0  0  0  0  0
   -4.0930   -2.5760   -0.6830 C   0  0  0  0  0  0  0  0  0  0  0  0
   -4.3120   -4.0520   -0.8560 C   0  0  0  0  0  0  0  0  0  0  0  0
   -3.8880   -1.8330   -1.8210 C   0  0  0  0  0  0  0  0  0  0  0  0
   -3.8790   -2.3970   -3.0900 O   0  0  0  0  0  0  0  0  0  0  0  0
   -3.6860   -0.4680   -1.6400 C   0  0  0  0  0  0  0  0  0  0  0  0
    0.8720    1.8780    0.9740 C   0  0  0  0  0  0  0  0  0  0  0  0
    2.2450    1.9660    1.2500 C   0  0  0  0  0  0  0  0  0  0  0  0
    6.9050   -0.2030    1.0670 O   0  0  0  0  0  0  0  0  0  0  0  0
    7.2440    0.5880   -0.0400 C   0  0  0  0  0  0  0  0  0  0  0  0
    8.6890    0.3380   -0.4390 C   0  0  0  0  0  0  0  0  0  0  0  0
  1  2  1  0
  2  3  1  0
  3  4  1  0
  4  5  1  0
  4 29  1  0
  5  6  1  0
  6  7  2  0
  6 28  1  0
  7  8  1  0
  8  9  2  0
  9 10  1  0
  9 27  1  0
 10 11  1  0
 11 12  2  0
 11 13  1  0
 13 14  1  1
 13 19  1  0
 14 15  1  0
 15 16  1  0
 16 17  1  0
 16 18  2  0
 19 20  2  0
 19 26  1  0
 20 21  1  0
 21 22  2  0
 22 23  1  0
 22 24  1  0
 24 25  1  0
 24 26  2  0
 27 28  2  0
 29 30  1  0
 30 31  1  0
M  END
