
     RDKit          3D

 31 32  0  0  0  0  0  0  0  0999 V2000
    3.1420   -0.5150    1.5710 C   0  0  0  0  0  0  0  0  0  0  0  0
    2.4830   -0.1670    0.2570 C   0  0  1  0  0  0  0  0  0  0  0  0
    3.5690    0.4140   -0.6310 C   0  0  0  0  0  0  0  0  0  0  0  0
    4.1590    1.5290   -0.0360 O   0  0  0  0  0  0  0  0  0  0  0  0
    5.1480    2.0800   -0.8150 C   0  0  0  0  0  0  0  0  0  0  0  0
    5.7430    3.2590   -0.1410 C   0  0  0  0  0  0  0  0  0  0  0  0
    6.6700    3.9180   -0.6800 O   0  0  0  0  0  0  0  0  0  0  0  0
    5.3020    3.6800    1.1050 O   0  0  0  0  0  0  0  0  0  0  0  0
    1.9620   -1.2520   -0.4040 O   0  0  0  0  0  0  0  0  0  0  0  0
    1.0570   -2.0250    0.2400 C   0  0  2  0  0  0  0  0  0  0  0  0
    1.2960   -2.2700    1.5700 O   0  0  0  0  0  0  0  0  0  0  0  0
    1.0290   -3.3900   -0.4630 C   0  0  0  0  0  0  0  0  0  0  0  0
    2.3930   -4.0420   -0.4110 C   0  0  0  0  0  0  0  0  0  0  0  0
    2.3060   -5.3060   -1.0790 N   0  0  0  0  0  0  0  0  0  0  0  0
   -0.2970   -1.5470    0.1490 O   0  0  0  0  0  0  0  0  0  0  0  0
   -0.7100   -0.2530    0.3560 C   0  0  0  0  0  0  0  0  0  0  0  0
   -2.1000   -0.0610    0.4010 N   0  0  0  0  0  0  0  0  0  0  0  0
   -2.8330   -0.6680   -0.4550 C   0  0  0  0  0  0  0  0  0  0  0  0
   -4.1980   -0.4710   -0.4020 O   0  0  0  0  0  0  0  0  0  0  0  0
   -4.7440    0.7110    0.1200 C   0  0  1  0  0  0  0  0  0  0  0  0
   -4.4140    0.9570    1.4300 O   0  0  0  0  0  0  0  0  0  0  0  0
   -4.2550    1.8770   -0.7250 C   0  0  0  0  0  0  0  0  0  0  0  0
   -5.3020    2.7950   -0.7210 O   0  0  0  0  0  0  0  0  0  0  0  0
   -6.4820    2.0770   -0.7810 C   0  0  0  0  0  0  0  0  0  0  0  0
   -6.2190    0.7270   -0.1560 C   0  0  1  0  0  0  0  0  0  0  0  0
   -6.5520   -0.2700   -1.0870 O   0  0  0  0  0  0  0  0  0  0  0  0
   -7.0010    0.5770    0.9650 O   0  0  0  0  0  0  0  0  0  0  0  0
    0.0320    0.8170    0.5160 C   0  0  0  0  0  0  0  0  0  0  0  0
    1.5100    0.9050    0.5140 C   0  0  0  0  0  0  0  0  0  0  0  0
    2.0150    2.0570    0.7670 N   0  0  0  0  0  0  0  0  0  0  0  0
    1.1820    3.1020    1.0160 O   0  0  0  0  0  0  0  0  0  0  0  0
  2  1  1  1
  2  3  1  0
  2  9  1  0
  2 29  1  0
  3  4  1  0
  4  5  1  0
  5  6  1  0
  6  7  2  0
  6  8  1  0
  9 10  1  0
 10 11  1  1
 10 12  1  0
 10 15  1  0
 12 13  1  0
 13 14  1  0
 15 16  1  0
 16 17  1  0
 16 28  2  0
 17 18  2  3
 18 19  1  0
 19 20  1  0
 20 21  1  1
 20 22  1  0
 20 25  1  0
 22 23  1  0
 23 24  1  0
 24 25  1  0
 25 26  1  6
 25 27  1  0
 28 29  1  0
 29 30  2  3
 30 31  1  0
M  END
