
     RDKit          3D

 43 46  0  0  0  0  0  0  0  0999 V2000
    4.5680   -3.1590   -2.6930 C   0  0  0  0  0  0  0  0  0  0  0  0
    3.2510   -2.8940   -2.4220 O   0  0  0  0  0  0  0  0  0  0  0  0
    2.8610   -3.0300   -1.1140 C   0  0  2  0  0  0  0  0  0  0  0  0
    1.7770   -4.1230   -1.0620 C   0  0  0  0  0  0  0  0  0  0  0  0
    2.1620   -1.7000   -0.7470 C   0  0  0  0  0  0  0  0  0  0  0  0
    2.8880   -0.9010    0.0010 C   0  0  0  0  0  0  0  0  0  0  0  0
    4.2230   -1.2120    0.4480 C   0  0  0  0  0  0  0  0  0  0  0  0
    5.0020   -0.4440    1.2040 C   0  0  0  0  0  0  0  0  0  0  0  0
    6.3430   -0.9640    1.5500 C   0  0  0  0  0  0  0  0  0  0  0  0
    6.7230   -2.0940    1.1620 O   0  0  0  0  0  0  0  0  0  0  0  0
    7.2090   -0.1680    2.3320 N   0  0  0  0  0  0  0  0  0  0  0  0
    6.8220    1.1380    2.8040 C   0  0  0  0  0  0  0  0  0  0  0  0
    7.6490    1.7850    3.4940 O   0  0  0  0  0  0  0  0  0  0  0  0
    5.5580    1.6470    2.4880 N   0  0  0  0  0  0  0  0  0  0  0  0
    5.1520    2.9410    2.9450 C   0  0  0  0  0  0  0  0  0  0  0  0
    5.5210    4.0390    1.9700 C   0  0  0  0  0  0  0  0  0  0  0  0
    5.0980    5.2490    2.4780 O   0  0  0  0  0  0  0  0  0  0  0  0
    4.6340    0.8750    1.6920 C   0  0  0  0  0  0  0  0  0  0  0  0
    3.5290    1.4050    1.4570 O   0  0  0  0  0  0  0  0  0  0  0  0
    0.9660   -1.5140   -1.2060 O   0  0  0  0  0  0  0  0  0  0  0  0
   -0.2440   -1.3770   -1.5300 C   0  0  0  0  0  0  0  0  0  0  0  0
   -1.4250   -0.6400   -1.1100 C   0  0  0  0  0  0  0  0  0  0  0  0
   -2.4840   -1.3800   -0.6520 C   0  0  0  0  0  0  0  0  0  0  0  0
   -1.9220   -2.7610   -0.7480 C   0  0  0  0  0  0  0  0  0  0  0  0
   -2.6330   -3.7520    0.1990 C   0  0  0  0  0  0  0  0  0  0  0  0
   -3.8200   -4.3050   -0.5310 C   0  0  0  0  0  0  0  0  0  0  0  0
   -5.1200   -3.7270   -0.1240 C   0  0  0  0  0  0  0  0  0  0  0  0
   -5.1240   -2.6420    0.8540 C   0  0  0  0  0  0  0  0  0  0  0  0
   -4.6260   -1.3170    0.6890 C   0  0  0  0  0  0  0  0  0  0  0  0
   -3.8010   -0.7770   -0.3910 C   0  0  2  0  0  0  0  0  0  0  0  0
   -4.5290   -0.9410   -1.7760 C   0  0  0  0  0  0  0  0  0  0  0  0
   -3.7980    0.7390   -0.2520 C   0  0  1  0  0  0  0  0  0  0  0  0
   -4.0380    1.1810    1.1560 C   0  0  0  0  0  0  0  0  0  0  0  0
   -4.0410    2.6700    1.4010 C   0  0  0  0  0  0  0  0  0  0  0  0
   -5.0080    3.3790    0.6350 N   0  0  0  0  0  0  0  0  0  0  0  0
   -2.6640    1.4290   -0.8200 C   0  0  0  0  0  0  0  0  0  0  0  0
   -2.7980    2.8240   -1.1310 N   0  0  0  0  0  0  0  0  0  0  0  0
   -1.5500    0.8060   -1.2040 C   0  0  0  0  0  0  0  0  0  0  0  0
   -0.4610    1.6600   -1.8360 C   0  0  0  0  0  0  0  0  0  0  0  0
    0.6260    1.9410   -0.8570 C   0  0  0  0  0  0  0  0  0  0  0  0
    0.3370    2.8460    0.2930 C   0  0  2  0  0  0  0  0  0  0  0  0
   -0.0460    4.2510    0.2010 C   0  0  0  0  0  0  0  0  0  0  0  0
    1.3830    3.9460    0.5370 C   0  0  0  0  0  0  0  0  0  0  0  0
  1  2  1  0
  2  3  1  0
  3  4  1  6
  3  5  1  0
  5  6  2  3
  5 20  1  0
  6  7  1  0
  7  8  2  3
  8  9  1  0
  8 18  1  0
  9 10  2  0
  9 11  1  0
 11 12  1  0
 12 13  2  0
 12 14  1  0
 14 15  1  0
 14 18  1  0
 15 16  1  0
 16 17  1  0
 18 19  2  0
 20 21  1  0
 21 22  1  0
 22 23  2  0
 22 38  1  0
 23 24  1  0
 23 30  1  0
 24 25  1  0
 25 26  1  0
 26 27  1  0
 27 28  1  0
 28 29  1  0
 29 30  1  0
 30 31  1  6
 30 32  1  0
 32 33  1  1
 32 36  1  0
 33 34  1  0
 34 35  1  0
 36 37  1  0
 36 38  2  0
 38 39  1  0
 39 40  1  0
 41 40  1  6
 41 42  1  0
 41 43  1  0
 42 43  1  0
M  CHG  1  35   1
M  END
