
     RDKit          3D

 42 44  0  0  0  0  0  0  0  0999 V2000
   -7.8040    6.0980    0.1950 N   0  0  0  0  0  0  0  0  0  0  0  0
   -6.5520    5.9390    0.7360 O   0  0  0  0  0  0  0  0  0  0  0  0
   -5.7850    4.8410    0.3780 C   0  0  0  0  0  0  0  0  0  0  0  0
   -6.2310    4.0050   -0.4290 O   0  0  0  0  0  0  0  0  0  0  0  0
   -4.4200    4.6280    0.9400 C   0  0  2  0  0  0  0  0  0  0  0  0
   -3.5840    5.8470    0.6090 C   0  0  0  0  0  0  0  0  0  0  0  0
   -3.4950    6.0400   -0.9010 C   0  0  0  0  0  0  0  0  0  0  0  0
   -2.8970    4.8780   -1.4070 O   0  0  0  0  0  0  0  0  0  0  0  0
   -3.8400    3.4450    0.4270 O   0  0  0  0  0  0  0  0  0  0  0  0
   -3.4370    2.3970    1.2330 C   0  0  0  0  0  0  0  0  0  0  0  0
   -3.5980    2.5090    2.4710 O   0  0  0  0  0  0  0  0  0  0  0  0
   -2.8150    1.1320    0.6770 C   0  0  1  0  0  0  0  0  0  0  0  0
   -2.7810    1.3330   -0.7700 N   0  0  0  0  0  0  0  0  0  0  0  0
   -1.4720    0.9630    1.2860 C   0  0  0  0  0  0  0  0  0  0  0  0
   -0.6850   -0.2280    0.8960 C   0  0  2  0  0  0  0  0  0  0  0  0
   -0.3460   -0.3800   -0.4740 N   0  0  0  0  0  0  0  0  0  0  0  0
    0.9750   -0.9740   -0.6630 C   0  0  0  0  0  0  0  0  0  0  0  0
    2.0040    0.0290   -0.3640 C   0  0  0  0  0  0  0  0  0  0  0  0
    1.6860    1.1900   -0.0090 O   0  0  0  0  0  0  0  0  0  0  0  0
    3.3920   -0.2550   -0.4600 N   0  0  0  0  0  0  0  0  0  0  0  0
    4.3710    0.7340   -0.1660 C   0  0  0  0  0  0  0  0  0  0  0  0
    3.9570    1.8840    0.1870 O   0  0  0  0  0  0  0  0  0  0  0  0
    5.8150    0.4760   -0.2550 C   0  0  2  0  0  0  0  0  0  0  0  0
    6.2930   -0.6240    0.6520 C   0  0  0  0  0  0  0  0  0  0  0  0
    7.4570   -0.2330    1.5010 C   0  0  0  0  0  0  0  0  0  0  0  0
    8.5310    0.5150    0.7790 C   0  0  1  0  0  0  0  0  0  0  0  0
    9.4210   -0.3040    0.1290 O   0  0  0  0  0  0  0  0  0  0  0  0
    9.2840   -0.1440   -1.2270 C   0  0  0  0  0  0  0  0  0  0  0  0
    8.2500    0.7410   -1.4530 O   0  0  0  0  0  0  0  0  0  0  0  0
    8.0460    1.4450   -0.2770 C   0  0  1  0  0  0  0  0  0  0  0  0
    6.5830    1.7560   -0.0630 C   0  0  0  0  0  0  0  0  0  0  0  0
   -1.4240   -1.4290    1.4260 C   0  0  0  0  0  0  0  0  0  0  0  0
   -1.7660   -1.3870    2.6300 O   0  0  0  0  0  0  0  0  0  0  0  0
   -1.7310   -2.5320    0.6760 O   0  0  0  0  0  0  0  0  0  0  0  0
   -2.4250   -3.6590    1.1760 C   0  0  0  0  0  0  0  0  0  0  0  0
   -2.5880   -4.6850    0.0680 C   0  0  1  0  0  0  0  0  0  0  0  0
   -3.3010   -5.9010    0.5700 C   0  0  0  0  0  0  0  0  0  0  0  0
   -3.2620   -6.9790   -0.4910 C   0  0  2  0  0  0  0  0  0  0  0  0
   -1.9830   -7.4900   -0.6470 O   0  0  0  0  0  0  0  0  0  0  0  0
   -3.7510   -6.4040   -1.8030 C   0  0  0  0  0  0  0  0  0  0  0  0
   -3.1190   -5.0480   -2.0790 C   0  0  0  0  0  0  0  0  0  0  0  0
   -3.3030   -4.1690   -1.0040 O   0  0  0  0  0  0  0  0  0  0  0  0
  1  2  1  0
  2  3  1  0
  3  4  2  0
  3  5  1  0
  5  6  1  6
  5  9  1  0
  6  7  1  0
  7  8  1  0
  9 10  1  0
 10 11  2  0
 10 12  1  0
 12 13  1  6
 12 14  1  0
 15 14  1  6
 15 16  1  0
 15 32  1  0
 16 17  1  0
 17 18  1  0
 18 19  2  0
 18 20  1  0
 20 21  1  0
 21 22  2  0
 23 21  1  1
 23 24  1  0
 23 31  1  0
 24 25  1  0
 26 25  1  6
 26 27  1  0
 26 30  1  0
 27 28  1  0
 28 29  1  0
 29 30  1  0
 30 31  1  1
 32 33  2  0
 32 34  1  0
 34 35  1  0
 36 35  1  1
 36 37  1  0
 36 42  1  0
 37 38  1  0
 38 39  1  6
 38 40  1  0
 40 41  1  0
 41 42  1  0
M  CHG  2  13   1  16   1
M  END
