
     RDKit          3D

 43 48  0  0  0  0  0  0  0  0999 V2000
    2.9160   -3.2090   -0.1440 O   0  0  0  0  0  0  0  0  0  0  0  0
    2.6530   -1.9320   -0.0870 C   0  0  0  0  0  0  0  0  0  0  0  0
    1.2870   -1.5380   -0.2780 C   0  0  0  0  0  0  0  0  0  0  0  0
    0.7020   -0.3460    0.0190 C   0  0  0  0  0  0  0  0  0  0  0  0
   -0.6370   -0.0410   -0.2860 C   0  0  0  0  0  0  0  0  0  0  0  0
   -1.4680   -0.9330   -0.9090 C   0  0  0  0  0  0  0  0  0  0  0  0
   -2.7800   -0.5720   -1.3910 C   0  0  0  0  0  0  0  0  0  0  0  0
   -3.2750   -1.3120   -2.3660 O   0  0  0  0  0  0  0  0  0  0  0  0
   -3.6070    0.4720   -0.9480 N   0  0  0  0  0  0  0  0  0  0  0  0
   -4.8460    0.6170   -1.7540 C   0  0  0  0  0  0  0  0  0  0  0  0
   -6.0480    0.7960   -0.8260 C   0  0  0  0  0  0  0  0  0  0  0  0
   -5.7300    2.0590   -0.0560 C   0  0  1  0  0  0  0  0  0  0  0  0
   -6.8740    2.8090    0.4710 C   0  0  0  0  0  0  0  0  0  0  0  0
   -7.8070    2.1970    1.4220 C   0  0  0  0  0  0  0  0  0  0  0  0
   -8.5530    1.0590    1.0480 N   0  0  1  0  0  0  0  0  0  0  0  0
   -9.4690    0.7680    2.1710 C   0  0  0  0  0  0  0  0  0  0  0  0
  -10.6740    1.6290    1.9910 C   0  0  0  0  0  0  0  0  0  0  0  0
  -10.5770    2.1960    0.6050 C   0  0  0  0  0  0  0  0  0  0  0  0
   -9.5100    1.2960   -0.0100 C   0  0  0  0  0  0  0  0  0  0  0  0
   -4.6020    1.7970    0.9170 C   0  0  0  0  0  0  0  0  0  0  0  0
   -3.3690    1.2690    0.1880 C   0  0  0  0  0  0  0  0  0  0  0  0
   -0.8930   -2.1770   -1.2250 C   0  0  0  0  0  0  0  0  0  0  0  0
   -1.6590   -3.1980   -1.8190 N   0  0  0  0  0  0  0  0  0  0  0  0
   -1.1590   -4.5300   -2.0690 C   0  0  0  0  0  0  0  0  0  0  0  0
   -0.5450   -5.2940   -1.1350 C   0  0  0  0  0  0  0  0  0  0  0  0
   -0.0820   -6.5570   -1.4720 C   0  0  0  0  0  0  0  0  0  0  0  0
   -0.2210   -7.0900   -2.7490 C   0  0  0  0  0  0  0  0  0  0  0  0
   -0.8450   -6.3170   -3.6990 C   0  0  0  0  0  0  0  0  0  0  0  0
   -1.3030   -5.0590   -3.3560 C   0  0  0  0  0  0  0  0  0  0  0  0
    0.4160   -2.4440   -0.9190 C   0  0  0  0  0  0  0  0  0  0  0  0
    3.7800   -1.1330    0.1550 N   0  0  0  0  0  0  0  0  0  0  0  0
    3.8430    0.2880    0.1910 C   0  0  0  0  0  0  0  0  0  0  0  0
    5.1570    0.9260   -0.1870 C   0  0  0  0  0  0  0  0  0  0  0  0
    6.3240    0.1230    0.2000 C   0  0  1  0  0  0  0  0  0  0  0  0
    7.5130    0.8480    0.7420 C   0  0  0  0  0  0  0  0  0  0  0  0
    8.0850    1.8390   -0.2360 C   0  0  0  0  0  0  0  0  0  0  0  0
    9.2370    2.5460    0.2150 N   0  0  1  0  0  0  0  0  0  0  0  0
    9.1880    3.0920    1.5260 C   0  0  0  0  0  0  0  0  0  0  0  0
   10.1770    2.3400    2.3830 C   0  0  0  0  0  0  0  0  0  0  0  0
   11.1220    1.7040    1.4220 C   0  0  0  0  0  0  0  0  0  0  0  0
   10.4580    1.7810    0.0900 C   0  0  0  0  0  0  0  0  0  0  0  0
    5.8970   -0.9160    1.2540 C   0  0  0  0  0  0  0  0  0  0  0  0
    5.0460   -1.8820    0.4520 C   0  0  0  0  0  0  0  0  0  0  0  0
  1  2  2  0
  2  3  1  0
  2 31  1  0
  3  4  2  0
  3 30  1  0
  4  5  1  0
  5  6  2  0
  6  7  1  0
  6 22  1  0
  7  8  2  0
  7  9  1  0
  9 10  1  0
  9 21  1  0
 10 11  1  0
 11 12  1  0
 12 13  1  1
 12 20  1  0
 13 14  1  0
 15 14  1  1
 15 16  1  0
 15 19  1  0
 16 17  1  0
 17 18  1  0
 18 19  1  0
 20 21  1  0
 22 23  1  0
 22 30  2  0
 23 24  1  0
 24 25  2  0
 24 29  1  0
 25 26  1  0
 26 27  2  0
 27 28  1  0
 28 29  2  0
 31 32  1  0
 31 43  1  0
 32 33  1  0
 33 34  1  0
 34 35  1  1
 34 42  1  0
 35 36  1  0
 37 36  1  1
 37 38  1  0
 37 41  1  0
 38 39  1  0
 39 40  1  0
 40 41  1  0
 42 43  1  0
M  CHG  2  15   1  37   1
M  END
