
     RDKit          3D

 43 46  0  0  0  0  0  0  0  0999 V2000
   -0.6580   -0.0700   -0.8610 C   0  0  0  0  0  0  0  0  0  0  0  0
   -1.1540   -0.2050    0.5670 C   0  0  1  0  0  0  0  0  0  0  0  0
   -2.0110    0.9990    0.8580 C   0  0  0  0  0  0  0  0  0  0  0  0
   -1.2860    2.2910    0.8990 C   0  0  1  0  0  0  0  0  0  0  0  0
   -1.4040    2.8730    2.3150 C   0  0  0  0  0  0  0  0  0  0  0  0
    0.1530    2.2970    0.5430 C   0  0  0  0  0  0  0  0  0  0  0  0
   -1.9730    3.2730   -0.0660 C   0  0  0  0  0  0  0  0  0  0  0  0
   -3.4590    3.2690    0.0290 C   0  0  0  0  0  0  0  0  0  0  0  0
   -4.0920    2.4570   -0.9320 O   0  0  0  0  0  0  0  0  0  0  0  0
   -5.3870    2.1450   -0.5910 C   0  0  0  0  0  0  0  0  0  0  0  0
   -5.4430    0.6160   -0.3350 C   0  0  2  0  0  0  0  0  0  0  0  0
   -6.9490    0.3380   -0.2200 C   0  0  0  0  0  0  0  0  0  0  0  0
   -7.2380   -0.9730    0.0970 O   0  0  0  0  0  0  0  0  0  0  0  0
   -4.8680    0.2890    0.9480 N   0  0  0  0  0  0  0  0  0  0  0  0
   -4.2200   -0.8540    1.4070 C   0  0  0  0  0  0  0  0  0  0  0  0
   -4.7240   -1.2270    2.5810 O   0  0  0  0  0  0  0  0  0  0  0  0
   -3.1720   -1.7540    0.9950 C   0  0  0  0  0  0  0  0  0  0  0  0
   -3.2830   -3.1640    0.8950 C   0  0  0  0  0  0  0  0  0  0  0  0
   -4.5140   -4.0220    1.1410 C   0  0  0  0  0  0  0  0  0  0  0  0
   -5.3780   -4.0440   -0.0900 C   0  0  0  0  0  0  0  0  0  0  0  0
   -4.6490   -4.6510   -1.2780 C   0  0  0  0  0  0  0  0  0  0  0  0
   -4.2620   -5.9610   -1.0200 O   0  0  0  0  0  0  0  0  0  0  0  0
   -2.1220   -3.6550    0.5210 N   0  0  0  0  0  0  0  0  0  0  0  0
   -1.1930   -2.6930    0.3490 C   0  0  0  0  0  0  0  0  0  0  0  0
    0.1640   -3.0250   -0.1210 C   0  0  0  0  0  0  0  0  0  0  0  0
    0.3120   -4.1280   -0.7740 O   0  0  0  0  0  0  0  0  0  0  0  0
    1.3350   -2.2940    0.0520 N   0  0  0  0  0  0  0  0  0  0  0  0
    2.6400   -2.5850   -0.4020 C   0  0  0  0  0  0  0  0  0  0  0  0
    2.9440   -3.7400   -1.0560 C   0  0  0  0  0  0  0  0  0  0  0  0
    4.2500   -4.0290   -1.5070 C   0  0  0  0  0  0  0  0  0  0  0  0
    5.2240   -3.0990   -1.2650 C   0  0  0  0  0  0  0  0  0  0  0  0
    4.9300   -1.9200   -0.6000 C   0  0  0  0  0  0  0  0  0  0  0  0
    3.6620   -1.6400   -0.1640 C   0  0  0  0  0  0  0  0  0  0  0  0
    3.3200   -0.5080    0.4900 O   0  0  0  0  0  0  0  0  0  0  0  0
    3.9810    0.6220    0.8840 C   0  0  0  0  0  0  0  0  0  0  0  0
    4.5010    1.4430   -0.2600 C   0  0  0  0  0  0  0  0  0  0  0  0
    5.2010    2.6290    0.2120 N   0  0  2  0  0  0  0  0  0  0  0  0
    4.2290    3.7040    0.3250 C   0  0  0  0  0  0  0  0  0  0  0  0
    6.2010    3.0580   -0.7500 C   0  0  0  0  0  0  0  0  0  0  0  0
    7.5930    2.8430   -0.2460 C   0  0  1  0  0  0  0  0  0  0  0  0
    8.0440    1.4900    0.0950 C   0  0  0  0  0  0  0  0  0  0  0  0
    8.5540    2.1940   -1.1790 C   0  0  0  0  0  0  0  0  0  0  0  0
   -1.8540   -1.5130    0.6460 C   0  0  0  0  0  0  0  0  0  0  0  0
  2  1  1  6
  2  3  1  0
  2 43  1  0
  3  4  1  0
  4  5  1  1
  4  6  1  0
  4  7  1  0
  7  8  1  0
  8  9  1  0
  9 10  1  0
 10 11  1  0
 11 12  1  1
 11 14  1  0
 12 13  1  0
 14 15  1  0
 15 16  2  0
 15 17  1  0
 17 18  2  0
 17 43  1  0
 18 19  1  0
 18 23  1  0
 19 20  1  0
 20 21  1  0
 21 22  1  0
 23 24  1  0
 24 25  1  0
 24 43  2  0
 25 26  2  0
 25 27  1  0
 27 28  1  0
 28 29  2  0
 28 33  1  0
 29 30  1  0
 30 31  2  0
 31 32  1  0
 32 33  2  0
 33 34  1  0
 34 35  1  0
 35 36  1  0
 36 37  1  0
 37 38  1  6
 37 39  1  0
 40 39  1  6
 40 41  1  0
 40 42  1  0
 41 42  1  0
M  CHG  1  37   1
M  END
