
     RDKit          3D

 42 43  0  0  0  0  0  0  0  0999 V2000
    3.0570    0.8680    3.3780 C   0  0  0  0  0  0  0  0  0  0  0  0
    2.4300    0.7150    2.1370 O   0  0  0  0  0  0  0  0  0  0  0  0
    1.9220   -0.4920    1.6690 C   0  0  0  0  0  0  0  0  0  0  0  0
    2.0050   -1.5100    2.3520 O   0  0  0  0  0  0  0  0  0  0  0  0
    1.2840   -0.4210    0.2900 C   0  0  1  0  0  0  0  0  0  0  0  0
    1.4270   -1.8730   -0.1740 C   0  0  0  0  0  0  0  0  0  0  0  0
   -0.1110    0.0400    0.4710 C   0  0  2  0  0  0  0  0  0  0  0  0
   -1.0430   -0.8060    1.2370 C   0  0  0  0  0  0  0  0  0  0  0  0
   -1.0750   -0.5820    2.6980 C   0  0  0  0  0  0  0  0  0  0  0  0
   -0.2120    0.3170    3.3340 N   0  0  0  0  0  0  0  0  0  0  0  0
   -1.8680   -1.1560    3.5050 O   0  0  0  0  0  0  0  0  0  0  0  0
   -1.9630   -1.6880    0.8030 C   0  0  0  0  0  0  0  0  0  0  0  0
   -2.7400   -2.3980    1.8230 N   0  0  0  0  0  0  0  0  0  0  0  0
   -4.1830   -2.4250    1.8440 C   0  0  0  0  0  0  0  0  0  0  0  0
   -4.6240   -2.7400    0.4300 C   0  0  2  0  0  0  0  0  0  0  0  0
   -5.5580   -3.7750    0.4660 O   0  0  0  0  0  0  0  0  0  0  0  0
   -3.4300   -3.2430   -0.2940 C   0  0  0  0  0  0  0  0  0  0  0  0
   -2.4150   -2.0610   -0.5440 C   0  0  2  0  0  0  0  0  0  0  0  0
   -1.4930   -2.6910   -1.5030 C   0  0  0  0  0  0  0  0  0  0  0  0
   -3.2340   -1.0840   -1.1040 O   0  0  0  0  0  0  0  0  0  0  0  0
   -3.9780   -1.4420   -2.1700 C   0  0  0  0  0  0  0  0  0  0  0  0
   -3.2860   -1.3950   -3.4970 C   0  0  0  0  0  0  0  0  0  0  0  0
   -3.5080   -2.2750   -4.4040 O   0  0  0  0  0  0  0  0  0  0  0  0
   -2.3920   -0.3630   -3.7130 O   0  0  0  0  0  0  0  0  0  0  0  0
   -2.7550    0.9380   -3.2670 C   0  0  0  0  0  0  0  0  0  0  0  0
   -1.6300    1.5670   -2.4710 C   0  0  0  0  0  0  0  0  0  0  0  0
   -0.8690    0.5670   -1.8200 O   0  0  0  0  0  0  0  0  0  0  0  0
   -0.7420    0.9520   -0.5350 C   0  0  2  0  0  0  0  0  0  0  0  0
   -0.2540    2.3830   -0.4250 C   0  0  0  0  0  0  0  0  0  0  0  0
    0.0230    3.0990   -1.3990 O   0  0  0  0  0  0  0  0  0  0  0  0
   -0.1040    2.9460    0.8350 O   0  0  0  0  0  0  0  0  0  0  0  0
    0.3590    4.3040    0.9270 C   0  0  0  0  0  0  0  0  0  0  0  0
    0.4590    4.7690    2.3250 C   0  0  0  0  0  0  0  0  0  0  0  0
    0.9060    6.0800    2.6350 N   0  0  0  0  0  0  0  0  0  0  0  0
    0.1510    4.0140    3.2740 O   0  0  0  0  0  0  0  0  0  0  0  0
    2.1510    0.3850   -0.5520 C   0  0  2  0  0  0  0  0  0  0  0  0
    1.5940    0.4880   -1.8610 O   0  0  0  0  0  0  0  0  0  0  0  0
    3.5580   -0.0430   -0.8230 C   0  0  1  0  0  0  0  0  0  0  0  0
    4.1590    1.0270   -1.7570 C   0  0  0  0  0  0  0  0  0  0  0  0
    5.5040    0.7720   -2.1520 N   0  0  0  0  0  0  0  0  0  0  0  0
    4.4760   -0.2020    0.3110 C   0  0  0  0  0  0  0  0  0  0  0  0
    5.7370   -0.6300   -0.1880 O   0  0  0  0  0  0  0  0  0  0  0  0
  1  2  1  0
  2  3  1  0
  3  4  2  0
  3  5  1  0
  5  6  1  6
  5  7  1  0
  5 36  1  0
  7  8  1  6
  7 28  1  0
  8  9  1  0
  8 12  2  0
  9 10  1  0
  9 11  2  0
 12 13  1  0
 12 18  1  0
 13 14  1  0
 14 15  1  0
 15 16  1  1
 15 17  1  0
 17 18  1  0
 18 19  1  6
 18 20  1  0
 20 21  1  0
 21 22  1  0
 22 23  2  0
 22 24  1  0
 24 25  1  0
 25 26  1  0
 26 27  1  0
 27 28  1  0
 28 29  1  6
 29 30  2  0
 29 31  1  0
 31 32  1  0
 32 33  1  0
 33 34  1  0
 33 35  2  0
 36 37  1  6
 36 38  1  0
 38 39  1  6
 38 41  1  0
 39 40  1  0
 41 42  1  0
M  CHG  1  40   1
M  END
