
     RDKit          3D

 39 42  0  0  0  0  0  0  0  0999 V2000
   -4.7690    1.7330    0.6940 C   0  0  0  0  0  0  0  0  0  0  0  0
   -3.9540    1.5350   -0.5440 C   0  0  0  0  0  0  0  0  0  0  0  0
   -4.5440    1.4040   -1.6370 O   0  0  0  0  0  0  0  0  0  0  0  0
   -2.4500    1.4990   -0.4580 C   0  0  0  0  0  0  0  0  0  0  0  0
   -1.7960    2.6250   -0.5730 C   0  0  0  0  0  0  0  0  0  0  0  0
   -2.2550    4.0830   -0.7960 C   0  0  0  0  0  0  0  0  0  0  0  0
   -1.3450    5.0850   -0.8330 C   0  0  0  0  0  0  0  0  0  0  0  0
   -1.7680    6.3270   -1.0320 C   0  0  0  0  0  0  0  0  0  0  0  0
   -3.5390    6.2130   -1.1930 S   0  0  0  0  0  0  0  0  0  0  0  0
   -3.5340    4.3650   -0.9590 C   0  0  0  0  0  0  0  0  0  0  0  0
   -0.1360    2.1860   -0.4080 S   0  0  0  0  0  0  0  0  0  0  0  0
   -0.3960    0.4350   -0.1820 C   0  0  0  0  0  0  0  0  0  0  0  0
    0.6530   -0.4820    0.0090 N   0  0  0  0  0  0  0  0  0  0  0  0
    2.0140   -0.0070    0.0300 C   0  0  0  0  0  0  0  0  0  0  0  0
    2.1890    1.2080   -0.1260 O   0  0  0  0  0  0  0  0  0  0  0  0
    3.0640   -0.8800    0.2150 O   0  0  0  0  0  0  0  0  0  0  0  0
    4.3920   -0.4580    0.2420 C   0  0  0  0  0  0  0  0  0  0  0  0
    5.2970   -1.4030    0.4200 C   0  0  0  0  0  0  0  0  0  0  0  0
    6.7020   -1.0530    0.4600 C   0  0  0  0  0  0  0  0  0  0  0  0
    7.5630   -1.9470    0.6300 O   0  0  0  0  0  0  0  0  0  0  0  0
    7.0910    0.3370    0.3010 C   0  0  0  0  0  0  0  0  0  0  0  0
    8.3520    0.7370    0.3260 C   0  0  0  0  0  0  0  0  0  0  0  0
    9.4570   -0.2220    0.5200 C   0  0  0  0  0  0  0  0  0  0  0  0
    8.6660    2.0890    0.1680 O   0  0  0  0  0  0  0  0  0  0  0  0
    7.8340    2.8490   -0.5420 O   0  0  0  0  0  0  0  0  0  0  0  0
    6.0810    1.2490    0.1200 O   0  0  0  0  0  0  0  0  0  0  0  0
    4.7120    0.9630    0.0760 C   0  0  0  0  0  0  0  0  0  0  0  0
   -1.7640    0.3340   -0.2540 C   0  0  0  0  0  0  0  0  0  0  0  0
   -2.3330   -1.0210   -0.0950 C   0  0  0  0  0  0  0  0  0  0  0  0
   -1.5170   -1.9870    0.1200 O   0  0  0  0  0  0  0  0  0  0  0  0
   -3.6690   -1.4320   -0.1460 N   0  0  0  0  0  0  0  0  0  0  0  0
   -4.1600   -2.7720    0.0200 C   0  0  0  0  0  0  0  0  0  0  0  0
   -3.4100   -3.8760    0.2520 C   0  0  0  0  0  0  0  0  0  0  0  0
   -3.9440   -5.1660    0.4060 C   0  0  0  0  0  0  0  0  0  0  0  0
   -3.1250   -6.2490    0.6410 O   0  0  0  0  0  0  0  0  0  0  0  0
   -5.2910   -5.3430    0.3210 C   0  0  0  0  0  0  0  0  0  0  0  0
   -6.0880   -4.2520    0.0860 C   0  0  0  0  0  0  0  0  0  0  0  0
   -5.5450   -2.9670   -0.0660 C   0  0  0  0  0  0  0  0  0  0  0  0
   -6.4640   -1.9780   -0.2950 O   0  0  0  0  0  0  0  0  0  0  0  0
  1  2  1  0
  2  3  2  0
  2  4  1  0
  4  5  2  0
  4 28  1  0
  5  6  1  0
  5 11  1  0
  6  7  1  0
  6 10  2  0
  7  8  2  0
  8  9  1  0
  9 10  1  0
 11 12  1  0
 12 13  1  0
 12 28  2  0
 13 14  1  0
 14 15  2  0
 14 16  1  0
 16 17  1  0
 17 18  2  0
 17 27  1  0
 18 19  1  0
 19 20  2  0
 19 21  1  0
 21 22  2  3
 21 26  1  0
 22 23  1  0
 22 24  1  0
 24 25  1  0
 26 27  1  0
 28 29  1  0
 29 30  2  0
 29 31  1  0
 31 32  1  0
 32 33  2  0
 32 38  1  0
 33 34  1  0
 34 35  1  0
 34 36  2  0
 36 37  1  0
 37 38  2  0
 38 39  1  0
M  CHG  1  25  -1
M  END
