
     RDKit          3D

 40 43  0  0  0  0  0  0  0  0999 V2000
   -3.0660    4.9240   -2.7350 C   0  0  0  0  0  0  0  0  0  0  0  0
   -1.8560    4.2720   -3.0750 O   0  0  0  0  0  0  0  0  0  0  0  0
   -1.6610    2.9830   -2.6350 C   0  0  0  0  0  0  0  0  0  0  0  0
   -0.4870    2.3500   -2.9640 C   0  0  0  0  0  0  0  0  0  0  0  0
   -0.2720    1.0570   -2.5330 C   0  0  0  0  0  0  0  0  0  0  0  0
   -1.2040    0.4130   -1.7920 C   0  0  0  0  0  0  0  0  0  0  0  0
   -1.0110   -0.9030   -1.3390 O   0  0  0  0  0  0  0  0  0  0  0  0
   -0.4550   -1.1790   -0.1140 C   0  0  0  0  0  0  0  0  0  0  0  0
   -0.1080   -0.2410    0.6300 O   0  0  0  0  0  0  0  0  0  0  0  0
   -0.2740   -2.5760    0.3130 C   0  0  0  0  0  0  0  0  0  0  0  0
    0.4820   -2.6110    1.9600 S   0  0  0  0  0  0  0  0  0  0  0  0
    2.1760   -1.9450    1.8180 C   0  0  0  0  0  0  0  0  0  0  0  0
    2.8440   -1.8580    2.8600 O   0  0  0  0  0  0  0  0  0  0  0  0
    2.6800   -1.5530    0.5750 N   0  0  0  0  0  0  0  0  0  0  0  0
    3.9730   -1.0210    0.3620 C   0  0  0  0  0  0  0  0  0  0  0  0
    4.9040   -0.7910    1.3430 C   0  0  0  0  0  0  0  0  0  0  0  0
    6.1580   -0.2600    1.0750 C   0  0  0  0  0  0  0  0  0  0  0  0
    6.4840    0.0470   -0.2160 C   0  0  0  0  0  0  0  0  0  0  0  0
    5.5690   -0.1740   -1.2140 C   0  0  0  0  0  0  0  0  0  0  0  0
    4.3510   -0.6900   -0.9550 C   0  0  0  0  0  0  0  0  0  0  0  0
    3.4100   -0.9170   -1.9860 O   0  0  0  0  0  0  0  0  0  0  0  0
    8.0530    0.7050   -0.5800 S   0  0  1  0  0  0  0  0  0  0  0  0
    8.9340   -0.3190   -1.2480 O   0  0  0  0  0  0  0  0  0  0  0  0
    7.8180    1.8700   -1.5080 O   0  0  0  0  0  0  0  0  0  0  0  0
    8.8050    1.2650    0.9030 C   0  0  0  0  0  0  0  0  0  0  0  0
    7.9290    1.1200    2.1060 C   0  0  0  0  0  0  0  0  0  0  0  0
    7.0980   -0.0230    2.0460 O   0  0  0  0  0  0  0  0  0  0  0  0
   -2.4170    1.0190   -1.4320 C   0  0  0  0  0  0  0  0  0  0  0  0
   -3.3510    0.2960   -0.6580 N   0  0  0  0  0  0  0  0  0  0  0  0
   -4.6020    0.7150   -0.1900 C   0  0  0  0  0  0  0  0  0  0  0  0
   -5.0010    1.8690   -0.4570 O   0  0  0  0  0  0  0  0  0  0  0  0
   -5.4960   -0.1260    0.6100 C   0  0  0  0  0  0  0  0  0  0  0  0
   -6.6570    0.4030    1.1400 C   0  0  0  0  0  0  0  0  0  0  0  0
   -7.5310   -0.3480    1.8970 C   0  0  0  0  0  0  0  0  0  0  0  0
   -7.2410   -1.6410    2.1270 N   0  0  0  0  0  0  0  0  0  0  0  0
   -6.1220   -2.2100    1.6340 C   0  0  0  0  0  0  0  0  0  0  0  0
   -5.8890   -3.6380    1.9400 C   0  0  0  0  0  0  0  0  0  0  0  0
   -4.7300   -4.1330    1.3970 O   0  0  0  0  0  0  0  0  0  0  0  0
   -5.2300   -1.4520    0.8650 C   0  0  0  0  0  0  0  0  0  0  0  0
   -2.6220    2.3080   -1.8670 C   0  0  0  0  0  0  0  0  0  0  0  0
  1  2  1  0
  2  3  1  0
  3  4  2  0
  3 40  1  0
  4  5  1  0
  5  6  2  0
  6  7  1  0
  6 28  1  0
  7  8  1  0
  8  9  2  0
  8 10  1  0
 10 11  1  0
 11 12  1  0
 12 13  2  0
 12 14  1  0
 14 15  1  0
 15 16  2  0
 15 20  1  0
 16 17  1  0
 17 18  2  0
 17 27  1  0
 18 19  1  0
 18 22  1  0
 19 20  2  0
 20 21  1  0
 22 23  2  0
 22 24  2  0
 22 25  1  1
 25 26  1  0
 26 27  1  0
 28 29  1  0
 28 40  2  0
 29 30  1  0
 30 31  2  0
 30 32  1  0
 32 33  2  0
 32 39  1  0
 33 34  1  0
 34 35  2  0
 35 36  1  0
 36 37  1  0
 36 39  2  0
 37 38  1  0
M  CHG  2  21  -1  35   1
M  END
