
     RDKit          3D

 40 44  0  0  0  0  0  0  0  0999 V2000
    6.7330    1.4930    0.7660 C   0  0  0  0  0  0  0  0  0  0  0  0
    5.8500    0.7170   -0.2220 C   0  0  2  0  0  0  0  0  0  0  0  0
    5.5070    1.5150   -1.3750 N   0  0  0  0  0  0  0  0  0  0  0  0
    5.9940    0.8520   -2.5720 C   0  0  1  0  0  0  0  0  0  0  0  0
    5.6190    1.6530   -3.7760 C   0  0  0  0  0  0  0  0  0  0  0  0
    6.7450    2.6100   -4.0010 C   0  0  0  0  0  0  0  0  0  0  0  0
    7.8070    2.3030   -2.9530 C   0  0  0  0  0  0  0  0  0  0  0  0
    7.5030    0.8520   -2.6030 C   0  0  0  0  0  0  0  0  0  0  0  0
    4.6640    0.2870    0.5350 C   0  0  0  0  0  0  0  0  0  0  0  0
    3.5650    0.9370    0.9670 C   0  0  0  0  0  0  0  0  0  0  0  0
    2.6200    0.2750    1.6380 C   0  0  0  0  0  0  0  0  0  0  0  0
    2.7510   -1.0270    1.8870 C   0  0  0  0  0  0  0  0  0  0  0  0
    2.0200   -2.0610    2.5160 N   0  0  0  0  0  0  0  0  0  0  0  0
    0.7420   -1.9190    3.0950 C   0  0  0  0  0  0  0  0  0  0  0  0
    0.2440   -0.7700    3.0260 O   0  0  0  0  0  0  0  0  0  0  0  0
    0.0670   -3.0420    3.7210 C   0  0  0  0  0  0  0  0  0  0  0  0
    0.6060   -4.2550    3.9250 N   0  0  0  0  0  0  0  0  0  0  0  0
   -0.2650   -5.0410    4.4820 O   0  0  0  0  0  0  0  0  0  0  0  0
   -1.3850   -4.4010    4.6650 C   0  0  0  0  0  0  0  0  0  0  0  0
   -2.6420   -4.9080    5.2670 C   0  0  0  0  0  0  0  0  0  0  0  0
   -3.8620   -5.2510    4.0460 Cl  0  0  0  0  0  0  0  0  0  0  0  0
   -1.1930   -3.0960    4.1760 C   0  0  0  0  0  0  0  0  0  0  0  0
   -2.2330   -2.0680    4.2060 C   0  0  0  0  0  0  0  0  0  0  0  0
   -2.8150   -1.7840    2.8660 C   0  0  0  0  0  0  0  0  0  0  0  0
   -2.2810   -2.2170    1.8070 O   0  0  0  0  0  0  0  0  0  0  0  0
   -3.9610   -1.0410    2.7640 O   0  0  0  0  0  0  0  0  0  0  0  0
   -4.5900   -0.6910    1.5730 C   0  0  0  0  0  0  0  0  0  0  0  0
   -3.8660    0.3410    0.7640 C   0  0  0  0  0  0  0  0  0  0  0  0
   -4.6190    0.6030   -0.5070 C   0  0  1  0  0  0  0  0  0  0  0  0
   -4.7320   -0.6280   -1.3900 C   0  0  0  0  0  0  0  0  0  0  0  0
   -4.9690   -0.0920   -2.8090 C   0  0  0  0  0  0  0  0  0  0  0  0
   -6.0950    0.8870   -2.7580 C   0  0  0  0  0  0  0  0  0  0  0  0
   -6.6440    1.2490   -3.9460 N   0  0  0  0  0  0  0  0  0  0  0  0
   -7.6530    2.1070   -4.0210 C   0  0  0  0  0  0  0  0  0  0  0  0
   -8.1910    2.4670   -5.2240 F   0  0  0  0  0  0  0  0  0  0  0  0
   -8.1910    2.6710   -2.8920 C   0  0  0  0  0  0  0  0  0  0  0  0
   -7.6640    2.3340   -1.6620 C   0  0  0  0  0  0  0  0  0  0  0  0
   -6.5970    1.4250   -1.6000 C   0  0  0  0  0  0  0  0  0  0  0  0
   -6.0490    1.0920   -0.2490 C   0  0  0  0  0  0  0  0  0  0  0  0
    4.4010   -1.4350    1.1000 S   0  0  0  0  0  0  0  0  0  0  0  0
  2  1  1  1
  2  3  1  0
  2  9  1  0
  4  3  1  1
  4  5  1  0
  4  8  1  0
  5  6  1  0
  6  7  1  0
  7  8  1  0
  9 10  2  0
  9 40  1  0
 10 11  1  0
 11 12  2  0
 12 13  1  0
 12 40  1  0
 13 14  1  0
 14 15  2  0
 14 16  1  0
 16 17  2  0
 16 22  1  0
 17 18  1  0
 18 19  1  0
 19 20  1  0
 19 22  2  0
 20 21  1  0
 22 23  1  0
 23 24  1  0
 24 25  2  0
 24 26  1  0
 26 27  1  0
 27 28  1  0
 29 28  1  1
 29 30  1  0
 29 39  1  0
 30 31  1  0
 31 32  1  0
 32 33  2  0
 32 38  1  0
 33 34  1  0
 34 35  1  0
 34 36  2  0
 36 37  1  0
 37 38  2  0
 38 39  1  0
M  CHG  1   3   1
M  END
