
     RDKit          3D

 40 43  0  0  0  0  0  0  0  0999 V2000
   11.3750   -1.9160    0.4320 C   0  0  0  0  0  0  0  0  0  0  0  0
   10.4300   -0.8660    0.5380 O   0  0  0  0  0  0  0  0  0  0  0  0
    9.1390   -0.9840    0.0510 C   0  0  0  0  0  0  0  0  0  0  0  0
    8.8580   -2.0930   -0.4960 O   0  0  0  0  0  0  0  0  0  0  0  0
    8.1650    0.0840    0.1540 C   0  0  0  0  0  0  0  0  0  0  0  0
    6.4800    0.0310   -0.4400 S   0  0  0  0  0  0  0  0  0  0  0  0
    6.0630    1.6880    0.0920 C   0  0  0  0  0  0  0  0  0  0  0  0
    4.9080    2.2470   -0.0730 N   0  0  0  0  0  0  0  0  0  0  0  0
    3.8990    1.4890   -0.7250 C   0  0  0  0  0  0  0  0  0  0  0  0
    2.8570    2.0360   -1.1380 O   0  0  0  0  0  0  0  0  0  0  0  0
    4.0050    0.1130   -0.9410 O   0  0  0  0  0  0  0  0  0  0  0  0
    2.9950   -0.6270   -1.5900 C   0  0  0  0  0  0  0  0  0  0  0  0
    1.6980   -0.5610   -0.8640 C   0  0  0  0  0  0  0  0  0  0  0  0
    1.7230   -0.0860    0.4380 C   0  0  0  0  0  0  0  0  0  0  0  0
    0.5530   -0.0000    1.1530 C   0  0  0  0  0  0  0  0  0  0  0  0
   -0.6310   -0.3870    0.5680 C   0  0  0  0  0  0  0  0  0  0  0  0
   -0.6670   -0.8520   -0.7020 C   0  0  0  0  0  0  0  0  0  0  0  0
   -1.9160   -1.2760   -1.3920 C   0  0  0  0  0  0  0  0  0  0  0  0
   -1.8200   -1.9640   -2.4290 O   0  0  0  0  0  0  0  0  0  0  0  0
   -3.1590   -0.9020   -0.8730 N   0  0  0  0  0  0  0  0  0  0  0  0
   -4.4570   -1.2460   -1.4410 C   0  0  0  0  0  0  0  0  0  0  0  0
   -4.5650   -1.9840   -2.5580 C   0  0  0  0  0  0  0  0  0  0  0  0
   -5.8190   -2.2710   -3.0360 C   0  0  0  0  0  0  0  0  0  0  0  0
   -6.2550   -3.0530   -4.2350 C   0  0  0  0  0  0  0  0  0  0  0  0
   -6.8670   -1.4550   -1.8450 S   0  0  0  0  0  0  0  0  0  0  0  0
   -5.5850   -0.8150   -0.8330 C   0  0  0  0  0  0  0  0  0  0  0  0
   -5.8410   -0.0160    0.3630 C   0  0  0  0  0  0  0  0  0  0  0  0
   -4.9350    0.4170    1.0520 O   0  0  0  0  0  0  0  0  0  0  0  0
   -7.1470    0.2680    0.7410 O   0  0  0  0  0  0  0  0  0  0  0  0
   -7.4530    1.0200    1.8650 C   0  0  0  0  0  0  0  0  0  0  0  0
   -7.6740    0.6420    3.1720 C   0  0  0  0  0  0  0  0  0  0  0  0
   -7.9450    1.8050    3.9020 C   0  0  0  0  0  0  0  0  0  0  0  0
   -8.2210    1.8430    5.2650 O   0  0  0  0  0  0  0  0  0  0  0  0
   -7.8870    2.8180    3.0730 O   0  0  0  0  0  0  0  0  0  0  0  0
   -7.5960    2.3920    1.8460 C   0  0  0  0  0  0  0  0  0  0  0  0
   -7.4500    3.2600    0.6500 C   0  0  0  0  0  0  0  0  0  0  0  0
    0.5120   -0.9380   -1.4220 C   0  0  0  0  0  0  0  0  0  0  0  0
    7.1640    2.0980    0.6340 N   0  0  0  0  0  0  0  0  0  0  0  0
    8.2350    1.3510    0.6930 C   0  0  0  0  0  0  0  0  0  0  0  0
    9.5150    1.7460    1.2900 N   0  0  0  0  0  0  0  0  0  0  0  0
  1  2  1  0
  2  3  1  0
  3  4  2  0
  3  5  1  0
  5  6  1  0
  5 39  2  0
  6  7  1  0
  7  8  2  3
  7 38  1  0
  8  9  1  0
  9 10  2  0
  9 11  1  0
 11 12  1  0
 12 13  1  0
 13 14  2  0
 13 37  1  0
 14 15  1  0
 15 16  2  0
 16 17  1  0
 17 18  1  0
 17 37  2  0
 18 19  2  0
 18 20  1  0
 20 21  1  0
 21 22  1  0
 21 26  2  0
 22 23  2  0
 23 24  1  0
 23 25  1  0
 25 26  1  0
 26 27  1  0
 27 28  2  0
 27 29  1  0
 29 30  1  0
 30 31  1  0
 30 35  2  0
 31 32  2  0
 32 33  1  0
 32 34  1  0
 34 35  1  0
 35 36  1  0
 38 39  1  0
 39 40  1  0
M  END
