
     RDKit          3D

 40 43  0  0  0  0  0  0  0  0999 V2000
   -0.9540    5.7240   -1.9070 C   0  0  0  0  0  0  0  0  0  0  0  0
   -2.2350    5.4600   -1.7530 C   0  0  0  0  0  0  0  0  0  0  0  0
   -2.6760    4.1300   -1.3580 C   0  0  0  0  0  0  0  0  0  0  0  0
   -3.9710    3.8760   -1.2060 C   0  0  0  0  0  0  0  0  0  0  0  0
   -1.6540    3.0740   -1.1300 C   0  0  0  0  0  0  0  0  0  0  0  0
   -2.2540    1.8130   -0.7430 N   0  0  0  0  0  0  0  0  0  0  0  0
   -1.1560    0.8800   -0.5580 C   0  0  0  0  0  0  0  0  0  0  0  0
   -1.6260   -0.4590   -0.1610 C   0  0  0  0  0  0  0  0  0  0  0  0
   -2.9850   -0.7400    0.0050 C   0  0  0  0  0  0  0  0  0  0  0  0
   -3.4550   -1.9730    0.3730 C   0  0  0  0  0  0  0  0  0  0  0  0
   -4.8490   -2.3350    0.5460 C   0  0  0  0  0  0  0  0  0  0  0  0
   -5.2790   -3.5460    0.9910 N   0  0  0  0  0  0  0  0  0  0  0  0
   -6.6210   -3.5870    1.0340 C   0  0  0  0  0  0  0  0  0  0  0  0
   -7.5960   -4.9430    1.5440 S   0  0  2  0  0  0  0  0  0  0  0  0
   -8.7140   -5.1400    0.5770 O   0  0  0  0  0  0  0  0  0  0  0  0
   -8.1810   -4.6090    2.8850 O   0  0  0  0  0  0  0  0  0  0  0  0
   -7.0390   -2.3570    0.6000 C   0  0  0  0  0  0  0  0  0  0  0  0
   -5.9260   -1.6000    0.3040 N   0  0  0  0  0  0  0  0  0  0  0  0
   -6.0860   -0.2430   -0.1930 C   0  0  0  0  0  0  0  0  0  0  0  0
   -2.5050   -2.9810    0.5860 C   0  0  0  0  0  0  0  0  0  0  0  0
   -1.1650   -2.6760    0.4150 C   0  0  0  0  0  0  0  0  0  0  0  0
   -0.6910   -1.4490    0.0480 C   0  0  0  0  0  0  0  0  0  0  0  0
    0.6720   -1.1840   -0.1180 N   0  0  0  0  0  0  0  0  0  0  0  0
    1.7850   -2.0170    0.0500 C   0  0  0  0  0  0  0  0  0  0  0  0
    1.5870   -3.2030    0.4090 O   0  0  0  0  0  0  0  0  0  0  0  0
    3.1690   -1.5520   -0.1780 C   0  0  0  0  0  0  0  0  0  0  0  0
    4.2090   -2.3620    0.2110 C   0  0  0  0  0  0  0  0  0  0  0  0
    5.5290   -2.0140    0.0320 C   0  0  0  0  0  0  0  0  0  0  0  0
    5.8680   -0.8210   -0.5520 C   0  0  0  0  0  0  0  0  0  0  0  0
    7.1860   -0.4560   -0.7370 O   0  0  0  0  0  0  0  0  0  0  0  0
    7.7880    0.3910    0.1650 C   0  0  0  0  0  0  0  0  0  0  0  0
    8.2910    1.6070   -0.3070 C   0  0  0  0  0  0  0  0  0  0  0  0
    8.9100    2.5240    0.5050 C   0  0  0  0  0  0  0  0  0  0  0  0
    9.0570    2.2670    1.8380 C   0  0  0  0  0  0  0  0  0  0  0  0
    9.8490    3.4610    2.8210 Cl  0  0  0  0  0  0  0  0  0  0  0  0
    8.5710    1.0710    2.3480 C   0  0  0  0  0  0  0  0  0  0  0  0
    7.9450    0.1530    1.5020 C   0  0  0  0  0  0  0  0  0  0  0  0
    7.4880   -0.9910    2.0260 F   0  0  0  0  0  0  0  0  0  0  0  0
    4.8300    0.0120   -0.9530 C   0  0  0  0  0  0  0  0  0  0  0  0
    3.5010   -0.3590   -0.7630 C   0  0  0  0  0  0  0  0  0  0  0  0
  1  2  2  0
  2  3  1  0
  3  4  2  0
  3  5  1  0
  5  6  1  0
  6  7  1  0
  7  8  1  0
  8  9  2  0
  8 22  1  0
  9 10  1  0
 10 11  1  0
 10 20  2  0
 11 12  2  0
 11 18  1  0
 12 13  1  0
 14 13  1  6
 13 17  2  0
 14 15  2  0
 14 16  2  0
 17 18  1  0
 18 19  1  0
 20 21  1  0
 21 22  2  0
 22 23  1  0
 23 24  1  0
 24 25  2  0
 24 26  1  0
 26 27  2  0
 26 40  1  0
 27 28  1  0
 28 29  2  0
 29 30  1  0
 29 39  1  0
 30 31  1  0
 31 32  2  0
 31 37  1  0
 32 33  1  0
 33 34  2  0
 34 35  1  0
 34 36  1  0
 36 37  2  0
 37 38  1  0
 39 40  2  0
M  CHG  1  12   1
M  END
