
     RDKit          3D

 19 19  0  0  0  0  0  0  0  0999 V2000
    1.5870   -1.5960   -0.9760 C   0  0  0  0  0  0  0  0  0  0  0  0
    1.8630   -0.5480    0.0530 C   0  0  2  0  0  0  0  0  0  0  0  0
    3.3530   -0.3390    0.1460 C   0  0  0  0  0  0  0  0  0  0  0  0
    3.7120    0.6140    1.0680 O   0  0  0  0  0  0  0  0  0  0  0  0
    5.4490    0.7370    1.0580 P   0  0  0  0  0  0  0  0  0  0  0  0
    5.8920    2.3280    0.4840 O   0  0  0  0  0  0  0  0  0  0  0  0
    6.1600   -0.4100   -0.0200 O   0  0  0  0  0  0  0  0  0  0  0  0
    1.3140   -0.9580    1.2610 O   0  0  0  0  0  0  0  0  0  0  0  0
    0.0920   -0.5370    1.2880 O   0  0  0  0  0  0  0  0  0  0  0  0
   -0.1350    0.2590    0.1860 C   0  0  1  0  0  0  0  0  0  0  0  0
   -0.6310   -0.4310   -0.9180 O   0  0  0  0  0  0  0  0  0  0  0  0
   -0.8930    1.3610    0.4070 O   0  0  0  0  0  0  0  0  0  0  0  0
   -2.1530    1.1970    0.8720 C   0  0  0  0  0  0  0  0  0  0  0  0
   -3.0880    0.3970    0.0160 C   0  0  0  0  0  0  0  0  0  0  0  0
   -4.3500    0.3330    0.6550 O   0  0  0  0  0  0  0  0  0  0  0  0
   -5.4560   -0.5870   -0.3120 P   0  0  0  0  0  0  0  0  0  0  0  0
   -6.8140   -1.0840    0.6120 O   0  0  0  0  0  0  0  0  0  0  0  0
   -5.8790    0.2920   -1.7250 O   0  0  0  0  0  0  0  0  0  0  0  0
    1.1780    0.6400   -0.1860 O   0  0  0  0  0  0  0  0  0  0  0  0
  2  1  1  6
  2  3  1  0
  2  8  1  0
  2 19  1  0
  3  4  1  0
  4  5  1  0
  5  6  1  0
  5  7  1  0
  8  9  1  0
  9 10  1  0
 10 11  1  6
 10 12  1  0
 10 19  1  0
 12 13  1  0
 13 14  1  0
 14 15  1  0
 15 16  1  0
 16 17  1  0
 16 18  1  0
M  END
