
     RDKit          3D

 21 22  0  0  0  0  0  0  0  0999 V2000
    4.2780   -2.6410   -1.2140 N   0  0  0  0  0  0  0  0  0  0  0  0
    4.2810   -1.2390   -0.9670 C   0  0  0  0  0  0  0  0  0  0  0  0
    3.3670   -0.6720   -0.1640 N   0  0  0  0  0  0  0  0  0  0  0  0
    3.3240    0.6470    0.1030 C   0  0  0  0  0  0  0  0  0  0  0  0
    4.2700    1.4510   -0.4810 C   0  0  0  0  0  0  0  0  0  0  0  0
    4.0110    2.7060   -0.0590 N   0  0  0  0  0  0  0  0  0  0  0  0
    2.9360    2.6790    0.7620 C   0  0  0  0  0  0  0  0  0  0  0  0
    2.4950    1.4110    0.8760 N   0  0  0  0  0  0  0  0  0  0  0  0
    1.3770    0.9010    1.6440 C   0  0  0  0  0  0  0  0  0  0  0  0
    0.1140    0.9140    0.8060 C   0  0  0  0  0  0  0  0  0  0  0  0
   -1.0720    0.3900    1.5710 C   0  0  0  0  0  0  0  0  0  0  0  0
   -2.3120    0.4130    0.7430 C   0  0  0  0  0  0  0  0  0  0  0  0
   -2.2380   -0.4120   -0.5000 C   0  0  0  0  0  0  0  0  0  0  0  0
   -3.5490   -0.3440   -1.2980 C   0  0  0  0  0  0  0  0  0  0  0  0
   -4.9810   -0.8990   -0.4890 P   0  0  0  0  0  0  0  0  0  0  0  0
   -4.3160   -2.0090    0.3310 O   0  0  0  0  0  0  0  0  0  0  0  0
   -5.9900   -0.0960   -1.3700 O   0  0  0  0  0  0  0  0  0  0  0  0
   -5.4360   -0.1550    0.8940 O   0  0  0  0  0  0  0  0  0  0  0  0
    5.2230    0.8990   -1.3120 C   0  0  0  0  0  0  0  0  0  0  0  0
    6.1030    1.6200   -1.8600 O   0  0  0  0  0  0  0  0  0  0  0  0
    5.2000   -0.4350   -1.5310 N   0  0  0  0  0  0  0  0  0  0  0  0
  1  2  1  0
  2  3  1  0
  2 21  2  0
  3  4  1  0
  4  5  2  0
  4  8  1  0
  5  6  1  0
  5 19  1  0
  6  7  2  0
  7  8  1  0
  8  9  1  0
  9 10  1  0
 10 11  1  0
 11 12  1  0
 12 13  1  0
 13 14  1  0
 14 15  1  0
 15 16  1  0
 15 17  1  0
 15 18  1  0
 19 20  2  0
 19 21  1  0
M  CHG  1  21   1
M  END
