
     RDKit          3D

 19 19  0  0  0  0  0  0  0  0999 V2000
   -3.9970    1.3170   -0.0350 O   0  0  0  0  0  0  0  0  0  0  0  0
   -3.0010    2.0270   -0.3260 C   0  0  0  0  0  0  0  0  0  0  0  0
   -3.2060    3.3480   -0.6450 O   0  0  0  0  0  0  0  0  0  0  0  0
   -1.7450    1.4370   -0.3100 O   0  0  0  0  0  0  0  0  0  0  0  0
   -1.6300    0.0550    0.0340 C   0  0  1  0  0  0  0  0  0  0  0  0
   -2.1180   -0.1170    1.2930 O   0  0  0  0  0  0  0  0  0  0  0  0
   -2.0900   -1.6750    1.9270 P   0  0  0  0  0  0  0  0  0  0  0  0
   -0.5570   -2.3390    2.2330 O   0  0  0  0  0  0  0  0  0  0  0  0
   -3.2460   -2.7620    1.3180 O   0  0  0  0  0  0  0  0  0  0  0  0
   -2.1960   -0.8480   -1.0070 C   0  0  0  0  0  0  0  0  0  0  0  0
   -1.3610   -1.9190   -1.0200 O   0  0  0  0  0  0  0  0  0  0  0  0
   -0.3160   -1.7170   -0.3160 O   0  0  0  0  0  0  0  0  0  0  0  0
   -0.1520   -0.3590   -0.0900 C   0  0  2  0  0  0  0  0  0  0  0  0
    0.5620   -0.0570    1.0220 O   0  0  0  0  0  0  0  0  0  0  0  0
    1.6510    0.7390    0.7420 C   0  0  0  0  0  0  0  0  0  0  0  0
    2.6110    0.0260   -0.1460 C   0  0  0  0  0  0  0  0  0  0  0  0
    4.1040    1.0600   -0.5460 P   0  0  0  0  0  0  0  0  0  0  0  0
    4.7950    0.5170   -2.0630 O   0  0  0  0  0  0  0  0  0  0  0  0
    5.3320    0.8970    0.6660 O   0  0  0  0  0  0  0  0  0  0  0  0
  1  2  2  0
  2  3  1  0
  2  4  1  0
  5  4  1  6
  5  6  1  0
  5 10  1  0
  5 13  1  0
  6  7  1  0
  7  8  1  0
  7  9  1  0
 10 11  1  0
 11 12  1  0
 12 13  1  0
 13 14  1  1
 14 15  1  0
 15 16  1  0
 16 17  1  0
 17 18  1  0
 17 19  1  0
M  END
