
     RDKit          3D

 20 20  0  0  0  0  0  0  0  0999 V2000
   -2.7280    4.5370    2.4850 O   0  0  0  0  0  0  0  0  0  0  0  0
   -1.4680    3.6590    2.7830 P   0  0  0  0  0  0  0  0  0  0  0  0
   -0.5240    2.8480    1.3990 C   0  0  0  0  0  0  0  0  0  0  0  0
   -0.9750    1.5410    1.3000 O   0  0  0  0  0  0  0  0  0  0  0  0
   -0.3420    0.8270    0.2960 C   0  0  1  0  0  0  0  0  0  0  0  0
   -1.0190   -0.5310    0.2230 C   0  0  0  0  0  0  0  0  0  0  0  0
   -2.3730   -0.2660   -0.0750 O   0  0  0  0  0  0  0  0  0  0  0  0
   -3.2660   -1.7370   -0.1880 P   0  0  0  0  0  0  0  0  0  0  0  0
   -4.4070   -1.7050   -1.4880 O   0  0  0  0  0  0  0  0  0  0  0  0
   -2.1560   -3.0440   -0.3070 O   0  0  0  0  0  0  0  0  0  0  0  0
   -0.6040    1.4960   -0.9050 O   0  0  0  0  0  0  0  0  0  0  0  0
    0.3190    1.2240   -1.8300 O   0  0  0  0  0  0  0  0  0  0  0  0
    1.1600    0.1220   -1.6880 C   0  0  0  0  0  0  0  0  0  0  0  0
    1.5080   -0.6040   -2.6570 O   0  0  0  0  0  0  0  0  0  0  0  0
    1.6410   -0.1660   -0.2950 C   0  0  1  0  0  0  0  0  0  0  0  0
    3.0340   -0.0270   -0.1930 O   0  0  0  0  0  0  0  0  0  0  0  0
    3.8250   -1.1080    0.1520 C   0  0  0  0  0  0  0  0  0  0  0  0
    3.2370   -2.1990    0.3640 O   0  0  0  0  0  0  0  0  0  0  0  0
    5.2230   -0.9980    0.2620 O   0  0  0  0  0  0  0  0  0  0  0  0
    1.0110    0.7340    0.5600 O   0  0  0  0  0  0  0  0  0  0  0  0
  1  2  2  0
  2  3  1  0
  3  4  1  0
  4  5  1  0
  5  6  1  6
  5 11  1  0
  5 20  1  0
  6  7  1  0
  7  8  1  0
  8  9  1  0
  8 10  1  0
 11 12  1  0
 12 13  1  0
 13 14  2  0
 13 15  1  0
 15 16  1  6
 15 20  1  0
 16 17  1  0
 17 18  2  0
 17 19  1  0
M  END
