
     RDKit          3D

 31 31  0  0  0  0  0  0  0  0999 V2000
    0.2960   -2.8450   -2.1440 C   0  0  0  0  0  0  0  0  0  0  0  0
   -1.1090   -2.7370   -1.6830 C   0  0  1  0  0  0  0  0  0  0  0  0
   -1.4500   -4.0790   -1.0080 C   0  0  0  0  0  0  0  0  0  0  0  0
   -1.4140   -1.6830   -0.6680 C   0  0  0  0  0  0  0  0  0  0  0  0
   -1.1130   -0.2890   -1.1010 C   0  0  2  0  0  0  0  0  0  0  0  0
    0.2410   -0.0640   -1.3740 N   0  0  0  0  0  0  0  0  0  0  0  0
    1.4510   -0.0490   -0.2320 P   0  0  0  0  0  0  0  0  0  0  0  0
    1.7800   -1.4610    0.6480 O   0  0  0  0  0  0  0  0  0  0  0  0
    2.5250   -0.6080   -1.2010 O   0  0  0  0  0  0  0  0  0  0  0  0
    2.2910    1.4290    0.1850 C   0  0  0  0  0  0  0  0  0  0  0  0
    3.1760    1.1820    1.2980 N   0  0  0  0  0  0  0  0  0  0  0  0
    4.3080    0.3320    1.2730 C   0  0  0  0  0  0  0  0  0  0  0  0
    4.6260   -0.2730    0.2380 O   0  0  0  0  0  0  0  0  0  0  0  0
    5.1130    0.1440    2.4130 O   0  0  0  0  0  0  0  0  0  0  0  0
    6.2440   -0.7190    2.3350 C   0  0  0  0  0  0  0  0  0  0  0  0
    7.2260   -0.2410    1.3150 C   0  0  0  0  0  0  0  0  0  0  0  0
    8.2390   -1.0860    0.9570 C   0  0  0  0  0  0  0  0  0  0  0  0
    9.1960   -0.7360    0.0280 C   0  0  0  0  0  0  0  0  0  0  0  0
    9.1200    0.5210   -0.5600 C   0  0  0  0  0  0  0  0  0  0  0  0
    8.1020    1.3880   -0.2090 C   0  0  0  0  0  0  0  0  0  0  0  0
    7.1620    1.0000    0.7270 C   0  0  0  0  0  0  0  0  0  0  0  0
   -1.7230    0.7040   -0.1790 C   0  0  0  0  0  0  0  0  0  0  0  0
   -1.0690    1.6520    0.3190 O   0  0  0  0  0  0  0  0  0  0  0  0
   -3.1110    0.6220    0.1880 N   0  0  0  0  0  0  0  0  0  0  0  0
   -3.6770    1.5980    1.0850 C   0  0  0  0  0  0  0  0  0  0  0  0
   -5.1220    1.3670    1.3360 C   0  0  2  0  0  0  0  0  0  0  0  0
   -5.3170   -0.0070    1.9270 C   0  0  0  0  0  0  0  0  0  0  0  0
   -6.0180    1.6880    0.1920 C   0  0  2  0  0  0  0  0  0  0  0  0
   -5.9100    3.1480   -0.2270 C   0  0  0  0  0  0  0  0  0  0  0  0
   -7.4670    1.5400    0.6980 C   0  0  0  0  0  0  0  0  0  0  0  0
   -5.8720    0.8210   -1.0160 C   0  0  0  0  0  0  0  0  0  0  0  0
  2  1  1  1
  2  3  1  0
  2  4  1  0
  5  4  1  1
  5  6  1  0
  5 22  1  0
  6  7  1  0
  7  8  1  0
  7  9  1  0
  7 10  1  0
 10 11  1  0
 11 12  1  0
 12 13  2  0
 12 14  1  0
 14 15  1  0
 15 16  1  0
 16 17  2  0
 16 21  1  0
 17 18  1  0
 18 19  2  0
 19 20  1  0
 20 21  2  0
 22 23  2  0
 22 24  1  0
 24 25  1  0
 25 26  1  0
 26 27  1  6
 26 28  1  0
 28 29  1  6
 28 30  1  0
 28 31  1  0
M  END
