
     RDKit          3D

 30 31  0  0  0  0  0  0  0  0999 V2000
    7.5540   -2.6340    0.2300 C   0  0  0  0  0  0  0  0  0  0  0  0
    6.2570   -2.3120   -0.5050 C   0  0  0  0  0  0  0  0  0  0  0  0
    5.4600   -1.7870    0.5700 O   0  0  0  0  0  0  0  0  0  0  0  0
    4.9370   -0.3190    0.3250 P   0  0  0  0  0  0  0  0  0  0  0  0
    3.9090    0.4750   -0.8810 C   0  0  0  0  0  0  0  0  0  0  0  0
    2.8240    1.2150   -0.0370 C   0  0  0  0  0  0  0  0  0  0  0  0
    1.7590    0.2000    0.3880 C   0  0  0  0  0  0  0  0  0  0  0  0
    1.0880   -0.0310   -0.8880 N   0  0  0  0  0  0  0  0  0  0  0  0
   -0.0180   -0.9140   -0.8770 C   0  0  1  0  0  0  0  0  0  0  0  0
    0.4520   -2.3360   -0.7410 C   0  0  0  0  0  0  0  0  0  0  0  0
   -0.8900   -0.5440    0.3320 C   0  0  2  0  0  0  0  0  0  0  0  0
   -2.0990   -1.3660    0.4610 C   0  0  0  0  0  0  0  0  0  0  0  0
   -3.2540   -0.7090    1.0130 C   0  0  0  0  0  0  0  0  0  0  0  0
   -4.2830   -1.3020    1.8790 N   0  0  0  0  0  0  0  0  0  0  0  0
   -5.5880   -0.8340    1.4010 C   0  0  0  0  0  0  0  0  0  0  0  0
   -6.4890   -1.6570    0.8270 C   0  0  0  0  0  0  0  0  0  0  0  0
   -7.5550   -1.1000    0.0910 C   0  0  0  0  0  0  0  0  0  0  0  0
   -7.6800    0.2510   -0.0490 C   0  0  0  0  0  0  0  0  0  0  0  0
   -8.7450    0.7950   -0.8200 O   0  0  0  0  0  0  0  0  0  0  0  0
   -6.7780    1.0940    0.5350 C   0  0  0  0  0  0  0  0  0  0  0  0
   -6.9590    2.4610    0.3580 O   0  0  0  0  0  0  0  0  0  0  0  0
   -5.7330    0.5550    1.2640 C   0  0  0  0  0  0  0  0  0  0  0  0
   -3.5070    0.5890    0.7290 N   0  0  0  0  0  0  0  0  0  0  0  0
   -2.5450    1.2290   -0.1530 C   0  0  2  0  0  0  0  0  0  0  0  0
   -2.9580    1.4830   -1.5390 C   0  0  0  0  0  0  0  0  0  0  0  0
   -3.4550    0.2910   -2.3070 C   0  0  0  0  0  0  0  0  0  0  0  0
   -1.1480    0.9240    0.2120 C   0  0  0  0  0  0  0  0  0  0  0  0
    5.9610    0.9170    1.0900 O   0  0  0  0  0  0  0  0  0  0  0  0
    6.5970    1.6620    0.0730 C   0  0  0  0  0  0  0  0  0  0  0  0
    6.9980    3.0020    0.7340 C   0  0  0  0  0  0  0  0  0  0  0  0
  1  2  1  0
  2  3  1  0
  3  4  1  0
  4  5  1  0
  4 28  1  0
  5  6  1  0
  6  7  1  0
  7  8  1  0
  8  9  1  0
  9 10  1  1
  9 11  1  0
 11 12  1  6
 11 27  1  0
 12 13  1  0
 13 14  1  0
 13 23  2  0
 14 15  1  0
 15 16  2  0
 15 22  1  0
 16 17  1  0
 17 18  2  0
 18 19  1  0
 18 20  1  0
 20 21  1  0
 20 22  2  0
 23 24  1  0
 24 25  1  6
 24 27  1  0
 25 26  1  0
 28 29  1  0
 29 30  1  0
M  END
