
     RDKit          3D

 31 31  0  0  0  0  0  0  0  0999 V2000
   -2.8070    6.4790   -1.0670 C   0  0  0  0  0  0  0  0  0  0  0  0
   -1.9570    6.6870   -0.0120 O   0  0  0  0  0  0  0  0  0  0  0  0
   -0.9160    5.3910    0.3600 P   0  0  0  0  0  0  0  0  0  0  0  0
   -1.7240    3.9860    1.2340 C   0  0  0  0  0  0  0  0  0  0  0  0
   -0.6830    3.2930    2.0830 C   0  0  0  0  0  0  0  0  0  0  0  0
   -0.8660    1.7930    2.1150 C   0  0  2  0  0  0  0  0  0  0  0  0
   -1.5130    1.3410    3.4110 C   0  0  0  0  0  0  0  0  0  0  0  0
    0.4680    1.1590    1.9150 C   0  0  0  0  0  0  0  0  0  0  0  0
    0.5180   -0.0360    1.0430 C   0  0  1  0  0  0  0  0  0  0  0  0
   -0.8300   -0.5700    0.6560 C   0  0  0  0  0  0  0  0  0  0  0  0
   -1.6820   -0.8480    1.5460 O   0  0  0  0  0  0  0  0  0  0  0  0
   -1.1940   -0.7810   -0.6970 N   0  0  0  0  0  0  0  0  0  0  0  0
   -2.5120   -1.3040   -0.9940 C   0  0  0  0  0  0  0  0  0  0  0  0
   -2.7700   -2.6540   -0.4030 C   0  0  0  0  0  0  0  0  0  0  0  0
   -4.1940   -3.0430   -0.8220 C   0  0  1  0  0  0  0  0  0  0  0  0
   -4.4940   -4.3960   -0.2470 C   0  0  0  0  0  0  0  0  0  0  0  0
   -5.1710   -2.0390   -0.3010 C   0  0  0  0  0  0  0  0  0  0  0  0
    1.3930    0.1060   -0.1000 N   0  0  0  0  0  0  0  0  0  0  0  0
    1.8830   -1.1280   -0.6770 C   0  0  0  0  0  0  0  0  0  0  0  0
    3.1810   -1.4300    0.0730 C   0  0  0  0  0  0  0  0  0  0  0  0
    3.7960   -2.7080   -0.4440 C   0  0  0  0  0  0  0  0  0  0  0  0
    5.0770   -2.9260    0.3570 C   0  0  0  0  0  0  0  0  0  0  0  0
    5.7920   -4.1870   -0.0700 C   0  0  0  0  0  0  0  0  0  0  0  0
    6.1800   -4.1410   -1.5310 C   0  0  0  0  0  0  0  0  0  0  0  0
    7.0210   -3.0740   -1.7660 O   0  0  0  0  0  0  0  0  0  0  0  0
    1.8120    1.3400   -0.6790 C   0  0  0  0  0  0  0  0  0  0  0  0
    3.0440    1.4650   -1.0630 O   0  0  0  0  0  0  0  0  0  0  0  0
    0.9880    2.4790   -0.8800 N   0  0  0  0  0  0  0  0  0  0  0  0
   -0.2780    2.5090   -1.5620 C   0  0  0  0  0  0  0  0  0  0  0  0
   -0.6720    3.9590   -1.7940 C   0  0  0  0  0  0  0  0  0  0  0  0
    0.0280    4.8120   -0.9450 O   0  0  0  0  0  0  0  0  0  0  0  0
  1  2  1  0
  2  3  1  0
  3  4  1  0
  3 31  1  0
  4  5  1  0
  5  6  1  0
  6  7  1  1
  6  8  1  0
  8  9  1  0
  9 10  1  6
  9 18  1  0
 10 11  2  0
 10 12  1  0
 12 13  1  0
 13 14  1  0
 14 15  1  0
 15 16  1  1
 15 17  1  0
 18 19  1  0
 18 26  1  0
 19 20  1  0
 20 21  1  0
 21 22  1  0
 22 23  1  0
 23 24  1  0
 24 25  1  0
 26 27  2  0
 26 28  1  0
 28 29  1  0
 29 30  1  0
 30 31  1  0
M  END
