
     RDKit          3D

 30 30  0  0  0  0  0  0  0  0999 V2000
    6.2450   -1.8100   -1.3130 C   0  0  0  0  0  0  0  0  0  0  0  0
    6.5480   -1.3340   -0.1220 C   0  0  0  0  0  0  0  0  0  0  0  0
    7.9650   -1.1740    0.2620 C   0  0  0  0  0  0  0  0  0  0  0  0
    8.4890    0.5140    0.7250 P   0  0  0  0  0  0  0  0  0  0  0  0
    8.5120    1.6830   -0.7330 C   0  0  0  0  0  0  0  0  0  0  0  0
    7.5050    1.2210    1.9840 O   0  0  0  0  0  0  0  0  0  0  0  0
    5.4930   -0.8850    0.7540 C   0  0  0  0  0  0  0  0  0  0  0  0
    5.6990   -0.4520    1.9370 O   0  0  0  0  0  0  0  0  0  0  0  0
    4.1410   -0.8830    0.3330 N   0  0  0  0  0  0  0  0  0  0  0  0
    3.1630   -0.2760    1.2760 C   0  0  0  0  0  0  0  0  0  0  0  0
    1.8890   -0.0350    0.6370 C   0  0  0  0  0  0  0  0  0  0  0  0
    0.9460   -1.0200    0.3060 C   0  0  0  0  0  0  0  0  0  0  0  0
   -0.2670   -0.6460   -0.1960 C   0  0  0  0  0  0  0  0  0  0  0  0
   -1.3870   -1.4850   -0.5990 C   0  0  0  0  0  0  0  0  0  0  0  0
   -2.6370   -1.2860    0.3300 C   0  0  0  0  0  0  0  0  0  0  0  0
   -3.8390   -1.5120   -0.5170 C   0  0  2  0  0  0  0  0  0  0  0  0
   -3.7150   -0.4640   -1.6260 N   0  0  0  0  0  0  0  0  0  0  0  0
   -4.1990    0.8440   -1.3820 C   0  0  0  0  0  0  0  0  0  0  0  0
   -3.9990    1.8930   -2.4210 C   0  0  0  0  0  0  0  0  0  0  0  0
   -4.7690    1.1400   -0.3050 O   0  0  0  0  0  0  0  0  0  0  0  0
   -5.1790   -1.4280   -0.1020 C   0  0  0  0  0  0  0  0  0  0  0  0
   -6.0690   -1.3390   -1.0430 O   0  0  0  0  0  0  0  0  0  0  0  0
   -5.7320   -1.4230    1.1900 N   0  0  0  0  0  0  0  0  0  0  0  0
   -7.1430   -1.3610    1.4740 C   0  0  0  0  0  0  0  0  0  0  0  0
   -7.9280   -0.2210    0.9690 C   0  0  0  0  0  0  0  0  0  0  0  0
   -7.5510    1.1510    1.4070 C   0  0  0  0  0  0  0  0  0  0  0  0
   -0.5660    0.7260   -0.3830 C   0  0  0  0  0  0  0  0  0  0  0  0
    0.3210    1.6870   -0.0640 C   0  0  0  0  0  0  0  0  0  0  0  0
    1.5330    1.3330    0.4380 C   0  0  0  0  0  0  0  0  0  0  0  0
    2.5020    2.4180    0.6830 C   0  0  0  0  0  0  0  0  0  0  0  0
  1  2  2  0
  2  3  1  0
  2  7  1  0
  3  4  1  0
  4  5  1  0
  4  6  1  0
  7  8  2  0
  7  9  1  0
  9 10  1  0
 10 11  1  0
 11 12  2  0
 11 29  1  0
 12 13  1  0
 13 14  1  0
 13 27  2  0
 14 15  1  0
 16 15  1  1
 16 17  1  0
 16 21  1  0
 17 18  1  0
 18 19  1  0
 18 20  2  0
 21 22  2  0
 21 23  1  0
 23 24  1  0
 24 25  1  0
 25 26  1  0
 27 28  1  0
 28 29  2  0
 29 30  1  0
M  END
