
     RDKit          3D

 31 31  0  0  0  0  0  0  0  0999 V2000
    0.8730    6.7990   -1.4710 C   0  0  0  0  0  0  0  0  0  0  0  0
    0.6420    5.9350   -0.2370 C   0  0  0  0  0  0  0  0  0  0  0  0
    1.2210    4.6010   -0.4670 C   0  0  0  0  0  0  0  0  0  0  0  0
    0.4540    3.4770   -0.4640 C   0  0  0  0  0  0  0  0  0  0  0  0
    1.1160    2.2150   -0.6960 C   0  0  0  0  0  0  0  0  0  0  0  0
    0.6710    1.0070   -0.7280 C   0  0  0  0  0  0  0  0  0  0  0  0
    1.6890   -0.0560   -1.0150 C   0  0  0  0  0  0  0  0  0  0  0  0
    2.9640    0.1010   -0.4700 N   0  0  0  0  0  0  0  0  0  0  0  0
    3.8330   -0.9960   -0.1160 C   0  0  1  0  0  0  0  0  0  0  0  0
    5.2480   -0.3430   -0.0000 C   0  0  0  0  0  0  0  0  0  0  0  0
    3.5210   -1.6200    1.2110 C   0  0  0  0  0  0  0  0  0  0  0  0
    2.2140   -2.2580    1.4160 C   0  0  0  0  0  0  0  0  0  0  0  0
    1.8280   -3.7410    0.4330 P   0  0  0  0  0  0  0  0  0  0  0  0
    2.9500   -4.1250   -0.9470 C   0  0  0  0  0  0  0  0  0  0  0  0
    0.1930   -3.7130   -0.1040 O   0  0  0  0  0  0  0  0  0  0  0  0
    1.4880   -1.1200   -1.7600 N   0  0  0  0  0  0  0  0  0  0  0  0
    0.3040   -1.5140   -2.4530 C   0  0  0  0  0  0  0  0  0  0  0  0
   -0.9590   -1.1460   -2.1910 C   0  0  0  0  0  0  0  0  0  0  0  0
   -1.4400   -0.2430   -1.1200 C   0  0  0  0  0  0  0  0  0  0  0  0
   -2.7460   -0.3620   -0.7300 O   0  0  0  0  0  0  0  0  0  0  0  0
   -3.0680   -1.2520    0.2890 C   0  0  0  0  0  0  0  0  0  0  0  0
   -2.1490   -1.9080    0.8030 O   0  0  0  0  0  0  0  0  0  0  0  0
   -4.4250   -1.3540    0.6740 N   0  0  0  0  0  0  0  0  0  0  0  0
   -4.7970   -2.2670    1.7240 C   0  0  0  0  0  0  0  0  0  0  0  0
   -4.4390   -3.6880    1.3480 C   0  0  0  0  0  0  0  0  0  0  0  0
   -5.1860   -4.0450    0.0720 C   0  0  0  0  0  0  0  0  0  0  0  0
   -0.7490    0.6980   -0.4690 C   0  0  0  0  0  0  0  0  0  0  0  0
   -1.3600    1.4390    0.5140 O   0  0  0  0  0  0  0  0  0  0  0  0
   -0.9640    1.2430    1.8800 C   0  0  0  0  0  0  0  0  0  0  0  0
   -0.8840    3.6620   -0.2450 O   0  0  0  0  0  0  0  0  0  0  0  0
   -1.7170    3.9510   -1.3690 C   0  0  0  0  0  0  0  0  0  0  0  0
  1  2  1  0
  2  3  1  0
  3  4  2  3
  4  5  1  0
  4 30  1  0
  5  6  2  3
  6  7  1  0
  6 27  1  0
  7  8  1  0
  7 16  2  0
  8  9  1  0
  9 10  1  1
  9 11  1  0
 11 12  1  0
 12 13  1  0
 13 14  1  0
 13 15  1  0
 16 17  1  0
 17 18  2  0
 18 19  1  0
 19 20  1  0
 19 27  2  0
 20 21  1  0
 21 22  2  0
 21 23  1  0
 23 24  1  0
 24 25  1  0
 25 26  1  0
 27 28  1  0
 28 29  1  0
 30 31  1  0
M  END
