
     RDKit          3D

 31 32  0  0  0  0  0  0  0  0999 V2000
    9.8340   -2.7970   -1.1730 C   0  0  0  0  0  0  0  0  0  0  0  0
    8.4610   -2.4620   -1.7010 C   0  0  0  0  0  0  0  0  0  0  0  0
    7.7030   -1.9340   -0.6140 O   0  0  0  0  0  0  0  0  0  0  0  0
    6.3760   -1.5320   -0.8350 C   0  0  0  0  0  0  0  0  0  0  0  0
    5.9300   -1.6640   -1.9950 O   0  0  0  0  0  0  0  0  0  0  0  0
    5.6200   -0.9950    0.3080 C   0  0  0  0  0  0  0  0  0  0  0  0
    4.2200   -0.5970   -0.0840 C   0  0  0  0  0  0  0  0  0  0  0  0
    3.4740   -0.0640    1.0900 C   0  0  0  0  0  0  0  0  0  0  0  0
    4.0660   -0.0490    2.1740 O   0  0  0  0  0  0  0  0  0  0  0  0
    2.1510    0.4050    0.9850 N   0  0  0  0  0  0  0  0  0  0  0  0
    1.3390    0.9330    2.0010 C   0  0  0  0  0  0  0  0  0  0  0  0
    1.8710    1.2920    3.1970 C   0  0  0  0  0  0  0  0  0  0  0  0
    1.0700    1.8760    4.1710 C   0  0  0  0  0  0  0  0  0  0  0  0
   -0.2600    2.0950    3.9370 C   0  0  0  0  0  0  0  0  0  0  0  0
   -0.8050    1.7260    2.7070 C   0  0  0  0  0  0  0  0  0  0  0  0
   -0.0400    1.1460    1.7260 C   0  0  0  0  0  0  0  0  0  0  0  0
   -0.5810    0.7270    0.4810 N   0  0  0  0  0  0  0  0  0  0  0  0
   -1.9340    0.9140    0.0370 C   0  0  2  0  0  0  0  0  0  0  0  0
   -1.9040    0.4220   -1.8060 P   0  0  0  0  0  0  0  0  0  0  0  0
   -3.3990    0.7250   -2.5600 O   0  0  0  0  0  0  0  0  0  0  0  0
   -1.2280   -1.1150   -2.0480 O   0  0  0  0  0  0  0  0  0  0  0  0
   -2.1070   -2.1290   -2.3460 C   0  0  0  0  0  0  0  0  0  0  0  0
   -1.3360   -3.4400   -2.5480 C   0  0  0  0  0  0  0  0  0  0  0  0
   -2.4330    2.3250    0.0320 C   0  0  0  0  0  0  0  0  0  0  0  0
   -3.8980    2.3800    0.4800 C   0  0  0  0  0  0  0  0  0  0  0  0
   -4.6320    1.3830   -0.2440 N   0  0  0  0  0  0  0  0  0  0  0  0
   -5.9810    1.7170   -0.4350 C   0  0  0  0  0  0  0  0  0  0  0  0
   -6.1890    2.8910   -1.3870 C   0  0  0  0  0  0  0  0  0  0  0  0
   -4.2890    0.0480    0.0860 C   0  0  2  0  0  0  0  0  0  0  0  0
   -5.3010   -0.6340    0.9840 C   0  0  0  0  0  0  0  0  0  0  0  0
   -2.8950    0.0190    0.7410 C   0  0  0  0  0  0  0  0  0  0  0  0
  1  2  1  0
  2  3  1  0
  3  4  1  0
  4  5  2  0
  4  6  1  0
  6  7  1  0
  7  8  1  0
  8  9  2  0
  8 10  1  0
 10 11  1  0
 11 12  2  0
 11 16  1  0
 12 13  1  0
 13 14  2  0
 14 15  1  0
 15 16  2  0
 16 17  1  0
 18 17  1  1
 18 19  1  0
 18 24  1  0
 18 31  1  0
 19 20  1  0
 19 21  1  0
 21 22  1  0
 22 23  1  0
 24 25  1  0
 25 26  1  0
 26 27  1  0
 26 29  1  0
 27 28  1  0
 29 30  1  1
 29 31  1  0
M  END
