
     RDKit          3D

 13 12  0  0  0  0  0  0  0  0999 V2000
   -2.7920   -1.5690    0.2110 C   0  0  0  0  0  0  0  0  0  0  0  0
   -3.3720   -0.3860    0.5030 O   0  0  0  0  0  0  0  0  0  0  0  0
   -2.6810    0.6250    1.0540 C   0  0  0  0  0  0  0  0  0  0  0  0
   -1.5100    1.1850    0.3290 C   0  0  2  0  0  0  0  0  0  0  0  0
   -1.8950    1.6820   -1.0390 C   0  0  0  0  0  0  0  0  0  0  0  0
   -0.3100    0.3530    0.2830 C   0  0  0  0  0  0  0  0  0  0  0  0
   -0.0970   -0.6330    0.9990 O   0  0  0  0  0  0  0  0  0  0  0  0
    0.6710    0.7140   -0.6470 O   0  0  0  0  0  0  0  0  0  0  0  0
    1.8710    0.0050   -0.7930 C   0  0  0  0  0  0  0  0  0  0  0  0
    2.6420   -0.0300    0.3590 O   0  0  0  0  0  0  0  0  0  0  0  0
    4.0790   -0.9510   -0.0300 P   0  0  0  0  0  0  0  0  0  0  0  0
    5.4640    0.0840    0.0550 O   0  0  0  0  0  0  0  0  0  0  0  0
    4.1910   -2.3040    1.0210 O   0  0  0  0  0  0  0  0  0  0  0  0
  1  2  1  0
  2  3  1  0
  3  4  1  0
  4  5  1  6
  4  6  1  0
  6  7  2  0
  6  8  1  0
  8  9  1  0
  9 10  1  0
 10 11  1  0
 11 12  1  0
 11 13  1  0
M  END
