
     RDKit          3D

 13 12  0  0  0  0  0  0  0  0999 V2000
    3.3410   -1.2840   -0.3450 C   0  0  0  0  0  0  0  0  0  0  0  0
    2.2960   -0.3470   -0.2650 O   0  0  0  0  0  0  0  0  0  0  0  0
    1.5410   -0.1090    0.8510 C   0  0  0  0  0  0  0  0  0  0  0  0
    1.7830   -0.7660    1.8920 O   0  0  0  0  0  0  0  0  0  0  0  0
    0.4550    0.8960    0.8600 C   0  0  1  0  0  0  0  0  0  0  0  0
    0.9650    2.2850    0.5510 C   0  0  0  0  0  0  0  0  0  0  0  0
    1.5670    2.4080   -0.6730 O   0  0  0  0  0  0  0  0  0  0  0  0
   -0.6210    0.5360   -0.1740 C   0  0  0  0  0  0  0  0  0  0  0  0
   -1.1970   -0.8400    0.1830 C   0  0  0  0  0  0  0  0  0  0  0  0
   -2.4930   -1.2560   -1.0760 P   0  0  0  0  0  0  0  0  0  0  0  0
   -2.7650   -2.9660   -1.1680 O   0  0  0  0  0  0  0  0  0  0  0  0
   -3.9710   -0.4390   -0.7770 O   0  0  0  0  0  0  0  0  0  0  0  0
   -3.7190    0.8510   -0.7110 O   0  0  0  0  0  0  0  0  0  0  0  0
  1  2  1  0
  2  3  1  0
  3  4  2  0
  3  5  1  0
  5  6  1  6
  5  8  1  0
  6  7  1  0
  8  9  1  0
  9 10  1  0
 10 11  1  0
 10 12  1  0
 12 13  1  0
M  END
