
     RDKit          3D

 13 12  0  0  0  0  0  0  0  0999 V2000
   -1.1590   -1.4610    1.0280 C   0  0  0  0  0  0  0  0  0  0  0  0
   -1.0030   -0.3900    0.0030 C   0  0  1  0  0  0  0  0  0  0  0  0
   -1.2900   -0.8720   -1.4030 C   0  0  0  0  0  0  0  0  0  0  0  0
   -1.9930    0.7200    0.2950 C   0  0  0  0  0  0  0  0  0  0  0  0
   -1.8010    1.7360   -0.6330 O   0  0  0  0  0  0  0  0  0  0  0  0
   -2.8570    3.0620   -0.4220 P   0  0  0  0  0  0  0  0  0  0  0  0
   -2.2810    4.3420    0.2860 O   0  0  0  0  0  0  0  0  0  0  0  0
    0.2870    0.1690    0.1170 O   0  0  0  0  0  0  0  0  0  0  0  0
    1.4610   -0.5500   -0.0330 C   0  0  0  0  0  0  0  0  0  0  0  0
    1.3940   -1.7590   -0.2850 O   0  0  0  0  0  0  0  0  0  0  0  0
    2.7350    0.1680    0.1140 C   0  0  0  0  0  0  0  0  0  0  0  0
    3.7660   -0.7490   -0.0770 O   0  0  0  0  0  0  0  0  0  0  0  0
    4.9400   -0.1710    0.0420 O   0  0  0  0  0  0  0  0  0  0  0  0
  2  1  1  1
  2  3  1  0
  2  4  1  0
  2  8  1  0
  4  5  1  0
  5  6  1  0
  6  7  2  0
  8  9  1  0
  9 10  2  0
  9 11  1  0
 11 12  1  0
 12 13  1  0
M  END
