
     RDKit          3D

 24 24  0  0  0  0  0  0  0  0999 V2000
   -4.9850   -2.0980    1.2760 C   0  0  0  0  0  0  0  0  0  0  0  0
   -4.8220   -0.6710    0.8520 C   0  0  2  0  0  0  0  0  0  0  0  0
   -6.1190    0.0490    1.1020 C   0  0  0  0  0  0  0  0  0  0  0  0
   -4.4410   -0.5280   -0.5970 C   0  0  0  0  0  0  0  0  0  0  0  0
   -3.1390   -1.2110   -0.9080 C   0  0  2  0  0  0  0  0  0  0  0  0
   -2.0410   -0.7270   -0.1840 N   0  0  0  0  0  0  0  0  0  0  0  0
   -1.5440    0.8580   -0.2000 P   0  0  0  0  0  0  0  0  0  0  0  0
   -1.0870    0.8580    1.2920 O   0  0  0  0  0  0  0  0  0  0  0  0
   -2.3520    1.2910   -1.4590 O   0  0  0  0  0  0  0  0  0  0  0  0
    0.0160    1.2870   -0.8470 C   0  0  0  0  0  0  0  0  0  0  0  0
    1.1860    0.8980   -0.1130 N   0  0  0  0  0  0  0  0  0  0  0  0
    2.5140    1.1820   -0.5220 C   0  0  0  0  0  0  0  0  0  0  0  0
    2.6490    1.8190   -1.6040 O   0  0  0  0  0  0  0  0  0  0  0  0
    3.6190    0.7850    0.2200 O   0  0  0  0  0  0  0  0  0  0  0  0
    4.8910    1.1300   -0.2960 C   0  0  0  0  0  0  0  0  0  0  0  0
    5.9780    0.6480    0.5910 C   0  0  0  0  0  0  0  0  0  0  0  0
    7.2930    0.8850    0.2650 C   0  0  0  0  0  0  0  0  0  0  0  0
    8.3450    0.4580    1.0550 C   0  0  0  0  0  0  0  0  0  0  0  0
    8.0670   -0.2300    2.2130 C   0  0  0  0  0  0  0  0  0  0  0  0
    6.7380   -0.4740    2.5510 C   0  0  0  0  0  0  0  0  0  0  0  0
    5.7030   -0.0400    1.7490 C   0  0  0  0  0  0  0  0  0  0  0  0
   -2.8730   -1.2130   -2.3490 C   0  0  0  0  0  0  0  0  0  0  0  0
   -3.8450   -1.6420   -3.2860 N   0  0  0  0  0  0  0  0  0  0  0  0
   -1.7640   -0.8350   -2.8500 O   0  0  0  0  0  0  0  0  0  0  0  0
  2  1  1  6
  2  3  1  0
  2  4  1  0
  5  4  1  6
  5  6  1  0
  5 22  1  0
  6  7  1  0
  7  8  1  0
  7  9  1  0
  7 10  1  0
 10 11  1  0
 11 12  1  0
 12 13  2  0
 12 14  1  0
 14 15  1  0
 15 16  1  0
 16 17  2  0
 16 21  1  0
 17 18  1  0
 18 19  2  0
 19 20  1  0
 20 21  2  0
 22 23  1  0
 22 24  2  0
M  END
