
     RDKit          3D

 13 13  0  0  0  0  0  0  0  0999 V2000
   -3.1370   -0.0110   -0.1670 C   0  0  0  0  0  0  0  0  0  0  0  0
   -1.8800    0.5470    0.1600 O   0  0  0  0  0  0  0  0  0  0  0  0
   -0.7050   -0.1340   -0.0690 C   0  0  0  0  0  0  0  0  0  0  0  0
   -0.4910   -1.3790   -0.6070 C   0  0  0  0  0  0  0  0  0  0  0  0
    0.8060   -1.6300   -0.6370 O   0  0  0  0  0  0  0  0  0  0  0  0
    1.4660   -0.6100   -0.1440 C   0  0  0  0  0  0  0  0  0  0  0  0
    2.9270   -0.5100   -0.0080 C   0  0  0  0  0  0  0  0  0  0  0  0
    3.4460    0.5170    0.4790 O   0  0  0  0  0  0  0  0  0  0  0  0
    3.7670   -1.5380   -0.4110 O   0  0  0  0  0  0  0  0  0  0  0  0
    0.5560    0.3560    0.2270 C   0  0  0  0  0  0  0  0  0  0  0  0
    0.9200    1.5670    0.7870 O   0  0  0  0  0  0  0  0  0  0  0  0
   -0.1970    2.8040    1.2650 P   0  0  0  0  0  0  0  0  0  0  0  0
   -0.3030    4.2000    0.6440 O   0  0  0  0  0  0  0  0  0  0  0  0
  1  2  1  0
  2  3  1  0
  3  4  2  0
  3 10  1  0
  4  5  1  0
  5  6  1  0
  6  7  1  0
  6 10  2  0
  7  8  2  0
  7  9  1  0
 10 11  1  0
 11 12  1  0
 12 13  2  0
M  END
