
     RDKit          3D

 13 12  0  0  0  0  0  0  0  0999 V2000
   -3.3280    2.5690    0.3090 O   0  0  0  0  0  0  0  0  0  0  0  0
   -2.4390    1.6310    1.1540 P   0  0  0  0  0  0  0  0  0  0  0  0
   -2.4430   -0.2070    0.8750 C   0  0  0  0  0  0  0  0  0  0  0  0
   -2.5070   -0.6050   -0.5410 C   0  0  0  0  0  0  0  0  0  0  0  0
   -1.4300   -0.2080   -1.4790 C   0  0  0  0  0  0  0  0  0  0  0  0
   -0.1600   -0.6500   -1.3140 O   0  0  0  0  0  0  0  0  0  0  0  0
    0.7930   -0.4710   -0.3970 C   0  0  0  0  0  0  0  0  0  0  0  0
    0.5940    0.2610    0.5830 O   0  0  0  0  0  0  0  0  0  0  0  0
    2.0610   -1.0860   -0.4750 O   0  0  0  0  0  0  0  0  0  0  0  0
    3.0450   -0.8810    0.5020 C   0  0  0  0  0  0  0  0  0  0  0  0
    3.4250    0.5500    0.6230 C   0  0  0  0  0  0  0  0  0  0  0  0
    4.2980    0.8810    1.4630 O   0  0  0  0  0  0  0  0  0  0  0  0
    2.8670    1.5600   -0.1460 O   0  0  0  0  0  0  0  0  0  0  0  0
  1  2  2  0
  2  3  1  0
  3  4  1  0
  4  5  1  0
  5  6  1  0
  6  7  1  0
  7  8  2  0
  7  9  1  0
  9 10  1  0
 10 11  1  0
 11 12  2  0
 11 13  1  0
M  END
