
     RDKit          3D

 29 30  0  0  0  0  0  0  0  0999 V2000
    0.7580    5.0690   -3.3320 C   0  0  0  0  0  0  0  0  0  0  0  0
    1.3730    4.1910   -2.2740 C   0  0  0  0  0  0  0  0  0  0  0  0
    0.3940    3.4040   -1.6820 O   0  0  0  0  0  0  0  0  0  0  0  0
    1.1190    2.4130   -0.4820 P   0  0  0  0  0  0  0  0  0  0  0  0
    1.8680    3.2920    0.7830 O   0  0  0  0  0  0  0  0  0  0  0  0
    1.0360    4.1830    1.4180 C   0  0  0  0  0  0  0  0  0  0  0  0
    1.8550    4.8710    2.5040 C   0  0  0  0  0  0  0  0  0  0  0  0
    0.0640    1.0660    0.0890 C   0  0  0  0  0  0  0  0  0  0  0  0
    0.4200    0.3570    1.3350 C   0  0  0  0  0  0  0  0  0  0  0  0
    1.7960   -0.2380    1.3220 C   0  0  0  0  0  0  0  0  0  0  0  0
    1.9190   -1.1850    0.2490 N   0  0  0  0  0  0  0  0  0  0  0  0
    3.1340   -1.9110    0.0100 C   0  0  0  0  0  0  0  0  0  0  0  0
    4.2820   -1.2840    0.0630 C   0  0  0  0  0  0  0  0  0  0  0  0
    5.5710   -1.9590   -0.1700 C   0  0  0  0  0  0  0  0  0  0  0  0
    5.4690   -3.4290   -0.4280 C   0  0  0  0  0  0  0  0  0  0  0  0
    4.9010   -4.0610    0.6660 O   0  0  0  0  0  0  0  0  0  0  0  0
   -0.9950    0.7060   -0.5840 C   0  0  0  0  0  0  0  0  0  0  0  0
   -1.2820    1.4070   -1.7720 O   0  0  0  0  0  0  0  0  0  0  0  0
   -1.8970   -0.3190   -0.2510 N   0  0  0  0  0  0  0  0  0  0  0  0
   -1.7250   -1.7260   -0.4670 C   0  0  0  0  0  0  0  0  0  0  0  0
   -3.1080   -2.1900   -0.8900 C   0  0  1  0  0  0  0  0  0  0  0  0
   -3.3230   -3.5350   -0.2590 C   0  0  0  0  0  0  0  0  0  0  0  0
   -4.7730   -3.9110   -0.4030 C   0  0  0  0  0  0  0  0  0  0  0  0
   -5.5380   -2.9780    0.3920 N   0  0  0  0  0  0  0  0  0  0  0  0
   -5.2040   -1.6070    0.3240 C   0  0  0  0  0  0  0  0  0  0  0  0
   -5.9300   -0.7790    0.9150 O   0  0  0  0  0  0  0  0  0  0  0  0
   -4.0280   -1.1180   -0.4190 C   0  0  1  0  0  0  0  0  0  0  0  0
   -3.1870   -0.1350    0.3690 C   0  0  1  0  0  0  0  0  0  0  0  0
   -3.1530   -0.4170    1.8340 C   0  0  0  0  0  0  0  0  0  0  0  0
  1  2  1  0
  2  3  1  0
  3  4  1  0
  4  5  1  0
  4  8  1  0
  5  6  1  0
  6  7  1  0
  8  9  1  0
  8 17  2  3
  9 10  1  0
 10 11  1  0
 11 12  1  0
 12 13  2  3
 13 14  1  0
 14 15  1  0
 15 16  1  0
 17 18  1  0
 17 19  1  0
 19 20  1  0
 19 28  1  0
 21 20  1  1
 21 22  1  0
 21 27  1  0
 22 23  1  0
 23 24  1  0
 24 25  1  0
 25 26  2  0
 27 25  1  1
 27 28  1  0
 28 29  1  1
M  END
