
     RDKit          3D

 29 30  0  0  0  0  0  0  0  0999 V2000
   -8.7470   -0.4990    2.3520 C   0  0  0  0  0  0  0  0  0  0  0  0
   -7.9170    0.4160    1.4870 C   0  0  0  0  0  0  0  0  0  0  0  0
   -7.1130   -0.3020    0.5910 O   0  0  0  0  0  0  0  0  0  0  0  0
   -6.1920    0.7920   -0.3700 P   0  0  0  0  0  0  0  0  0  0  0  0
   -4.5180    1.0650    0.3190 C   0  0  0  0  0  0  0  0  0  0  0  0
   -3.4120    0.7790   -0.6450 C   0  0  0  0  0  0  0  0  0  0  0  0
   -3.3580   -0.6380   -1.1420 C   0  0  0  0  0  0  0  0  0  0  0  0
   -2.2490   -0.7350   -2.0580 N   0  0  0  0  0  0  0  0  0  0  0  0
   -0.9190   -0.6140   -1.5930 C   0  0  0  0  0  0  0  0  0  0  0  0
   -0.0980    0.2490   -2.1780 C   0  0  0  0  0  0  0  0  0  0  0  0
    1.2410    0.4190   -1.7630 N   0  0  0  0  0  0  0  0  0  0  0  0
    1.7160   -0.3860   -0.6580 C   0  0  0  0  0  0  0  0  0  0  0  0
    2.9780   -0.2380   -0.2540 C   0  0  0  0  0  0  0  0  0  0  0  0
    3.5250   -0.9990    0.8350 C   0  0  0  0  0  0  0  0  0  0  0  0
    4.7560   -0.8670    1.2430 C   0  0  0  0  0  0  0  0  0  0  0  0
    5.1270   -1.7050    2.3370 O   0  0  0  0  0  0  0  0  0  0  0  0
    5.7330    0.0260    0.6920 C   0  0  0  0  0  0  0  0  0  0  0  0
    5.6110    0.8290   -0.2530 O   0  0  0  0  0  0  0  0  0  0  0  0
    7.0640    0.0340    1.2810 N   0  0  0  0  0  0  0  0  0  0  0  0
    8.0570    0.9060    0.7620 C   0  0  1  0  0  0  0  0  0  0  0  0
    8.6850    1.8160    1.7710 C   0  0  0  0  0  0  0  0  0  0  0  0
   10.0790    1.9710    1.1970 C   0  0  0  0  0  0  0  0  0  0  0  0
   10.3740    0.8380    0.4950 O   0  0  0  0  0  0  0  0  0  0  0  0
    9.2570    0.0750    0.3300 C   0  0  0  0  0  0  0  0  0  0  0  0
    0.8140   -1.3130   -0.0390 C   0  0  0  0  0  0  0  0  0  0  0  0
   -0.4590   -1.4270   -0.4860 C   0  0  0  0  0  0  0  0  0  0  0  0
   -6.2200    0.3600   -2.0250 O   0  0  0  0  0  0  0  0  0  0  0  0
   -7.1360   -0.6670   -2.2340 C   0  0  0  0  0  0  0  0  0  0  0  0
   -7.1150   -1.0040   -3.7140 C   0  0  0  0  0  0  0  0  0  0  0  0
  1  2  1  0
  2  3  1  0
  3  4  1  0
  4  5  1  0
  4 27  1  0
  5  6  1  0
  6  7  1  0
  7  8  1  0
  8  9  1  0
  9 10  2  0
  9 26  1  0
 10 11  1  0
 11 12  1  0
 12 13  2  3
 12 25  1  0
 13 14  1  0
 14 15  2  3
 15 16  1  0
 15 17  1  0
 17 18  2  0
 17 19  1  0
 20 19  1  1
 20 21  1  0
 20 24  1  0
 21 22  1  0
 22 23  1  0
 23 24  1  0
 25 26  2  0
 27 28  1  0
 28 29  1  0
M  END
