
     RDKit          3D

 29 29  0  0  0  0  0  0  0  0999 V2000
   -6.5740   -0.0120    0.9740 C   0  0  0  0  0  0  0  0  0  0  0  0
   -7.3200    0.9210    0.0730 C   0  0  0  0  0  0  0  0  0  0  0  0
   -6.5070    1.3840   -1.0820 C   0  0  0  0  0  0  0  0  0  0  0  0
   -6.0220    0.3000   -1.9810 C   0  0  2  0  0  0  0  0  0  0  0  0
   -7.1480   -0.5110   -2.5760 C   0  0  0  0  0  0  0  0  0  0  0  0
   -4.9830   -0.5370   -1.4580 N   0  0  0  0  0  0  0  0  0  0  0  0
   -3.8040    0.2510   -1.2250 C   0  0  0  0  0  0  0  0  0  0  0  0
   -2.6390   -0.6380   -0.7560 C   0  0  1  0  0  0  0  0  0  0  0  0
   -3.0460   -1.3560    0.5130 C   0  0  0  0  0  0  0  0  0  0  0  0
   -2.4040   -1.6480   -1.8400 C   0  0  0  0  0  0  0  0  0  0  0  0
   -1.5370    0.2280   -0.5740 O   0  0  0  0  0  0  0  0  0  0  0  0
   -0.2750   -0.2560   -0.1760 C   0  0  0  0  0  0  0  0  0  0  0  0
   -0.2220   -1.5110   -0.0050 O   0  0  0  0  0  0  0  0  0  0  0  0
    0.8070    0.6130    0.0030 N   0  0  0  0  0  0  0  0  0  0  0  0
    2.1040    0.0780    0.4170 C   0  0  0  0  0  0  0  0  0  0  0  0
    1.9490   -0.5700    1.7530 C   0  0  0  0  0  0  0  0  0  0  0  0
    3.1890   -1.1000    2.1610 O   0  0  0  0  0  0  0  0  0  0  0  0
    4.3510   -0.3880    2.3640 C   0  0  0  0  0  0  0  0  0  0  0  0
    4.3390    0.8440    2.1790 O   0  0  0  0  0  0  0  0  0  0  0  0
    5.5610   -1.0550    2.7860 N   0  0  0  0  0  0  0  0  0  0  0  0
    6.7880   -0.3330    3.0080 C   0  0  0  0  0  0  0  0  0  0  0  0
    7.3960   -0.0220    1.6960 C   0  0  0  0  0  0  0  0  0  0  0  0
    6.8150   -0.2930    0.4870 C   0  0  0  0  0  0  0  0  0  0  0  0
    7.4580    0.0250   -0.6970 C   0  0  0  0  0  0  0  0  0  0  0  0
    8.6840    0.6150   -0.7150 C   0  0  0  0  0  0  0  0  0  0  0  0
    9.5750    1.0550   -2.2480 P   0  0  0  0  0  0  0  0  0  0  0  0
    9.4220    0.2450   -3.5630 O   0  0  0  0  0  0  0  0  0  0  0  0
    9.2850    0.8960    0.5050 C   0  0  0  0  0  0  0  0  0  0  0  0
    8.6530    0.5830    1.6800 C   0  0  0  0  0  0  0  0  0  0  0  0
  1  2  1  0
  2  3  1  0
  3  4  1  0
  4  5  1  1
  4  6  1  0
  6  7  1  0
  7  8  1  0
  8  9  1  1
  8 10  1  0
  8 11  1  0
 11 12  1  0
 12 13  2  0
 12 14  1  0
 14 15  1  0
 15 16  1  0
 16 17  1  0
 17 18  1  0
 18 19  2  0
 18 20  1  0
 20 21  1  0
 21 22  1  0
 22 23  2  0
 22 29  1  0
 23 24  1  0
 24 25  2  0
 25 26  1  0
 25 28  1  0
 26 27  2  0
 28 29  2  0
M  END
