
     RDKit          3D

 29 29  0  0  0  0  0  0  0  0999 V2000
   -6.4800    1.3410    3.1070 C   0  0  0  0  0  0  0  0  0  0  0  0
   -5.5890    1.3840    1.8700 C   0  0  0  0  0  0  0  0  0  0  0  0
   -5.6210    0.1080    1.2820 O   0  0  0  0  0  0  0  0  0  0  0  0
   -4.6450    0.0400   -0.1330 P   0  0  0  0  0  0  0  0  0  0  0  0
   -3.4130   -1.3320   -0.0530 C   0  0  0  0  0  0  0  0  0  0  0  0
   -2.3000   -1.0690    0.8190 N   0  0  0  0  0  0  0  0  0  0  0  0
   -2.7330   -0.8800    2.1970 C   0  0  0  0  0  0  0  0  0  0  0  0
   -1.4840    0.0610    0.3930 C   0  0  0  0  0  0  0  0  0  0  0  0
   -0.7480   -0.2550   -0.8820 C   0  0  0  0  0  0  0  0  0  0  0  0
    0.1020    0.8860   -1.3690 C   0  0  0  0  0  0  0  0  0  0  0  0
    1.1340    1.2420   -0.3790 C   0  0  1  0  0  0  0  0  0  0  0  0
    2.0280    0.0460   -0.1350 C   0  0  0  0  0  0  0  0  0  0  0  0
    3.4440    0.4850   -0.4460 C   0  0  1  0  0  0  0  0  0  0  0  0
    4.2980   -0.6030   -0.8960 C   0  0  0  0  0  0  0  0  0  0  0  0
    3.8220   -1.7760   -0.9640 O   0  0  0  0  0  0  0  0  0  0  0  0
    5.6620   -0.4140   -1.2700 N   0  0  0  0  0  0  0  0  0  0  0  0
    6.5510   -1.4400   -1.7090 C   0  0  0  0  0  0  0  0  0  0  0  0
    6.9570   -2.4850   -0.8040 C   0  0  0  0  0  0  0  0  0  0  0  0
    6.7380   -2.6810    0.4420 C   0  0  0  0  0  0  0  0  0  0  0  0
    6.0130   -1.9430    1.4020 N   0  0  0  0  0  0  0  0  0  0  0  0
    6.8040   -1.3930    2.4760 C   0  0  0  0  0  0  0  0  0  0  0  0
    8.0390   -1.5890    2.5020 O   0  0  0  0  0  0  0  0  0  0  0  0
    6.2230   -0.6460    3.4920 O   0  0  0  0  0  0  0  0  0  0  0  0
    3.1470    1.5090   -1.5530 C   0  0  0  0  0  0  0  0  0  0  0  0
    2.0910    2.3100   -0.8250 C   0  0  1  0  0  0  0  0  0  0  0  0
    1.5190    3.4260   -1.5790 C   0  0  0  0  0  0  0  0  0  0  0  0
   -5.6600   -0.2560   -1.5190 O   0  0  0  0  0  0  0  0  0  0  0  0
   -6.9210   -0.6690   -1.0680 C   0  0  0  0  0  0  0  0  0  0  0  0
   -7.8280   -0.9410   -2.2330 C   0  0  0  0  0  0  0  0  0  0  0  0
  1  2  1  0
  2  3  1  0
  3  4  1  0
  4  5  1  0
  4 27  1  0
  5  6  1  0
  6  7  1  0
  6  8  1  0
  8  9  1  0
  9 10  1  0
 11 10  1  6
 11 12  1  0
 11 25  1  0
 12 13  1  0
 13 14  1  6
 13 24  1  0
 14 15  2  0
 14 16  1  0
 16 17  1  0
 17 18  1  0
 18 19  2  3
 19 20  1  0
 20 21  1  0
 21 22  2  0
 21 23  1  0
 24 25  1  0
 25 26  1  6
 27 28  1  0
 28 29  1  0
M  END
