
     RDKit          3D

 28 28  0  0  0  0  0  0  0  0999 V2000
   -7.5810    3.0970   -1.5110 C   0  0  0  0  0  0  0  0  0  0  0  0
   -6.9970    2.2610   -0.3780 C   0  0  0  0  0  0  0  0  0  0  0  0
   -6.2510    1.2270   -0.8990 O   0  0  0  0  0  0  0  0  0  0  0  0
   -5.6010    0.2950    0.4050 P   0  0  0  0  0  0  0  0  0  0  0  0
   -4.9740   -1.3370   -0.1900 C   0  0  0  0  0  0  0  0  0  0  0  0
   -3.5640   -1.5800    0.2830 C   0  0  0  0  0  0  0  0  0  0  0  0
   -2.7030   -0.4670   -0.2740 C   0  0  0  0  0  0  0  0  0  0  0  0
   -1.3050   -0.6420    0.1510 N   0  0  0  0  0  0  0  0  0  0  0  0
   -0.2980    0.2730   -0.2420 C   0  0  0  0  0  0  0  0  0  0  0  0
   -0.6040    1.2500   -0.9650 O   0  0  0  0  0  0  0  0  0  0  0  0
    1.1420    0.1140    0.1810 C   0  0  1  0  0  0  0  0  0  0  0  0
    1.2000   -1.0830    1.0000 N   0  0  0  0  0  0  0  0  0  0  0  0
    1.9240   -0.0250   -1.0890 C   0  0  0  0  0  0  0  0  0  0  0  0
    3.3520   -0.1920   -0.8970 N   0  0  0  0  0  0  0  0  0  0  0  0
    4.0660    0.8320   -0.2510 C   0  0  0  0  0  0  0  0  0  0  0  0
    3.4210    1.8850    0.1430 O   0  0  0  0  0  0  0  0  0  0  0  0
    5.4820    0.7750   -0.0020 C   0  0  0  0  0  0  0  0  0  0  0  0
    6.0540    1.8600    0.6460 C   0  0  0  0  0  0  0  0  0  0  0  0
    7.3970    1.9010    0.9290 C   0  0  0  0  0  0  0  0  0  0  0  0
    8.2120    0.8630    0.5750 C   0  0  0  0  0  0  0  0  0  0  0  0
    9.6700    0.8790    0.8680 C   0  0  0  0  0  0  0  0  0  0  0  0
    7.6390   -0.2060   -0.0650 C   0  0  0  0  0  0  0  0  0  0  0  0
    6.2750   -0.2790   -0.3680 C   0  0  0  0  0  0  0  0  0  0  0  0
    5.7890   -1.3990   -1.0160 O   0  0  0  0  0  0  0  0  0  0  0  0
    6.6360   -2.4500   -1.3690 C   0  0  0  0  0  0  0  0  0  0  0  0
   -6.6920    0.1630    1.7190 O   0  0  0  0  0  0  0  0  0  0  0  0
   -7.0780   -1.1550    1.9490 C   0  0  0  0  0  0  0  0  0  0  0  0
   -8.0430   -1.2590    3.1110 C   0  0  0  0  0  0  0  0  0  0  0  0
  1  2  1  0
  2  3  1  0
  3  4  1  0
  4  5  1  0
  4 26  1  0
  5  6  1  0
  6  7  1  0
  7  8  1  0
  8  9  1  0
  9 10  2  0
  9 11  1  0
 11 12  1  1
 11 13  1  0
 13 14  1  0
 14 15  1  0
 15 16  2  0
 15 17  1  0
 17 18  2  0
 17 23  1  0
 18 19  1  0
 19 20  2  0
 20 21  1  0
 20 22  1  0
 22 23  2  0
 23 24  1  0
 24 25  1  0
 26 27  1  0
 27 28  1  0
M  END
