
     RDKit          3D

 29 29  0  0  0  0  0  0  0  0999 V2000
   -7.3400    2.1790   -0.7550 C   0  0  0  0  0  0  0  0  0  0  0  0
   -5.9150    1.9740   -0.2800 C   0  0  0  0  0  0  0  0  0  0  0  0
   -5.9500    1.0000    0.8750 C   0  0  1  0  0  0  0  0  0  0  0  0
   -6.5230   -0.3270    0.4900 C   0  0  0  0  0  0  0  0  0  0  0  0
   -4.5680    0.9110    1.4690 C   0  0  0  0  0  0  0  0  0  0  0  0
   -3.6350    0.4250    0.4430 N   0  0  0  0  0  0  0  0  0  0  0  0
   -2.2800    0.2940    0.8150 C   0  0  0  0  0  0  0  0  0  0  0  0
   -1.9840    0.6240    2.0240 O   0  0  0  0  0  0  0  0  0  0  0  0
   -1.2070   -0.1870   -0.0920 C   0  0  2  0  0  0  0  0  0  0  0  0
   -1.1640   -1.6550   -0.0470 C   0  0  0  0  0  0  0  0  0  0  0  0
   -2.4520   -2.2680   -0.5060 C   0  0  1  0  0  0  0  0  0  0  0  0
   -2.8290   -1.9530   -1.9310 C   0  0  0  0  0  0  0  0  0  0  0  0
   -2.4050   -3.7960   -0.4260 C   0  0  0  0  0  0  0  0  0  0  0  0
    0.0030    0.4580    0.4010 N   0  0  0  0  0  0  0  0  0  0  0  0
    1.4300    0.1940   -0.2330 P   0  0  0  0  0  0  0  0  0  0  0  0
    0.9410    0.2720   -1.7690 O   0  0  0  0  0  0  0  0  0  0  0  0
    1.3870   -1.3240    0.5830 O   0  0  0  0  0  0  0  0  0  0  0  0
    2.3480    1.4560    0.5430 C   0  0  0  0  0  0  0  0  0  0  0  0
    3.3470    1.0170    1.4690 N   0  0  0  0  0  0  0  0  0  0  0  0
    4.4650    0.2580    1.0710 C   0  0  0  0  0  0  0  0  0  0  0  0
    4.6140   -0.0510   -0.1230 O   0  0  0  0  0  0  0  0  0  0  0  0
    5.4340   -0.1670    1.9900 O   0  0  0  0  0  0  0  0  0  0  0  0
    6.5220   -0.9320    1.4670 C   0  0  0  0  0  0  0  0  0  0  0  0
    7.2050   -0.0740    0.4590 C   0  0  0  0  0  0  0  0  0  0  0  0
    8.0370   -0.6170   -0.5040 C   0  0  0  0  0  0  0  0  0  0  0  0
    8.6710    0.1690   -1.4430 C   0  0  0  0  0  0  0  0  0  0  0  0
    8.5030    1.5380   -1.4640 C   0  0  0  0  0  0  0  0  0  0  0  0
    7.6720    2.0610   -0.4990 C   0  0  0  0  0  0  0  0  0  0  0  0
    7.0280    1.2960    0.4490 C   0  0  0  0  0  0  0  0  0  0  0  0
  1  2  1  0
  2  3  1  0
  3  4  1  6
  3  5  1  0
  5  6  1  0
  6  7  1  0
  7  8  2  0
  7  9  1  0
  9 10  1  1
  9 14  1  0
 10 11  1  0
 11 12  1  6
 11 13  1  0
 14 15  1  0
 15 16  1  0
 15 17  1  0
 15 18  1  0
 18 19  1  0
 19 20  1  0
 20 21  2  0
 20 22  1  0
 22 23  1  0
 23 24  1  0
 24 25  2  0
 24 29  1  0
 25 26  1  0
 26 27  2  0
 27 28  1  0
 28 29  2  0
M  END
