
     RDKit          3D

 29 30  0  0  0  0  0  0  0  0999 V2000
   -6.4750   -3.9070   -0.2280 C   0  0  0  0  0  0  0  0  0  0  0  0
   -5.8200   -2.5580   -0.2030 C   0  0  0  0  0  0  0  0  0  0  0  0
   -6.5790   -1.5980    0.4580 O   0  0  0  0  0  0  0  0  0  0  0  0
   -5.7800   -0.0800    0.4530 P   0  0  0  0  0  0  0  0  0  0  0  0
   -4.2700   -0.1900   -0.6330 C   0  0  0  0  0  0  0  0  0  0  0  0
   -3.3840    1.0310   -0.3380 C   0  0  0  0  0  0  0  0  0  0  0  0
   -3.0160    0.9380    1.1210 C   0  0  0  0  0  0  0  0  0  0  0  0
   -2.2670   -0.2810    1.3240 N   0  0  0  0  0  0  0  0  0  0  0  0
   -0.9590   -0.3500    0.7790 C   0  0  0  0  0  0  0  0  0  0  0  0
   -0.6940   -0.8420   -0.4030 C   0  0  0  0  0  0  0  0  0  0  0  0
    0.6870   -0.8550   -0.8450 N   0  0  0  0  0  0  0  0  0  0  0  0
    1.7560   -0.3680   -0.0680 C   0  0  0  0  0  0  0  0  0  0  0  0
    3.0400   -0.3470   -0.4030 C   0  0  0  0  0  0  0  0  0  0  0  0
    3.4770   -0.8530   -1.6700 C   0  0  0  0  0  0  0  0  0  0  0  0
    4.6510   -0.9300   -2.1850 C   0  0  0  0  0  0  0  0  0  0  0  0
    4.6650   -1.5200   -3.5210 O   0  0  0  0  0  0  0  0  0  0  0  0
    5.9410   -0.5630   -1.7310 C   0  0  0  0  0  0  0  0  0  0  0  0
    6.9720   -0.7820   -2.5290 O   0  0  0  0  0  0  0  0  0  0  0  0
    6.3570    0.0210   -0.5250 N   0  0  0  0  0  0  0  0  0  0  0  0
    7.7700    0.3250   -0.2470 C   0  0  1  0  0  0  0  0  0  0  0  0
    7.8350    1.7750    0.1470 C   0  0  0  0  0  0  0  0  0  0  0  0
    7.7420    1.6910    1.6650 C   0  0  0  0  0  0  0  0  0  0  0  0
    8.5790    0.5890    1.9180 O   0  0  0  0  0  0  0  0  0  0  0  0
    8.1000   -0.3860    1.0450 C   0  0  0  0  0  0  0  0  0  0  0  0
    1.3650    0.1710    1.2570 C   0  0  0  0  0  0  0  0  0  0  0  0
    0.1060    0.1800    1.6520 C   0  0  0  0  0  0  0  0  0  0  0  0
   -6.7570    1.2240   -0.0770 O   0  0  0  0  0  0  0  0  0  0  0  0
   -6.8760    2.2490    0.8290 C   0  0  0  0  0  0  0  0  0  0  0  0
   -7.7760    3.3120    0.1890 C   0  0  0  0  0  0  0  0  0  0  0  0
  1  2  1  0
  2  3  1  0
  3  4  1  0
  4  5  1  0
  4 27  1  0
  5  6  1  0
  6  7  1  0
  7  8  1  0
  8  9  1  0
  9 10  2  0
  9 26  1  0
 10 11  1  0
 11 12  1  0
 12 13  2  3
 12 25  1  0
 13 14  1  0
 14 15  2  3
 15 16  1  0
 15 17  1  0
 17 18  2  0
 17 19  1  0
 20 19  1  1
 20 21  1  0
 20 24  1  0
 21 22  1  0
 22 23  1  0
 23 24  1  0
 25 26  2  0
 27 28  1  0
 28 29  1  0
M  END
