
     RDKit          3D

 29 29  0  0  0  0  0  0  0  0999 V2000
   -7.0750   -0.0810    0.6750 C   0  0  0  0  0  0  0  0  0  0  0  0
   -6.2460    0.8500    1.4980 C   0  0  0  0  0  0  0  0  0  0  0  0
   -5.7500    2.0110    0.6640 C   0  0  1  0  0  0  0  0  0  0  0  0
   -4.9180    2.9620    1.4560 C   0  0  0  0  0  0  0  0  0  0  0  0
   -5.2810    1.6300   -0.6850 C   0  0  0  0  0  0  0  0  0  0  0  0
   -4.2140    0.6820   -0.7870 N   0  0  0  0  0  0  0  0  0  0  0  0
   -2.8900    0.8130   -0.3150 C   0  0  0  0  0  0  0  0  0  0  0  0
   -2.5680    1.8550    0.2520 O   0  0  0  0  0  0  0  0  0  0  0  0
   -1.9270   -0.3140   -0.5190 C   0  0  2  0  0  0  0  0  0  0  0  0
   -2.4170   -1.5670    0.0780 C   0  0  0  0  0  0  0  0  0  0  0  0
   -1.5970   -2.7790   -0.0920 C   0  0  2  0  0  0  0  0  0  0  0  0
   -2.2510   -3.9870    0.5800 C   0  0  0  0  0  0  0  0  0  0  0  0
   -0.1760   -2.7510    0.3380 C   0  0  0  0  0  0  0  0  0  0  0  0
   -0.6160   -0.0410   -0.0670 N   0  0  0  0  0  0  0  0  0  0  0  0
    0.4250    0.9510   -0.7100 P   0  0  0  0  0  0  0  0  0  0  0  0
   -0.2130    0.7260   -2.2420 O   0  0  0  0  0  0  0  0  0  0  0  0
   -0.1490    2.1820    0.2270 O   0  0  0  0  0  0  0  0  0  0  0  0
    1.9290    0.1880   -0.2680 C   0  0  0  0  0  0  0  0  0  0  0  0
    2.9930    1.0940    0.1780 N   0  0  0  0  0  0  0  0  0  0  0  0
    4.2730    0.6420    0.5720 C   0  0  0  0  0  0  0  0  0  0  0  0
    4.4810   -0.5990    0.5280 O   0  0  0  0  0  0  0  0  0  0  0  0
    5.2790    1.4980    0.9940 O   0  0  0  0  0  0  0  0  0  0  0  0
    6.5510    1.1030    1.3900 C   0  0  0  0  0  0  0  0  0  0  0  0
    7.2200    0.4010    0.2650 C   0  0  0  0  0  0  0  0  0  0  0  0
    7.6980    1.2050   -0.7760 C   0  0  0  0  0  0  0  0  0  0  0  0
    8.3210    0.5680   -1.8180 C   0  0  0  0  0  0  0  0  0  0  0  0
    8.4900   -0.8010   -1.8770 C   0  0  0  0  0  0  0  0  0  0  0  0
    8.0030   -1.5440   -0.8300 C   0  0  0  0  0  0  0  0  0  0  0  0
    7.3640   -0.9620    0.2500 C   0  0  0  0  0  0  0  0  0  0  0  0
  1  2  1  0
  2  3  1  0
  3  4  1  1
  3  5  1  0
  5  6  1  0
  6  7  1  0
  7  8  2  0
  7  9  1  0
  9 10  1  1
  9 14  1  0
 10 11  1  0
 11 12  1  1
 11 13  1  0
 14 15  1  0
 15 16  1  0
 15 17  1  0
 15 18  1  0
 18 19  1  0
 19 20  1  0
 20 21  2  0
 20 22  1  0
 22 23  1  0
 23 24  1  0
 24 25  2  0
 24 29  1  0
 25 26  1  0
 26 27  2  0
 27 28  1  0
 28 29  2  0
M  END
