
     RDKit          3D

 28 28  0  0  0  0  0  0  0  0999 V2000
   -6.2840    2.2110    0.7370 C   0  0  0  0  0  0  0  0  0  0  0  0
   -5.7770    0.8890    0.1300 C   0  0  0  0  0  0  0  0  0  0  0  0
   -5.1120    0.2230    1.1020 O   0  0  0  0  0  0  0  0  0  0  0  0
   -4.1560   -1.0870    0.4790 P   0  0  0  0  0  0  0  0  0  0  0  0
   -2.5060   -1.0630    1.2150 C   0  0  0  0  0  0  0  0  0  0  0  0
   -1.8310    0.0820    0.5380 N   0  0  0  0  0  0  0  0  0  0  0  0
   -0.6710    0.4940    1.2700 C   0  0  0  0  0  0  0  0  0  0  0  0
   -0.0020    1.5510    0.4640 C   0  0  0  0  0  0  0  0  0  0  0  0
    0.5910    0.8890   -0.8250 C   0  0  1  0  0  0  0  0  0  0  0  0
    2.0490    0.9800   -0.6090 C   0  0  0  0  0  0  0  0  0  0  0  0
    2.7840    1.7980   -1.2510 O   0  0  0  0  0  0  0  0  0  0  0  0
    2.7370    0.1840    0.3870 N   0  0  0  0  0  0  0  0  0  0  0  0
    4.0770    0.5050    0.7370 C   0  0  0  0  0  0  0  0  0  0  0  0
    5.1820    0.5200   -0.1270 C   0  0  0  0  0  0  0  0  0  0  0  0
    6.0180   -0.5940   -0.5910 C   0  0  0  0  0  0  0  0  0  0  0  0
    6.9090   -1.1010    0.5590 C   0  0  1  0  0  0  0  0  0  0  0  0
    7.8910   -2.1320    0.0260 C   0  0  0  0  0  0  0  0  0  0  0  0
    7.6430    0.0150    1.2030 C   0  0  0  0  0  0  0  0  0  0  0  0
    6.0820   -1.6680    1.5290 O   0  0  0  0  0  0  0  0  0  0  0  0
   -0.0250   -0.4230   -1.0560 C   0  0  0  0  0  0  0  0  0  0  0  0
   -1.5430   -0.2500   -0.8340 C   0  0  2  0  0  0  0  0  0  0  0  0
   -1.9910    0.8630   -1.6950 C   0  0  0  0  0  0  0  0  0  0  0  0
   -1.7210    0.9070   -2.9440 O   0  0  0  0  0  0  0  0  0  0  0  0
   -2.7390    1.9810   -1.1970 N   0  0  0  0  0  0  0  0  0  0  0  0
   -3.1370    3.0720   -2.0120 C   0  0  0  0  0  0  0  0  0  0  0  0
   -4.9680   -2.3470   -0.1570 O   0  0  0  0  0  0  0  0  0  0  0  0
   -5.8170   -2.9710    0.7970 C   0  0  0  0  0  0  0  0  0  0  0  0
   -7.2050   -2.9630    0.1800 C   0  0  0  0  0  0  0  0  0  0  0  0
  1  2  1  0
  2  3  1  0
  3  4  1  0
  4  5  1  0
  4 26  1  0
  5  6  1  0
  6  7  1  0
  6 21  1  0
  7  8  1  0
  8  9  1  0
  9 10  1  1
  9 20  1  0
 10 11  2  0
 10 12  1  0
 12 13  1  0
 13 14  1  0
 14 15  1  0
 15 16  1  0
 16 17  1  6
 16 18  1  0
 16 19  1  0
 20 21  1  0
 21 22  1  6
 22 23  2  0
 22 24  1  0
 24 25  1  0
 26 27  1  0
 27 28  1  0
M  END
