
     RDKit          3D

 28 29  0  0  0  0  0  0  0  0999 V2000
    0.6380    1.1460    0.7530 O   0  0  0  0  0  0  0  0  0  0  0  0
    0.1870    1.2060   -0.4050 C   0  0  0  0  0  0  0  0  0  0  0  0
   -1.1940    1.0920   -0.7240 N   0  0  0  0  0  0  0  0  0  0  0  0
   -2.1580    0.8950    0.3210 C   0  0  1  0  0  0  0  0  0  0  0  0
   -3.1890    1.9930    0.2130 C   0  0  0  0  0  0  0  0  0  0  0  0
   -2.5870    3.2460    0.3560 O   0  0  0  0  0  0  0  0  0  0  0  0
   -3.3360    4.4010    0.2920 C   0  0  0  0  0  0  0  0  0  0  0  0
   -4.5790    4.2740    0.1010 O   0  0  0  0  0  0  0  0  0  0  0  0
   -2.8140    5.6710    0.4230 O   0  0  0  0  0  0  0  0  0  0  0  0
   -3.5940    6.7510    0.3520 O   0  0  0  0  0  0  0  0  0  0  0  0
   -2.8650   -0.4020    0.0260 C   0  0  0  0  0  0  0  0  0  0  0  0
   -2.5830   -1.1030   -0.9770 O   0  0  0  0  0  0  0  0  0  0  0  0
   -3.8900   -0.8890    0.8820 N   0  0  0  0  0  0  0  0  0  0  0  0
   -4.6050   -2.1160    0.6640 C   0  0  0  0  0  0  0  0  0  0  0  0
   -3.6900   -3.3200    0.6490 C   0  0  0  0  0  0  0  0  0  0  0  0
   -4.4360   -4.4760    0.4340 O   0  0  0  0  0  0  0  0  0  0  0  0
   -3.6050   -5.4890    0.4280 O   0  0  0  0  0  0  0  0  0  0  0  0
    1.0750    1.3930   -1.4280 O   0  0  0  0  0  0  0  0  0  0  0  0
    2.4030    1.5160   -1.2640 O   0  0  0  0  0  0  0  0  0  0  0  0
    3.1850    0.4550   -0.8190 C   0  0  0  0  0  0  0  0  0  0  0  0
    2.7850   -0.3170    0.0990 N   0  0  0  0  0  0  0  0  0  0  0  0
    3.7310   -1.2750    0.3530 O   0  0  0  0  0  0  0  0  0  0  0  0
    4.9180   -0.8140   -0.2410 C   0  0  2  0  0  0  0  0  0  0  0  0
    5.8140   -1.9050   -0.7340 C   0  0  0  0  0  0  0  0  0  0  0  0
    7.1520   -1.1680   -0.7210 C   0  0  0  0  0  0  0  0  0  0  0  0
    7.1150   -0.3420    0.3720 O   0  0  0  0  0  0  0  0  0  0  0  0
    5.8100   -0.0550    0.6810 C   0  0  0  0  0  0  0  0  0  0  0  0
    4.4370    0.0400   -1.2270 O   0  0  0  0  0  0  0  0  0  0  0  0
  1  2  2  0
  2  3  1  0
  2 18  1  0
  3  4  1  0
  4  5  1  6
  4 11  1  0
  5  6  1  0
  6  7  1  0
  7  8  2  0
  7  9  1  0
  9 10  1  0
 11 12  2  0
 11 13  1  0
 13 14  1  0
 14 15  1  0
 15 16  1  0
 16 17  1  0
 18 19  1  0
 19 20  1  0
 20 21  2  0
 20 28  1  0
 21 22  1  0
 22 23  1  0
 23 24  1  6
 23 27  1  0
 23 28  1  0
 24 25  1  0
 25 26  1  0
 26 27  1  0
M  END
