
     RDKit          3D

 28 28  0  0  0  0  0  0  0  0999 V2000
    7.7900    2.6740    0.1630 C   0  0  0  0  0  0  0  0  0  0  0  0
    6.7990    1.8310   -0.5720 C   0  0  0  0  0  0  0  0  0  0  0  0
    7.0670    0.4550   -0.4010 O   0  0  0  0  0  0  0  0  0  0  0  0
    5.8910   -0.4920   -1.2720 P   0  0  0  0  0  0  0  0  0  0  0  0
    5.5110   -1.9130   -0.3520 O   0  0  0  0  0  0  0  0  0  0  0  0
    4.4660    0.4380   -1.4760 O   0  0  0  0  0  0  0  0  0  0  0  0
    3.3150   -0.3700   -1.6340 C   0  0  0  0  0  0  0  0  0  0  0  0
    2.1080    0.5150   -1.8060 C   0  0  0  0  0  0  0  0  0  0  0  0
    0.8720   -0.1330   -1.9850 N   0  0  0  0  0  0  0  0  0  0  0  0
    0.2030   -0.9320   -0.9240 C   0  0  0  0  0  0  0  0  0  0  0  0
    0.7300   -2.0920   -0.7700 C   0  0  0  0  0  0  0  0  0  0  0  0
    0.4260   -3.1760    0.1390 C   0  0  0  0  0  0  0  0  0  0  0  0
    1.1040   -4.3090    0.0880 C   0  0  0  0  0  0  0  0  0  0  0  0
    0.7940   -5.4140    1.0170 C   0  0  0  0  0  0  0  0  0  0  0  0
    2.1830   -4.4890   -0.9030 C   0  0  0  0  0  0  0  0  0  0  0  0
   -0.9880   -0.2990   -0.4610 C   0  0  0  0  0  0  0  0  0  0  0  0
   -0.9920    1.0960   -0.2350 C   0  0  0  0  0  0  0  0  0  0  0  0
   -2.0850    1.7790    0.1140 N   0  0  0  0  0  0  0  0  0  0  0  0
   -3.2690    1.1770    0.2760 C   0  0  0  0  0  0  0  0  0  0  0  0
   -4.4970    1.9450    0.6420 C   0  0  1  0  0  0  0  0  0  0  0  0
   -5.2890    1.1150    1.6280 C   0  0  0  0  0  0  0  0  0  0  0  0
   -4.1960    3.2520    1.0900 N   0  0  0  0  0  0  0  0  0  0  0  0
   -5.2060    4.2040    1.2770 C   0  0  0  0  0  0  0  0  0  0  0  0
   -6.1730    3.9760    2.3890 C   0  0  0  0  0  0  0  0  0  0  0  0
   -7.0920    5.0630    2.4130 O   0  0  0  0  0  0  0  0  0  0  0  0
   -3.3520   -0.1640    0.0750 C   0  0  0  0  0  0  0  0  0  0  0  0
   -2.1930   -0.9000   -0.3000 C   0  0  0  0  0  0  0  0  0  0  0  0
   -2.4030   -2.3320   -0.6310 C   0  0  0  0  0  0  0  0  0  0  0  0
  1  2  1  0
  2  3  1  0
  3  4  1  0
  4  5  1  0
  4  6  1  0
  6  7  1  0
  7  8  1  0
  8  9  1  0
  9 10  1  0
 10 11  2  3
 10 16  1  0
 11 12  1  0
 12 13  2  3
 13 14  1  0
 13 15  1  0
 16 17  2  0
 16 27  1  0
 17 18  1  0
 18 19  2  0
 19 20  1  0
 19 26  1  0
 20 21  1  1
 20 22  1  0
 22 23  1  0
 23 24  1  0
 24 25  1  0
 26 27  2  0
 27 28  1  0
M  END
