
     RDKit          3D

 21 23  0  0  0  0  0  0  0  0999 V2000
   -1.7530    2.9050   -0.0780 C   0  0  0  0  0  0  0  0  0  0  0  0
   -1.2500    2.0810   -1.2390 C   0  0  0  0  0  0  0  0  0  0  0  0
   -0.0110    1.3880   -0.8410 C   0  0  0  0  0  0  0  0  0  0  0  0
    1.2200    1.9310   -1.2670 C   0  0  0  0  0  0  0  0  0  0  0  0
    2.3950    1.3370   -0.9050 C   0  0  0  0  0  0  0  0  0  0  0  0
    2.3770    0.2030   -0.1220 C   0  0  0  0  0  0  0  0  0  0  0  0
    3.5690   -0.4360    0.3030 N   0  0  0  0  0  0  0  0  0  0  0  0
    4.8560   -0.7430   -0.7670 S   0  0  2  0  0  0  0  0  0  0  0  0
    6.1700   -0.8310    0.0010 O   0  0  0  0  0  0  0  0  0  0  0  0
    5.0350    0.3120   -1.7890 O   0  0  0  0  0  0  0  0  0  0  0  0
    1.1720   -0.3520    0.3100 C   0  0  0  0  0  0  0  0  0  0  0  0
    1.1720   -1.4910    1.0850 C   0  0  0  0  0  0  0  0  0  0  0  0
   -0.0020   -2.0610    1.5150 C   0  0  0  0  0  0  0  0  0  0  0  0
   -0.0120   -3.2230    2.3070 O   0  0  0  0  0  0  0  0  0  0  0  0
   -1.1770   -1.4650    1.1530 C   0  0  0  0  0  0  0  0  0  0  0  0
   -1.1950   -0.3120    0.3680 C   0  0  0  0  0  0  0  0  0  0  0  0
   -0.0340    0.2600   -0.0630 C   0  0  0  0  0  0  0  0  0  0  0  0
   -2.4190    0.2440    0.0320 O   0  0  0  0  0  0  0  0  0  0  0  0
   -3.5450   -0.5780   -0.1350 C   0  0  0  0  0  0  0  0  0  0  0  0
   -3.5150   -1.8400    0.6480 C   0  0  0  0  0  0  0  0  0  0  0  0
   -2.4220   -1.9500    1.5280 O   0  0  0  0  0  0  0  0  0  0  0  0
  1  2  1  0
  2  3  1  0
  3  4  2  0
  3 17  1  0
  4  5  1  0
  5  6  2  0
  6  7  1  0
  6 11  1  0
  8  7  1  1
  8  9  2  0
  8 10  2  0
 11 12  2  0
 11 17  1  0
 12 13  1  0
 13 14  1  0
 13 15  2  0
 15 16  1  0
 15 21  1  0
 16 17  2  0
 16 18  1  0
 18 19  1  0
 19 20  1  0
 20 21  1  0
M  END
