
     RDKit          3D

 21 23  0  0  0  0  0  0  0  0999 V2000
   -5.0820    0.5880   -0.1760 C   0  0  0  0  0  0  0  0  0  0  0  0
   -3.6840    0.4210   -0.2530 O   0  0  0  0  0  0  0  0  0  0  0  0
   -2.8200    0.5080    0.8100 C   0  0  0  0  0  0  0  0  0  0  0  0
   -3.3420    0.7590    1.9410 O   0  0  0  0  0  0  0  0  0  0  0  0
   -1.3720    0.3370    0.7420 C   0  0  2  0  0  0  0  0  0  0  0  0
   -0.5840    1.5540   -0.3880 S   0  0  0  0  0  0  0  0  0  0  0  0
    1.1340    1.1330   -0.3480 C   0  0  0  0  0  0  0  0  0  0  0  0
    2.0770    2.0970   -0.4940 C   0  0  0  0  0  0  0  0  0  0  0  0
    3.4260    1.7720   -0.4600 C   0  0  0  0  0  0  0  0  0  0  0  0
    4.4980    2.5160   -0.5750 O   0  0  0  0  0  0  0  0  0  0  0  0
    5.5220    1.7050   -0.4690 C   0  0  0  0  0  0  0  0  0  0  0  0
    6.7270    2.1260   -0.5400 O   0  0  0  0  0  0  0  0  0  0  0  0
    5.1340    0.4340   -0.2850 N   0  0  0  0  0  0  0  0  0  0  0  0
    3.7890    0.4520   -0.2750 C   0  0  0  0  0  0  0  0  0  0  0  0
    2.8310   -0.5230   -0.1280 C   0  0  0  0  0  0  0  0  0  0  0  0
    1.4650   -0.1750   -0.1660 C   0  0  0  0  0  0  0  0  0  0  0  0
    0.4550   -1.2000   -0.0130 C   0  0  0  0  0  0  0  0  0  0  0  0
    0.8550   -2.4100   -0.1200 O   0  0  0  0  0  0  0  0  0  0  0  0
   -0.9810   -1.0120    0.2510 C   0  0  2  0  0  0  0  0  0  0  0  0
   -1.8070   -1.3030   -1.0080 C   0  0  0  0  0  0  0  0  0  0  0  0
   -1.3730   -2.1120    1.2520 C   0  0  0  0  0  0  0  0  0  0  0  0
  1  2  1  0
  2  3  1  0
  3  4  2  0
  5  3  1  6
  5  6  1  0
  5 19  1  0
  6  7  1  0
  7  8  2  0
  7 16  1  0
  8  9  1  0
  9 10  1  0
  9 14  2  0
 10 11  1  0
 11 12  2  0
 11 13  1  0
 13 14  1  0
 14 15  1  0
 15 16  2  0
 16 17  1  0
 17 18  2  0
 17 19  1  0
 19 20  1  6
 19 21  1  0
M  END
