
     RDKit          3D

 21 24  0  0  0  0  0  0  0  0999 V2000
    4.1930    2.9480   -0.0610 O   0  0  0  0  0  0  0  0  0  0  0  0
    3.6610    1.7950   -0.0260 C   0  0  0  0  0  0  0  0  0  0  0  0
    4.2800    0.5060    0.1180 C   0  0  0  0  0  0  0  0  0  0  0  0
    3.2710   -0.3630    0.0880 C   0  0  0  0  0  0  0  0  0  0  0  0
    3.0170   -1.7430    0.1680 N   0  0  0  0  0  0  0  0  0  0  0  0
    1.6380   -1.9670    0.0570 C   0  0  0  0  0  0  0  0  0  0  0  0
    1.1840   -3.1580    0.1020 O   0  0  0  0  0  0  0  0  0  0  0  0
    0.8850   -0.7240   -0.1090 C   0  0  0  0  0  0  0  0  0  0  0  0
   -0.3900   -0.6240    0.0780 C   0  0  0  0  0  0  0  0  0  0  0  0
   -1.1220   -1.8020    0.5560 N   0  0  0  0  0  0  0  0  0  0  0  0
   -2.5130   -1.8810    0.6850 C   0  0  0  0  0  0  0  0  0  0  0  0
   -3.0560   -2.9970    1.0140 O   0  0  0  0  0  0  0  0  0  0  0  0
   -3.3540   -0.7180    0.4520 C   0  0  0  0  0  0  0  0  0  0  0  0
   -2.5970    0.4420   -0.0830 C   0  0  0  0  0  0  0  0  0  0  0  0
   -1.2910    0.4700   -0.2460 C   0  0  0  0  0  0  0  0  0  0  0  0
   -1.0820    1.6130   -1.1700 C   0  0  0  0  0  0  0  0  0  0  0  0
   -0.0540    2.0460   -1.6550 O   0  0  0  0  0  0  0  0  0  0  0  0
   -2.3570    2.1780   -1.4580 O   0  0  0  0  0  0  0  0  0  0  0  0
   -3.1950    1.7910   -0.4470 C   0  0  0  0  0  0  0  0  0  0  0  0
    1.9670    0.3070   -0.0820 C   0  0  0  0  0  0  0  0  0  0  0  0
    2.2320    1.5790   -0.1350 C   0  0  0  0  0  0  0  0  0  0  0  0
  1  2  2  0
  2  3  1  0
  2 21  1  0
  3  4  2  0
  4  5  1  0
  4 20  1  0
  5  6  1  0
  6  7  2  0
  6  8  1  0
  8  9  2  3
  8 20  1  0
  9 10  1  0
  9 15  1  0
 10 11  1  0
 11 12  2  0
 11 13  1  0
 13 14  1  0
 14 15  2  0
 14 19  1  0
 15 16  1  0
 16 17  2  0
 16 18  1  0
 18 19  1  0
 20 21  2  0
M  END
