
     RDKit          3D

 41 44  0  0  0  0  0  0  0  0999 V2000
    0.1330    6.7790    1.5760 C   0  0  0  0  0  0  0  0  0  0  0  0
   -0.0840    5.3680    1.4700 O   0  0  0  0  0  0  0  0  0  0  0  0
    0.7490    4.5980    0.6920 C   0  0  0  0  0  0  0  0  0  0  0  0
    1.6870    5.1840    0.0930 O   0  0  0  0  0  0  0  0  0  0  0  0
    0.5540    3.1600    0.5660 C   0  0  0  0  0  0  0  0  0  0  0  0
   -0.4540    2.4830    1.2030 C   0  0  0  0  0  0  0  0  0  0  0  0
   -0.6310    1.1240    1.0790 C   0  0  0  0  0  0  0  0  0  0  0  0
    0.2390    0.3880    0.2760 C   0  0  0  0  0  0  0  0  0  0  0  0
    0.0440   -0.9860    0.1310 N   0  0  0  0  0  0  0  0  0  0  0  0
   -0.9800   -1.6930    0.8970 C   0  0  1  0  0  0  0  0  0  0  0  0
   -0.7500   -1.6050    2.3570 C   0  0  0  0  0  0  0  0  0  0  0  0
   -2.3570   -1.3400    0.4790 C   0  0  0  0  0  0  0  0  0  0  0  0
   -3.4580   -1.3160    1.2960 C   0  0  0  0  0  0  0  0  0  0  0  0
   -4.7210   -0.9560    0.7980 C   0  0  0  0  0  0  0  0  0  0  0  0
   -4.9210   -0.6120   -0.5180 C   0  0  0  0  0  0  0  0  0  0  0  0
   -6.2770   -0.2410   -0.9920 C   0  0  1  0  0  0  0  0  0  0  0  0
   -7.1980   -1.4400   -0.7780 C   0  0  0  0  0  0  0  0  0  0  0  0
   -8.6370   -1.0610   -1.0370 C   0  0  0  0  0  0  0  0  0  0  0  0
   -9.2520   -0.2840    0.0750 C   0  0  0  0  0  0  0  0  0  0  0  0
   -8.2890    0.3310    1.0310 C   0  0  0  0  0  0  0  0  0  0  0  0
   -6.9200    1.0800    0.0760 S   0  0  0  0  0  0  0  0  0  0  0  0
   -3.8180   -0.6350   -1.3450 C   0  0  0  0  0  0  0  0  0  0  0  0
   -2.5780   -0.9870   -0.8640 C   0  0  0  0  0  0  0  0  0  0  0  0
    1.2610    1.0260   -0.3790 C   0  0  0  0  0  0  0  0  0  0  0  0
    2.2450    0.3810   -1.2250 C   0  0  0  0  0  0  0  0  0  0  0  0
    3.1550    1.0810   -1.7930 O   0  0  0  0  0  0  0  0  0  0  0  0
    2.3180   -0.9530   -1.5010 O   0  0  0  0  0  0  0  0  0  0  0  0
    3.2550   -1.6090   -2.3130 C   0  0  0  0  0  0  0  0  0  0  0  0
    4.6520   -1.4370   -1.8410 C   0  0  0  0  0  0  0  0  0  0  0  0
    5.1040   -2.1820   -0.7610 C   0  0  0  0  0  0  0  0  0  0  0  0
    6.4100   -2.0580   -0.2830 C   0  0  0  0  0  0  0  0  0  0  0  0
    7.3000   -1.1880   -0.8680 C   0  0  0  0  0  0  0  0  0  0  0  0
    8.6700   -1.0220   -0.4060 C   0  0  0  0  0  0  0  0  0  0  0  0
    9.4310   -0.2360   -1.0250 O   0  0  0  0  0  0  0  0  0  0  0  0
    9.2050   -1.6970    0.7100 N   0  0  0  0  0  0  0  0  0  0  0  0
   10.5900   -1.4990    1.1400 C   0  0  2  0  0  0  0  0  0  0  0  0
   11.2540   -2.7210    0.9850 F   0  0  0  0  0  0  0  0  0  0  0  0
   10.6580   -1.1370    2.4710 F   0  0  0  0  0  0  0  0  0  0  0  0
    6.8290   -0.4560   -1.9420 C   0  0  0  0  0  0  0  0  0  0  0  0
    5.5440   -0.5630   -2.4300 C   0  0  0  0  0  0  0  0  0  0  0  0
    1.3900    2.4020   -0.2150 C   0  0  0  0  0  0  0  0  0  0  0  0
  1  2  1  0
  2  3  1  0
  3  4  2  0
  3  5  1  0
  5  6  2  0
  5 41  1  0
  6  7  1  0
  7  8  2  0
  8  9  1  0
  8 24  1  0
  9 10  1  0
 10 11  1  1
 10 12  1  0
 12 13  2  0
 12 23  1  0
 13 14  1  0
 14 15  2  0
 16 15  1  1
 15 22  1  0
 16 17  1  0
 16 21  1  0
 17 18  1  0
 18 19  1  0
 19 20  1  0
 20 21  1  0
 22 23  2  0
 24 25  1  0
 24 41  2  0
 25 26  2  0
 25 27  1  0
 27 28  1  0
 28 29  1  0
 29 30  2  0
 29 40  1  0
 30 31  1  0
 31 32  2  0
 32 33  1  0
 32 39  1  0
 33 34  2  0
 33 35  1  0
 35 36  1  0
 36 37  1  1
 36 38  1  0
 39 40  2  0
M  END
