
     RDKit          3D

 42 45  0  0  0  0  0  0  0  0999 V2000
   -2.1180   -5.4790    0.6430 C   0  0  0  0  0  0  0  0  0  0  0  0
   -2.1000   -4.2180    1.4940 C   0  0  2  0  0  0  0  0  0  0  0  0
   -2.3140   -4.5430    2.9470 C   0  0  0  0  0  0  0  0  0  0  0  0
   -3.1110   -3.2500    1.0010 C   0  0  0  0  0  0  0  0  0  0  0  0
   -4.4540   -3.4970    0.9980 C   0  0  0  0  0  0  0  0  0  0  0  0
   -5.3680   -2.5860    0.5370 C   0  0  0  0  0  0  0  0  0  0  0  0
   -4.9500   -1.3460    0.0440 C   0  0  0  0  0  0  0  0  0  0  0  0
   -5.9780   -0.4690   -0.4180 C   0  0  0  0  0  0  0  0  0  0  0  0
   -5.8540    0.7360   -0.8880 C   0  0  0  0  0  0  0  0  0  0  0  0
   -7.1120    1.4650   -1.3160 C   0  0  0  0  0  0  0  0  0  0  0  0
   -7.2270    2.6080   -0.5610 O   0  0  0  0  0  0  0  0  0  0  0  0
   -6.1730    3.4760   -0.7610 C   0  0  1  0  0  0  0  0  0  0  0  0
   -6.7890    4.7510   -1.3650 C   0  0  0  0  0  0  0  0  0  0  0  0
   -5.5310    3.8770    0.5660 C   0  0  1  0  0  0  0  0  0  0  0  0
   -6.4710    4.5060    1.3720 F   0  0  0  0  0  0  0  0  0  0  0  0
   -5.0960    2.7640    1.2370 F   0  0  0  0  0  0  0  0  0  0  0  0
   -4.4500    4.7000    0.3380 F   0  0  0  0  0  0  0  0  0  0  0  0
   -3.6280   -1.0720    0.0340 C   0  0  0  0  0  0  0  0  0  0  0  0
   -2.9720    0.4420   -0.5700 S   0  0  0  0  0  0  0  0  0  0  0  0
   -1.2030    0.4290   -0.4360 C   0  0  0  0  0  0  0  0  0  0  0  0
   -0.5610    0.8920    0.6870 C   0  0  0  0  0  0  0  0  0  0  0  0
    0.8430    0.8720    0.7820 C   0  0  0  0  0  0  0  0  0  0  0  0
    1.6210    0.3930   -0.2330 C   0  0  0  0  0  0  0  0  0  0  0  0
    3.0490    0.3740   -0.1870 N   0  0  0  0  0  0  0  0  0  0  0  0
    3.8720    1.1620    0.6080 C   0  0  0  0  0  0  0  0  0  0  0  0
    3.1990    2.0040    1.3250 O   0  0  0  0  0  0  0  0  0  0  0  0
    5.2940    1.2220    0.8030 C   0  0  0  0  0  0  0  0  0  0  0  0
    6.1860    0.4060    0.3120 C   0  0  0  0  0  0  0  0  0  0  0  0
    5.8520   -0.7480   -0.5360 C   0  0  1  0  0  0  0  0  0  0  0  0
    6.0380   -0.5960   -1.9850 C   0  0  0  0  0  0  0  0  0  0  0  0
    7.4480   -0.7860   -2.1980 N   0  0  0  0  0  0  0  0  0  0  0  0
    7.7720   -1.7790   -1.2330 C   0  0  0  0  0  0  0  0  0  0  0  0
    8.7490   -2.5900   -1.4050 O   0  0  0  0  0  0  0  0  0  0  0  0
    6.9100   -1.6960   -0.1860 O   0  0  0  0  0  0  0  0  0  0  0  0
    7.6370    0.7330    0.5920 C   0  0  0  0  0  0  0  0  0  0  0  0
    7.9340    2.1920    0.3000 C   0  0  0  0  0  0  0  0  0  0  0  0
    7.0300    3.0710    1.1360 C   0  0  0  0  0  0  0  0  0  0  0  0
    5.8600    2.3260    1.6360 C   0  0  0  0  0  0  0  0  0  0  0  0
    5.2810    2.5510    2.7380 O   0  0  0  0  0  0  0  0  0  0  0  0
    0.9450   -0.0670   -1.3520 C   0  0  0  0  0  0  0  0  0  0  0  0
   -0.4270   -0.0540   -1.4610 C   0  0  0  0  0  0  0  0  0  0  0  0
   -2.7240   -2.0210    0.5100 C   0  0  0  0  0  0  0  0  0  0  0  0
  2  1  1  6
  2  3  1  0
  2  4  1  0
  4  5  2  0
  4 42  1  0
  5  6  1  0
  6  7  2  0
  7  8  1  0
  7 18  1  0
  8  9  2  3
  9 10  1  0
 10 11  1  0
 11 12  1  0
 12 13  1  1
 12 14  1  0
 14 15  1  1
 14 16  1  0
 14 17  1  0
 18 19  1  0
 18 42  2  0
 19 20  1  0
 20 21  2  0
 20 41  1  0
 21 22  1  0
 22 23  2  0
 23 24  1  0
 23 40  1  0
 24 25  1  0
 25 26  2  0
 25 27  1  0
 27 28  2  0
 27 38  1  0
 29 28  1  1
 28 35  1  0
 29 30  1  0
 29 34  1  0
 30 31  1  0
 31 32  1  0
 32 33  2  0
 32 34  1  0
 35 36  1  0
 36 37  1  0
 37 38  1  0
 38 39  2  0
 40 41  2  0
M  END
