
     RDKit          3D

 42 45  0  0  0  0  0  0  0  0999 V2000
   10.8360    0.9510   -3.2130 C   0  0  0  0  0  0  0  0  0  0  0  0
    9.6300    1.1720   -2.5360 O   0  0  0  0  0  0  0  0  0  0  0  0
    9.7460    0.7960   -1.2100 C   0  0  0  0  0  0  0  0  0  0  0  0
   10.0940   -0.6730   -1.0500 C   0  0  0  0  0  0  0  0  0  0  0  0
    9.0350   -1.5310   -1.6670 C   0  0  1  0  0  0  0  0  0  0  0  0
    9.4450   -2.9790   -1.4720 C   0  0  0  0  0  0  0  0  0  0  0  0
    7.7970   -1.2530   -1.0550 O   0  0  0  0  0  0  0  0  0  0  0  0
    6.6770   -0.8230   -1.7180 C   0  0  0  0  0  0  0  0  0  0  0  0
    6.7230   -0.6550   -2.9590 O   0  0  0  0  0  0  0  0  0  0  0  0
    5.4270   -0.5550   -1.0210 C   0  0  0  0  0  0  0  0  0  0  0  0
    5.3220   -0.7230    0.3540 C   0  0  0  0  0  0  0  0  0  0  0  0
    4.1650   -0.4800    1.0200 C   0  0  0  0  0  0  0  0  0  0  0  0
    3.0350   -0.0480    0.3250 C   0  0  0  0  0  0  0  0  0  0  0  0
    1.8550    0.2150    1.0420 N   0  0  0  0  0  0  0  0  0  0  0  0
    0.5540    0.3720    0.5310 C   0  0  0  0  0  0  0  0  0  0  0  0
    0.4140    0.2500   -0.7410 O   0  0  0  0  0  0  0  0  0  0  0  0
   -0.6180    0.6550    1.3290 C   0  0  0  0  0  0  0  0  0  0  0  0
   -1.8790    0.4210    0.7710 C   0  0  0  0  0  0  0  0  0  0  0  0
   -3.0450    0.6340    1.4530 C   0  0  0  0  0  0  0  0  0  0  0  0
   -3.0010    1.0990    2.7450 C   0  0  0  0  0  0  0  0  0  0  0  0
   -4.2380    1.3530    3.5340 C   0  0  2  0  0  0  0  0  0  0  0  0
   -4.1830    0.7850    4.8060 O   0  0  0  0  0  0  0  0  0  0  0  0
   -5.4450    1.0220    2.7690 C   0  0  0  0  0  0  0  0  0  0  0  0
   -6.3350    0.0790    2.9710 C   0  0  0  0  0  0  0  0  0  0  0  0
   -7.4510   -0.0140    2.0280 C   0  0  0  0  0  0  0  0  0  0  0  0
   -7.5950    1.2010    1.2280 C   0  0  0  0  0  0  0  0  0  0  0  0
   -8.5790    1.6530    0.6210 N   0  0  0  0  0  0  0  0  0  0  0  0
   -9.8780    1.1040    0.5280 C   0  0  0  0  0  0  0  0  0  0  0  0
   -9.9670    0.2060   -0.6290 C   0  0  0  0  0  0  0  0  0  0  0  0
  -10.3300    0.7130   -1.8500 C   0  0  0  0  0  0  0  0  0  0  0  0
  -10.4220   -0.1030   -2.9530 C   0  0  0  0  0  0  0  0  0  0  0  0
  -10.1400   -1.4430   -2.7970 C   0  0  0  0  0  0  0  0  0  0  0  0
  -10.2260   -2.2650   -3.8770 F   0  0  0  0  0  0  0  0  0  0  0  0
   -9.7720   -1.9790   -1.5780 C   0  0  0  0  0  0  0  0  0  0  0  0
   -9.5130   -3.3000   -1.5100 F   0  0  0  0  0  0  0  0  0  0  0  0
   -9.6930   -1.1230   -0.5010 C   0  0  0  0  0  0  0  0  0  0  0  0
   -5.9710    1.9330    1.3160 S   0  0  0  0  0  0  0  0  0  0  0  0
   -1.7660    1.3450    3.3360 C   0  0  0  0  0  0  0  0  0  0  0  0
   -0.5890    1.1130    2.6000 C   0  0  0  0  0  0  0  0  0  0  0  0
    0.5610    1.4080    3.2650 F   0  0  0  0  0  0  0  0  0  0  0  0
    3.1520    0.1130   -1.0160 C   0  0  0  0  0  0  0  0  0  0  0  0
    4.3330   -0.1310   -1.7280 C   0  0  0  0  0  0  0  0  0  0  0  0
  1  2  1  0
  2  3  1  0
  3  4  1  0
  4  5  1  0
  5  6  1  1
  5  7  1  0
  7  8  1  0
  8  9  2  0
  8 10  1  0
 10 11  2  0
 10 42  1  0
 11 12  1  0
 12 13  2  0
 13 14  1  0
 13 41  1  0
 14 15  1  0
 15 16  2  0
 15 17  1  0
 17 18  2  0
 17 39  1  0
 18 19  1  0
 19 20  2  0
 20 21  1  0
 20 38  1  0
 21 22  1  1
 21 23  1  0
 23 24  2  0
 23 37  1  0
 24 25  1  0
 25 26  1  0
 26 27  2  3
 26 37  1  0
 27 28  1  0
 28 29  1  0
 29 30  2  0
 29 36  1  0
 30 31  1  0
 31 32  2  0
 32 33  1  0
 32 34  1  0
 34 35  1  0
 34 36  2  0
 38 39  2  0
 39 40  1  0
 41 42  2  0
M  END
