
     RDKit          3D

 42 45  0  0  0  0  0  0  0  0999 V2000
   -8.3080    2.5020   -1.4120 C   0  0  0  0  0  0  0  0  0  0  0  0
   -7.2150    1.6290   -1.8740 C   0  0  0  0  0  0  0  0  0  0  0  0
   -6.1230    1.3900   -1.0890 C   0  0  0  0  0  0  0  0  0  0  0  0
   -6.1580    2.0670    0.2030 C   0  0  0  0  0  0  0  0  0  0  0  0
   -5.0840    0.5410   -1.5850 C   0  0  0  0  0  0  0  0  0  0  0  0
   -5.2720    0.0580   -2.7730 O   0  0  0  0  0  0  0  0  0  0  0  0
   -3.8310    0.1630   -0.8850 C   0  0  1  0  0  0  0  0  0  0  0  0
   -3.1080    1.3990   -0.5760 C   0  0  0  0  0  0  0  0  0  0  0  0
   -1.8290    1.2860    0.1380 N   0  0  0  0  0  0  0  0  0  0  0  0
   -1.8750    1.4690    1.4530 C   0  0  0  0  0  0  0  0  0  0  0  0
   -2.9310    1.7380    2.0820 O   0  0  0  0  0  0  0  0  0  0  0  0
   -0.7140    1.3540    2.1100 N   0  0  0  0  0  0  0  0  0  0  0  0
    0.4270    1.0660    1.4410 C   0  0  0  0  0  0  0  0  0  0  0  0
    2.0680    0.8570    2.1110 S   0  0  0  0  0  0  0  0  0  0  0  0
    2.8200    0.5030    0.4540 C   0  0  0  0  0  0  0  0  0  0  0  0
    4.2540    0.3100    0.3960 C   0  0  0  0  0  0  0  0  0  0  0  0
    5.0030    0.8590    1.4490 C   0  0  0  0  0  0  0  0  0  0  0  0
    6.3440    0.7040    1.5400 C   0  0  0  0  0  0  0  0  0  0  0  0
    7.0280   -0.0120    0.5840 C   0  0  0  0  0  0  0  0  0  0  0  0
    8.4040   -0.1760    0.6690 O   0  0  0  0  0  0  0  0  0  0  0  0
    9.1330    0.3910    1.7430 C   0  0  0  0  0  0  0  0  0  0  0  0
   10.5980    0.0790    1.6190 C   0  0  0  0  0  0  0  0  0  0  0  0
    6.3120   -0.5550   -0.4490 C   0  0  0  0  0  0  0  0  0  0  0  0
    6.9810   -1.2840   -1.4300 O   0  0  0  0  0  0  0  0  0  0  0  0
    6.2690   -1.8630   -2.5210 C   0  0  0  0  0  0  0  0  0  0  0  0
    4.9130   -0.3980   -0.5520 C   0  0  0  0  0  0  0  0  0  0  0  0
    1.7750    0.5820   -0.3940 C   0  0  0  0  0  0  0  0  0  0  0  0
    2.0310    0.3530   -1.8770 C   0  0  2  0  0  0  0  0  0  0  0  0
    0.9720    0.6180   -2.6830 F   0  0  0  0  0  0  0  0  0  0  0  0
    2.2610   -1.0050   -2.0840 F   0  0  0  0  0  0  0  0  0  0  0  0
    3.1510    1.0590   -2.2160 F   0  0  0  0  0  0  0  0  0  0  0  0
    0.5430    0.8670    0.0890 C   0  0  0  0  0  0  0  0  0  0  0  0
   -0.7070    1.0010   -0.5420 C   0  0  0  0  0  0  0  0  0  0  0  0
   -0.8850    0.8670   -1.7690 O   0  0  0  0  0  0  0  0  0  0  0  0
   -4.1890   -0.8560    0.1230 C   0  0  1  0  0  0  0  0  0  0  0  0
   -4.8470   -2.0070   -0.6550 C   0  0  0  0  0  0  0  0  0  0  0  0
   -4.0400   -2.6840   -1.6700 C   0  0  0  0  0  0  0  0  0  0  0  0
   -3.0650   -1.4200    0.9180 C   0  0  0  0  0  0  0  0  0  0  0  0
   -3.0100   -1.4510    2.2530 C   0  0  0  0  0  0  0  0  0  0  0  0
   -1.7690   -2.0720    2.7250 C   0  0  0  0  0  0  0  0  0  0  0  0
   -1.0780   -2.4050    1.4450 C   0  0  0  0  0  0  0  0  0  0  0  0
   -1.8420   -2.0220    0.4370 C   0  0  0  0  0  0  0  0  0  0  0  0
  1  2  1  0
  2  3  2  3
  3  4  1  0
  3  5  1  0
  5  6  2  0
  5  7  1  0
  7  8  1  1
  7 35  1  0
  8  9  1  0
  9 10  1  0
  9 33  1  0
 10 11  2  0
 10 12  1  0
 12 13  1  0
 13 14  1  0
 13 32  2  0
 14 15  1  0
 15 16  1  0
 15 27  2  0
 16 17  2  0
 16 26  1  0
 17 18  1  0
 18 19  2  0
 19 20  1  0
 19 23  1  0
 20 21  1  0
 21 22  1  0
 23 24  1  0
 23 26  2  0
 24 25  1  0
 27 28  1  0
 27 32  1  0
 28 29  1  6
 28 30  1  0
 28 31  1  0
 32 33  1  0
 33 34  2  0
 35 36  1  6
 35 38  1  0
 36 37  1  0
 38 39  2  0
 38 42  1  0
 39 40  1  0
 40 41  1  0
 41 42  2  0
M  END
