
     RDKit          3D

 22 23  0  0  0  0  0  0  0  0999 V2000
    3.3470   -2.2360   -1.6850 C   0  0  0  0  0  0  0  0  0  0  0  0
    2.3390   -1.1510   -1.2050 C   0  0  0  0  0  0  0  0  0  0  0  0
    2.9480   -0.3380   -0.1390 C   0  0  0  0  0  0  0  0  0  0  0  0
    2.2140    0.7880    0.4580 C   0  0  2  0  0  0  0  0  0  0  0  0
    0.9770    0.5730    1.0970 N   0  0  0  0  0  0  0  0  0  0  0  0
   -0.2100    0.2210    0.4310 C   0  0  0  0  0  0  0  0  0  0  0  0
   -0.2810    0.0980   -0.8250 O   0  0  0  0  0  0  0  0  0  0  0  0
   -1.3860   -0.0090    1.1750 N   0  0  0  0  0  0  0  0  0  0  0  0
   -2.5810   -0.3640    0.4980 C   0  0  0  0  0  0  0  0  0  0  0  0
   -3.1710   -1.5150    0.7680 C   0  0  0  0  0  0  0  0  0  0  0  0
   -4.4100   -1.8900    0.0700 C   0  0  2  0  0  0  0  0  0  0  0  0
   -4.1980   -3.1500   -0.5180 O   0  0  0  0  0  0  0  0  0  0  0  0
   -4.8320   -0.9430   -0.8320 O   0  0  0  0  0  0  0  0  0  0  0  0
   -4.2110    0.2350   -1.0950 C   0  0  0  0  0  0  0  0  0  0  0  0
   -3.1030    0.5780   -0.4750 C   0  0  0  0  0  0  0  0  0  0  0  0
   -2.4480    1.7960   -0.7370 N   0  0  0  0  0  0  0  0  0  0  0  0
    1.9850    1.8970   -0.5650 C   0  0  0  0  0  0  0  0  0  0  0  0
    1.9790    1.8120   -1.8000 O   0  0  0  0  0  0  0  0  0  0  0  0
    1.7800    3.0560    0.2320 N   0  0  0  0  0  0  0  0  0  0  0  0
    2.4870    2.8670    1.4440 N   0  0  0  0  0  0  0  0  0  0  0  0
    3.1190    1.5950    1.3820 C   0  0  0  0  0  0  0  0  0  0  0  0
    4.1680    1.1930    1.9380 O   0  0  0  0  0  0  0  0  0  0  0  0
  1  2  1  0
  2  3  1  0
  4  3  1  6
  4  5  1  0
  4 17  1  0
  4 21  1  0
  5  6  1  0
  6  7  2  0
  6  8  1  0
  8  9  1  0
  9 10  2  0
  9 15  1  0
 10 11  1  0
 11 12  1  6
 11 13  1  0
 13 14  1  0
 14 15  2  0
 15 16  1  0
 17 18  2  0
 17 19  1  0
 19 20  1  0
 20 21  1  0
 21 22  2  0
M  END
