
     RDKit          3D

 22 24  0  0  0  0  0  0  0  0999 V2000
    0.8550   -1.7820   -0.5430 O   0  0  0  0  0  0  0  0  0  0  0  0
    0.5230   -0.5060   -0.5000 C   0  0  0  0  0  0  0  0  0  0  0  0
    1.4120    0.4950   -0.6210 N   0  0  0  0  0  0  0  0  0  0  0  0
    2.7920    0.2400   -0.7920 C   0  0  0  0  0  0  0  0  0  0  0  0
    3.4210   -0.5080    0.3720 C   0  0  2  0  0  0  0  0  0  0  0  0
    3.2400    0.2830    1.4680 O   0  0  0  0  0  0  0  0  0  0  0  0
    4.7340   -0.9190   -0.0300 C   0  0  1  0  0  0  0  0  0  0  0  0
    5.6860    0.2600   -0.4210 C   0  0  1  0  0  0  0  0  0  0  0  0
    5.9590    0.9560    0.9160 C   0  0  0  0  0  0  0  0  0  0  0  0
    6.0900   -0.5800    0.5960 C   0  0  1  0  0  0  0  0  0  0  0  0
   -0.8090   -0.4340   -0.3200 N   0  0  0  0  0  0  0  0  0  0  0  0
   -2.1360   -0.4860   -0.1420 C   0  0  0  0  0  0  0  0  0  0  0  0
   -2.5460   -1.7370   -0.1010 O   0  0  0  0  0  0  0  0  0  0  0  0
   -3.0480    0.4890   -0.0020 N   0  0  0  0  0  0  0  0  0  0  0  0
   -4.4190    0.2730    0.1830 C   0  0  0  0  0  0  0  0  0  0  0  0
   -5.0770   -0.9010   -0.0110 C   0  0  0  0  0  0  0  0  0  0  0  0
   -6.4090   -0.9780    0.1970 N   0  0  0  0  0  0  0  0  0  0  0  0
   -7.0430    0.1250    0.5930 C   0  0  0  0  0  0  0  0  0  0  0  0
   -8.2960    0.0500    0.7890 O   0  0  0  0  0  0  0  0  0  0  0  0
   -6.4110    1.2900    0.7880 N   0  0  0  0  0  0  0  0  0  0  0  0
   -5.1140    1.3860    0.5900 C   0  0  0  0  0  0  0  0  0  0  0  0
   -4.5070    2.4950    0.7750 O   0  0  0  0  0  0  0  0  0  0  0  0
  1  2  2  0
  2  3  1  0
  2 11  1  0
  3  4  1  0
  4  5  1  0
  5  6  1  1
  7  5  1  1
  7  8  1  0
  7 10  1  0
  8  9  1  1
  8 10  1  0
 10  9  1  1
 11 12  1  0
 12 13  2  0
 12 14  1  0
 14 15  1  0
 15 16  2  0
 15 21  1  0
 16 17  1  0
 17 18  1  0
 18 19  2  0
 18 20  1  0
 20 21  1  0
 21 22  2  0
M  END
