
     RDKit          3D

 22 23  0  0  0  0  0  0  0  0999 V2000
    5.4280   -1.8040   -0.4900 C   0  0  0  0  0  0  0  0  0  0  0  0
    4.2720   -0.9290   -0.1630 C   0  0  0  0  0  0  0  0  0  0  0  0
    4.3420    0.3880   -0.1470 C   0  0  0  0  0  0  0  0  0  0  0  0
    5.0940    1.5840   -0.3120 N   0  0  0  0  0  0  0  0  0  0  0  0
    4.2450    2.6470    0.1970 C   0  0  0  0  0  0  0  0  0  0  0  0
    3.2940    1.9930    0.9770 O   0  0  0  0  0  0  0  0  0  0  0  0
    2.9660    0.9000    0.2210 C   0  0  2  0  0  0  0  0  0  0  0  0
    2.4780   -0.2980    1.0140 C   0  0  1  0  0  0  0  0  0  0  0  0
    1.0260   -0.3160    1.1820 C   0  0  0  0  0  0  0  0  0  0  0  0
    0.4970    0.5690    1.9100 O   0  0  0  0  0  0  0  0  0  0  0  0
    0.1380   -1.2600    0.5870 N   0  0  0  0  0  0  0  0  0  0  0  0
   -1.2430   -1.2700    0.7550 N   0  0  0  0  0  0  0  0  0  0  0  0
   -2.1260   -0.6190   -0.1100 C   0  0  0  0  0  0  0  0  0  0  0  0
   -1.6280    0.0100   -1.0920 O   0  0  0  0  0  0  0  0  0  0  0  0
   -3.5970   -0.6060    0.0310 C   0  0  1  0  0  0  0  0  0  0  0  0
   -4.0550   -2.0590   -0.1040 C   0  0  0  0  0  0  0  0  0  0  0  0
   -4.0560   -0.1630    1.3950 C   0  0  0  0  0  0  0  0  0  0  0  0
   -4.2810    0.1320   -1.0040 N   0  0  0  0  0  0  0  0  0  0  0  0
   -4.0280    1.5210   -1.1960 C   0  0  0  0  0  0  0  0  0  0  0  0
   -4.6790    2.2830   -2.1990 N   0  0  0  0  0  0  0  0  0  0  0  0
   -3.1930    2.0450   -0.4280 O   0  0  0  0  0  0  0  0  0  0  0  0
    2.9640   -1.3430    0.1700 O   0  0  0  0  0  0  0  0  0  0  0  0
  1  2  1  0
  2  3  2  0
  2 22  1  0
  3  4  1  0
  3  7  1  0
  4  5  1  0
  5  6  1  0
  7  6  1  1
  7  8  1  0
  8  9  1  6
  8 22  1  0
  9 10  2  0
  9 11  1  0
 11 12  1  0
 12 13  1  0
 13 14  2  0
 13 15  1  0
 15 16  1  6
 15 17  1  0
 15 18  1  0
 18 19  1  0
 19 20  1  0
 19 21  2  0
M  END
