
     RDKit          3D

 22 23  0  0  0  0  0  0  0  0999 V2000
    1.7560    0.3650    1.8110 C   0  0  0  0  0  0  0  0  0  0  0  0
    2.1010    0.0230    0.5900 C   0  0  0  0  0  0  0  0  0  0  0  0
    3.2090   -0.8910    0.3140 C   0  0  2  0  0  0  0  0  0  0  0  0
    4.2380   -0.8360    1.3580 N   0  0  0  0  0  0  0  0  0  0  0  0
    3.8990   -0.4690   -0.9160 N   0  0  0  0  0  0  0  0  0  0  0  0
    3.5910    0.7890   -1.4690 C   0  0  0  0  0  0  0  0  0  0  0  0
    4.5390    1.4710   -1.9750 O   0  0  0  0  0  0  0  0  0  0  0  0
    2.2350    1.3470   -1.4880 C   0  0  0  0  0  0  0  0  0  0  0  0
    1.3840    0.5980   -0.4990 N   0  0  0  0  0  0  0  0  0  0  0  0
    0.0090    0.6890   -0.6620 C   0  0  0  0  0  0  0  0  0  0  0  0
   -0.2520    1.7730   -1.4390 O   0  0  0  0  0  0  0  0  0  0  0  0
   -1.1830    0.0280   -0.2830 C   0  0  0  0  0  0  0  0  0  0  0  0
   -1.3330   -1.1290    0.2900 C   0  0  0  0  0  0  0  0  0  0  0  0
   -0.1600   -1.9720    0.6270 C   0  0  0  0  0  0  0  0  0  0  0  0
   -2.6540   -1.6520    0.6440 N   0  0  0  0  0  0  0  0  0  0  0  0
   -3.8050   -0.8790    0.3570 C   0  0  0  0  0  0  0  0  0  0  0  0
   -4.9120   -1.3990    0.1910 O   0  0  0  0  0  0  0  0  0  0  0  0
   -3.5290    0.6010    0.2810 C   0  0  2  0  0  0  0  0  0  0  0  0
   -4.6670    1.3350   -0.2730 C   0  0  0  0  0  0  0  0  0  0  0  0
   -4.5270    2.0200   -1.4970 N   0  0  0  0  0  0  0  0  0  0  0  0
   -5.7570    1.3450    0.3480 O   0  0  0  0  0  0  0  0  0  0  0  0
   -2.4100    0.7130   -0.5620 O   0  0  0  0  0  0  0  0  0  0  0  0
  1  2  2  0
  2  3  1  0
  2  9  1  0
  3  4  1  1
  3  5  1  0
  5  6  1  0
  6  7  2  0
  6  8  1  0
  8  9  1  0
  9 10  1  0
 10 11  2  0
 10 12  1  0
 12 13  2  0
 12 22  1  0
 13 14  1  0
 13 15  1  0
 15 16  1  0
 16 17  2  0
 16 18  1  0
 18 19  1  6
 18 22  1  0
 19 20  1  0
 19 21  2  0
M  END
