
     RDKit          3D

 22 23  0  0  0  0  0  0  0  0999 V2000
    2.9660   -0.4620    2.5890 N   0  0  0  0  0  0  0  0  0  0  0  0
    3.7540   -0.0680    1.5410 C   0  0  0  0  0  0  0  0  0  0  0  0
    5.0350   -0.0080    1.8570 O   0  0  0  0  0  0  0  0  0  0  0  0
    3.5050    0.2960    0.1730 C   0  0  0  0  0  0  0  0  0  0  0  0
    2.3090    0.3260   -0.4260 C   0  0  0  0  0  0  0  0  0  0  0  0
    1.1810   -0.0420    0.3640 N   0  0  0  0  0  0  0  0  0  0  0  0
   -0.1830   -0.1100    0.0250 C   0  0  0  0  0  0  0  0  0  0  0  0
   -0.5700    0.1690   -1.1120 O   0  0  0  0  0  0  0  0  0  0  0  0
   -1.1820   -0.5140    1.0110 N   0  0  0  0  0  0  0  0  0  0  0  0
   -2.5670   -0.5560    0.5660 C   0  0  2  0  0  0  0  0  0  0  0  0
   -2.6880   -1.5180   -0.5410 C   0  0  0  0  0  0  0  0  0  0  0  0
   -3.9690   -1.7080   -1.1260 N   0  0  0  0  0  0  0  0  0  0  0  0
   -1.7330   -2.1880   -1.0070 O   0  0  0  0  0  0  0  0  0  0  0  0
   -3.0030    0.8360    0.1760 C   0  0  0  0  0  0  0  0  0  0  0  0
   -4.4200    0.8980    0.7030 C   0  0  0  0  0  0  0  0  0  0  0  0
   -4.3990    0.1270    1.8390 O   0  0  0  0  0  0  0  0  0  0  0  0
   -3.5140   -0.9140    1.6500 C   0  0  0  0  0  0  0  0  0  0  0  0
    2.1320    0.7790   -1.8020 C   0  0  0  0  0  0  0  0  0  0  0  0
    0.8980    0.8170   -2.4620 O   0  0  0  0  0  0  0  0  0  0  0  0
    3.1520    1.1880   -2.5230 C   0  0  0  0  0  0  0  0  0  0  0  0
    4.4280    1.1820   -1.9260 N   0  0  0  0  0  0  0  0  0  0  0  0
    4.7110    0.6110   -0.6730 C   0  0  0  0  0  0  0  0  0  0  0  0
  1  2  1  0
  2  3  2  0
  2  4  1  0
  4  5  2  0
  4 22  1  0
  5  6  1  0
  5 18  1  0
  6  7  1  0
  7  8  2  0
  7  9  1  0
 10  9  1  1
 10 11  1  0
 10 14  1  0
 10 17  1  0
 11 12  1  0
 11 13  2  0
 14 15  1  0
 15 16  1  0
 16 17  1  0
 18 19  1  0
 18 20  2  0
 20 21  1  0
 21 22  1  0
M  END
