
     RDKit          3D

 21 22  0  0  0  0  0  0  0  0999 V2000
   -3.9380   -0.5980   -1.8210 C   0  0  0  0  0  0  0  0  0  0  0  0
   -2.7090   -0.8320   -1.1580 O   0  0  0  0  0  0  0  0  0  0  0  0
   -2.3940   -0.0510   -0.0410 C   0  0  0  0  0  0  0  0  0  0  0  0
   -3.2550    0.7750    0.5160 C   0  0  0  0  0  0  0  0  0  0  0  0
   -2.9470    1.5800    1.6570 N   0  0  0  0  0  0  0  0  0  0  0  0
   -1.6540    1.4530    2.1770 N   0  0  0  0  0  0  0  0  0  0  0  0
   -0.7490    0.5610    1.5610 C   0  0  0  0  0  0  0  0  0  0  0  0
   -1.0370   -0.1820    0.5060 C   0  0  0  0  0  0  0  0  0  0  0  0
   -0.0420   -1.1020   -0.0960 C   0  0  1  0  0  0  0  0  0  0  0  0
   -0.4910   -2.5060   -0.0830 C   0  0  0  0  0  0  0  0  0  0  0  0
   -0.9250   -3.1470    1.0970 N   0  0  0  0  0  0  0  0  0  0  0  0
   -0.4880   -3.1550   -1.1480 O   0  0  0  0  0  0  0  0  0  0  0  0
    0.3500   -0.6840   -1.4200 N   0  0  0  0  0  0  0  0  0  0  0  0
    1.5300    0.1010   -1.3130 C   0  0  0  0  0  0  0  0  0  0  0  0
    2.0290    0.8280   -2.2210 O   0  0  0  0  0  0  0  0  0  0  0  0
    2.0850   -0.0620    0.0170 C   0  0  0  0  0  0  0  0  0  0  0  0
    3.1480    0.4460    0.5970 C   0  0  0  0  0  0  0  0  0  0  0  0
    4.0220    1.3510   -0.1010 C   0  0  0  0  0  0  0  0  0  0  0  0
    5.1090    1.8770    0.4740 C   0  0  0  0  0  0  0  0  0  0  0  0
    5.8960    2.7280   -0.2390 O   0  0  0  0  0  0  0  0  0  0  0  0
    1.1890   -0.9660    0.6790 N   0  0  0  0  0  0  0  0  0  0  0  0
  1  2  1  0
  2  3  1  0
  3  4  2  0
  3  8  1  0
  4  5  1  0
  5  6  1  0
  6  7  1  0
  7  8  2  0
  8  9  1  0
  9 10  1  6
  9 13  1  0
  9 21  1  0
 10 11  1  0
 10 12  2  0
 13 14  1  0
 14 15  2  0
 14 16  1  0
 16 17  2  3
 16 21  1  0
 17 18  1  0
 18 19  2  3
 19 20  1  0
M  END
