
     RDKit          3D

 22 24  0  0  0  0  0  0  0  0999 V2000
   -2.2850    0.0410   -2.0200 N   0  0  0  0  0  0  0  0  0  0  0  0
   -2.8980    0.2390   -0.7350 C   0  0  0  0  0  0  0  0  0  0  0  0
   -2.2210    0.3340    0.3760 C   0  0  0  0  0  0  0  0  0  0  0  0
   -0.7720    0.2600    0.5070 C   0  0  0  0  0  0  0  0  0  0  0  0
   -0.3700    0.3860    1.7280 O   0  0  0  0  0  0  0  0  0  0  0  0
    0.1500    0.0740   -0.5210 N   0  0  0  0  0  0  0  0  0  0  0  0
    1.5630    0.0110   -0.3140 C   0  0  0  0  0  0  0  0  0  0  0  0
    2.1610    0.1240    0.8990 C   0  0  0  0  0  0  0  0  0  0  0  0
    3.5620    0.0540    1.0400 C   0  0  0  0  0  0  0  0  0  0  0  0
    4.1810    0.1730    2.3160 N   0  0  0  0  0  0  0  0  0  0  0  0
    4.2870   -0.1350   -0.1140 C   0  0  0  0  0  0  0  0  0  0  0  0
    3.7120   -0.2530   -1.3550 C   0  0  0  0  0  0  0  0  0  0  0  0
    2.3470   -0.1820   -1.4780 C   0  0  0  0  0  0  0  0  0  0  0  0
    2.0290   -0.3290   -2.8210 O   0  0  0  0  0  0  0  0  0  0  0  0
    3.1380   -1.0140   -3.4210 C   0  0  0  0  0  0  0  0  0  0  0  0
    4.2080   -0.4460   -2.6590 O   0  0  0  0  0  0  0  0  0  0  0  0
   -2.9250    0.5420    1.6990 C   0  0  2  0  0  0  0  0  0  0  0  0
   -2.5340   -0.5410    2.5060 O   0  0  0  0  0  0  0  0  0  0  0  0
   -4.3700    0.6210    1.6040 C   0  0  0  0  0  0  0  0  0  0  0  0
   -5.0410    0.7940    2.6550 O   0  0  0  0  0  0  0  0  0  0  0  0
   -5.0840    0.5150    0.3820 N   0  0  0  0  0  0  0  0  0  0  0  0
   -4.3480    0.3250   -0.7740 N   0  0  0  0  0  0  0  0  0  0  0  0
  1  2  1  0
  2  3  2  0
  2 22  1  0
  3  4  1  0
  3 17  1  0
  4  5  2  0
  4  6  1  0
  6  7  1  0
  7  8  2  0
  7 13  1  0
  8  9  1  0
  9 10  1  0
  9 11  2  0
 11 12  1  0
 12 13  2  0
 12 16  1  0
 13 14  1  0
 14 15  1  0
 15 16  1  0
 17 18  1  1
 17 19  1  0
 19 20  2  0
 19 21  1  0
 21 22  1  0
M  END
