
     RDKit          3D

 38 41  0  0  0  0  0  0  0  0999 V2000
    7.8600    1.2970    0.8710 C   0  0  0  0  0  0  0  0  0  0  0  0
    7.0660    0.0450    0.7630 C   0  0  0  0  0  0  0  0  0  0  0  0
    5.9820   -0.2010    1.5990 C   0  0  0  0  0  0  0  0  0  0  0  0
    5.2610   -1.3700    1.4790 C   0  0  0  0  0  0  0  0  0  0  0  0
    4.0910   -1.7080    2.3320 C   0  0  0  0  0  0  0  0  0  0  0  0
    2.7980   -1.2120    1.7200 C   0  0  0  0  0  0  0  0  0  0  0  0
    2.9020    0.1910    1.5950 O   0  0  0  0  0  0  0  0  0  0  0  0
    1.8380    0.8880    1.0560 C   0  0  0  0  0  0  0  0  0  0  0  0
    1.9530    2.2420    0.9420 C   0  0  0  0  0  0  0  0  0  0  0  0
    0.8900    2.9200    0.4070 C   0  0  0  0  0  0  0  0  0  0  0  0
   -0.2890    2.2890   -0.0210 C   0  0  0  0  0  0  0  0  0  0  0  0
   -1.3820    3.1230   -0.5470 C   0  0  0  0  0  0  0  0  0  0  0  0
   -2.5110    3.1170    0.4680 C   0  0  0  0  0  0  0  0  0  0  0  0
   -3.6570    3.9290    0.0200 C   0  0  0  0  0  0  0  0  0  0  0  0
   -3.5880    4.5080   -1.0820 O   0  0  0  0  0  0  0  0  0  0  0  0
   -4.8250    4.0670    0.8030 N   0  0  0  0  0  0  0  0  0  0  0  0
   -5.9960    4.8290    0.4510 C   0  0  0  0  0  0  0  0  0  0  0  0
   -6.7130    4.3750   -0.7790 C   0  0  0  0  0  0  0  0  0  0  0  0
   -5.9730    4.4040   -1.9360 O   0  0  0  0  0  0  0  0  0  0  0  0
   -0.3620    0.9410    0.1090 C   0  0  0  0  0  0  0  0  0  0  0  0
   -1.4480    0.1050   -0.3320 C   0  0  0  0  0  0  0  0  0  0  0  0
   -2.2210    0.3180   -1.4190 C   0  0  0  0  0  0  0  0  0  0  0  0
   -3.2090   -0.5920   -1.8480 C   0  0  0  0  0  0  0  0  0  0  0  0
   -3.8860   -0.3210   -2.8680 O   0  0  0  0  0  0  0  0  0  0  0  0
   -3.4120   -1.7510   -1.1520 C   0  0  0  0  0  0  0  0  0  0  0  0
   -2.6210   -1.9590   -0.0500 C   0  0  0  0  0  0  0  0  0  0  0  0
   -1.6920   -1.0740    0.3330 N   0  0  0  0  0  0  0  0  0  0  0  0
   -2.8150   -3.2110    0.7300 C   0  0  0  0  0  0  0  0  0  0  0  0
   -3.3870   -4.3080   -0.1460 C   0  0  0  0  0  0  0  0  0  0  0  0
   -4.5580   -3.8950   -0.8520 N   0  0  0  0  0  0  0  0  0  0  0  0
   -5.0660   -5.0010   -1.6100 C   0  0  0  0  0  0  0  0  0  0  0  0
   -4.4340   -2.6900   -1.5980 C   0  0  0  0  0  0  0  0  0  0  0  0
    0.7270    0.2560    0.6570 C   0  0  0  0  0  0  0  0  0  0  0  0
    5.6530   -2.2690    0.5130 C   0  0  0  0  0  0  0  0  0  0  0  0
    6.7200   -2.0660   -0.3360 C   0  0  0  0  0  0  0  0  0  0  0  0
    7.1010   -3.0840   -1.3720 C   0  0  0  0  0  0  0  0  0  0  0  0
    7.4280   -0.8810   -0.1940 C   0  0  0  0  0  0  0  0  0  0  0  0
    8.5150   -0.6660   -1.0530 O   0  0  0  0  0  0  0  0  0  0  0  0
  1  2  1  0
  2  3  2  0
  2 37  1  0
  3  4  1  0
  4  5  1  0
  4 34  2  0
  5  6  1  0
  6  7  1  0
  7  8  1  0
  8  9  2  0
  8 33  1  0
  9 10  1  0
 10 11  2  0
 11 12  1  0
 11 20  1  0
 12 13  1  0
 13 14  1  0
 14 15  2  0
 14 16  1  0
 16 17  1  0
 17 18  1  0
 18 19  1  0
 20 21  1  0
 20 33  2  0
 21 22  2  0
 21 27  1  0
 22 23  1  0
 23 24  2  0
 23 25  1  0
 25 26  2  0
 25 32  1  0
 26 27  1  0
 26 28  1  0
 28 29  1  0
 29 30  1  0
 30 31  1  0
 30 32  1  0
 34 35  1  0
 35 36  1  0
 35 37  2  0
 37 38  1  0
M  END
