
     RDKit          3D

 38 41  0  0  0  0  0  0  0  0999 V2000
   -7.3950    1.7530    1.2300 C   0  0  0  0  0  0  0  0  0  0  0  0
   -6.0840    2.5690    1.2140 C   0  0  0  0  0  0  0  0  0  0  0  0
   -4.9880    1.5960    1.2130 C   0  0  0  0  0  0  0  0  0  0  0  0
   -4.0480    1.3470    0.3600 C   0  0  0  0  0  0  0  0  0  0  0  0
   -3.9230    2.0980   -0.9120 C   0  0  1  0  0  0  0  0  0  0  0  0
   -2.9360    3.0800   -0.7770 F   0  0  0  0  0  0  0  0  0  0  0  0
   -3.5810    1.2800   -2.0010 F   0  0  0  0  0  0  0  0  0  0  0  0
   -5.0660    2.7130   -1.3050 F   0  0  0  0  0  0  0  0  0  0  0  0
   -2.9940    0.2500    0.6460 C   0  0  1  0  0  0  0  0  0  0  0  0
   -1.7010    0.8790    0.2420 C   0  0  0  0  0  0  0  0  0  0  0  0
   -0.5080    0.1160    0.4230 N   0  0  0  0  0  0  0  0  0  0  0  0
    0.7420    0.6690    0.0330 C   0  0  0  0  0  0  0  0  0  0  0  0
    0.7210    1.8330   -0.4650 O   0  0  0  0  0  0  0  0  0  0  0  0
    1.9830   -0.0340    0.1820 C   0  0  0  0  0  0  0  0  0  0  0  0
    2.1620   -1.2870    0.6950 C   0  0  0  0  0  0  0  0  0  0  0  0
    3.3680   -1.9270    0.8220 C   0  0  0  0  0  0  0  0  0  0  0  0
    4.5520   -1.2630    0.3940 C   0  0  0  0  0  0  0  0  0  0  0  0
    5.7740   -1.7310    0.4460 N   0  0  0  0  0  0  0  0  0  0  0  0
    6.7720   -1.0070    0.0150 C   0  0  0  0  0  0  0  0  0  0  0  0
    8.0490   -1.2490   -0.0370 N   0  0  0  0  0  0  0  0  0  0  0  0
    8.8800   -0.2310   -0.5740 C   0  0  0  0  0  0  0  0  0  0  0  0
    8.9520    1.0130    0.0490 C   0  0  0  0  0  0  0  0  0  0  0  0
    9.7440    2.0250   -0.4370 C   0  0  0  0  0  0  0  0  0  0  0  0
   10.4910    1.8220   -1.5670 C   0  0  0  0  0  0  0  0  0  0  0  0
   11.2830    2.8370   -2.0540 O   0  0  0  0  0  0  0  0  0  0  0  0
   10.4540    0.6110   -2.2210 C   0  0  0  0  0  0  0  0  0  0  0  0
    9.6480   -0.3820   -1.7040 C   0  0  0  0  0  0  0  0  0  0  0  0
    5.9970    0.5190   -0.5430 S   0  0  0  0  0  0  0  0  0  0  0  0
    4.3120   -0.0330   -0.1020 C   0  0  0  0  0  0  0  0  0  0  0  0
    3.1270    0.5860   -0.2220 N   0  0  0  0  0  0  0  0  0  0  0  0
   -3.0010    0.0260    2.1240 C   0  0  0  0  0  0  0  0  0  0  0  0
   -3.8250   -1.1170    2.5840 C   0  0  0  0  0  0  0  0  0  0  0  0
   -3.8750   -2.2290    1.8460 C   0  0  0  0  0  0  0  0  0  0  0  0
   -3.0610   -2.2220    0.5660 C   0  0  0  0  0  0  0  0  0  0  0  0
   -3.3620   -0.9300   -0.1870 C   0  0  1  0  0  0  0  0  0  0  0  0
   -4.8740   -0.9910   -0.4100 C   0  0  0  0  0  0  0  0  0  0  0  0
   -5.3360   -2.1220   -1.2650 C   0  0  0  0  0  0  0  0  0  0  0  0
   -4.7210   -2.1210   -2.6470 C   0  0  0  0  0  0  0  0  0  0  0  0
  1  2  1  0
  2  3  1  0
  3  4  2  3
  4  5  1  0
  4  9  1  0
  5  6  1  1
  5  7  1  0
  5  8  1  0
  9 10  1  6
  9 31  1  0
  9 35  1  0
 10 11  1  0
 11 12  1  0
 12 13  2  0
 12 14  1  0
 14 15  2  0
 14 30  1  0
 15 16  1  0
 16 17  2  0
 17 18  1  0
 17 29  1  0
 18 19  1  0
 19 20  2  3
 19 28  1  0
 20 21  1  0
 21 22  2  0
 21 27  1  0
 22 23  1  0
 23 24  2  0
 24 25  1  0
 24 26  1  0
 26 27  2  0
 28 29  1  0
 29 30  2  0
 31 32  1  0
 32 33  2  0
 33 34  1  0
 34 35  1  0
 35 36  1  1
 36 37  1  0
 37 38  1  0
M  END
