
     RDKit          3D

 38 40  0  0  0  0  0  0  0  0999 V2000
    8.4860   -0.6260   -0.7600 N   0  0  0  0  0  0  0  0  0  0  0  0
    8.1420   -0.1160    0.5190 C   0  0  0  0  0  0  0  0  0  0  0  0
    9.0050   -0.1160    1.4600 N   0  0  0  0  0  0  0  0  0  0  0  0
    6.7710    0.4000    0.7060 C   0  0  0  0  0  0  0  0  0  0  0  0
    5.8700    0.3840   -0.3450 C   0  0  0  0  0  0  0  0  0  0  0  0
    4.5830    0.8550   -0.2050 C   0  0  0  0  0  0  0  0  0  0  0  0
    4.1280    1.3720    1.0100 C   0  0  0  0  0  0  0  0  0  0  0  0
    2.7380    1.8680    1.1080 C   0  0  0  0  0  0  0  0  0  0  0  0
    1.7770    0.7930    1.2290 N   0  0  0  0  0  0  0  0  0  0  0  0
    1.6180    0.1140    2.4350 C   0  0  0  0  0  0  0  0  0  0  0  0
    2.3410    0.4570    3.4260 O   0  0  0  0  0  0  0  0  0  0  0  0
    0.6800   -0.9990    2.7140 C   0  0  0  0  0  0  0  0  0  0  0  0
   -0.1680   -1.3590    1.6220 N   0  0  0  0  0  0  0  0  0  0  0  0
   -1.1090   -0.4260    1.1000 C   0  0  0  0  0  0  0  0  0  0  0  0
   -1.1390    0.7020    1.6710 O   0  0  0  0  0  0  0  0  0  0  0  0
   -2.0090   -0.6710   -0.0070 C   0  0  1  0  0  0  0  0  0  0  0  0
   -2.8760   -1.8810    0.0500 C   0  0  0  0  0  0  0  0  0  0  0  0
   -2.1200   -3.0260    0.2740 O   0  0  0  0  0  0  0  0  0  0  0  0
   -2.9060   -4.1730    0.3240 C   0  0  0  0  0  0  0  0  0  0  0  0
   -3.6470   -4.3780   -0.9600 C   0  0  0  0  0  0  0  0  0  0  0  0
   -4.9070   -3.8530   -1.1430 C   0  0  0  0  0  0  0  0  0  0  0  0
   -5.5960   -4.0370   -2.3250 C   0  0  0  0  0  0  0  0  0  0  0  0
   -5.0570   -4.7540   -3.3780 C   0  0  0  0  0  0  0  0  0  0  0  0
   -3.7950   -5.2760   -3.1840 C   0  0  0  0  0  0  0  0  0  0  0  0
   -3.1020   -5.0940   -2.0040 C   0  0  0  0  0  0  0  0  0  0  0  0
   -2.8190    0.5200   -0.2470 N   0  0  0  0  0  0  0  0  0  0  0  0
   -2.4910    1.2530   -1.7490 S   0  0  1  0  0  0  0  0  0  0  0  0
   -1.4900    0.4130   -2.5050 O   0  0  0  0  0  0  0  0  0  0  0  0
   -3.7090    1.3650   -2.6230 O   0  0  0  0  0  0  0  0  0  0  0  0
   -1.7560    2.8380   -1.5030 C   0  0  0  0  0  0  0  0  0  0  0  0
   -2.5870    3.7850   -0.7610 C   0  0  0  0  0  0  0  0  0  0  0  0
   -3.4820    4.6190   -1.4110 C   0  0  0  0  0  0  0  0  0  0  0  0
   -4.2740    5.5180   -0.7420 C   0  0  0  0  0  0  0  0  0  0  0  0
   -4.2040    5.6240    0.6350 C   0  0  0  0  0  0  0  0  0  0  0  0
   -3.3200    4.8040    1.3000 C   0  0  0  0  0  0  0  0  0  0  0  0
   -2.5190    3.8930    0.6080 C   0  0  0  0  0  0  0  0  0  0  0  0
    5.0310    1.3850    2.0490 C   0  0  0  0  0  0  0  0  0  0  0  0
    6.3260    0.9100    1.9050 C   0  0  0  0  0  0  0  0  0  0  0  0
  1  2  1  0
  2  3  2  0
  2  4  1  0
  4  5  2  0
  4 38  1  0
  5  6  1  0
  6  7  2  0
  7  8  1  0
  7 37  1  0
  8  9  1  0
  9 10  1  0
 10 11  2  0
 10 12  1  0
 12 13  1  0
 13 14  1  0
 14 15  2  0
 14 16  1  0
 16 17  1  1
 16 26  1  0
 17 18  1  0
 18 19  1  0
 19 20  1  0
 20 21  2  0
 20 25  1  0
 21 22  1  0
 22 23  2  0
 23 24  1  0
 24 25  2  0
 26 27  1  0
 27 28  2  0
 27 29  2  0
 27 30  1  1
 30 31  1  0
 31 32  2  0
 31 36  1  0
 32 33  1  0
 33 34  2  0
 34 35  1  0
 35 36  2  0
 37 38  2  0
M  CHG  1   3   1
M  END
