
     RDKit          3D

 38 41  0  0  0  0  0  0  0  0999 V2000
   -6.3530    2.3010   -2.3910 C   0  0  0  0  0  0  0  0  0  0  0  0
   -6.1600    2.6290   -1.1410 C   0  0  0  0  0  0  0  0  0  0  0  0
   -5.4200    1.7530   -0.1930 C   0  0  0  0  0  0  0  0  0  0  0  0
   -5.3190    2.2400    1.0290 C   0  0  0  0  0  0  0  0  0  0  0  0
   -5.9100    3.5690    1.4080 C   0  0  0  0  0  0  0  0  0  0  0  0
   -4.9150    0.5220   -0.6430 N   0  0  0  0  0  0  0  0  0  0  0  0
   -4.2400   -0.4630    0.1300 C   0  0  0  0  0  0  0  0  0  0  0  0
   -4.0780   -0.2150    1.3330 O   0  0  0  0  0  0  0  0  0  0  0  0
   -3.7610   -1.6990   -0.4470 C   0  0  0  0  0  0  0  0  0  0  0  0
   -3.2420   -2.8170    0.3030 C   0  0  0  0  0  0  0  0  0  0  0  0
   -2.0800   -2.6430    1.1980 C   0  0  0  0  0  0  0  0  0  0  0  0
   -0.7920   -2.6970    0.6180 C   0  0  0  0  0  0  0  0  0  0  0  0
    0.3580   -2.4800    1.3260 C   0  0  0  0  0  0  0  0  0  0  0  0
    1.6720   -2.5340    0.7040 C   0  0  0  0  0  0  0  0  0  0  0  0
    2.7210   -2.3340    1.3560 O   0  0  0  0  0  0  0  0  0  0  0  0
    1.8010   -2.8100   -0.6410 O   0  0  0  0  0  0  0  0  0  0  0  0
    3.0490   -2.8560   -1.2370 C   0  0  1  0  0  0  0  0  0  0  0  0
    4.0240   -3.8400   -0.7030 C   0  0  0  0  0  0  0  0  0  0  0  0
    2.8210   -3.2340   -2.7180 C   0  0  0  0  0  0  0  0  0  0  0  0
    3.6110   -1.4690   -1.3010 C   0  0  0  0  0  0  0  0  0  0  0  0
    4.7720   -1.3840   -1.7550 O   0  0  0  0  0  0  0  0  0  0  0  0
    2.9120   -0.3400   -0.8950 N   0  0  0  0  0  0  0  0  0  0  0  0
    3.3910    0.9760   -0.9260 C   0  0  0  0  0  0  0  0  0  0  0  0
    2.4840    2.0130   -0.6700 C   0  0  0  0  0  0  0  0  0  0  0  0
    2.8380    3.3440   -0.6560 C   0  0  0  0  0  0  0  0  0  0  0  0
    4.1520    3.6740   -0.9080 C   0  0  0  0  0  0  0  0  0  0  0  0
    4.7620    4.8840   -0.9530 N   0  0  0  0  0  0  0  0  0  0  0  0
    6.0690    4.6770   -1.2370 C   0  0  0  0  0  0  0  0  0  0  0  0
    6.3180    3.3210   -1.3790 C   0  0  0  0  0  0  0  0  0  0  0  0
    5.1050    2.7030   -1.1700 C   0  0  0  0  0  0  0  0  0  0  0  0
    4.6850    1.3740   -1.1700 C   0  0  0  0  0  0  0  0  0  0  0  0
    7.6070    3.4520   -1.6380 C   0  0  0  0  0  0  0  0  0  0  0  0
    7.3620    4.8790   -1.4910 C   0  0  0  0  0  0  0  0  0  0  0  0
    0.2170   -2.1940    2.6830 C   0  0  0  0  0  0  0  0  0  0  0  0
   -1.0320   -2.1410    3.2550 C   0  0  0  0  0  0  0  0  0  0  0  0
   -2.1970   -2.3660    2.5230 C   0  0  0  0  0  0  0  0  0  0  0  0
   -3.4410   -2.3180    3.1200 O   0  0  0  0  0  0  0  0  0  0  0  0
   -3.5000   -2.0180    4.5250 C   0  0  0  0  0  0  0  0  0  0  0  0
  1  2  2  0
  2  3  1  0
  3  4  2  3
  3  6  1  0
  4  5  1  0
  6  7  1  0
  7  8  2  0
  7  9  1  0
  9 10  1  0
 10 11  1  0
 11 12  2  0
 11 36  1  0
 12 13  1  0
 13 14  1  0
 13 34  2  0
 14 15  2  0
 14 16  1  0
 16 17  1  0
 17 18  1  1
 17 19  1  0
 17 20  1  0
 20 21  2  0
 20 22  1  0
 22 23  1  0
 23 24  2  0
 23 31  1  0
 24 25  1  0
 25 26  2  0
 26 27  1  0
 26 30  1  0
 27 28  1  0
 28 29  1  0
 28 33  2  0
 29 30  1  0
 29 32  2  0
 30 31  2  0
 32 33  1  0
 34 35  1  0
 35 36  2  0
 36 37  1  0
 37 38  1  0
M  END
