
     RDKit          3D

 38 41  0  0  0  0  0  0  0  0999 V2000
   -5.1770    7.8380   -1.3230 C   0  0  0  0  0  0  0  0  0  0  0  0
   -4.4870    6.7510   -0.5800 C   0  0  0  0  0  0  0  0  0  0  0  0
   -4.2640    6.9090    0.6660 O   0  0  0  0  0  0  0  0  0  0  0  0
   -4.0730    5.5570   -1.2060 N   0  0  0  0  0  0  0  0  0  0  0  0
   -3.4120    4.4990   -0.5410 C   0  0  0  0  0  0  0  0  0  0  0  0
   -3.1750    4.6180    0.6840 O   0  0  0  0  0  0  0  0  0  0  0  0
   -2.9950    3.2630   -1.2430 C   0  0  0  0  0  0  0  0  0  0  0  0
   -2.3020    2.2990   -0.2660 C   0  0  0  0  0  0  0  0  0  0  0  0
   -1.8870    1.0700   -0.9540 C   0  0  0  0  0  0  0  0  0  0  0  0
   -1.2150    0.0080   -0.2050 C   0  0  2  0  0  0  0  0  0  0  0  0
   -1.9360   -0.6150    0.9330 C   0  0  0  0  0  0  0  0  0  0  0  0
   -3.2200   -1.2650    0.5170 C   0  0  0  0  0  0  0  0  0  0  0  0
   -4.2790   -0.5930    0.4290 O   0  0  0  0  0  0  0  0  0  0  0  0
   -3.3280   -2.6410    0.2050 N   0  0  0  0  0  0  0  0  0  0  0  0
   -2.2150   -3.5680    0.2430 C   0  0  0  0  0  0  0  0  0  0  0  0
   -2.5340   -4.5640    1.3240 C   0  0  0  0  0  0  0  0  0  0  0  0
   -3.7370   -5.3130    0.8830 C   0  0  0  0  0  0  0  0  0  0  0  0
   -4.1080   -6.6000    1.0370 C   0  0  0  0  0  0  0  0  0  0  0  0
   -5.4130   -6.8030    0.3910 C   0  0  0  0  0  0  0  0  0  0  0  0
   -5.7540   -5.4790   -0.1570 C   0  0  0  0  0  0  0  0  0  0  0  0
   -4.7650   -4.6170    0.1380 C   0  0  0  0  0  0  0  0  0  0  0  0
   -4.6020   -3.1810   -0.1700 C   0  0  0  0  0  0  0  0  0  0  0  0
    0.1400    0.4070    0.2610 C   0  0  0  0  0  0  0  0  0  0  0  0
    0.2700    1.2450    1.3570 C   0  0  0  0  0  0  0  0  0  0  0  0
    1.4980    1.6450    1.8250 C   0  0  0  0  0  0  0  0  0  0  0  0
    1.6340    2.5430    2.9960 C   0  0  0  0  0  0  0  0  0  0  0  0
    2.6380    1.1910    1.1750 C   0  0  0  0  0  0  0  0  0  0  0  0
    2.5780    0.3660    0.0950 C   0  0  0  0  0  0  0  0  0  0  0  0
    3.6830   -0.1620   -0.6180 N   0  0  0  0  0  0  0  0  0  0  0  0
    5.0120   -0.1200   -0.1530 C   0  0  0  0  0  0  0  0  0  0  0  0
    5.3430    0.3860    0.9440 O   0  0  0  0  0  0  0  0  0  0  0  0
    6.0950   -0.7040   -0.9940 C   0  0  0  0  0  0  0  0  0  0  0  0
    7.4360   -0.6120   -0.3490 C   0  0  1  0  0  0  0  0  0  0  0  0
    8.4510   -1.2440   -1.3130 C   0  0  0  0  0  0  0  0  0  0  0  0
    9.7190   -0.5500   -0.7930 C   0  0  0  0  0  0  0  0  0  0  0  0
    9.2820    0.7610   -0.6880 O   0  0  0  0  0  0  0  0  0  0  0  0
    7.9910    0.7650   -0.2170 C   0  0  0  0  0  0  0  0  0  0  0  0
    1.2920   -0.0030   -0.3310 C   0  0  0  0  0  0  0  0  0  0  0  0
  1  2  1  0
  2  3  2  0
  2  4  1  0
  4  5  1  0
  5  6  2  0
  5  7  1  0
  7  8  1  0
  8  9  1  0
 10  9  1  1
 10 11  1  0
 10 23  1  0
 11 12  1  0
 12 13  2  0
 12 14  1  0
 14 15  1  0
 14 22  1  0
 15 16  1  0
 16 17  1  0
 17 18  2  0
 17 21  1  0
 18 19  1  0
 19 20  1  0
 20 21  2  0
 21 22  1  0
 23 24  2  0
 23 38  1  0
 24 25  1  0
 25 26  1  0
 25 27  2  0
 27 28  1  0
 28 29  1  0
 28 38  2  0
 29 30  1  0
 30 31  2  0
 30 32  1  0
 33 32  1  6
 33 34  1  0
 33 37  1  0
 34 35  1  0
 35 36  1  0
 36 37  1  0
M  END
