
     RDKit          3D

 34 38  0  0  0  0  0  0  0  0999 V2000
   -7.4220    1.6330   -1.0530 C   0  0  0  0  0  0  0  0  0  0  0  0
   -6.5430    1.0640   -1.8380 C   0  0  0  0  0  0  0  0  0  0  0  0
   -5.1620    0.9250   -1.3450 C   0  0  0  0  0  0  0  0  0  0  0  0
   -4.1950    0.3770   -2.0300 C   0  0  0  0  0  0  0  0  0  0  0  0
   -2.9730    0.3830   -1.2940 N   0  0  0  0  0  0  0  0  0  0  0  0
   -1.6890    0.2390   -1.8860 C   0  0  0  0  0  0  0  0  0  0  0  0
   -0.5460    0.1510   -0.9700 C   0  0  0  0  0  0  0  0  0  0  0  0
   -0.5760    0.1710    0.3620 N   0  0  0  0  0  0  0  0  0  0  0  0
    0.4820    0.0800    1.1700 C   0  0  0  0  0  0  0  0  0  0  0  0
    0.3410    0.1120    2.6680 C   0  0  2  0  0  0  0  0  0  0  0  0
    1.5560    0.4860    3.4540 C   0  0  0  0  0  0  0  0  0  0  0  0
    1.1910   -0.9520    3.4170 C   0  0  0  0  0  0  0  0  0  0  0  0
    1.6870   -0.0440    0.5870 N   0  0  0  0  0  0  0  0  0  0  0  0
    1.8520   -0.0780   -0.7450 C   0  0  0  0  0  0  0  0  0  0  0  0
    3.1570   -0.2150   -1.3400 N   0  0  0  0  0  0  0  0  0  0  0  0
    4.3520   -0.3170   -0.5700 C   0  0  0  0  0  0  0  0  0  0  0  0
    4.5560    0.9230    0.2740 C   0  0  0  0  0  0  0  0  0  0  0  0
    5.7460    0.8630    1.0660 N   0  0  2  0  0  0  0  0  0  0  0  0
    6.5280   -0.3270    0.8740 C   0  0  0  0  0  0  0  0  0  0  0  0
    5.4190    0.9220    2.4980 C   0  0  0  0  0  0  0  0  0  0  0  0
    0.7300    0.0200   -1.5320 C   0  0  0  0  0  0  0  0  0  0  0  0
    0.8510   -0.0110   -2.9630 C   0  0  0  0  0  0  0  0  0  0  0  0
    0.8090   -1.1570   -3.7310 C   0  0  0  0  0  0  0  0  0  0  0  0
    0.9510   -0.8290   -5.0130 O   0  0  0  0  0  0  0  0  0  0  0  0
    1.0840    0.4730   -5.1040 C   0  0  0  0  0  0  0  0  0  0  0  0
    1.0240    0.9960   -3.8490 N   0  0  0  0  0  0  0  0  0  0  0  0
   -3.3480    0.5670    0.0740 C   0  0  2  0  0  0  0  0  0  0  0  0
   -3.7150   -0.7270    0.6990 C   0  0  0  0  0  0  0  0  0  0  0  0
   -4.4690   -1.7480    0.2820 C   0  0  0  0  0  0  0  0  0  0  0  0
   -4.6370   -2.8240    1.0700 C   0  0  0  0  0  0  0  0  0  0  0  0
   -5.6320   -4.2510    0.6020 Cl  0  0  0  0  0  0  0  0  0  0  0  0
   -4.0200   -2.8320    2.2900 C   0  0  0  0  0  0  0  0  0  0  0  0
   -3.1760   -1.2130    2.2620 S   0  0  0  0  0  0  0  0  0  0  0  0
   -4.6260    1.3670   -0.0460 C   0  0  0  0  0  0  0  0  0  0  0  0
  1  2  2  0
  2  3  1  0
  3  4  2  0
  3 34  1  0
  4  5  1  0
  5  6  1  0
  5 27  1  0
  6  7  1  0
  7  8  2  0
  7 21  1  0
  8  9  1  0
 10  9  1  6
  9 13  2  0
 10 11  1  0
 10 12  1  0
 11 12  1  0
 13 14  1  0
 14 15  1  0
 14 21  2  0
 15 16  1  0
 16 17  1  0
 17 18  1  0
 18 19  1  1
 18 20  1  0
 21 22  1  0
 22 23  2  0
 22 26  1  0
 23 24  1  0
 24 25  1  0
 25 26  2  0
 27 28  1  6
 27 34  1  0
 28 29  2  0
 28 33  1  0
 29 30  1  0
 30 31  1  0
 30 32  2  0
 32 33  1  0
M  CHG  1  18   1
M  END
