
     RDKit          3D

 35 39  0  0  0  0  0  0  0  0999 V2000
    5.5730    1.9320   -4.4700 C   0  0  0  0  0  0  0  0  0  0  0  0
    5.6660    1.1100   -3.3200 O   0  0  0  0  0  0  0  0  0  0  0  0
    4.6200    0.9420   -2.4230 C   0  0  0  0  0  0  0  0  0  0  0  0
    3.5600    1.5410   -2.6450 O   0  0  0  0  0  0  0  0  0  0  0  0
    4.7630    0.0980   -1.2720 C   0  0  0  0  0  0  0  0  0  0  0  0
    3.7650   -0.0710   -0.4050 C   0  0  0  0  0  0  0  0  0  0  0  0
    2.4100    0.4810   -0.3730 C   0  0  0  0  0  0  0  0  0  0  0  0
    1.8040   -0.0440    0.8960 C   0  0  1  0  0  0  0  0  0  0  0  0
    1.8040    0.9440    1.8480 O   0  0  0  0  0  0  0  0  0  0  0  0
    0.4590   -0.6240    0.6940 C   0  0  0  0  0  0  0  0  0  0  0  0
   -0.6400   -0.2150    1.3260 C   0  0  0  0  0  0  0  0  0  0  0  0
   -1.9230   -0.8470    1.0530 C   0  0  0  0  0  0  0  0  0  0  0  0
   -3.0200   -0.1050    0.9510 C   0  0  0  0  0  0  0  0  0  0  0  0
   -2.8440    1.3900    1.1270 C   0  0  0  0  0  0  0  0  0  0  0  0
   -2.1370    1.8940    2.1620 O   0  0  0  0  0  0  0  0  0  0  0  0
   -2.0090    3.1200    2.7370 C   0  0  0  0  0  0  0  0  0  0  0  0
   -3.4490    2.1100    0.1630 C   0  0  0  0  0  0  0  0  0  0  0  0
   -3.3670    3.6010    0.2100 C   0  0  0  0  0  0  0  0  0  0  0  0
   -4.1240    1.4020   -0.9280 C   0  0  1  0  0  0  0  0  0  0  0  0
   -5.1590    2.5730   -1.8360 Cl  0  0  0  0  0  0  0  0  0  0  0  0
   -2.8210    0.9550   -2.0980 Cl  0  0  0  0  0  0  0  0  0  0  0  0
   -4.8790    0.1810   -0.5980 C   0  0  1  0  0  0  0  0  0  0  0  0
   -4.5820   -0.9640   -1.5710 C   0  0  0  0  0  0  0  0  0  0  0  0
   -5.1390   -2.1580   -0.7990 C   0  0  0  0  0  0  0  0  0  0  0  0
   -4.8770   -1.8610    0.6680 C   0  0  0  0  0  0  0  0  0  0  0  0
   -4.4020   -0.4770    0.7050 C   0  0  1  0  0  0  0  0  0  0  0  0
   -1.9370   -2.3180    0.8760 C   0  0  0  0  0  0  0  0  0  0  0  0
   -0.5330   -2.8410    0.5430 C   0  0  0  0  0  0  0  0  0  0  0  0
    0.2420   -1.7770   -0.2230 C   0  0  0  0  0  0  0  0  0  0  0  0
    2.7010   -1.1610    1.3900 C   0  0  0  0  0  0  0  0  0  0  0  0
    4.0380   -0.9660    0.7410 C   0  0  2  0  0  0  0  0  0  0  0  0
    4.9120   -0.2550    1.5960 O   0  0  0  0  0  0  0  0  0  0  0  0
    4.6710   -2.1360    0.4090 O   0  0  0  0  0  0  0  0  0  0  0  0
    5.5900   -2.0610   -0.6020 C   0  0  0  0  0  0  0  0  0  0  0  0
    6.0170   -0.6520   -0.9500 C   0  0  0  0  0  0  0  0  0  0  0  0
  1  2  1  0
  2  3  1  0
  3  4  2  0
  3  5  1  0
  5  6  2  0
  5 35  1  0
  6  7  1  0
  6 31  1  0
  7  8  1  0
  8  9  1  1
  8 10  1  0
  8 30  1  0
 10 11  2  0
 10 29  1  0
 11 12  1  0
 12 13  2  3
 12 27  1  0
 13 14  1  0
 13 26  1  0
 14 15  1  0
 14 17  2  0
 15 16  1  0
 17 18  1  0
 17 19  1  0
 19 20  1  6
 19 21  1  0
 19 22  1  0
 22 23  1  6
 22 26  1  0
 23 24  1  0
 24 25  1  0
 26 25  1  6
 27 28  1  0
 28 29  1  0
 30 31  1  0
 31 32  1  1
 31 33  1  0
 33 34  1  0
 34 35  1  0
M  END
