
     RDKit          3D

 35 38  0  0  0  0  0  0  0  0999 V2000
    7.5710    0.6350   -2.7260 C   0  0  0  0  0  0  0  0  0  0  0  0
    7.6330    0.2170   -1.3810 O   0  0  0  0  0  0  0  0  0  0  0  0
    8.6200    0.6510   -0.5190 C   0  0  0  0  0  0  0  0  0  0  0  0
    9.4880    1.4400   -0.9400 O   0  0  0  0  0  0  0  0  0  0  0  0
    8.6630    0.1920    0.8910 C   0  0  0  0  0  0  0  0  0  0  0  0
    7.5920   -0.6290    1.2390 O   0  0  0  0  0  0  0  0  0  0  0  0
    6.3020   -0.1460    1.1910 C   0  0  0  0  0  0  0  0  0  0  0  0
    5.9550    1.1180    0.8340 C   0  0  0  0  0  0  0  0  0  0  0  0
    4.6480    1.4970    0.8200 C   0  0  0  0  0  0  0  0  0  0  0  0
    3.5900    0.6350    1.1640 C   0  0  0  0  0  0  0  0  0  0  0  0
    2.3700    1.0890    1.1220 O   0  0  0  0  0  0  0  0  0  0  0  0
    1.0790    1.1520    1.2000 C   0  0  0  0  0  0  0  0  0  0  0  0
    0.2250    0.2620    0.3190 C   0  0  2  0  0  0  0  0  0  0  0  0
   -1.2480    0.6180    0.6510 C   0  0  0  0  0  0  0  0  0  0  0  0
   -2.1200   -0.0960   -0.4000 C   0  0  2  0  0  0  0  0  0  0  0  0
   -3.4950    0.3930   -0.4720 C   0  0  1  0  0  0  0  0  0  0  0  0
   -3.3700    1.7810   -0.8000 O   0  0  0  0  0  0  0  0  0  0  0  0
   -4.2420   -0.2280   -1.6160 C   0  0  2  0  0  0  0  0  0  0  0  0
   -5.1980    0.8610   -2.1310 C   0  0  0  0  0  0  0  0  0  0  0  0
   -5.7930    1.6420   -1.0120 C   0  0  0  0  0  0  0  0  0  0  0  0
   -5.7010    1.0470    0.3430 C   0  0  2  0  0  0  0  0  0  0  0  0
   -6.0240    2.1900    1.3250 C   0  0  0  0  0  0  0  0  0  0  0  0
   -4.3920    0.3710    0.6930 C   0  0  2  0  0  0  0  0  0  0  0  0
   -3.7770    1.1670    2.1530 Cl  0  0  0  0  0  0  0  0  0  0  0  0
   -4.7710   -1.0540    1.1200 C   0  0  0  0  0  0  0  0  0  0  0  0
   -5.4740   -1.7430    0.0100 C   0  0  0  0  0  0  0  0  0  0  0  0
   -5.0200   -1.4410   -1.3660 C   0  0  1  0  0  0  0  0  0  0  0  0
   -6.1910   -1.3880   -2.1730 O   0  0  0  0  0  0  0  0  0  0  0  0
   -1.8270   -1.5420   -0.4520 C   0  0  0  0  0  0  0  0  0  0  0  0
   -0.8480   -1.9230    0.6380 C   0  0  0  0  0  0  0  0  0  0  0  0
    0.4690   -1.1850    0.5550 C   0  0  1  0  0  0  0  0  0  0  0  0
    1.5510   -1.9240   -0.6210 Cl  0  0  0  0  0  0  0  0  0  0  0  0
    3.9720   -0.6650    1.5300 C   0  0  0  0  0  0  0  0  0  0  0  0
    5.3010   -1.0220    1.5350 C   0  0  0  0  0  0  0  0  0  0  0  0
    5.6420   -2.4250    1.9350 C   0  0  0  0  0  0  0  0  0  0  0  0
  1  2  1  0
  2  3  1  0
  3  4  2  0
  3  5  1  0
  5  6  1  0
  6  7  1  0
  7  8  2  0
  7 34  1  0
  8  9  1  0
  9 10  2  0
 10 11  1  0
 10 33  1  0
 11 12  1  0
 13 12  1  1
 13 14  1  0
 13 31  1  0
 15 14  1  1
 15 16  1  0
 15 29  1  0
 16 17  1  6
 16 18  1  0
 16 23  1  0
 18 19  1  1
 18 27  1  0
 19 20  1  0
 20 21  1  0
 21 22  1  1
 21 23  1  0
 23 24  1  1
 23 25  1  0
 25 26  1  0
 26 27  1  0
 27 28  1  6
 29 30  1  0
 30 31  1  0
 31 32  1  6
 33 34  2  0
 34 35  1  0
M  END
