
     RDKit          3D

 34 38  0  0  0  0  0  0  0  0999 V2000
   -1.8400   -4.6550    1.3180 C   0  0  0  0  0  0  0  0  0  0  0  0
   -1.0570   -3.3960    0.9900 C   0  0  0  0  0  0  0  0  0  0  0  0
    0.2530   -3.2900    1.0980 C   0  0  0  0  0  0  0  0  0  0  0  0
    0.9160   -2.1620    0.8020 C   0  0  0  0  0  0  0  0  0  0  0  0
    2.3100   -1.8160    0.8400 N   0  0  0  0  0  0  0  0  0  0  0  0
    2.7210   -0.5350    0.4680 C   0  0  0  0  0  0  0  0  0  0  0  0
    1.7680    0.2620    0.1080 O   0  0  0  0  0  0  0  0  0  0  0  0
    4.0660   -0.0160    0.4440 C   0  0  0  0  0  0  0  0  0  0  0  0
    5.1950   -0.5630    0.7400 C   0  0  0  0  0  0  0  0  0  0  0  0
    5.3750   -2.1950    1.2870 Cl  0  0  0  0  0  0  0  0  0  0  0  0
    6.4440    0.2220    0.6200 C   0  0  0  0  0  0  0  0  0  0  0  0
    6.5170    1.5150    0.2120 N   0  0  0  0  0  0  0  0  0  0  0  0
    7.7900    1.9140    0.2180 C   0  0  0  0  0  0  0  0  0  0  0  0
    8.2410    3.2750   -0.1710 C   0  0  1  0  0  0  0  0  0  0  0  0
    7.4570    4.0010   -1.2650 C   0  0  0  0  0  0  0  0  0  0  0  0
    7.2650    4.3950    0.1520 C   0  0  0  0  0  0  0  0  0  0  0  0
    8.5140    0.8670    0.6310 N   0  0  0  0  0  0  0  0  0  0  0  0
    9.9630    0.8450    0.7900 C   0  0  0  0  0  0  0  0  0  0  0  0
    7.7050   -0.1460    0.8710 N   0  0  0  0  0  0  0  0  0  0  0  0
   -0.4050   -1.0230    0.2870 S   0  0  0  0  0  0  0  0  0  0  0  0
   -1.7300   -2.3030    0.5610 C   0  0  0  0  0  0  0  0  0  0  0  0
   -3.1570   -2.0210    0.3130 C   0  0  0  0  0  0  0  0  0  0  0  0
   -3.3670   -0.6550   -0.1550 N   0  0  1  0  0  0  0  0  0  0  0  0
   -3.0470   -0.4760   -1.5160 C   0  0  2  0  0  0  0  0  0  0  0  0
   -2.6650    0.9110   -1.9300 C   0  0  0  0  0  0  0  0  0  0  0  0
   -3.5980    1.3390   -3.0370 C   0  0  0  0  0  0  0  0  0  0  0  0
   -4.5230    0.2020   -3.3200 C   0  0  0  0  0  0  0  0  0  0  0  0
   -3.9840   -0.9950   -2.5400 C   0  0  0  0  0  0  0  0  0  0  0  0
   -4.5480   -0.1730    0.4250 C   0  0  1  0  0  0  0  0  0  0  0  0
   -4.6720    1.3520    0.4940 C   0  0  0  0  0  0  0  0  0  0  0  0
   -5.8330    1.6400    1.4560 C   0  0  0  0  0  0  0  0  0  0  0  0
   -6.3470    0.4640    2.0660 N   0  0  0  0  0  0  0  0  0  0  0  0
   -6.8400   -0.5210    1.1580 C   0  0  0  0  0  0  0  0  0  0  0  0
   -5.8420   -0.8020    0.0230 C   0  0  0  0  0  0  0  0  0  0  0  0
  1  2  1  0
  2  3  1  0
  2 21  2  0
  3  4  2  0
  4  5  1  0
  4 20  1  0
  5  6  1  0
  6  7  2  0
  6  8  1  0
  8  9  2  3
  9 10  1  0
  9 11  1  0
 11 12  1  0
 11 19  2  0
 12 13  2  0
 14 13  1  1
 13 17  1  0
 14 15  1  0
 14 16  1  0
 15 16  1  0
 17 18  1  0
 17 19  1  0
 20 21  1  0
 21 22  1  0
 23 22  1  6
 23 24  1  0
 23 29  1  0
 24 25  1  1
 24 28  1  0
 25 26  1  0
 26 27  1  0
 27 28  1  0
 29 30  1  6
 29 34  1  0
 30 31  1  0
 31 32  1  0
 32 33  1  0
 33 34  1  0
M  CHG  1  23   1
M  END
