
     RDKit          3D

 20 22  0  0  0  0  0  0  0  0999 V2000
    2.7510    2.8350   -0.9450 O   0  0  0  0  0  0  0  0  0  0  0  0
    3.3110    1.8450   -0.4050 C   0  0  0  0  0  0  0  0  0  0  0  0
    4.6500    1.9230    0.1650 C   0  0  0  0  0  0  0  0  0  0  0  0
    5.2000    0.8640    0.7200 C   0  0  0  0  0  0  0  0  0  0  0  0
    4.5460   -0.4330    0.8120 C   0  0  0  0  0  0  0  0  0  0  0  0
    5.3130   -1.8160    1.5590 Cl  0  0  0  0  0  0  0  0  0  0  0  0
    3.3310   -0.5610    0.3110 C   0  0  0  0  0  0  0  0  0  0  0  0
    2.6270    0.5600   -0.3310 C   0  0  0  0  0  0  0  0  0  0  0  0
    1.4100    0.4200   -0.8290 C   0  0  0  0  0  0  0  0  0  0  0  0
    0.7890   -0.8800   -0.7220 N   0  0  0  0  0  0  0  0  0  0  0  0
    1.1910   -1.9820   -1.3150 N   0  0  0  0  0  0  0  0  0  0  0  0
    0.3820   -3.0000   -0.9940 C   0  0  0  0  0  0  0  0  0  0  0  0
   -0.5420   -2.4840   -0.1750 N   0  0  0  0  0  0  0  0  0  0  0  0
   -0.2960   -1.1840   -0.0060 C   0  0  0  0  0  0  0  0  0  0  0  0
   -1.0930   -0.2600    0.8290 C   0  0  0  0  0  0  0  0  0  0  0  0
   -2.1220    0.3090    0.0110 N   0  0  0  0  0  0  0  0  0  0  0  0
   -3.0140   -0.6610   -0.5500 C   0  0  0  0  0  0  0  0  0  0  0  0
   -4.4060   -0.0740   -0.4840 C   0  0  0  0  0  0  0  0  0  0  0  0
   -4.3320    0.9320    0.6280 C   0  0  0  0  0  0  0  0  0  0  0  0
   -2.8910    1.3340    0.6430 C   0  0  0  0  0  0  0  0  0  0  0  0
  1  2  2  0
  2  3  1  0
  2  8  1  0
  3  4  2  0
  4  5  1  0
  5  6  1  0
  5  7  2  0
  7  8  1  0
  8  9  2  3
  9 10  1  0
 10 11  1  0
 10 14  1  0
 11 12  2  0
 12 13  1  0
 13 14  2  0
 14 15  1  0
 15 16  1  0
 16 17  1  0
 16 20  1  0
 17 18  1  0
 18 19  1  0
 19 20  1  0
M  END
