
     RDKit          3D

 20 22  0  0  0  0  0  0  0  0999 V2000
   -6.0800   -0.2120    0.1200 C   0  0  0  0  0  0  0  0  0  0  0  0
   -4.9050    0.3560   -0.5910 C   0  0  0  0  0  0  0  0  0  0  0  0
   -4.9860    1.2010   -1.6200 N   0  0  0  0  0  0  0  0  0  0  0  0
   -3.8830    1.6950   -2.2390 C   0  0  0  0  0  0  0  0  0  0  0  0
   -2.6650    1.2970   -1.7730 N   0  0  0  0  0  0  0  0  0  0  0  0
   -2.5540    0.4500   -0.7410 C   0  0  0  0  0  0  0  0  0  0  0  0
   -1.2890    0.0570   -0.2800 N   0  0  0  0  0  0  0  0  0  0  0  0
   -1.1720   -0.8520    0.8270 C   0  0  0  0  0  0  0  0  0  0  0  0
   -0.2390   -0.2150    1.8340 C   0  0  0  0  0  0  0  0  0  0  0  0
    1.0900    0.0400    1.1880 C   0  0  0  0  0  0  0  0  0  0  0  0
    1.0760   -0.2260   -0.3000 C   0  0  2  0  0  0  0  0  0  0  0  0
    2.2360    0.2600   -0.8970 O   0  0  0  0  0  0  0  0  0  0  0  0
    3.5210   -0.1120   -0.6170 C   0  0  0  0  0  0  0  0  0  0  0  0
    3.9830   -1.1780    0.0140 C   0  0  0  0  0  0  0  0  0  0  0  0
    5.4630   -1.1430    0.0710 C   0  0  0  0  0  0  0  0  0  0  0  0
    5.7930    0.1090   -0.6250 C   0  0  0  0  0  0  0  0  0  0  0  0
    4.6930    0.6950   -1.0160 C   0  0  0  0  0  0  0  0  0  0  0  0
    4.6460    2.2280   -1.8930 Cl  0  0  0  0  0  0  0  0  0  0  0  0
   -0.0970    0.5580   -0.9090 C   0  0  0  0  0  0  0  0  0  0  0  0
   -3.6750   -0.0080   -0.1650 N   0  0  0  0  0  0  0  0  0  0  0  0
  1  2  1  0
  2  3  2  0
  2 20  1  0
  3  4  1  0
  4  5  2  0
  5  6  1  0
  6  7  1  0
  6 20  2  0
  7  8  1  0
  7 19  1  0
  8  9  1  0
  9 10  1  0
 10 11  1  0
 11 12  1  6
 11 19  1  0
 12 13  1  0
 13 14  2  0
 13 17  1  0
 14 15  1  0
 15 16  1  0
 16 17  2  0
 17 18  1  0
M  END
