
     RDKit          3D

 20 22  0  0  0  0  0  0  0  0999 V2000
   -2.0250   -0.6710   -1.9820 C   0  0  0  0  0  0  0  0  0  0  0  0
   -2.4290   -0.5450   -0.5280 C   0  0  2  0  0  0  0  0  0  0  0  0
   -2.1500   -1.8120    0.2240 C   0  0  0  0  0  0  0  0  0  0  0  0
   -3.9500   -0.3290   -0.4300 C   0  0  0  0  0  0  0  0  0  0  0  0
   -4.0490    0.6100    0.7280 C   0  0  0  0  0  0  0  0  0  0  0  0
   -2.7980    0.7320    1.2820 O   0  0  0  0  0  0  0  0  0  0  0  0
   -1.9280    0.6610    0.1640 C   0  0  2  0  0  0  0  0  0  0  0  0
   -2.1950    1.9130   -0.6380 C   0  0  0  0  0  0  0  0  0  0  0  0
   -0.5100    0.6710    0.5990 C   0  0  0  0  0  0  0  0  0  0  0  0
    0.4980    0.5150   -0.5020 C   0  0  0  0  0  0  0  0  0  0  0  0
    1.8360    0.5570    0.0700 N   0  0  0  0  0  0  0  0  0  0  0  0
    2.7650    0.4030   -1.0250 C   0  0  0  0  0  0  0  0  0  0  0  0
    4.1450    0.7700   -0.4670 C   0  0  0  0  0  0  0  0  0  0  0  0
    4.4750   -0.2570    0.4940 N   0  0  0  0  0  0  0  0  0  0  0  0
    5.6410   -0.8050    0.8680 C   0  0  0  0  0  0  0  0  0  0  0  0
    7.2470   -0.4420    0.2860 Cl  0  0  0  0  0  0  0  0  0  0  0  0
    5.3610   -1.7320    1.8170 N   0  0  0  0  0  0  0  0  0  0  0  0
    4.0540   -1.7280    1.9960 N   0  0  0  0  0  0  0  0  0  0  0  0
    3.4850   -0.8260    1.1910 C   0  0  0  0  0  0  0  0  0  0  0  0
    2.0510   -0.4690    1.0420 C   0  0  0  0  0  0  0  0  0  0  0  0
  2  1  1  6
  2  3  1  0
  2  4  1  0
  2  7  1  0
  4  5  1  0
  5  6  1  0
  6  7  1  0
  7  8  1  6
  7  9  1  0
  9 10  1  0
 10 11  1  0
 11 12  1  0
 11 20  1  0
 12 13  1  0
 13 14  1  0
 14 15  1  0
 14 19  1  0
 15 16  1  0
 15 17  2  0
 17 18  1  0
 18 19  2  0
 19 20  1  0
M  END
