
     RDKit          3D

 20 22  0  0  0  0  0  0  0  0999 V2000
   -4.0500   -2.6290    0.0780 C   0  0  0  0  0  0  0  0  0  0  0  0
   -2.5970   -2.3440    0.0460 C   0  0  0  0  0  0  0  0  0  0  0  0
   -2.0430   -1.1840   -0.2070 C   0  0  0  0  0  0  0  0  0  0  0  0
   -2.7840    0.0540   -0.5100 C   0  0  0  0  0  0  0  0  0  0  0  0
   -3.8110    0.6220   -1.1050 C   0  0  0  0  0  0  0  0  0  0  0  0
   -5.0110   -0.2570   -2.0330 Cl  0  0  0  0  0  0  0  0  0  0  0  0
   -3.7940    2.0200   -0.9040 N   0  0  0  0  0  0  0  0  0  0  0  0
   -2.4140    2.3540   -0.5860 C   0  0  0  0  0  0  0  0  0  0  0  0
   -2.0040    1.1460    0.1820 C   0  0  2  0  0  0  0  0  0  0  0  0
   -0.5970    0.6630   -0.0850 C   0  0  0  0  0  0  0  0  0  0  0  0
   -0.6620   -0.7870   -0.2440 N   0  0  0  0  0  0  0  0  0  0  0  0
    0.4230   -1.6680   -0.4070 C   0  0  0  0  0  0  0  0  0  0  0  0
    0.1510   -2.9180   -0.5390 O   0  0  0  0  0  0  0  0  0  0  0  0
    1.8190   -1.3280   -0.4430 C   0  0  0  0  0  0  0  0  0  0  0  0
    2.7890   -2.1610   -0.5970 N   0  0  0  0  0  0  0  0  0  0  0  0
    4.0090   -1.5320   -0.5890 N   0  0  0  0  0  0  0  0  0  0  0  0
    3.9100   -0.2730   -0.4320 C   0  0  0  0  0  0  0  0  0  0  0  0
    5.0170    0.6890   -0.3780 C   0  0  0  0  0  0  0  0  0  0  0  0
    5.0630    1.4400    0.9360 C   0  0  0  0  0  0  0  0  0  0  0  0
    2.4340    0.0010   -0.3120 C   0  0  0  0  0  0  0  0  0  0  0  0
  1  2  1  0
  2  3  2  3
  3  4  1  0
  3 11  1  0
  4  5  2  0
  4  9  1  0
  5  6  1  0
  5  7  1  0
  7  8  1  0
  9  8  1  6
  9 10  1  0
 10 11  1  0
 11 12  1  0
 12 13  2  0
 12 14  1  0
 14 15  2  0
 14 20  1  0
 15 16  1  0
 16 17  2  0
 17 18  1  0
 17 20  1  0
 18 19  1  0
M  END
