
     RDKit          3D

 20 22  0  0  0  0  0  0  0  0999 V2000
   -4.9520   -1.5230    0.3070 C   0  0  0  0  0  0  0  0  0  0  0  0
   -3.7720   -0.7580    0.7770 C   0  0  0  0  0  0  0  0  0  0  0  0
   -3.2780    0.1840   -0.0170 C   0  0  0  0  0  0  0  0  0  0  0  0
   -3.7320    0.6120   -1.3500 C   0  0  1  0  0  0  0  0  0  0  0  0
   -5.3350    1.3560   -1.1530 Cl  0  0  0  0  0  0  0  0  0  0  0  0
   -2.8040    1.6880   -1.7360 C   0  0  0  0  0  0  0  0  0  0  0  0
   -1.9340    1.8640   -0.7690 C   0  0  0  0  0  0  0  0  0  0  0  0
   -2.1570    0.9840    0.3140 N   0  0  0  0  0  0  0  0  0  0  0  0
   -1.3710    0.9210    1.5400 C   0  0  0  0  0  0  0  0  0  0  0  0
    0.0130    0.5980    1.1500 C   0  0  0  0  0  0  0  0  0  0  0  0
    0.3970   -0.7300    1.0700 C   0  0  0  0  0  0  0  0  0  0  0  0
    1.7000   -0.9710    0.7020 C   0  0  0  0  0  0  0  0  0  0  0  0
    2.5260    0.0820    0.4400 C   0  0  0  0  0  0  0  0  0  0  0  0
    3.9260   -0.1780    0.0440 C   0  0  0  0  0  0  0  0  0  0  0  0
    4.4590   -1.3370   -0.0820 N   0  0  0  0  0  0  0  0  0  0  0  0
    5.8440   -1.2520   -0.4830 C   0  0  0  0  0  0  0  0  0  0  0  0
    5.9010    0.1690   -1.0170 C   0  0  0  0  0  0  0  0  0  0  0  0
    4.8790    0.7700   -0.2510 O   0  0  0  0  0  0  0  0  0  0  0  0
    2.1040    1.3650    0.5320 N   0  0  0  0  0  0  0  0  0  0  0  0
    0.8630    1.5970    0.8830 N   0  0  0  0  0  0  0  0  0  0  0  0
  1  2  1  0
  2  3  2  3
  3  4  1  0
  3  8  1  0
  4  5  1  1
  4  6  1  0
  6  7  2  0
  7  8  1  0
  8  9  1  0
  9 10  1  0
 10 11  2  0
 10 20  1  0
 11 12  1  0
 12 13  2  0
 13 14  1  0
 13 19  1  0
 14 15  2  0
 14 18  1  0
 15 16  1  0
 16 17  1  0
 17 18  1  0
 19 20  2  0
M  END
