
     RDKit          3D

 10  9  0  0  0  0  0  0  0  0999 V2000
   -1.4540   -1.0860    0.3580 C   0  0  0  0  0  0  0  0  0  0  0  0
   -1.0610    0.1760   -0.3760 C   0  0  1  0  0  0  0  0  0  0  0  0
   -1.3970    1.3140    0.3210 O   0  0  0  0  0  0  0  0  0  0  0  0
   -2.1990    2.1180   -0.3460 O   0  0  0  0  0  0  0  0  0  0  0  0
    0.4020    0.1440   -0.5660 C   0  0  0  0  0  0  0  0  0  0  0  0
    0.9180   -0.8160   -1.1810 O   0  0  0  0  0  0  0  0  0  0  0  0
    1.2000    1.1610   -0.0710 O   0  0  0  0  0  0  0  0  0  0  0  0
    2.5400    1.0890   -0.2680 O   0  0  0  0  0  0  0  0  0  0  0  0
    3.2830    0.2210    0.4920 C   0  0  0  0  0  0  0  0  0  0  0  0
    2.6870   -0.4800    1.3490 O   0  0  0  0  0  0  0  0  0  0  0  0
  2  1  1  1
  2  3  1  0
  2  5  1  0
  3  4  1  0
  5  6  2  0
  5  7  1  0
  7  8  1  0
  8  9  1  0
  9 10  2  0
M  END
