
     RDKit          3D

 10  9  0  0  0  0  0  0  0  0999 V2000
   -3.1700   -1.0380    1.3650 O   0  0  0  0  0  0  0  0  0  0  0  0
   -3.2660    0.0200    0.4760 C   0  0  0  0  0  0  0  0  0  0  0  0
   -1.8680    0.4080    0.0180 C   0  0  0  0  0  0  0  0  0  0  0  0
   -1.2370   -0.6630   -0.6140 O   0  0  0  0  0  0  0  0  0  0  0  0
   -0.0480   -0.3470   -1.0080 O   0  0  0  0  0  0  0  0  0  0  0  0
    0.8580   -0.4970    0.0090 C   0  0  0  0  0  0  0  0  0  0  0  0
    2.5800   -0.0370   -0.5690 P   0  0  0  0  0  0  0  0  0  0  0  0
    2.6320    1.6600   -0.9300 O   0  0  0  0  0  0  0  0  0  0  0  0
    3.6440   -0.3500    0.7670 O   0  0  0  0  0  0  0  0  0  0  0  0
    4.8880   -0.2880    0.3570 O   0  0  0  0  0  0  0  0  0  0  0  0
  1  2  1  0
  2  3  1  0
  3  4  1  0
  4  5  1  0
  5  6  1  0
  6  7  1  0
  7  8  1  0
  7  9  1  0
  9 10  1  0
M  END
