
     RDKit          3D

 10  9  0  0  0  0  0  0  0  0999 V2000
   -3.3360    0.1440   -0.0400 C   0  0  0  0  0  0  0  0  0  0  0  0
   -1.8790    0.5300    0.3920 C   0  0  0  0  0  0  0  0  0  0  0  0
   -1.2200    0.3320   -0.8110 O   0  0  0  0  0  0  0  0  0  0  0  0
   -0.3270   -0.5560   -0.7560 O   0  0  0  0  0  0  0  0  0  0  0  0
    0.2650   -0.8160    0.3540 O   0  0  0  0  0  0  0  0  0  0  0  0
    1.1490    0.2180    0.6350 C   0  0  0  0  0  0  0  0  0  0  0  0
    2.2340    0.3640   -0.2080 O   0  0  0  0  0  0  0  0  0  0  0  0
    3.1510   -0.5690   -0.4440 C   0  0  0  0  0  0  0  0  0  0  0  0
    3.1860   -1.6520   -0.0330 O   0  0  0  0  0  0  0  0  0  0  0  0
    4.2130   -0.1640   -1.3580 O   0  0  0  0  0  0  0  0  0  0  0  0
  1  2  1  0
  2  3  1  0
  3  4  1  0
  4  5  1  0
  5  6  1  0
  6  7  1  0
  7  8  1  0
  8  9  2  0
  8 10  1  0
M  END
