
     RDKit          3D

 21 23  0  0  0  0  0  0  0  0999 V2000
   -0.7340   -4.6520   -0.3010 O   0  0  0  0  0  0  0  0  0  0  0  0
   -0.7610   -3.4580   -0.0550 C   0  0  0  0  0  0  0  0  0  0  0  0
    0.4550   -2.5900    0.1020 C   0  0  0  0  0  0  0  0  0  0  0  0
    0.8570   -2.0510   -1.0550 O   0  0  0  0  0  0  0  0  0  0  0  0
    1.8850   -1.2990   -1.1060 O   0  0  0  0  0  0  0  0  0  0  0  0
    1.8260   -0.1380   -0.7070 O   0  0  0  0  0  0  0  0  0  0  0  0
    2.4100    0.9170   -1.4170 C   0  0  0  0  0  0  0  0  0  0  0  0
    1.6510    2.1950   -0.9800 C   0  0  0  0  0  0  0  0  0  0  0  0
    0.8000    1.9600   -0.0410 N   0  0  0  0  0  0  0  0  0  0  0  0
    0.1000    3.1850    0.3250 C   0  0  0  0  0  0  0  0  0  0  0  0
    0.6530    3.9970   -0.4660 N   0  0  0  0  0  0  0  0  0  0  0  0
    1.6160    3.4300   -1.2870 O   0  0  0  0  0  0  0  0  0  0  0  0
   -0.7970    2.5730    1.4220 C   0  0  0  0  0  0  0  0  0  0  0  0
   -1.2220    1.3500    1.0160 C   0  0  0  0  0  0  0  0  0  0  0  0
   -1.0080    0.7190   -0.2160 N   0  0  0  0  0  0  0  0  0  0  0  0
   -1.3730   -0.6610   -0.4770 C   0  0  0  0  0  0  0  0  0  0  0  0
   -1.9030   -1.4160    0.4440 C   0  0  0  0  0  0  0  0  0  0  0  0
   -2.0850   -2.8290    0.0990 O   0  0  0  0  0  0  0  0  0  0  0  0
   -2.2080   -0.8260    1.7170 C   0  0  0  0  0  0  0  0  0  0  0  0
   -2.7500   -1.2160    2.7860 O   0  0  0  0  0  0  0  0  0  0  0  0
   -1.8570    0.5450    1.9580 O   0  0  0  0  0  0  0  0  0  0  0  0
  1  2  2  0
  2  3  1  0
  2 18  1  0
  3  4  1  0
  4  5  1  0
  5  6  1  0
  6  7  1  0
  7  8  1  0
  8  9  2  0
  8 12  1  0
  9 10  1  0
 10 11  2  0
 10 13  1  0
 11 12  1  0
 13 14  2  0
 14 15  1  0
 14 21  1  0
 15 16  1  0
 16 17  2  0
 17 18  1  0
 17 19  1  0
 19 20  2  0
 19 21  1  0
M  END
