
     RDKit          3D

 21 22  0  0  0  0  0  0  0  0999 V2000
   -5.2480   -2.2910   -0.2540 C   0  0  0  0  0  0  0  0  0  0  0  0
   -3.8380   -2.2990   -0.3600 O   0  0  0  0  0  0  0  0  0  0  0  0
   -3.0870   -1.0970   -0.2130 C   0  0  0  0  0  0  0  0  0  0  0  0
   -3.7670   -0.1130    0.0050 O   0  0  0  0  0  0  0  0  0  0  0  0
   -1.6450   -1.1470   -0.3290 C   0  0  0  0  0  0  0  0  0  0  0  0
   -0.9850   -2.3050   -0.5760 O   0  0  0  0  0  0  0  0  0  0  0  0
    0.2800   -2.0800   -0.6320 N   0  0  0  0  0  0  0  0  0  0  0  0
    0.5470   -0.7950   -0.4320 C   0  0  0  0  0  0  0  0  0  0  0  0
    1.8010   -0.1250   -0.4120 N   0  0  0  0  0  0  0  0  0  0  0  0
    2.7960   -0.7280    0.1360 C   0  0  0  0  0  0  0  0  0  0  0  0
    4.1190   -0.0410    0.1670 C   0  0  0  0  0  0  0  0  0  0  0  0
    5.1040   -1.0320    0.2330 O   0  0  0  0  0  0  0  0  0  0  0  0
    6.3110   -0.5580    0.2670 O   0  0  0  0  0  0  0  0  0  0  0  0
    6.2860    0.6870    0.7270 O   0  0  0  0  0  0  0  0  0  0  0  0
   -0.7090   -0.1770   -0.2330 C   0  0  0  0  0  0  0  0  0  0  0  0
   -0.8920    1.2620    0.0290 C   0  0  0  0  0  0  0  0  0  0  0  0
    0.1540    2.0580    0.0850 N   0  0  0  0  0  0  0  0  0  0  0  0
   -0.1940    3.3810    0.3390 C   0  0  0  0  0  0  0  0  0  0  0  0
    0.5250    4.4130    0.4620 O   0  0  0  0  0  0  0  0  0  0  0  0
   -1.5520    3.4170    0.4490 O   0  0  0  0  0  0  0  0  0  0  0  0
   -2.0530    2.1050    0.2670 C   0  0  0  0  0  0  0  0  0  0  0  0
  1  2  1  0
  2  3  1  0
  3  4  2  0
  3  5  1  0
  5  6  1  0
  5 15  2  0
  6  7  1  0
  7  8  2  0
  8  9  1  0
  8 15  1  0
  9 10  2  3
 10 11  1  0
 11 12  1  0
 12 13  1  0
 13 14  1  0
 15 16  1  0
 16 17  2  0
 16 21  1  0
 17 18  1  0
 18 19  2  0
 18 20  1  0
 20 21  1  0
M  END
