
     RDKit          3D

 19 20  0  0  0  0  0  0  0  0999 V2000
   -6.0210    0.6300    0.8040 N   0  0  0  0  0  0  0  0  0  0  0  0
   -4.8160    0.0740    0.3170 C   0  0  0  0  0  0  0  0  0  0  0  0
   -4.4810   -1.1240    0.5130 O   0  0  0  0  0  0  0  0  0  0  0  0
   -3.9110    0.9660   -0.4630 C   0  0  0  0  0  0  0  0  0  0  0  0
   -2.7160    0.2150   -0.8820 N   0  0  0  0  0  0  0  0  0  0  0  0
   -2.8390   -0.8230   -1.8380 C   0  0  0  0  0  0  0  0  0  0  0  0
   -1.8420   -1.5240   -2.2460 N   0  0  0  0  0  0  0  0  0  0  0  0
   -0.5590   -1.2450   -1.7130 C   0  0  0  0  0  0  0  0  0  0  0  0
   -0.3520   -0.2940   -0.8170 C   0  0  0  0  0  0  0  0  0  0  0  0
    1.0250   -0.0660   -0.3080 C   0  0  0  0  0  0  0  0  0  0  0  0
    1.3980    0.8820    0.6190 C   0  0  0  0  0  0  0  0  0  0  0  0
    2.7420    0.7540    0.8040 N   0  0  0  0  0  0  0  0  0  0  0  0
    3.2050   -0.2360    0.0250 C   0  0  0  0  0  0  0  0  0  0  0  0
    4.5670   -0.6870   -0.0770 N   0  0  0  0  0  0  0  0  0  0  0  0
    5.8500    0.0950    0.8710 P   0  0  0  0  0  0  0  0  0  0  0  0
    6.4180    1.4830   -0.0430 O   0  0  0  0  0  0  0  0  0  0  0  0
    7.1920   -0.9890    1.0620 O   0  0  0  0  0  0  0  0  0  0  0  0
    2.1460   -0.7200   -0.6410 N   0  0  0  0  0  0  0  0  0  0  0  0
   -1.4320    0.5430   -0.3140 C   0  0  0  0  0  0  0  0  0  0  0  0
  1  2  1  0
  2  3  2  0
  2  4  1  0
  4  5  1  0
  5  6  1  0
  5 19  1  0
  6  7  2  0
  7  8  1  0
  8  9  2  0
  9 10  1  0
  9 19  1  0
 10 11  2  0
 10 18  1  0
 11 12  1  0
 12 13  2  0
 13 14  1  0
 13 18  1  0
 14 15  1  0
 15 16  1  0
 15 17  1  0
M  END
