
     RDKit          3D

 20 21  0  0  0  0  0  0  0  0999 V2000
    4.1440   -0.9900    0.2860 C   0  0  0  0  0  0  0  0  0  0  0  0
    2.6530   -0.7750    0.3260 C   0  0  1  0  0  0  0  0  0  0  0  0
    2.4070    0.3100    1.3780 C   0  0  0  0  0  0  0  0  0  0  0  0
    2.8770   -0.1050    2.6240 O   0  0  0  0  0  0  0  0  0  0  0  0
    2.1480   -0.2960   -0.9460 N   0  0  0  0  0  0  0  0  0  0  0  0
    0.7780   -0.0190   -1.1730 C   0  0  0  0  0  0  0  0  0  0  0  0
   -0.1540   -0.1840   -0.2110 N   0  0  0  0  0  0  0  0  0  0  0  0
   -1.4270    0.0900   -0.4760 C   0  0  0  0  0  0  0  0  0  0  0  0
   -2.5180   -0.0650    0.5300 C   0  0  1  0  0  0  0  0  0  0  0  0
   -2.6030   -1.5550    0.8340 C   0  0  0  0  0  0  0  0  0  0  0  0
   -2.8970   -2.1870   -0.3770 O   0  0  0  0  0  0  0  0  0  0  0  0
   -2.1960    0.9230    2.0480 P   0  0  0  0  0  0  0  0  0  0  0  0
   -2.4400    0.0360    3.4980 O   0  0  0  0  0  0  0  0  0  0  0  0
   -3.2560    2.2960    2.0570 O   0  0  0  0  0  0  0  0  0  0  0  0
   -1.7780    0.5300   -1.6970 N   0  0  0  0  0  0  0  0  0  0  0  0
   -0.8930    0.7090   -2.6800 N   0  0  0  0  0  0  0  0  0  0  0  0
   -0.9770    1.1250   -3.9520 C   0  0  0  0  0  0  0  0  0  0  0  0
    0.2490    1.1100   -4.4860 N   0  0  0  0  0  0  0  0  0  0  0  0
    1.1040    0.6890   -3.5620 N   0  0  0  0  0  0  0  0  0  0  0  0
    0.3920    0.4350   -2.4210 C   0  0  0  0  0  0  0  0  0  0  0  0
  2  1  1  6
  2  3  1  0
  2  5  1  0
  3  4  1  0
  5  6  1  0
  6  7  2  0
  6 20  1  0
  7  8  1  0
  8  9  1  0
  8 15  2  0
  9 10  1  1
  9 12  1  0
 10 11  1  0
 12 13  1  0
 12 14  1  0
 15 16  1  0
 16 17  1  0
 16 20  1  0
 17 18  2  0
 18 19  1  0
 19 20  2  0
M  END
