
     RDKit          3D

 20 21  0  0  0  0  0  0  0  0999 V2000
    7.6690    0.1310   -0.3100 N   0  0  0  0  0  0  0  0  0  0  0  0
    6.2820    0.4100   -0.4110 C   0  0  0  0  0  0  0  0  0  0  0  0
    5.7210    1.3830   -1.1870 N   0  0  0  0  0  0  0  0  0  0  0  0
    4.4040    1.3560   -1.0340 N   0  0  0  0  0  0  0  0  0  0  0  0
    4.0810    0.3790   -0.1670 C   0  0  0  0  0  0  0  0  0  0  0  0
    2.7250    0.0080    0.2850 C   0  0  0  0  0  0  0  0  0  0  0  0
    2.4660   -1.0100    1.1800 C   0  0  0  0  0  0  0  0  0  0  0  0
    1.0810   -1.0580    1.3580 C   0  0  0  0  0  0  0  0  0  0  0  0
    0.5950   -0.0570    0.5510 C   0  0  0  0  0  0  0  0  0  0  0  0
   -0.8370    0.2970    0.3910 C   0  0  0  0  0  0  0  0  0  0  0  0
   -1.3720   -0.5370   -0.7550 C   0  0  0  0  0  0  0  0  0  0  0  0
   -2.7660   -0.2920   -1.0230 N   0  0  0  0  0  0  0  0  0  0  0  0
   -3.7780   -0.5080   -0.0650 C   0  0  0  0  0  0  0  0  0  0  0  0
   -3.5040   -0.9310    1.0810 O   0  0  0  0  0  0  0  0  0  0  0  0
   -5.1630   -0.2500   -0.3740 N   0  0  0  0  0  0  0  0  0  0  0  0
   -6.4710   -0.5100    0.8050 P   0  0  0  0  0  0  0  0  0  0  0  0
   -7.3380    0.9680    1.1260 O   0  0  0  0  0  0  0  0  0  0  0  0
   -7.6270   -1.6040    0.0710 O   0  0  0  0  0  0  0  0  0  0  0  0
    1.5940    0.5430   -0.0610 O   0  0  0  0  0  0  0  0  0  0  0  0
    5.2430   -0.1870    0.2020 N   0  0  0  0  0  0  0  0  0  0  0  0
  1  2  1  0
  2  3  2  0
  2 20  1  0
  3  4  1  0
  4  5  1  0
  5  6  1  0
  5 20  2  0
  6  7  2  0
  6 19  1  0
  7  8  1  0
  8  9  2  0
  9 10  1  0
  9 19  1  0
 10 11  1  0
 11 12  1  0
 12 13  1  0
 13 14  2  0
 13 15  1  0
 15 16  1  0
 16 17  1  0
 16 18  1  0
M  END
