
     RDKit          3D

 31 34  0  0  0  0  0  0  0  0999 V2000
    5.8530   -4.1720   -1.2820 C   0  0  0  0  0  0  0  0  0  0  0  0
    5.4520   -2.8450   -1.1540 O   0  0  0  0  0  0  0  0  0  0  0  0
    4.1790   -2.3580   -0.9590 C   0  0  0  0  0  0  0  0  0  0  0  0
    3.0670   -3.1550   -0.8400 C   0  0  0  0  0  0  0  0  0  0  0  0
    1.8240   -2.6120   -0.6510 C   0  0  0  0  0  0  0  0  0  0  0  0
    1.6600   -1.2160   -0.5740 C   0  0  0  0  0  0  0  0  0  0  0  0
    0.3480   -0.6880   -0.4090 N   0  0  0  0  0  0  0  0  0  0  0  0
   -0.2460    0.0350   -1.3830 C   0  0  0  0  0  0  0  0  0  0  0  0
   -1.4730    0.3600   -0.9660 N   0  0  0  0  0  0  0  0  0  0  0  0
   -1.6790   -0.1510    0.2770 C   0  0  0  0  0  0  0  0  0  0  0  0
   -2.9120   -0.0500    1.0630 C   0  0  0  0  0  0  0  0  0  0  0  0
   -3.0480   -0.5820    2.1930 O   0  0  0  0  0  0  0  0  0  0  0  0
   -4.0360    0.6670    0.5630 N   0  0  0  0  0  0  0  0  0  0  0  0
   -5.2630    0.8160    1.2030 C   0  0  0  0  0  0  0  0  0  0  0  0
   -5.5070    1.8310    2.1050 C   0  0  0  0  0  0  0  0  0  0  0  0
   -4.4500    2.7910    2.4900 C   0  0  0  0  0  0  0  0  0  0  0  0
   -6.7610    1.9780    2.6760 C   0  0  0  0  0  0  0  0  0  0  0  0
   -7.7580    1.1550    2.3820 N   0  0  0  0  0  0  0  0  0  0  0  0
   -7.5270    0.1530    1.5010 C   0  0  0  0  0  0  0  0  0  0  0  0
   -8.5120   -0.6110    1.2580 O   0  0  0  0  0  0  0  0  0  0  0  0
   -6.3080   -0.0390    0.9050 C   0  0  0  0  0  0  0  0  0  0  0  0
   -6.0640   -1.1570   -0.0320 C   0  0  0  0  0  0  0  0  0  0  0  0
   -0.5300   -0.8070    0.6190 C   0  0  0  0  0  0  0  0  0  0  0  0
    2.7720   -0.4400   -0.6910 C   0  0  0  0  0  0  0  0  0  0  0  0
    4.0630   -0.9470   -0.8860 C   0  0  0  0  0  0  0  0  0  0  0  0
    5.1340   -0.2270   -1.0040 O   0  0  0  0  0  0  0  0  0  0  0  0
    5.6820    0.9560   -1.0340 C   0  0  0  0  0  0  0  0  0  0  0  0
    6.7050    1.4210   -0.2650 C   0  0  0  0  0  0  0  0  0  0  0  0
    7.0010    2.7930   -0.6280 C   0  0  0  0  0  0  0  0  0  0  0  0
    6.0530    3.1400   -1.7000 C   0  0  0  0  0  0  0  0  0  0  0  0
    5.3140    2.0900   -1.9210 C   0  0  0  0  0  0  0  0  0  0  0  0
  1  2  1  0
  2  3  1  0
  3  4  2  0
  3 25  1  0
  4  5  1  0
  5  6  2  0
  6  7  1  0
  6 24  1  0
  7  8  1  0
  7 23  1  0
  8  9  2  0
  9 10  1  0
 10 11  1  0
 10 23  2  0
 11 12  2  0
 11 13  1  0
 13 14  1  0
 14 15  1  0
 14 21  2  0
 15 16  1  0
 15 17  2  0
 17 18  1  0
 18 19  1  0
 19 20  2  0
 19 21  1  0
 21 22  1  0
 24 25  2  0
 25 26  1  0
 26 27  1  0
 27 28  2  0
 27 31  1  0
 28 29  1  0
 29 30  1  0
 30 31  2  0
M  END
