
     RDKit          3D

 30 33  0  0  0  0  0  0  0  0999 V2000
   -0.8430   -0.4580   -3.3240 N   0  0  0  0  0  0  0  0  0  0  0  0
   -0.3660   -0.7110   -2.3090 C   0  0  0  0  0  0  0  0  0  0  0  0
    0.2440   -1.0500   -1.0290 C   0  0  0  0  0  0  0  0  0  0  0  0
    1.5250   -1.5820   -1.1130 C   0  0  0  0  0  0  0  0  0  0  0  0
    2.1150   -2.0180    0.0520 C   0  0  0  0  0  0  0  0  0  0  0  0
    3.7270   -2.6770   -0.1010 S   0  0  1  0  0  0  0  0  0  0  0  0
    4.0260   -3.4410    1.1560 O   0  0  0  0  0  0  0  0  0  0  0  0
    3.7180   -3.6040   -1.2750 O   0  0  0  0  0  0  0  0  0  0  0  0
    4.8300   -1.3760   -0.3330 N   0  0  0  0  0  0  0  0  0  0  0  0
    5.0270   -0.3370    0.6280 C   0  0  0  0  0  0  0  0  0  0  0  0
    5.6900    0.6550    0.7640 N   0  0  0  0  0  0  0  0  0  0  0  0
    5.6600    1.4750    1.7780 C   0  0  0  0  0  0  0  0  0  0  0  0
    4.8030    1.1910    2.7810 C   0  0  0  0  0  0  0  0  0  0  0  0
    4.0450   -0.2840    2.2240 S   0  0  0  0  0  0  0  0  0  0  0  0
    1.4730   -1.9370    1.2510 C   0  0  0  0  0  0  0  0  0  0  0  0
    0.2320   -1.4150    1.3080 C   0  0  0  0  0  0  0  0  0  0  0  0
   -0.4670   -0.9280    0.1370 C   0  0  0  0  0  0  0  0  0  0  0  0
   -1.6460   -0.4480    0.2960 O   0  0  0  0  0  0  0  0  0  0  0  0
   -2.8280    0.0330    0.4550 C   0  0  0  0  0  0  0  0  0  0  0  0
   -3.4900   -0.3780    1.6770 C   0  0  0  0  0  0  0  0  0  0  0  0
   -4.7330    0.0880    1.9170 C   0  0  0  0  0  0  0  0  0  0  0  0
   -5.4070    0.9230    1.0780 C   0  0  0  0  0  0  0  0  0  0  0  0
   -7.0090    1.4890    1.4790 Cl  0  0  0  0  0  0  0  0  0  0  0  0
   -4.8010    1.3220   -0.0760 C   0  0  0  0  0  0  0  0  0  0  0  0
   -3.5020    0.8750   -0.3880 C   0  0  0  0  0  0  0  0  0  0  0  0
   -2.8940    1.4590   -1.5950 C   0  0  0  0  0  0  0  0  0  0  0  0
   -3.4360    1.4230   -2.8570 C   0  0  0  0  0  0  0  0  0  0  0  0
   -2.6320    2.1310   -3.7040 N   0  0  0  0  0  0  0  0  0  0  0  0
   -1.6140    2.6020   -3.0060 N   0  0  0  0  0  0  0  0  0  0  0  0
   -1.7420    2.2070   -1.7040 C   0  0  0  0  0  0  0  0  0  0  0  0
  1  2  3  0
  2  3  1  0
  3  4  2  0
  3 17  1  0
  4  5  1  0
  5  6  1  0
  5 15  2  0
  6  7  2  0
  6  8  2  0
  6  9  1  6
  9 10  1  0
 10 11  2  0
 10 14  1  0
 11 12  1  0
 12 13  2  0
 13 14  1  0
 15 16  1  0
 16 17  2  0
 17 18  1  0
 18 19  1  0
 19 20  2  0
 19 25  1  0
 20 21  1  0
 21 22  2  0
 22 23  1  0
 22 24  1  0
 24 25  2  0
 25 26  1  0
 26 27  1  0
 26 30  2  0
 27 28  2  0
 28 29  1  0
 29 30  1  0
M  END
