
     RDKit          3D

 31 35  0  0  0  0  0  0  0  0999 V2000
    0.6130   -5.0510   -2.8420 C   0  0  0  0  0  0  0  0  0  0  0  0
    0.0450   -5.0320   -1.4460 C   0  0  0  0  0  0  0  0  0  0  0  0
   -0.2650   -3.6290   -1.0070 C   0  0  0  0  0  0  0  0  0  0  0  0
   -1.4770   -3.0620   -0.9440 N   0  0  0  0  0  0  0  0  0  0  0  0
   -1.4070   -1.8130   -0.5180 N   0  0  0  0  0  0  0  0  0  0  0  0
   -2.5120   -0.9360   -0.3390 C   0  0  0  0  0  0  0  0  0  0  0  0
   -3.7070   -1.4320    0.1900 C   0  0  0  0  0  0  0  0  0  0  0  0
   -4.8010   -0.6440    0.3880 C   0  0  0  0  0  0  0  0  0  0  0  0
   -4.7260    0.6960    0.0540 C   0  0  0  0  0  0  0  0  0  0  0  0
   -3.5660    1.2310   -0.4720 C   0  0  0  0  0  0  0  0  0  0  0  0
   -2.4840    0.4050   -0.6570 C   0  0  0  0  0  0  0  0  0  0  0  0
   -3.5430    2.6850   -0.8090 C   0  0  0  0  0  0  0  0  0  0  0  0
   -4.3540    3.3790    0.2660 C   0  0  0  0  0  0  0  0  0  0  0  0
   -5.7610    2.8990    0.3400 C   0  0  0  0  0  0  0  0  0  0  0  0
   -5.8320    1.5050    0.2510 O   0  0  0  0  0  0  0  0  0  0  0  0
   -0.1040   -1.5250   -0.2850 C   0  0  0  0  0  0  0  0  0  0  0  0
    0.5360   -0.4290    0.1490 N   0  0  0  0  0  0  0  0  0  0  0  0
    1.8990   -0.4510    0.2850 C   0  0  0  0  0  0  0  0  0  0  0  0
    2.5890    0.7400    0.7590 C   0  0  0  0  0  0  0  0  0  0  0  0
    1.8540    1.8920    1.0540 C   0  0  0  0  0  0  0  0  0  0  0  0
    2.4250    3.0550    1.5080 C   0  0  0  0  0  0  0  0  0  0  0  0
    1.6830    4.1920    1.7980 O   0  0  0  0  0  0  0  0  0  0  0  0
    3.7960    3.1220    1.6940 C   0  0  0  0  0  0  0  0  0  0  0  0
    4.5510    2.0000    1.4110 C   0  0  0  0  0  0  0  0  0  0  0  0
    5.9170    2.0930    1.6050 O   0  0  0  0  0  0  0  0  0  0  0  0
    6.8550    1.0860    1.3820 C   0  0  0  0  0  0  0  0  0  0  0  0
    3.9380    0.8260    0.9480 C   0  0  0  0  0  0  0  0  0  0  0  0
    2.6070   -1.5460   -0.0070 N   0  0  0  0  0  0  0  0  0  0  0  0
    1.9780   -2.6710   -0.4500 C   0  0  0  0  0  0  0  0  0  0  0  0
    2.6240   -3.7000   -0.7270 O   0  0  0  0  0  0  0  0  0  0  0  0
    0.6280   -2.6660   -0.5910 C   0  0  0  0  0  0  0  0  0  0  0  0
  1  2  1  0
  2  3  1  0
  3  4  2  0
  3 31  1  0
  4  5  1  0
  5  6  1  0
  5 16  1  0
  6  7  2  0
  6 11  1  0
  7  8  1  0
  8  9  2  0
  9 10  1  0
  9 15  1  0
 10 11  2  0
 10 12  1  0
 12 13  1  0
 13 14  1  0
 14 15  1  0
 16 17  1  0
 16 31  2  0
 17 18  2  0
 18 19  1  0
 18 28  1  0
 19 20  2  0
 19 27  1  0
 20 21  1  0
 21 22  1  0
 21 23  2  0
 23 24  1  0
 24 25  1  0
 24 27  2  0
 25 26  1  0
 28 29  1  0
 29 30  2  0
 29 31  1  0
M  END
