
     RDKit          3D

 29 30  0  0  0  0  0  0  0  0999 V2000
   -6.6300   -1.1900    0.0070 C   0  0  0  0  0  0  0  0  0  0  0  0
   -5.2340   -0.6610    0.1010 C   0  0  0  0  0  0  0  0  0  0  0  0
   -4.1350   -1.4770    0.0760 C   0  0  0  0  0  0  0  0  0  0  0  0
   -2.8160   -1.0500    0.1570 C   0  0  0  0  0  0  0  0  0  0  0  0
   -2.5930    0.2910    0.2770 C   0  0  0  0  0  0  0  0  0  0  0  0
   -3.7180    1.1380    0.3010 C   0  0  0  0  0  0  0  0  0  0  0  0
   -3.5380    2.6390    0.4170 C   0  0  0  0  0  0  0  0  0  0  0  0
   -5.0140    0.7130    0.2180 C   0  0  0  0  0  0  0  0  0  0  0  0
   -6.2260    1.5620    0.2330 C   0  0  0  0  0  0  0  0  0  0  0  0
   -6.0400    2.9020    0.3390 O   0  0  0  0  0  0  0  0  0  0  0  0
   -1.3320    0.9220    0.4140 N   0  0  0  0  0  0  0  0  0  0  0  0
   -0.2650    0.6910    1.3120 C   0  0  0  0  0  0  0  0  0  0  0  0
    0.4280    1.7760    1.6060 O   0  0  0  0  0  0  0  0  0  0  0  0
    0.2230   -0.4690    1.9730 C   0  0  0  0  0  0  0  0  0  0  0  0
    0.0080   -0.4890    3.2640 O   0  0  0  0  0  0  0  0  0  0  0  0
    0.8960   -1.6130    1.5390 N   0  0  0  0  0  0  0  0  0  0  0  0
    2.0280   -1.7370    0.6650 C   0  0  0  0  0  0  0  0  0  0  0  0
    2.0430   -0.7810   -0.4560 C   0  0  0  0  0  0  0  0  0  0  0  0
    3.2780    0.1040   -0.5210 C   0  0  0  0  0  0  0  0  0  0  0  0
    4.4660   -0.7900   -0.6710 C   0  0  0  0  0  0  0  0  0  0  0  0
    5.6510    0.0470   -0.7350 N   0  0  0  0  0  0  0  0  0  0  0  0
    6.1480    0.3710    0.5690 C   0  0  0  0  0  0  0  0  0  0  0  0
    7.3670    1.2450    0.4250 C   0  0  0  0  0  0  0  0  0  0  0  0
    6.9640    2.4010   -0.2590 O   0  0  0  0  0  0  0  0  0  0  0  0
    1.1600   -0.5950   -1.3800 C   0  0  0  0  0  0  0  0  0  0  0  0
   -0.1270   -1.2020   -1.6860 C   0  0  0  0  0  0  0  0  0  0  0  0
   -0.7180   -2.1780   -0.8070 C   0  0  0  0  0  0  0  0  0  0  0  0
   -0.1340   -3.3340   -0.8200 O   0  0  0  0  0  0  0  0  0  0  0  0
   -1.8290   -2.0680    0.0580 N   0  0  0  0  0  0  0  0  0  0  0  0
  1  2  1  0
  2  3  2  0
  2  8  1  0
  3  4  1  0
  4  5  2  0
  4 29  1  0
  5  6  1  0
  5 11  1  0
  6  7  1  0
  6  8  2  0
  8  9  1  0
  9 10  1  0
 11 12  1  0
 12 13  2  0
 12 14  1  0
 14 15  2  0
 14 16  1  0
 16 17  1  0
 17 18  1  0
 18 19  1  0
 18 25  2  0
 19 20  1  0
 20 21  1  0
 21 22  1  0
 22 23  1  0
 23 24  1  0
 25 26  1  0
 26 27  1  0
 27 28  2  0
 27 29  1  0
M  CHG  1  21   1
M  END
