
     RDKit          3D

 31 35  0  0  0  0  0  0  0  0999 V2000
    5.5560    1.3480   -1.2590 C   0  0  0  0  0  0  0  0  0  0  0  0
    4.8600    0.1660   -1.8650 C   0  0  0  0  0  0  0  0  0  0  0  0
    4.0490   -0.5210   -0.9960 O   0  0  0  0  0  0  0  0  0  0  0  0
    4.7430   -1.0200    0.0810 C   0  0  0  0  0  0  0  0  0  0  0  0
    3.8190   -1.7680    1.0130 C   0  0  0  0  0  0  0  0  0  0  0  0
    2.7450   -0.9350    1.5340 N   0  0  0  0  0  0  0  0  0  0  0  0
    2.8060   -0.1400    2.6050 N   0  0  0  0  0  0  0  0  0  0  0  0
    1.6420    0.5010    2.7790 C   0  0  0  0  0  0  0  0  0  0  0  0
    1.2350    1.4790    3.8220 C   0  0  0  0  0  0  0  0  0  0  0  0
    0.8220    0.0650    1.7450 C   0  0  0  0  0  0  0  0  0  0  0  0
    1.5330   -0.8420    0.9680 C   0  0  0  0  0  0  0  0  0  0  0  0
    0.9300   -1.4830   -0.1960 C   0  0  0  0  0  0  0  0  0  0  0  0
    1.5810   -2.3680   -0.9690 N   0  0  0  0  0  0  0  0  0  0  0  0
    1.0330   -2.9500   -2.0190 N   0  0  0  0  0  0  0  0  0  0  0  0
   -0.2320   -2.7050   -2.4080 C   0  0  0  0  0  0  0  0  0  0  0  0
   -0.7430   -3.2730   -3.4200 O   0  0  0  0  0  0  0  0  0  0  0  0
   -0.9640   -1.8050   -1.6600 C   0  0  0  0  0  0  0  0  0  0  0  0
   -2.2620   -1.5090   -1.9980 C   0  0  0  0  0  0  0  0  0  0  0  0
   -3.0160   -0.6170   -1.2680 C   0  0  0  0  0  0  0  0  0  0  0  0
   -2.4290   -0.0070   -0.1600 C   0  0  0  0  0  0  0  0  0  0  0  0
   -3.1060    0.8960    0.6270 O   0  0  0  0  0  0  0  0  0  0  0  0
   -4.3920    1.3130    0.4510 C   0  0  0  0  0  0  0  0  0  0  0  0
   -5.4330    0.6490    1.0440 C   0  0  0  0  0  0  0  0  0  0  0  0
   -6.7370    1.0970    0.8470 C   0  0  0  0  0  0  0  0  0  0  0  0
   -7.0260    2.1850    0.0780 C   0  0  0  0  0  0  0  0  0  0  0  0
   -5.9680    2.8640   -0.5280 C   0  0  0  0  0  0  0  0  0  0  0  0
   -4.6780    2.4140   -0.3280 C   0  0  0  0  0  0  0  0  0  0  0  0
   -1.1230   -0.2970    0.1890 C   0  0  0  0  0  0  0  0  0  0  0  0
   -0.3670   -1.2010   -0.5540 C   0  0  0  0  0  0  0  0  0  0  0  0
   -0.5520    0.3600    1.3580 C   0  0  0  0  0  0  0  0  0  0  0  0
   -1.2220    1.1910    2.0580 O   0  0  0  0  0  0  0  0  0  0  0  0
  1  2  1  0
  2  3  1  0
  3  4  1  0
  4  5  1  0
  5  6  1  0
  6  7  1  0
  6 11  1  0
  7  8  2  0
  8  9  1  0
  8 10  1  0
 10 11  2  0
 10 30  1  0
 11 12  1  0
 12 13  2  0
 12 29  1  0
 13 14  1  0
 14 15  1  0
 15 16  2  0
 15 17  1  0
 17 18  2  0
 17 29  1  0
 18 19  1  0
 19 20  2  0
 20 21  1  0
 20 28  1  0
 21 22  1  0
 22 23  2  0
 22 27  1  0
 23 24  1  0
 24 25  2  0
 25 26  1  0
 26 27  2  0
 28 29  2  0
 28 30  1  0
 30 31  2  0
M  END
