
     RDKit          3D

 26 27  0  0  0  0  0  0  0  0999 V2000
   -5.2940   -0.7380    0.8210 C   0  0  0  0  0  0  0  0  0  0  0  0
   -4.5410    0.4820    0.7040 N   0  0  0  0  0  0  0  0  0  0  0  0
   -5.0170    1.7250    1.3200 C   0  0  0  0  0  0  0  0  0  0  0  0
   -5.8930    2.4970    0.3540 C   0  0  0  0  0  0  0  0  0  0  0  0
   -5.2220    2.8380   -0.8020 O   0  0  0  0  0  0  0  0  0  0  0  0
   -3.3210    0.5180   -0.0070 C   0  0  0  0  0  0  0  0  0  0  0  0
   -2.7880    1.6910   -0.0040 O   0  0  0  0  0  0  0  0  0  0  0  0
   -2.6980   -0.6050   -0.6790 C   0  0  0  0  0  0  0  0  0  0  0  0
   -1.5660   -0.5250   -1.3380 C   0  0  0  0  0  0  0  0  0  0  0  0
   -0.7910    0.7200   -1.4830 C   0  0  0  0  0  0  0  0  0  0  0  0
    0.5060    0.7170   -0.7880 C   0  0  0  0  0  0  0  0  0  0  0  0
    0.5950    1.1920    0.4970 C   0  0  0  0  0  0  0  0  0  0  0  0
    1.8230    1.1760    1.1330 C   0  0  0  0  0  0  0  0  0  0  0  0
    2.9490    0.6990    0.5110 C   0  0  0  0  0  0  0  0  0  0  0  0
    4.1610    0.7030    1.1890 O   0  0  0  0  0  0  0  0  0  0  0  0
    5.3500    0.2290    0.6120 C   0  0  0  0  0  0  0  0  0  0  0  0
    6.4730    0.3780    1.6190 C   0  0  0  0  0  0  0  0  0  0  0  0
    8.0700   -0.2430    0.8840 P   0  0  0  0  0  0  0  0  0  0  0  0
    7.9630   -0.0630   -0.8480 O   0  0  0  0  0  0  0  0  0  0  0  0
    8.2910   -1.9290    1.2220 O   0  0  0  0  0  0  0  0  0  0  0  0
    2.8540    0.2250   -0.7740 C   0  0  0  0  0  0  0  0  0  0  0  0
    1.6240    0.2400   -1.4120 C   0  0  0  0  0  0  0  0  0  0  0  0
   -1.0870   -1.7180   -1.9340 O   0  0  0  0  0  0  0  0  0  0  0  0
   -0.9580   -2.9050   -1.2020 C   0  0  0  0  0  0  0  0  0  0  0  0
   -2.2330   -3.4830   -0.6790 C   0  0  0  0  0  0  0  0  0  0  0  0
   -3.5250   -2.2290   -0.6760 S   0  0  0  0  0  0  0  0  0  0  0  0
  1  2  1  0
  2  3  1  0
  2  6  1  0
  3  4  1  0
  4  5  1  0
  6  7  2  0
  6  8  1  0
  8  9  2  0
  8 26  1  0
  9 10  1  0
  9 23  1  0
 10 11  1  0
 11 12  2  0
 11 22  1  0
 12 13  1  0
 13 14  2  0
 14 15  1  0
 14 21  1  0
 15 16  1  0
 16 17  1  0
 17 18  1  0
 18 19  1  0
 18 20  1  0
 21 22  2  0
 23 24  1  0
 24 25  1  0
 25 26  1  0
M  END
