
     RDKit          3D

 26 28  0  0  0  0  0  0  0  0999 V2000
   -3.7660    4.3330    0.7480 C   0  0  0  0  0  0  0  0  0  0  0  0
   -2.3680    3.8820    0.4430 C   0  0  0  0  0  0  0  0  0  0  0  0
   -1.4110    4.8760    0.4430 C   0  0  0  0  0  0  0  0  0  0  0  0
   -0.1190    4.4750    0.1630 C   0  0  0  0  0  0  0  0  0  0  0  0
    0.1160    3.1330   -0.0910 C   0  0  0  0  0  0  0  0  0  0  0  0
    1.6830    2.3350   -0.4800 S   0  0  0  0  0  0  0  0  0  0  0  0
    0.9330    0.6730   -0.6200 C   0  0  0  0  0  0  0  0  0  0  0  0
    1.6680   -0.5690   -0.9690 C   0  0  0  0  0  0  0  0  0  0  0  0
    3.0220   -0.3840   -1.1280 O   0  0  0  0  0  0  0  0  0  0  0  0
    3.7310   -0.0030   -0.0260 C   0  0  0  0  0  0  0  0  0  0  0  0
    5.1910    0.1330   -0.4900 C   0  0  0  0  0  0  0  0  0  0  0  0
    5.6100   -1.2240   -1.0050 C   0  0  0  0  0  0  0  0  0  0  0  0
    5.5120   -2.1910    0.0010 O   0  0  0  0  0  0  0  0  0  0  0  0
    5.8740   -3.3700   -0.4390 O   0  0  0  0  0  0  0  0  0  0  0  0
   -0.3930    0.8750   -0.3670 C   0  0  0  0  0  0  0  0  0  0  0  0
   -1.2600   -0.2620   -0.4050 O   0  0  0  0  0  0  0  0  0  0  0  0
   -1.4650   -0.9880    0.7850 C   0  0  0  0  0  0  0  0  0  0  0  0
   -2.3720   -2.1420    0.6550 C   0  0  1  0  0  0  0  0  0  0  0  0
   -2.5140   -2.7920    1.8590 O   0  0  0  0  0  0  0  0  0  0  0  0
   -3.7300   -1.8360    0.0950 C   0  0  0  0  0  0  0  0  0  0  0  0
   -4.2120   -3.2500   -0.2640 C   0  0  0  0  0  0  0  0  0  0  0  0
   -2.9900   -3.8550   -0.7930 N   0  0  0  0  0  0  0  0  0  0  0  0
   -1.8530   -3.1330   -0.3400 C   0  0  0  0  0  0  0  0  0  0  0  0
   -0.6650   -3.2670   -0.6770 O   0  0  0  0  0  0  0  0  0  0  0  0
   -0.7780    2.1410   -0.1000 C   0  0  0  0  0  0  0  0  0  0  0  0
   -2.1100    2.5560    0.1880 C   0  0  0  0  0  0  0  0  0  0  0  0
  1  2  1  0
  2  3  2  0
  2 26  1  0
  3  4  1  0
  4  5  2  0
  5  6  1  0
  5 25  1  0
  6  7  1  0
  7  8  1  0
  7 15  2  0
  8  9  1  0
  9 10  1  0
 10 11  1  0
 11 12  1  0
 12 13  1  0
 13 14  1  0
 15 16  1  0
 15 25  1  0
 16 17  1  0
 17 18  1  0
 18 19  1  1
 18 20  1  0
 18 23  1  0
 20 21  1  0
 21 22  1  0
 22 23  1  0
 23 24  2  0
 25 26  2  0
M  END
