
     RDKit          3D

 26 27  0  0  0  0  0  0  0  0999 V2000
    6.6000   -1.9400   -0.1150 C   0  0  0  0  0  0  0  0  0  0  0  0
    6.6400   -0.5740   -0.4870 O   0  0  0  0  0  0  0  0  0  0  0  0
    5.4940    0.2160   -0.5450 C   0  0  0  0  0  0  0  0  0  0  0  0
    5.6660    1.5270   -0.9200 C   0  0  0  0  0  0  0  0  0  0  0  0
    4.5530    2.3200   -0.9830 C   0  0  0  0  0  0  0  0  0  0  0  0
    3.2680    1.8400   -0.6810 C   0  0  0  0  0  0  0  0  0  0  0  0
    3.1120    0.5520   -0.3150 C   0  0  0  0  0  0  0  0  0  0  0  0
    1.5810   -0.2080    0.0940 S   0  0  0  0  0  0  0  0  0  0  0  0
    0.1720    0.8450   -0.0000 C   0  0  0  0  0  0  0  0  0  0  0  0
    0.3000    2.0410   -0.3320 O   0  0  0  0  0  0  0  0  0  0  0  0
   -1.1580    0.3120    0.3130 N   0  0  0  0  0  0  0  0  0  0  0  0
   -1.1620   -1.0670    0.6790 C   0  0  0  0  0  0  0  0  0  0  0  0
   -1.3410   -2.0310   -0.4630 C   0  0  0  0  0  0  0  0  0  0  0  0
   -1.3220   -3.4050    0.1150 C   0  0  0  0  0  0  0  0  0  0  0  0
   -1.4530   -4.4140   -0.6290 O   0  0  0  0  0  0  0  0  0  0  0  0
   -1.1620   -3.6450    1.4730 O   0  0  0  0  0  0  0  0  0  0  0  0
   -2.2050    1.2220    0.1920 C   0  0  0  0  0  0  0  0  0  0  0  0
   -1.8180    2.4270   -0.1360 O   0  0  0  0  0  0  0  0  0  0  0  0
   -3.6220    1.0550    0.3670 C   0  0  0  0  0  0  0  0  0  0  0  0
   -4.2900   -0.1270    0.5830 C   0  0  0  0  0  0  0  0  0  0  0  0
   -5.6720   -0.1950    0.7220 C   0  0  0  0  0  0  0  0  0  0  0  0
   -6.4340    0.9390    0.6460 C   0  0  0  0  0  0  0  0  0  0  0  0
   -5.8090    2.1400    0.4310 C   0  0  0  0  0  0  0  0  0  0  0  0
   -4.4500    2.1930    0.2960 C   0  0  0  0  0  0  0  0  0  0  0  0
   -3.8410    3.4190    0.0800 O   0  0  0  0  0  0  0  0  0  0  0  0
    4.2450   -0.2610   -0.2490 C   0  0  0  0  0  0  0  0  0  0  0  0
  1  2  1  0
  2  3  1  0
  3  4  2  0
  3 26  1  0
  4  5  1  0
  5  6  2  0
  6  7  1  0
  7  8  1  0
  7 26  2  0
  8  9  1  0
  9 10  2  0
  9 11  1  0
 11 12  1  0
 11 17  1  0
 12 13  1  0
 13 14  1  0
 14 15  2  0
 14 16  1  0
 17 18  2  0
 17 19  1  0
 19 20  2  0
 19 24  1  0
 20 21  1  0
 21 22  2  0
 22 23  1  0
 23 24  2  0
 24 25  1  0
M  END
