
     RDKit          3D

 26 28  0  0  0  0  0  0  0  0999 V2000
   -4.8240    3.9020   -0.3970 C   0  0  0  0  0  0  0  0  0  0  0  0
   -4.8270    2.3930   -0.4460 C   0  0  0  0  0  0  0  0  0  0  0  0
   -4.0410    1.9980    0.6660 O   0  0  0  0  0  0  0  0  0  0  0  0
   -3.8910    0.3470    0.6160 P   0  0  0  0  0  0  0  0  0  0  0  0
   -5.1760   -0.6340    0.1210 O   0  0  0  0  0  0  0  0  0  0  0  0
   -4.5680   -1.8940   -0.2180 C   0  0  0  0  0  0  0  0  0  0  0  0
   -5.2850   -2.8230    0.7700 C   0  0  0  0  0  0  0  0  0  0  0  0
   -2.2620   -0.3060    0.1850 C   0  0  0  0  0  0  0  0  0  0  0  0
   -1.6900   -1.2500    1.0160 C   0  0  0  0  0  0  0  0  0  0  0  0
   -0.4460   -1.7550    0.6710 C   0  0  0  0  0  0  0  0  0  0  0  0
    0.1190   -1.2770   -0.4810 C   0  0  0  0  0  0  0  0  0  0  0  0
    1.3910   -1.7620   -0.8310 N   0  0  0  0  0  0  0  0  0  0  0  0
    2.4800   -0.8910   -0.4670 C   0  0  0  0  0  0  0  0  0  0  0  0
    2.2740    0.1910    0.4240 C   0  0  0  0  0  0  0  0  0  0  0  0
    3.3340    1.0110    0.7610 C   0  0  0  0  0  0  0  0  0  0  0  0
    4.5830    0.7800    0.2400 C   0  0  0  0  0  0  0  0  0  0  0  0
    4.7880   -0.2690   -0.6220 C   0  0  0  0  0  0  0  0  0  0  0  0
    3.7050   -1.0770   -0.9500 C   0  0  0  0  0  0  0  0  0  0  0  0
    6.1230   -0.3150   -1.0350 O   0  0  0  0  0  0  0  0  0  0  0  0
    6.6470    0.9460   -0.6540 C   0  0  2  0  0  0  0  0  0  0  0  0
    8.3160    0.5610   -0.1660 S   0  0  1  0  0  0  0  0  0  0  0  0
    8.9320   -0.1150   -1.4040 O   0  0  0  0  0  0  0  0  0  0  0  0
    9.0950    1.7440    0.2170 O   0  0  0  0  0  0  0  0  0  0  0  0
    5.8380    1.4100    0.3810 O   0  0  0  0  0  0  0  0  0  0  0  0
   -0.4370   -0.3340   -1.3320 C   0  0  0  0  0  0  0  0  0  0  0  0
   -1.6450    0.1470   -0.9680 C   0  0  0  0  0  0  0  0  0  0  0  0
  1  2  1  0
  2  3  1  0
  3  4  1  0
  4  5  1  0
  4  8  1  0
  5  6  1  0
  6  7  1  0
  8  9  2  0
  8 26  1  0
  9 10  1  0
 10 11  2  0
 11 12  1  0
 11 25  1  0
 12 13  1  0
 13 14  2  0
 13 18  1  0
 14 15  1  0
 15 16  2  0
 16 17  1  0
 16 24  1  0
 17 18  2  0
 17 19  1  0
 20 19  1  1
 21 20  1  6
 20 24  1  0
 21 22  2  0
 21 23  2  0
 25 26  2  0
M  END
