
     RDKit          3D

 26 27  0  0  0  0  0  0  0  0999 V2000
   -6.6170    0.9950    3.0220 C   0  0  0  0  0  0  0  0  0  0  0  0
   -6.1130    0.2280    1.8130 C   0  0  0  0  0  0  0  0  0  0  0  0
   -4.7490    0.1610    1.8910 O   0  0  0  0  0  0  0  0  0  0  0  0
   -4.0180   -0.6850    0.5820 P   0  0  0  0  0  0  0  0  0  0  0  0
   -4.8180   -0.5600   -0.8950 O   0  0  0  0  0  0  0  0  0  0  0  0
   -4.4900    0.5510   -1.6570 C   0  0  0  0  0  0  0  0  0  0  0  0
   -5.2450    0.5970   -2.9630 C   0  0  0  0  0  0  0  0  0  0  0  0
   -2.2300   -0.5140    0.5300 C   0  0  0  0  0  0  0  0  0  0  0  0
   -1.5170   -1.3860   -0.3020 C   0  0  0  0  0  0  0  0  0  0  0  0
   -0.1450   -1.3000   -0.3810 C   0  0  0  0  0  0  0  0  0  0  0  0
    0.5270   -0.3470    0.3690 C   0  0  0  0  0  0  0  0  0  0  0  0
    1.9790   -0.2700    0.2760 C   0  0  0  0  0  0  0  0  0  0  0  0
    2.7250    0.1370    1.3600 C   0  0  0  0  0  0  0  0  0  0  0  0
    4.0870    0.2200    1.3080 C   0  0  0  0  0  0  0  0  0  0  0  0
    4.8020   -0.1040    0.1470 C   0  0  0  0  0  0  0  0  0  0  0  0
    6.2470    0.0110    0.1740 C   0  0  0  0  0  0  0  0  0  0  0  0
    6.7880    0.4030    1.2610 O   0  0  0  0  0  0  0  0  0  0  0  0
    7.1230   -0.2710   -0.8930 N   0  0  0  0  0  0  0  0  0  0  0  0
    8.5310   -0.1050   -0.7020 C   0  0  0  0  0  0  0  0  0  0  0  0
    9.0560    0.2780    0.3620 O   0  0  0  0  0  0  0  0  0  0  0  0
    9.3530   -0.3950   -1.7810 O   0  0  0  0  0  0  0  0  0  0  0  0
    4.0510   -0.5080   -0.9260 C   0  0  0  0  0  0  0  0  0  0  0  0
    4.6640   -0.8470   -2.1100 O   0  0  0  0  0  0  0  0  0  0  0  0
    2.6570   -0.5940   -0.8770 C   0  0  0  0  0  0  0  0  0  0  0  0
   -0.1970    0.5110    1.1900 C   0  0  0  0  0  0  0  0  0  0  0  0
   -1.5550    0.4380    1.2780 C   0  0  0  0  0  0  0  0  0  0  0  0
  1  2  1  0
  2  3  1  0
  3  4  1  0
  4  5  1  0
  4  8  1  0
  5  6  1  0
  6  7  1  0
  8  9  2  0
  8 26  1  0
  9 10  1  0
 10 11  2  0
 11 12  1  0
 11 25  1  0
 12 13  2  0
 12 24  1  0
 13 14  1  0
 14 15  2  0
 15 16  1  0
 15 22  1  0
 16 17  2  0
 16 18  1  0
 18 19  1  0
 19 20  2  0
 19 21  1  0
 22 23  1  0
 22 24  2  0
 25 26  2  0
M  END
