
     RDKit          3D

 26 28  0  0  0  0  0  0  0  0999 V2000
   -3.5470   -1.0990   -0.6190 O   0  0  0  0  0  0  0  0  0  0  0  0
   -4.2420   -0.1270   -0.1830 C   0  0  0  0  0  0  0  0  0  0  0  0
   -4.2370    1.0290   -0.9960 N   0  0  0  0  0  0  0  0  0  0  0  0
   -3.4870    1.0840   -2.2310 C   0  0  0  0  0  0  0  0  0  0  0  0
   -2.0470    0.8760   -2.0350 C   0  0  0  0  0  0  0  0  0  0  0  0
   -1.0680    0.8700   -2.9970 C   0  0  0  0  0  0  0  0  0  0  0  0
    0.1260    0.6390   -2.3590 C   0  0  0  0  0  0  0  0  0  0  0  0
   -0.1740    0.5120   -1.0140 C   0  0  0  0  0  0  0  0  0  0  0  0
    0.7980    0.2580    0.0470 C   0  0  0  0  0  0  0  0  0  0  0  0
    0.4170    0.1620    1.2250 O   0  0  0  0  0  0  0  0  0  0  0  0
    2.1260    0.1270   -0.2640 O   0  0  0  0  0  0  0  0  0  0  0  0
    3.1210   -0.1210    0.7180 C   0  0  0  0  0  0  0  0  0  0  0  0
    4.4530   -0.2050    0.0130 C   0  0  0  0  0  0  0  0  0  0  0  0
    5.4960   -0.4460    0.9000 O   0  0  0  0  0  0  0  0  0  0  0  0
    6.8440   -0.5630    0.4450 C   0  0  0  0  0  0  0  0  0  0  0  0
    7.8420   -0.7940    1.2940 C   0  0  0  0  0  0  0  0  0  0  0  0
    9.1280   -0.9050    0.8510 C   0  0  0  0  0  0  0  0  0  0  0  0
    8.9420   -0.6580   -0.9700 S   0  0  0  0  0  0  0  0  0  0  0  0
    7.1000   -0.4330   -0.8900 C   0  0  0  0  0  0  0  0  0  0  0  0
   -1.4630    0.6620   -0.8990 O   0  0  0  0  0  0  0  0  0  0  0  0
   -4.9650   -0.2730    1.0720 C   0  0  0  0  0  0  0  0  0  0  0  0
   -5.6990    0.6990    1.5680 C   0  0  0  0  0  0  0  0  0  0  0  0
   -6.4630    0.6160    2.8450 C   0  0  0  0  0  0  0  0  0  0  0  0
   -6.3180   -0.6330    3.4840 O   0  0  0  0  0  0  0  0  0  0  0  0
   -5.5420   -1.6580    2.9570 C   0  0  0  0  0  0  0  0  0  0  0  0
   -4.8850   -1.5280    1.8170 C   0  0  0  0  0  0  0  0  0  0  0  0
  1  2  2  0
  2  3  1  0
  2 21  1  0
  3  4  1  0
  4  5  1  0
  5  6  2  0
  5 20  1  0
  6  7  1  0
  7  8  2  0
  8  9  1  0
  8 20  1  0
  9 10  2  0
  9 11  1  0
 11 12  1  0
 12 13  1  0
 13 14  1  0
 14 15  1  0
 15 16  1  0
 15 19  2  0
 16 17  2  0
 17 18  1  0
 18 19  1  0
 21 22  2  0
 21 26  1  0
 22 23  1  0
 23 24  1  0
 24 25  1  0
 25 26  2  0
M  END
