
     RDKit          3D

 26 27  0  0  0  0  0  0  0  0999 V2000
    4.5930   -3.7210   -0.7990 C   0  0  0  0  0  0  0  0  0  0  0  0
    4.9120   -2.4860   -0.4910 C   0  0  0  0  0  0  0  0  0  0  0  0
    6.7110   -1.7880   -0.5690 P   0  0  0  0  0  0  0  0  0  0  0  0
    6.2130   -0.1290   -0.0110 C   0  0  0  0  0  0  0  0  0  0  0  0
    4.8380   -0.2430    0.1700 C   0  0  0  0  0  0  0  0  0  0  0  0
    4.1760   -1.3350   -0.0430 C   0  0  0  0  0  0  0  0  0  0  0  0
    2.6870   -1.4690    0.1500 C   0  0  0  0  0  0  0  0  0  0  0  0
    2.0930   -2.5370   -0.0670 O   0  0  0  0  0  0  0  0  0  0  0  0
    1.9150   -0.4040    0.5790 O   0  0  0  0  0  0  0  0  0  0  0  0
    0.5160   -0.4990    0.7700 C   0  0  0  0  0  0  0  0  0  0  0  0
    0.0320    0.8360    1.2330 C   0  0  1  0  0  0  0  0  0  0  0  0
    0.3290    1.8880    0.2270 C   0  0  0  0  0  0  0  0  0  0  0  0
    1.0630    2.8990    0.4980 O   0  0  0  0  0  0  0  0  0  0  0  0
   -0.1630    1.8550   -1.0750 O   0  0  0  0  0  0  0  0  0  0  0  0
    0.1280    2.8590   -2.0130 C   0  0  0  0  0  0  0  0  0  0  0  0
   -1.4300    0.8310    1.6090 C   0  0  1  0  0  0  0  0  0  0  0  0
   -1.8760    2.2060    2.0720 C   0  0  0  0  0  0  0  0  0  0  0  0
   -1.0860    2.6320    3.1630 O   0  0  0  0  0  0  0  0  0  0  0  0
   -2.2790    0.4580    0.4950 N   0  0  0  0  0  0  0  0  0  0  0  0
   -3.1560   -0.6300    0.5400 C   0  0  0  0  0  0  0  0  0  0  0  0
   -3.2150   -1.3180    1.5900 O   0  0  0  0  0  0  0  0  0  0  0  0
   -4.0150   -1.0010   -0.6000 C   0  0  0  0  0  0  0  0  0  0  0  0
   -4.1370   -0.4390   -1.8110 C   0  0  0  0  0  0  0  0  0  0  0  0
   -4.9920   -0.9470   -2.7060 C   0  0  0  0  0  0  0  0  0  0  0  0
   -5.7340   -2.0420   -2.3730 C   0  0  0  0  0  0  0  0  0  0  0  0
   -5.1450   -2.3360   -0.6570 S   0  0  0  0  0  0  0  0  0  0  0  0
  1  2  2  0
  2  3  1  0
  2  6  1  0
  3  4  2  0
  4  5  1  0
  5  6  2  0
  6  7  1  0
  7  8  2  0
  7  9  1  0
  9 10  1  0
 11 10  1  6
 11 12  1  0
 11 16  1  0
 12 13  2  0
 12 14  1  0
 14 15  1  0
 16 17  1  6
 16 19  1  0
 17 18  1  0
 19 20  1  0
 20 21  2  0
 20 22  1  0
 22 23  2  0
 22 26  1  0
 23 24  1  0
 24 25  2  0
 25 26  1  0
M  END
