
     RDKit          3D

 11 10  0  0  0  0  0  0  0  0999 V2000
    2.3730   -0.5080   -0.1370 C   0  0  0  0  0  0  0  0  0  0  0  0
    1.2670    0.4110    0.1000 C   0  0  0  0  0  0  0  0  0  0  0  0
    1.7550    2.0410    0.6470 Cl  0  0  0  0  0  0  0  0  0  0  0  0
   -0.0200    0.2070   -0.0310 C   0  0  0  0  0  0  0  0  0  0  0  0
   -0.9200    1.3590    0.2890 C   0  0  0  0  0  0  0  0  0  0  0  0
   -1.7760    1.0570    1.3240 O   0  0  0  0  0  0  0  0  0  0  0  0
   -0.5730   -1.0390   -0.4480 C   0  0  0  0  0  0  0  0  0  0  0  0
    0.5820   -2.3690   -0.7500 Cl  0  0  0  0  0  0  0  0  0  0  0  0
   -1.8210   -1.3730   -0.6460 C   0  0  0  0  0  0  0  0  0  0  0  0
   -2.2680   -3.0190   -1.1680 Cl  0  0  0  0  0  0  0  0  0  0  0  0
   -3.1550   -0.2750   -0.4780 Cl  0  0  0  0  0  0  0  0  0  0  0  0
  1  2  1  0
  2  3  1  0
  2  4  2  3
  4  5  1  0
  4  7  1  0
  5  6  1  0
  7  8  1  0
  7  9  2  3
  9 10  1  0
  9 11  1  0
M  END
