
     RDKit          3D

 18 19  0  0  0  0  0  0  0  0999 V2000
    5.3890   -0.4050   -0.7860 O   0  0  0  0  0  0  0  0  0  0  0  0
    4.9810    0.2570    0.1820 C   0  0  0  0  0  0  0  0  0  0  0  0
    5.9040    0.8920    0.9910 O   0  0  0  0  0  0  0  0  0  0  0  0
    3.5630    0.3830    0.4870 C   0  0  0  0  0  0  0  0  0  0  0  0
    3.1490    1.0500    1.4640 O   0  0  0  0  0  0  0  0  0  0  0  0
    2.5680   -0.2600   -0.3260 N   0  0  0  0  0  0  0  0  0  0  0  0
    1.1880   -0.1300   -0.0190 C   0  0  0  0  0  0  0  0  0  0  0  0
    0.5920    0.8340    1.3930 S   0  0  0  0  0  0  0  0  0  0  0  0
   -1.0890    0.5160    1.0950 C   0  0  0  0  0  0  0  0  0  0  0  0
   -1.1380   -0.2510    0.0190 C   0  0  0  0  0  0  0  0  0  0  0  0
    0.0470   -0.6010   -0.5790 C   0  0  0  0  0  0  0  0  0  0  0  0
    0.1570   -1.4670   -1.8040 C   0  0  0  0  0  0  0  0  0  0  0  0
   -0.8820   -1.9160   -2.3400 O   0  0  0  0  0  0  0  0  0  0  0  0
    1.3460   -1.7970   -2.3740 O   0  0  0  0  0  0  0  0  0  0  0  0
   -2.5160   -0.6810   -0.4690 C   0  0  0  0  0  0  0  0  0  0  0  0
   -3.5740   -0.0010    0.2680 C   0  0  0  0  0  0  0  0  0  0  0  0
   -3.2510    1.3120    0.7880 N   0  0  0  0  0  0  0  0  0  0  0  0
   -2.3210    1.0050    1.8900 C   0  0  0  0  0  0  0  0  0  0  0  0
  1  2  2  0
  2  3  1  0
  2  4  1  0
  4  5  2  0
  4  6  1  0
  6  7  1  0
  7  8  1  0
  7 11  2  0
  8  9  1  0
  9 10  2  0
  9 18  1  0
 10 11  1  0
 10 15  1  0
 11 12  1  0
 12 13  2  0
 12 14  1  0
 15 16  1  0
 16 17  1  0
 17 18  1  0
M  CHG  1  17   1
M  END
