
     RDKit          3D

 12 13  0  0  0  0  0  0  0  0999 V2000
    3.1880    2.0760   -0.1060 Cl  0  0  0  0  0  0  0  0  0  0  0  0
    1.5700    1.4520   -0.4690 C   0  0  0  0  0  0  0  0  0  0  0  0
    0.3070    2.5880   -0.9670 Cl  0  0  0  0  0  0  0  0  0  0  0  0
    1.2780    0.1870   -0.3890 C   0  0  0  0  0  0  0  0  0  0  0  0
   -0.0210   -0.2390   -0.6890 O   0  0  0  0  0  0  0  0  0  0  0  0
   -0.9660   -0.3060    0.3330 C   0  0  2  0  0  0  0  0  0  0  0  0
   -2.3600   -0.8030    0.0890 C   0  0  0  0  0  0  0  0  0  0  0  0
   -2.1540    0.6470    0.0900 C   0  0  0  0  0  0  0  0  0  0  0  0
    2.2090   -0.8940    0.0010 C   0  0  1  0  0  0  0  0  0  0  0  0
    1.5630   -1.6680    1.4740 Cl  0  0  0  0  0  0  0  0  0  0  0  0
    2.2910   -2.1510   -1.2820 Cl  0  0  0  0  0  0  0  0  0  0  0  0
    3.8100   -0.2270    0.3240 Cl  0  0  0  0  0  0  0  0  0  0  0  0
  1  2  1  0
  2  3  1  0
  2  4  2  0
  4  5  1  0
  4  9  1  0
  6  5  1  6
  6  7  1  0
  6  8  1  0
  7  8  1  0
  9 10  1  1
  9 11  1  0
  9 12  1  0
 12  1  1  0
M  END
