
     RDKit          3D

 11 11  0  0  0  0  0  0  0  0999 V2000
    3.6610   -0.2960    0.0840 Cl  0  0  0  0  0  0  0  0  0  0  0  0
    2.2040   -1.1810   -0.0090 O   0  0  0  0  0  0  0  0  0  0  0  0
    0.9530   -0.5690   -0.0080 C   0  0  0  0  0  0  0  0  0  0  0  0
   -0.1800   -1.3510   -0.0850 C   0  0  0  0  0  0  0  0  0  0  0  0
   -1.4360   -0.7780   -0.0860 C   0  0  0  0  0  0  0  0  0  0  0  0
   -2.8850   -1.7850   -0.1860 Cl  0  0  0  0  0  0  0  0  0  0  0  0
   -1.5260    0.5970   -0.0070 C   0  0  0  0  0  0  0  0  0  0  0  0
   -3.1070    1.3620   -0.0050 Cl  0  0  0  0  0  0  0  0  0  0  0  0
   -0.3780    1.3600    0.0700 C   0  0  0  0  0  0  0  0  0  0  0  0
    0.8860    0.8060    0.0720 C   0  0  0  0  0  0  0  0  0  0  0  0
    2.3290    1.8040    0.1720 Cl  0  0  0  0  0  0  0  0  0  0  0  0
  1  2  1  0
  2  3  1  0
  3  4  2  0
  3 10  1  0
  4  5  1  0
  5  6  1  0
  5  7  2  0
  7  8  1  0
  7  9  1  0
  9 10  2  0
 10 11  1  0
M  END
