
     RDKit          3D

 12 12  0  0  0  0  0  0  0  0999 V2000
   -1.8660   -1.2670    0.5030 C   0  0  0  0  0  0  0  0  0  0  0  0
   -1.6860    0.0740   -0.1090 C   0  0  0  0  0  0  0  0  0  0  0  0
   -2.9450    0.6560   -1.1510 Cl  0  0  0  0  0  0  0  0  0  0  0  0
   -0.5890    0.7490    0.1440 C   0  0  0  0  0  0  0  0  0  0  0  0
    0.4100    0.2290    0.9730 O   0  0  0  0  0  0  0  0  0  0  0  0
    1.2820   -0.8060    0.7310 C   0  0  0  0  0  0  0  0  0  0  0  0
    2.1970   -0.6140   -0.4350 C   0  0  0  0  0  0  0  0  0  0  0  0
    3.2260    0.8150   -0.2070 Cl  0  0  0  0  0  0  0  0  0  0  0  0
   -0.4180    2.0930   -0.4690 C   0  0  2  0  0  0  0  0  0  0  0  0
   -1.9990    2.8020   -0.7640 Cl  0  0  0  0  0  0  0  0  0  0  0  0
    0.3910    1.9280   -2.0650 Cl  0  0  0  0  0  0  0  0  0  0  0  0
    0.6040    3.1410    0.5410 Cl  0  0  0  0  0  0  0  0  0  0  0  0
  1  2  1  0
  2  3  1  0
  2  4  2  0
  4  5  1  0
  4  9  1  0
  5  6  1  0
  6  7  1  0
  7  8  1  0
  9 10  1  0
  9 11  1  6
  9 12  1  0
 10  3  1  0
M  END
