
     RDKit          3D

 11 10  0  0  0  0  0  0  0  0999 V2000
   -1.5260   -1.6970   -0.0400 C   0  0  0  0  0  0  0  0  0  0  0  0
   -1.0710   -0.5910    0.7220 O   0  0  0  0  0  0  0  0  0  0  0  0
    0.0270    0.1920    0.1790 C   0  0  0  0  0  0  0  0  0  0  0  0
    1.1290   -0.4340    0.1240 C   0  0  0  0  0  0  0  0  0  0  0  0
    2.5040   -0.2410   -0.2830 C   0  0  0  0  0  0  0  0  0  0  0  0
    2.9900    1.2900   -0.9340 Cl  0  0  0  0  0  0  0  0  0  0  0  0
   -0.3860    1.5140   -0.1790 C   0  0  0  0  0  0  0  0  0  0  0  0
    0.6790    2.7000   -0.8600 Cl  0  0  0  0  0  0  0  0  0  0  0  0
   -1.6530    1.9390   -0.0100 C   0  0  0  0  0  0  0  0  0  0  0  0
   -2.1130    3.5440   -0.4540 Cl  0  0  0  0  0  0  0  0  0  0  0  0
   -2.8180    0.8600    0.6650 Cl  0  0  0  0  0  0  0  0  0  0  0  0
  1  2  1  0
  2  3  1  0
  3  4  2  3
  3  7  1  0
  4  5  1  0
  5  6  1  0
  7  8  1  0
  7  9  2  3
  9 10  1  0
  9 11  1  0
M  END
