
     RDKit          3D

 18 19  0  0  0  0  0  0  0  0999 V2000
    5.3800   -0.6110    0.6000 O   0  0  0  0  0  0  0  0  0  0  0  0
    4.9770    0.1600   -0.2850 C   0  0  0  0  0  0  0  0  0  0  0  0
    5.9070    0.8740   -1.0220 O   0  0  0  0  0  0  0  0  0  0  0  0
    3.5360    0.3190   -0.5520 C   0  0  0  0  0  0  0  0  0  0  0  0
    3.1170    1.0970   -1.4450 O   0  0  0  0  0  0  0  0  0  0  0  0
    2.5670   -0.4050    0.1940 N   0  0  0  0  0  0  0  0  0  0  0  0
    1.1660   -0.2220   -0.0970 C   0  0  0  0  0  0  0  0  0  0  0  0
    0.5560    0.8740   -1.3560 S   0  0  0  0  0  0  0  0  0  0  0  0
   -1.1280    0.5500   -1.1010 C   0  0  0  0  0  0  0  0  0  0  0  0
   -1.1430   -0.3830   -0.0610 C   0  0  0  0  0  0  0  0  0  0  0  0
    0.0560   -0.7450    0.4160 C   0  0  0  0  0  0  0  0  0  0  0  0
    0.1510   -1.7380    1.5270 C   0  0  0  0  0  0  0  0  0  0  0  0
   -0.8740   -2.2490    2.0310 O   0  0  0  0  0  0  0  0  0  0  0  0
    1.3600   -2.1470    2.0570 O   0  0  0  0  0  0  0  0  0  0  0  0
   -2.5870   -0.7460    0.2550 C   0  0  0  0  0  0  0  0  0  0  0  0
   -3.2280    0.6260    0.5260 C   0  0  0  0  0  0  0  0  0  0  0  0
   -3.3850    1.3650   -0.6860 N   0  0  0  0  0  0  0  0  0  0  0  0
   -2.4260    1.0190   -1.7060 C   0  0  0  0  0  0  0  0  0  0  0  0
  1  2  2  0
  2  3  1  0
  2  4  1  0
  4  5  2  0
  4  6  1  0
  6  7  1  0
  7  8  1  0
  7 11  2  0
  8  9  1  0
  9 10  2  0
  9 18  1  0
 10 11  1  0
 10 15  1  0
 11 12  1  0
 12 13  2  0
 12 14  1  0
 15 16  1  0
 16 17  1  0
 17 18  1  0
M  CHG  1  17   1
M  END
