
     RDKit          3D

 12 12  0  0  0  0  0  0  0  0999 V2000
    2.6560    0.6690   -0.2420 C   0  0  0  0  0  0  0  0  0  0  0  0
    1.2950    0.5720   -0.1530 O   0  0  0  0  0  0  0  0  0  0  0  0
    0.7790   -0.6330    0.0990 C   0  0  0  0  0  0  0  0  0  0  0  0
   -0.7060   -0.6130    0.1730 C   0  0  0  0  0  0  0  0  0  0  0  0
   -1.4320    0.4470    0.0130 C   0  0  0  0  0  0  0  0  0  0  0  0
   -3.2250    0.1900    0.1580 Cl  0  0  0  0  0  0  0  0  0  0  0  0
   -1.0710    1.8430   -0.2600 C   0  0  0  0  0  0  0  0  0  0  0  0
   -1.8250    2.3180   -1.8300 Cl  0  0  0  0  0  0  0  0  0  0  0  0
   -1.3830   -1.9560    0.4740 C   0  0  2  0  0  0  0  0  0  0  0  0
   -2.8380   -2.0480   -0.5010 Cl  0  0  0  0  0  0  0  0  0  0  0  0
   -1.7360   -1.9190    2.2130 Cl  0  0  0  0  0  0  0  0  0  0  0  0
   -0.2240   -3.2250    0.0790 Cl  0  0  0  0  0  0  0  0  0  0  0  0
  1  2  1  0
  2  3  1  0
  3  4  1  0
  4  5  2  0
  4  9  1  0
  5  6  1  0
  5  7  1  0
  7  8  1  0
  9 10  1  0
  9 11  1  1
  9 12  1  0
 10  6  1  0
M  END
