
     RDKit          3D

 12 11  0  0  0  0  0  0  0  0999 V2000
    0.4000   -2.3880   -1.6880 Cl  0  0  0  0  0  0  0  0  0  0  0  0
   -0.9910   -1.4630   -1.2040 C   0  0  0  0  0  0  0  0  0  0  0  0
   -0.9550   -0.4070   -0.4160 C   0  0  0  0  0  0  0  0  0  0  0  0
    0.2050    0.0850    0.1180 O   0  0  0  0  0  0  0  0  0  0  0  0
    1.4960   -0.4030   -0.0330 C   0  0  0  0  0  0  0  0  0  0  0  0
    2.5350    0.4060    0.7110 C   0  0  0  0  0  0  0  0  0  0  0  0
    2.6330    2.0770    0.2140 Cl  0  0  0  0  0  0  0  0  0  0  0  0
   -2.1900    0.2920   -0.0770 C   0  0  0  0  0  0  0  0  0  0  0  0
   -3.6920   -0.3050   -0.7400 Cl  0  0  0  0  0  0  0  0  0  0  0  0
   -2.2210    1.3440    0.7000 C   0  0  0  0  0  0  0  0  0  0  0  0
   -0.7590    1.9940    1.3960 Cl  0  0  0  0  0  0  0  0  0  0  0  0
   -3.7330    2.1290    1.0620 Cl  0  0  0  0  0  0  0  0  0  0  0  0
  1  2  1  0
  2  3  2  3
  3  4  1  0
  3  8  1  0
  4  5  1  0
  5  6  1  0
  6  7  1  0
  8  9  1  0
  8 10  2  3
 10 11  1  0
 10 12  1  0
M  END
