
     RDKit          3D

 11 10  0  0  0  0  0  0  0  0999 V2000
    2.2440   -0.1430   -0.9670 C   0  0  0  0  0  0  0  0  0  0  0  0
    0.9800    0.5900   -0.7390 C   0  0  0  0  0  0  0  0  0  0  0  0
    0.8600    2.2550   -1.4020 Cl  0  0  0  0  0  0  0  0  0  0  0  0
   -0.0850    0.1780   -0.1030 C   0  0  0  0  0  0  0  0  0  0  0  0
   -1.2360    1.0950   -0.0040 C   0  0  0  0  0  0  0  0  0  0  0  0
   -1.5970    1.4360    1.2780 O   0  0  0  0  0  0  0  0  0  0  0  0
   -0.1520   -1.1340    0.4980 C   0  0  0  0  0  0  0  0  0  0  0  0
    1.2960   -2.2020    0.3990 Cl  0  0  0  0  0  0  0  0  0  0  0  0
   -1.1350   -1.6940    1.1330 C   0  0  0  0  0  0  0  0  0  0  0  0
   -0.9480   -3.3090    1.7730 Cl  0  0  0  0  0  0  0  0  0  0  0  0
   -2.6670   -0.9420    1.3490 Cl  0  0  0  0  0  0  0  0  0  0  0  0
  1  2  1  0
  2  3  1  0
  2  4  2  3
  4  5  1  0
  4  7  1  0
  5  6  1  0
  7  8  1  0
  7  9  2  3
  9 10  1  0
  9 11  1  0
M  END
