
     RDKit          3D

 12 12  0  0  0  0  0  0  0  0999 V2000
    2.8010    0.3970    0.0740 C   0  0  0  0  0  0  0  0  0  0  0  0
    1.6380   -0.2650    0.4660 O   0  0  0  0  0  0  0  0  0  0  0  0
    0.6090    0.1820   -0.3800 C   0  0  0  0  0  0  0  0  0  0  0  0
   -0.6850   -0.5060   -0.0000 C   0  0  0  0  0  0  0  0  0  0  0  0
   -1.7550    0.1460    0.3920 C   0  0  0  0  0  0  0  0  0  0  0  0
   -3.2230   -0.7670    0.8130 Cl  0  0  0  0  0  0  0  0  0  0  0  0
   -1.8800    1.6140    0.5330 C   0  0  0  0  0  0  0  0  0  0  0  0
   -2.2820    2.0260    2.2340 Cl  0  0  0  0  0  0  0  0  0  0  0  0
   -0.6450   -2.0110   -0.1110 C   0  0  1  0  0  0  0  0  0  0  0  0
   -0.3150   -2.4320   -1.8230 Cl  0  0  0  0  0  0  0  0  0  0  0  0
    0.7950   -2.5280    0.8070 Cl  0  0  0  0  0  0  0  0  0  0  0  0
   -2.0890   -2.8280    0.3950 Cl  0  0  0  0  0  0  0  0  0  0  0  0
  1  2  1  0
  2  3  1  0
  3  4  1  0
  4  5  2  0
  4  9  1  0
  5  6  1  0
  5  7  1  0
  7  8  1  0
  9 10  1  6
  9 11  1  0
  9 12  1  0
 12  6  1  0
M  END
