
     RDKit          3D

 12 11  0  0  0  0  0  0  0  0999 V2000
   -2.8460   -0.2960   -0.3200 C   0  0  0  0  0  0  0  0  0  0  0  0
   -1.4000   -0.3830   -0.5590 C   0  0  0  0  0  0  0  0  0  0  0  0
   -0.8490   -1.8460   -1.4140 Cl  0  0  0  0  0  0  0  0  0  0  0  0
   -0.4910    0.4930   -0.2190 C   0  0  0  0  0  0  0  0  0  0  0  0
    0.8600    0.2080   -0.5500 O   0  0  0  0  0  0  0  0  0  0  0  0
    1.5330   -0.6780    0.2990 C   0  0  0  0  0  0  0  0  0  0  0  0
    2.9640   -0.9170   -0.1420 C   0  0  0  0  0  0  0  0  0  0  0  0
    3.9110    0.5710   -0.1710 Cl  0  0  0  0  0  0  0  0  0  0  0  0
   -0.7060    1.7750    0.4860 C   0  0  2  0  0  0  0  0  0  0  0  0
   -2.4020    2.1050    0.8450 Cl  0  0  0  0  0  0  0  0  0  0  0  0
   -0.1420    3.1410   -0.5520 Cl  0  0  0  0  0  0  0  0  0  0  0  0
    0.2630    1.7780    1.9970 Cl  0  0  0  0  0  0  0  0  0  0  0  0
  1  2  1  0
  2  3  1  0
  2  4  2  3
  4  5  1  0
  4  9  1  0
  5  6  1  0
  6  7  1  0
  7  8  1  0
  9 10  1  1
  9 11  1  0
  9 12  1  0
M  END
