
     RDKit          3D

 12 11  0  0  0  0  0  0  0  0999 V2000
   -1.6210    1.5570    1.3580 O   0  0  0  0  0  0  0  0  0  0  0  0
   -2.2280    1.0720    0.2040 C   0  0  0  0  0  0  0  0  0  0  0  0
   -1.5620   -0.1790   -0.3090 C   0  0  0  0  0  0  0  0  0  0  0  0
   -0.1450    0.0220   -0.6460 C   0  0  0  0  0  0  0  0  0  0  0  0
    0.3450    1.1990   -1.8750 Cl  0  0  0  0  0  0  0  0  0  0  0  0
    0.7620   -0.6940   -0.0130 C   0  0  0  0  0  0  0  0  0  0  0  0
    0.2540   -1.8510    1.1980 Cl  0  0  0  0  0  0  0  0  0  0  0  0
    2.1990   -0.5850   -0.2590 C   0  0  0  0  0  0  0  0  0  0  0  0
    2.7240    0.5840   -1.4840 Cl  0  0  0  0  0  0  0  0  0  0  0  0
    3.1030   -1.2970    0.3700 C   0  0  0  0  0  0  0  0  0  0  0  0
    4.7880   -1.0820   -0.0060 Cl  0  0  0  0  0  0  0  0  0  0  0  0
    2.6350   -2.4570    1.5800 Cl  0  0  0  0  0  0  0  0  0  0  0  0
  1  2  1  0
  2  3  1  0
  3  4  1  0
  4  5  1  0
  4  6  2  3
  6  7  1  0
  6  8  1  0
  8  9  1  0
  8 10  2  3
 10 11  1  0
 10 12  1  0
M  END
