
     RDKit          3D

 12 12  0  0  0  0  0  0  0  0999 V2000
    1.1150   -1.3590    2.6840 Cl  0  0  0  0  0  0  0  0  0  0  0  0
    1.9320   -0.9780    1.1810 C   0  0  0  0  0  0  0  0  0  0  0  0
    3.6760   -1.0560    1.1300 Cl  0  0  0  0  0  0  0  0  0  0  0  0
    1.2070   -0.6490    0.1510 C   0  0  0  0  0  0  0  0  0  0  0  0
   -0.1690   -0.6110    0.2730 O   0  0  0  0  0  0  0  0  0  0  0  0
   -0.9320    0.5340    0.4960 C   0  0  2  0  0  0  0  0  0  0  0  0
   -2.4300    0.2650    0.5860 C   0  0  0  0  0  0  0  0  0  0  0  0
   -1.8570    0.9160   -0.6480 C   0  0  0  0  0  0  0  0  0  0  0  0
    1.7720   -0.3070   -1.1690 C   0  0  1  0  0  0  0  0  0  0  0  0
    1.3060    1.3720   -1.6310 Cl  0  0  0  0  0  0  0  0  0  0  0  0
    3.5320   -0.3860   -1.2350 Cl  0  0  0  0  0  0  0  0  0  0  0  0
    1.1690   -1.4380   -2.4320 Cl  0  0  0  0  0  0  0  0  0  0  0  0
  1  2  1  0
  2  3  1  0
  2  4  2  3
  4  5  1  0
  4  9  1  0
  6  5  1  6
  6  7  1  0
  6  8  1  0
  7  8  1  0
  9 10  1  6
  9 11  1  0
  9 12  1  0
M  END
