
     RDKit          3D

 12 12  0  0  0  0  0  0  0  0999 V2000
   -1.9880   -0.0400    1.7730 Cl  0  0  0  0  0  0  0  0  0  0  0  0
   -2.3730    0.2460    0.0790 C   0  0  0  0  0  0  0  0  0  0  0  0
   -4.0390    0.3520   -0.4510 Cl  0  0  0  0  0  0  0  0  0  0  0  0
   -1.4220    0.3620   -0.8100 C   0  0  0  0  0  0  0  0  0  0  0  0
   -1.8780    0.6460   -2.4840 Cl  0  0  0  0  0  0  0  0  0  0  0  0
   -0.0360    0.1980   -0.3770 C   0  0  0  0  0  0  0  0  0  0  0  0
    0.4300   -0.8420    0.4450 C   0  0  0  0  0  0  0  0  0  0  0  0
    1.7680   -0.5840    0.5760 C   0  0  0  0  0  0  0  0  0  0  0  0
    2.9440   -1.5220    1.4770 Cl  0  0  0  0  0  0  0  0  0  0  0  0
    2.0690    0.5650   -0.1430 C   0  0  0  0  0  0  0  0  0  0  0  0
    3.6770    1.2610   -0.2500 Cl  0  0  0  0  0  0  0  0  0  0  0  0
    0.9620    0.9970   -0.6930 O   0  0  0  0  0  0  0  0  0  0  0  0
  1  2  1  0
  2  3  1  0
  2  4  2  3
  4  5  1  0
  4  6  1  0
  6  7  2  0
  6 12  1  0
  7  8  1  0
  8  9  1  0
  8 10  2  0
 10 11  1  0
 10 12  1  0
M  END
