
     RDKit          3D

 11 10  0  0  0  0  0  0  0  0999 V2000
    1.9720   -1.4050   -0.0130 C   0  0  0  0  0  0  0  0  0  0  0  0
    1.5200   -0.1250    0.1140 O   0  0  0  0  0  0  0  0  0  0  0  0
    0.2240    0.4000    0.0660 C   0  0  0  0  0  0  0  0  0  0  0  0
   -0.8130   -0.3640    0.0700 C   0  0  0  0  0  0  0  0  0  0  0  0
   -0.4980   -2.1280    0.1350 Cl  0  0  0  0  0  0  0  0  0  0  0  0
   -2.2460   -0.0480    0.0700 C   0  0  0  0  0  0  0  0  0  0  0  0
   -2.9170   -0.7580   -1.4460 Cl  0  0  0  0  0  0  0  0  0  0  0  0
    0.2540    1.8980    0.0130 C   0  0  1  0  0  0  0  0  0  0  0  0
   -1.1760    2.6960   -0.5290 Cl  0  0  0  0  0  0  0  0  0  0  0  0
    0.6420    2.4990    1.6500 Cl  0  0  0  0  0  0  0  0  0  0  0  0
    1.5960    2.4050   -1.0780 Cl  0  0  0  0  0  0  0  0  0  0  0  0
  1  2  1  0
  2  3  1  0
  3  4  2  3
  3  8  1  0
  4  5  1  0
  4  6  1  0
  6  7  1  0
  8  9  1  6
  8 10  1  0
  8 11  1  0
M  END
