
     RDKit          3D

 11 10  0  0  0  0  0  0  0  0999 V2000
   -1.3260   -0.3670   -1.4570 C   0  0  0  0  0  0  0  0  0  0  0  0
   -0.0770    0.1250   -1.0970 O   0  0  0  0  0  0  0  0  0  0  0  0
    0.4930    0.0450    0.1660 C   0  0  0  0  0  0  0  0  0  0  0  0
    0.1280    0.9340    1.0630 C   0  0  0  0  0  0  0  0  0  0  0  0
   -0.8470    1.9860    0.7520 C   0  0  0  0  0  0  0  0  0  0  0  0
   -2.2410    1.7580    1.8540 Cl  0  0  0  0  0  0  0  0  0  0  0  0
    1.4690   -0.9720    0.5380 C   0  0  0  0  0  0  0  0  0  0  0  0
    2.0760   -0.9390    2.1920 Cl  0  0  0  0  0  0  0  0  0  0  0  0
    1.8780   -1.8760   -0.3270 C   0  0  0  0  0  0  0  0  0  0  0  0
    3.0680   -3.0600    0.2530 Cl  0  0  0  0  0  0  0  0  0  0  0  0
    1.3690   -1.9880   -1.9820 Cl  0  0  0  0  0  0  0  0  0  0  0  0
  1  2  1  0
  2  3  1  0
  3  4  2  3
  3  7  1  0
  4  5  1  0
  5  6  1  0
  7  8  1  0
  7  9  2  3
  9 10  1  0
  9 11  1  0
M  END
