
     RDKit          3D

 11 11  0  0  0  0  0  0  0  0999 V2000
   -3.3160    1.3640   -0.3340 Cl  0  0  0  0  0  0  0  0  0  0  0  0
   -2.5050   -0.1480   -0.2100 O   0  0  0  0  0  0  0  0  0  0  0  0
   -1.1300   -0.1400   -0.0920 C   0  0  0  0  0  0  0  0  0  0  0  0
   -0.4340    1.0470   -0.0750 C   0  0  0  0  0  0  0  0  0  0  0  0
    0.9420    1.1040    0.0410 C   0  0  0  0  0  0  0  0  0  0  0  0
    1.7860    2.6570    0.0570 Cl  0  0  0  0  0  0  0  0  0  0  0  0
    1.6240   -0.0860    0.1430 C   0  0  0  0  0  0  0  0  0  0  0  0
    3.3600   -0.0720    0.2910 Cl  0  0  0  0  0  0  0  0  0  0  0  0
    0.9240   -1.2740    0.1260 C   0  0  0  0  0  0  0  0  0  0  0  0
   -0.4490   -1.3410    0.0100 C   0  0  0  0  0  0  0  0  0  0  0  0
   -1.2910   -2.8870   -0.0060 Cl  0  0  0  0  0  0  0  0  0  0  0  0
  1  2  1  0
  2  3  1  0
  3  4  2  0
  3 10  1  0
  4  5  1  0
  5  6  1  0
  5  7  2  0
  7  8  1  0
  7  9  1  0
  9 10  2  0
 10 11  1  0
M  END
