
     RDKit          3D

 12 13  0  0  0  0  0  0  0  0999 V2000
    2.4370   -2.5730   -0.3320 Cl  0  0  0  0  0  0  0  0  0  0  0  0
    2.4380   -0.8950    0.1820 C   0  0  0  0  0  0  0  0  0  0  0  0
    3.9780   -0.1940    0.5640 Cl  0  0  0  0  0  0  0  0  0  0  0  0
    1.3290   -0.1850    0.2800 C   0  0  0  0  0  0  0  0  0  0  0  0
    0.1780   -0.8450   -0.0450 O   0  0  0  0  0  0  0  0  0  0  0  0
   -0.9460   -0.5160   -0.7420 C   0  0  2  0  0  0  0  0  0  0  0  0
   -1.8800    0.5430   -0.3570 C   0  0  0  0  0  0  0  0  0  0  0  0
   -2.2900   -0.9540   -0.2730 C   0  0  0  0  0  0  0  0  0  0  0  0
    1.3140    1.2140    0.7070 C   0  0  2  0  0  0  0  0  0  0  0  0
    2.9380    1.9050    1.0000 Cl  0  0  0  0  0  0  0  0  0  0  0  0
    0.4570    1.3630    2.2820 Cl  0  0  0  0  0  0  0  0  0  0  0  0
    0.5590    2.2220   -0.5500 Cl  0  0  0  0  0  0  0  0  0  0  0  0
  1  2  1  0
  2  3  1  0
  2  4  2  0
  4  5  1  0
  4  9  1  0
  6  5  1  1
  6  7  1  0
  6  8  1  0
  7  8  1  0
  9 10  1  0
  9 11  1  1
  9 12  1  0
 10  3  1  0
M  END
