
     RDKit          3D

 16 16  0  0  0  0  0  0  0  0999 V2000
   -2.8370   -1.7450   -0.5270 C   0  0  0  0  0  0  0  0  0  0  0  0
   -3.5870   -0.9730    0.2320 C   0  0  0  0  0  0  0  0  0  0  0  0
   -3.1030    0.2850    0.7640 C   0  0  0  0  0  0  0  0  0  0  0  0
   -3.8390    1.0600    1.5230 C   0  0  0  0  0  0  0  0  0  0  0  0
   -5.2210    0.6710    1.8730 C   0  0  0  0  0  0  0  0  0  0  0  0
   -1.6980    0.7010    0.4210 C   0  0  0  0  0  0  0  0  0  0  0  0
   -1.5460    0.8280   -0.9470 O   0  0  0  0  0  0  0  0  0  0  0  0
   -0.2780    1.2430   -1.2560 C   0  0  0  0  0  0  0  0  0  0  0  0
    0.8110    0.3080   -0.8110 C   0  0  0  0  0  0  0  0  0  0  0  0
    2.0520    0.9120   -1.2330 O   0  0  0  0  0  0  0  0  0  0  0  0
    3.2130    0.2360   -0.9370 C   0  0  0  0  0  0  0  0  0  0  0  0
    3.1740   -0.9630   -0.2660 C   0  0  0  0  0  0  0  0  0  0  0  0
    4.3310   -1.6590    0.0420 C   0  0  0  0  0  0  0  0  0  0  0  0
    5.5550   -1.1440   -0.3310 C   0  0  0  0  0  0  0  0  0  0  0  0
    5.6130    0.0760   -1.0140 C   0  0  0  0  0  0  0  0  0  0  0  0
    4.4420    0.7540   -1.3110 C   0  0  0  0  0  0  0  0  0  0  0  0
  1  2  2  0
  2  3  1  0
  3  4  2  3
  3  6  1  0
  4  5  1  0
  6  7  1  0
  7  8  1  0
  8  9  1  0
  9 10  1  0
 10 11  1  0
 11 12  2  0
 11 16  1  0
 12 13  1  0
 13 14  2  0
 14 15  1  0
 15 16  2  0
M  END
