
     RDKit          3D

 16 16  0  0  0  0  0  0  0  0999 V2000
    5.1220    0.4270    1.7010 C   0  0  0  0  0  0  0  0  0  0  0  0
    5.0300   -1.0510    1.6620 C   0  0  0  0  0  0  0  0  0  0  0  0
    3.9290   -1.6340    1.2350 C   0  0  0  0  0  0  0  0  0  0  0  0
    2.8290   -0.9120    0.8120 O   0  0  0  0  0  0  0  0  0  0  0  0
    1.9810   -0.3600    1.8120 C   0  0  0  0  0  0  0  0  0  0  0  0
    0.8290    0.3960    1.1660 C   0  0  0  0  0  0  0  0  0  0  0  0
    0.0750   -0.4880    0.3570 O   0  0  0  0  0  0  0  0  0  0  0  0
   -1.0270    0.0030   -0.3270 C   0  0  0  0  0  0  0  0  0  0  0  0
   -1.4120    1.3350   -0.2410 C   0  0  0  0  0  0  0  0  0  0  0  0
   -2.5110    1.8270   -0.9210 C   0  0  0  0  0  0  0  0  0  0  0  0
   -2.9410    3.2480   -0.8440 C   0  0  0  0  0  0  0  0  0  0  0  0
   -3.2280    0.9380   -1.7040 C   0  0  0  0  0  0  0  0  0  0  0  0
   -2.8740   -0.3910   -1.8120 C   0  0  0  0  0  0  0  0  0  0  0  0
   -3.6600   -1.2990   -2.6530 C   0  0  0  0  0  0  0  0  0  0  0  0
   -1.7840   -0.8290   -1.1230 C   0  0  0  0  0  0  0  0  0  0  0  0
   -1.4000   -2.2560   -1.2370 C   0  0  0  0  0  0  0  0  0  0  0  0
  1  2  1  0
  2  3  2  3
  3  4  1  0
  4  5  1  0
  5  6  1  0
  6  7  1  0
  7  8  1  0
  8  9  2  0
  8 15  1  0
  9 10  1  0
 10 11  1  0
 10 12  2  0
 12 13  1  0
 13 14  1  0
 13 15  2  0
 15 16  1  0
M  END
