
     RDKit          3D

 18 19  0  0  0  0  0  0  0  0999 V2000
    4.5910    1.1100    0.8500 O   0  0  0  0  0  0  0  0  0  0  0  0
    4.3390    0.0100    0.2900 C   0  0  0  0  0  0  0  0  0  0  0  0
    5.4050   -0.8050   -0.0430 O   0  0  0  0  0  0  0  0  0  0  0  0
    2.9700   -0.3980   -0.0010 C   0  0  0  0  0  0  0  0  0  0  0  0
    2.7620   -1.4970   -0.5570 O   0  0  0  0  0  0  0  0  0  0  0  0
    1.8480    0.4060    0.3230 N   0  0  0  0  0  0  0  0  0  0  0  0
    0.5110   -0.0210    0.0250 C   0  0  0  0  0  0  0  0  0  0  0  0
    0.1860   -1.5630   -0.7580 S   0  0  0  0  0  0  0  0  0  0  0  0
   -1.5790   -1.4000   -0.7930 C   0  0  0  0  0  0  0  0  0  0  0  0
   -2.5690   -2.2490   -1.2770 C   0  0  0  0  0  0  0  0  0  0  0  0
   -3.8760   -1.8680   -1.1740 N   0  0  0  0  0  0  0  0  0  0  0  0
   -4.1160   -0.6780   -0.6020 C   0  0  0  0  0  0  0  0  0  0  0  0
   -3.1620    0.1630   -0.1240 C   0  0  0  0  0  0  0  0  0  0  0  0
   -1.7930   -0.1870   -0.2080 C   0  0  0  0  0  0  0  0  0  0  0  0
   -0.7010    0.5030    0.2050 C   0  0  0  0  0  0  0  0  0  0  0  0
   -0.8080    1.8500    0.8620 C   0  0  0  0  0  0  0  0  0  0  0  0
   -1.9160    2.4080    1.0660 O   0  0  0  0  0  0  0  0  0  0  0  0
    0.2870    2.5540    1.2800 O   0  0  0  0  0  0  0  0  0  0  0  0
  1  2  2  0
  2  3  1  0
  2  4  1  0
  4  5  2  0
  4  6  1  0
  6  7  1  0
  7  8  1  0
  7 15  2  0
  8  9  1  0
  9 10  2  0
  9 14  1  0
 10 11  1  0
 11 12  2  0
 12 13  1  0
 13 14  2  0
 14 15  1  0
 15 16  1  0
 16 17  2  0
 16 18  1  0
M  END
