
     RDKit          3D

 16 16  0  0  0  0  0  0  0  0999 V2000
   -4.0500    0.9510   -2.1460 C   0  0  0  0  0  0  0  0  0  0  0  0
   -3.7240    0.5000   -0.7700 C   0  0  0  0  0  0  0  0  0  0  0  0
   -4.7240    0.4650    0.1800 C   0  0  0  0  0  0  0  0  0  0  0  0
   -4.4020    0.0430    1.4540 C   0  0  0  0  0  0  0  0  0  0  0  0
   -3.1050   -0.3300    1.7460 C   0  0  0  0  0  0  0  0  0  0  0  0
   -2.7860   -0.7810    3.1300 C   0  0  0  0  0  0  0  0  0  0  0  0
   -2.0950   -0.3020    0.8110 C   0  0  0  0  0  0  0  0  0  0  0  0
   -0.8270   -0.6930    1.1930 O   0  0  0  0  0  0  0  0  0  0  0  0
    0.2790   -0.7000    0.3100 C   0  0  0  0  0  0  0  0  0  0  0  0
    1.4690   -1.1880    1.1070 C   0  0  0  0  0  0  0  0  0  0  0  0
    2.7110   -1.2390    0.2650 C   0  0  0  0  0  0  0  0  0  0  0  0
    3.0780    0.1190   -0.2930 C   0  0  0  0  0  0  0  0  0  0  0  0
    4.3530   -0.0440   -1.1320 C   0  0  0  0  0  0  0  0  0  0  0  0
    4.7130    1.3350   -1.6900 C   0  0  0  0  0  0  0  0  0  0  0  0
    4.9400    2.2490   -0.6720 O   0  0  0  0  0  0  0  0  0  0  0  0
   -2.4140    0.1210   -0.4660 C   0  0  0  0  0  0  0  0  0  0  0  0
  1  2  1  0
  2  3  2  0
  2 16  1  0
  3  4  1  0
  4  5  2  0
  5  6  1  0
  5  7  1  0
  7  8  1  0
  7 16  2  0
  8  9  1  0
  9 10  1  0
 10 11  1  0
 11 12  1  0
 12 13  1  0
 13 14  1  0
 14 15  1  0
M  END
