
     RDKit          3D

 16 16  0  0  0  0  0  0  0  0999 V2000
   -2.4140    2.9350   -2.2090 C   0  0  0  0  0  0  0  0  0  0  0  0
   -2.1590    2.0430   -1.0170 C   0  0  0  0  0  0  0  0  0  0  0  0
   -1.4590    0.7810   -1.4730 C   0  0  0  0  0  0  0  0  0  0  0  0
   -1.1840   -0.1380   -0.3450 C   0  0  0  0  0  0  0  0  0  0  0  0
   -2.1640   -0.9110    0.2190 C   0  0  0  0  0  0  0  0  0  0  0  0
   -3.5570   -0.8540   -0.3000 C   0  0  0  0  0  0  0  0  0  0  0  0
   -1.8770   -1.7610    1.2820 C   0  0  0  0  0  0  0  0  0  0  0  0
   -0.6070   -1.8340    1.7780 C   0  0  0  0  0  0  0  0  0  0  0  0
   -0.3490   -2.7580    2.9140 C   0  0  0  0  0  0  0  0  0  0  0  0
    0.3930   -1.0750    1.2360 C   0  0  0  0  0  0  0  0  0  0  0  0
    0.1160   -0.2340    0.1860 C   0  0  0  0  0  0  0  0  0  0  0  0
    1.0620    0.5460   -0.3960 O   0  0  0  0  0  0  0  0  0  0  0  0
    2.3910    0.7500   -0.2100 C   0  0  0  0  0  0  0  0  0  0  0  0
    3.3340   -0.3830   -0.4030 C   0  0  0  0  0  0  0  0  0  0  0  0
    4.7850    0.0410   -0.1500 C   0  0  0  0  0  0  0  0  0  0  0  0
    4.9710    0.5130    1.1390 O   0  0  0  0  0  0  0  0  0  0  0  0
  1  2  1  0
  2  3  1  0
  3  4  1  0
  4  5  2  0
  4 11  1  0
  5  6  1  0
  5  7  1  0
  7  8  2  0
  8  9  1  0
  8 10  1  0
 10 11  2  0
 11 12  1  0
 12 13  1  0
 13 14  1  0
 14 15  1  0
 15 16  1  0
M  END
