
     RDKit          3D

 11 12  0  0  0  0  0  0  0  0999 V2000
    3.6420   -0.2330   -0.0320 Cl  0  0  0  0  0  0  0  0  0  0  0  0
    2.2290   -1.1980   -0.0940 O   0  0  0  0  0  0  0  0  0  0  0  0
    0.9760   -0.6130   -0.0470 C   0  0  0  0  0  0  0  0  0  0  0  0
   -0.1970   -1.3300   -0.0930 C   0  0  0  0  0  0  0  0  0  0  0  0
   -1.4500   -0.7610   -0.0470 C   0  0  0  0  0  0  0  0  0  0  0  0
   -2.8850   -1.7490   -0.1100 Cl  0  0  0  0  0  0  0  0  0  0  0  0
   -1.5150    0.6160    0.0500 C   0  0  0  0  0  0  0  0  0  0  0  0
   -3.0920    1.3770    0.1100 Cl  0  0  0  0  0  0  0  0  0  0  0  0
   -0.3640    1.3610    0.0970 C   0  0  0  0  0  0  0  0  0  0  0  0
    0.8720    0.7560    0.0490 C   0  0  0  0  0  0  0  0  0  0  0  0
    2.3040    1.7470    0.1130 Cl  0  0  0  0  0  0  0  0  0  0  0  0
  1  2  1  0
  2  3  1  0
  3  4  2  0
  3 10  1  0
  4  5  1  0
  5  6  1  0
  5  7  2  0
  7  8  1  0
  7  9  1  0
  9 10  2  0
 10 11  1  0
 11  1  1  0
M  END
