
     RDKit          3D

 12 11  0  0  0  0  0  0  0  0999 V2000
   -2.0240    1.5210    0.6900 O   0  0  0  0  0  0  0  0  0  0  0  0
   -2.4220    0.1980    0.6040 C   0  0  0  0  0  0  0  0  0  0  0  0
   -1.4780   -0.6300   -0.2290 C   0  0  0  0  0  0  0  0  0  0  0  0
   -0.1020   -0.6470    0.3110 C   0  0  0  0  0  0  0  0  0  0  0  0
    0.1810   -1.2680    1.9110 Cl  0  0  0  0  0  0  0  0  0  0  0  0
    0.8770   -0.1930   -0.4330 C   0  0  0  0  0  0  0  0  0  0  0  0
    0.5690    0.4300   -2.0480 Cl  0  0  0  0  0  0  0  0  0  0  0  0
    2.2530   -0.1700    0.0120 C   0  0  0  0  0  0  0  0  0  0  0  0
    2.5830   -0.7870    1.6220 Cl  0  0  0  0  0  0  0  0  0  0  0  0
    3.2630    0.2780   -0.7040 C   0  0  0  0  0  0  0  0  0  0  0  0
    4.8880    0.2370   -0.0160 Cl  0  0  0  0  0  0  0  0  0  0  0  0
    2.9810    0.8950   -2.2960 Cl  0  0  0  0  0  0  0  0  0  0  0  0
  1  2  1  0
  2  3  1  0
  3  4  1  0
  4  5  1  0
  4  6  2  3
  6  7  1  0
  6  8  1  0
  8  9  1  0
  8 10  2  3
 10 11  1  0
 10 12  1  0
M  END
