
     RDKit          3D

 12 11  0  0  0  0  0  0  0  0999 V2000
   -0.4470    2.3520   -1.5410 Cl  0  0  0  0  0  0  0  0  0  0  0  0
    0.9370    1.7430   -0.6800 C   0  0  0  0  0  0  0  0  0  0  0  0
    0.8710    0.5730   -0.0060 C   0  0  0  0  0  0  0  0  0  0  0  0
   -0.2310   -0.0910   -0.0070 O   0  0  0  0  0  0  0  0  0  0  0  0
   -1.3470   -0.7630   -0.0070 C   0  0  0  0  0  0  0  0  0  0  0  0
   -2.4660   -0.1480   -0.8640 C   0  0  0  0  0  0  0  0  0  0  0  0
   -3.9150   -1.1990   -0.7460 Cl  0  0  0  0  0  0  0  0  0  0  0  0
    2.1310    0.1890    0.6760 C   0  0  0  0  0  0  0  0  0  0  0  0
    3.5200    1.2690    0.5310 Cl  0  0  0  0  0  0  0  0  0  0  0  0
    2.2810   -0.9010    1.3810 C   0  0  0  0  0  0  0  0  0  0  0  0
    3.7890   -1.3080    2.1660 Cl  0  0  0  0  0  0  0  0  0  0  0  0
    0.9400   -1.9970    1.5530 Cl  0  0  0  0  0  0  0  0  0  0  0  0
  1  2  1  0
  2  3  2  3
  3  4  1  0
  3  8  1  0
  4  5  1  0
  5  6  1  0
  6  7  1  0
  8  9  1  0
  8 10  2  3
 10 11  1  0
 10 12  1  0
M  END
