
     RDKit          3D

 12 11  0  0  0  0  0  0  0  0999 V2000
    2.0890   -1.4820   -0.2550 C   0  0  0  0  0  0  0  0  0  0  0  0
    1.9080   -0.1010    0.2710 C   0  0  0  0  0  0  0  0  0  0  0  0
    3.3540    0.7520    0.7300 Cl  0  0  0  0  0  0  0  0  0  0  0  0
    0.7570    0.4820    0.4020 C   0  0  0  0  0  0  0  0  0  0  0  0
   -0.3670   -0.2630    0.0140 O   0  0  0  0  0  0  0  0  0  0  0  0
   -1.5530    0.2750   -0.4470 C   0  0  0  0  0  0  0  0  0  0  0  0
   -2.4800   -0.9130   -0.7450 C   0  0  0  0  0  0  0  0  0  0  0  0
   -2.7120   -1.8140    0.7570 Cl  0  0  0  0  0  0  0  0  0  0  0  0
    0.4840    1.8270    0.9070 C   0  0  2  0  0  0  0  0  0  0  0  0
    1.9640    2.6500    1.3570 Cl  0  0  0  0  0  0  0  0  0  0  0  0
   -0.6130    1.6310    2.3080 Cl  0  0  0  0  0  0  0  0  0  0  0  0
   -0.3740    2.8340   -0.2870 Cl  0  0  0  0  0  0  0  0  0  0  0  0
  1  2  1  0
  2  3  1  0
  2  4  2  3
  4  5  1  0
  4  9  1  0
  5  6  1  0
  6  7  1  0
  7  8  1  0
  9 10  1  1
  9 11  1  0
  9 12  1  0
M  END
