
     RDKit          3D

 12 12  0  0  0  0  0  0  0  0999 V2000
    0.9910    2.0740   -1.8320 Cl  0  0  0  0  0  0  0  0  0  0  0  0
    1.9190    1.0690   -0.7040 C   0  0  0  0  0  0  0  0  0  0  0  0
    3.5500    1.5900   -0.3460 Cl  0  0  0  0  0  0  0  0  0  0  0  0
    1.3420    0.0070   -0.2070 C   0  0  0  0  0  0  0  0  0  0  0  0
    0.0460   -0.3010   -0.5650 O   0  0  0  0  0  0  0  0  0  0  0  0
   -1.0900    0.4130   -0.2020 C   0  0  1  0  0  0  0  0  0  0  0  0
   -2.3880   -0.1890   -0.7620 C   0  0  0  0  0  0  0  0  0  0  0  0
   -2.1260   -0.1200    0.6970 C   0  0  0  0  0  0  0  0  0  0  0  0
    2.0260   -0.8940    0.7380 C   0  0  1  0  0  0  0  0  0  0  0  0
    1.1640   -0.9720    2.3060 Cl  0  0  0  0  0  0  0  0  0  0  0  0
    1.9850   -2.5610    0.0570 Cl  0  0  0  0  0  0  0  0  0  0  0  0
    3.7080   -0.4810    1.0160 Cl  0  0  0  0  0  0  0  0  0  0  0  0
  1  2  1  0
  2  3  1  0
  2  4  2  3
  4  5  1  0
  4  9  1  0
  6  5  1  6
  6  7  1  0
  6  8  1  0
  7  8  1  0
  9 10  1  1
  9 11  1  0
  9 12  1  0
M  END
