
     RDKit          3D

 33 37  0  0  0  0  0  0  0  0999 V2000
   -6.3610    3.6160   -0.2770 C   0  0  0  0  0  0  0  0  0  0  0  0
   -6.1060    2.2820    0.2860 C   0  0  0  0  0  0  0  0  0  0  0  0
   -7.0000    1.6930    1.1450 C   0  0  0  0  0  0  0  0  0  0  0  0
   -6.7750    0.4360    1.6840 C   0  0  0  0  0  0  0  0  0  0  0  0
   -5.6310   -0.2560    1.3600 C   0  0  0  0  0  0  0  0  0  0  0  0
   -5.3650   -1.5050    1.8710 C   0  0  0  0  0  0  0  0  0  0  0  0
   -4.2000   -2.1440    1.5060 C   0  0  0  0  0  0  0  0  0  0  0  0
   -3.2840   -1.5750    0.6440 C   0  0  0  0  0  0  0  0  0  0  0  0
   -3.5760   -0.3220    0.1470 C   0  0  0  0  0  0  0  0  0  0  0  0
   -2.6090    0.3140   -0.7810 C   0  0  0  0  0  0  0  0  0  0  0  0
   -1.4580   -0.5440   -1.0230 N   0  0  0  0  0  0  0  0  0  0  0  0
   -1.5000   -1.4630   -2.1200 C   0  0  0  0  0  0  0  0  0  0  0  0
   -0.7630   -2.7420   -1.9230 C   0  0  0  0  0  0  0  0  0  0  0  0
    0.4700   -2.6020   -1.1180 C   0  0  0  0  0  0  0  0  0  0  0  0
    1.3480   -3.4950   -1.2320 O   0  0  0  0  0  0  0  0  0  0  0  0
    0.6880   -1.5100   -0.2380 N   0  0  0  0  0  0  0  0  0  0  0  0
    1.8500   -1.4100    0.6050 C   0  0  0  0  0  0  0  0  0  0  0  0
    2.9410   -0.7050   -0.0750 C   0  0  0  0  0  0  0  0  0  0  0  0
    2.7500   -0.2910   -1.2530 O   0  0  0  0  0  0  0  0  0  0  0  0
    4.2110   -0.4570    0.5110 N   0  0  0  0  0  0  0  0  0  0  0  0
    5.2180    0.2340   -0.2140 C   0  0  0  0  0  0  0  0  0  0  0  0
    5.1530    0.7250   -1.4590 N   0  0  0  0  0  0  0  0  0  0  0  0
    6.2700    1.3040   -1.8140 N   0  0  0  0  0  0  0  0  0  0  0  0
    7.1540    1.2170   -0.7770 C   0  0  0  0  0  0  0  0  0  0  0  0
    6.4920    0.5480    0.2200 C   0  0  0  0  0  0  0  0  0  0  0  0
    7.3560    0.3910    1.3980 C   0  0  0  0  0  0  0  0  0  0  0  0
    6.9860    0.1630    2.5550 O   0  0  0  0  0  0  0  0  0  0  0  0
    8.7360    0.5770    0.8230 C   0  0  0  0  0  0  0  0  0  0  0  0
    8.5170    1.5530   -0.3050 C   0  0  0  0  0  0  0  0  0  0  0  0
   -0.2960   -0.4870   -0.2080 C   0  0  0  0  0  0  0  0  0  0  0  0
   -0.1860    0.5270    0.5480 O   0  0  0  0  0  0  0  0  0  0  0  0
   -4.7410    0.3540    0.4920 C   0  0  0  0  0  0  0  0  0  0  0  0
   -4.9500    1.5880   -0.0440 C   0  0  0  0  0  0  0  0  0  0  0  0
  1  2  1  0
  2  3  2  0
  2 33  1  0
  3  4  1  0
  4  5  2  0
  5  6  1  0
  5 32  1  0
  6  7  2  0
  7  8  1  0
  8  9  2  0
  9 10  1  0
  9 32  1  0
 10 11  1  0
 11 12  1  0
 11 30  1  0
 12 13  1  0
 13 14  1  0
 14 15  2  0
 14 16  1  0
 16 17  1  0
 16 30  1  0
 17 18  1  0
 18 19  2  0
 18 20  1  0
 20 21  1  0
 21 22  2  0
 21 25  1  0
 22 23  1  0
 23 24  1  0
 24 25  2  0
 24 29  1  0
 25 26  1  0
 26 27  2  0
 26 28  1  0
 28 29  1  0
 30 31  2  0
 32 33  2  0
M  END
