
     RDKit          3D

 31 35  0  0  0  0  0  0  0  0999 V2000
   -1.9390   -3.1820   -0.4580 C   0  0  0  0  0  0  0  0  0  0  0  0
   -3.0350   -2.1970   -0.5080 C   0  0  2  0  0  0  0  0  0  0  0  0
   -3.8790   -2.4180   -1.7650 C   0  0  0  0  0  0  0  0  0  0  0  0
   -3.5170   -3.2240   -2.6560 O   0  0  0  0  0  0  0  0  0  0  0  0
   -5.0360   -1.6630   -1.8110 O   0  0  0  0  0  0  0  0  0  0  0  0
   -5.1050   -0.4380   -1.1690 C   0  0  0  0  0  0  0  0  0  0  0  0
   -6.2480    0.3420   -1.1930 C   0  0  0  0  0  0  0  0  0  0  0  0
   -6.3180    1.5630   -0.5520 C   0  0  0  0  0  0  0  0  0  0  0  0
   -5.2100    2.0090    0.1290 C   0  0  0  0  0  0  0  0  0  0  0  0
   -4.0440    1.2300    0.1620 C   0  0  0  0  0  0  0  0  0  0  0  0
   -3.9900    0.0140   -0.4830 C   0  0  0  0  0  0  0  0  0  0  0  0
   -2.7780   -0.8090   -0.4570 N   0  0  0  0  0  0  0  0  0  0  0  0
   -1.5820   -0.0800   -0.4330 C   0  0  0  0  0  0  0  0  0  0  0  0
   -1.5500    1.2040   -0.6200 O   0  0  0  0  0  0  0  0  0  0  0  0
   -0.2660   -0.6030   -0.2050 N   0  0  0  0  0  0  0  0  0  0  0  0
    0.8480    0.3280   -0.2160 C   0  0  0  0  0  0  0  0  0  0  0  0
    2.1200   -0.3000    0.1730 C   0  0  0  0  0  0  0  0  0  0  0  0
    2.1390   -1.4510    0.9160 C   0  0  0  0  0  0  0  0  0  0  0  0
    3.3670   -2.0140    1.2700 C   0  0  0  0  0  0  0  0  0  0  0  0
    4.5000   -1.4180    0.8780 N   0  0  0  0  0  0  0  0  0  0  0  0
    4.5110   -0.3010    0.1580 C   0  0  0  0  0  0  0  0  0  0  0  0
    5.7280    0.2950   -0.2350 O   0  0  0  0  0  0  0  0  0  0  0  0
    6.9350   -0.2950    0.1350 C   0  0  2  0  0  0  0  0  0  0  0  0
    7.8110    0.6510    0.9560 C   0  0  0  0  0  0  0  0  0  0  0  0
    9.1740    0.0850    0.7010 C   0  0  0  0  0  0  0  0  0  0  0  0
    9.1830   -0.5820   -0.4450 C   0  0  0  0  0  0  0  0  0  0  0  0
    7.8380   -0.5370   -1.0790 C   0  0  0  0  0  0  0  0  0  0  0  0
    3.3380    0.2910   -0.2170 C   0  0  0  0  0  0  0  0  0  0  0  0
   -5.4850    3.3290    0.7430 C   0  0  0  0  0  0  0  0  0  0  0  0
   -7.0040    3.2840    0.8740 C   0  0  0  0  0  0  0  0  0  0  0  0
   -7.4000    2.5910   -0.4140 C   0  0  0  0  0  0  0  0  0  0  0  0
  2  1  1  6
  2  3  1  0
  2 12  1  0
  3  4  2  0
  3  5  1  0
  5  6  1  0
  6  7  2  0
  6 11  1  0
  7  8  1  0
  8  9  2  0
  8 31  1  0
  9 10  1  0
  9 29  1  0
 10 11  2  0
 11 12  1  0
 12 13  1  0
 13 14  2  0
 13 15  1  0
 15 16  1  0
 16 17  1  0
 17 18  2  0
 17 28  1  0
 18 19  1  0
 19 20  2  0
 20 21  1  0
 21 22  1  0
 21 28  2  0
 23 22  1  6
 23 24  1  0
 23 27  1  0
 24 25  1  0
 25 26  2  0
 26 27  1  0
 29 30  1  0
 30 31  1  0
M  END
