
     RDKit          3D

 33 37  0  0  0  0  0  0  0  0999 V2000
   -4.2850   -4.1030   -0.7100 C   0  0  0  0  0  0  0  0  0  0  0  0
   -3.3890   -2.9290   -0.5330 C   0  0  0  0  0  0  0  0  0  0  0  0
   -2.0470   -3.1250   -0.4980 C   0  0  0  0  0  0  0  0  0  0  0  0
   -1.2710   -2.0740   -0.3410 N   0  0  0  0  0  0  0  0  0  0  0  0
   -1.7000   -0.7800   -0.2090 C   0  0  0  0  0  0  0  0  0  0  0  0
   -0.7370    0.2490   -0.1020 N   0  0  0  0  0  0  0  0  0  0  0  0
    0.6450   -0.1240   -0.0470 C   0  0  0  0  0  0  0  0  0  0  0  0
    0.9300   -1.3340   -0.0740 O   0  0  0  0  0  0  0  0  0  0  0  0
    1.6630    0.8420    0.0350 N   0  0  0  0  0  0  0  0  0  0  0  0
    3.0490    0.6280    0.1010 C   0  0  0  0  0  0  0  0  0  0  0  0
    3.8790    1.7430   -0.1330 C   0  0  0  0  0  0  0  0  0  0  0  0
    5.2630    1.5660   -0.0600 C   0  0  0  0  0  0  0  0  0  0  0  0
    5.6720    0.3190    0.2330 C   0  0  0  0  0  0  0  0  0  0  0  0
    7.0140    0.1290    0.3070 C   0  0  0  0  0  0  0  0  0  0  0  0
    7.1210   -1.2240    0.6170 C   0  0  0  0  0  0  0  0  0  0  0  0
    5.8510   -1.7650    0.7110 N   0  0  0  0  0  0  0  0  0  0  0  0
    5.5140   -3.1110    1.0090 C   0  0  0  0  0  0  0  0  0  0  0  0
    4.9420   -0.7840    0.4670 C   0  0  0  0  0  0  0  0  0  0  0  0
    3.5550   -0.6360    0.4000 C   0  0  0  0  0  0  0  0  0  0  0  0
    7.5550    1.4690    0.0150 C   0  0  0  0  0  0  0  0  0  0  0  0
    8.7610    1.7080   -0.0120 O   0  0  0  0  0  0  0  0  0  0  0  0
    6.4420    2.3690   -0.2150 N   0  0  0  0  0  0  0  0  0  0  0  0
    6.4620    3.7360   -0.5270 C   0  0  0  0  0  0  0  0  0  0  0  0
   -3.0760   -0.5740   -0.2430 C   0  0  0  0  0  0  0  0  0  0  0  0
   -3.6510    0.7290    0.0030 C   0  0  0  0  0  0  0  0  0  0  0  0
   -2.8030    1.6140    0.4390 O   0  0  0  0  0  0  0  0  0  0  0  0
   -4.9540    1.1920   -0.1510 N   0  0  0  0  0  0  0  0  0  0  0  0
   -5.1910    2.6080    0.2990 C   0  0  0  0  0  0  0  0  0  0  0  0
   -6.5950    2.5030    0.9190 C   0  0  0  0  0  0  0  0  0  0  0  0
   -6.8310    1.2440    1.4690 O   0  0  0  0  0  0  0  0  0  0  0  0
   -7.0110    0.2490    0.4950 C   0  0  0  0  0  0  0  0  0  0  0  0
   -6.1360    0.6120   -0.6990 C   0  0  0  0  0  0  0  0  0  0  0  0
   -3.9270   -1.6670   -0.4070 C   0  0  0  0  0  0  0  0  0  0  0  0
  1  2  1  0
  2  3  2  0
  2 33  1  0
  3  4  1  0
  4  5  2  0
  5  6  1  0
  5 24  1  0
  6  7  1  0
  7  8  2  0
  7  9  1  0
  9 10  1  0
 10 11  2  0
 10 19  1  0
 11 12  1  0
 12 13  2  0
 12 22  1  0
 13 14  1  0
 13 18  1  0
 14 15  2  0
 14 20  1  0
 15 16  1  0
 16 17  1  0
 16 18  1  0
 18 19  2  0
 20 21  2  0
 20 22  1  0
 22 23  1  0
 24 25  1  0
 24 33  2  0
 25 26  2  0
 25 27  1  0
 27 28  1  0
 27 32  1  0
 28 29  1  0
 29 30  1  0
 30 31  1  0
 31 32  1  0
M  END
