
     RDKit          3D

 33 37  0  0  0  0  0  0  0  0999 V2000
    4.6520    3.4010    1.5520 C   0  0  0  0  0  0  0  0  0  0  0  0
    4.5880    2.0840    0.9890 O   0  0  0  0  0  0  0  0  0  0  0  0
    4.6940    1.8890   -0.3800 C   0  0  0  0  0  0  0  0  0  0  0  0
    4.8490    2.8440   -1.1780 O   0  0  0  0  0  0  0  0  0  0  0  0
    4.6260    0.5260   -0.9550 C   0  0  0  0  0  0  0  0  0  0  0  0
    4.4510   -0.4880    0.0640 N   0  0  0  0  0  0  0  0  0  0  0  0
    5.4220   -1.1470    0.7190 C   0  0  0  0  0  0  0  0  0  0  0  0
    6.6590   -0.9600    0.5260 O   0  0  0  0  0  0  0  0  0  0  0  0
    4.8440   -2.0060    1.5810 N   0  0  0  0  0  0  0  0  0  0  0  0
    3.5000   -1.8980    1.4800 C   0  0  0  0  0  0  0  0  0  0  0  0
    2.4320   -2.5180    2.1060 C   0  0  0  0  0  0  0  0  0  0  0  0
    1.1390   -2.1760    1.7710 C   0  0  0  0  0  0  0  0  0  0  0  0
    0.8780   -1.2200    0.8150 C   0  0  0  0  0  0  0  0  0  0  0  0
   -0.4040   -0.8370    0.4270 N   0  0  0  0  0  0  0  0  0  0  0  0
   -1.3970   -1.5300    0.0570 C   0  0  0  0  0  0  0  0  0  0  0  0
   -1.1490   -2.9500    0.0330 N   0  0  0  0  0  0  0  0  0  0  0  0
   -2.1450   -3.9710   -0.0290 C   0  0  0  0  0  0  0  0  0  0  0  0
   -1.8110   -5.1080    0.2880 O   0  0  0  0  0  0  0  0  0  0  0  0
   -3.5530   -3.7490   -0.4510 C   0  0  0  0  0  0  0  0  0  0  0  0
   -4.0930   -2.7030    0.4550 C   0  0  0  0  0  0  0  0  0  0  0  0
   -3.9260   -1.2830    0.0690 C   0  0  0  0  0  0  0  0  0  0  0  0
   -2.6230   -0.8190   -0.2850 N   0  0  0  0  0  0  0  0  0  0  0  0
   -2.4030    0.3570   -1.0080 C   0  0  2  0  0  0  0  0  0  0  0  0
   -0.9700    0.6840   -1.3510 C   0  0  0  0  0  0  0  0  0  0  0  0
   -1.3190    1.7740   -2.4130 C   0  0  0  0  0  0  0  0  0  0  0  0
   -2.2850    2.5460   -1.5210 C   0  0  0  0  0  0  0  0  0  0  0  0
   -2.5510    3.8940   -1.4780 C   0  0  0  0  0  0  0  0  0  0  0  0
   -3.4540    4.3810   -0.5600 C   0  0  0  0  0  0  0  0  0  0  0  0
   -4.0970    3.5360    0.3190 C   0  0  0  0  0  0  0  0  0  0  0  0
   -3.8210    2.1900    0.2640 C   0  0  0  0  0  0  0  0  0  0  0  0
   -2.9140    1.6520   -0.6510 C   0  0  0  0  0  0  0  0  0  0  0  0
    1.9680   -0.6070    0.1950 C   0  0  0  0  0  0  0  0  0  0  0  0
    3.2570   -0.9520    0.5340 C   0  0  0  0  0  0  0  0  0  0  0  0
  1  2  1  0
  2  3  1  0
  3  4  2  0
  3  5  1  0
  5  6  1  0
  6  7  1  0
  6 33  1  0
  7  8  2  0
  7  9  1  0
  9 10  1  0
 10 11  2  0
 10 33  1  0
 11 12  1  0
 12 13  2  0
 13 14  1  0
 13 32  1  0
 14 15  2  3
 15 16  1  0
 15 22  1  0
 16 17  1  0
 17 18  2  0
 17 19  1  0
 19 20  1  0
 20 21  1  0
 21 22  1  0
 23 22  1  1
 23 24  1  0
 23 31  1  0
 24 25  1  0
 25 26  1  0
 26 27  2  0
 26 31  1  0
 27 28  1  0
 28 29  2  0
 29 30  1  0
 30 31  2  0
 32 33  2  0
M  END
