
     RDKit          3D

  7  7  0  0  0  0  0  0  0  0999 V2000
    2.7460    0.0170    0.1700 C   0  0  0  0  0  0  0  0  0  0  0  0
    1.5610   -0.3650   -0.4350 O   0  0  0  0  0  0  0  0  0  0  0  0
    0.4420    0.1800    0.1660 C   0  0  2  0  0  0  0  0  0  0  0  0
   -0.4220   -0.9970    0.6260 C   0  0  0  0  0  0  0  0  0  0  0  0
   -1.8430   -0.6070    0.3820 C   0  0  0  0  0  0  0  0  0  0  0  0
   -1.8390    0.5470   -0.5730 C   0  0  0  0  0  0  0  0  0  0  0  0
   -0.3870    0.8570   -0.8800 C   0  0  0  0  0  0  0  0  0  0  0  0
  1  2  1  0
  3  2  1  6
  3  4  1  0
  3  7  1  0
  4  5  1  0
  5  6  1  0
  6  7  1  0
M  END
