
     RDKit          3D

  7  6  0  0  0  0  0  0  0  0999 V2000
   -0.5990   -2.0390    0.0940 C   0  0  0  0  0  0  0  0  0  0  0  0
   -0.8670   -0.7950   -0.2700 C   0  0  0  0  0  0  0  0  0  0  0  0
   -2.0000   -0.0430    0.3580 C   0  0  0  0  0  0  0  0  0  0  0  0
   -0.0130   -0.1690   -1.3160 C   0  0  0  0  0  0  0  0  0  0  0  0
    0.6200    1.0580   -0.6670 C   0  0  0  0  0  0  0  0  0  0  0  0
    1.4470    0.6270    0.5280 C   0  0  0  0  0  0  0  0  0  0  0  0
    2.0280    1.7330    1.1270 O   0  0  0  0  0  0  0  0  0  0  0  0
  1  2  2  0
  2  3  1  0
  2  4  1  0
  4  5  1  0
  5  6  1  0
  6  7  1  0
M  END
