
     RDKit          3D

  7  7  0  0  0  0  0  0  0  0999 V2000
    1.1490   -1.3570    1.3690 O   0  0  0  0  0  0  0  0  0  0  0  0
    0.9610   -0.8980    0.0540 C   0  0  2  0  0  0  0  0  0  0  0  0
    1.3150    0.5530   -0.0990 C   0  0  0  0  0  0  0  0  0  0  0  0
    0.1670    1.2890   -0.8040 C   0  0  0  0  0  0  0  0  0  0  0  0
   -0.9820    1.2590    0.2100 C   0  0  0  0  0  0  0  0  0  0  0  0
   -1.4310   -0.1700    0.3090 C   0  0  0  0  0  0  0  0  0  0  0  0
   -0.4770   -1.1490   -0.3010 C   0  0  0  0  0  0  0  0  0  0  0  0
  2  1  1  1
  2  3  1  0
  2  7  1  0
  3  4  1  0
  4  5  1  0
  5  6  1  0
  6  7  1  0
M  END
