
     RDKit          3D

  7  7  0  0  0  0  0  0  0  0999 V2000
   -2.4020   -0.3790    0.0360 C   0  0  0  0  0  0  0  0  0  0  0  0
   -1.4910    0.7930   -0.2700 C   0  0  0  0  0  0  0  0  0  0  0  0
   -0.1280    0.4530    0.2420 C   0  0  1  0  0  0  0  0  0  0  0  0
    0.4460   -0.7920   -0.4010 C   0  0  0  0  0  0  0  0  0  0  0  0
    1.8490   -0.6930    0.1890 C   0  0  0  0  0  0  0  0  0  0  0  0
    2.0550    0.8020    0.1410 C   0  0  0  0  0  0  0  0  0  0  0  0
    0.8360    1.3920   -0.0860 O   0  0  0  0  0  0  0  0  0  0  0  0
  1  2  1  0
  3  2  1  6
  3  4  1  0
  3  7  1  0
  4  5  1  0
  5  6  1  0
  6  7  1  0
M  END
