
     RDKit          3D

  7  7  0  0  0  0  0  0  0  0999 V2000
    0.4020    1.8270    0.2180 C   0  0  0  0  0  0  0  0  0  0  0  0
    0.1430    0.3490    0.0970 C   0  0  1  0  0  0  0  0  0  0  0  0
    1.3620   -0.4810    0.3980 C   0  0  0  0  0  0  0  0  0  0  0  0
    1.1480   -1.8400    0.2940 O   0  0  0  0  0  0  0  0  0  0  0  0
   -1.0660   -0.1590    0.8420 C   0  0  0  0  0  0  0  0  0  0  0  0
   -1.4310   -0.9370   -0.3870 C   0  0  0  0  0  0  0  0  0  0  0  0
   -0.5640    0.0060   -1.1910 C   0  0  0  0  0  0  0  0  0  0  0  0
  2  1  1  6
  2  3  1  0
  2  5  1  0
  2  7  1  0
  3  4  1  0
  5  6  1  0
  6  7  1  0
M  END
