
     RDKit          3D

  7  7  0  0  0  0  0  0  0  0999 V2000
   -1.0880   -0.6520   -1.3650 O   0  0  0  0  0  0  0  0  0  0  0  0
   -1.8370   -0.8360   -0.2200 C   0  0  0  0  0  0  0  0  0  0  0  0
   -0.9440   -0.7940    1.0110 C   0  0  0  0  0  0  0  0  0  0  0  0
   -0.2250    0.5260    1.1470 C   0  0  0  0  0  0  0  0  0  0  0  0
    0.6390    0.7710   -0.0510 C   0  0  2  0  0  0  0  0  0  0  0  0
    1.7330   -0.2300   -0.3580 C   0  0  0  0  0  0  0  0  0  0  0  0
    2.0690    1.1290    0.0880 C   0  0  0  0  0  0  0  0  0  0  0  0
  1  2  1  0
  2  3  1  0
  3  4  1  0
  5  4  1  1
  5  6  1  0
  5  7  1  0
  6  7  1  0
M  END
