
     RDKit          3D

  7  7  0  0  0  0  0  0  0  0999 V2000
    2.4030    0.6960   -0.3410 O   0  0  0  0  0  0  0  0  0  0  0  0
    1.0550    0.3310   -0.1860 C   0  0  0  0  0  0  0  0  0  0  0  0
    0.0690    1.2600    0.0540 C   0  0  0  0  0  0  0  0  0  0  0  0
   -1.2440    0.8610    0.2000 C   0  0  0  0  0  0  0  0  0  0  0  0
   -1.6260   -0.4620    0.1140 C   0  0  0  0  0  0  0  0  0  0  0  0
   -0.6270   -1.3830   -0.1280 C   0  0  0  0  0  0  0  0  0  0  0  0
    0.6870   -0.9930   -0.2750 C   0  0  0  0  0  0  0  0  0  0  0  0
  1  2  1  0
  2  3  2  0
  2  7  1  0
  3  4  1  0
  4  5  2  0
  5  6  1  0
  6  7  2  0
M  END
