
     RDKit          3D

  6  5  0  0  0  0  0  0  0  0999 V2000
    2.3290   -0.4430    0.7740 C   0  0  0  0  0  0  0  0  0  0  0  0
    1.1400    0.0930    0.6470 C   0  0  0  0  0  0  0  0  0  0  0  0
    0.5350    0.2460   -0.6850 C   0  0  0  0  0  0  0  0  0  0  0  0
   -0.7780   -0.5090   -0.7960 C   0  0  0  0  0  0  0  0  0  0  0  0
   -1.7810   -0.0200    0.2070 C   0  0  0  0  0  0  0  0  0  0  0  0
   -2.0790    1.3290    0.0480 O   0  0  0  0  0  0  0  0  0  0  0  0
  1  2  2  0
  2  3  1  0
  3  4  1  0
  4  5  1  0
  5  6  1  0
M  END
