
     RDKit          3D

 26 28  0  0  0  0  0  0  0  0999 V2000
    3.2910   -2.4210   -1.0630 C   0  0  0  0  0  0  0  0  0  0  0  0
    2.6330   -1.3430   -1.2280 C   0  0  0  0  0  0  0  0  0  0  0  0
    2.7060   -0.5890   -2.4360 O   0  0  0  0  0  0  0  0  0  0  0  0
    2.9400    0.7970   -2.3360 C   0  0  0  0  0  0  0  0  0  0  0  0
    1.9590    1.4910   -1.4370 C   0  0  0  0  0  0  0  0  0  0  0  0
    1.1210    0.4880   -0.7380 N   0  0  0  0  0  0  0  0  0  0  0  0
   -0.2510    0.7470   -0.5570 C   0  0  1  0  0  0  0  0  0  0  0  0
   -1.1200   -0.3450   -0.0980 C   0  0  0  0  0  0  0  0  0  0  0  0
   -0.9680   -1.5860   -0.5220 C   0  0  0  0  0  0  0  0  0  0  0  0
   -1.7710   -2.6770   -0.1120 N   0  0  0  0  0  0  0  0  0  0  0  0
   -1.4360   -4.0540   -0.5080 C   0  0  0  0  0  0  0  0  0  0  0  0
   -2.9320   -2.4690    0.7000 C   0  0  0  0  0  0  0  0  0  0  0  0
   -3.0710   -1.0780    1.1520 C   0  0  0  0  0  0  0  0  0  0  0  0
   -2.2520   -0.1150    0.7920 C   0  0  0  0  0  0  0  0  0  0  0  0
   -0.5190    2.0210    0.1060 N   0  0  0  0  0  0  0  0  0  0  0  0
   -0.1200    2.2570    1.4750 C   0  0  0  0  0  0  0  0  0  0  0  0
   -0.4080    3.6190    1.9960 C   0  0  0  0  0  0  0  0  0  0  0  0
   -1.5950    4.2510    1.3800 C   0  0  0  0  0  0  0  0  0  0  0  0
   -2.4290    4.8620    2.0790 O   0  0  0  0  0  0  0  0  0  0  0  0
   -1.7100    4.1140   -0.0240 N   0  0  0  0  0  0  0  0  0  0  0  0
   -1.1990    3.0700   -0.5710 C   0  0  0  0  0  0  0  0  0  0  0  0
   -1.3380    2.9520   -2.0030 N   0  0  0  0  0  0  0  0  0  0  0  0
    1.7430   -0.7540   -0.2450 C   0  0  0  0  0  0  0  0  0  0  0  0
    1.4430   -1.1120    0.9190 C   0  0  0  0  0  0  0  0  0  0  0  0
    1.7400   -2.1590    1.8640 C   0  0  0  0  0  0  0  0  0  0  0  0
    2.5650   -3.1740    1.6580 F   0  0  0  0  0  0  0  0  0  0  0  0
  1  2  2  0
  2  3  1  0
  2 23  1  0
  3  4  1  0
  4  5  1  0
  5  6  1  0
  7  6  1  1
  6 23  1  0
  7  8  1  0
  7 15  1  0
  8  9  2  0
  8 14  1  0
  9 10  1  0
 10 11  1  0
 10 12  1  0
 12 13  1  0
 13 14  2  0
 15 16  1  0
 15 21  1  0
 16 17  1  0
 17 18  1  0
 18 19  2  0
 18 20  1  0
 20 21  2  0
 21 22  1  0
 23 24  2  3
 24 25  1  0
 25 26  1  0
M  END
