
     RDKit          3D

 26 28  0  0  0  0  0  0  0  0999 V2000
    0.8810    3.2120    1.3750 C   0  0  0  0  0  0  0  0  0  0  0  0
    0.6980    1.9050    1.9420 O   0  0  0  0  0  0  0  0  0  0  0  0
   -0.0470    0.9670    1.1970 C   0  0  0  0  0  0  0  0  0  0  0  0
    0.5170   -0.1130    0.6960 C   0  0  0  0  0  0  0  0  0  0  0  0
    1.9810   -0.2860    0.9600 C   0  0  0  0  0  0  0  0  0  0  0  0
    2.6290    0.5580    1.6260 O   0  0  0  0  0  0  0  0  0  0  0  0
    2.6740   -1.4200    0.4590 N   0  0  0  0  0  0  0  0  0  0  0  0
    4.0690   -1.6130    0.6940 C   0  0  0  0  0  0  0  0  0  0  0  0
    4.9650   -0.7750   -0.1230 C   0  0  0  0  0  0  0  0  0  0  0  0
    5.4270   -1.1520   -1.3640 C   0  0  0  0  0  0  0  0  0  0  0  0
    6.2700   -0.3040   -2.0680 C   0  0  0  0  0  0  0  0  0  0  0  0
    6.6580    0.9180   -1.5470 C   0  0  0  0  0  0  0  0  0  0  0  0
    6.1740    1.2550   -0.3050 C   0  0  0  0  0  0  0  0  0  0  0  0
    6.5090    2.4440    0.2800 F   0  0  0  0  0  0  0  0  0  0  0  0
    5.3570    0.4160    0.3600 N   0  0  0  0  0  0  0  0  0  0  0  0
   -0.1360   -1.1000   -0.0490 N   0  0  0  0  0  0  0  0  0  0  0  0
   -1.4960   -0.9030   -0.2840 C   0  0  1  0  0  0  0  0  0  0  0  0
   -2.3380   -2.1530    0.0140 C   0  0  0  0  0  0  0  0  0  0  0  0
   -2.0950    0.2920    0.2780 C   0  0  0  0  0  0  0  0  0  0  0  0
   -3.5150    0.5720    0.0860 N   0  0  0  0  0  0  0  0  0  0  0  0
   -3.8920    1.3810   -1.0170 C   0  0  0  0  0  0  0  0  0  0  0  0
   -4.9920    1.0820   -1.6980 C   0  0  0  0  0  0  0  0  0  0  0  0
   -5.7590   -0.1050   -1.2410 C   0  0  0  0  0  0  0  0  0  0  0  0
   -5.8460   -0.1810    0.2670 C   0  0  0  0  0  0  0  0  0  0  0  0
   -4.5340    0.0660    0.9610 C   0  0  0  0  0  0  0  0  0  0  0  0
   -1.4240    1.1390    0.9520 N   0  0  0  0  0  0  0  0  0  0  0  0
  1  2  1  0
  2  3  1  0
  3  4  2  0
  3 26  1  0
  4  5  1  0
  4 16  1  0
  5  6  2  0
  5  7  1  0
  7  8  1  0
  8  9  1  0
  9 10  2  0
  9 15  1  0
 10 11  1  0
 11 12  2  0
 12 13  1  0
 13 14  1  0
 13 15  2  0
 16 17  1  0
 17 18  1  1
 17 19  1  0
 19 20  1  0
 19 26  2  0
 20 21  1  0
 20 25  1  0
 21 22  2  0
 22 23  1  0
 23 24  1  0
 24 25  1  0
M  CHG  1  16   1
M  END
