
     RDKit          3D

 26 28  0  0  0  0  0  0  0  0999 V2000
   -1.3200   -3.1560    0.5610 C   0  0  0  0  0  0  0  0  0  0  0  0
   -2.0860   -1.9190    0.5970 N   0  0  0  0  0  0  0  0  0  0  0  0
   -1.5150   -0.7710    0.5850 C   0  0  0  0  0  0  0  0  0  0  0  0
   -2.3010    0.3900    0.6180 N   0  0  0  0  0  0  0  0  0  0  0  0
   -3.4170    0.5940   -0.2290 C   0  0  0  0  0  0  0  0  0  0  0  0
   -3.7270   -0.2510   -1.2450 C   0  0  0  0  0  0  0  0  0  0  0  0
   -4.8190   -0.0240   -2.0840 C   0  0  0  0  0  0  0  0  0  0  0  0
   -5.6070    1.0750   -1.8900 C   0  0  0  0  0  0  0  0  0  0  0  0
   -6.6630    1.2770   -2.7180 F   0  0  0  0  0  0  0  0  0  0  0  0
   -5.3020    1.9410   -0.8620 C   0  0  0  0  0  0  0  0  0  0  0  0
   -4.2330    1.7120   -0.0460 C   0  0  0  0  0  0  0  0  0  0  0  0
   -3.9130    2.6350    1.0450 C   0  0  0  0  0  0  0  0  0  0  0  0
   -0.1070   -0.6900    0.5630 N   0  0  0  0  0  0  0  0  0  0  0  0
    0.5270   -0.8430    1.8680 C   0  0  0  0  0  0  0  0  0  0  0  0
    1.4110    0.3500    2.0440 C   0  0  0  0  0  0  0  0  0  0  0  0
    2.7630    0.2580    1.4400 C   0  0  0  0  0  0  0  0  0  0  0  0
    2.8680    0.0450    0.0510 N   0  0  0  0  0  0  0  0  0  0  0  0
    4.2280   -0.4400   -0.2170 C   0  0  2  0  0  0  0  0  0  0  0  0
    5.2640    0.5830    0.1630 C   0  0  0  0  0  0  0  0  0  0  0  0
    5.1680    1.5690   -0.9380 C   0  0  0  0  0  0  0  0  0  0  0  0
    5.4560    2.7700   -0.8580 O   0  0  0  0  0  0  0  0  0  0  0  0
    4.6850    0.8460   -2.0740 N   0  0  0  0  0  0  0  0  0  0  0  0
    4.4650   -0.5280   -1.6910 C   0  0  0  0  0  0  0  0  0  0  0  0
    4.4790   -1.5160   -2.4380 O   0  0  0  0  0  0  0  0  0  0  0  0
    1.9930   -0.8990   -0.5480 C   0  0  0  0  0  0  0  0  0  0  0  0
    0.5740   -0.4690   -0.6950 C   0  0  0  0  0  0  0  0  0  0  0  0
  1  2  1  0
  2  3  2  3
  3  4  1  0
  3 13  1  0
  4  5  1  0
  5  6  2  0
  5 11  1  0
  6  7  1  0
  7  8  2  0
  8  9  1  0
  8 10  1  0
 10 11  2  0
 11 12  1  0
 13 14  1  0
 13 26  1  0
 14 15  1  0
 15 16  1  0
 16 17  1  0
 18 17  1  6
 17 25  1  0
 18 19  1  0
 18 23  1  0
 19 20  1  0
 20 21  2  0
 20 22  1  0
 22 23  1  0
 23 24  2  0
 25 26  1  0
M  CHG  1   2   1
M  END
