
     RDKit          3D

 28 31  0  0  0  0  0  0  0  0999 V2000
   -3.2900   -2.1920    0.4300 C   0  0  0  0  0  0  0  0  0  0  0  0
   -1.8600   -2.0180    0.1030 C   0  0  0  0  0  0  0  0  0  0  0  0
   -1.4610   -0.9210   -0.4080 N   0  0  0  0  0  0  0  0  0  0  0  0
   -2.2960    0.1590   -0.6910 N   0  0  0  0  0  0  0  0  0  0  0  0
   -2.1600    1.3580    0.0670 C   0  0  0  0  0  0  0  0  0  0  0  0
   -1.2110    1.4970    0.9480 N   0  0  0  0  0  0  0  0  0  0  0  0
   -0.2420    0.5540    1.2670 C   0  0  0  0  0  0  0  0  0  0  0  0
   -0.3900   -0.1290    2.3020 O   0  0  0  0  0  0  0  0  0  0  0  0
    0.9710    0.3310    0.4140 C   0  0  0  0  0  0  0  0  0  0  0  0
    1.1300    1.0800   -0.7260 C   0  0  0  0  0  0  0  0  0  0  0  0
    2.7020    0.4420   -1.3660 S   0  0  0  0  0  0  0  0  0  0  0  0
    2.9840   -0.6900   -0.1360 C   0  0  0  0  0  0  0  0  0  0  0  0
    4.1410   -1.6090   -0.0120 C   0  0  0  0  0  0  0  0  0  0  0  0
    4.3400   -2.4690    0.9360 C   0  0  0  0  0  0  0  0  0  0  0  0
    5.6180   -3.1810    0.6720 C   0  0  0  0  0  0  0  0  0  0  0  0
    6.1170   -2.5810   -0.5900 C   0  0  0  0  0  0  0  0  0  0  0  0
    5.2280   -1.6760   -0.9480 C   0  0  0  0  0  0  0  0  0  0  0  0
    1.9250   -0.5590    0.6910 C   0  0  0  0  0  0  0  0  0  0  0  0
   -3.0970    2.3970   -0.1490 N   0  0  0  0  0  0  0  0  0  0  0  0
   -2.7590    3.7520   -0.0670 C   0  0  0  0  0  0  0  0  0  0  0  0
   -1.4620    4.1710    0.0570 C   0  0  0  0  0  0  0  0  0  0  0  0
   -1.2370    5.5540    0.1430 C   0  0  0  0  0  0  0  0  0  0  0  0
   -2.2720    6.4590    0.1060 C   0  0  0  0  0  0  0  0  0  0  0  0
   -3.5770    6.0190   -0.0200 C   0  0  0  0  0  0  0  0  0  0  0  0
   -3.8170    4.6680   -0.1060 C   0  0  0  0  0  0  0  0  0  0  0  0
   -0.8790   -3.0980    0.3600 C   0  0  1  0  0  0  0  0  0  0  0  0
   -1.0250   -4.4230   -0.2890 C   0  0  0  0  0  0  0  0  0  0  0  0
   -0.0180   -3.4970   -0.8270 C   0  0  0  0  0  0  0  0  0  0  0  0
  1  2  1  0
  2  3  2  3
 26  2  1  6
  3  4  1  0
  4  5  1  0
  5  6  2  3
  5 19  1  0
  6  7  1  0
  7  8  2  0
  7  9  1  0
  9 10  2  0
  9 18  1  0
 10 11  1  0
 11 12  1  0
 12 13  1  0
 12 18  2  0
 13 14  2  0
 13 17  1  0
 14 15  1  0
 15 16  1  0
 16 17  2  0
 19 20  1  0
 20 21  2  0
 20 25  1  0
 21 22  1  0
 22 23  2  0
 23 24  1  0
 24 25  2  0
 26 27  1  0
 26 28  1  0
 27 28  1  0
M  END
