
     RDKit          3D

 28 31  0  0  0  0  0  0  0  0999 V2000
   -1.4830   -3.7990    1.3430 C   0  0  0  0  0  0  0  0  0  0  0  0
   -1.6140   -2.4500    0.6960 C   0  0  0  0  0  0  0  0  0  0  0  0
   -0.7140   -2.0520   -0.2470 C   0  0  0  0  0  0  0  0  0  0  0  0
   -0.7900   -0.8290   -0.8690 C   0  0  0  0  0  0  0  0  0  0  0  0
    0.1320   -0.4240   -1.9390 C   0  0  0  0  0  0  0  0  0  0  0  0
    1.5200   -1.5300   -2.1910 S   0  0  0  0  0  0  0  0  0  0  0  0
    2.7960   -1.2130   -0.9890 C   0  0  0  0  0  0  0  0  0  0  0  0
    3.6480   -0.1250   -1.2850 C   0  0  0  0  0  0  0  0  0  0  0  0
    4.6640    0.1350   -0.4040 C   0  0  0  0  0  0  0  0  0  0  0  0
    5.5020    1.2020   -0.6950 C   0  0  0  0  0  0  0  0  0  0  0  0
    6.5040    1.4820    0.1440 N   0  0  0  0  0  0  0  0  0  0  0  0
    6.7240    0.7480    1.2760 C   0  0  0  0  0  0  0  0  0  0  0  0
    5.9240   -0.3220    1.6120 C   0  0  0  0  0  0  0  0  0  0  0  0
    4.8790   -0.6140    0.7390 C   0  0  0  0  0  0  0  0  0  0  0  0
    4.0760   -1.6280    1.0030 N   0  0  0  0  0  0  0  0  0  0  0  0
    3.0540   -1.9170    0.1490 C   0  0  0  0  0  0  0  0  0  0  0  0
    2.3380   -2.9020    0.4710 O   0  0  0  0  0  0  0  0  0  0  0  0
   -1.8580    0.0120   -0.4880 C   0  0  0  0  0  0  0  0  0  0  0  0
   -1.9650    1.2880   -1.1100 N   0  0  0  0  0  0  0  0  0  0  0  0
   -2.9560    2.2600   -0.8770 C   0  0  0  0  0  0  0  0  0  0  0  0
   -2.7070    3.5460   -1.3990 C   0  0  0  0  0  0  0  0  0  0  0  0
   -3.6200    4.5630   -1.2370 C   0  0  0  0  0  0  0  0  0  0  0  0
   -4.8020    4.3500   -0.5590 C   0  0  0  0  0  0  0  0  0  0  0  0
   -5.0470    3.0950   -0.0490 C   0  0  0  0  0  0  0  0  0  0  0  0
   -4.1370    2.0630   -0.2060 C   0  0  0  0  0  0  0  0  0  0  0  0
   -2.7300   -0.3980    0.4380 N   0  0  0  0  0  0  0  0  0  0  0  0
   -2.6310   -1.5900    1.0280 C   0  0  0  0  0  0  0  0  0  0  0  0
   -3.6170   -2.0450    2.0730 C   0  0  0  0  0  0  0  0  0  0  0  0
  1  2  1  0
  2  3  2  0
  2 27  1  0
  3  4  1  0
  4  5  1  0
  4 18  2  0
  5  6  1  0
  6  7  1  0
  7  8  2  0
  7 16  1  0
  8  9  1  0
  9 10  2  0
  9 14  1  0
 10 11  1  0
 11 12  2  0
 12 13  1  0
 13 14  2  0
 14 15  1  0
 15 16  1  0
 16 17  2  0
 18 19  1  0
 18 26  1  0
 19 20  1  0
 20 21  2  0
 20 25  1  0
 21 22  1  0
 22 23  2  0
 23 24  1  0
 24 25  2  0
 26 27  2  0
 27 28  1  0
M  END
