
     RDKit          3D

 24 27  0  0  0  0  0  0  0  0999 V2000
    2.0470   -2.7160    0.4120 C   0  0  0  0  0  0  0  0  0  0  0  0
    1.1840   -2.0730   -0.6190 C   0  0  0  0  0  0  0  0  0  0  0  0
    0.2210   -1.1100   -0.0700 N   0  0  0  0  0  0  0  0  0  0  0  0
   -1.1370   -1.5090   -0.0900 C   0  0  0  0  0  0  0  0  0  0  0  0
   -1.4800   -2.8400   -0.3000 C   0  0  0  0  0  0  0  0  0  0  0  0
   -2.8130   -3.2010   -0.3040 C   0  0  0  0  0  0  0  0  0  0  0  0
   -3.1240   -4.5780   -0.5230 N   0  0  0  0  0  0  0  0  0  0  0  0
   -3.8220   -2.2950   -0.1080 C   0  0  0  0  0  0  0  0  0  0  0  0
   -3.5090   -0.9640    0.1040 C   0  0  0  0  0  0  0  0  0  0  0  0
   -2.1870   -0.5950    0.1110 C   0  0  0  0  0  0  0  0  0  0  0  0
   -1.7930    0.7860    0.3540 C   0  0  0  0  0  0  0  0  0  0  0  0
   -2.7580    1.8000    0.4280 C   0  0  0  0  0  0  0  0  0  0  0  0
   -2.3810    3.1230    0.5410 C   0  0  0  0  0  0  0  0  0  0  0  0
   -1.0420    3.4570    0.5830 C   0  0  0  0  0  0  0  0  0  0  0  0
   -0.6480    4.8440    0.7000 N   0  0  0  0  0  0  0  0  0  0  0  0
   -0.0670    2.5070    0.5170 C   0  0  0  0  0  0  0  0  0  0  0  0
   -0.4930    1.1540    0.4030 C   0  0  0  0  0  0  0  0  0  0  0  0
    0.5920    0.1240    0.4660 C   0  0  2  0  0  0  0  0  0  0  0  0
    1.8590    0.7070   -0.0080 C   0  0  0  0  0  0  0  0  0  0  0  0
    2.1000    0.9200   -1.3180 C   0  0  0  0  0  0  0  0  0  0  0  0
    3.3240    1.4700   -1.7110 C   0  0  0  0  0  0  0  0  0  0  0  0
    4.2930    1.8010   -0.7930 C   0  0  0  0  0  0  0  0  0  0  0  0
    4.0430    1.5830    0.5360 C   0  0  0  0  0  0  0  0  0  0  0  0
    2.8110    1.0300    0.9260 C   0  0  0  0  0  0  0  0  0  0  0  0
  1  2  1  0
  2  3  1  0
  3  4  1  0
  3 18  1  0
  4  5  2  0
  4 10  1  0
  5  6  1  0
  6  7  1  0
  6  8  2  0
  8  9  1  0
  9 10  2  0
 10 11  1  0
 11 12  2  0
 11 17  1  0
 12 13  1  0
 13 14  2  0
 14 15  1  0
 14 16  1  0
 16 17  2  0
 17 18  1  0
 18 19  1  6
 19 20  2  0
 19 24  1  0
 20 21  1  0
 21 22  2  0
 22 23  1  0
 23 24  2  0
M  END
