
     RDKit          3D

 26 26  0  0  0  0  0  0  0  0999 V2000
   -1.8690    2.4960   -1.0000 C   0  0  0  0  0  0  0  0  0  0  0  0
   -2.9340    2.6580    0.0890 C   0  0  0  0  0  0  0  0  0  0  0  0
   -4.1000    1.7460   -0.1720 C   0  0  0  0  0  0  0  0  0  0  0  0
   -3.7520    0.4120   -0.1970 O   0  0  0  0  0  0  0  0  0  0  0  0
   -3.2630   -0.0190    1.0010 C   0  0  1  0  0  0  0  0  0  0  0  0
   -4.1460   -1.1250    1.5770 C   0  0  0  0  0  0  0  0  0  0  0  0
   -4.2000   -2.2490    0.6810 N   0  0  0  0  0  0  0  0  0  0  0  0
   -4.9690   -3.3880    1.0290 C   0  0  0  0  0  0  0  0  0  0  0  0
   -5.5860   -3.3670    2.1310 O   0  0  0  0  0  0  0  0  0  0  0  0
   -1.8930   -0.6360    0.9090 C   0  0  0  0  0  0  0  0  0  0  0  0
   -1.3540   -1.0280    1.9440 O   0  0  0  0  0  0  0  0  0  0  0  0
   -1.2400   -0.7650   -0.3260 N   0  0  0  0  0  0  0  0  0  0  0  0
    0.0450   -1.3350   -0.5960 C   0  0  1  0  0  0  0  0  0  0  0  0
    0.1220   -2.7820   -0.3680 C   0  0  0  0  0  0  0  0  0  0  0  0
   -0.1210   -3.3430    0.9010 N   0  0  0  0  0  0  0  0  0  0  0  0
    0.3050   -1.1250   -2.1020 C   0  0  0  0  0  0  0  0  0  0  0  0
    2.1050   -1.4910   -2.1060 S   0  0  0  0  0  0  0  0  0  0  0  0
    2.4310   -0.8270   -0.4570 C   0  0  1  0  0  0  0  0  0  0  0  0
    3.1140    0.5060   -0.6520 C   0  0  0  0  0  0  0  0  0  0  0  0
    3.3070    0.8640   -1.8390 O   0  0  0  0  0  0  0  0  0  0  0  0
    3.5020    1.2800    0.3940 O   0  0  0  0  0  0  0  0  0  0  0  0
    4.1420    2.5110    0.2250 C   0  0  0  0  0  0  0  0  0  0  0  0
    5.4720    2.2970   -0.4490 C   0  0  0  0  0  0  0  0  0  0  0  0
    6.2460    1.4670    0.3330 O   0  0  0  0  0  0  0  0  0  0  0  0
    6.5010    1.9690    1.5720 C   0  0  0  0  0  0  0  0  0  0  0  0
    1.0880   -0.5280    0.1150 C   0  0  0  0  0  0  0  0  0  0  0  0
  1  2  1  0
  2  3  1  0
  3  4  1  0
  4  5  1  0
  5  6  1  6
  5 10  1  0
  6  7  1  0
  7  8  1  0
  8  9  2  0
 10 11  2  0
 10 12  1  0
 12 13  1  0
 13 14  1  6
 13 16  1  0
 13 26  1  0
 14 15  1  0
 16 17  1  0
 17 18  1  0
 18 19  1  6
 18 26  1  0
 19 20  2  0
 19 21  1  0
 21 22  1  0
 22 23  1  0
 23 24  1  0
 24 25  1  0
M  CHG  1  15   1
M  END
