
     RDKit          3D

 26 25  0  0  0  0  0  0  0  0999 V2000
    7.1540    2.0160    0.9670 C   0  0  0  0  0  0  0  0  0  0  0  0
    5.6600    2.4500    0.0760 S   0  0  0  0  0  0  0  0  0  0  0  0
    5.5280    1.5190   -1.4900 C   0  0  0  0  0  0  0  0  0  0  0  0
    5.3440    0.0400   -1.2220 C   0  0  2  0  0  0  0  0  0  0  0  0
    5.2450   -0.6400   -2.5720 C   0  0  0  0  0  0  0  0  0  0  0  0
    4.2040   -0.2370   -0.5150 O   0  0  0  0  0  0  0  0  0  0  0  0
    4.4050   -0.9390    0.6570 C   0  0  0  0  0  0  0  0  0  0  0  0
    3.0160   -1.1370    1.2820 C   0  0  0  0  0  0  0  0  0  0  0  0
    2.1860   -1.9170    0.2880 C   0  0  0  0  0  0  0  0  0  0  0  0
    0.9150   -2.1480    0.7550 O   0  0  0  0  0  0  0  0  0  0  0  0
    0.1640   -1.0250    1.0060 C   0  0  2  0  0  0  0  0  0  0  0  0
   -0.2060   -0.8890    2.4650 C   0  0  0  0  0  0  0  0  0  0  0  0
   -1.0440   -0.9680    0.1540 C   0  0  0  0  0  0  0  0  0  0  0  0
   -1.3400   -1.8540   -0.6940 O   0  0  0  0  0  0  0  0  0  0  0  0
   -1.9340    0.1300    0.2750 N   0  0  0  0  0  0  0  0  0  0  0  0
   -3.1440    0.2090   -0.5780 C   0  0  2  0  0  0  0  0  0  0  0  0
   -2.9450    1.3570   -1.4820 C   0  0  0  0  0  0  0  0  0  0  0  0
   -3.8980    1.6850   -2.4790 N   0  0  0  0  0  0  0  0  0  0  0  0
   -1.9070    2.1010   -1.4050 O   0  0  0  0  0  0  0  0  0  0  0  0
   -4.3620    0.3600    0.2730 C   0  0  2  0  0  0  0  0  0  0  0  0
   -5.6130    0.4470   -0.5430 C   0  0  0  0  0  0  0  0  0  0  0  0
   -5.8220   -0.7260   -1.3690 N   0  0  0  0  0  0  0  0  0  0  0  0
   -4.2740    1.5980    1.1630 C   0  0  0  0  0  0  0  0  0  0  0  0
   -4.1490    2.7430    0.4090 O   0  0  0  0  0  0  0  0  0  0  0  0
   -4.5160   -0.8520    1.2020 C   0  0  0  0  0  0  0  0  0  0  0  0
   -3.3810   -0.9010    1.9980 O   0  0  0  0  0  0  0  0  0  0  0  0
  1  2  1  0
  2  3  1  0
  3  4  1  0
  4  5  1  6
  4  6  1  0
  6  7  1  0
  7  8  1  0
  8  9  1  0
  9 10  1  0
 10 11  1  0
 11 12  1  1
 11 13  1  0
 13 14  2  0
 13 15  1  0
 16 15  1  1
 16 17  1  0
 16 20  1  0
 17 18  1  0
 17 19  2  0
 20 21  1  6
 20 23  1  0
 20 25  1  0
 21 22  1  0
 23 24  1  0
 25 26  1  0
M  CHG  1  22   1
M  END
