
     RDKit          3D

 26 25  0  0  0  0  0  0  0  0999 V2000
    7.1800    0.8420    0.9760 C   0  0  0  0  0  0  0  0  0  0  0  0
    6.2600    1.5790    0.0060 C   0  0  1  0  0  0  0  0  0  0  0  0
    6.4240    1.0170   -1.3930 C   0  0  0  0  0  0  0  0  0  0  0  0
    4.5610    1.5350    0.5680 S   0  0  0  0  0  0  0  0  0  0  0  0
    3.8350   -0.0960    0.5530 C   0  0  1  0  0  0  0  0  0  0  0  0
    4.4990   -1.0310    1.5570 C   0  0  0  0  0  0  0  0  0  0  0  0
    2.4000    0.0220    1.0090 C   0  0  0  0  0  0  0  0  0  0  0  0
    1.9710    1.1440    1.3730 O   0  0  0  0  0  0  0  0  0  0  0  0
    1.6000   -1.1420    1.0070 N   0  0  0  0  0  0  0  0  0  0  0  0
    0.2550   -1.2440    1.3670 C   0  0  0  0  0  0  0  0  0  0  0  0
   -0.8310   -0.6240    0.5810 C   0  0  1  0  0  0  0  0  0  0  0  0
   -0.8030    0.8420    0.3820 C   0  0  0  0  0  0  0  0  0  0  0  0
   -1.9690    1.4210   -0.3970 C   0  0  0  0  0  0  0  0  0  0  0  0
   -3.2840    1.2190    0.1930 C   0  0  0  0  0  0  0  0  0  0  0  0
   -3.4510    0.6290    1.2890 O   0  0  0  0  0  0  0  0  0  0  0  0
   -4.4560    1.6920   -0.4620 N   0  0  0  0  0  0  0  0  0  0  0  0
   -5.7620    1.4560    0.1530 C   0  0  0  0  0  0  0  0  0  0  0  0
   -6.3100    0.1240   -0.3450 C   0  0  0  0  0  0  0  0  0  0  0  0
   -6.4530    0.1390   -1.7170 O   0  0  0  0  0  0  0  0  0  0  0  0
   -4.4320    2.3960   -1.6900 C   0  0  0  0  0  0  0  0  0  0  0  0
   -3.3680    2.6580   -2.3000 O   0  0  0  0  0  0  0  0  0  0  0  0
   -5.6190    2.8260   -2.2650 O   0  0  0  0  0  0  0  0  0  0  0  0
   -1.0600   -1.3390   -0.7470 C   0  0  1  0  0  0  0  0  0  0  0  0
    0.0280   -1.3380   -1.5750 O   0  0  0  0  0  0  0  0  0  0  0  0
   -1.5110   -2.7600   -0.4600 C   0  0  0  0  0  0  0  0  0  0  0  0
   -2.6560   -2.7820    0.4090 N   0  0  0  0  0  0  0  0  0  0  0  0
  2  1  1  1
  2  3  1  0
  2  4  1  0
  4  5  1  0
  5  6  1  1
  5  7  1  0
  7  8  2  0
  7  9  1  0
  9 10  1  0
 11 10  1  6
 11 12  1  0
 11 23  1  0
 12 13  1  0
 13 14  1  0
 14 15  2  0
 14 16  1  0
 16 17  1  0
 16 20  1  0
 17 18  1  0
 18 19  1  0
 20 21  2  0
 20 22  1  0
 23 24  1  6
 23 25  1  0
 25 26  1  0
M  CHG  1  26   1
M  END
