
     RDKit          3D

 35 39  0  0  0  0  0  0  0  0999 V2000
    7.7680    4.4230   -0.1670 N   0  0  0  0  0  0  0  0  0  0  0  0
    7.2490    3.1310    0.1840 C   0  0  0  0  0  0  0  0  0  0  0  0
    7.3920    2.0800   -0.6870 C   0  0  0  0  0  0  0  0  0  0  0  0
    6.9190    0.8280   -0.4100 C   0  0  0  0  0  0  0  0  0  0  0  0
    6.2720    0.5830    0.7790 C   0  0  0  0  0  0  0  0  0  0  0  0
    5.7790   -0.8020    1.0280 C   0  0  0  0  0  0  0  0  0  0  0  0
    4.3950   -0.9610    0.4900 C   0  0  0  0  0  0  0  0  0  0  0  0
    3.7740   -0.0160   -0.0470 O   0  0  0  0  0  0  0  0  0  0  0  0
    3.7960   -2.2540    0.6090 N   0  0  0  0  0  0  0  0  0  0  0  0
    2.4600   -2.5490    0.1320 C   0  0  0  0  0  0  0  0  0  0  0  0
    1.4610   -1.6990    0.8800 C   0  0  2  0  0  0  0  0  0  0  0  0
    1.5420   -1.9930    2.3160 N   0  0  0  0  0  0  0  0  0  0  0  0
    0.0650   -1.9400    0.4080 C   0  0  0  0  0  0  0  0  0  0  0  0
   -0.2300   -2.4550   -0.8350 C   0  0  0  0  0  0  0  0  0  0  0  0
   -1.5360   -2.6730   -1.2260 C   0  0  0  0  0  0  0  0  0  0  0  0
   -2.6260   -2.3870   -0.3960 C   0  0  0  0  0  0  0  0  0  0  0  0
   -3.9690   -2.6530   -0.8970 C   0  0  0  0  0  0  0  0  0  0  0  0
   -4.4240   -3.8740   -1.3270 N   0  0  0  0  0  0  0  0  0  0  0  0
   -5.6760   -3.7940   -1.7400 C   0  0  0  0  0  0  0  0  0  0  0  0
   -6.0970   -2.4990   -1.5950 C   0  0  0  0  0  0  0  0  0  0  0  0
   -5.0040   -1.7960   -1.0600 C   0  0  0  0  0  0  0  0  0  0  0  0
   -5.0600   -0.3760   -0.7460 C   0  0  0  0  0  0  0  0  0  0  0  0
   -5.2590   -0.0180    0.5690 C   0  0  0  0  0  0  0  0  0  0  0  0
   -5.3410    1.3200    0.9700 C   0  0  0  0  0  0  0  0  0  0  0  0
   -5.2200    2.3150    0.0200 C   0  0  0  0  0  0  0  0  0  0  0  0
   -5.0200    1.9760   -1.3110 C   0  0  0  0  0  0  0  0  0  0  0  0
   -4.9430    0.6260   -1.6730 C   0  0  0  0  0  0  0  0  0  0  0  0
   -4.9260    3.2000   -2.0910 C   0  0  0  0  0  0  0  0  0  0  0  0
   -4.8340    3.2610   -3.3350 O   0  0  0  0  0  0  0  0  0  0  0  0
   -4.9600    4.3450   -1.1800 C   0  0  0  0  0  0  0  0  0  0  0  0
   -5.2720    3.7930    0.1920 C   0  0  0  0  0  0  0  0  0  0  0  0
   -2.3300   -1.8750    0.8400 C   0  0  0  0  0  0  0  0  0  0  0  0
   -1.0030   -1.6550    1.2350 C   0  0  0  0  0  0  0  0  0  0  0  0
    6.1190    1.6230    1.6650 C   0  0  0  0  0  0  0  0  0  0  0  0
    6.6060    2.8870    1.3650 C   0  0  0  0  0  0  0  0  0  0  0  0
  1  2  1  0
  2  3  2  0
  2 35  1  0
  3  4  1  0
  4  5  2  0
  5  6  1  0
  5 34  1  0
  6  7  1  0
  7  8  2  0
  7  9  1  0
  9 10  1  0
 10 11  1  0
 11 12  1  1
 11 13  1  0
 13 14  2  0
 13 33  1  0
 14 15  1  0
 15 16  2  0
 16 17  1  0
 16 32  1  0
 17 18  1  0
 17 21  2  0
 18 19  1  0
 19 20  2  0
 20 21  1  0
 21 22  1  0
 22 23  2  0
 22 27  1  0
 23 24  1  0
 24 25  2  0
 25 26  1  0
 25 31  1  0
 26 27  2  0
 26 28  1  0
 28 29  2  0
 28 30  1  0
 30 31  1  0
 32 33  2  0
 34 35  2  0
M  CHG  1  12   1
M  END
