
     RDKit          3D

 34 38  0  0  0  0  0  0  0  0999 V2000
    7.8990    0.6290    2.7360 C   0  0  0  0  0  0  0  0  0  0  0  0
    7.3530    0.4250    1.3510 C   0  0  0  0  0  0  0  0  0  0  0  0
    8.1690    0.3030    0.2570 C   0  0  0  0  0  0  0  0  0  0  0  0
    7.6650    0.1160   -1.0100 C   0  0  0  0  0  0  0  0  0  0  0  0
    6.2990    0.0510   -1.1710 C   0  0  0  0  0  0  0  0  0  0  0  0
    5.7420   -0.1460   -2.5050 C   0  0  0  0  0  0  0  0  0  0  0  0
    5.4170    0.1700   -0.0890 C   0  0  0  0  0  0  0  0  0  0  0  0
    3.9970    0.0880   -0.3700 C   0  0  0  0  0  0  0  0  0  0  0  0
    3.1680    0.2160    0.7750 N   0  0  0  0  0  0  0  0  0  0  0  0
    1.7330    0.1730    0.7020 C   0  0  0  0  0  0  0  0  0  0  0  0
    0.9000    0.2800    1.7840 C   0  0  0  0  0  0  0  0  0  0  0  0
   -0.4700    0.2260    1.5990 C   0  0  0  0  0  0  0  0  0  0  0  0
   -1.0470    0.0650    0.3410 C   0  0  0  0  0  0  0  0  0  0  0  0
   -2.4250    0.0190    0.2280 C   0  0  0  0  0  0  0  0  0  0  0  0
   -3.2340    0.1430    1.4460 C   0  0  0  0  0  0  0  0  0  0  0  0
   -4.6420    0.0780    1.1860 N   0  0  2  0  0  0  0  0  0  0  0  0
   -5.0640    1.3680    0.6750 C   0  0  0  0  0  0  0  0  0  0  0  0
   -5.5110    2.1830    1.8600 C   0  0  0  0  0  0  0  0  0  0  0  0
   -5.3710    1.2500    3.0690 C   0  0  0  0  0  0  0  0  0  0  0  0
   -5.4310   -0.0930    2.3850 C   0  0  2  0  0  0  0  0  0  0  0  0
   -4.9760   -1.2240    3.2490 C   0  0  0  0  0  0  0  0  0  0  0  0
   -6.8730   -0.3110    1.9750 C   0  0  0  0  0  0  0  0  0  0  0  0
   -2.9450   -0.1410   -1.0310 C   0  0  0  0  0  0  0  0  0  0  0  0
   -2.1140   -0.2490   -2.1260 C   0  0  0  0  0  0  0  0  0  0  0  0
   -2.6630   -0.4090   -3.3840 C   0  0  0  0  0  0  0  0  0  0  0  0
   -1.8430   -0.5180   -4.4850 C   0  0  0  0  0  0  0  0  0  0  0  0
   -0.5080   -0.4700   -4.3420 N   0  0  0  0  0  0  0  0  0  0  0  0
    0.3140   -0.5880   -5.5200 C   0  0  0  0  0  0  0  0  0  0  0  0
    0.0780   -0.3140   -3.1260 C   0  0  0  0  0  0  0  0  0  0  0  0
    1.3190   -0.2850   -3.1260 O   0  0  0  0  0  0  0  0  0  0  0  0
   -0.7290   -0.2040   -2.0200 C   0  0  0  0  0  0  0  0  0  0  0  0
   -0.1840   -0.0440   -0.7610 C   0  0  0  0  0  0  0  0  0  0  0  0
    1.1770    0.0120   -0.5610 C   0  0  0  0  0  0  0  0  0  0  0  0
    5.9660    0.3530    1.1380 C   0  0  0  0  0  0  0  0  0  0  0  0
  1  2  1  0
  2  3  2  0
  2 34  1  0
  3  4  1  0
  4  5  2  0
  5  6  1  0
  5  7  1  0
  7  8  1  0
  7 34  2  0
  8  9  1  0
  9 10  1  0
 10 11  2  0
 10 33  1  0
 11 12  1  0
 12 13  2  0
 13 14  1  0
 13 32  1  0
 14 15  1  0
 14 23  2  0
 16 15  1  1
 16 17  1  0
 16 20  1  0
 17 18  1  0
 18 19  1  0
 19 20  1  0
 20 21  1  1
 20 22  1  0
 23 24  1  0
 24 25  1  0
 24 31  2  0
 25 26  2  0
 26 27  1  0
 27 28  1  0
 27 29  1  0
 29 30  2  0
 29 31  1  0
 31 32  1  0
 32 33  2  0
M  CHG  1  16   1
M  END
