
     RDKit          3D

 27 31  0  0  0  0  0  0  0  0999 V2000
    7.5910   -1.2180    0.0750 O   0  0  0  0  0  0  0  0  0  0  0  0
    6.7060   -0.3540    0.2120 C   0  0  0  0  0  0  0  0  0  0  0  0
    6.9160    0.9790    0.8200 C   0  0  0  0  0  0  0  0  0  0  0  0
    5.6170    1.7100    0.7370 C   0  0  0  0  0  0  0  0  0  0  0  0
    4.6610    0.7280    0.1170 C   0  0  0  0  0  0  0  0  0  0  0  0
    3.3090    0.8700   -0.1680 C   0  0  0  0  0  0  0  0  0  0  0  0
    2.5760   -0.1350   -0.7430 C   0  0  0  0  0  0  0  0  0  0  0  0
    1.2020    0.0540   -1.0090 N   0  0  0  0  0  0  0  0  0  0  0  0
    0.4210    1.1760   -0.6030 C   0  0  0  0  0  0  0  0  0  0  0  0
   -1.0120    0.8050   -0.2190 C   0  0  0  0  0  0  0  0  0  0  0  0
   -1.6010   -0.0100   -1.2410 N   0  0  0  0  0  0  0  0  0  0  0  0
   -2.8850   -0.5810   -1.2920 C   0  0  0  0  0  0  0  0  0  0  0  0
   -3.1120   -1.2770   -2.3780 O   0  0  0  0  0  0  0  0  0  0  0  0
   -3.9720   -0.5170   -0.3450 C   0  0  0  0  0  0  0  0  0  0  0  0
   -5.1720   -1.1920   -0.6530 C   0  0  0  0  0  0  0  0  0  0  0  0
   -6.2450   -1.1740    0.2010 C   0  0  0  0  0  0  0  0  0  0  0  0
   -6.2320   -0.5090    1.4000 C   0  0  0  0  0  0  0  0  0  0  0  0
   -5.0800    0.1550    1.7250 C   0  0  0  0  0  0  0  0  0  0  0  0
   -3.9810    0.1390    0.8550 C   0  0  0  0  0  0  0  0  0  0  0  0
   -5.3080    0.7400    2.9630 O   0  0  0  0  0  0  0  0  0  0  0  0
   -6.4660    0.1890    3.5610 C   0  0  0  0  0  0  0  0  0  0  0  0
   -7.1540   -0.3270    2.4360 O   0  0  0  0  0  0  0  0  0  0  0  0
   -0.6840   -0.2600   -2.3980 C   0  0  0  0  0  0  0  0  0  0  0  0
    0.5090   -0.9930   -1.7810 C   0  0  0  0  0  0  0  0  0  0  0  0
    3.2480   -1.3040   -1.0270 C   0  0  0  0  0  0  0  0  0  0  0  0
    4.6050   -1.4640   -0.7480 C   0  0  0  0  0  0  0  0  0  0  0  0
    5.3200   -0.4380   -0.1690 C   0  0  0  0  0  0  0  0  0  0  0  0
  1  2  2  0
  2  3  1  0
  2 27  1  0
  3  4  1  0
  4  5  1  0
  5  6  2  0
  5 27  1  0
  6  7  1  0
  7  8  1  0
  7 25  2  0
  8  9  1  0
  8 24  1  0
  9 10  1  0
 10 11  1  0
 11 12  1  0
 11 23  1  0
 12 13  2  0
 12 14  1  0
 14 15  2  0
 14 19  1  0
 15 16  1  0
 16 17  2  0
 17 18  1  0
 17 22  1  0
 18 19  2  0
 18 20  1  0
 20 21  1  0
 21 22  1  0
 23 24  1  0
 25 26  1  0
 26 27  2  0
M  END
