
     RDKit          3D

 27 29  0  0  0  0  0  0  0  0999 V2000
   -5.0800   -2.6880   -1.5810 C   0  0  0  0  0  0  0  0  0  0  0  0
   -4.6900   -1.3840   -2.1150 C   0  0  0  0  0  0  0  0  0  0  0  0
   -4.1890   -0.3410   -1.5350 C   0  0  0  0  0  0  0  0  0  0  0  0
   -3.8680    0.9000   -2.3110 C   0  0  0  0  0  0  0  0  0  0  0  0
   -4.0420    1.0640   -3.5440 O   0  0  0  0  0  0  0  0  0  0  0  0
   -3.3450    1.8140   -1.3780 N   0  0  0  0  0  0  0  0  0  0  0  0
   -3.3330    1.2110   -0.1160 C   0  0  0  0  0  0  0  0  0  0  0  0
   -3.8130   -0.0460   -0.1510 C   0  0  0  0  0  0  0  0  0  0  0  0
   -3.8700   -0.9260    0.9910 C   0  0  0  0  0  0  0  0  0  0  0  0
   -4.3940   -2.0620    0.9660 O   0  0  0  0  0  0  0  0  0  0  0  0
   -3.3090   -0.5700    2.3170 C   0  0  0  0  0  0  0  0  0  0  0  0
   -2.2890    0.3670    2.3400 O   0  0  0  0  0  0  0  0  0  0  0  0
   -1.0500    0.0510    1.7140 C   0  0  0  0  0  0  0  0  0  0  0  0
   -0.9330   -1.0680    1.1660 O   0  0  0  0  0  0  0  0  0  0  0  0
   -0.0020    1.0030    1.7320 N   0  0  0  0  0  0  0  0  0  0  0  0
   -0.1820    2.2940    2.3790 C   0  0  0  0  0  0  0  0  0  0  0  0
    1.2290    0.7060    1.1230 C   0  0  0  0  0  0  0  0  0  0  0  0
    1.2610    0.0260   -0.0610 C   0  0  0  0  0  0  0  0  0  0  0  0
    2.4980   -0.2560   -0.6440 C   0  0  0  0  0  0  0  0  0  0  0  0
    3.6910    0.1250   -0.0720 C   0  0  0  0  0  0  0  0  0  0  0  0
    4.9630   -0.1850   -0.7030 C   0  0  0  0  0  0  0  0  0  0  0  0
    6.1600    0.1290   -0.2490 C   0  0  0  0  0  0  0  0  0  0  0  0
    7.1450   -0.3890   -1.2190 C   0  0  0  0  0  0  0  0  0  0  0  0
    6.3090   -1.0260   -2.2580 C   0  0  0  0  0  0  0  0  0  0  0  0
    5.0950   -0.8860   -1.9260 N   0  0  0  0  0  0  0  0  0  0  0  0
    3.6170    0.8170    1.1350 C   0  0  0  0  0  0  0  0  0  0  0  0
    2.4030    1.1000    1.7190 C   0  0  0  0  0  0  0  0  0  0  0  0
  1  2  1  0
  2  3  2  3
  3  4  1  0
  3  8  1  0
  4  5  2  0
  4  6  1  0
  6  7  1  0
  7  8  2  0
  8  9  1  0
  9 10  2  0
  9 11  1  0
 11 12  1  0
 12 13  1  0
 13 14  2  0
 13 15  1  0
 15 16  1  0
 15 17  1  0
 17 18  2  0
 17 27  1  0
 18 19  1  0
 19 20  2  0
 20 21  1  0
 20 26  1  0
 21 22  2  0
 21 25  1  0
 22 23  1  0
 23 24  1  0
 24 25  2  0
 26 27  2  0
M  END
