
     RDKit          3D

 27 29  0  0  0  0  0  0  0  0999 V2000
   -0.4300   -2.9130    2.9080 C   0  0  0  0  0  0  0  0  0  0  0  0
   -0.8610   -2.0710    1.8780 O   0  0  0  0  0  0  0  0  0  0  0  0
   -2.1090   -2.0690    1.3180 C   0  0  0  0  0  0  0  0  0  0  0  0
   -2.9110   -2.9300    1.8180 O   0  0  0  0  0  0  0  0  0  0  0  0
   -2.4720   -1.1580    0.2590 C   0  0  0  0  0  0  0  0  0  0  0  0
   -1.5680   -0.2740   -0.2550 C   0  0  0  0  0  0  0  0  0  0  0  0
   -0.2050   -0.3180    0.0540 N   0  0  0  0  0  0  0  0  0  0  0  0
    0.7520    0.7040   -0.1440 C   0  0  0  0  0  0  0  0  0  0  0  0
    0.4230    1.7830   -0.6300 O   0  0  0  0  0  0  0  0  0  0  0  0
    2.1700    0.4510    0.2480 C   0  0  2  0  0  0  0  0  0  0  0  0
    2.3250    0.1430    1.7030 C   0  0  0  0  0  0  0  0  0  0  0  0
    3.6100    0.6550    2.2980 C   0  0  0  0  0  0  0  0  0  0  0  0
    4.7400    0.6430    1.3320 C   0  0  0  0  0  0  0  0  0  0  0  0
    6.0150    0.2780    1.3110 N   0  0  0  0  0  0  0  0  0  0  0  0
    6.5410    0.5190    0.1100 N   0  0  0  0  0  0  0  0  0  0  0  0
    5.5940    1.0610   -0.6990 C   0  0  0  0  0  0  0  0  0  0  0  0
    5.7120    1.4880   -2.1070 C   0  0  0  0  0  0  0  0  0  0  0  0
    4.4690    1.1400    0.0590 C   0  0  0  0  0  0  0  0  0  0  0  0
    3.0550    1.6170   -0.1400 C   0  0  0  0  0  0  0  0  0  0  0  0
   -2.0350    0.6330   -1.2150 C   0  0  0  0  0  0  0  0  0  0  0  0
   -3.3510    0.6590   -1.6480 C   0  0  0  0  0  0  0  0  0  0  0  0
   -3.8360    1.6230   -2.6630 C   0  0  0  0  0  0  0  0  0  0  0  0
   -2.8530    2.4760   -3.1210 O   0  0  0  0  0  0  0  0  0  0  0  0
   -4.2430   -0.2340   -1.1270 C   0  0  0  0  0  0  0  0  0  0  0  0
   -5.6790   -0.2640   -1.5500 C   0  0  0  0  0  0  0  0  0  0  0  0
   -3.8210   -1.1390   -0.1820 C   0  0  0  0  0  0  0  0  0  0  0  0
   -4.7970   -2.1150    0.3840 C   0  0  0  0  0  0  0  0  0  0  0  0
  1  2  1  0
  2  3  1  0
  3  4  2  0
  3  5  1  0
  5  6  2  0
  5 26  1  0
  6  7  1  0
  6 20  1  0
  7  8  1  0
  8  9  2  0
 10  8  1  1
 10 11  1  0
 10 19  1  0
 11 12  1  0
 12 13  1  0
 13 14  1  0
 13 18  2  0
 14 15  1  0
 15 16  2  0
 16 17  1  0
 16 18  1  0
 18 19  1  0
 20 21  2  0
 21 22  1  0
 21 24  1  0
 22 23  1  0
 24 25  1  0
 24 26  2  0
 26 27  1  0
M  END
