
     RDKit          3D

 27 29  0  0  0  0  0  0  0  0999 V2000
    7.5540    0.9100    1.2220 C   0  0  0  0  0  0  0  0  0  0  0  0
    6.3650    0.7020    0.3110 C   0  0  0  0  0  0  0  0  0  0  0  0
    5.4260   -0.0800    0.6650 N   0  0  0  0  0  0  0  0  0  0  0  0
    4.2960   -0.3120   -0.1440 C   0  0  0  0  0  0  0  0  0  0  0  0
    3.0950    0.3920    0.1180 C   0  0  0  0  0  0  0  0  0  0  0  0
    1.9880    0.1300   -0.6690 C   0  0  0  0  0  0  0  0  0  0  0  0
    0.6960    0.7670   -0.2400 C   0  0  0  0  0  0  0  0  0  0  0  0
    0.2320    1.7610   -0.7690 O   0  0  0  0  0  0  0  0  0  0  0  0
    0.0470    0.1300    0.8220 N   0  0  0  0  0  0  0  0  0  0  0  0
   -1.1350    0.3290    1.5030 C   0  0  0  0  0  0  0  0  0  0  0  0
   -2.3790    0.4700    0.7200 C   0  0  0  0  0  0  0  0  0  0  0  0
   -2.8800    1.5960    0.1760 C   0  0  0  0  0  0  0  0  0  0  0  0
   -4.1160    1.6770   -0.4210 C   0  0  0  0  0  0  0  0  0  0  0  0
   -4.7170    2.8320   -0.9250 N   0  0  0  0  0  0  0  0  0  0  0  0
   -4.2090    4.1340   -0.5850 C   0  0  0  0  0  0  0  0  0  0  0  0
   -4.9080    0.5150   -0.4720 C   0  0  0  0  0  0  0  0  0  0  0  0
   -6.1580    0.5300   -1.0680 O   0  0  0  0  0  0  0  0  0  0  0  0
   -4.4240   -0.6540    0.0780 C   0  0  0  0  0  0  0  0  0  0  0  0
   -3.1790   -0.6700    0.6620 C   0  0  0  0  0  0  0  0  0  0  0  0
   -2.7020   -1.8670    1.1940 O   0  0  0  0  0  0  0  0  0  0  0  0
   -3.6080   -2.9570    1.4740 C   0  0  0  0  0  0  0  0  0  0  0  0
   -4.6630   -3.0840    0.4140 C   0  0  0  0  0  0  0  0  0  0  0  0
   -5.1690   -1.8130    0.0610 O   0  0  0  0  0  0  0  0  0  0  0  0
    2.0150   -0.7710   -1.6830 C   0  0  0  0  0  0  0  0  0  0  0  0
    3.2210   -1.4540   -1.9210 C   0  0  0  0  0  0  0  0  0  0  0  0
    4.3450   -1.2310   -1.1620 C   0  0  0  0  0  0  0  0  0  0  0  0
    5.5940   -2.0340   -1.4240 C   0  0  0  0  0  0  0  0  0  0  0  0
  1  2  1  0
  2  3  2  3
  3  4  1  0
  4  5  2  0
  4 26  1  0
  5  6  1  0
  6  7  1  0
  6 24  2  0
  7  8  2  0
  7  9  1  0
  9 10  1  0
 10 11  1  0
 11 12  2  0
 11 19  1  0
 12 13  1  0
 13 14  1  0
 13 16  2  0
 14 15  1  0
 16 17  1  0
 16 18  1  0
 18 19  2  0
 18 23  1  0
 19 20  1  0
 20 21  1  0
 21 22  1  0
 22 23  1  0
 24 25  1  0
 25 26  2  0
 26 27  1  0
M  END
