
     RDKit          3D

 13 14  0  0  0  0  0  0  0  0999 V2000
    1.2740    2.2470    0.4660 C   0  0  0  0  0  0  0  0  0  0  0  0
    0.6840    0.8860    0.3880 C   0  0  0  0  0  0  0  0  0  0  0  0
    1.3490   -0.2940    0.2630 C   0  0  0  0  0  0  0  0  0  0  0  0
    2.8340   -0.4310    0.1800 C   0  0  2  0  0  0  0  0  0  0  0  0
    3.1890   -1.3600   -0.8780 N   0  0  0  0  0  0  0  0  0  0  0  0
    3.3430   -0.8990    1.3910 O   0  0  0  0  0  0  0  0  0  0  0  0
    0.4290   -1.2800    0.2300 N   0  0  0  0  0  0  0  0  0  0  0  0
   -0.7970   -0.7460    0.3310 C   0  0  0  0  0  0  0  0  0  0  0  0
   -0.6490    0.6150    0.4310 C   0  0  0  0  0  0  0  0  0  0  0  0
   -1.9010    1.4280    0.5560 C   0  0  0  0  0  0  0  0  0  0  0  0
   -2.8970    0.8180   -0.4120 C   0  0  0  0  0  0  0  0  0  0  0  0
   -3.2590   -0.5500    0.0810 C   0  0  0  0  0  0  0  0  0  0  0  0
   -2.1050   -1.4430    0.3400 C   0  0  0  0  0  0  0  0  0  0  0  0
  1  2  1  0
  2  3  2  0
  2  9  1  0
  3  4  1  0
  3  7  1  0
  4  5  1  6
  4  6  1  0
  7  8  1  0
  8  9  2  0
  8 13  1  0
  9 10  1  0
 10 11  1  0
 11 12  1  0
 12 13  1  0
M  CHG  1   5   1
M  END
