
     RDKit          3D

 13 13  0  0  0  0  0  0  0  0999 V2000
    3.9020    0.0630    0.2200 C   0  0  0  0  0  0  0  0  0  0  0  0
    2.4850   -0.2640    0.5500 C   0  0  0  0  0  0  0  0  0  0  0  0
    1.4770    0.2380   -0.1190 C   0  0  0  0  0  0  0  0  0  0  0  0
    1.7660    1.1200   -1.1910 N   0  0  0  0  0  0  0  0  0  0  0  0
    0.1030   -0.0630    0.1890 C   0  0  0  0  0  0  0  0  0  0  0  0
   -0.8210    0.5270   -0.5930 C   0  0  0  0  0  0  0  0  0  0  0  0
   -2.2770    0.4520   -0.5710 C   0  0  0  0  0  0  0  0  0  0  0  0
   -2.9520    1.4760   -1.3510 C   0  0  0  0  0  0  0  0  0  0  0  0
   -4.2130    1.4890   -1.3900 O   0  0  0  0  0  0  0  0  0  0  0  0
   -3.0300   -0.4390    0.0770 C   0  0  0  0  0  0  0  0  0  0  0  0
   -2.5920   -1.5520    0.9180 C   0  0  0  0  0  0  0  0  0  0  0  0
   -1.4020   -1.7550    1.4180 C   0  0  0  0  0  0  0  0  0  0  0  0
   -0.2240   -0.9310    1.2650 N   0  0  0  0  0  0  0  0  0  0  0  0
  1  2  1  0
  2  3  2  3
  3  4  1  0
  3  5  1  0
  5  6  2  0
  5 13  1  0
  6  7  1  0
  7  8  1  0
  7 10  2  0
  8  9  2  0
 10 11  1  0
 11 12  2  0
 12 13  1  0
M  END
