
     RDKit          3D

 35 39  0  0  0  0  0  0  0  0999 V2000
   -8.0440   -1.6620   -0.2400 C   0  0  0  0  0  0  0  0  0  0  0  0
   -8.3270   -0.1890   -0.2640 C   0  0  2  0  0  0  0  0  0  0  0  0
   -7.4320    0.5530   -1.2130 C   0  0  0  0  0  0  0  0  0  0  0  0
   -6.9740    1.8080   -0.5340 C   0  0  1  0  0  0  0  0  0  0  0  0
   -7.9270    1.9490    0.6450 C   0  0  0  0  0  0  0  0  0  0  0  0
   -8.1030    0.4860    1.0670 C   0  0  2  0  0  0  0  0  0  0  0  0
   -6.4900    0.0080    1.7960 S   0  0  0  0  0  0  0  0  0  0  0  0
   -5.2540    0.6400    0.6710 C   0  0  0  0  0  0  0  0  0  0  0  0
   -4.0330    0.0150    0.5480 N   0  0  0  0  0  0  0  0  0  0  0  0
   -4.0450   -1.3150   -0.1410 C   0  0  0  0  0  0  0  0  0  0  0  0
   -3.3090   -0.9840   -1.4190 C   0  0  0  0  0  0  0  0  0  0  0  0
   -3.5490   -1.5120   -2.5210 O   0  0  0  0  0  0  0  0  0  0  0  0
   -2.3230   -0.0130   -1.2260 O   0  0  0  0  0  0  0  0  0  0  0  0
   -1.7560   -0.0480    0.1390 C   0  0  1  0  0  0  0  0  0  0  0  0
   -0.3270    0.1620   -0.0010 C   0  0  0  0  0  0  0  0  0  0  0  0
    0.1720    0.6820   -0.9980 O   0  0  0  0  0  0  0  0  0  0  0  0
    0.5840   -0.2950    1.0360 N   0  0  0  0  0  0  0  0  0  0  0  0
    1.9910   -0.2930    0.8420 C   0  0  0  0  0  0  0  0  0  0  0  0
    2.7540    0.1980   -0.1000 C   0  0  0  0  0  0  0  0  0  0  0  0
    4.1150   -0.1920   -0.2670 C   0  0  0  0  0  0  0  0  0  0  0  0
    4.7390   -1.0970    0.5280 C   0  0  0  0  0  0  0  0  0  0  0  0
    6.0180   -1.7800    0.3170 C   0  0  0  0  0  0  0  0  0  0  0  0
    7.2240   -1.0390    0.4420 N   0  0  2  0  0  0  0  0  0  0  0  0
    6.9880    0.1810    1.2470 C   0  0  0  0  0  0  0  0  0  0  0  0
    8.0120   -0.8600   -0.7110 C   0  0  0  0  0  0  0  0  0  0  0  0
    8.3470    0.5770   -0.8780 C   0  0  0  0  0  0  0  0  0  0  0  0
    7.4640    1.5160   -1.4520 C   0  0  0  0  0  0  0  0  0  0  0  0
    8.0630    2.7280   -1.4070 C   0  0  0  0  0  0  0  0  0  0  0  0
    9.2320    2.6100   -0.8630 O   0  0  0  0  0  0  0  0  0  0  0  0
    9.4310    1.3310   -0.5390 C   0  0  0  0  0  0  0  0  0  0  0  0
    3.9090   -1.6230    1.5650 C   0  0  0  0  0  0  0  0  0  0  0  0
    4.7320   -2.7170    2.6640 Cl  0  0  0  0  0  0  0  0  0  0  0  0
    2.6390   -1.2600    1.7210 C   0  0  0  0  0  0  0  0  0  0  0  0
   -2.7580    0.6070    0.9750 C   0  0  0  0  0  0  0  0  0  0  0  0
   -5.5900    1.6550   -0.0710 N   0  0  0  0  0  0  0  0  0  0  0  0
  2  1  1  1
  2  3  1  0
  2  6  1  0
  4  3  1  1
  4  5  1  0
  4 35  1  0
  5  6  1  0
  6  7  1  6
  7  8  1  0
  8  9  1  0
  8 35  2  0
  9 10  1  0
  9 34  1  0
 10 11  1  0
 11 12  2  0
 11 13  1  0
 13 14  1  0
 14 15  1  6
 14 34  1  0
 15 16  2  0
 15 17  1  0
 17 18  1  0
 18 19  2  0
 18 33  1  0
 19 20  1  0
 20 21  2  0
 21 22  1  0
 21 31  1  0
 22 23  1  0
 23 24  1  6
 23 25  1  0
 25 26  1  0
 26 27  1  0
 26 30  2  0
 27 28  2  0
 28 29  1  0
 29 30  1  0
 31 32  1  0
 31 33  2  0
M  CHG  2  23   1  35   1
M  END
