
     RDKit          3D

 34 36  0  0  0  0  0  0  0  0999 V2000
   -4.8940   -3.2760   -3.0250 C   0  0  0  0  0  0  0  0  0  0  0  0
   -4.4710   -2.2870   -1.9800 C   0  0  0  0  0  0  0  0  0  0  0  0
   -5.1740   -1.2970   -1.3410 C   0  0  0  0  0  0  0  0  0  0  0  0
   -4.5060   -0.5580   -0.4340 C   0  0  0  0  0  0  0  0  0  0  0  0
   -3.2200   -0.8020   -0.1890 C   0  0  0  0  0  0  0  0  0  0  0  0
   -2.2590   -0.1370    0.7580 C   0  0  1  0  0  0  0  0  0  0  0  0
   -1.0050    0.0890    0.0550 N   0  0  0  0  0  0  0  0  0  0  0  0
    0.1710   -0.5620    0.4840 C   0  0  0  0  0  0  0  0  0  0  0  0
    0.0310   -1.3360    1.5070 O   0  0  0  0  0  0  0  0  0  0  0  0
    1.4980   -0.4240   -0.1340 C   0  0  0  0  0  0  0  0  0  0  0  0
    2.4680   -1.1220    0.4270 C   0  0  0  0  0  0  0  0  0  0  0  0
    3.8510   -1.1840    0.0600 C   0  0  0  0  0  0  0  0  0  0  0  0
    4.4740   -2.3100   -0.4150 C   0  0  0  0  0  0  0  0  0  0  0  0
    5.8200   -2.3460   -0.7000 C   0  0  0  0  0  0  0  0  0  0  0  0
    6.3770   -3.4910   -1.1670 F   0  0  0  0  0  0  0  0  0  0  0  0
    6.6030   -1.2230   -0.5110 C   0  0  0  0  0  0  0  0  0  0  0  0
    6.0010   -0.0840   -0.0360 C   0  0  0  0  0  0  0  0  0  0  0  0
    4.6560   -0.0510    0.2480 C   0  0  0  0  0  0  0  0  0  0  0  0
    4.0620    1.0790    0.7260 O   0  0  0  0  0  0  0  0  0  0  0  0
    4.5910    2.3230    1.0120 C   0  0  1  0  0  0  0  0  0  0  0  0
    3.9500    3.2390    0.1740 F   0  0  0  0  0  0  0  0  0  0  0  0
    4.4310    2.6940    2.3380 F   0  0  0  0  0  0  0  0  0  0  0  0
    1.7460    0.3270   -1.3200 C   0  0  0  0  0  0  0  0  0  0  0  0
    3.0060    0.3360   -1.9660 N   0  0  0  0  0  0  0  0  0  0  0  0
    0.8610    1.0300   -1.8660 O   0  0  0  0  0  0  0  0  0  0  0  0
   -2.8910    1.0760    1.2500 C   0  0  0  0  0  0  0  0  0  0  0  0
   -3.0990    1.2180    2.5480 C   0  0  0  0  0  0  0  0  0  0  0  0
   -3.7230    2.3900    3.1400 C   0  0  0  0  0  0  0  0  0  0  0  0
   -4.1280    3.4030    2.4110 C   0  0  0  0  0  0  0  0  0  0  0  0
   -3.9390    3.3320    0.9770 C   0  0  0  0  0  0  0  0  0  0  0  0
   -4.4090    4.5420   -0.0210 S   0  0  0  0  0  0  0  0  0  0  0  0
   -3.3180    2.1710    0.3610 C   0  0  0  0  0  0  0  0  0  0  0  0
   -3.1300    2.0580   -0.8770 O   0  0  0  0  0  0  0  0  0  0  0  0
   -2.8440   -2.1290   -1.2500 S   0  0  0  0  0  0  0  0  0  0  0  0
  1  2  1  0
  2  3  2  0
  2 34  1  0
  3  4  1  0
  4  5  2  0
  5  6  1  0
  5 34  1  0
  6  7  1  6
  6 26  1  0
  7  8  1  0
  8  9  2  0
  8 10  1  0
 10 11  2  3
 10 23  1  0
 11 12  1  0
 12 13  2  0
 12 18  1  0
 13 14  1  0
 14 15  1  0
 14 16  2  0
 16 17  1  0
 17 18  2  0
 18 19  1  0
 19 20  1  0
 20 21  1  6
 20 22  1  0
 23 24  1  0
 23 25  2  0
 26 27  2  0
 26 32  1  0
 27 28  1  0
 28 29  2  0
 29 30  1  0
 30 31  2  0
 30 32  1  0
 32 33  2  0
M  END
