
     RDKit          3D

 35 39  0  0  0  0  0  0  0  0999 V2000
   -4.1820    0.7950   -0.5400 C   0  0  0  0  0  0  0  0  0  0  0  0
   -3.5090    0.5400    0.7530 C   0  0  0  0  0  0  0  0  0  0  0  0
   -2.3430   -0.2600    0.7760 N   0  0  0  0  0  0  0  0  0  0  0  0
   -1.5730   -0.3940   -0.4280 C   0  0  2  0  0  0  0  0  0  0  0  0
   -1.3250   -1.8260   -0.7310 C   0  0  0  0  0  0  0  0  0  0  0  0
   -2.6020   -2.5720   -0.9260 C   0  0  0  0  0  0  0  0  0  0  0  0
   -3.2770   -2.2520   -1.9910 N   0  0  0  0  0  0  0  0  0  0  0  0
   -4.5330   -2.8560   -2.3560 C   0  0  0  0  0  0  0  0  0  0  0  0
   -4.9790   -3.7640   -1.4110 O   0  0  0  0  0  0  0  0  0  0  0  0
   -4.2870   -4.1230   -0.2850 C   0  0  0  0  0  0  0  0  0  0  0  0
   -3.1270   -3.5640   -0.0150 C   0  0  0  0  0  0  0  0  0  0  0  0
   -2.1840   -4.0330    1.4000 Cl  0  0  0  0  0  0  0  0  0  0  0  0
   -0.4730    0.5560   -0.6390 C   0  0  1  0  0  0  0  0  0  0  0  0
   -0.8760    1.9910   -0.7120 C   0  0  0  0  0  0  0  0  0  0  0  0
   -1.1480    2.5970   -1.9490 C   0  0  0  0  0  0  0  0  0  0  0  0
   -1.5190    3.8950   -2.0910 C   0  0  0  0  0  0  0  0  0  0  0  0
   -1.6470    4.6930   -0.9970 C   0  0  0  0  0  0  0  0  0  0  0  0
   -1.3910    4.1490    0.2500 C   0  0  0  0  0  0  0  0  0  0  0  0
   -1.0180    2.8360    0.3670 C   0  0  0  0  0  0  0  0  0  0  0  0
   -1.6000    5.1830    1.1510 O   0  0  0  0  0  0  0  0  0  0  0  0
   -2.4370    6.1580    0.5140 C   0  0  0  0  0  0  0  0  0  0  0  0
   -2.0060    6.0420   -0.8380 O   0  0  0  0  0  0  0  0  0  0  0  0
    0.7090    0.4940    0.2000 N   0  0  2  0  0  0  0  0  0  0  0  0
    1.6050    1.4670   -0.4540 C   0  0  0  0  0  0  0  0  0  0  0  0
    2.9670    1.4980    0.1440 C   0  0  0  0  0  0  0  0  0  0  0  0
    3.5820    0.1400   -0.2470 C   0  0  0  0  0  0  0  0  0  0  0  0
    2.7960   -0.7900    0.6120 C   0  0  2  0  0  0  0  0  0  0  0  0
    3.3470   -2.1400    0.5310 C   0  0  0  0  0  0  0  0  0  0  0  0
    2.7820   -3.0640   -0.1460 O   0  0  0  0  0  0  0  0  0  0  0  0
    4.5400   -2.4620    1.2080 N   0  0  0  0  0  0  0  0  0  0  0  0
    5.3650   -1.6340    2.0670 C   0  0  0  0  0  0  0  0  0  0  0  0
    6.7180   -1.5160    1.4030 C   0  0  0  0  0  0  0  0  0  0  0  0
    6.8960   -3.2410    0.7870 S   0  0  0  0  0  0  0  0  0  0  0  0
    5.1740   -3.7990    1.1240 C   0  0  0  0  0  0  0  0  0  0  0  0
    1.3180   -0.7850    0.3130 C   0  0  0  0  0  0  0  0  0  0  0  0
  1  2  1  0
  2  3  1  0
  3  4  1  0
  4  5  1  1
  4 13  1  0
  5  6  1  0
  6  7  2  0
  6 11  1  0
  7  8  1  0
  8  9  1  0
  9 10  1  0
 10 11  2  0
 11 12  1  0
 13 14  1  1
 13 23  1  0
 14 15  2  0
 14 19  1  0
 15 16  1  0
 16 17  2  0
 17 18  1  0
 17 22  1  0
 18 19  2  0
 18 20  1  0
 20 21  1  0
 21 22  1  0
 23 24  1  6
 23 35  1  0
 24 25  1  0
 25 26  1  0
 26 27  1  0
 27 28  1  6
 27 35  1  0
 28 29  2  0
 28 30  1  0
 30 31  1  0
 30 34  1  0
 31 32  1  0
 32 33  1  0
 33 34  1  0
M  CHG  2   3   1  23   1
M  END
