
     RDKit          3D

 39 42  0  0  0  0  0  0  0  0999 V2000
   -1.5660   -1.3420   -2.5630 C   0  0  0  0  0  0  0  0  0  0  0  0
   -1.7620   -1.7920   -1.2230 N   0  0  0  0  0  0  0  0  0  0  0  0
   -2.6190   -2.7780   -1.0760 O   0  0  0  0  0  0  0  0  0  0  0  0
   -2.4940   -3.5440    0.0790 C   0  0  0  0  0  0  0  0  0  0  0  0
   -1.3480   -4.4560    0.1870 C   0  0  0  0  0  0  0  0  0  0  0  0
   -0.6740   -4.9730   -0.8390 C   0  0  0  0  0  0  0  0  0  0  0  0
    0.8010   -4.5670   -0.7720 C   0  0  0  0  0  0  0  0  0  0  0  0
    1.0260   -3.6800    0.4250 C   0  0  2  0  0  0  0  0  0  0  0  0
    2.2230   -3.0500    0.4400 O   0  0  0  0  0  0  0  0  0  0  0  0
    2.1040   -1.9120   -0.3980 C   0  0  0  0  0  0  0  0  0  0  0  0
    1.8160   -0.3660    0.5290 P   0  0  0  0  0  0  0  0  0  0  0  0
    3.2150    0.6040    0.4270 O   0  0  0  0  0  0  0  0  0  0  0  0
    3.0250    1.9190    0.0940 C   0  0  2  0  0  0  0  0  0  0  0  0
    2.2230    2.6220    0.9900 O   0  0  0  0  0  0  0  0  0  0  0  0
    2.4450    2.0810   -1.1630 O   0  0  0  0  0  0  0  0  0  0  0  0
    3.2730    1.8480   -2.1780 N   0  0  0  0  0  0  0  0  0  0  0  0
    4.3230    2.8080   -2.3350 C   0  0  0  0  0  0  0  0  0  0  0  0
    4.9650    3.0000   -1.0000 C   0  0  0  0  0  0  0  0  0  0  0  0
    6.2070    3.6210   -0.9810 O   0  0  0  0  0  0  0  0  0  0  0  0
    4.3510    2.5850    0.0940 C   0  0  0  0  0  0  0  0  0  0  0  0
    5.0140    2.7930    1.3670 C   0  0  0  0  0  0  0  0  0  0  0  0
    6.1430    3.3500    1.4590 O   0  0  0  0  0  0  0  0  0  0  0  0
   -0.0130    0.6840    0.1250 P   0  0  0  0  0  0  0  0  0  0  0  0
   -0.2600    1.8690    1.4010 O   0  0  0  0  0  0  0  0  0  0  0  0
   -1.4350    3.0360    0.9820 P   0  0  0  0  0  0  0  0  0  0  0  0
   -2.9870    2.7390    1.7480 O   0  0  0  0  0  0  0  0  0  0  0  0
   -3.4640    3.7590    2.5850 C   0  0  0  0  0  0  0  0  0  0  0  0
   -2.6600    4.6570    3.1240 C   0  0  0  0  0  0  0  0  0  0  0  0
   -1.2020    4.6630    2.8930 C   0  0  0  0  0  0  0  0  0  0  0  0
   -0.8700    4.5980    1.5230 O   0  0  0  0  0  0  0  0  0  0  0  0
   -1.7910   -0.5100   -0.0240 P   0  0  0  0  0  0  0  0  0  0  0  0
   -3.5270    0.7860   -0.4280 P   0  0  0  0  0  0  0  0  0  0  0  0
   -5.0880   -0.2030   -0.5200 C   0  0  0  0  0  0  0  0  0  0  0  0
   -3.2350    1.6620   -1.9960 C   0  0  0  0  0  0  0  0  0  0  0  0
   -4.3210    1.7950   -2.9030 N   0  0  0  0  0  0  0  0  0  0  0  0
   -2.1330    2.1590   -2.3320 O   0  0  0  0  0  0  0  0  0  0  0  0
    0.6140   -4.3980    1.6760 C   0  0  1  0  0  0  0  0  0  0  0  0
    0.6910   -3.5140    2.8230 N   0  0  0  0  0  0  0  0  0  0  0  0
   -0.8130   -4.8220    1.4690 N   0  0  0  0  0  0  0  0  0  0  0  0
  1  2  1  0
  2  3  1  0
  2 31  1  0
  3  4  1  0
  4  5  1  0
  5  6  2  0
  5 39  1  0
  6  7  1  0
  7  8  1  0
  8  9  1  1
  8 37  1  0
  9 10  1  0
 10 11  1  0
 11 12  1  0
 11 23  1  0
 12 13  1  0
 13 14  1  1
 13 15  1  0
 13 20  1  0
 15 16  1  0
 16 17  1  0
 17 18  1  0
 18 19  1  0
 18 20  2  0
 20 21  1  0
 21 22  2  0
 23 24  1  0
 23 31  1  0
 24 25  1  0
 25 26  1  0
 25 30  1  0
 26 27  1  0
 27 28  2  0
 28 29  1  0
 29 30  1  0
 31 32  1  0
 32 33  1  0
 32 34  1  0
 34 35  1  0
 34 36  2  0
 37 38  1  1
 37 39  1  0
M  END
