
     RDKit          3D

 39 40  0  0  0  0  0  0  0  0999 V2000
   -3.2040   -4.0600    3.8150 C   0  0  0  0  0  0  0  0  0  0  0  0
   -2.0850   -3.4040    3.2120 O   0  0  0  0  0  0  0  0  0  0  0  0
   -2.1860   -2.1330    2.7130 N   0  0  0  0  0  0  0  0  0  0  0  0
   -1.6180   -1.8920    1.5790 C   0  0  0  0  0  0  0  0  0  0  0  0
   -0.8590   -2.8110    0.7270 C   0  0  0  0  0  0  0  0  0  0  0  0
   -0.1160   -4.3560    1.3210 P   0  0  0  0  0  0  0  0  0  0  0  0
   -0.8010   -2.3550   -0.5060 C   0  0  0  0  0  0  0  0  0  0  0  0
    0.0110   -3.0860   -1.9760 P   0  0  0  0  0  0  0  0  0  0  0  0
   -1.0340   -2.7070   -3.4880 C   0  0  0  0  0  0  0  0  0  0  0  0
    0.0860   -4.9490   -1.8470 C   0  0  0  0  0  0  0  0  0  0  0  0
   -1.5370   -1.0640   -0.5670 C   0  0  0  0  0  0  0  0  0  0  0  0
   -1.6090   -0.5650    0.8550 C   0  0  2  0  0  0  0  0  0  0  0  0
   -0.4050    0.0920    1.2800 N   0  0  0  0  0  0  0  0  0  0  0  0
    0.3840    0.6910    0.4810 N   0  0  0  0  0  0  0  0  0  0  0  0
    1.5670    1.3360    0.8960 C   0  0  0  0  0  0  0  0  0  0  0  0
    2.5220    1.5680    0.0620 N   0  0  0  0  0  0  0  0  0  0  0  0
    2.4770    1.2070   -1.3120 C   0  0  0  0  0  0  0  0  0  0  0  0
    1.4560    1.3090   -2.0170 O   0  0  0  0  0  0  0  0  0  0  0  0
    3.7270    0.6850   -1.9070 C   0  0  0  0  0  0  0  0  0  0  0  0
    3.4190    0.2920   -3.6880 P   0  0  0  0  0  0  0  0  0  0  0  0
    4.8210   -0.7870   -4.2760 C   0  0  0  0  0  0  0  0  0  0  0  0
    1.7580    1.7490    2.2070 O   0  0  0  0  0  0  0  0  0  0  0  0
    2.9350    2.3790    2.5640 C   0  0  0  0  0  0  0  0  0  0  0  0
    3.8250    2.5760    1.7000 O   0  0  0  0  0  0  0  0  0  0  0  0
    3.1890    2.8160    3.8570 O   0  0  0  0  0  0  0  0  0  0  0  0
    4.3860    3.4550    4.2100 C   0  0  0  0  0  0  0  0  0  0  0  0
   -2.7690    0.0630    1.1710 O   0  0  0  0  0  0  0  0  0  0  0  0
   -3.1320    1.5550    0.5640 P   0  0  0  0  0  0  0  0  0  0  0  0
   -4.0260    1.6980   -0.9710 C   0  0  0  0  0  0  0  0  0  0  0  0
   -4.8450    0.7540   -1.3530 C   0  0  0  0  0  0  0  0  0  0  0  0
   -5.9660    0.1910   -1.4580 O   0  0  0  0  0  0  0  0  0  0  0  0
   -3.8510    2.8200   -1.7650 O   0  0  0  0  0  0  0  0  0  0  0  0
   -2.5240    3.9360   -1.6290 P   0  0  0  0  0  0  0  0  0  0  0  0
   -3.1770    5.5420   -1.5350 O   0  0  0  0  0  0  0  0  0  0  0  0
   -1.4390    3.6310   -0.1900 C   0  0  0  0  0  0  0  0  0  0  0  0
   -2.0610    2.9080    0.8910 N   0  0  0  0  0  0  0  0  0  0  0  0
   -1.8060    3.2930    2.2160 C   0  0  0  0  0  0  0  0  0  0  0  0
   -2.3350    2.6810    3.1650 O   0  0  0  0  0  0  0  0  0  0  0  0
   -0.9670    4.3540    2.4880 O   0  0  0  0  0  0  0  0  0  0  0  0
  1  2  1  0
  2  3  1  0
  3  4  2  3
  4  5  1  0
  4 12  1  0
  5  6  1  0
  5  7  2  0
  7  8  1  0
  7 11  1  0
  8  9  1  0
  8 10  1  0
 11 12  1  0
 12 13  1  0
 12 27  1  6
 13 14  2  3
 14 15  1  0
 15 16  2  3
 15 22  1  0
 16 17  1  0
 17 18  2  0
 17 19  1  0
 19 20  1  0
 20 21  1  0
 22 23  1  0
 23 24  2  0
 23 25  1  0
 25 26  1  0
 27 28  1  0
 28 29  1  0
 28 36  1  0
 29 30  2  0
 29 32  1  0
 30 31  2  0
 32 33  1  0
 33 34  1  0
 33 35  1  0
 35 36  1  0
 36 37  1  0
 37 38  2  0
 37 39  1  0
M  END
