
     RDKit          3D

 39 43  0  0  0  0  0  0  0  0999 V2000
    1.8340   -4.6430   -3.0010 C   0  0  0  0  0  0  0  0  0  0  0  0
    1.9120   -3.2330   -1.8180 P   0  0  0  0  0  0  0  0  0  0  0  0
    0.7780   -2.0250   -1.8580 C   0  0  0  0  0  0  0  0  0  0  0  0
   -0.2750   -2.1310   -2.8660 C   0  0  0  0  0  0  0  0  0  0  0  0
    0.9330   -0.9210   -0.8680 C   0  0  0  0  0  0  0  0  0  0  0  0
    1.9390   -0.9490   -0.0370 C   0  0  0  0  0  0  0  0  0  0  0  0
    2.2220    0.0440    0.9740 C   0  0  1  0  0  0  0  0  0  0  0  0
    2.5590   -0.5920    2.3070 C   0  0  0  0  0  0  0  0  0  0  0  0
    1.7200   -0.6460    3.2400 O   0  0  0  0  0  0  0  0  0  0  0  0
    3.8630   -1.0800    2.3360 N   0  0  0  0  0  0  0  0  0  0  0  0
    4.8680   -0.1340    1.9020 C   0  0  1  0  0  0  0  0  0  0  0  0
    6.2830   -0.9920    1.0590 P   0  0  0  0  0  0  0  0  0  0  0  0
    6.9750   -0.0310   -0.1920 O   0  0  0  0  0  0  0  0  0  0  0  0
    3.8860    0.8800    0.6860 P   0  0  0  0  0  0  0  0  0  0  0  0
    3.8550    2.5630    1.2940 N   0  0  0  0  0  0  0  0  0  0  0  0
    5.1180    3.0490    1.2990 O   0  0  0  0  0  0  0  0  0  0  0  0
    1.1470    0.9990    1.1410 C   0  0  0  0  0  0  0  0  0  0  0  0
    1.1480    1.7020    2.1670 O   0  0  0  0  0  0  0  0  0  0  0  0
    0.0410    1.2030    0.1770 C   0  0  2  0  0  0  0  0  0  0  0  0
    0.2780    2.9370   -0.4590 P   0  0  0  0  0  0  0  0  0  0  0  0
   -0.3820    4.1260    0.5680 O   0  0  0  0  0  0  0  0  0  0  0  0
    1.8490    3.2650   -1.0180 O   0  0  0  0  0  0  0  0  0  0  0  0
   -1.1410    1.1620    0.9060 O   0  0  0  0  0  0  0  0  0  0  0  0
   -2.0840    0.4260    0.1270 C   0  0  2  0  0  0  0  0  0  0  0  0
   -1.3690   -0.3500   -0.7060 O   0  0  0  0  0  0  0  0  0  0  0  0
   -0.0680    0.1690   -0.8630 C   0  0  2  0  0  0  0  0  0  0  0  0
   -0.0330    0.7920   -2.2700 C   0  0  0  0  0  0  0  0  0  0  0  0
   -2.8980    1.5300   -0.5400 C   0  0  1  0  0  0  0  0  0  0  0  0
   -3.9180    1.0920   -1.3380 O   0  0  0  0  0  0  0  0  0  0  0  0
   -4.8430    2.0670   -1.1920 N   0  0  0  0  0  0  0  0  0  0  0  0
   -4.8540    2.4570    0.0800 O   0  0  0  0  0  0  0  0  0  0  0  0
   -3.6860    2.0110    0.6900 C   0  0  1  0  0  0  0  0  0  0  0  0
   -3.9500    0.7880    1.3690 N   0  0  0  0  0  0  0  0  0  0  0  0
   -4.1350    0.9310    2.7900 C   0  0  0  0  0  0  0  0  0  0  0  0
   -2.9430   -0.1380    1.0530 N   0  0  0  0  0  0  0  0  0  0  0  0
   -3.3190   -1.4350    1.2460 C   0  0  0  0  0  0  0  0  0  0  0  0
   -4.2290   -2.1530    0.3170 C   0  0  0  0  0  0  0  0  0  0  0  0
   -3.5950   -2.3240   -1.3950 P   0  0  0  0  0  0  0  0  0  0  0  0
   -4.4700   -1.8950   -2.6040 O   0  0  0  0  0  0  0  0  0  0  0  0
  1  2  1  0
  2  3  2  3
  3  4  1  0
  3  5  1  0
  5  6  2  0
  5 26  1  0
  6  7  1  0
  7  8  1  0
  7 14  1  6
  7 17  1  0
  8  9  2  0
  8 10  1  0
 10 11  1  0
 11 12  1  6
 11 14  1  0
 12 13  1  0
 14 15  1  0
 15 16  1  0
 17 18  2  0
 17 19  1  0
 19 20  1  6
 19 23  1  0
 19 26  1  0
 20 21  1  0
 20 22  1  0
 24 23  1  1
 24 25  1  0
 24 28  1  0
 24 35  1  0
 25 26  1  0
 26 27  1  6
 28 29  1  6
 28 32  1  0
 29 30  1  0
 30 31  1  0
 32 31  1  6
 32 33  1  0
 33 34  1  0
 33 35  1  0
 35 36  1  0
 36 37  1  0
 37 38  1  0
 38 39  2  0
M  END
