
     RDKit          3D

 39 42  0  0  0  0  0  0  0  0999 V2000
    6.5380   -2.4980    0.8880 C   0  0  0  0  0  0  0  0  0  0  0  0
    5.8560   -3.0890   -0.7290 P   0  0  0  0  0  0  0  0  0  0  0  0
    4.7840   -2.2340   -1.6060 N   0  0  0  0  0  0  0  0  0  0  0  0
    4.3610   -0.9860   -1.1020 C   0  0  0  0  0  0  0  0  0  0  0  0
    4.9890    0.1040   -1.4850 C   0  0  0  0  0  0  0  0  0  0  0  0
    6.0700    0.0100   -2.3900 N   0  0  0  0  0  0  0  0  0  0  0  0
    4.6250    1.4050   -1.0240 N   0  0  0  0  0  0  0  0  0  0  0  0
    3.9630    1.5820    0.2730 C   0  0  0  0  0  0  0  0  0  0  0  0
    2.5910    0.9570    0.1720 C   0  0  2  0  0  0  0  0  0  0  0  0
    1.8170    1.1350    1.4200 C   0  0  0  0  0  0  0  0  0  0  0  0
    0.3900    0.7230    1.3760 C   0  0  0  0  0  0  0  0  0  0  0  0
   -0.1970    0.0740   -0.2250 P   0  0  0  0  0  0  0  0  0  0  0  0
   -1.9510   -0.3270   -0.1560 C   0  0  0  0  0  0  0  0  0  0  0  0
   -2.4450   -1.4200    0.3220 C   0  0  0  0  0  0  0  0  0  0  0  0
   -2.4180   -2.6030   -0.1050 C   0  0  0  0  0  0  0  0  0  0  0  0
   -3.6200   -3.0540   -0.8380 C   0  0  1  0  0  0  0  0  0  0  0  0
   -4.6410   -1.9100   -0.8830 C   0  0  0  0  0  0  0  0  0  0  0  0
   -3.3330   -3.3350   -2.1750 O   0  0  0  0  0  0  0  0  0  0  0  0
   -4.2800   -4.2060   -0.2170 C   0  0  0  0  0  0  0  0  0  0  0  0
   -4.6930   -4.2140    1.1430 N   0  0  0  0  0  0  0  0  0  0  0  0
   -4.4980   -5.2370   -0.8990 O   0  0  0  0  0  0  0  0  0  0  0  0
   -1.4240   -3.5570    0.0080 O   0  0  0  0  0  0  0  0  0  0  0  0
    0.3160   -3.4200    0.1500 P   0  0  0  0  0  0  0  0  0  0  0  0
    0.8910   -3.6430    1.7380 O   0  0  0  0  0  0  0  0  0  0  0  0
    1.0720   -1.6510   -0.8400 P   0  0  0  0  0  0  0  0  0  0  0  0
    2.9830   -0.9040    0.0480 P   0  0  0  0  0  0  0  0  0  0  0  0
   -2.8070    0.6190   -0.6550 O   0  0  0  0  0  0  0  0  0  0  0  0
   -3.2380    1.7790   -0.1680 N   0  0  0  0  0  0  0  0  0  0  0  0
   -2.7390    2.9040    0.0680 C   0  0  0  0  0  0  0  0  0  0  0  0
   -3.5560    3.8990    0.6020 O   0  0  0  0  0  0  0  0  0  0  0  0
   -4.8900    3.7370    0.8940 C   0  0  0  0  0  0  0  0  0  0  0  0
   -5.7110    4.8380    1.4620 C   0  0  0  0  0  0  0  0  0  0  0  0
   -5.3850    2.5840    0.6480 O   0  0  0  0  0  0  0  0  0  0  0  0
   -1.4370    3.2080   -0.1690 O   0  0  0  0  0  0  0  0  0  0  0  0
   -0.7280    3.3310   -1.2630 O   0  0  0  0  0  0  0  0  0  0  0  0
    0.6180    3.5240   -0.8610 C   0  0  0  0  0  0  0  0  0  0  0  0
    1.5020    2.5110   -1.4830 C   0  0  0  0  0  0  0  0  0  0  0  0
    1.9110    2.8180   -2.6600 O   0  0  0  0  0  0  0  0  0  0  0  0
    1.8880    1.3570   -0.9390 O   0  0  0  0  0  0  0  0  0  0  0  0
  1  2  1  0
  2  3  2  3
  3  4  1  0
  4  5  2  0
  4 26  1  0
  5  6  1  0
  5  7  1  0
  7  8  1  0
  9  8  1  1
  9 10  1  0
  9 26  1  0
  9 39  1  0
 10 11  1  0
 11 12  1  0
 12 13  1  0
 12 25  1  0
 13 14  2  0
 13 27  1  0
 14 15  2  0
 15 16  1  0
 15 22  1  0
 16 17  1  6
 16 18  1  0
 16 19  1  0
 19 20  1  0
 19 21  2  0
 22 23  1  0
 23 24  1  0
 23 25  1  0
 25 26  1  0
 27 28  1  0
 28 29  2  0
 29 30  1  0
 29 34  1  0
 30 31  1  0
 31 32  1  0
 31 33  2  0
 34 35  1  0
 35 36  1  0
 36 37  1  0
 37 38  2  0
 37 39  1  0
M  END
