
     RDKit          3D

 42 43  0  0  0  0  0  0  0  0999 V2000
    8.9200    2.8930   -0.1560 C   0  0  0  0  0  0  0  0  0  0  0  0
    8.9720    1.4460   -0.4260 C   0  0  0  0  0  0  0  0  0  0  0  0
    7.7140    0.6540   -0.4760 C   0  0  0  0  0  0  0  0  0  0  0  0
    6.8790    0.5680    0.7450 C   0  0  0  0  0  0  0  0  0  0  0  0
    6.2730    1.8260    1.2410 C   0  0  0  0  0  0  0  0  0  0  0  0
    5.3270    2.4300    0.2430 C   0  0  2  0  0  0  0  0  0  0  0  0
    4.7470    3.7120    0.8150 C   0  0  0  0  0  0  0  0  0  0  0  0
    4.1670    1.5400   -0.0310 C   0  0  0  0  0  0  0  0  0  0  0  0
    3.9140    1.1830   -1.3280 C   0  0  0  0  0  0  0  0  0  0  0  0
    2.8340    0.3430   -1.6140 C   0  0  0  0  0  0  0  0  0  0  0  0
    2.0090   -0.1410   -0.6270 C   0  0  0  0  0  0  0  0  0  0  0  0
    0.8950   -1.0160   -0.9990 C   0  0  0  0  0  0  0  0  0  0  0  0
    0.6440   -1.2450   -2.2110 O   0  0  0  0  0  0  0  0  0  0  0  0
    0.0650   -1.6310   -0.0290 N   0  0  0  0  0  0  0  0  0  0  0  0
   -1.0160   -2.4780   -0.4950 C   0  0  1  0  0  0  0  0  0  0  0  0
   -0.5550   -3.8820   -0.1570 C   0  0  0  0  0  0  0  0  0  0  0  0
    0.5500   -4.0550    0.4040 O   0  0  0  0  0  0  0  0  0  0  0  0
   -1.3010   -5.0090   -0.4390 O   0  0  0  0  0  0  0  0  0  0  0  0
   -0.9010   -6.3190   -0.1370 C   0  0  0  0  0  0  0  0  0  0  0  0
   -1.9970   -7.2520   -0.6190 C   0  0  0  0  0  0  0  0  0  0  0  0
   -2.2880   -2.2710    0.1850 C   0  0  2  0  0  0  0  0  0  0  0  0
   -3.3510   -3.1520   -0.3710 C   0  0  0  0  0  0  0  0  0  0  0  0
   -3.2330   -3.6920   -1.4830 O   0  0  0  0  0  0  0  0  0  0  0  0
   -4.5670   -3.4070    0.3760 N   0  0  0  0  0  0  0  0  0  0  0  0
   -5.4720   -4.3210   -0.2420 C   0  0  0  0  0  0  0  0  0  0  0  0
   -4.9580   -2.8510    1.6400 C   0  0  0  0  0  0  0  0  0  0  0  0
   -5.9960   -3.2660    2.1960 O   0  0  0  0  0  0  0  0  0  0  0  0
   -4.1330   -1.7740    2.3030 C   0  0  0  0  0  0  0  0  0  0  0  0
   -3.7930   -0.7220    1.2740 C   0  0  0  0  0  0  0  0  0  0  0  0
   -2.7950   -0.9450    0.3490 N   0  0  0  0  0  0  0  0  0  0  0  0
   -2.6560   -0.1500   -0.7970 C   0  0  0  0  0  0  0  0  0  0  0  0
   -2.2290    1.2580   -0.7050 C   0  0  2  0  0  0  0  0  0  0  0  0
   -0.9930    1.4360   -0.0690 O   0  0  0  0  0  0  0  0  0  0  0  0
   -3.4880    2.5040   -0.3140 P   0  0  0  0  0  0  0  0  0  0  0  0
   -2.9200    3.9560    0.3790 O   0  0  0  0  0  0  0  0  0  0  0  0
   -3.7480    5.0330    0.0580 C   0  0  0  0  0  0  0  0  0  0  0  0
   -3.2800    6.3320    0.6430 C   0  0  0  0  0  0  0  0  0  0  0  0
   -4.9410    2.0130    0.3750 O   0  0  0  0  0  0  0  0  0  0  0  0
   -5.9250    1.8610   -0.6010 C   0  0  0  0  0  0  0  0  0  0  0  0
   -7.2430    1.4180    0.0110 C   0  0  0  0  0  0  0  0  0  0  0  0
    2.2750    0.2250    0.6700 C   0  0  0  0  0  0  0  0  0  0  0  0
    3.3520    1.0630    0.9650 C   0  0  0  0  0  0  0  0  0  0  0  0
  1  2  1  0
  2  3  1  0
  3  4  1  0
  4  5  1  0
  5  6  1  0
  6  7  1  1
  6  8  1  0
  8  9  2  0
  8 42  1  0
  9 10  1  0
 10 11  2  0
 11 12  1  0
 11 41  1  0
 12 13  2  0
 12 14  1  0
 15 14  1  1
 15 16  1  0
 15 21  1  0
 16 17  2  0
 16 18  1  0
 18 19  1  0
 19 20  1  0
 21 22  1  0
 21 30  1  6
 22 23  2  0
 22 24  1  0
 24 25  1  0
 24 26  1  0
 26 27  2  0
 26 28  1  0
 28 29  1  0
 29 30  1  0
 30 31  1  0
 31 32  1  0
 32 33  1  1
 32 34  1  0
 34 35  1  0
 34 38  1  0
 35 36  1  0
 36 37  1  0
 38 39  1  0
 39 40  1  0
 41 42  2  0
M  END
