
     RDKit          3D

 41 42  0  0  0  0  0  0  0  0999 V2000
    5.0640    1.0820    1.8350 C   0  0  0  0  0  0  0  0  0  0  0  0
    4.7660   -0.3470    1.9250 C   0  0  0  0  0  0  0  0  0  0  0  0
    4.3190   -1.1540    0.7830 C   0  0  2  0  0  0  0  0  0  0  0  0
    5.1840   -1.3070   -0.3630 C   0  0  0  0  0  0  0  0  0  0  0  0
    5.7320   -0.2610   -1.2140 C   0  0  0  0  0  0  0  0  0  0  0  0
    6.7440    0.6590   -0.6660 C   0  0  0  0  0  0  0  0  0  0  0  0
    6.7680    1.9020   -0.8950 O   0  0  0  0  0  0  0  0  0  0  0  0
    7.7660    0.1880    0.1610 O   0  0  0  0  0  0  0  0  0  0  0  0
    8.7800    0.9480    0.7270 C   0  0  0  0  0  0  0  0  0  0  0  0
    9.6590    1.6510   -0.2920 C   0  0  1  0  0  0  0  0  0  0  0  0
   10.7170    2.4360    0.4920 C   0  0  0  0  0  0  0  0  0  0  0  0
   10.4170    0.6450   -1.1390 C   0  0  0  0  0  0  0  0  0  0  0  0
    2.8920   -1.1340    0.4970 N   0  0  0  0  0  0  0  0  0  0  0  0
    2.1050   -2.3060    0.8770 C   0  0  0  0  0  0  0  0  0  0  0  0
    0.6490   -2.1580    0.4610 C   0  0  1  0  0  0  0  0  0  0  0  0
   -0.0550   -1.2700    1.4410 C   0  0  0  0  0  0  0  0  0  0  0  0
   -1.4790   -1.1020    1.1480 C   0  0  0  0  0  0  0  0  0  0  0  0
   -2.1120   -1.7710    0.2970 O   0  0  0  0  0  0  0  0  0  0  0  0
   -2.2910   -0.1340    1.8260 N   0  0  0  0  0  0  0  0  0  0  0  0
   -3.6610    0.1120    1.6320 C   0  0  0  0  0  0  0  0  0  0  0  0
   -4.0860    0.5230    0.2600 C   0  0  0  0  0  0  0  0  0  0  0  0
   -5.4730    0.7880    0.1140 N   0  0  0  0  0  0  0  0  0  0  0  0
   -6.5510   -0.0930    0.3430 C   0  0  0  0  0  0  0  0  0  0  0  0
   -6.2570   -1.2530    0.7200 O   0  0  0  0  0  0  0  0  0  0  0  0
   -7.9530    0.2970    0.1590 C   0  0  0  0  0  0  0  0  0  0  0  0
   -8.9340   -0.4930    0.7090 C   0  0  0  0  0  0  0  0  0  0  0  0
  -10.2850   -0.1910    0.5840 C   0  0  0  0  0  0  0  0  0  0  0  0
  -10.6900    0.9310   -0.1080 C   0  0  0  0  0  0  0  0  0  0  0  0
  -12.4510    1.3940   -0.3060 P   0  0  0  0  0  0  0  0  0  0  0  0
  -12.7420    2.1600   -1.9920 C   0  0  0  0  0  0  0  0  0  0  0  0
  -12.9320    2.6990    0.9380 C   0  0  0  0  0  0  0  0  0  0  0  0
   -9.7060    1.7240   -0.6590 C   0  0  0  0  0  0  0  0  0  0  0  0
   -8.3520    1.4140   -0.5300 C   0  0  0  0  0  0  0  0  0  0  0  0
    0.5240   -1.6050   -0.9180 C   0  0  2  0  0  0  0  0  0  0  0  0
    1.0830   -2.6120   -1.8950 C   0  0  0  0  0  0  0  0  0  0  0  0
    0.2970   -3.0650   -2.7680 O   0  0  0  0  0  0  0  0  0  0  0  0
    2.3850   -3.0470   -1.8750 O   0  0  0  0  0  0  0  0  0  0  0  0
    2.8020   -3.9970   -2.8420 C   0  0  0  0  0  0  0  0  0  0  0  0
    1.2400   -0.3080   -1.1790 C   0  0  0  0  0  0  0  0  0  0  0  0
    2.2170   -0.0690   -0.1120 C   0  0  0  0  0  0  0  0  0  0  0  0
    2.4300    1.1080    0.2390 O   0  0  0  0  0  0  0  0  0  0  0  0
  1  2  1  0
  3  2  1  6
  3  4  1  0
  3 13  1  0
  4  5  1  0
  5  6  1  0
  6  7  2  0
  6  8  1  0
  8  9  1  0
  9 10  1  0
 10 11  1  1
 10 12  1  0
 13 14  1  0
 13 40  1  0
 14 15  1  0
 15 16  1  1
 15 34  1  0
 16 17  1  0
 17 18  2  0
 17 19  1  0
 19 20  1  0
 20 21  1  0
 21 22  1  0
 22 23  1  0
 23 24  2  0
 23 25  1  0
 25 26  2  0
 25 33  1  0
 26 27  1  0
 27 28  2  0
 28 29  1  0
 28 32  1  0
 29 30  1  0
 29 31  1  0
 32 33  2  0
 34 35  1  6
 34 39  1  0
 35 36  2  0
 35 37  1  0
 37 38  1  0
 39 40  1  0
 40 41  2  0
M  END
