
     RDKit          3D

 40 40  0  0  0  0  0  0  0  0999 V2000
    3.2080    1.2190    2.9460 C   0  0  0  0  0  0  0  0  0  0  0  0
    3.4200    0.6380    1.6460 N   0  0  0  0  0  0  0  0  0  0  0  0
    4.6290    0.9990    1.1860 O   0  0  0  0  0  0  0  0  0  0  0  0
    2.3450    1.0270    0.7580 C   0  0  1  0  0  0  0  0  0  0  0  0
    2.3450    2.4230    0.6640 O   0  0  0  0  0  0  0  0  0  0  0  0
    2.5050    0.4910   -0.5760 N   0  0  0  0  0  0  0  0  0  0  0  0
    3.6400    0.8980   -1.0560 O   0  0  0  0  0  0  0  0  0  0  0  0
    3.9320    0.6130   -2.3010 O   0  0  0  0  0  0  0  0  0  0  0  0
    4.2510   -1.1040   -2.2440 S   0  0  0  0  0  0  0  0  0  0  0  0
    2.7760   -1.7520   -1.3640 C   0  0  2  0  0  0  0  0  0  0  0  0
    3.2480   -2.6010   -0.2530 C   0  0  0  0  0  0  0  0  0  0  0  0
    2.9380   -2.3800    0.9270 O   0  0  0  0  0  0  0  0  0  0  0  0
    4.0670   -3.6810   -0.5410 O   0  0  0  0  0  0  0  0  0  0  0  0
    2.0470   -2.5710   -2.3880 C   0  0  0  0  0  0  0  0  0  0  0  0
    1.8340   -3.8280   -2.1270 C   0  0  0  0  0  0  0  0  0  0  0  0
    1.7370   -5.0730   -1.9910 O   0  0  0  0  0  0  0  0  0  0  0  0
    1.5920   -2.0260   -3.6030 N   0  0  0  0  0  0  0  0  0  0  0  0
    1.7090   -0.7100   -3.8300 O   0  0  0  0  0  0  0  0  0  0  0  0
    1.9670   -0.7010   -0.8400 N   0  0  0  0  0  0  0  0  0  0  0  0
    0.7340   -0.6500   -1.3900 O   0  0  0  0  0  0  0  0  0  0  0  0
   -0.1480   -0.9480   -0.4360 O   0  0  0  0  0  0  0  0  0  0  0  0
   -1.1250    0.0340   -0.0280 C   0  0  0  0  0  0  0  0  0  0  0  0
   -1.4980    0.9670   -1.0330 C   0  0  0  0  0  0  0  0  0  0  0  0
   -0.8720    0.7190   -2.1910 O   0  0  0  0  0  0  0  0  0  0  0  0
   -2.3450    2.0630   -1.1070 N   0  0  0  0  0  0  0  0  0  0  0  0
   -3.1490    2.7120   -0.1210 C   0  0  0  0  0  0  0  0  0  0  0  0
   -4.4880    2.0750   -0.0810 C   0  0  0  0  0  0  0  0  0  0  0  0
   -5.4750    2.5640    0.8410 N   0  0  0  0  0  0  0  0  0  0  0  0
   -4.8350    1.1130   -0.8130 O   0  0  0  0  0  0  0  0  0  0  0  0
   -2.4960    2.8320   -2.7870 P   0  0  0  0  0  0  0  0  0  0  0  0
   -0.9510    2.6940   -3.5420 O   0  0  0  0  0  0  0  0  0  0  0  0
   -2.8160    4.5380   -2.6010 O   0  0  0  0  0  0  0  0  0  0  0  0
   -1.5120   -0.0940    1.2040 C   0  0  0  0  0  0  0  0  0  0  0  0
   -2.4380    0.6630    1.9460 N   0  0  0  0  0  0  0  0  0  0  0  0
   -2.0030    1.2950    2.9400 O   0  0  0  0  0  0  0  0  0  0  0  0
   -0.9090   -1.2320    2.0580 C   0  0  1  0  0  0  0  0  0  0  0  0
   -0.2540   -0.6180    3.1140 O   0  0  0  0  0  0  0  0  0  0  0  0
   -2.1090   -1.9760    2.6070 C   0  0  0  0  0  0  0  0  0  0  0  0
   -2.9270   -2.5040    1.4450 C   0  0  0  0  0  0  0  0  0  0  0  0
   -2.1380   -3.3650    0.6890 O   0  0  0  0  0  0  0  0  0  0  0  0
  1  2  1  0
  2  3  1  0
  2  4  1  0
  4  5  1  6
  4  6  1  0
  6  7  1  0
  6 19  1  0
  7  8  1  0
  8  9  1  0
  9 10  1  0
 10 11  1  1
 10 14  1  0
 10 19  1  0
 11 12  2  0
 11 13  1  0
 14 15  2  0
 14 17  1  0
 15 16  2  0
 17 18  1  0
 19 20  1  0
 20 21  1  0
 21 22  1  0
 22 23  1  0
 22 33  2  3
 23 24  2  0
 23 25  1  0
 25 26  1  0
 25 30  1  0
 26 27  1  0
 27 28  1  0
 27 29  2  0
 30 31  1  0
 30 32  1  0
 33 34  1  0
 33 36  1  0
 34 35  2  0
 36 37  1  1
 36 38  1  0
 38 39  1  0
 39 40  1  0
M  END
