
     RDKit          3D

 34 38  0  0  0  0  0  0  0  0999 V2000
    6.8900    4.1770   -1.3370 N   0  0  0  0  0  0  0  0  0  0  0  0
    6.8040    2.8030   -0.9990 C   0  0  0  0  0  0  0  0  0  0  0  0
    7.9260    2.1740   -0.6150 N   0  0  0  0  0  0  0  0  0  0  0  0
    7.9190    0.8560   -0.2760 C   0  0  0  0  0  0  0  0  0  0  0  0
    6.7750    0.1480   -0.3190 N   0  0  0  0  0  0  0  0  0  0  0  0
    5.6170    0.7170   -0.6950 C   0  0  0  0  0  0  0  0  0  0  0  0
    5.6430    2.0610   -1.0370 C   0  0  0  0  0  0  0  0  0  0  0  0
    4.3940    2.3840   -1.3670 N   0  0  0  0  0  0  0  0  0  0  0  0
    3.6180    1.2750   -1.2340 C   0  0  0  0  0  0  0  0  0  0  0  0
    4.3640    0.2360   -0.8180 N   0  0  0  0  0  0  0  0  0  0  0  0
    3.9440   -1.1400   -0.5460 C   0  0  2  0  0  0  0  0  0  0  0  0
    2.6580   -1.3540   -0.9510 O   0  0  0  0  0  0  0  0  0  0  0  0
    1.9540   -1.9250    0.1000 C   0  0  2  0  0  0  0  0  0  0  0  0
    0.5200   -1.5020    0.0700 C   0  0  0  0  0  0  0  0  0  0  0  0
   -0.1380   -2.0800    1.1090 O   0  0  0  0  0  0  0  0  0  0  0  0
   -1.7240   -1.7630    1.2860 P   0  0  0  0  0  0  0  0  0  0  0  0
   -2.1290   -3.2260    1.4450 O   0  0  0  0  0  0  0  0  0  0  0  0
   -2.4000   -1.4500    2.7750 O   0  0  0  0  0  0  0  0  0  0  0  0
   -2.7150   -1.5040   -0.0900 N   0  0  0  0  0  0  0  0  0  0  0  0
   -4.0790   -1.7600    0.3170 C   0  0  0  0  0  0  0  0  0  0  0  0
   -5.0450   -1.5670   -0.8080 C   0  0  0  0  0  0  0  0  0  0  0  0
   -4.9610   -0.1520   -1.3010 C   0  0  0  0  0  0  0  0  0  0  0  0
   -4.3570    0.3050   -2.4280 C   0  0  0  0  0  0  0  0  0  0  0  0
   -4.5270    1.6400   -2.4700 N   0  0  0  0  0  0  0  0  0  0  0  0
   -5.2260    2.0470   -1.3950 C   0  0  0  0  0  0  0  0  0  0  0  0
   -5.6490    3.3200   -0.9960 C   0  0  0  0  0  0  0  0  0  0  0  0
   -6.3630    3.4030    0.1820 C   0  0  0  0  0  0  0  0  0  0  0  0
   -6.6450    2.2690    0.9330 C   0  0  0  0  0  0  0  0  0  0  0  0
   -6.2230    1.0300    0.5290 C   0  0  0  0  0  0  0  0  0  0  0  0
   -5.5060    0.9240   -0.6490 C   0  0  0  0  0  0  0  0  0  0  0  0
    2.6200   -1.3690    1.3670 C   0  0  1  0  0  0  0  0  0  0  0  0
    2.4220   -2.1720    2.4590 O   0  0  0  0  0  0  0  0  0  0  0  0
    4.0680   -1.4700    0.9260 C   0  0  1  0  0  0  0  0  0  0  0  0
    4.4440   -2.8010    1.0980 O   0  0  0  0  0  0  0  0  0  0  0  0
  1  2  1  0
  2  3  2  0
  2  7  1  0
  3  4  1  0
  4  5  2  0
  5  6  1  0
  6  7  2  0
  6 10  1  0
  7  8  1  0
  8  9  2  0
  9 10  1  0
 11 10  1  1
 11 12  1  0
 11 33  1  0
 12 13  1  0
 13 14  1  6
 13 31  1  0
 14 15  1  0
 15 16  1  0
 16 17  1  0
 16 18  1  0
 16 19  1  0
 19 20  1  0
 20 21  1  0
 21 22  1  0
 22 23  2  0
 22 30  1  0
 23 24  1  0
 24 25  1  0
 25 26  2  0
 25 30  1  0
 26 27  1  0
 27 28  2  0
 28 29  1  0
 29 30  2  0
 31 32  1  1
 31 33  1  0
 33 34  1  6
M  END
