
     RDKit          3D

 19 20  0  0  0  0  0  0  0  0999 V2000
    6.3960    0.5360    1.1570 N   0  0  0  0  0  0  0  0  0  0  0  0
    5.3660    0.5080    0.1480 C   0  0  0  0  0  0  0  0  0  0  0  0
    5.7280    0.5350   -1.0440 O   0  0  0  0  0  0  0  0  0  0  0  0
    4.0420    0.4540    0.5990 C   0  0  0  0  0  0  0  0  0  0  0  0
    3.6550    0.4260    1.7190 O   0  0  0  0  0  0  0  0  0  0  0  0
    2.8540    0.4280   -0.6350 N   0  0  0  0  0  0  0  0  0  0  0  0
    1.7700    0.3850    0.2040 C   0  0  0  0  0  0  0  0  0  0  0  0
    1.5540    0.3970    1.3900 O   0  0  0  0  0  0  0  0  0  0  0  0
    0.5600    0.2970   -0.6630 N   0  0  0  0  0  0  0  0  0  0  0  0
   -0.7360    0.2280   -0.2620 C   0  0  0  0  0  0  0  0  0  0  0  0
   -1.1650    0.4100    0.9640 C   0  0  0  0  0  0  0  0  0  0  0  0
   -2.4930    0.3370    1.4000 N   0  0  0  0  0  0  0  0  0  0  0  0
   -3.4730    0.0360    0.4280 C   0  0  0  0  0  0  0  0  0  0  0  0
   -4.7100   -0.0450    0.7620 N   0  0  0  0  0  0  0  0  0  0  0  0
   -5.6820   -0.3530   -0.2490 C   0  0  0  0  0  0  0  0  0  0  0  0
   -5.3430   -0.5560   -1.5140 C   0  0  0  0  0  0  0  0  0  0  0  0
   -4.0140   -0.4730   -1.9010 O   0  0  0  0  0  0  0  0  0  0  0  0
   -3.0260   -0.1740   -0.9480 C   0  0  0  0  0  0  0  0  0  0  0  0
   -1.7730   -0.0900   -1.2880 C   0  0  0  0  0  0  0  0  0  0  0  0
  1  2  1  0
  2  3  2  0
  2  4  1  0
  4  5  2  0
  4  6  1  0
  6  7  1  0
  7  8  2  0
  7  9  1  0
  9 10  1  0
 10 11  2  0
 10 19  1  0
 11 12  1  0
 12 13  1  0
 13 14  2  0
 13 18  1  0
 14 15  1  0
 15 16  2  0
 16 17  1  0
 17 18  1  0
 18 19  2  0
M  END
