
     RDKit          3D

 19 20  0  0  0  0  0  0  0  0999 V2000
    5.5690    1.1600   -1.0250 N   0  0  0  0  0  0  0  0  0  0  0  0
    4.7880    0.0460   -1.4940 C   0  0  0  0  0  0  0  0  0  0  0  0
    3.7210   -0.3410   -0.5110 C   0  0  0  0  0  0  0  0  0  0  0  0
    2.4970    0.1970   -0.5550 N   0  0  0  0  0  0  0  0  0  0  0  0
    1.4940   -0.1240    0.3190 C   0  0  0  0  0  0  0  0  0  0  0  0
    0.2400    0.5130    0.2030 N   0  0  0  0  0  0  0  0  0  0  0  0
   -0.8730    0.2240    1.0690 C   0  0  1  0  0  0  0  0  0  0  0  0
   -1.9900    1.2250    0.9040 C   0  0  0  0  0  0  0  0  0  0  0  0
   -2.9350    0.9800   -0.2080 C   0  0  2  0  0  0  0  0  0  0  0  0
   -4.3730    0.7740    0.2970 C   0  0  0  0  0  0  0  0  0  0  0  0
   -5.2320    0.5460   -0.7740 O   0  0  0  0  0  0  0  0  0  0  0  0
   -2.5330   -0.2980   -0.9020 C   0  0  0  0  0  0  0  0  0  0  0  0
   -2.4660   -1.2910    0.0650 O   0  0  0  0  0  0  0  0  0  0  0  0
   -1.3380   -1.1900    0.8580 C   0  0  2  0  0  0  0  0  0  0  0  0
   -1.6010   -1.8430    2.0510 O   0  0  0  0  0  0  0  0  0  0  0  0
    1.8100   -1.0370    1.2540 N   0  0  0  0  0  0  0  0  0  0  0  0
    3.0370   -1.6100    1.3380 C   0  0  0  0  0  0  0  0  0  0  0  0
    3.2390   -2.4550    2.2470 O   0  0  0  0  0  0  0  0  0  0  0  0
    3.9710   -1.2480    0.4490 N   0  0  0  0  0  0  0  0  0  0  0  0
  1  2  1  0
  2  3  1  0
  3  4  1  0
  3 19  2  0
  4  5  2  0
  5  6  1  0
  5 16  1  0
  7  6  1  6
  7  8  1  0
  7 14  1  0
  8  9  1  0
  9 10  1  1
  9 12  1  0
 10 11  1  0
 12 13  1  0
 13 14  1  0
 14 15  1  1
 16 17  1  0
 17 18  2  0
 17 19  1  0
M  END
