
     RDKit          3D

 19 20  0  0  0  0  0  0  0  0999 V2000
    1.7200   -3.4490   -0.0040 C   0  0  0  0  0  0  0  0  0  0  0  0
    1.6310   -1.9930    0.1230 N   0  0  0  0  0  0  0  0  0  0  0  0
    2.8770   -1.3710    0.4380 C   0  0  0  0  0  0  0  0  0  0  0  0
    2.9210    0.0460    0.2400 N   0  0  0  0  0  0  0  0  0  0  0  0
    1.9620    1.0910    0.2620 C   0  0  0  0  0  0  0  0  0  0  0  0
    2.3940    2.4820    0.4650 C   0  0  1  0  0  0  0  0  0  0  0  0
    3.3100    3.1850   -0.4180 C   0  0  0  0  0  0  0  0  0  0  0  0
    1.8510    3.5050   -0.3040 O   0  0  0  0  0  0  0  0  0  0  0  0
    0.6820    0.9240    0.1130 N   0  0  0  0  0  0  0  0  0  0  0  0
   -0.0800   -0.2550   -0.0990 C   0  0  0  0  0  0  0  0  0  0  0  0
   -1.4940   -0.0080   -0.3520 C   0  0  0  0  0  0  0  0  0  0  0  0
   -2.3090   -0.9580   -0.5610 O   0  0  0  0  0  0  0  0  0  0  0  0
   -2.0340    1.2700   -0.3790 O   0  0  0  0  0  0  0  0  0  0  0  0
   -3.3880    1.5500   -0.6190 C   0  0  0  0  0  0  0  0  0  0  0  0
   -4.2930    0.9420    0.3620 C   0  0  0  0  0  0  0  0  0  0  0  0
   -5.6900    1.1240    0.2690 N   0  0  0  0  0  0  0  0  0  0  0  0
   -3.8360    0.2530    1.2970 O   0  0  0  0  0  0  0  0  0  0  0  0
    0.3050   -1.5150   -0.1000 C   0  0  0  0  0  0  0  0  0  0  0  0
   -0.6970   -2.4930   -0.3460 N   0  0  0  0  0  0  0  0  0  0  0  0
  1  2  1  0
  2  3  1  0
  2 18  1  0
  3  4  1  0
  4  5  1  0
  6  5  1  6
  5  9  2  0
  6  7  1  0
  6  8  1  0
  7  8  1  0
  9 10  1  0
 10 11  1  0
 10 18  2  0
 11 12  2  0
 11 13  1  0
 13 14  1  0
 14 15  1  0
 15 16  1  0
 15 17  2  0
 18 19  1  0
M  END
