
     RDKit          3D

 19 20  0  0  0  0  0  0  0  0999 V2000
    4.1130    0.1460   -1.1580 C   0  0  0  0  0  0  0  0  0  0  0  0
    2.6700    0.3760   -1.3190 C   0  0  0  0  0  0  0  0  0  0  0  0
    1.7130    0.0640   -0.4660 C   0  0  0  0  0  0  0  0  0  0  0  0
    1.9550   -0.5800    0.8160 C   0  0  0  0  0  0  0  0  0  0  0  0
    3.2760   -0.9150    1.2160 N   0  0  0  0  0  0  0  0  0  0  0  0
    0.9720   -0.8540    1.5990 N   0  0  0  0  0  0  0  0  0  0  0  0
   -0.4070   -0.5690    1.3130 C   0  0  0  0  0  0  0  0  0  0  0  0
   -0.6680    0.0110    0.1680 C   0  0  0  0  0  0  0  0  0  0  0  0
    0.3570    0.3560   -0.7720 N   0  0  0  0  0  0  0  0  0  0  0  0
    0.0550    0.9740   -1.9850 N   0  0  0  0  0  0  0  0  0  0  0  0
    0.2720    2.1770   -2.2110 O   0  0  0  0  0  0  0  0  0  0  0  0
   -2.0550    0.3200   -0.2260 C   0  0  2  0  0  0  0  0  0  0  0  0
   -2.5930   -0.8360   -1.0820 C   0  0  0  0  0  0  0  0  0  0  0  0
   -2.1240    1.4890   -0.9870 O   0  0  0  0  0  0  0  0  0  0  0  0
   -2.9750    0.4960    0.9350 C   0  0  2  0  0  0  0  0  0  0  0  0
   -2.6370    1.7230    1.5460 O   0  0  0  0  0  0  0  0  0  0  0  0
   -2.7630   -0.5800    1.9650 C   0  0  0  0  0  0  0  0  0  0  0  0
   -3.7420   -1.1180    2.4750 O   0  0  0  0  0  0  0  0  0  0  0  0
   -1.4070   -0.9080    2.2860 N   0  0  0  0  0  0  0  0  0  0  0  0
  1  2  1  0
  2  3  2  3
  3  4  1  0
  3  9  1  0
  4  5  1  0
  4  6  2  0
  6  7  1  0
  7  8  2  0
  7 19  1  0
  8  9  1  0
  8 12  1  0
  9 10  1  0
 10 11  2  0
 12 13  1  6
 12 14  1  0
 12 15  1  0
 15 16  1  1
 15 17  1  0
 17 18  2  0
 17 19  1  0
M  END
