
     RDKit          3D

 10  9  0  0  0  0  0  0  0  0999 V2000
    0.6300    2.0140    1.0060 O   0  0  0  0  0  0  0  0  0  0  0  0
    0.3400    1.1350    0.1690 C   0  0  0  0  0  0  0  0  0  0  0  0
   -1.0730    0.8800   -0.1640 C   0  0  0  0  0  0  0  0  0  0  0  0
   -1.8300   -0.3060    1.0290 P   0  0  0  0  0  0  0  0  0  0  0  0
   -1.4910   -1.9440    0.6060 O   0  0  0  0  0  0  0  0  0  0  0  0
   -3.5730   -0.1160    0.9820 O   0  0  0  0  0  0  0  0  0  0  0  0
    1.3830    0.3750   -0.4680 C   0  0  0  0  0  0  0  0  0  0  0  0
    1.0040   -0.6000   -1.4050 O   0  0  0  0  0  0  0  0  0  0  0  0
    2.6660    0.5290   -0.2350 C   0  0  0  0  0  0  0  0  0  0  0  0
    3.5800   -0.2560   -0.9050 O   0  0  0  0  0  0  0  0  0  0  0  0
  1  2  2  0
  2  3  1  0
  2  7  1  0
  3  4  1  0
  4  5  1  0
  4  6  1  0
  7  8  1  0
  7  9  2  3
  9 10  1  0
M  END
