
     RDKit          3D

  8  8  0  0  0  0  0  0  0  0999 V2000
    3.2900    0.7520   -0.5690 O   0  0  0  0  0  0  0  0  0  0  0  0
    3.0160    0.2130    0.5270 N   0  0  0  0  0  0  0  0  0  0  0  0
    1.8750   -0.5880    0.6500 N   0  0  0  0  0  0  0  0  0  0  0  0
    0.5820   -0.1160    0.2730 C   0  0  0  0  0  0  0  0  0  0  0  0
   -0.0740    0.9490    0.6990 C   0  0  0  0  0  0  0  0  0  0  0  0
   -1.3630    0.9580   -0.0220 C   0  0  0  0  0  0  0  0  0  0  0  0
   -1.5940   -0.4640   -0.2140 N   0  0  0  0  0  0  0  0  0  0  0  0
   -0.2660   -0.8340   -0.7390 C   0  0  0  0  0  0  0  0  0  0  0  0
  1  2  2  0
  2  3  1  0
  3  4  1  0
  4  5  2  0
  4  8  1  0
  5  6  1  0
  6  7  1  0
  7  8  1  0
M  CHG  1   7   1
M  END
