
     RDKit          3D

  8  8  0  0  0  0  0  0  0  0999 V2000
    3.1990   -0.2670   -0.3950 O   0  0  0  0  0  0  0  0  0  0  0  0
    2.3060   -0.3180    0.6430 N   0  0  0  0  0  0  0  0  0  0  0  0
    1.0500   -0.1640    0.4110 C   0  0  0  0  0  0  0  0  0  0  0  0
    0.5770    0.0660   -0.9770 C   0  0  0  0  0  0  0  0  0  0  0  0
   -0.7840   -0.3800   -1.0750 N   0  0  0  0  0  0  0  0  0  0  0  0
   -1.7000    0.2870   -0.2090 C   0  0  0  0  0  0  0  0  0  0  0  0
   -1.2730    0.3470    1.2260 C   0  0  0  0  0  0  0  0  0  0  0  0
    0.0600   -0.2020    1.4290 N   0  0  0  0  0  0  0  0  0  0  0  0
  1  2  1  0
  2  3  2  3
  3  4  1  0
  3  8  1  0
  4  5  1  0
  5  6  1  0
  6  7  1  0
  7  8  1  0
M  CHG  1   5   1
M  END
