
     RDKit          3D

  8  8  0  0  0  0  0  0  0  0999 V2000
    3.3100   -0.1890   -0.4130 O   0  0  0  0  0  0  0  0  0  0  0  0
    2.0690   -0.0660    0.1810 C   0  0  0  0  0  0  0  0  0  0  0  0
    0.9840   -0.2050   -0.7700 N   0  0  0  0  0  0  0  0  0  0  0  0
   -0.3580   -0.1030   -0.3110 C   0  0  0  0  0  0  0  0  0  0  0  0
   -0.7880    0.1220    0.9880 C   0  0  0  0  0  0  0  0  0  0  0  0
   -2.1280    0.1530    1.0250 N   0  0  0  0  0  0  0  0  0  0  0  0
   -2.5710   -0.0470   -0.2260 C   0  0  0  0  0  0  0  0  0  0  0  0
   -1.4900   -0.2020   -1.0330 N   0  0  0  0  0  0  0  0  0  0  0  0
  1  2  1  0
  2  3  1  0
  3  4  1  0
  4  5  2  0
  4  8  1  0
  5  6  1  0
  6  7  1  0
  7  8  2  0
M  CHG  1   8   1
M  END
