
     RDKit          3D

 15 16  0  0  0  0  0  0  0  0999 V2000
    4.0320    0.5050    0.8760 C   0  0  0  0  0  0  0  0  0  0  0  0
    2.6560    0.2740    0.3720 C   0  0  0  0  0  0  0  0  0  0  0  0
    1.5990    0.2930    1.2470 C   0  0  0  0  0  0  0  0  0  0  0  0
    0.3140    0.0790    0.7870 C   0  0  0  0  0  0  0  0  0  0  0  0
    0.1180   -0.1500   -0.5490 C   0  0  0  0  0  0  0  0  0  0  0  0
    1.1940   -0.1720   -1.4580 C   0  0  0  0  0  0  0  0  0  0  0  0
    2.4590    0.0440   -0.9740 C   0  0  0  0  0  0  0  0  0  0  0  0
    3.5800    0.0380   -1.8100 O   0  0  0  0  0  0  0  0  0  0  0  0
   -1.3180   -0.3440   -0.7710 C   0  0  2  0  0  0  0  0  0  0  0  0
   -1.5370   -1.6900   -1.1660 O   0  0  0  0  0  0  0  0  0  0  0  0
   -1.8430    0.5240   -1.7230 O   0  0  0  0  0  0  0  0  0  0  0  0
   -1.9340   -0.2080    0.5460 C   0  0  0  0  0  0  0  0  0  0  0  0
   -3.3950   -0.3280    0.8180 C   0  0  0  0  0  0  0  0  0  0  0  0
   -4.0610    0.7030    0.0370 N   0  0  0  0  0  0  0  0  0  0  0  0
   -0.9980    0.0320    1.4260 C   0  0  0  0  0  0  0  0  0  0  0  0
  1  2  1  0
  2  3  2  0
  2  7  1  0
  3  4  1  0
  4  5  2  0
  4 15  1  0
  5  6  1  0
  5  9  1  0
  6  7  2  0
  7  8  1  0
  9 10  1  6
  9 11  1  0
  9 12  1  0
 12 13  1  0
 12 15  2  0
 13 14  1  0
M  END
