
     RDKit          3D

  8  8  0  0  0  0  0  0  0  0999 V2000
   -2.5680   -0.1410    0.1890 O   0  0  0  0  0  0  0  0  0  0  0  0
   -1.2240    0.0910    0.4750 C   0  0  1  0  0  0  0  0  0  0  0  0
   -0.4990   -1.1650    0.4330 C   0  0  0  0  0  0  0  0  0  0  0  0
    0.7460   -1.3760    0.3050 N   0  0  0  0  0  0  0  0  0  0  0  0
    1.7660   -0.4160    0.1680 C   0  0  0  0  0  0  0  0  0  0  0  0
    1.4750    0.6540   -0.7510 N   0  0  0  0  0  0  0  0  0  0  0  0
    0.5920    1.5910   -0.2440 N   0  0  0  0  0  0  0  0  0  0  0  0
   -0.7420    1.1610   -0.4430 C   0  0  0  0  0  0  0  0  0  0  0  0
  2  1  1  6
  2  3  1  0
  2  8  1  0
  3  4  2  0
  4  5  1  0
  5  6  1  0
  6  7  1  0
  7  8  1  0
M  CHG  1   4   1
M  END
