
     RDKit          3D

 47 51  0  0  0  0  0  0  0  0999 V2000
   11.2470    0.0410   -0.0610 C   0  0  0  0  0  0  0  0  0  0  0  0
   10.0790   -0.1660    0.7170 O   0  0  0  0  0  0  0  0  0  0  0  0
    9.9170   -1.3940    1.3300 C   0  0  0  0  0  0  0  0  0  0  0  0
   10.8370   -2.4080    1.2110 C   0  0  0  0  0  0  0  0  0  0  0  0
   10.6510   -3.6340    1.8360 C   0  0  0  0  0  0  0  0  0  0  0  0
    9.5100   -3.8180    2.5880 C   0  0  0  0  0  0  0  0  0  0  0  0
    8.5760   -2.8320    2.7260 C   0  0  0  0  0  0  0  0  0  0  0  0
    8.7930   -1.6080    2.0840 C   0  0  0  0  0  0  0  0  0  0  0  0
    7.8050   -0.5500    2.2240 C   0  0  0  0  0  0  0  0  0  0  0  0
    8.2280    0.7300    2.4870 C   0  0  0  0  0  0  0  0  0  0  0  0
    7.3300    1.7850    2.6290 C   0  0  0  0  0  0  0  0  0  0  0  0
    5.9810    1.5650    2.5070 C   0  0  0  0  0  0  0  0  0  0  0  0
    5.5320    0.2980    2.2450 C   0  0  0  0  0  0  0  0  0  0  0  0
    4.0920   -0.0360    2.0950 C   0  0  0  0  0  0  0  0  0  0  0  0
    3.6000    0.0620    0.6740 C   0  0  2  0  0  0  0  0  0  0  0  0
    4.3370   -0.8650   -0.2530 C   0  0  0  0  0  0  0  0  0  0  0  0
    3.4780    1.4070    0.2160 N   0  0  1  0  0  0  0  0  0  0  0  0
    4.6190    1.9670   -0.4240 C   0  0  0  0  0  0  0  0  0  0  0  0
    4.2830    2.2470   -1.8490 C   0  0  0  0  0  0  0  0  0  0  0  0
    2.7480    2.4480   -1.7710 C   0  0  1  0  0  0  0  0  0  0  0  0
    2.1680    2.3640   -3.1340 C   0  0  0  0  0  0  0  0  0  0  0  0
    0.7720    2.5710   -3.2460 N   0  0  0  0  0  0  0  0  0  0  0  0
   -0.2910    1.8010   -2.7490 C   0  0  0  0  0  0  0  0  0  0  0  0
   -0.0900    0.7650   -2.1190 O   0  0  0  0  0  0  0  0  0  0  0  0
   -1.7030    2.1940   -2.9560 C   0  0  0  0  0  0  0  0  0  0  0  0
   -2.0860    3.2940   -3.6740 C   0  0  0  0  0  0  0  0  0  0  0  0
   -3.4620    3.3280   -3.6430 C   0  0  0  0  0  0  0  0  0  0  0  0
   -3.8190    2.2260   -2.8960 C   0  0  0  0  0  0  0  0  0  0  0  0
   -5.2580    1.9010   -2.6240 C   0  0  0  0  0  0  0  0  0  0  0  0
   -5.6210    0.9560   -3.5620 O   0  0  0  0  0  0  0  0  0  0  0  0
   -4.9310   -0.2430   -3.4690 C   0  0  0  0  0  0  0  0  0  0  0  0
   -5.3060   -0.9150   -2.2080 C   0  0  0  0  0  0  0  0  0  0  0  0
   -4.5830   -1.8640   -1.8060 O   0  0  0  0  0  0  0  0  0  0  0  0
   -6.4330   -0.5480   -1.4410 N   0  0  0  0  0  0  0  0  0  0  0  0
   -6.7870   -1.2230   -0.1760 C   0  0  1  0  0  0  0  0  0  0  0  0
   -6.7120   -0.1820    0.8790 C   0  0  0  0  0  0  0  0  0  0  0  0
   -7.4060   -0.5300    2.1510 C   0  0  1  0  0  0  0  0  0  0  0  0
   -6.7040   -1.5900    2.9450 C   0  0  0  0  0  0  0  0  0  0  0  0
   -7.4750    0.7610    2.9810 C   0  0  0  0  0  0  0  0  0  0  0  0
   -8.8300   -0.8810    1.8250 C   0  0  0  0  0  0  0  0  0  0  0  0
   -9.0010   -1.9440    0.8070 C   0  0  2  0  0  0  0  0  0  0  0  0
  -10.4440   -1.8330    0.2900 C   0  0  0  0  0  0  0  0  0  0  0  0
   -8.9500   -3.3020    1.5200 C   0  0  0  0  0  0  0  0  0  0  0  0
   -8.1060   -1.8860   -0.3640 C   0  0  0  0  0  0  0  0  0  0  0  0
   -2.7660    1.5930   -2.5150 O   0  0  0  0  0  0  0  0  0  0  0  0
    2.3670    1.4340   -0.7640 C   0  0  0  0  0  0  0  0  0  0  0  0
    6.4430   -0.7330    2.1080 C   0  0  0  0  0  0  0  0  0  0  0  0
  1  2  1  0
  2  3  1  0
  3  4  2  0
  3  8  1  0
  4  5  1  0
  5  6  2  0
  6  7  1  0
  7  8  2  0
  8  9  1  0
  9 10  2  0
  9 47  1  0
 10 11  1  0
 11 12  2  0
 12 13  1  0
 13 14  1  0
 13 47  2  0
 14 15  1  0
 15 16  1  6
 15 17  1  0
 17 18  1  6
 17 46  1  0
 18 19  1  0
 19 20  1  0
 20 21  1  6
 20 46  1  0
 21 22  1  0
 22 23  1  0
 23 24  2  0
 23 25  1  0
 25 26  2  0
 25 45  1  0
 26 27  1  0
 27 28  2  0
 28 29  1  0
 28 45  1  0
 29 30  1  0
 30 31  1  0
 31 32  1  0
 32 33  2  0
 32 34  1  0
 35 34  1  6
 35 36  1  0
 35 44  1  0
 36 37  1  0
 37 38  1  1
 37 39  1  0
 37 40  1  0
 40 41  1  0
 41 42  1  6
 41 43  1  0
 41 44  1  0
M  CHG  1  17   1
M  END
