
     RDKit          3D

 49 53  0  0  0  0  0  0  0  0999 V2000
   -4.9050    4.4000    0.3180 C   0  0  0  0  0  0  0  0  0  0  0  0
   -4.6530    3.7110   -1.0110 C   0  0  1  0  0  0  0  0  0  0  0  0
   -5.7850    4.1500   -1.9210 C   0  0  0  0  0  0  0  0  0  0  0  0
   -3.3640    4.2160   -1.6090 C   0  0  0  0  0  0  0  0  0  0  0  0
   -4.6590    2.2690   -0.9140 N   0  0  0  0  0  0  0  0  0  0  0  0
   -3.8050    1.5250   -0.0890 C   0  0  0  0  0  0  0  0  0  0  0  0
   -2.9780    2.1430    0.6260 O   0  0  0  0  0  0  0  0  0  0  0  0
   -3.8090    0.0440   -0.0000 C   0  0  2  0  0  0  0  0  0  0  0  0
   -5.2570   -0.3250    0.2190 C   0  0  0  0  0  0  0  0  0  0  0  0
   -5.4490   -1.7400    0.6540 C   0  0  2  0  0  0  0  0  0  0  0  0
   -6.9290   -1.9490    0.8950 C   0  0  0  0  0  0  0  0  0  0  0  0
   -7.1930   -2.9780    1.9640 C   0  0  0  0  0  0  0  0  0  0  0  0
   -6.7590   -2.3770    3.2760 C   0  0  0  0  0  0  0  0  0  0  0  0
   -5.6240   -1.4250    3.0630 C   0  0  0  0  0  0  0  0  0  0  0  0
   -4.6900   -1.9020    1.9390 C   0  0  2  0  0  0  0  0  0  0  0  0
   -3.3920   -1.2300    2.0330 C   0  0  0  0  0  0  0  0  0  0  0  0
   -2.8860   -0.5280    0.8760 N   0  0  1  0  0  0  0  0  0  0  0  0
   -1.7380   -1.2180    0.3230 C   0  0  0  0  0  0  0  0  0  0  0  0
   -1.1060   -0.6700   -0.8680 C   0  0  1  0  0  0  0  0  0  0  0  0
   -0.6710    0.6690   -0.6620 O   0  0  0  0  0  0  0  0  0  0  0  0
    0.2320   -1.3630   -1.2250 C   0  0  2  0  0  0  0  0  0  0  0  0
    0.0580   -2.7290   -1.7470 C   0  0  0  0  0  0  0  0  0  0  0  0
    1.3670   -3.3610   -2.0730 C   0  0  0  0  0  0  0  0  0  0  0  0
    1.9620   -3.2700   -3.2870 C   0  0  0  0  0  0  0  0  0  0  0  0
    3.1750   -3.8900   -3.4940 C   0  0  0  0  0  0  0  0  0  0  0  0
    3.7900   -4.5990   -2.4870 C   0  0  0  0  0  0  0  0  0  0  0  0
    3.1680   -4.6850   -1.2430 C   0  0  0  0  0  0  0  0  0  0  0  0
    1.9590   -4.0730   -1.0210 C   0  0  0  0  0  0  0  0  0  0  0  0
    1.1950   -1.2010   -0.1500 N   0  0  0  0  0  0  0  0  0  0  0  0
    2.2830   -0.3090   -0.2350 C   0  0  0  0  0  0  0  0  0  0  0  0
    2.3480    0.3480   -1.3470 O   0  0  0  0  0  0  0  0  0  0  0  0
    3.3010   -0.0910    0.8060 C   0  0  2  0  0  0  0  0  0  0  0  0
    2.7860    0.4650    2.1010 C   0  0  0  0  0  0  0  0  0  0  0  0
    1.7970   -0.4180    2.7110 C   0  0  0  0  0  0  0  0  0  0  0  0
    2.1510   -1.6540    3.2980 N   0  0  0  0  0  0  0  0  0  0  0  0
    0.5860   -0.0800    2.7220 O   0  0  0  0  0  0  0  0  0  0  0  0
    4.3300    0.8340    0.2780 N   0  0  0  0  0  0  0  0  0  0  0  0
    5.6580    0.4360    0.1360 C   0  0  0  0  0  0  0  0  0  0  0  0
    5.9820   -0.7410    0.4660 O   0  0  0  0  0  0  0  0  0  0  0  0
    6.7090    1.3240   -0.3830 C   0  0  0  0  0  0  0  0  0  0  0  0
    6.4270    2.6150   -0.7580 C   0  0  0  0  0  0  0  0  0  0  0  0
    7.4240    3.4640   -1.2500 C   0  0  0  0  0  0  0  0  0  0  0  0
    8.7110    3.0040   -1.3630 C   0  0  0  0  0  0  0  0  0  0  0  0
    9.7400    3.8050   -1.8470 C   0  0  0  0  0  0  0  0  0  0  0  0
   11.0360    3.3320   -1.9590 C   0  0  0  0  0  0  0  0  0  0  0  0
   11.2810    2.0510   -1.5800 C   0  0  0  0  0  0  0  0  0  0  0  0
   10.2600    1.2420   -1.0950 C   0  0  0  0  0  0  0  0  0  0  0  0
    8.9710    1.7040   -0.9810 C   0  0  0  0  0  0  0  0  0  0  0  0
    7.9700    0.9100   -0.5060 N   0  0  0  0  0  0  0  0  0  0  0  0
  2  1  1  1
  2  3  1  0
  2  4  1  0
  2  5  1  0
  5  6  1  0
  6  7  2  0
  8  6  1  1
  8  9  1  0
  8 17  1  0
 10  9  1  1
 10 11  1  0
 10 15  1  0
 11 12  1  0
 12 13  1  0
 13 14  1  0
 15 14  1  1
 15 16  1  0
 16 17  1  0
 17 18  1  6
 18 19  1  0
 19 20  1  1
 19 21  1  0
 21 22  1  1
 21 29  1  0
 22 23  1  0
 23 24  2  0
 23 28  1  0
 24 25  1  0
 25 26  2  0
 26 27  1  0
 27 28  2  0
 29 30  1  0
 30 31  2  0
 30 32  1  0
 32 33  1  1
 32 37  1  0
 33 34  1  0
 34 35  1  0
 34 36  2  0
 37 38  1  0
 38 39  2  0
 38 40  1  0
 40 41  2  0
 40 49  1  0
 41 42  1  0
 42 43  2  0
 43 44  1  0
 43 48  1  0
 44 45  2  0
 45 46  1  0
 46 47  2  0
 47 48  1  0
 48 49  2  0
M  CHG  1  17   1
M  END
