
     RDKit          3D

 47 52  0  0  0  0  0  0  0  0999 V2000
    4.7760   -1.2770   -1.7760 C   0  0  0  0  0  0  0  0  0  0  0  0
    4.1670   -0.0220   -1.2160 C   0  0  2  0  0  0  0  0  0  0  0  0
    4.9570    1.1510   -1.2720 N   0  0  0  0  0  0  0  0  0  0  0  0
    6.0970    1.4130   -2.0560 C   0  0  0  0  0  0  0  0  0  0  0  0
    6.2510    2.6100   -2.4830 O   0  0  0  0  0  0  0  0  0  0  0  0
    7.1130    0.4390   -2.4220 C   0  0  1  0  0  0  0  0  0  0  0  0
    8.5310    0.9750   -2.6590 C   0  0  0  0  0  0  0  0  0  0  0  0
    8.1720    0.1450   -1.4780 C   0  0  1  0  0  0  0  0  0  0  0  0
    8.1970    0.8260   -0.1730 C   0  0  0  0  0  0  0  0  0  0  0  0
    7.1340    0.3980    0.8260 C   0  0  0  0  0  0  0  0  0  0  0  0
    6.5300    1.5590    1.2730 O   0  0  0  0  0  0  0  0  0  0  0  0
    5.4940    1.8070    2.1180 C   0  0  0  0  0  0  0  0  0  0  0  0
    5.6720    2.8130    3.0310 C   0  0  0  0  0  0  0  0  0  0  0  0
    4.7370    3.1980    3.9650 C   0  0  0  0  0  0  0  0  0  0  0  0
    3.5400    2.5290    3.9890 C   0  0  0  0  0  0  0  0  0  0  0  0
    3.3490    1.5140    3.0740 C   0  0  0  0  0  0  0  0  0  0  0  0
    4.2710    1.1020    2.1160 C   0  0  0  0  0  0  0  0  0  0  0  0
    4.0280    0.1170    1.2550 O   0  0  0  0  0  0  0  0  0  0  0  0
    3.5450   -0.3730    0.1060 C   0  0  1  0  0  0  0  0  0  0  0  0
    2.0430   -0.3820   -0.0060 C   0  0  0  0  0  0  0  0  0  0  0  0
    1.3890    0.0620    0.9560 O   0  0  0  0  0  0  0  0  0  0  0  0
    1.3640   -0.8620   -1.1360 N   0  0  0  0  0  0  0  0  0  0  0  0
   -0.0990   -0.8680   -1.2480 C   0  0  0  0  0  0  0  0  0  0  0  0
   -0.6570   -1.7530   -0.1550 C   0  0  2  0  0  0  0  0  0  0  0  0
   -0.1100   -3.1270   -0.3740 C   0  0  0  0  0  0  0  0  0  0  0  0
   -0.9910   -4.2500    0.0580 C   0  0  0  0  0  0  0  0  0  0  0  0
   -2.3900   -4.1370   -0.4920 C   0  0  0  0  0  0  0  0  0  0  0  0
   -2.5800   -2.7540   -1.0410 C   0  0  0  0  0  0  0  0  0  0  0  0
   -2.1210   -1.7220   -0.1680 N   0  0  1  0  0  0  0  0  0  0  0  0
   -2.6690   -1.7150    1.1460 C   0  0  0  0  0  0  0  0  0  0  0  0
   -3.9320   -1.0130    1.3390 C   0  0  0  0  0  0  0  0  0  0  0  0
   -4.4250   -1.0030    2.4950 O   0  0  0  0  0  0  0  0  0  0  0  0
   -4.6400   -0.3410    0.3100 N   0  0  0  0  0  0  0  0  0  0  0  0
   -5.8860    0.3230    0.6390 C   0  0  1  0  0  0  0  0  0  0  0  0
   -5.7390    1.8040    0.7600 C   0  0  0  0  0  0  0  0  0  0  0  0
   -6.6590    2.4650    1.5690 C   0  0  0  0  0  0  0  0  0  0  0  0
   -6.6010    3.8390    1.7900 C   0  0  0  0  0  0  0  0  0  0  0  0
   -5.6070    4.5780    1.1930 C   0  0  0  0  0  0  0  0  0  0  0  0
   -4.6960    3.9080    0.3890 C   0  0  0  0  0  0  0  0  0  0  0  0
   -4.7630    2.5500    0.1780 C   0  0  0  0  0  0  0  0  0  0  0  0
   -7.0470   -0.1210   -0.1420 C   0  0  0  0  0  0  0  0  0  0  0  0
   -8.0920   -0.7930    0.5310 C   0  0  0  0  0  0  0  0  0  0  0  0
   -9.2000   -1.2360   -0.1220 C   0  0  0  0  0  0  0  0  0  0  0  0
   -9.3470   -1.0470   -1.4590 C   0  0  0  0  0  0  0  0  0  0  0  0
   -8.3670   -0.4040   -2.1550 C   0  0  0  0  0  0  0  0  0  0  0  0
   -7.2170    0.0590   -1.4950 C   0  0  0  0  0  0  0  0  0  0  0  0
   -6.2790    0.6910   -2.2490 O   0  0  0  0  0  0  0  0  0  0  0  0
  2  1  1  1
  2  3  1  0
  2 19  1  0
  3  4  1  0
  4  5  2  0
  4  6  1  0
  6  7  1  6
  6  8  1  0
  8  7  1  6
  8  9  1  0
  9 10  1  0
 10 11  1  0
 11 12  1  0
 12 13  2  0
 12 17  1  0
 13 14  1  0
 14 15  2  0
 15 16  1  0
 16 17  2  0
 17 18  1  0
 18 19  1  0
 19 20  1  6
 20 21  2  0
 20 22  1  0
 22 23  1  0
 24 23  1  6
 24 25  1  0
 24 29  1  0
 25 26  1  0
 26 27  1  0
 27 28  1  0
 28 29  1  0
 29 30  1  1
 30 31  1  0
 31 32  2  0
 31 33  1  0
 34 33  1  6
 34 35  1  0
 34 41  1  0
 35 36  2  0
 35 40  1  0
 36 37  1  0
 37 38  2  0
 38 39  1  0
 39 40  2  0
 41 42  2  0
 41 46  1  0
 42 43  1  0
 43 44  2  0
 44 45  1  0
 45 46  2  0
 46 47  1  0
M  CHG  1  29   1
M  END
