
     RDKit          3D

 47 50  0  0  0  0  0  0  0  0999 V2000
   -8.0050   -6.4730   -2.9040 C   0  0  0  0  0  0  0  0  0  0  0  0
   -6.9750   -5.3790   -2.7780 C   0  0  0  0  0  0  0  0  0  0  0  0
   -5.6370   -5.9030   -2.2420 C   0  0  0  0  0  0  0  0  0  0  0  0
   -4.6880   -4.8500   -2.1350 C   0  0  0  0  0  0  0  0  0  0  0  0
   -4.1800   -4.2130   -0.9970 C   0  0  0  0  0  0  0  0  0  0  0  0
   -3.2500   -3.2230   -1.3400 C   0  0  0  0  0  0  0  0  0  0  0  0
   -2.4310   -2.2830   -1.0320 C   0  0  0  0  0  0  0  0  0  0  0  0
   -1.7200   -1.6460   -2.2230 C   0  0  0  0  0  0  0  0  0  0  0  0
   -2.0230   -2.0840   -3.3520 O   0  0  0  0  0  0  0  0  0  0  0  0
   -0.7760   -0.6310   -2.1430 N   0  0  0  0  0  0  0  0  0  0  0  0
   -0.1090    0.0080   -3.2350 C   0  0  0  0  0  0  0  0  0  0  0  0
   -0.6650    0.0460   -4.5110 C   0  0  0  0  0  0  0  0  0  0  0  0
   -0.1080    0.7860   -5.5530 C   0  0  0  0  0  0  0  0  0  0  0  0
    1.0300    1.5050   -5.3250 C   0  0  0  0  0  0  0  0  0  0  0  0
    1.5950    1.4700   -4.0520 C   0  0  0  0  0  0  0  0  0  0  0  0
    1.0290    0.7220   -3.0100 C   0  0  0  0  0  0  0  0  0  0  0  0
    1.7840    0.6590   -1.7760 C   0  0  0  0  0  0  0  0  0  0  0  0
    1.4220   -0.1770   -0.9040 O   0  0  0  0  0  0  0  0  0  0  0  0
    2.8990    1.4390   -1.4220 N   0  0  0  0  0  0  0  0  0  0  0  0
    3.6540    1.3760   -0.2250 C   0  0  0  0  0  0  0  0  0  0  0  0
    3.7210    0.2470    0.5460 C   0  0  0  0  0  0  0  0  0  0  0  0
    4.4340    0.1950    1.7370 C   0  0  0  0  0  0  0  0  0  0  0  0
    5.1060    1.3420    2.1580 C   0  0  0  0  0  0  0  0  0  0  0  0
    5.0720    2.4850    1.4310 C   0  0  0  0  0  0  0  0  0  0  0  0
    4.3340    2.4790    0.2320 C   0  0  0  0  0  0  0  0  0  0  0  0
    5.7650    3.7150    1.8520 C   0  0  2  0  0  0  0  0  0  0  0  0
    6.9010    4.0250    0.9870 N   0  0  0  0  0  0  0  0  0  0  0  0
    7.6720    5.0610    1.6250 C   0  0  0  0  0  0  0  0  0  0  0  0
    6.1370    3.6340    3.3030 C   0  0  0  0  0  0  0  0  0  0  0  0
    6.8700    2.3170    3.5880 C   0  0  0  0  0  0  0  0  0  0  0  0
    5.8410    1.2220    3.4340 C   0  0  0  0  0  0  0  0  0  0  0  0
   -2.1950   -1.7080    0.2540 C   0  0  0  0  0  0  0  0  0  0  0  0
   -2.8120   -2.0470    1.2830 O   0  0  0  0  0  0  0  0  0  0  0  0
   -1.2580   -0.6980    0.5470 O   0  0  0  0  0  0  0  0  0  0  0  0
   -1.0630   -0.1500    1.8270 C   0  0  1  0  0  0  0  0  0  0  0  0
    0.3100   -0.4770    2.3810 C   0  0  0  0  0  0  0  0  0  0  0  0
   -1.3410    1.2950    1.8730 C   0  0  0  0  0  0  0  0  0  0  0  0
   -0.3600    2.1770    2.2340 C   0  0  0  0  0  0  0  0  0  0  0  0
   -0.6220    3.5510    2.2690 C   0  0  0  0  0  0  0  0  0  0  0  0
   -1.8760    4.0190    1.9390 C   0  0  0  0  0  0  0  0  0  0  0  0
   -2.8440    3.1330    1.5820 C   0  0  0  0  0  0  0  0  0  0  0  0
   -2.5880    1.7600    1.5450 C   0  0  0  0  0  0  0  0  0  0  0  0
   -3.6300    0.9360    1.1710 O   0  0  0  0  0  0  0  0  0  0  0  0
   -4.9260    1.3710    0.8270 C   0  0  0  0  0  0  0  0  0  0  0  0
   -4.7350   -4.6860    0.2090 C   0  0  0  0  0  0  0  0  0  0  0  0
   -4.4760   -4.3610    1.6090 C   0  0  0  0  0  0  0  0  0  0  0  0
   -5.6820   -5.6120    0.1340 O   0  0  0  0  0  0  0  0  0  0  0  0
  1  2  1  0
  2  3  1  0
  3  4  1  0
  4  5  2  3
  5  6  1  0
  5 45  1  0
  6  7  2  3
  7  8  1  0
  7 32  1  0
  8  9  2  0
  8 10  1  0
 10 11  1  0
 11 12  2  0
 11 16  1  0
 12 13  1  0
 13 14  2  0
 14 15  1  0
 15 16  2  0
 16 17  1  0
 17 18  2  0
 17 19  1  0
 19 20  1  0
 20 21  2  0
 20 25  1  0
 21 22  1  0
 22 23  2  0
 23 24  1  0
 23 31  1  0
 24 25  2  0
 24 26  1  0
 26 27  1  6
 26 29  1  0
 27 28  1  0
 29 30  1  0
 30 31  1  0
 32 33  2  0
 32 34  1  0
 34 35  1  0
 35 36  1  6
 35 37  1  0
 37 38  2  0
 37 42  1  0
 38 39  1  0
 39 40  2  0
 40 41  1  0
 41 42  2  0
 42 43  1  0
 43 44  1  0
 45 46  1  0
 45 47  2  0
M  CHG  1  27   1
M  END
