
     RDKit          3D

 47 51  0  0  0  0  0  0  0  0999 V2000
   -1.8980    2.7500    6.1300 C   0  0  0  0  0  0  0  0  0  0  0  0
   -1.7120    1.9890    4.9310 O   0  0  0  0  0  0  0  0  0  0  0  0
   -1.5800    2.6160    3.7090 C   0  0  0  0  0  0  0  0  0  0  0  0
   -1.6260    3.8620    3.6600 O   0  0  0  0  0  0  0  0  0  0  0  0
   -1.3890    1.8520    2.4680 C   0  0  0  0  0  0  0  0  0  0  0  0
   -1.3370    0.3560    2.7230 C   0  0  0  0  0  0  0  0  0  0  0  0
   -1.1540   -0.4830    1.5830 C   0  0  0  0  0  0  0  0  0  0  0  0
    0.1110   -0.7440    1.3450 O   0  0  0  0  0  0  0  0  0  0  0  0
   -2.0370   -1.1280    0.6140 C   0  0  0  0  0  0  0  0  0  0  0  0
   -3.3160   -0.9800    0.6820 C   0  0  0  0  0  0  0  0  0  0  0  0
   -4.1100   -0.1820    1.6720 C   0  0  0  0  0  0  0  0  0  0  0  0
   -5.0370    0.7670    0.9180 C   0  0  2  0  0  0  0  0  0  0  0  0
   -5.9970   -0.0620    0.0750 C   0  0  0  0  0  0  0  0  0  0  0  0
   -4.3120    1.6610   -0.0470 C   0  0  0  0  0  0  0  0  0  0  0  0
   -5.8430    1.5850    1.8690 C   0  0  0  0  0  0  0  0  0  0  0  0
   -4.1300   -1.6080   -0.2480 O   0  0  0  0  0  0  0  0  0  0  0  0
   -3.5900   -2.3770   -1.2570 C   0  0  0  0  0  0  0  0  0  0  0  0
   -4.5900   -3.0040   -2.1980 C   0  0  0  0  0  0  0  0  0  0  0  0
   -2.2670   -2.5550   -1.4260 C   0  0  0  0  0  0  0  0  0  0  0  0
   -1.8250   -3.4400   -2.5280 C   0  0  0  0  0  0  0  0  0  0  0  0
   -2.5040   -4.4150   -3.0440 N   0  0  0  0  0  0  0  0  0  0  0  0
   -1.8300   -5.0860   -4.1080 C   0  0  0  0  0  0  0  0  0  0  0  0
   -0.6780   -4.2370   -4.3880 C   0  0  0  0  0  0  0  0  0  0  0  0
    0.3580   -4.0650   -5.2440 N   0  0  0  0  0  0  0  0  0  0  0  0
    1.0520   -3.0610   -4.8390 N   0  0  0  0  0  0  0  0  0  0  0  0
    0.4970   -2.5400   -3.7070 C   0  0  0  0  0  0  0  0  0  0  0  0
   -0.6240   -3.2710   -3.3800 C   0  0  0  0  0  0  0  0  0  0  0  0
   -1.4090   -2.0070   -0.4210 C   0  0  1  0  0  0  0  0  0  0  0  0
   -0.0580   -1.5030   -0.7290 C   0  0  0  0  0  0  0  0  0  0  0  0
    1.0160   -2.2270   -0.5300 C   0  0  0  0  0  0  0  0  0  0  0  0
    0.8890   -3.6290    0.0300 C   0  0  0  0  0  0  0  0  0  0  0  0
    2.3720   -1.7470   -0.7990 C   0  0  0  0  0  0  0  0  0  0  0  0
    2.5590   -0.3770   -1.3000 C   0  0  2  0  0  0  0  0  0  0  0  0
    3.7210    0.2520   -0.5650 C   0  0  0  0  0  0  0  0  0  0  0  0
    4.3080   -0.3840    0.3360 O   0  0  0  0  0  0  0  0  0  0  0  0
    4.1580    1.5560   -0.8800 N   0  0  0  0  0  0  0  0  0  0  0  0
    5.2140    2.2740   -0.2790 C   0  0  0  0  0  0  0  0  0  0  0  0
    5.8070    1.9480    0.9100 C   0  0  0  0  0  0  0  0  0  0  0  0
    6.8690    2.7190    1.4180 C   0  0  0  0  0  0  0  0  0  0  0  0
    7.4480    2.3020    2.7020 C   0  0  0  0  0  0  0  0  0  0  0  0
    7.3330    3.8150    0.7330 C   0  0  0  0  0  0  0  0  0  0  0  0
    6.7480    4.1570   -0.4640 C   0  0  0  0  0  0  0  0  0  0  0  0
    7.2640    5.3580   -1.2100 C   0  0  0  0  0  0  0  0  0  0  0  0
    5.7140    3.4020   -0.9550 C   0  0  0  0  0  0  0  0  0  0  0  0
    1.3710    0.5360   -1.2760 C   0  0  0  0  0  0  0  0  0  0  0  0
    0.0700   -0.1280   -1.2460 C   0  0  0  0  0  0  0  0  0  0  0  0
   -1.0040    0.4190   -1.6500 O   0  0  0  0  0  0  0  0  0  0  0  0
  1  2  1  0
  2  3  1  0
  3  4  2  0
  3  5  1  0
  5  6  1  0
  6  7  1  0
  7  8  2  0
  7  9  1  0
  9 10  2  0
  9 28  1  0
 10 11  1  0
 10 16  1  0
 11 12  1  0
 12 13  1  6
 12 14  1  0
 12 15  1  0
 16 17  1  0
 17 18  1  0
 17 19  2  0
 19 20  1  0
 19 28  1  0
 20 21  2  0
 20 27  1  0
 21 22  1  0
 22 23  1  0
 23 24  1  0
 23 27  2  0
 24 25  1  0
 25 26  2  0
 26 27  1  0
 28 29  1  6
 29 30  2  0
 29 46  1  0
 30 31  1  0
 30 32  1  0
 32 33  1  0
 33 34  1  1
 33 45  1  0
 34 35  2  0
 34 36  1  0
 36 37  1  0
 37 38  2  0
 37 44  1  0
 38 39  1  0
 39 40  1  0
 39 41  2  0
 41 42  1  0
 42 43  1  0
 42 44  2  0
 45 46  1  0
 46 47  2  0
M  CHG  1  21   1
M  END
