
     RDKit          3D

 37 40  0  0  0  0  0  0  0  0999 V2000
   -5.4380   -3.2060    4.4880 C   0  0  0  0  0  0  0  0  0  0  0  0
   -4.9920   -3.2800    3.1540 O   0  0  0  0  0  0  0  0  0  0  0  0
   -4.7160   -2.1220    2.4500 C   0  0  0  0  0  0  0  0  0  0  0  0
   -4.8890   -1.0210    3.0770 O   0  0  0  0  0  0  0  0  0  0  0  0
   -4.2490   -2.1680    1.0540 C   0  0  0  0  0  0  0  0  0  0  0  0
   -4.0350   -0.7950    0.4650 C   0  0  2  0  0  0  0  0  0  0  0  0
   -5.3100    0.0230    0.4680 C   0  0  0  0  0  0  0  0  0  0  0  0
   -5.0200    0.9960   -0.5960 N   0  0  0  0  0  0  0  0  0  0  0  0
   -5.6440    2.3010   -0.6220 C   0  0  1  0  0  0  0  0  0  0  0  0
   -4.6400    3.4360   -0.6590 C   0  0  0  0  0  0  0  0  0  0  0  0
   -5.5320    4.6220   -0.9700 C   0  0  0  0  0  0  0  0  0  0  0  0
   -6.4400    4.0770   -2.0540 C   0  0  0  0  0  0  0  0  0  0  0  0
   -6.3700    2.5580   -1.9510 C   0  0  0  0  0  0  0  0  0  0  0  0
   -4.0850    0.4310   -1.5020 C   0  0  0  0  0  0  0  0  0  0  0  0
   -3.6780    1.0690   -2.5130 O   0  0  0  0  0  0  0  0  0  0  0  0
   -3.7650   -0.9020   -1.0150 C   0  0  2  0  0  0  0  0  0  0  0  0
   -4.7260   -1.7840   -1.5700 O   0  0  0  0  0  0  0  0  0  0  0  0
   -2.4080   -1.4070   -1.3370 C   0  0  0  0  0  0  0  0  0  0  0  0
   -1.2870   -0.6080   -0.8620 C   0  0  0  0  0  0  0  0  0  0  0  0
   -1.5030    0.4760   -0.2650 O   0  0  0  0  0  0  0  0  0  0  0  0
    0.0800   -0.9640   -1.0210 N   0  0  0  0  0  0  0  0  0  0  0  0
    1.1610   -0.1320   -0.5300 C   0  0  0  0  0  0  0  0  0  0  0  0
    2.5090   -0.7270   -0.8230 C   0  0  0  0  0  0  0  0  0  0  0  0
    3.6090    0.1420   -0.3140 C   0  0  0  0  0  0  0  0  0  0  0  0
    3.3560    1.2450    0.2690 O   0  0  0  0  0  0  0  0  0  0  0  0
    4.9740   -0.2020   -0.4450 N   0  0  0  0  0  0  0  0  0  0  0  0
    6.0000    0.6740    0.0650 C   0  0  0  0  0  0  0  0  0  0  0  0
    7.3690    0.2020   -0.1190 C   0  0  0  0  0  0  0  0  0  0  0  0
    8.3370    0.8150   -0.8220 C   0  0  0  0  0  0  0  0  0  0  0  0
    8.2910    2.0830   -1.5750 C   0  0  0  0  0  0  0  0  0  0  0  0
    9.5260    0.0240   -0.7490 O   0  0  0  0  0  0  0  0  0  0  0  0
    9.4510   -0.6450    0.5020 C   0  0  2  0  0  0  0  0  0  0  0  0
   10.4760   -2.0130    0.8070 S   0  0  0  0  0  0  0  0  0  0  0  0
    9.4810   -3.3840    1.3740 C   0  0  0  0  0  0  0  0  0  0  0  0
    8.1690   -3.3050    1.3270 C   0  0  0  0  0  0  0  0  0  0  0  0
    7.4650   -2.1360    0.8400 C   0  0  0  0  0  0  0  0  0  0  0  0
    7.9810   -1.0320    0.4120 C   0  0  0  0  0  0  0  0  0  0  0  0
  1  2  1  0
  2  3  1  0
  3  4  2  0
  3  5  1  0
  6  5  1  6
  6  7  1  0
  6 16  1  0
  7  8  1  0
  9  8  1  6
  8 14  1  0
  9 10  1  0
  9 13  1  0
 10 11  1  0
 11 12  1  0
 12 13  1  0
 14 15  2  0
 14 16  1  0
 16 17  1  6
 16 18  1  0
 18 19  1  0
 19 20  2  0
 19 21  1  0
 21 22  1  0
 22 23  1  0
 23 24  1  0
 24 25  2  0
 24 26  1  0
 26 27  1  0
 27 28  1  0
 28 29  2  0
 28 37  1  0
 29 30  1  0
 29 31  1  0
 32 31  1  6
 32 33  1  0
 32 37  1  0
 33 34  1  0
 34 35  2  0
 35 36  1  0
 36 37  2  0
M  END
