
     RDKit          3D

 38 41  0  0  0  0  0  0  0  0999 V2000
    6.9530    1.4380    4.2040 C   0  0  0  0  0  0  0  0  0  0  0  0
    7.4590    0.3650    3.4330 O   0  0  0  0  0  0  0  0  0  0  0  0
    6.7700   -0.1320    2.3260 C   0  0  0  0  0  0  0  0  0  0  0  0
    5.6820    0.4030    2.0310 O   0  0  0  0  0  0  0  0  0  0  0  0
    7.3320   -1.2580    1.5430 C   0  0  0  0  0  0  0  0  0  0  0  0
    8.4870   -1.8950    1.7810 N   0  0  0  0  0  0  0  0  0  0  0  0
    8.6120   -2.8430    0.8420 C   0  0  0  0  0  0  0  0  0  0  0  0
    9.5850   -3.6630    0.7300 O   0  0  0  0  0  0  0  0  0  0  0  0
    7.5370   -2.7960    0.0190 N   0  0  0  0  0  0  0  0  0  0  0  0
    6.7290   -1.8150    0.4410 C   0  0  0  0  0  0  0  0  0  0  0  0
    5.1790   -1.3330   -0.2850 S   0  0  0  0  0  0  0  0  0  0  0  0
    5.5010   -0.0880   -1.5190 C   0  0  0  0  0  0  0  0  0  0  0  0
    6.8080    0.3470   -1.7730 C   0  0  0  0  0  0  0  0  0  0  0  0
    7.0420    1.3100   -2.7330 C   0  0  0  0  0  0  0  0  0  0  0  0
    5.9560    1.8150   -3.4160 C   0  0  0  0  0  0  0  0  0  0  0  0
    4.6530    1.3890   -3.1700 C   0  0  0  0  0  0  0  0  0  0  0  0
    4.4340    0.4310   -2.2140 C   0  0  0  0  0  0  0  0  0  0  0  0
    3.0920   -0.0510   -1.9170 C   0  0  0  0  0  0  0  0  0  0  0  0
    2.8950   -0.9390   -1.0210 O   0  0  0  0  0  0  0  0  0  0  0  0
    1.9650    0.4090   -2.5690 O   0  0  0  0  0  0  0  0  0  0  0  0
    0.6460   -0.0000   -2.3440 C   0  0  0  0  0  0  0  0  0  0  0  0
    0.1510    0.2460   -0.9490 C   0  0  2  0  0  0  0  0  0  0  0  0
   -1.2600   -0.3060   -0.8380 C   0  0  0  0  0  0  0  0  0  0  0  0
   -2.2210    0.3860   -1.7670 C   0  0  1  0  0  0  0  0  0  0  0  0
   -3.6210   -0.0480   -1.5310 C   0  0  0  0  0  0  0  0  0  0  0  0
   -4.1210    0.2090   -0.2260 N   0  0  0  0  0  0  0  0  0  0  0  0
   -5.5370   -0.2140   -0.1390 C   0  0  1  0  0  0  0  0  0  0  0  0
   -5.5760   -1.6900   -0.3710 C   0  0  0  0  0  0  0  0  0  0  0  0
   -6.7380   -2.3830    0.2600 C   0  0  0  0  0  0  0  0  0  0  0  0
   -6.9870   -1.9850    1.6790 C   0  0  0  0  0  0  0  0  0  0  0  0
   -6.0230   -0.9330    2.1680 C   0  0  0  0  0  0  0  0  0  0  0  0
   -6.0430    0.2220    1.2000 C   0  0  2  0  0  0  0  0  0  0  0  0
   -7.4250    0.8340    1.1290 C   0  0  0  0  0  0  0  0  0  0  0  0
   -5.1300    1.2970    1.7860 C   0  0  0  0  0  0  0  0  0  0  0  0
   -5.1090    2.3990    0.9120 O   0  0  0  0  0  0  0  0  0  0  0  0
   -2.0420    1.8720   -1.5730 C   0  0  0  0  0  0  0  0  0  0  0  0
   -1.0910    2.0790   -0.4110 C   0  0  0  0  0  0  0  0  0  0  0  0
    0.1680    1.5670   -0.6140 O   0  0  0  0  0  0  0  0  0  0  0  0
  1  2  1  0
  2  3  1  0
  3  4  2  0
  3  5  1  0
  5  6  1  0
  5 10  2  0
  6  7  1  0
  7  8  2  0
  7  9  1  0
  9 10  1  0
 10 11  1  0
 11 12  1  0
 12 13  2  0
 12 17  1  0
 13 14  1  0
 14 15  2  0
 15 16  1  0
 16 17  2  0
 17 18  1  0
 18 19  2  0
 18 20  1  0
 20 21  1  0
 22 21  1  6
 22 23  1  0
 22 38  1  0
 23 24  1  0
 24 25  1  1
 24 36  1  0
 25 26  1  0
 27 26  1  1
 27 28  1  0
 27 32  1  0
 28 29  1  0
 29 30  1  0
 30 31  1  0
 31 32  1  0
 32 33  1  6
 32 34  1  0
 34 35  1  0
 36 37  1  0
 37 38  1  0
M  END
