
     RDKit          3D

 38 41  0  0  0  0  0  0  0  0999 V2000
   11.1740   -0.8810   -1.8810 C   0  0  0  0  0  0  0  0  0  0  0  0
   11.3310   -1.8630   -0.7590 C   0  0  0  0  0  0  0  0  0  0  0  0
   10.2160   -2.7760   -0.7290 N   0  0  0  0  0  0  0  0  0  0  0  0
    8.9180   -2.3010   -0.4630 C   0  0  0  0  0  0  0  0  0  0  0  0
    7.8440   -3.1610   -0.5730 C   0  0  0  0  0  0  0  0  0  0  0  0
    6.5540   -2.7780   -0.3310 C   0  0  0  0  0  0  0  0  0  0  0  0
    6.3050   -1.4520    0.0470 C   0  0  0  0  0  0  0  0  0  0  0  0
    4.9520   -1.0680    0.2980 N   0  0  0  0  0  0  0  0  0  0  0  0
    4.4720    0.2490    0.4070 C   0  0  0  0  0  0  0  0  0  0  0  0
    5.2200    1.2330    0.2850 O   0  0  0  0  0  0  0  0  0  0  0  0
    3.1020    0.5150    0.6560 O   0  0  0  0  0  0  0  0  0  0  0  0
    2.6590    1.8520    0.7450 C   0  0  0  0  0  0  0  0  0  0  0  0
    1.1990    1.8410    0.9890 C   0  0  0  0  0  0  0  0  0  0  0  0
    0.6460    2.3810    2.0590 C   0  0  0  0  0  0  0  0  0  0  0  0
   -0.7890    2.3530    2.2650 C   0  0  0  0  0  0  0  0  0  0  0  0
   -1.5840    1.7550    1.3370 C   0  0  0  0  0  0  0  0  0  0  0  0
   -2.9180    1.7900    1.6480 O   0  0  0  0  0  0  0  0  0  0  0  0
   -3.4340    1.0780    2.7950 C   0  0  0  0  0  0  0  0  0  0  0  0
   -1.0280    1.1650    0.1770 C   0  0  0  0  0  0  0  0  0  0  0  0
   -1.6360    0.5580   -0.8190 C   0  0  0  0  0  0  0  0  0  0  0  0
   -0.6100    0.0570   -1.8640 C   0  0  0  0  0  0  0  0  0  0  0  0
   -1.0030   -0.5380   -2.8600 O   0  0  0  0  0  0  0  0  0  0  0  0
   -2.9460    0.3260   -1.2520 C   0  0  0  0  0  0  0  0  0  0  0  0
   -3.0260   -0.4130   -2.3560 O   0  0  0  0  0  0  0  0  0  0  0  0
   -4.1850    0.7150   -0.7660 N   0  0  0  0  0  0  0  0  0  0  0  0
   -5.4300    0.3200   -1.4280 C   0  0  2  0  0  0  0  0  0  0  0  0
   -6.1390    1.4610   -2.0930 C   0  0  0  0  0  0  0  0  0  0  0  0
   -7.7290    0.6730   -2.4810 S   0  0  0  0  0  0  0  0  0  0  0  0
   -7.6370   -0.6120   -1.1970 C   0  0  2  0  0  0  0  0  0  0  0  0
   -8.9100   -0.6020   -0.4640 C   0  0  0  0  0  0  0  0  0  0  0  0
   -8.7190   -0.5610    1.0410 C   0  0  2  0  0  0  0  0  0  0  0  0
   -9.9140   -0.5860    1.7060 O   0  0  0  0  0  0  0  0  0  0  0  0
   -7.9680    0.7670    1.2360 C   0  0  0  0  0  0  0  0  0  0  0  0
   -6.5490    0.4730    0.8110 C   0  0  0  0  0  0  0  0  0  0  0  0
   -6.3760   -0.2920   -0.4420 C   0  0  2  0  0  0  0  0  0  0  0  0
    0.3910    1.2460    0.0670 O   0  0  0  0  0  0  0  0  0  0  0  0
    7.3710   -0.5980    0.1570 C   0  0  0  0  0  0  0  0  0  0  0  0
    8.6810   -1.0130   -0.0950 C   0  0  0  0  0  0  0  0  0  0  0  0
  1  2  1  0
  2  3  1  0
  3  4  1  0
  4  5  2  0
  4 38  1  0
  5  6  1  0
  6  7  2  0
  7  8  1  0
  7 37  1  0
  8  9  1  0
  9 10  2  0
  9 11  1  0
 11 12  1  0
 12 13  1  0
 13 14  2  0
 13 36  1  0
 14 15  1  0
 15 16  2  0
 16 17  1  0
 16 19  1  0
 17 18  1  0
 19 20  2  3
 19 36  1  0
 20 21  1  0
 20 23  1  0
 21 22  2  0
 23 24  2  0
 23 25  1  0
 26 25  1  1
 26 27  1  0
 26 35  1  0
 27 28  1  0
 28 29  1  0
 29 30  1  1
 29 35  1  0
 30 31  1  0
 31 32  1  1
 31 33  1  0
 33 34  1  0
 35 34  1  1
 37 38  2  0
M  END
