
     RDKit          3D

 38 41  0  0  0  0  0  0  0  0999 V2000
   -1.7750    6.1970   -0.2030 C   0  0  0  0  0  0  0  0  0  0  0  0
   -0.6250    5.2590   -0.3200 C   0  0  0  0  0  0  0  0  0  0  0  0
   -0.9100    3.9890    0.2900 O   0  0  0  0  0  0  0  0  0  0  0  0
    0.0260    2.9790    0.2930 C   0  0  0  0  0  0  0  0  0  0  0  0
    1.1180    3.2410   -0.2610 O   0  0  0  0  0  0  0  0  0  0  0  0
   -0.1530    1.6290    0.8890 C   0  0  1  0  0  0  0  0  0  0  0  0
    1.0960    0.8960    0.6280 N   0  0  0  0  0  0  0  0  0  0  0  0
    1.3530   -0.4340    1.0160 C   0  0  0  0  0  0  0  0  0  0  0  0
    0.4450   -1.0430    1.6320 O   0  0  0  0  0  0  0  0  0  0  0  0
    2.6100   -1.1120    0.7300 C   0  0  0  0  0  0  0  0  0  0  0  0
    2.9020   -2.3330    1.0650 C   0  0  0  0  0  0  0  0  0  0  0  0
    1.9980   -3.2040    1.7840 N   0  0  0  0  0  0  0  0  0  0  0  0
    4.1750   -2.7680    0.6780 N   0  0  0  0  0  0  0  0  0  0  0  0
    5.1560   -1.7170    0.5420 C   0  0  1  0  0  0  0  0  0  0  0  0
    6.1980   -2.0500   -0.4510 C   0  0  0  0  0  0  0  0  0  0  0  0
    5.9420   -2.5950   -1.6680 C   0  0  0  0  0  0  0  0  0  0  0  0
    6.9840   -2.8770   -2.5530 C   0  0  0  0  0  0  0  0  0  0  0  0
    8.2900   -2.6040   -2.1950 C   0  0  0  0  0  0  0  0  0  0  0  0
    9.4280   -2.8970   -3.1280 C   0  0  0  0  0  0  0  0  0  0  0  0
    8.5540   -2.0580   -0.9760 C   0  0  0  0  0  0  0  0  0  0  0  0
    7.5010   -1.7780   -0.0960 C   0  0  0  0  0  0  0  0  0  0  0  0
    4.0180   -0.4550   -0.1250 S   0  0  0  0  0  0  0  0  0  0  0  0
    4.3860    0.9240    0.3180 O   0  0  0  0  0  0  0  0  0  0  0  0
   -0.4010    1.7500    2.3540 C   0  0  0  0  0  0  0  0  0  0  0  0
   -1.7820    2.2840    2.6000 C   0  0  0  0  0  0  0  0  0  0  0  0
   -2.7470    1.2140    2.1430 C   0  0  0  0  0  0  0  0  0  0  0  0
   -2.5980    0.9130    0.6700 C   0  0  1  0  0  0  0  0  0  0  0  0
   -3.6100    1.7830   -0.0390 C   0  0  0  0  0  0  0  0  0  0  0  0
   -3.6410    1.6610   -1.5110 C   0  0  0  0  0  0  0  0  0  0  0  0
   -3.9080    0.5740   -2.1710 O   0  0  0  0  0  0  0  0  0  0  0  0
   -5.0390   -0.0960   -2.2410 C   0  0  0  0  0  0  0  0  0  0  0  0
   -5.5360   -0.7920   -1.0140 C   0  0  1  0  0  0  0  0  0  0  0  0
   -6.8650   -1.4570   -1.4320 C   0  0  0  0  0  0  0  0  0  0  0  0
   -7.4360   -2.1510   -0.3810 O   0  0  0  0  0  0  0  0  0  0  0  0
   -6.4810   -2.8490    0.3600 C   0  0  0  0  0  0  0  0  0  0  0  0
   -5.2260   -2.9990   -0.4430 C   0  0  0  0  0  0  0  0  0  0  0  0
   -4.6360   -1.7560   -0.6040 O   0  0  0  0  0  0  0  0  0  0  0  0
   -1.2290    0.9310    0.1560 C   0  0  0  0  0  0  0  0  0  0  0  0
  1  2  1  0
  2  3  1  0
  3  4  1  0
  4  5  2  0
  4  6  1  0
  6  7  1  1
  6 24  1  0
  6 38  1  0
  7  8  1  0
  8  9  2  0
  8 10  1  0
 10 11  2  0
 22 10  1  1
 11 12  1  0
 11 13  1  0
 13 14  1  0
 14 15  1  6
 14 22  1  0
 15 16  2  0
 15 21  1  0
 16 17  1  0
 17 18  2  0
 18 19  1  0
 18 20  1  0
 20 21  2  0
 22 23  2  0
 24 25  1  0
 25 26  1  0
 26 27  1  0
 27 28  1  6
 27 38  1  0
 28 29  1  0
 29 30  1  0
 30 31  1  0
 32 31  1  6
 32 33  1  0
 32 37  1  0
 33 34  1  0
 34 35  1  0
 35 36  1  0
 36 37  1  0
M  END
