
     RDKit          3D

 38 41  0  0  0  0  0  0  0  0999 V2000
    6.0040    2.9540   -1.2580 C   0  0  0  0  0  0  0  0  0  0  0  0
    6.7250    1.8320   -0.5430 C   0  0  0  0  0  0  0  0  0  0  0  0
    6.0560    0.5360   -0.7040 C   0  0  0  0  0  0  0  0  0  0  0  0
    6.4910   -0.4530   -1.5550 C   0  0  0  0  0  0  0  0  0  0  0  0
    5.8140   -1.6500   -1.6620 C   0  0  0  0  0  0  0  0  0  0  0  0
    4.6830   -1.9200   -0.9380 C   0  0  0  0  0  0  0  0  0  0  0  0
    3.9560   -3.2260   -1.0570 C   0  0  0  0  0  0  0  0  0  0  0  0
    4.2230   -0.9230   -0.0640 C   0  0  0  0  0  0  0  0  0  0  0  0
    3.0810   -1.2480    0.6430 O   0  0  0  0  0  0  0  0  0  0  0  0
    1.7410   -1.0510    0.2000 C   0  0  0  0  0  0  0  0  0  0  0  0
    1.4020    0.3810   -0.0410 C   0  0  0  0  0  0  0  0  0  0  0  0
    0.0730    0.7200   -0.5440 C   0  0  0  0  0  0  0  0  0  0  0  0
   -1.1380    0.4960    0.1580 N   0  0  0  0  0  0  0  0  0  0  0  0
   -1.9900   -0.6060   -0.1080 C   0  0  0  0  0  0  0  0  0  0  0  0
   -1.9730   -1.7250    0.8580 C   0  0  0  0  0  0  0  0  0  0  0  0
   -1.3020   -1.7400    2.0380 C   0  0  0  0  0  0  0  0  0  0  0  0
   -1.3960   -2.8020    2.8950 C   0  0  0  0  0  0  0  0  0  0  0  0
   -2.1810   -3.8850    2.5730 C   0  0  0  0  0  0  0  0  0  0  0  0
   -2.8640   -3.8720    1.3770 C   0  0  0  0  0  0  0  0  0  0  0  0
   -2.7790   -2.8210    0.5150 C   0  0  0  0  0  0  0  0  0  0  0  0
   -3.4880   -2.8010   -0.7270 N   0  0  0  0  0  0  0  0  0  0  0  0
   -4.1190   -4.0150   -1.2180 C   0  0  0  0  0  0  0  0  0  0  0  0
   -3.5030   -5.1990   -0.5200 C   0  0  0  0  0  0  0  0  0  0  0  0
   -3.7370   -5.0180    0.9660 C   0  0  0  0  0  0  0  0  0  0  0  0
   -1.6160    1.5340    1.0450 C   0  0  0  0  0  0  0  0  0  0  0  0
   -0.9270    2.5730    1.1200 O   0  0  0  0  0  0  0  0  0  0  0  0
   -2.8500    1.4250    1.8430 C   0  0  0  0  0  0  0  0  0  0  0  0
   -4.3590    1.5450    0.8570 S   0  0  0  0  0  0  0  0  0  0  0  0
   -4.6460    3.1710    0.2000 C   0  0  0  0  0  0  0  0  0  0  0  0
   -3.8910    4.2800    0.4950 C   0  0  0  0  0  0  0  0  0  0  0  0
   -4.1740    5.4920   -0.0770 C   0  0  0  0  0  0  0  0  0  0  0  0
   -3.3470    6.6520    0.2620 C   0  0  0  0  0  0  0  0  0  0  0  0
   -3.5840    7.7730   -0.2540 O   0  0  0  0  0  0  0  0  0  0  0  0
   -5.2160    5.6180   -0.9540 C   0  0  0  0  0  0  0  0  0  0  0  0
   -5.9680    4.5010   -1.2440 C   0  0  0  0  0  0  0  0  0  0  0  0
   -5.6690    3.3290   -0.6710 N   0  0  0  0  0  0  0  0  0  0  0  0
    4.9100    0.2680    0.0340 C   0  0  0  0  0  0  0  0  0  0  0  0
    4.4470    1.3020    0.9730 C   0  0  0  0  0  0  0  0  0  0  0  0
  1  2  1  0
  2  3  1  0
  3  4  2  0
  3 37  1  0
  4  5  1  0
  5  6  2  0
  6  7  1  0
  6  8  1  0
  8  9  1  0
  8 37  2  0
  9 10  1  0
 10 11  1  0
 11 12  1  0
 12 13  1  0
 13 14  1  0
 13 25  1  0
 14 15  1  0
 15 16  2  0
 15 20  1  0
 16 17  1  0
 17 18  2  0
 18 19  1  0
 19 20  2  0
 19 24  1  0
 20 21  1  0
 21 22  1  0
 22 23  1  0
 23 24  1  0
 25 26  2  0
 25 27  1  0
 27 28  1  0
 28 29  1  0
 29 30  2  0
 29 36  1  0
 30 31  1  0
 31 32  1  0
 31 34  2  0
 32 33  2  0
 34 35  1  0
 35 36  2  0
 37 38  1  0
M  END
