
     RDKit          3D

 34 37  0  0  0  0  0  0  0  0999 V2000
    6.1440   -2.7170   -1.3020 C   0  0  0  0  0  0  0  0  0  0  0  0
    5.5730   -4.0550   -0.9650 C   0  0  0  0  0  0  0  0  0  0  0  0
    4.2890   -4.1930   -0.6840 C   0  0  0  0  0  0  0  0  0  0  0  0
    3.4220   -3.0410   -0.7000 C   0  0  0  0  0  0  0  0  0  0  0  0
    2.1040   -3.1740   -0.4130 C   0  0  0  0  0  0  0  0  0  0  0  0
    1.5090   -4.7540   -0.0320 Cl  0  0  0  0  0  0  0  0  0  0  0  0
    1.2890   -1.9940   -0.3580 C   0  0  0  0  0  0  0  0  0  0  0  0
    1.8310   -0.7320   -0.4000 N   0  0  0  0  0  0  0  0  0  0  0  0
    0.8520    0.1200   -0.2870 N   0  0  0  0  0  0  0  0  0  0  0  0
    1.0270    1.5370   -0.2890 C   0  0  0  0  0  0  0  0  0  0  0  0
    2.0880    2.1510    0.3520 C   0  0  0  0  0  0  0  0  0  0  0  0
    2.2100    3.5230    0.3180 C   0  0  0  0  0  0  0  0  0  0  0  0
    1.2960    4.3070   -0.3410 C   0  0  0  0  0  0  0  0  0  0  0  0
    1.4290    5.7690   -0.3740 C   0  0  0  0  0  0  0  0  0  0  0  0
    0.5940    6.4590   -0.9750 O   0  0  0  0  0  0  0  0  0  0  0  0
    2.4960    6.3670    0.2710 O   0  0  0  0  0  0  0  0  0  0  0  0
    2.6520    7.7720    0.2570 C   0  0  0  0  0  0  0  0  0  0  0  0
    0.2520    3.6700   -0.9680 C   0  0  0  0  0  0  0  0  0  0  0  0
    0.1490    2.3300   -0.9260 N   0  0  0  0  0  0  0  0  0  0  0  0
   -0.3560   -0.5350   -0.1720 C   0  0  0  0  0  0  0  0  0  0  0  0
   -1.5320    0.2060   -0.0070 N   0  0  0  0  0  0  0  0  0  0  0  0
   -2.8610   -0.1680   -0.2320 C   0  0  0  0  0  0  0  0  0  0  0  0
   -3.1580   -1.2530   -0.7460 O   0  0  0  0  0  0  0  0  0  0  0  0
   -3.9730    0.7700    0.1590 C   0  0  2  0  0  0  0  0  0  0  0  0
   -3.9250    1.0400    1.6380 C   0  0  0  0  0  0  0  0  0  0  0  0
   -5.3350    0.7420    2.0740 C   0  0  0  0  0  0  0  0  0  0  0  0
   -5.7840   -0.2320    0.9980 C   0  0  0  0  0  0  0  0  0  0  0  0
   -5.1820    0.2160   -0.1460 O   0  0  0  0  0  0  0  0  0  0  0  0
   -0.0720   -1.8810   -0.2170 C   0  0  0  0  0  0  0  0  0  0  0  0
   -1.0360   -3.0170   -0.2170 C   0  0  0  0  0  0  0  0  0  0  0  0
   -1.8370   -3.2560    0.7570 C   0  0  0  0  0  0  0  0  0  0  0  0
   -2.7550   -4.4040    0.6690 C   0  0  0  0  0  0  0  0  0  0  0  0
   -1.9230   -5.3480   -0.6820 S   0  0  0  0  0  0  0  0  0  0  0  0
   -1.1840   -3.8380   -1.4360 C   0  0  0  0  0  0  0  0  0  0  0  0
  1  2  1  0
  2  3  2  3
  3  4  1  0
  4  5  2  3
  5  6  1  0
  5  7  1  0
  7  8  2  0
  7 29  1  0
  8  9  1  0
  9 10  1  0
  9 20  1  0
 10 11  2  0
 10 19  1  0
 11 12  1  0
 12 13  2  0
 13 14  1  0
 13 18  1  0
 14 15  2  0
 14 16  1  0
 16 17  1  0
 18 19  2  0
 20 21  1  0
 20 29  2  0
 21 22  1  0
 22 23  2  0
 24 22  1  1
 24 25  1  0
 24 28  1  0
 25 26  1  0
 26 27  1  0
 27 28  1  0
 29 30  1  0
 30 31  2  0
 30 34  1  0
 31 32  1  0
 32 33  1  0
 33 34  1  0
M  END
