
     RDKit          3D

 34 37  0  0  0  0  0  0  0  0999 V2000
    3.6480    4.4290   -0.1340 C   0  0  0  0  0  0  0  0  0  0  0  0
    4.2920    3.7530    0.8870 O   0  0  0  0  0  0  0  0  0  0  0  0
    5.3650    3.0160    0.4440 C   0  0  0  0  0  0  0  0  0  0  0  0
    4.9620    1.9840   -0.5580 C   0  0  0  0  0  0  0  0  0  0  0  0
    4.5810    0.9260   -0.6400 N   0  0  0  0  0  0  0  0  0  0  0  0
    4.2810    0.1790   -1.6950 C   0  0  0  0  0  0  0  0  0  0  0  0
    3.7910   -1.1970   -1.5980 C   0  0  0  0  0  0  0  0  0  0  0  0
    3.5460   -1.7860   -2.6850 O   0  0  0  0  0  0  0  0  0  0  0  0
    3.5760   -1.8990   -0.4260 N   0  0  0  0  0  0  0  0  0  0  0  0
    2.5670   -2.1070    0.2880 C   0  0  0  0  0  0  0  0  0  0  0  0
    1.2500   -1.6210    0.0450 N   0  0  0  0  0  0  0  0  0  0  0  0
    0.9060   -1.2120   -1.2850 C   0  0  0  0  0  0  0  0  0  0  0  0
   -0.5380   -0.7740   -1.3010 C   0  0  0  0  0  0  0  0  0  0  0  0
   -1.0180    0.4980   -0.9990 C   0  0  0  0  0  0  0  0  0  0  0  0
   -2.3890    0.4810   -1.1320 C   0  0  0  0  0  0  0  0  0  0  0  0
   -3.3950    1.4150   -0.9710 C   0  0  0  0  0  0  0  0  0  0  0  0
   -4.7250    1.1010   -1.1820 C   0  0  0  0  0  0  0  0  0  0  0  0
   -5.8410    2.0650   -1.0250 C   0  0  0  0  0  0  0  0  0  0  0  0
   -6.6320    1.8610    0.2350 C   0  0  2  0  0  0  0  0  0  0  0  0
   -7.7260    2.9090    0.2570 C   0  0  0  0  0  0  0  0  0  0  0  0
   -5.7380    2.0380    1.4290 C   0  0  0  0  0  0  0  0  0  0  0  0
   -5.0140   -0.1920   -1.5610 C   0  0  0  0  0  0  0  0  0  0  0  0
   -6.6590   -0.6630   -1.8440 Cl  0  0  0  0  0  0  0  0  0  0  0  0
   -4.0140   -1.1490   -1.7290 C   0  0  0  0  0  0  0  0  0  0  0  0
   -2.6950   -0.8070   -1.5120 C   0  0  0  0  0  0  0  0  0  0  0  0
   -1.5820   -1.4970   -1.5960 O   0  0  0  0  0  0  0  0  0  0  0  0
    2.7190   -2.9040    1.4670 N   0  0  0  0  0  0  0  0  0  0  0  0
    3.9780   -2.9120    2.1710 C   0  0  0  0  0  0  0  0  0  0  0  0
    4.4680   -4.3280    2.2680 C   0  0  0  0  0  0  0  0  0  0  0  0
    3.4820   -5.2250    2.5430 O   0  0  0  0  0  0  0  0  0  0  0  0
    2.3200   -4.6900    3.0290 C   0  0  0  0  0  0  0  0  0  0  0  0
    1.6730   -3.7320    2.0300 C   0  0  0  0  0  0  0  0  0  0  0  0
    4.4740    0.8220   -2.8920 C   0  0  0  0  0  0  0  0  0  0  0  0
    5.0750    2.4590   -2.3940 S   0  0  0  0  0  0  0  0  0  0  0  0
  1  2  1  0
  2  3  1  0
  3  4  1  0
  4  5  2  0
  4 34  1  0
  5  6  1  0
  6  7  1  0
  6 33  2  0
  7  8  2  0
  7  9  1  0
  9 10  2  3
 10 11  1  0
 10 27  1  0
 11 12  1  0
 12 13  1  0
 13 14  2  0
 13 26  1  0
 14 15  1  0
 15 16  2  0
 15 25  1  0
 16 17  1  0
 17 18  1  0
 17 22  2  0
 18 19  1  0
 19 20  1  1
 19 21  1  0
 22 23  1  0
 22 24  1  0
 24 25  2  0
 25 26  1  0
 27 28  1  0
 27 32  1  0
 28 29  1  0
 29 30  1  0
 30 31  1  0
 31 32  1  0
 33 34  1  0
M  END
