
     RDKit          3D

 34 37  0  0  0  0  0  0  0  0999 V2000
    4.7270   -0.0630   -3.7650 C   0  0  0  0  0  0  0  0  0  0  0  0
    5.6350   -0.4970   -2.6500 C   0  0  0  0  0  0  0  0  0  0  0  0
    5.1850   -1.2690   -1.6620 N   0  0  0  0  0  0  0  0  0  0  0  0
    5.9620   -1.7000   -0.6160 C   0  0  0  0  0  0  0  0  0  0  0  0
    5.3360   -2.5700    0.4370 C   0  0  0  0  0  0  0  0  0  0  0  0
    4.3150   -1.6600    1.0280 N   0  0  0  0  0  0  0  0  0  0  0  0
    4.6660   -0.7190    1.9900 C   0  0  0  0  0  0  0  0  0  0  0  0
    5.9510   -0.7380    2.2960 O   0  0  0  0  0  0  0  0  0  0  0  0
    3.8450    0.2220    2.6560 C   0  0  0  0  0  0  0  0  0  0  0  0
    2.6070    0.5500    2.7170 C   0  0  0  0  0  0  0  0  0  0  0  0
    1.4180    0.0280    2.0820 C   0  0  0  0  0  0  0  0  0  0  0  0
    1.1450   -1.2520    1.7710 C   0  0  0  0  0  0  0  0  0  0  0  0
   -0.1200   -1.2540    1.1470 C   0  0  0  0  0  0  0  0  0  0  0  0
   -0.7730   -2.4180    0.6660 C   0  0  0  0  0  0  0  0  0  0  0  0
   -1.3430   -3.3910    0.2620 N   0  0  0  0  0  0  0  0  0  0  0  0
   -0.5450    0.0300    1.1160 C   0  0  0  0  0  0  0  0  0  0  0  0
   -2.0730    0.6330    0.4260 S   0  0  0  0  0  0  0  0  0  0  0  0
   -3.4250    0.6700    1.6010 C   0  0  0  0  0  0  0  0  0  0  0  0
   -4.6090    1.1740    0.8670 C   0  0  0  0  0  0  0  0  0  0  0  0
   -4.8540    2.5190    0.8160 C   0  0  0  0  0  0  0  0  0  0  0  0
   -5.9560    3.0090    0.0920 C   0  0  0  0  0  0  0  0  0  0  0  0
   -6.7520    2.1040   -0.5440 C   0  0  0  0  0  0  0  0  0  0  0  0
   -7.8380    2.5060   -1.2730 C   0  0  0  0  0  0  0  0  0  0  0  0
   -8.6940    1.6650   -1.9520 C   0  0  0  0  0  0  0  0  0  0  0  0
   -8.4210    0.2920   -1.8790 C   0  0  0  0  0  0  0  0  0  0  0  0
   -9.4800   -0.8300   -2.7140 Cl  0  0  0  0  0  0  0  0  0  0  0  0
   -7.3200   -0.1250   -1.1400 C   0  0  0  0  0  0  0  0  0  0  0  0
   -6.4880    0.7450   -0.4780 C   0  0  0  0  0  0  0  0  0  0  0  0
   -5.4090    0.3230    0.2360 N   0  0  0  0  0  0  0  0  0  0  0  0
    0.3840    0.7900    1.6830 O   0  0  0  0  0  0  0  0  0  0  0  0
    7.2530   -1.2850   -0.6400 C   0  0  0  0  0  0  0  0  0  0  0  0
    7.7170   -0.4800   -1.6700 C   0  0  0  0  0  0  0  0  0  0  0  0
    8.9390   -0.1370   -1.6120 O   0  0  0  0  0  0  0  0  0  0  0  0
    6.8950   -0.1330   -2.6080 O   0  0  0  0  0  0  0  0  0  0  0  0
  1  2  1  0
  2  3  2  0
  2 34  1  0
  3  4  1  0
  4  5  1  0
  4 31  2  0
  5  6  1  0
  6  7  1  0
  7  8  2  0
  7  9  1  0
  9 10  2  3
 10 11  1  0
 11 12  2  0
 11 30  1  0
 12 13  1  0
 13 14  1  0
 13 16  2  0
 14 15  3  0
 16 17  1  0
 16 30  1  0
 17 18  1  0
 18 19  1  0
 19 20  2  0
 19 29  1  0
 20 21  1  0
 21 22  2  0
 22 23  1  0
 22 28  1  0
 23 24  2  0
 24 25  1  0
 25 26  1  0
 25 27  2  0
 27 28  1  0
 28 29  2  0
 31 32  1  0
 32 33  2  0
 32 34  1  0
M  END
