
     RDKit          3D

 34 37  0  0  0  0  0  0  0  0999 V2000
   -6.9560   -0.1640   -2.8660 C   0  0  0  0  0  0  0  0  0  0  0  0
   -6.5240    0.4460   -1.7570 C   0  0  0  0  0  0  0  0  0  0  0  0
   -6.5610    1.9180   -1.6790 C   0  0  0  0  0  0  0  0  0  0  0  0
   -7.1350    2.2780   -0.4260 O   0  0  0  0  0  0  0  0  0  0  0  0
   -6.6490    1.5830    0.6800 C   0  0  0  0  0  0  0  0  0  0  0  0
   -6.7070    2.1170    1.8280 O   0  0  0  0  0  0  0  0  0  0  0  0
   -6.0730    0.2600    0.5750 C   0  0  0  0  0  0  0  0  0  0  0  0
   -6.0130   -0.2950   -0.6230 C   0  0  0  0  0  0  0  0  0  0  0  0
   -5.4420   -1.6450   -0.8060 C   0  0  0  0  0  0  0  0  0  0  0  0
   -4.0220   -1.6100   -1.9290 S   0  0  0  0  0  0  0  0  0  0  0  0
   -2.6550   -0.6980   -1.2140 C   0  0  0  0  0  0  0  0  0  0  0  0
   -1.7400   -1.3490   -0.3980 C   0  0  0  0  0  0  0  0  0  0  0  0
   -0.6960   -0.6210    0.1240 C   0  0  0  0  0  0  0  0  0  0  0  0
    0.3230   -1.1620    1.0090 C   0  0  0  0  0  0  0  0  0  0  0  0
    0.2580   -2.4910    1.3710 C   0  0  0  0  0  0  0  0  0  0  0  0
    1.2330   -2.9650    2.2330 C   0  0  0  0  0  0  0  0  0  0  0  0
    2.2020   -2.1040    2.6810 C   0  0  0  0  0  0  0  0  0  0  0  0
    3.0790   -2.5540    3.4650 O   0  0  0  0  0  0  0  0  0  0  0  0
    2.2550   -0.8030    2.3170 N   0  0  0  0  0  0  0  0  0  0  0  0
    3.2680    0.0820    2.8270 C   0  0  0  0  0  0  0  0  0  0  0  0
    4.5270    0.0870    2.0420 C   0  0  0  0  0  0  0  0  0  0  0  0
    5.5130   -0.6100    2.4730 O   0  0  0  0  0  0  0  0  0  0  0  0
    4.6940    0.8190    0.8490 N   0  0  0  0  0  0  0  0  0  0  0  0
    5.8680    0.8860    0.0570 C   0  0  0  0  0  0  0  0  0  0  0  0
    5.7420    1.3630   -1.2520 C   0  0  0  0  0  0  0  0  0  0  0  0
    6.8330    1.4900   -2.0830 C   0  0  0  0  0  0  0  0  0  0  0  0
    8.1000    1.1540   -1.6600 C   0  0  0  0  0  0  0  0  0  0  0  0
    9.5010    1.3230   -2.7310 Cl  0  0  0  0  0  0  0  0  0  0  0  0
    8.2460    0.6820   -0.3740 C   0  0  0  0  0  0  0  0  0  0  0  0
    7.1350    0.5560    0.4620 C   0  0  0  0  0  0  0  0  0  0  0  0
    1.3140   -0.3870    1.4960 N   0  0  0  0  0  0  0  0  0  0  0  0
   -0.6280    0.7210   -0.2030 C   0  0  0  0  0  0  0  0  0  0  0  0
   -1.5360    1.3660   -1.0120 C   0  0  0  0  0  0  0  0  0  0  0  0
   -2.5500    0.6010   -1.5030 N   0  0  0  0  0  0  0  0  0  0  0  0
  1  2  2  0
  2  3  1  0
  2  8  1  0
  3  4  1  0
  4  5  1  0
  5  6  2  0
  5  7  1  0
  7  8  2  0
  8  9  1  0
  9 10  1  0
 10 11  1  0
 11 12  2  0
 11 34  1  0
 12 13  1  0
 13 14  1  0
 13 32  2  0
 14 15  1  0
 14 31  2  0
 15 16  2  0
 16 17  1  0
 17 18  2  0
 17 19  1  0
 19 20  1  0
 19 31  1  0
 20 21  1  0
 21 22  2  0
 21 23  1  0
 23 24  1  0
 24 25  2  0
 24 30  1  0
 25 26  1  0
 26 27  2  0
 27 28  1  0
 27 29  1  0
 29 30  2  0
 32 33  1  0
 33 34  2  0
M  END
