
     RDKit          3D

 38 41  0  0  0  0  0  0  0  0999 V2000
    5.8950    2.7480   -3.6060 C   0  0  0  0  0  0  0  0  0  0  0  0
    6.3320    2.0420   -2.4770 O   0  0  0  0  0  0  0  0  0  0  0  0
    5.7430    0.9030   -1.9580 C   0  0  0  0  0  0  0  0  0  0  0  0
    4.7240    0.4570   -2.5460 O   0  0  0  0  0  0  0  0  0  0  0  0
    6.2600    0.2270   -0.7780 C   0  0  0  0  0  0  0  0  0  0  0  0
    7.3300    0.5570   -0.0250 N   0  0  0  0  0  0  0  0  0  0  0  0
    7.4730   -0.3120    0.9690 C   0  0  0  0  0  0  0  0  0  0  0  0
    8.3540   -0.3180    1.8610 O   0  0  0  0  0  0  0  0  0  0  0  0
    6.4880   -1.2120    0.8580 N   0  0  0  0  0  0  0  0  0  0  0  0
    5.7260   -0.9120   -0.2010 C   0  0  0  0  0  0  0  0  0  0  0  0
    4.2800   -1.8190   -0.7690 S   0  0  0  0  0  0  0  0  0  0  0  0
    4.0390   -3.2030    0.3300 C   0  0  0  0  0  0  0  0  0  0  0  0
    4.6400   -4.4110    0.0510 C   0  0  0  0  0  0  0  0  0  0  0  0
    4.4360   -5.4580    0.9170 C   0  0  0  0  0  0  0  0  0  0  0  0
    3.6470   -5.2960    2.0370 C   0  0  0  0  0  0  0  0  0  0  0  0
    3.0480   -4.0860    2.3130 C   0  0  0  0  0  0  0  0  0  0  0  0
    3.2460   -3.0110    1.4420 C   0  0  0  0  0  0  0  0  0  0  0  0
    2.6250   -1.7240    1.7120 C   0  0  0  0  0  0  0  0  0  0  0  0
    1.9190   -1.5050    2.7240 O   0  0  0  0  0  0  0  0  0  0  0  0
    2.8170   -0.6910    0.8160 O   0  0  0  0  0  0  0  0  0  0  0  0
    2.2930    0.5890    0.9420 C   0  0  0  0  0  0  0  0  0  0  0  0
    0.8060    0.6880    0.9970 C   0  0  2  0  0  0  0  0  0  0  0  0
    0.0910   -0.0270   -0.1020 C   0  0  0  0  0  0  0  0  0  0  0  0
   -1.2630    0.6580   -0.3250 C   0  0  1  0  0  0  0  0  0  0  0  0
   -2.0370    0.5610    0.9540 C   0  0  0  0  0  0  0  0  0  0  0  0
   -3.3230    1.1510    0.9250 N   0  0  0  0  0  0  0  0  0  0  0  0
   -4.3040    0.5110    0.1050 C   0  0  1  0  0  0  0  0  0  0  0  0
   -4.6690   -0.8750    0.5090 C   0  0  0  0  0  0  0  0  0  0  0  0
   -5.5260   -1.4800   -0.5690 C   0  0  0  0  0  0  0  0  0  0  0  0
   -6.6900   -0.6430   -0.9710 C   0  0  0  0  0  0  0  0  0  0  0  0
   -6.3380    0.8080   -1.1900 C   0  0  0  0  0  0  0  0  0  0  0  0
   -5.5730    1.3280    0.0220 C   0  0  2  0  0  0  0  0  0  0  0  0
   -5.2180    2.7850   -0.1910 C   0  0  0  0  0  0  0  0  0  0  0  0
   -6.4190    1.2550    1.2650 C   0  0  0  0  0  0  0  0  0  0  0  0
   -7.5530    2.0620    1.0340 O   0  0  0  0  0  0  0  0  0  0  0  0
   -0.9760    2.0550   -0.7760 C   0  0  0  0  0  0  0  0  0  0  0  0
    0.2210    2.6380   -0.0910 C   0  0  0  0  0  0  0  0  0  0  0  0
    0.4650    2.0330    1.1180 O   0  0  0  0  0  0  0  0  0  0  0  0
  1  2  1  0
  2  3  1  0
  3  4  2  0
  3  5  1  0
  5  6  1  0
  5 10  2  0
  6  7  1  0
  7  8  2  0
  7  9  1  0
  9 10  1  0
 10 11  1  0
 11 12  1  0
 12 13  2  0
 12 17  1  0
 13 14  1  0
 14 15  2  0
 15 16  1  0
 16 17  2  0
 17 18  1  0
 18 19  2  0
 18 20  1  0
 20 21  1  0
 22 21  1  6
 22 23  1  0
 22 38  1  0
 23 24  1  0
 24 25  1  1
 24 36  1  0
 25 26  1  0
 27 26  1  1
 27 28  1  0
 27 32  1  0
 28 29  1  0
 29 30  1  0
 30 31  1  0
 31 32  1  0
 32 33  1  6
 32 34  1  0
 34 35  1  0
 36 37  1  0
 37 38  1  0
M  END
