
     RDKit          3D

 38 42  0  0  0  0  0  0  0  0999 V2000
   -7.4850   -4.0580    0.6070 C   0  0  0  0  0  0  0  0  0  0  0  0
   -7.4750   -2.5440    0.6940 C   0  0  2  0  0  0  0  0  0  0  0  0
   -7.2920   -2.0030   -0.7280 C   0  0  0  0  0  0  0  0  0  0  0  0
   -6.6330   -0.5840   -0.5920 C   0  0  2  0  0  0  0  0  0  0  0  0
   -7.0640    0.2540   -1.6930 C   0  0  0  0  0  0  0  0  0  0  0  0
   -6.5940    1.6490   -1.6870 C   0  0  0  0  0  0  0  0  0  0  0  0
   -7.4190    2.7350   -1.5770 C   0  0  0  0  0  0  0  0  0  0  0  0
   -6.6630    3.9740   -1.6060 C   0  0  0  0  0  0  0  0  0  0  0  0
   -5.2810    3.5390   -1.7740 C   0  0  0  0  0  0  0  0  0  0  0  0
   -5.2600    2.1940   -1.8160 C   0  0  0  0  0  0  0  0  0  0  0  0
   -5.1650   -0.8330   -0.4160 C   0  0  0  0  0  0  0  0  0  0  0  0
   -4.0390   -0.5620   -0.8960 N   0  0  0  0  0  0  0  0  0  0  0  0
   -2.8910   -0.8940   -0.5790 C   0  0  0  0  0  0  0  0  0  0  0  0
   -1.5390   -0.7340   -0.9310 N   0  0  0  0  0  0  0  0  0  0  0  0
   -0.4790   -1.3780   -0.2030 C   0  0  0  0  0  0  0  0  0  0  0  0
   -0.7920   -2.0930    0.7560 O   0  0  0  0  0  0  0  0  0  0  0  0
    0.9030   -1.1710   -0.6120 C   0  0  0  0  0  0  0  0  0  0  0  0
    1.9300   -1.5560    0.3840 C   0  0  0  0  0  0  0  0  0  0  0  0
    2.0810   -0.8190    1.6300 C   0  0  1  0  0  0  0  0  0  0  0  0
    0.8760   -0.7920    2.5670 C   0  0  0  0  0  0  0  0  0  0  0  0
    3.1260   -1.6560    2.4640 C   0  0  0  0  0  0  0  0  0  0  0  0
    2.5810    0.5690    1.5150 C   0  0  0  0  0  0  0  0  0  0  0  0
    3.8640    0.8340    0.9680 N   0  0  0  0  0  0  0  0  0  0  0  0
    4.3670    0.6850   -0.3280 C   0  0  0  0  0  0  0  0  0  0  0  0
    3.6410    0.2750   -1.2500 O   0  0  0  0  0  0  0  0  0  0  0  0
    5.7620    0.9970   -0.6830 C   0  0  0  0  0  0  0  0  0  0  0  0
    6.0550    1.1810   -2.0260 C   0  0  0  0  0  0  0  0  0  0  0  0
    7.3370    1.4720   -2.4560 C   0  0  0  0  0  0  0  0  0  0  0  0
    8.3500    1.5810   -1.5170 C   0  0  0  0  0  0  0  0  0  0  0  0
    8.0580    1.3980   -0.1950 C   0  0  0  0  0  0  0  0  0  0  0  0
    6.7670    1.1040    0.2500 C   0  0  0  0  0  0  0  0  0  0  0  0
    9.3010    1.5620    0.6180 C   0  0  0  0  0  0  0  0  0  0  0  0
   10.3940    1.3370   -0.4080 C   0  0  0  0  0  0  0  0  0  0  0  0
    9.7930    1.8780   -1.6710 C   0  0  0  0  0  0  0  0  0  0  0  0
   -3.3570   -1.9720    0.8950 S   0  0  0  0  0  0  0  0  0  0  0  0
   -5.0610   -1.7410    0.7740 C   0  0  0  0  0  0  0  0  0  0  0  0
   -6.2570   -2.1480    1.4360 C   0  0  0  0  0  0  0  0  0  0  0  0
   -6.2240   -2.1530    2.7020 O   0  0  0  0  0  0  0  0  0  0  0  0
  2  1  1  6
  2  3  1  0
  2 37  1  0
  3  4  1  0
  4  5  1  6
  4 11  1  0
  5  6  1  0
  6  7  2  0
  6 10  1  0
  7  8  1  0
  8  9  1  0
  9 10  2  0
 11 12  1  0
 11 36  2  0
 12 13  2  0
 13 14  1  0
 13 35  1  0
 14 15  1  0
 15 16  2  0
 15 17  1  0
 17 18  1  0
 18 19  1  0
 19 20  1  1
 19 21  1  0
 19 22  1  0
 22 23  1  0
 23 24  1  0
 24 25  2  0
 24 26  1  0
 26 27  2  0
 26 31  1  0
 27 28  1  0
 28 29  2  0
 29 30  1  0
 29 34  1  0
 30 31  2  0
 30 32  1  0
 32 33  1  0
 33 34  1  0
 35 36  1  0
 36 37  1  0
 37 38  2  0
M  END
