
     RDKit          3D

 38 41  0  0  0  0  0  0  0  0999 V2000
    3.9100    0.4460   -2.1400 C   0  0  0  0  0  0  0  0  0  0  0  0
    2.6680   -0.1090   -2.7370 C   0  0  2  0  0  0  0  0  0  0  0  0
    2.6120    0.4700   -4.1670 C   0  0  0  0  0  0  0  0  0  0  0  0
    1.3810    0.2290   -2.1120 C   0  0  0  0  0  0  0  0  0  0  0  0
    1.1060   -0.1040   -0.7900 N   0  0  0  0  0  0  0  0  0  0  0  0
    1.3000   -1.4190   -0.3570 C   0  0  0  0  0  0  0  0  0  0  0  0
    0.1590   -2.3790   -0.3550 C   0  0  1  0  0  0  0  0  0  0  0  0
    0.7430   -3.5820    0.1610 O   0  0  0  0  0  0  0  0  0  0  0  0
   -1.0770   -2.0260    0.3460 C   0  0  2  0  0  0  0  0  0  0  0  0
   -2.1710   -3.0830    0.2140 C   0  0  0  0  0  0  0  0  0  0  0  0
   -1.8320   -4.3960    0.7290 C   0  0  0  0  0  0  0  0  0  0  0  0
   -1.2800   -5.4060   -0.0150 C   0  0  0  0  0  0  0  0  0  0  0  0
   -0.9740   -6.6320    0.5160 C   0  0  0  0  0  0  0  0  0  0  0  0
   -1.2150   -6.9060    1.8500 C   0  0  0  0  0  0  0  0  0  0  0  0
   -1.7720   -5.9090    2.6270 C   0  0  0  0  0  0  0  0  0  0  0  0
   -2.0720   -4.6810    2.0740 C   0  0  0  0  0  0  0  0  0  0  0  0
   -1.6740   -0.8240   -0.2020 N   0  0  0  0  0  0  0  0  0  0  0  0
   -2.3000    0.1140    0.6660 C   0  0  0  0  0  0  0  0  0  0  0  0
   -2.3460   -0.0850    1.9210 O   0  0  0  0  0  0  0  0  0  0  0  0
   -2.8950    1.2870    0.2200 O   0  0  0  0  0  0  0  0  0  0  0  0
   -3.5060    2.1950    1.0920 C   0  0  1  0  0  0  0  0  0  0  0  0
   -2.9610    3.5930    0.9580 C   0  0  0  0  0  0  0  0  0  0  0  0
   -3.9780    4.4860    1.1510 O   0  0  0  0  0  0  0  0  0  0  0  0
   -5.1700    3.8320    1.2390 C   0  0  1  0  0  0  0  0  0  0  0  0
   -6.1380    4.2970    0.3210 O   0  0  0  0  0  0  0  0  0  0  0  0
   -5.8670    3.6970   -0.8930 C   0  0  0  0  0  0  0  0  0  0  0  0
   -5.1830    2.5850   -0.7040 C   0  0  0  0  0  0  0  0  0  0  0  0
   -4.9700    2.4140    0.7660 C   0  0  1  0  0  0  0  0  0  0  0  0
    1.1140    1.0960    0.3940 S   0  0  1  0  0  0  0  0  0  0  0  0
    0.0720    2.1490    0.0290 O   0  0  0  0  0  0  0  0  0  0  0  0
    0.6850    0.5300    1.7290 O   0  0  0  0  0  0  0  0  0  0  0  0
    2.6540    1.9110    0.6130 C   0  0  0  0  0  0  0  0  0  0  0  0
    3.6280    1.3970    1.4520 C   0  0  0  0  0  0  0  0  0  0  0  0
    4.8420    2.0160    1.6600 C   0  0  0  0  0  0  0  0  0  0  0  0
    5.1320    3.2050    1.0180 C   0  0  0  0  0  0  0  0  0  0  0  0
    6.3780    3.8790    1.2060 N   0  0  0  0  0  0  0  0  0  0  0  0
    4.1590    3.7170    0.1810 C   0  0  0  0  0  0  0  0  0  0  0  0
    2.9440    3.0980   -0.0270 C   0  0  0  0  0  0  0  0  0  0  0  0
  2  1  1  1
  2  3  1  0
  2  4  1  0
  4  5  1  0
  5  6  1  0
 29  5  1  6
  6  7  1  0
  7  8  1  1
  7  9  1  0
  9 10  1  6
  9 17  1  0
 10 11  1  0
 11 12  2  0
 11 16  1  0
 12 13  1  0
 13 14  2  0
 14 15  1  0
 15 16  2  0
 17 18  1  0
 18 19  2  0
 18 20  1  0
 21 20  1  6
 21 22  1  0
 21 28  1  0
 22 23  1  0
 24 23  1  6
 24 25  1  0
 24 28  1  0
 25 26  1  0
 26 27  2  0
 28 27  1  6
 29 30  2  0
 29 31  2  0
 29 32  1  0
 32 33  2  0
 32 38  1  0
 33 34  1  0
 34 35  2  0
 35 36  1  0
 35 37  1  0
 37 38  2  0
M  END
