
     RDKit          3D

 38 41  0  0  0  0  0  0  0  0999 V2000
   -5.9470   -2.6860   -3.6580 C   0  0  0  0  0  0  0  0  0  0  0  0
   -5.5210   -1.8390   -2.5040 C   0  0  0  0  0  0  0  0  0  0  0  0
   -4.2350   -1.7100   -2.0190 C   0  0  0  0  0  0  0  0  0  0  0  0
   -4.2390   -0.8430   -0.9500 C   0  0  0  0  0  0  0  0  0  0  0  0
   -3.1010   -0.4600   -0.1940 N   0  0  0  0  0  0  0  0  0  0  0  0
   -1.7940   -0.9180   -0.3950 C   0  0  0  0  0  0  0  0  0  0  0  0
   -1.5630   -1.7370   -1.3090 O   0  0  0  0  0  0  0  0  0  0  0  0
   -0.6610   -0.4760    0.4280 C   0  0  0  0  0  0  0  0  0  0  0  0
   -0.8470    0.3460    1.3430 O   0  0  0  0  0  0  0  0  0  0  0  0
    0.6900   -1.0070    0.1730 C   0  0  2  0  0  0  0  0  0  0  0  0
    1.0820   -0.6970   -1.2800 C   0  0  0  0  0  0  0  0  0  0  0  0
    0.6170   -2.5360    0.2560 C   0  0  0  0  0  0  0  0  0  0  0  0
    1.7480   -0.4730    1.0710 C   0  0  0  0  0  0  0  0  0  0  0  0
    1.8940    0.9840    0.9580 C   0  0  0  0  0  0  0  0  0  0  0  0
    1.2230    1.7580    1.6640 O   0  0  0  0  0  0  0  0  0  0  0  0
    2.8260    1.6290    0.0250 C   0  0  0  0  0  0  0  0  0  0  0  0
    4.2100    1.0110    0.1670 C   0  0  2  0  0  0  0  0  0  0  0  0
    4.7560    1.1540    1.5420 C   0  0  0  0  0  0  0  0  0  0  0  0
    6.1650    0.7000    1.6470 C   0  0  1  0  0  0  0  0  0  0  0  0
    6.1730   -1.0430    2.2200 S   0  0  0  0  0  0  0  0  0  0  0  0
    7.9220   -1.5730    2.0890 C   0  0  0  0  0  0  0  0  0  0  0  0
    8.7350   -0.3420    1.6650 C   0  0  0  0  0  0  0  0  0  0  0  0
    8.1660    0.2240    0.4040 C   0  0  0  0  0  0  0  0  0  0  0  0
    6.9430    0.7190    0.3910 C   0  0  0  0  0  0  0  0  0  0  0  0
    6.3600    1.2800   -0.8160 C   0  0  0  0  0  0  0  0  0  0  0  0
    7.0860    1.2870   -1.9050 C   0  0  0  0  0  0  0  0  0  0  0  0
    8.4700    0.7610   -1.9990 C   0  0  0  0  0  0  0  0  0  0  0  0
    8.8830    0.2460   -0.7610 O   0  0  0  0  0  0  0  0  0  0  0  0
    5.0460    1.7780   -0.7280 O   0  0  0  0  0  0  0  0  0  0  0  0
   -5.5470   -0.4480   -0.7940 C   0  0  0  0  0  0  0  0  0  0  0  0
   -6.0450    0.4640    0.2070 C   0  0  0  0  0  0  0  0  0  0  0  0
   -5.2830    0.9790    1.0370 O   0  0  0  0  0  0  0  0  0  0  0  0
   -7.4300    0.8250    0.3010 N   0  0  0  0  0  0  0  0  0  0  0  0
   -7.9140    1.7420    1.3120 C   0  0  1  0  0  0  0  0  0  0  0  0
   -8.5890    2.9490    0.6930 C   0  0  0  0  0  0  0  0  0  0  0  0
   -8.9560    1.0680    2.2020 C   0  0  0  0  0  0  0  0  0  0  0  0
   -8.4590   -0.0320    2.8600 O   0  0  0  0  0  0  0  0  0  0  0  0
   -6.2820   -1.0630   -1.7400 N   0  0  0  0  0  0  0  0  0  0  0  0
  1  2  1  0
  2  3  2  0
  2 38  1  0
  3  4  1  0
  4  5  1  0
  4 30  2  0
  5  6  1  0
  6  7  2  0
  6  8  1  0
  8  9  2  0
  8 10  1  0
 10 11  1  6
 10 12  1  0
 10 13  1  0
 13 14  1  0
 14 15  2  0
 14 16  1  0
 17 16  1  1
 17 18  1  0
 17 29  1  0
 19 18  1  6
 19 20  1  0
 19 24  1  0
 20 21  1  0
 21 22  1  0
 22 23  1  0
 23 24  2  0
 23 28  1  0
 24 25  1  0
 25 26  2  0
 25 29  1  0
 26 27  1  0
 27 28  1  0
 30 31  1  0
 30 38  1  0
 31 32  2  0
 31 33  1  0
 33 34  1  0
 34 35  1  6
 34 36  1  0
 36 37  1  0
M  END
