
     RDKit          3D

 47 51  0  0  0  0  0  0  0  0999 V2000
    8.9120    1.3500   -0.7680 C   0  0  0  0  0  0  0  0  0  0  0  0
    7.4870    0.9810   -0.8140 C   0  0  0  0  0  0  0  0  0  0  0  0
    6.6340    1.6700   -1.6890 C   0  0  0  0  0  0  0  0  0  0  0  0
    5.3000    1.3840   -1.7970 C   0  0  0  0  0  0  0  0  0  0  0  0
    4.8080    0.3610   -0.9870 C   0  0  0  0  0  0  0  0  0  0  0  0
    3.4050   -0.0190   -1.0490 C   0  0  0  0  0  0  0  0  0  0  0  0
    2.4380    0.9590   -0.7140 N   0  0  2  0  0  0  0  0  0  0  0  0
    2.1430    0.8360    0.7130 C   0  0  0  0  0  0  0  0  0  0  0  0
    0.8620    1.5670    1.0240 C   0  0  0  0  0  0  0  0  0  0  0  0
   -0.2110    0.5470    1.2800 C   0  0  2  0  0  0  0  0  0  0  0  0
   -0.3190   -0.5210    0.2190 C   0  0  0  0  0  0  0  0  0  0  0  0
   -1.0370   -1.7060    0.3640 C   0  0  0  0  0  0  0  0  0  0  0  0
   -1.0530   -2.6010   -0.6860 C   0  0  0  0  0  0  0  0  0  0  0  0
   -0.3690   -2.3250   -1.8690 C   0  0  0  0  0  0  0  0  0  0  0  0
    0.3480   -1.1790   -2.0640 C   0  0  0  0  0  0  0  0  0  0  0  0
    0.3560   -0.2870   -0.9920 C   0  0  0  0  0  0  0  0  0  0  0  0
    1.2140    0.8660   -1.4680 C   0  0  0  0  0  0  0  0  0  0  0  0
   -1.6870   -3.8260   -0.7710 O   0  0  0  0  0  0  0  0  0  0  0  0
   -1.7720   -5.0030   -0.0680 C   0  0  0  0  0  0  0  0  0  0  0  0
   -3.1660   -5.5770   -0.0680 C   0  0  1  0  0  0  0  0  0  0  0  0
   -3.6760   -5.6650    1.2520 O   0  0  0  0  0  0  0  0  0  0  0  0
   -4.1050   -4.9340   -1.0020 C   0  0  0  0  0  0  0  0  0  0  0  0
   -4.8280   -3.7960   -0.6060 N   0  0  1  0  0  0  0  0  0  0  0  0
   -4.5880   -3.2180    0.6580 C   0  0  0  0  0  0  0  0  0  0  0  0
   -4.7700   -2.7320   -1.6240 C   0  0  0  0  0  0  0  0  0  0  0  0
   -5.6830   -1.6350   -1.2480 C   0  0  0  0  0  0  0  0  0  0  0  0
   -5.3140   -0.3600   -1.2430 C   0  0  0  0  0  0  0  0  0  0  0  0
   -3.9730    0.1190   -1.6030 C   0  0  0  0  0  0  0  0  0  0  0  0
   -3.7650    1.3930   -1.0860 O   0  0  0  0  0  0  0  0  0  0  0  0
   -3.4410    1.3580    0.2680 C   0  0  2  0  0  0  0  0  0  0  0  0
   -4.4460    2.0380    1.1300 C   0  0  0  0  0  0  0  0  0  0  0  0
   -4.6750    3.4540    0.8630 C   0  0  0  0  0  0  0  0  0  0  0  0
   -5.6190    3.8160   -0.0770 C   0  0  0  0  0  0  0  0  0  0  0  0
   -5.8420    5.1420   -0.3240 C   0  0  0  0  0  0  0  0  0  0  0  0
   -5.1310    6.1240    0.3570 C   0  0  0  0  0  0  0  0  0  0  0  0
   -5.3910    7.4720    0.0720 O   0  0  0  0  0  0  0  0  0  0  0  0
   -4.1860    5.7810    1.2970 C   0  0  0  0  0  0  0  0  0  0  0  0
   -3.9780    4.4340    1.5300 C   0  0  0  0  0  0  0  0  0  0  0  0
   -2.0340    1.8990    0.4070 C   0  0  0  0  0  0  0  0  0  0  0  0
   -1.4060    1.3070    1.5320 N   0  0  2  0  0  0  0  0  0  0  0  0
   -1.1280    2.2080    2.6290 C   0  0  0  0  0  0  0  0  0  0  0  0
    5.6500   -0.3150   -0.1270 C   0  0  0  0  0  0  0  0  0  0  0  0
    7.0060   -0.0250   -0.0170 C   0  0  0  0  0  0  0  0  0  0  0  0
    7.9010   -0.7440    0.8960 C   0  0  2  0  0  0  0  0  0  0  0  0
    8.4440    0.1120    2.0290 C   0  0  0  0  0  0  0  0  0  0  0  0
    8.9880   -1.5150    0.2080 C   0  0  0  0  0  0  0  0  0  0  0  0
    7.0810   -1.7070    1.5480 O   0  0  0  0  0  0  0  0  0  0  0  0
  1  2  1  0
  2  3  2  0
  2 43  1  0
  3  4  1  0
  4  5  2  0
  5  6  1  0
  5 42  1  0
  7  6  1  6
  7  8  1  0
  7 17  1  0
  8  9  1  0
 10  9  1  6
 10 11  1  0
 10 40  1  0
 11 12  2  0
 11 16  1  0
 12 13  1  0
 13 14  2  0
 13 18  1  0
 14 15  1  0
 15 16  2  0
 16 17  1  0
 18 19  1  0
 19 20  1  0
 20 21  1  1
 20 22  1  0
 22 23  1  0
 23 24  1  1
 23 25  1  0
 25 26  1  0
 26 27  2  0
 27 28  1  0
 28 29  1  0
 29 30  1  0
 30 31  1  1
 30 39  1  0
 31 32  1  0
 32 33  2  0
 32 38  1  0
 33 34  1  0
 34 35  2  0
 35 36  1  0
 35 37  1  0
 37 38  2  0
 39 40  1  0
 40 41  1  1
 42 43  2  0
 43 44  1  0
 44 45  1  1
 44 46  1  0
 44 47  1  0
M  CHG  3   7   1  23   1  40   1
M  END
