
     RDKit          3D

 48 54  0  0  0  0  0  0  0  0999 V2000
   -2.7940   -4.5210    1.0550 C   0  0  0  0  0  0  0  0  0  0  0  0
   -3.1420   -3.8080   -0.2390 C   0  0  0  0  0  0  0  0  0  0  0  0
   -3.9510   -2.6510   -0.0740 N   0  0  1  0  0  0  0  0  0  0  0  0
   -4.9450   -2.8900    0.9370 C   0  0  0  0  0  0  0  0  0  0  0  0
   -3.2130   -1.4060    0.1550 C   0  0  2  0  0  0  0  0  0  0  0  0
   -3.0860   -0.6910   -1.1850 C   0  0  0  0  0  0  0  0  0  0  0  0
   -4.4010   -0.4600   -1.6520 O   0  0  0  0  0  0  0  0  0  0  0  0
   -5.2800    0.3450   -1.0000 C   0  0  0  0  0  0  0  0  0  0  0  0
   -4.9310    0.9320    0.0540 O   0  0  0  0  0  0  0  0  0  0  0  0
   -6.6520    0.5570   -1.4890 C   0  0  0  0  0  0  0  0  0  0  0  0
   -7.1330   -0.0350   -2.6200 C   0  0  0  0  0  0  0  0  0  0  0  0
   -8.4430    0.1670   -3.0620 C   0  0  0  0  0  0  0  0  0  0  0  0
   -9.2770    0.9920   -2.3310 C   0  0  0  0  0  0  0  0  0  0  0  0
  -10.5880    1.1830   -2.7830 C   0  0  0  0  0  0  0  0  0  0  0  0
  -11.4000    1.9990   -2.0480 C   0  0  0  0  0  0  0  0  0  0  0  0
  -10.9310    2.6040   -0.9060 C   0  0  0  0  0  0  0  0  0  0  0  0
   -9.6390    2.4180   -0.4570 C   0  0  0  0  0  0  0  0  0  0  0  0
   -8.8120    1.5980   -1.1890 C   0  0  0  0  0  0  0  0  0  0  0  0
   -7.5120    1.3710   -0.7900 C   0  0  0  0  0  0  0  0  0  0  0  0
   -1.8680   -1.6530    0.7200 C   0  0  0  0  0  0  0  0  0  0  0  0
   -1.1390   -0.4090    1.0010 C   0  0  0  0  0  0  0  0  0  0  0  0
   -1.6560    0.6970    0.8250 O   0  0  0  0  0  0  0  0  0  0  0  0
    0.1860   -0.5410    1.4850 N   0  0  0  0  0  0  0  0  0  0  0  0
    0.8500   -1.8200    1.6790 C   0  0  0  0  0  0  0  0  0  0  0  0
    2.3070   -1.7860    1.4340 C   0  0  0  0  0  0  0  0  0  0  0  0
    2.8080   -0.5000    0.8120 C   0  0  0  0  0  0  0  0  0  0  0  0
    2.2890    0.7000    1.4570 C   0  0  0  0  0  0  0  0  0  0  0  0
    3.0350    1.8380    1.7400 C   0  0  0  0  0  0  0  0  0  0  0  0
    4.3980    1.8700    1.3630 N   0  0  0  0  0  0  0  0  0  0  0  0
    5.3240    2.9160    1.5820 C   0  0  0  0  0  0  0  0  0  0  0  0
    4.9200    3.9430    2.1750 O   0  0  0  0  0  0  0  0  0  0  0  0
    6.7200    2.9130    1.1800 C   0  0  0  0  0  0  0  0  0  0  0  0
    7.4860    4.0290    1.4760 C   0  0  0  0  0  0  0  0  0  0  0  0
    8.8220    4.1270    1.1380 C   0  0  0  0  0  0  0  0  0  0  0  0
    9.4160    3.0830    0.4870 C   0  0  0  0  0  0  0  0  0  0  0  0
    8.6490    1.9650    0.1920 C   0  0  0  0  0  0  0  0  0  0  0  0
    7.3060    1.8680    0.5320 C   0  0  0  0  0  0  0  0  0  0  0  0
    6.8010    0.6500    0.1140 O   0  0  0  0  0  0  0  0  0  0  0  0
    7.7500    0.0860   -0.7380 C   0  0  1  0  0  0  0  0  0  0  0  0
    7.9640   -1.3830   -0.5600 C   0  0  0  0  0  0  0  0  0  0  0  0
    8.2210   -1.9550   -1.9360 C   0  0  0  0  0  0  0  0  0  0  0  0
    7.8500   -0.9040   -2.9410 C   0  0  0  0  0  0  0  0  0  0  0  0
    7.3370    0.2950   -2.1790 C   0  0  0  0  0  0  0  0  0  0  0  0
    8.9680    0.7670   -0.4500 O   0  0  0  0  0  0  0  0  0  0  0  0
    2.3720    2.8680    2.3600 C   0  0  0  0  0  0  0  0  0  0  0  0
    1.0160    2.8220    2.7080 C   0  0  0  0  0  0  0  0  0  0  0  0
    0.2910    1.6950    2.4220 C   0  0  0  0  0  0  0  0  0  0  0  0
    0.9210    0.6380    1.8000 C   0  0  0  0  0  0  0  0  0  0  0  0
  1  2  1  0
  2  3  1  0
  3  4  1  1
  3  5  1  0
  5  6  1  6
  5 20  1  0
  6  7  1  0
  7  8  1  0
  8  9  2  0
  8 10  1  0
 10 11  2  0
 10 19  1  0
 11 12  1  0
 12 13  2  0
 13 14  1  0
 13 18  1  0
 14 15  2  0
 15 16  1  0
 16 17  2  0
 17 18  1  0
 18 19  2  0
 20 21  1  0
 21 22  2  0
 21 23  1  0
 23 24  1  0
 23 48  1  0
 24 25  1  0
 25 26  1  0
 26 27  1  0
 27 28  2  0
 27 48  1  0
 28 29  1  0
 28 45  1  0
 29 30  1  0
 30 31  2  0
 30 32  1  0
 32 33  2  0
 32 37  1  0
 33 34  1  0
 34 35  2  0
 35 36  1  0
 36 37  2  0
 36 44  1  0
 37 38  1  0
 38 39  1  0
 39 40  1  1
 39 43  1  0
 39 44  1  0
 40 41  1  0
 41 42  1  0
 42 43  1  0
 45 46  2  0
 46 47  1  0
 47 48  2  0
M  CHG  1   3   1
M  END
