
     RDKit          3D

 48 53  0  0  0  0  0  0  0  0999 V2000
  -10.5410    1.3380    4.6750 C   0  0  0  0  0  0  0  0  0  0  0  0
   -9.3990    1.5040    3.8880 O   0  0  0  0  0  0  0  0  0  0  0  0
   -9.3410    0.5490    2.8740 C   0  0  0  0  0  0  0  0  0  0  0  0
   -8.0780    0.8040    2.0770 C   0  0  0  0  0  0  0  0  0  0  0  0
   -7.9310   -0.1460    0.9940 N   0  0  0  0  0  0  0  0  0  0  0  0
   -7.5930    0.5010   -0.2590 C   0  0  2  0  0  0  0  0  0  0  0  0
   -8.3820   -0.0870   -1.4030 C   0  0  0  0  0  0  0  0  0  0  0  0
   -7.8720    0.3450   -2.7470 C   0  0  0  0  0  0  0  0  0  0  0  0
   -6.9860    1.5630   -2.6540 C   0  0  0  0  0  0  0  0  0  0  0  0
   -5.8180    1.3720   -1.7230 C   0  0  0  0  0  0  0  0  0  0  0  0
   -6.1070    0.5380   -0.5170 C   0  0  2  0  0  0  0  0  0  0  0  0
   -5.5200   -0.8220   -0.6130 C   0  0  0  0  0  0  0  0  0  0  0  0
   -6.2060   -1.8710   -0.5760 O   0  0  0  0  0  0  0  0  0  0  0  0
   -4.0810   -0.9690   -0.7640 C   0  0  0  0  0  0  0  0  0  0  0  0
   -3.1840    0.0780   -0.7370 C   0  0  0  0  0  0  0  0  0  0  0  0
   -1.8140   -0.1000   -0.9050 C   0  0  0  0  0  0  0  0  0  0  0  0
   -1.2930   -1.3430   -1.1070 C   0  0  0  0  0  0  0  0  0  0  0  0
    0.1550   -1.5680   -1.2920 C   0  0  0  0  0  0  0  0  0  0  0  0
    0.5940   -2.7430   -1.4810 O   0  0  0  0  0  0  0  0  0  0  0  0
    1.0870   -0.5440   -1.2690 O   0  0  0  0  0  0  0  0  0  0  0  0
    2.4560   -0.8140   -1.4520 C   0  0  2  0  0  0  0  0  0  0  0  0
    3.2240   -0.4740   -0.1880 C   0  0  0  0  0  0  0  0  0  0  0  0
    2.6070   -0.0120    0.7820 O   0  0  0  0  0  0  0  0  0  0  0  0
    4.6180   -0.6780   -0.1150 N   0  0  0  0  0  0  0  0  0  0  0  0
    5.4620   -0.4090    0.9860 C   0  0  0  0  0  0  0  0  0  0  0  0
    5.0250    0.1740    2.1530 C   0  0  0  0  0  0  0  0  0  0  0  0
    5.8720    0.4310    3.1960 C   0  0  0  0  0  0  0  0  0  0  0  0
    7.2320    0.1210    3.1500 C   0  0  0  0  0  0  0  0  0  0  0  0
    7.6890   -0.4560    2.0060 C   0  0  0  0  0  0  0  0  0  0  0  0
    9.0300   -0.7990    1.8880 C   0  0  0  0  0  0  0  0  0  0  0  0
    9.5630   -1.3920    0.7700 C   0  0  0  0  0  0  0  0  0  0  0  0
    8.7190   -1.6470   -0.2610 C   0  0  0  0  0  0  0  0  0  0  0  0
    7.3750   -1.3120   -0.1690 C   0  0  0  0  0  0  0  0  0  0  0  0
    6.8090   -0.7170    0.9380 C   0  0  0  0  0  0  0  0  0  0  0  0
    9.9200   -0.4920    2.9870 C   0  0  0  0  0  0  0  0  0  0  0  0
   11.1600   -0.7950    2.9130 O   0  0  0  0  0  0  0  0  0  0  0  0
    9.4360    0.1440    4.1490 N   0  0  0  0  0  0  0  0  0  0  0  0
   10.4230    0.5300    5.2010 C   0  0  0  0  0  0  0  0  0  0  0  0
    8.0600    0.4190    4.3310 C   0  0  0  0  0  0  0  0  0  0  0  0
    3.0280   -0.0100   -2.5670 C   0  0  0  0  0  0  0  0  0  0  0  0
    2.7290    1.3380   -2.6720 C   0  0  0  0  0  0  0  0  0  0  0  0
    3.2340    2.1350   -3.6920 C   0  0  0  0  0  0  0  0  0  0  0  0
    4.0610    1.5500   -4.6260 C   0  0  0  0  0  0  0  0  0  0  0  0
    4.6150    2.3870   -5.7310 C   0  0  0  0  0  0  0  0  0  0  0  0
    4.3640    0.2100   -4.5320 C   0  0  0  0  0  0  0  0  0  0  0  0
    3.8520   -0.5670   -3.5100 C   0  0  0  0  0  0  0  0  0  0  0  0
   -2.1560   -2.4190   -1.1400 C   0  0  0  0  0  0  0  0  0  0  0  0
   -3.5050   -2.2290   -0.9730 C   0  0  0  0  0  0  0  0  0  0  0  0
  1  2  1  0
  2  3  1  0
  3  4  1  0
  4  5  1  0
  6  5  1  1
  6  7  1  0
  6 11  1  0
  7  8  1  0
  8  9  1  0
  9 10  1  0
 10 11  1  0
 11 12  1  6
 12 13  2  0
 12 14  1  0
 14 15  2  0
 14 48  1  0
 15 16  1  0
 16 17  2  0
 17 18  1  0
 17 47  1  0
 18 19  2  0
 18 20  1  0
 21 20  1  1
 21 22  1  0
 21 40  1  0
 22 23  2  0
 22 24  1  0
 24 25  1  0
 25 26  2  0
 25 34  1  0
 26 27  1  0
 27 28  2  0
 28 29  1  0
 28 39  1  0
 29 30  2  0
 29 34  1  0
 30 31  1  0
 30 35  1  0
 31 32  2  0
 32 33  1  0
 33 34  2  0
 35 36  2  0
 35 37  1  0
 37 38  1  0
 37 39  1  0
 40 41  2  0
 40 46  1  0
 41 42  1  0
 42 43  2  0
 43 44  1  0
 43 45  1  0
 45 46  2  0
 47 48  2  0
M  CHG  1   5   1
M  END
