
     RDKit          3D

 47 52  0  0  0  0  0  0  0  0999 V2000
    4.1700    0.5580    3.4810 C   0  0  0  0  0  0  0  0  0  0  0  0
    4.8180    0.5300    2.0940 C   0  0  2  0  0  0  0  0  0  0  0  0
    5.2620    1.8440    1.7060 N   0  0  0  0  0  0  0  0  0  0  0  0
    6.0360    2.1980    0.5880 C   0  0  0  0  0  0  0  0  0  0  0  0
    7.0500    2.9560    0.7880 O   0  0  0  0  0  0  0  0  0  0  0  0
    5.7820    1.7740   -0.7950 C   0  0  1  0  0  0  0  0  0  0  0  0
    6.9340    2.0240   -1.7780 C   0  0  0  0  0  0  0  0  0  0  0  0
    6.6090    0.6760   -1.3300 C   0  0  1  0  0  0  0  0  0  0  0  0
    7.3530   -0.1110   -0.3110 C   0  0  0  0  0  0  0  0  0  0  0  0
    6.8660   -1.5270   -0.2140 C   0  0  0  0  0  0  0  0  0  0  0  0
    5.7090   -1.6960   -1.0310 O   0  0  0  0  0  0  0  0  0  0  0  0
    4.6860   -2.6230   -0.7780 C   0  0  0  0  0  0  0  0  0  0  0  0
    4.4420   -3.6550   -1.6730 C   0  0  0  0  0  0  0  0  0  0  0  0
    3.4620   -4.6150   -1.5030 C   0  0  0  0  0  0  0  0  0  0  0  0
    2.6870   -4.5370   -0.3790 C   0  0  0  0  0  0  0  0  0  0  0  0
    2.9240   -3.4970    0.5320 C   0  0  0  0  0  0  0  0  0  0  0  0
    3.8970   -2.5440    0.3600 C   0  0  0  0  0  0  0  0  0  0  0  0
    4.0400   -1.5580    1.3180 O   0  0  0  0  0  0  0  0  0  0  0  0
    3.9390   -0.1590    1.1060 C   0  0  1  0  0  0  0  0  0  0  0  0
    2.5280    0.3030    1.1700 C   0  0  0  0  0  0  0  0  0  0  0  0
    1.6440   -0.5570    1.3850 O   0  0  0  0  0  0  0  0  0  0  0  0
    2.1660    1.6650    0.9980 N   0  0  0  0  0  0  0  0  0  0  0  0
    0.8080    2.1400    1.0550 C   0  0  0  0  0  0  0  0  0  0  0  0
   -0.0800    1.5250    0.0300 C   0  0  2  0  0  0  0  0  0  0  0  0
    0.4430    1.8360   -1.3440 C   0  0  0  0  0  0  0  0  0  0  0  0
    0.4960    3.3180   -1.5930 C   0  0  0  0  0  0  0  0  0  0  0  0
   -0.8190    3.8980   -1.2020 C   0  0  0  0  0  0  0  0  0  0  0  0
   -1.8490    2.8140   -0.8810 C   0  0  0  0  0  0  0  0  0  0  0  0
   -1.4520    2.0100    0.2340 N   0  0  1  0  0  0  0  0  0  0  0  0
   -2.3390    0.9480    0.5160 C   0  0  0  0  0  0  0  0  0  0  0  0
   -3.6310    0.8840   -0.1740 C   0  0  0  0  0  0  0  0  0  0  0  0
   -4.0920    1.6750   -1.0230 O   0  0  0  0  0  0  0  0  0  0  0  0
   -4.5240   -0.2240    0.1370 N   0  0  0  0  0  0  0  0  0  0  0  0
   -5.8120   -0.3270   -0.5190 C   0  0  1  0  0  0  0  0  0  0  0  0
   -5.9180   -1.6500   -1.2200 C   0  0  0  0  0  0  0  0  0  0  0  0
   -6.4200   -1.7130   -2.5070 C   0  0  0  0  0  0  0  0  0  0  0  0
   -6.5320   -2.9040   -3.1860 C   0  0  0  0  0  0  0  0  0  0  0  0
   -6.1290   -4.0590   -2.5510 C   0  0  0  0  0  0  0  0  0  0  0  0
   -5.6280   -4.0220   -1.2720 C   0  0  0  0  0  0  0  0  0  0  0  0
   -5.5180   -2.8100   -0.5940 C   0  0  0  0  0  0  0  0  0  0  0  0
   -6.8960   -0.1910    0.4810 C   0  0  0  0  0  0  0  0  0  0  0  0
   -8.2110   -0.5430    0.2280 C   0  0  0  0  0  0  0  0  0  0  0  0
   -9.1920   -0.4110    1.1850 C   0  0  0  0  0  0  0  0  0  0  0  0
   -8.8860    0.0790    2.4330 C   0  0  0  0  0  0  0  0  0  0  0  0
   -7.5860    0.4360    2.7110 C   0  0  0  0  0  0  0  0  0  0  0  0
   -6.5980    0.2970    1.7270 C   0  0  0  0  0  0  0  0  0  0  0  0
   -5.3070    0.6730    2.0600 O   0  0  0  0  0  0  0  0  0  0  0  0
  2  1  1  1
  2  3  1  0
  2 19  1  0
  3  4  1  0
  4  5  2  0
  4  6  1  0
  6  7  1  6
  6  8  1  0
  8  7  1  6
  8  9  1  0
  9 10  1  0
 10 11  1  0
 11 12  1  0
 12 13  2  0
 12 17  1  0
 13 14  1  0
 14 15  2  0
 15 16  1  0
 16 17  2  0
 17 18  1  0
 18 19  1  0
 19 20  1  1
 20 21  2  0
 20 22  1  0
 22 23  1  0
 24 23  1  1
 24 25  1  0
 24 29  1  0
 25 26  1  0
 26 27  1  0
 27 28  1  0
 28 29  1  0
 29 30  1  6
 30 31  1  0
 31 32  2  0
 31 33  1  0
 34 33  1  1
 34 35  1  0
 34 41  1  0
 35 36  2  0
 35 40  1  0
 36 37  1  0
 37 38  2  0
 38 39  1  0
 39 40  2  0
 41 42  2  0
 41 46  1  0
 42 43  1  0
 43 44  2  0
 44 45  1  0
 45 46  2  0
 46 47  1  0
M  CHG  1  29   1
M  END
