
     RDKit          3D

 49 53  0  0  0  0  0  0  0  0999 V2000
   -6.9810   -0.0570    2.5230 C   0  0  0  0  0  0  0  0  0  0  0  0
   -5.8830   -0.9520    3.0350 C   0  0  2  0  0  0  0  0  0  0  0  0
   -6.2060   -2.3680    2.6160 C   0  0  0  0  0  0  0  0  0  0  0  0
   -5.9060   -0.8840    4.5390 C   0  0  0  0  0  0  0  0  0  0  0  0
   -4.5910   -0.5770    2.4940 N   0  0  0  0  0  0  0  0  0  0  0  0
   -4.3730   -0.5930    1.1120 C   0  0  0  0  0  0  0  0  0  0  0  0
   -5.3260   -0.9410    0.3670 O   0  0  0  0  0  0  0  0  0  0  0  0
   -3.0920   -0.2260    0.4530 C   0  0  2  0  0  0  0  0  0  0  0  0
   -2.6850    1.1180    0.9810 C   0  0  0  0  0  0  0  0  0  0  0  0
   -2.9110    2.2540    0.0570 C   0  0  2  0  0  0  0  0  0  0  0  0
   -3.3460    3.4580    0.9050 C   0  0  0  0  0  0  0  0  0  0  0  0
   -3.9780    4.5110    0.0190 C   0  0  0  0  0  0  0  0  0  0  0  0
   -5.3490    3.9690   -0.3510 C   0  0  0  0  0  0  0  0  0  0  0  0
   -5.2880    2.5280   -0.7080 C   0  0  0  0  0  0  0  0  0  0  0  0
   -3.8790    2.0410   -1.0400 C   0  0  2  0  0  0  0  0  0  0  0  0
   -3.9690    0.6730   -1.6010 C   0  0  0  0  0  0  0  0  0  0  0  0
   -3.1530   -0.3280   -0.9650 N   0  0  1  0  0  0  0  0  0  0  0  0
   -1.8930   -0.3900   -1.6400 C   0  0  0  0  0  0  0  0  0  0  0  0
   -0.8030   -1.1130   -0.9340 C   0  0  1  0  0  0  0  0  0  0  0  0
   -1.0380   -2.4370   -0.6330 O   0  0  0  0  0  0  0  0  0  0  0  0
    0.4450   -1.0370   -1.7920 C   0  0  2  0  0  0  0  0  0  0  0  0
    0.3430   -1.7890   -3.0900 C   0  0  0  0  0  0  0  0  0  0  0  0
    0.1160   -3.2280   -2.9730 C   0  0  0  0  0  0  0  0  0  0  0  0
    1.1850   -4.0760   -2.8370 C   0  0  0  0  0  0  0  0  0  0  0  0
    0.9880   -5.4280   -2.7410 C   0  0  0  0  0  0  0  0  0  0  0  0
   -0.2950   -5.9290   -2.7820 C   0  0  0  0  0  0  0  0  0  0  0  0
   -1.4020   -5.1220   -2.9170 C   0  0  0  0  0  0  0  0  0  0  0  0
   -1.1470   -3.7470   -3.0110 C   0  0  0  0  0  0  0  0  0  0  0  0
    1.6030   -1.5430   -1.0730 N   0  0  0  0  0  0  0  0  0  0  0  0
    2.6480   -0.6410   -0.7550 C   0  0  0  0  0  0  0  0  0  0  0  0
    2.5340    0.5680   -1.1070 O   0  0  0  0  0  0  0  0  0  0  0  0
    3.8760   -1.0980   -0.0140 C   0  0  2  0  0  0  0  0  0  0  0  0
    3.4920   -1.7870    1.2770 C   0  0  0  0  0  0  0  0  0  0  0  0
    2.7350   -0.9090    2.1810 C   0  0  0  0  0  0  0  0  0  0  0  0
    2.2920   -1.3840    3.4360 N   0  0  0  0  0  0  0  0  0  0  0  0
    2.4800    0.2620    1.8430 O   0  0  0  0  0  0  0  0  0  0  0  0
    4.8000   -0.0270    0.2160 N   0  0  0  0  0  0  0  0  0  0  0  0
    6.0970    0.0380   -0.3480 C   0  0  0  0  0  0  0  0  0  0  0  0
    6.4400   -0.9060   -1.0910 O   0  0  0  0  0  0  0  0  0  0  0  0
    7.0380    1.1250   -0.1140 C   0  0  0  0  0  0  0  0  0  0  0  0
    6.7940    2.2010    0.6990 C   0  0  0  0  0  0  0  0  0  0  0  0
    7.7460    3.2040    0.8710 C   0  0  0  0  0  0  0  0  0  0  0  0
    8.9560    3.1310    0.2230 C   0  0  0  0  0  0  0  0  0  0  0  0
    9.9130    4.1270    0.3880 C   0  0  0  0  0  0  0  0  0  0  0  0
   11.1190    4.0240   -0.2790 C   0  0  0  0  0  0  0  0  0  0  0  0
   11.3590    2.9400   -1.0960 C   0  0  0  0  0  0  0  0  0  0  0  0
   10.3980    1.9770   -1.2380 C   0  0  0  0  0  0  0  0  0  0  0  0
    9.1810    2.0390   -0.5920 C   0  0  0  0  0  0  0  0  0  0  0  0
    8.2360    1.0970   -0.7280 N   0  0  0  0  0  0  0  0  0  0  0  0
  2  1  1  6
  2  3  1  0
  2  4  1  0
  2  5  1  0
  5  6  1  0
  6  7  2  0
  8  6  1  1
  8  9  1  0
  8 17  1  0
 10  9  1  1
 10 11  1  0
 10 15  1  0
 11 12  1  0
 12 13  1  0
 13 14  1  0
 15 14  1  1
 15 16  1  0
 16 17  1  0
 17 18  1  6
 18 19  1  0
 19 20  1  6
 19 21  1  0
 21 22  1  6
 21 29  1  0
 22 23  1  0
 23 24  2  0
 23 28  1  0
 24 25  1  0
 25 26  2  0
 26 27  1  0
 27 28  2  0
 29 30  1  0
 30 31  2  0
 30 32  1  0
 32 33  1  1
 32 37  1  0
 33 34  1  0
 34 35  1  0
 34 36  2  0
 37 38  1  0
 38 39  2  0
 38 40  1  0
 40 41  2  0
 40 49  1  0
 41 42  1  0
 42 43  2  0
 43 44  1  0
 43 48  1  0
 44 45  2  0
 45 46  1  0
 46 47  2  0
 47 48  1  0
 48 49  2  0
M  CHG  1  17   1
M  END
