
     RDKit          3D

 47 51  0  0  0  0  0  0  0  0999 V2000
  -10.7070   -1.3590   -2.7180 C   0  0  0  0  0  0  0  0  0  0  0  0
  -10.1040   -0.7680   -1.5620 O   0  0  0  0  0  0  0  0  0  0  0  0
  -10.2240   -1.4500   -0.3730 C   0  0  0  0  0  0  0  0  0  0  0  0
  -10.8950   -2.6590   -0.2890 C   0  0  0  0  0  0  0  0  0  0  0  0
  -11.0240   -3.3630    0.9150 C   0  0  0  0  0  0  0  0  0  0  0  0
  -10.4500   -2.8000    2.0280 C   0  0  0  0  0  0  0  0  0  0  0  0
   -9.7750   -1.6060    1.9930 C   0  0  0  0  0  0  0  0  0  0  0  0
   -9.6710   -0.9340    0.7660 C   0  0  0  0  0  0  0  0  0  0  0  0
   -8.9670    0.3450    0.6890 C   0  0  0  0  0  0  0  0  0  0  0  0
   -9.4520    1.4140   -0.0160 C   0  0  0  0  0  0  0  0  0  0  0  0
   -8.7520    2.6000   -0.0350 C   0  0  0  0  0  0  0  0  0  0  0  0
   -7.5670    2.7300    0.6460 C   0  0  0  0  0  0  0  0  0  0  0  0
   -7.0370    1.6690    1.3760 C   0  0  0  0  0  0  0  0  0  0  0  0
   -5.7710    1.8050    2.1320 C   0  0  0  0  0  0  0  0  0  0  0  0
   -4.5370    1.5260    1.3070 C   0  0  2  0  0  0  0  0  0  0  0  0
   -4.5960    0.1350    0.7840 C   0  0  0  0  0  0  0  0  0  0  0  0
   -3.3640    1.8090    2.1290 N   0  0  1  0  0  0  0  0  0  0  0  0
   -2.2780    0.9280    1.9470 C   0  0  0  0  0  0  0  0  0  0  0  0
   -1.0440    1.7460    1.8010 C   0  0  0  0  0  0  0  0  0  0  0  0
   -1.6030    2.9760    1.0710 C   0  0  1  0  0  0  0  0  0  0  0  0
   -1.7700    2.6930   -0.3940 C   0  0  0  0  0  0  0  0  0  0  0  0
   -0.4860    2.3520   -0.9710 N   0  0  0  0  0  0  0  0  0  0  0  0
    0.6250    3.2420   -1.0090 C   0  0  0  0  0  0  0  0  0  0  0  0
    0.4980    4.3860   -0.5280 O   0  0  0  0  0  0  0  0  0  0  0  0
    1.8760    2.7880   -1.6110 C   0  0  0  0  0  0  0  0  0  0  0  0
    2.9700    3.5700   -1.8470 C   0  0  0  0  0  0  0  0  0  0  0  0
    3.9490    2.7710   -2.4250 C   0  0  0  0  0  0  0  0  0  0  0  0
    3.3750    1.5060   -2.5080 C   0  0  0  0  0  0  0  0  0  0  0  0
    4.0000    0.2740   -3.0490 C   0  0  0  0  0  0  0  0  0  0  0  0
    3.2080   -0.7880   -2.6350 O   0  0  0  0  0  0  0  0  0  0  0  0
    3.7680   -1.9720   -3.0160 C   0  0  0  0  0  0  0  0  0  0  0  0
    5.0450   -2.3060   -2.3500 C   0  0  0  0  0  0  0  0  0  0  0  0
    5.6870   -3.3250   -2.8050 O   0  0  0  0  0  0  0  0  0  0  0  0
    5.6210   -1.6230   -1.2770 N   0  0  0  0  0  0  0  0  0  0  0  0
    6.9050   -1.9770   -0.6440 C   0  0  1  0  0  0  0  0  0  0  0  0
    7.8580   -0.8840   -1.1840 C   0  0  0  0  0  0  0  0  0  0  0  0
    9.2510   -1.1570   -0.6800 C   0  0  2  0  0  0  0  0  0  0  0  0
   10.1030    0.0210   -1.1370 C   0  0  0  0  0  0  0  0  0  0  0  0
    9.7780   -2.3920   -1.3300 C   0  0  0  0  0  0  0  0  0  0  0  0
    9.3050   -1.2040    0.8200 C   0  0  0  0  0  0  0  0  0  0  0  0
    8.1710   -1.9020    1.4760 C   0  0  1  0  0  0  0  0  0  0  0  0
    8.4860   -3.3470    1.8550 C   0  0  0  0  0  0  0  0  0  0  0  0
    7.9940   -1.2010    2.8490 C   0  0  0  0  0  0  0  0  0  0  0  0
    6.8430   -1.8320    0.8270 C   0  0  0  0  0  0  0  0  0  0  0  0
    2.1690    1.5810   -2.0180 O   0  0  0  0  0  0  0  0  0  0  0  0
   -2.9330    3.1340    1.7810 C   0  0  0  0  0  0  0  0  0  0  0  0
   -7.7760    0.4800    1.3710 C   0  0  0  0  0  0  0  0  0  0  0  0
  1  2  1  0
  2  3  1  0
  3  4  2  0
  3  8  1  0
  4  5  1  0
  5  6  2  0
  6  7  1  0
  7  8  2  0
  8  9  1  0
  9 10  2  0
  9 47  1  0
 10 11  1  0
 11 12  2  0
 12 13  1  0
 13 14  1  0
 13 47  2  0
 14 15  1  0
 15 16  1  1
 15 17  1  0
 17 18  1  6
 17 46  1  0
 18 19  1  0
 19 20  1  0
 20 21  1  6
 20 46  1  0
 21 22  1  0
 22 23  1  0
 23 24  2  0
 23 25  1  0
 25 26  2  0
 25 45  1  0
 26 27  1  0
 27 28  2  0
 28 29  1  0
 28 45  1  0
 29 30  1  0
 30 31  1  0
 31 32  1  0
 32 33  2  0
 32 34  1  0
 35 34  1  6
 35 36  1  0
 35 44  1  0
 36 37  1  0
 37 38  1  6
 37 39  1  0
 37 40  1  0
 40 41  1  0
 41 42  1  1
 41 43  1  0
 41 44  1  0
M  CHG  1  17   1
M  END
