
     RDKit          3D

 14 14  0  0  0  0  0  0  0  0999 V2000
    2.9630    2.2330   -0.4320 O   0  0  0  0  0  0  0  0  0  0  0  0
    3.2310    0.9140   -0.1830 C   0  0  0  0  0  0  0  0  0  0  0  0
    2.0950   -0.0280   -0.5900 C   0  0  1  0  0  0  0  0  0  0  0  0
    2.5280   -1.3070   -0.2670 O   0  0  0  0  0  0  0  0  0  0  0  0
    0.8500    0.4070    0.1040 C   0  0  0  0  0  0  0  0  0  0  0  0
   -0.3210   -0.3600   -0.1300 N   0  0  0  0  0  0  0  0  0  0  0  0
   -0.2380   -1.6650    0.4370 C   0  0  0  0  0  0  0  0  0  0  0  0
   -1.5240   -2.4580    0.4030 C   0  0  0  0  0  0  0  0  0  0  0  0
   -1.8210   -2.7530   -0.9170 O   0  0  0  0  0  0  0  0  0  0  0  0
   -2.4410   -1.3300   -1.6410 S   0  0  0  0  0  0  0  0  0  0  0  0
   -2.7640   -0.0860   -0.3600 C   0  0  0  0  0  0  0  0  0  0  0  0
   -1.4810    0.3540    0.3130 C   0  0  2  0  0  0  0  0  0  0  0  0
   -1.4030    1.8390    0.1690 C   0  0  0  0  0  0  0  0  0  0  0  0
   -1.2160    2.2600   -1.1600 O   0  0  0  0  0  0  0  0  0  0  0  0
  1  2  1  0
  2  3  1  0
  3  4  1  1
  3  5  1  0
  5  6  1  0
  6  7  1  0
  6 12  1  0
  7  8  1  0
  8  9  1  0
  9 10  1  0
 10 11  1  0
 11 12  1  0
 12 13  1  6
 13 14  1  0
M  END
