
     RDKit          3D

 14 15  0  0  0  0  0  0  0  0999 V2000
    2.7790    1.2130    0.5860 N   0  0  0  0  0  0  0  0  0  0  0  0
    2.9750   -0.0260   -0.0680 C   0  0  0  0  0  0  0  0  0  0  0  0
    4.0230   -0.1440   -0.7530 O   0  0  0  0  0  0  0  0  0  0  0  0
    1.9960   -1.1660    0.0310 C   0  0  2  0  0  0  0  0  0  0  0  0
    1.6430   -1.5510   -1.3900 C   0  0  0  0  0  0  0  0  0  0  0  0
    0.3300   -0.2730   -1.6180 S   0  0  0  0  0  0  0  0  0  0  0  0
   -0.1290   -0.3210    0.1630 C   0  0  2  0  0  0  0  0  0  0  0  0
   -1.1920   -1.2580    0.2110 O   0  0  0  0  0  0  0  0  0  0  0  0
   -2.1500   -0.8410   -0.6780 C   0  0  0  0  0  0  0  0  0  0  0  0
   -2.9270    0.2660    0.0380 C   0  0  0  0  0  0  0  0  0  0  0  0
   -1.9740    1.3760    0.3230 C   0  0  0  0  0  0  0  0  0  0  0  0
   -0.5860    0.9910    0.6690 C   0  0  1  0  0  0  0  0  0  0  0  0
   -0.4830    0.9550    2.0790 O   0  0  0  0  0  0  0  0  0  0  0  0
    0.9130   -0.9160    0.7720 O   0  0  0  0  0  0  0  0  0  0  0  0
  1  2  1  0
  2  3  2  0
  4  2  1  6
  4  5  1  0
  4 14  1  0
  5  6  1  0
  6  7  1  0
  7  8  1  6
  7 12  1  0
  7 14  1  0
  8  9  1  0
  9 10  1  0
 10 11  1  0
 11 12  1  0
 12 13  1  1
M  END
