
     RDKit          3D

 14 15  0  0  0  0  0  0  0  0999 V2000
   -2.3510   -1.6410    0.1960 C   0  0  0  0  0  0  0  0  0  0  0  0
   -1.4620   -0.5260    0.6270 C   0  0  2  0  0  0  0  0  0  0  0  0
   -1.9580    0.2310    1.7050 O   0  0  0  0  0  0  0  0  0  0  0  0
   -1.6620    1.5600    1.5040 C   0  0  0  0  0  0  0  0  0  0  0  0
   -2.0120    2.4790    2.2910 O   0  0  0  0  0  0  0  0  0  0  0  0
   -0.9140    1.6710    0.2810 N   0  0  0  0  0  0  0  0  0  0  0  0
   -1.2330    0.4800   -0.4640 C   0  0  2  0  0  0  0  0  0  0  0  0
   -2.3680    0.6340   -1.2200 O   0  0  0  0  0  0  0  0  0  0  0  0
   -0.1260   -0.0040   -1.3380 C   0  0  0  0  0  0  0  0  0  0  0  0
    1.0420   -0.3160   -0.4680 C   0  0  0  0  0  0  0  0  0  0  0  0
    2.3170   -0.0970   -0.6640 C   0  0  0  0  0  0  0  0  0  0  0  0
    3.3440   -0.4840    0.3320 C   0  0  0  0  0  0  0  0  0  0  0  0
    4.0290    0.6660    0.7380 O   0  0  0  0  0  0  0  0  0  0  0  0
    0.2470   -1.0940    0.9670 S   0  0  0  0  0  0  0  0  0  0  0  0
  2  1  1  6
  2  3  1  0
  2  7  1  0
  2 14  1  0
  3  4  1  0
  4  5  2  0
  4  6  1  0
  6  7  1  0
  7  8  1  6
  7  9  1  0
  9 10  1  0
 10 11  2  3
 10 14  1  0
 11 12  1  0
 12 13  1  0
M  END
