
     RDKit          3D

 13 13  0  0  0  0  0  0  0  0999 V2000
   -3.8000   -0.1120   -0.2330 C   0  0  0  0  0  0  0  0  0  0  0  0
   -2.6660   -0.8410    0.0940 O   0  0  0  0  0  0  0  0  0  0  0  0
   -1.5980    0.0320    0.2260 C   0  0  1  0  0  0  0  0  0  0  0  0
   -1.0090   -0.0320    1.5560 N   0  0  0  0  0  0  0  0  0  0  0  0
   -0.5570   -0.2510   -0.8460 C   0  0  1  0  0  0  0  0  0  0  0  0
   -0.0220   -1.6360   -0.7330 C   0  0  0  0  0  0  0  0  0  0  0  0
   -1.2410   -0.1610   -2.0720 O   0  0  0  0  0  0  0  0  0  0  0  0
    0.4630    0.8240   -0.8130 C   0  0  1  0  0  0  0  0  0  0  0  0
    1.1960    0.9610    0.4890 C   0  0  0  0  0  0  0  0  0  0  0  0
    2.4360    1.5400    0.3390 O   0  0  0  0  0  0  0  0  0  0  0  0
    3.4410    0.6800   -0.0140 C   0  0  0  0  0  0  0  0  0  0  0  0
    3.0760   -0.3390   -1.0400 C   0  0  0  0  0  0  0  0  0  0  0  0
    1.7500    0.3890   -2.0540 S   0  0  0  0  0  0  0  0  0  0  0  0
  1  2  1  0
  2  3  1  0
  3  4  1  1
  3  5  1  0
  5  6  1  1
  5  7  1  0
  5  8  1  0
  8  9  1  1
  8 13  1  0
  9 10  1  0
 10 11  1  0
 11 12  1  0
 12 13  1  0
M  END
