
     RDKit          3D

 32 34  0  0  0  0  0  0  0  0999 V2000
    0.0200   -7.0290   -2.6950 C   0  0  0  0  0  0  0  0  0  0  0  0
    0.4260   -5.5880   -2.9300 C   0  0  0  0  0  0  0  0  0  0  0  0
   -0.2820   -4.7100   -1.9390 C   0  0  0  0  0  0  0  0  0  0  0  0
   -0.8270   -4.0060   -1.1630 C   0  0  0  0  0  0  0  0  0  0  0  0
   -1.4790   -3.1520   -0.2010 C   0  0  0  0  0  0  0  0  0  0  0  0
   -2.4700   -3.6620    0.6360 C   0  0  0  0  0  0  0  0  0  0  0  0
   -3.0750   -2.8830    1.5910 C   0  0  0  0  0  0  0  0  0  0  0  0
   -2.7110   -1.5720    1.7430 C   0  0  0  0  0  0  0  0  0  0  0  0
   -1.6920   -1.0080    0.9020 C   0  0  0  0  0  0  0  0  0  0  0  0
   -1.4740    0.3380    1.2230 N   0  0  0  0  0  0  0  0  0  0  0  0
   -2.6920    1.1910    0.9860 C   0  0  0  0  0  0  0  0  0  0  0  0
   -2.6350    1.7610   -0.3990 C   0  0  0  0  0  0  0  0  0  0  0  0
   -1.4830    2.5350   -0.4900 O   0  0  0  0  0  0  0  0  0  0  0  0
   -1.2930    3.1530   -1.6990 C   0  0  0  0  0  0  0  0  0  0  0  0
   -2.3820    4.0870   -2.0580 C   0  0  0  0  0  0  0  0  0  0  0  0
   -2.7750    4.5470   -3.3130 C   0  0  0  0  0  0  0  0  0  0  0  0
   -3.8460    5.4000   -3.1690 C   0  0  0  0  0  0  0  0  0  0  0  0
   -4.1320    5.4920   -1.8670 N   0  0  0  0  0  0  0  0  0  0  0  0
   -3.2580    4.7070   -1.1700 C   0  0  0  0  0  0  0  0  0  0  0  0
   -0.3760    0.9730    1.7130 C   0  0  0  0  0  0  0  0  0  0  0  0
   -0.7630    2.0630    2.4340 O   0  0  0  0  0  0  0  0  0  0  0  0
    1.0470    0.8020    1.6710 C   0  0  0  0  0  0  0  0  0  0  0  0
    1.8200    1.4510    2.6550 C   0  0  0  0  0  0  0  0  0  0  0  0
    3.1950    1.4690    2.6680 C   0  0  0  0  0  0  0  0  0  0  0  0
    3.8950    0.8270    1.6790 C   0  0  0  0  0  0  0  0  0  0  0  0
    5.3720    0.7880    1.5940 C   0  0  1  0  0  0  0  0  0  0  0  0
    5.9550    1.9990    1.9570 O   0  0  0  0  0  0  0  0  0  0  0  0
    5.9850   -0.3160    2.3680 C   0  0  0  0  0  0  0  0  0  0  0  0
    5.4080   -1.5620    2.0260 O   0  0  0  0  0  0  0  0  0  0  0  0
    3.1920    0.1850    0.7070 C   0  0  0  0  0  0  0  0  0  0  0  0
    1.7880    0.1770    0.7090 C   0  0  0  0  0  0  0  0  0  0  0  0
   -1.1370   -1.8180   -0.0180 C   0  0  0  0  0  0  0  0  0  0  0  0
  1  2  1  0
  2  3  1  0
  3  4  3  0
  4  5  1  0
  5  6  2  0
  5 32  1  0
  6  7  1  0
  7  8  2  0
  8  9  1  0
  9 10  1  0
  9 32  2  0
 10 11  1  0
 10 20  1  0
 11 12  1  0
 12 13  1  0
 13 14  1  0
 14 15  1  0
 15 16  1  0
 15 19  2  0
 16 17  2  0
 17 18  1  0
 18 19  1  0
 20 21  2  0
 20 22  1  0
 22 23  2  0
 22 31  1  0
 23 24  1  0
 24 25  2  0
 25 26  1  0
 25 30  1  0
 26 27  1  1
 26 28  1  0
 28 29  1  0
 30 31  2  0
M  END
