
     RDKit          3D

 32 34  0  0  0  0  0  0  0  0999 V2000
   -8.4150    2.4190   -1.6390 C   0  0  0  0  0  0  0  0  0  0  0  0
   -8.6880    1.0380   -1.6790 O   0  0  0  0  0  0  0  0  0  0  0  0
   -7.9840    0.1250   -0.9180 C   0  0  0  0  0  0  0  0  0  0  0  0
   -8.5270   -1.0710   -0.9560 C   0  0  0  0  0  0  0  0  0  0  0  0
   -8.1960   -2.3500   -0.3520 C   0  0  0  0  0  0  0  0  0  0  0  0
   -7.1050   -2.8660    0.1890 C   0  0  0  0  0  0  0  0  0  0  0  0
   -5.7240   -2.3900    0.4330 C   0  0  0  0  0  0  0  0  0  0  0  0
   -5.1690   -1.1920    0.4780 C   0  0  0  0  0  0  0  0  0  0  0  0
   -3.7330   -1.2270    0.7590 N   0  0  0  0  0  0  0  0  0  0  0  0
   -2.8190   -0.7060   -0.1450 C   0  0  0  0  0  0  0  0  0  0  0  0
   -3.3690   -0.1990   -1.2220 O   0  0  0  0  0  0  0  0  0  0  0  0
   -1.3980   -0.6510   -0.0600 C   0  0  0  0  0  0  0  0  0  0  0  0
   -0.5990   -1.0850    0.8590 C   0  0  0  0  0  0  0  0  0  0  0  0
   -1.0800   -1.7630    2.0700 C   0  0  0  0  0  0  0  0  0  0  0  0
    0.8790   -0.9370    0.6770 C   0  0  0  0  0  0  0  0  0  0  0  0
    1.7560   -1.1940    1.7070 C   0  0  0  0  0  0  0  0  0  0  0  0
    3.1310   -1.0880    1.4790 C   0  0  0  0  0  0  0  0  0  0  0  0
    3.6740   -0.7370    0.2740 C   0  0  0  0  0  0  0  0  0  0  0  0
    5.1330   -0.6330    0.0610 C   0  0  1  0  0  0  0  0  0  0  0  0
    5.5310   -1.2380   -1.1260 O   0  0  0  0  0  0  0  0  0  0  0  0
    5.6430    0.7940    0.1560 C   0  0  0  0  0  0  0  0  0  0  0  0
    7.0870    0.7310    0.1030 N   0  0  0  0  0  0  0  0  0  0  0  0
    7.7130    2.0210    0.1820 C   0  0  1  0  0  0  0  0  0  0  0  0
    9.2200    1.8720    0.1670 C   0  0  0  0  0  0  0  0  0  0  0  0
    9.1910    2.0750   -1.3280 C   0  0  0  0  0  0  0  0  0  0  0  0
    7.8100    2.7120   -1.1590 C   0  0  0  0  0  0  0  0  0  0  0  0
    2.7860   -0.4850   -0.7380 C   0  0  0  0  0  0  0  0  0  0  0  0
    1.3980   -0.5860   -0.5320 C   0  0  0  0  0  0  0  0  0  0  0  0
   -5.6970    0.1500    0.3070 C   0  0  0  0  0  0  0  0  0  0  0  0
   -4.8250    1.1730    0.8640 C   0  0  0  0  0  0  0  0  0  0  0  0
   -5.1400    2.3850    0.7960 O   0  0  0  0  0  0  0  0  0  0  0  0
   -6.8030    0.6720   -0.2400 C   0  0  0  0  0  0  0  0  0  0  0  0
  1  2  1  0
  2  3  1  0
  3  4  2  0
  3 32  1  0
  4  5  1  0
  5  6  2  0
  6  7  1  0
  7  8  2  0
  8  9  1  0
  8 29  1  0
  9 10  1  0
 10 11  2  0
 10 12  1  0
 12 13  2  3
 13 14  1  0
 13 15  1  0
 15 16  2  0
 15 28  1  0
 16 17  1  0
 17 18  2  0
 18 19  1  0
 18 27  1  0
 19 20  1  6
 19 21  1  0
 21 22  1  0
 23 22  1  6
 23 24  1  0
 23 26  1  0
 24 25  1  0
 25 26  1  0
 27 28  2  0
 29 30  1  0
 29 32  2  0
 30 31  2  0
M  END
