
     RDKit          3D

 32 34  0  0  0  0  0  0  0  0999 V2000
    6.8090    1.0840   -1.8970 N   0  0  0  0  0  0  0  0  0  0  0  0
    6.6520    0.1870   -0.7580 C   0  0  1  0  0  0  0  0  0  0  0  0
    6.6700    0.9540    0.5430 C   0  0  0  0  0  0  0  0  0  0  0  0
    7.9510    1.6980    0.7330 C   0  0  0  0  0  0  0  0  0  0  0  0
    9.1690    0.8270    0.7600 C   0  0  0  0  0  0  0  0  0  0  0  0
    9.1630   -0.1100    1.7690 O   0  0  0  0  0  0  0  0  0  0  0  0
    5.3080   -0.4780   -0.8300 C   0  0  0  0  0  0  0  0  0  0  0  0
    4.5100   -0.1960   -1.7740 O   0  0  0  0  0  0  0  0  0  0  0  0
    4.8740   -1.4070    0.0970 O   0  0  0  0  0  0  0  0  0  0  0  0
    3.6000   -2.0250    0.0130 C   0  0  0  0  0  0  0  0  0  0  0  0
    2.5120   -0.9880    0.0810 C   0  0  0  0  0  0  0  0  0  0  0  0
    2.8140    0.2160    0.2130 O   0  0  0  0  0  0  0  0  0  0  0  0
    1.1740   -1.3830   -0.0040 N   0  0  0  0  0  0  0  0  0  0  0  0
    0.0430   -0.5340    0.0490 C   0  0  0  0  0  0  0  0  0  0  0  0
    0.0380    0.7910    0.3960 C   0  0  0  0  0  0  0  0  0  0  0  0
   -1.1010    1.5740    0.4160 C   0  0  0  0  0  0  0  0  0  0  0  0
   -2.3010    1.0050    0.0720 C   0  0  0  0  0  0  0  0  0  0  0  0
   -3.4670    1.8490    0.0720 C   0  0  0  0  0  0  0  0  0  0  0  0
   -4.1870    2.0620   -1.0710 C   0  0  0  0  0  0  0  0  0  0  0  0
   -5.3390    2.8640   -1.0700 C   0  0  0  0  0  0  0  0  0  0  0  0
   -5.7180    3.4310    0.1280 C   0  0  0  0  0  0  0  0  0  0  0  0
   -5.0150    3.2370    1.2980 C   0  0  0  0  0  0  0  0  0  0  0  0
   -3.8930    2.4410    1.2400 C   0  0  0  0  0  0  0  0  0  0  0  0
   -2.3730   -0.3150   -0.2850 C   0  0  0  0  0  0  0  0  0  0  0  0
   -3.6430   -0.9950   -0.6370 C   0  0  0  0  0  0  0  0  0  0  0  0
   -4.4730   -1.2940    0.5970 C   0  0  0  0  0  0  0  0  0  0  0  0
   -5.7320   -1.9670    0.1720 C   0  0  0  0  0  0  0  0  0  0  0  0
   -6.9800   -1.5190    0.3850 C   0  0  0  0  0  0  0  0  0  0  0  0
   -7.9600   -2.4750   -0.1910 C   0  0  0  0  0  0  0  0  0  0  0  0
   -7.1110   -3.5440   -0.7710 C   0  0  0  0  0  0  0  0  0  0  0  0
   -5.8460   -3.2340   -0.5520 C   0  0  0  0  0  0  0  0  0  0  0  0
   -1.1890   -1.0690   -0.2900 C   0  0  0  0  0  0  0  0  0  0  0  0
  2  1  1  6
  2  3  1  0
  2  7  1  0
  3  4  1  0
  4  5  1  0
  5  6  1  0
  7  8  2  0
  7  9  1  0
  9 10  1  0
 10 11  1  0
 11 12  2  0
 11 13  1  0
 13 14  1  0
 14 15  2  0
 14 32  1  0
 15 16  1  0
 16 17  2  0
 17 18  1  0
 17 24  1  0
 18 19  2  0
 18 23  1  0
 19 20  1  0
 20 21  2  0
 21 22  1  0
 22 23  2  0
 24 25  1  0
 24 32  2  0
 25 26  1  0
 26 27  1  0
 27 28  2  0
 27 31  1  0
 28 29  1  0
 29 30  1  0
 30 31  2  0
M  END
