
     RDKit          3D

 33 36  0  0  0  0  0  0  0  0999 V2000
   -5.1670    3.3320    1.6050 C   0  0  0  0  0  0  0  0  0  0  0  0
   -3.7510    2.4840    0.8850 S   0  0  2  0  0  0  0  0  0  0  0  0
   -2.7800    2.3020    2.0000 O   0  0  0  0  0  0  0  0  0  0  0  0
   -3.1890    3.4010   -0.1520 O   0  0  0  0  0  0  0  0  0  0  0  0
   -4.3540    0.9800    0.2110 C   0  0  0  0  0  0  0  0  0  0  0  0
   -3.3170    0.1210   -0.4440 C   0  0  0  0  0  0  0  0  0  0  0  0
   -2.2020   -0.3120    0.4880 C   0  0  0  0  0  0  0  0  0  0  0  0
   -1.3120   -1.1230   -0.3080 N   0  0  0  0  0  0  0  0  0  0  0  0
   -0.2430   -0.7240   -1.0090 C   0  0  0  0  0  0  0  0  0  0  0  0
    0.3770    0.6340   -1.1260 C   0  0  0  0  0  0  0  0  0  0  0  0
    1.6980    0.6860   -0.5650 N   0  0  0  0  0  0  0  0  0  0  0  0
    2.8700    0.4310   -1.2210 C   0  0  0  0  0  0  0  0  0  0  0  0
    2.9450    0.1090   -2.4310 O   0  0  0  0  0  0  0  0  0  0  0  0
    3.9110    0.5710   -0.4020 N   0  0  0  0  0  0  0  0  0  0  0  0
    5.3290    0.3980   -0.6740 C   0  0  0  0  0  0  0  0  0  0  0  0
    5.9490    1.7050   -1.1330 C   0  0  1  0  0  0  0  0  0  0  0  0
    5.8040    2.6850   -0.1480 F   0  0  0  0  0  0  0  0  0  0  0  0
    7.3010    1.5450   -1.3190 F   0  0  0  0  0  0  0  0  0  0  0  0
    5.2920    2.1580   -2.2500 F   0  0  0  0  0  0  0  0  0  0  0  0
    3.4320    0.9230    0.8080 C   0  0  0  0  0  0  0  0  0  0  0  0
    4.0500    1.1970    2.0050 C   0  0  0  0  0  0  0  0  0  0  0  0
    3.3020    1.5440    3.1050 C   0  0  0  0  0  0  0  0  0  0  0  0
    1.9730    1.6100    2.9910 N   0  0  0  0  0  0  0  0  0  0  0  0
    1.3360    1.3460    1.8260 C   0  0  0  0  0  0  0  0  0  0  0  0
    2.0390    0.9930    0.6930 C   0  0  0  0  0  0  0  0  0  0  0  0
    0.2840   -1.8530   -1.6530 C   0  0  0  0  0  0  0  0  0  0  0  0
   -0.4970   -2.9400   -1.3180 C   0  0  0  0  0  0  0  0  0  0  0  0
   -0.4530   -4.2940   -1.6540 C   0  0  0  0  0  0  0  0  0  0  0  0
   -1.3800   -5.1840   -1.1660 C   0  0  0  0  0  0  0  0  0  0  0  0
   -1.3470   -6.8900   -1.5720 Cl  0  0  0  0  0  0  0  0  0  0  0  0
   -2.3600   -4.6910   -0.3300 C   0  0  0  0  0  0  0  0  0  0  0  0
   -2.4040   -3.3530    0.0020 C   0  0  0  0  0  0  0  0  0  0  0  0
   -1.4650   -2.4440   -0.4900 C   0  0  0  0  0  0  0  0  0  0  0  0
  2  1  1  1
  2  3  2  0
  2  4  2  0
  2  5  1  0
  5  6  1  0
  6  7  1  0
  7  8  1  0
  8  9  1  0
  8 33  1  0
  9 10  1  0
  9 26  2  0
 10 11  1  0
 11 12  1  0
 11 25  1  0
 12 13  2  0
 12 14  1  0
 14 15  1  0
 14 20  1  0
 15 16  1  0
 16 17  1  1
 16 18  1  0
 16 19  1  0
 20 21  2  0
 20 25  1  0
 21 22  1  0
 22 23  2  0
 23 24  1  0
 24 25  2  0
 26 27  1  0
 27 28  2  0
 27 33  1  0
 28 29  1  0
 29 30  1  0
 29 31  2  0
 31 32  1  0
 32 33  2  0
M  END
