
     RDKit          3D

 38 40  0  0  0  0  0  0  0  0999 V2000
   10.2790   -0.9940   -0.4860 C   0  0  0  0  0  0  0  0  0  0  0  0
    9.1420   -0.9100   -1.2180 O   0  0  0  0  0  0  0  0  0  0  0  0
    8.0900   -0.2830   -0.6490 C   0  0  0  0  0  0  0  0  0  0  0  0
    7.5560   -0.8850    0.6150 C   0  0  1  0  0  0  0  0  0  0  0  0
    8.4820   -0.8840    1.6140 O   0  0  0  0  0  0  0  0  0  0  0  0
    6.2760   -0.1820    1.0660 C   0  0  0  0  0  0  0  0  0  0  0  0
    5.3840   -0.2120   -0.0400 O   0  0  0  0  0  0  0  0  0  0  0  0
    4.1140    0.3570    0.0480 C   0  0  0  0  0  0  0  0  0  0  0  0
    3.7430    0.9530    1.2330 C   0  0  0  0  0  0  0  0  0  0  0  0
    2.5010    1.5270    1.3520 C   0  0  0  0  0  0  0  0  0  0  0  0
    1.6490    1.4930    0.2750 C   0  0  0  0  0  0  0  0  0  0  0  0
    0.4290    2.0630    0.3990 O   0  0  0  0  0  0  0  0  0  0  0  0
   -0.7910    1.4380    0.8010 C   0  0  2  0  0  0  0  0  0  0  0  0
   -1.7920    2.5710    0.8150 C   0  0  0  0  0  0  0  0  0  0  0  0
   -0.5580    0.8040    2.1360 C   0  0  0  0  0  0  0  0  0  0  0  0
   -1.8440    0.1210    2.5260 C   0  0  0  0  0  0  0  0  0  0  0  0
   -2.4060   -0.8170    1.5510 C   0  0  0  0  0  0  0  0  0  0  0  0
   -2.2210   -0.5760    0.1000 C   0  0  1  0  0  0  0  0  0  0  0  0
   -3.3640   -0.0210   -0.6160 C   0  0  1  0  0  0  0  0  0  0  0  0
   -3.0150    0.0920   -1.9880 O   0  0  0  0  0  0  0  0  0  0  0  0
   -4.7260   -0.4740   -0.5240 C   0  0  0  0  0  0  0  0  0  0  0  0
   -5.7390    0.4390   -0.9380 C   0  0  0  0  0  0  0  0  0  0  0  0
   -5.5510    1.8310   -1.4790 C   0  0  1  0  0  0  0  0  0  0  0  0
   -6.9290    2.3660   -1.8530 C   0  0  0  0  0  0  0  0  0  0  0  0
   -5.0360    2.7410   -0.4050 C   0  0  0  0  0  0  0  0  0  0  0  0
   -5.4830    2.6890    0.7830 N   0  0  0  0  0  0  0  0  0  0  0  0
   -6.9190   -0.1470   -0.7450 N   0  0  0  0  0  0  0  0  0  0  0  0
   -6.7710   -1.3240   -0.2600 N   0  0  0  0  0  0  0  0  0  0  0  0
   -5.4060   -1.5730   -0.1060 C   0  0  0  0  0  0  0  0  0  0  0  0
   -4.9500   -2.8530    0.2970 C   0  0  0  0  0  0  0  0  0  0  0  0
   -3.8650   -3.5030    0.1180 C   0  0  0  0  0  0  0  0  0  0  0  0
   -3.6920   -4.8970    0.7120 C   0  0  0  0  0  0  0  0  0  0  0  0
   -4.8440   -5.2360    1.4020 F   0  0  0  0  0  0  0  0  0  0  0  0
   -1.0370    0.3670   -0.1810 C   0  0  0  0  0  0  0  0  0  0  0  0
    2.0370    0.8970   -0.8870 C   0  0  0  0  0  0  0  0  0  0  0  0
    3.2820    0.3100   -1.0370 C   0  0  0  0  0  0  0  0  0  0  0  0
    3.6410   -0.2890   -2.2280 O   0  0  0  0  0  0  0  0  0  0  0  0
    2.7350   -0.3270   -3.3150 C   0  0  0  0  0  0  0  0  0  0  0  0
  1  2  1  0
  2  3  1  0
  3  4  1  0
  4  5  1  1
  4  6  1  0
  6  7  1  0
  7  8  1  0
  8  9  2  0
  8 36  1  0
  9 10  1  0
 10 11  2  0
 11 12  1  0
 11 35  1  0
 12 13  1  0
 13 14  1  1
 13 15  1  0
 13 34  1  0
 15 16  1  0
 16 17  1  0
 18 17  1  1
 18 19  1  0
 18 34  1  0
 19 20  1  6
 19 21  1  0
 21 22  1  0
 21 29  2  0
 22 23  1  0
 22 27  2  0
 23 24  1  1
 23 25  1  0
 25 26  2  0
 27 28  1  0
 28 29  1  0
 29 30  1  0
 30 31  2  3
 31 32  1  0
 32 33  1  0
 35 36  2  0
 36 37  1  0
 37 38  1  0
M  END
