
     RDKit          3D

 38 40  0  0  0  0  0  0  0  0999 V2000
    4.6290   -1.1920    4.1910 C   0  0  0  0  0  0  0  0  0  0  0  0
    4.2190   -1.1010    2.7630 C   0  0  0  0  0  0  0  0  0  0  0  0
    3.4890   -0.0290    2.3200 C   0  0  0  0  0  0  0  0  0  0  0  0
    3.0860    0.0940    0.9960 C   0  0  0  0  0  0  0  0  0  0  0  0
    3.4040   -0.8620    0.0620 C   0  0  0  0  0  0  0  0  0  0  0  0
    3.0040   -0.7780   -1.2960 N   0  0  0  0  0  0  0  0  0  0  0  0
    3.9510   -0.5870   -2.3550 C   0  0  0  0  0  0  0  0  0  0  0  0
    4.2200    0.8230   -2.7610 C   0  0  2  0  0  0  0  0  0  0  0  0
    5.1660    0.7720   -3.8230 O   0  0  0  0  0  0  0  0  0  0  0  0
    4.8380    1.6770   -1.6820 C   0  0  0  0  0  0  0  0  0  0  0  0
    6.0100    1.1580   -1.1960 O   0  0  0  0  0  0  0  0  0  0  0  0
    1.6150   -0.9240   -1.6190 C   0  0  0  0  0  0  0  0  0  0  0  0
    1.2910   -0.8100   -2.8250 O   0  0  0  0  0  0  0  0  0  0  0  0
    0.6260   -1.1970   -0.5660 C   0  0  0  0  0  0  0  0  0  0  0  0
   -0.8120   -1.2330   -1.0600 C   0  0  2  0  0  0  0  0  0  0  0  0
   -1.1880    0.0950   -1.6480 C   0  0  0  0  0  0  0  0  0  0  0  0
   -1.1000    1.1570   -0.6410 C   0  0  0  0  0  0  0  0  0  0  0  0
   -0.8340    1.0420    0.5680 O   0  0  0  0  0  0  0  0  0  0  0  0
   -1.3510    2.4990   -1.1000 N   0  0  0  0  0  0  0  0  0  0  0  0
   -1.2970    3.6040   -0.2300 C   0  0  0  0  0  0  0  0  0  0  0  0
   -1.5430    4.8650   -0.6900 C   0  0  0  0  0  0  0  0  0  0  0  0
   -1.4980    5.9760    0.1340 C   0  0  0  0  0  0  0  0  0  0  0  0
   -1.1910    5.7760    1.4600 C   0  0  0  0  0  0  0  0  0  0  0  0
   -0.9500    4.4850    1.8820 C   0  0  0  0  0  0  0  0  0  0  0  0
   -1.0000    3.4180    1.0590 N   0  0  0  0  0  0  0  0  0  0  0  0
   -1.5890   -1.4880    0.0350 O   0  0  0  0  0  0  0  0  0  0  0  0
   -2.3200   -2.6190    0.0960 C   0  0  0  0  0  0  0  0  0  0  0  0
   -3.4490   -2.8000   -0.8550 C   0  0  2  0  0  0  0  0  0  0  0  0
   -2.9410   -2.8060   -2.1840 O   0  0  0  0  0  0  0  0  0  0  0  0
   -4.5880   -1.8580   -0.7980 C   0  0  0  0  0  0  0  0  0  0  0  0
   -5.3260   -1.7680    0.4670 C   0  0  0  0  0  0  0  0  0  0  0  0
   -6.6110   -2.1440    0.5920 C   0  0  0  0  0  0  0  0  0  0  0  0
   -7.0410   -1.9190    1.9770 C   0  0  0  0  0  0  0  0  0  0  0  0
   -5.8800   -1.3370    2.6550 C   0  0  0  0  0  0  0  0  0  0  0  0
   -4.9000   -1.2650    1.7520 C   0  0  0  0  0  0  0  0  0  0  0  0
   -3.6860   -0.7210    2.0910 F   0  0  0  0  0  0  0  0  0  0  0  0
    4.1510   -1.9550    0.5260 C   0  0  0  0  0  0  0  0  0  0  0  0
    4.5520   -2.0780    1.8390 C   0  0  0  0  0  0  0  0  0  0  0  0
  1  2  1  0
  2  3  2  0
  2 38  1  0
  3  4  1  0
  4  5  2  0
  5  6  1  0
  5 37  1  0
  6  7  1  0
  6 12  1  0
  7  8  1  0
  8  9  1  6
  8 10  1  0
 10 11  1  0
 12 13  2  0
 12 14  1  0
 15 14  1  1
 15 16  1  0
 15 26  1  0
 16 17  1  0
 17 18  2  0
 17 19  1  0
 19 20  1  0
 20 21  2  0
 20 25  1  0
 21 22  1  0
 22 23  2  0
 23 24  1  0
 24 25  2  0
 26 27  1  0
 27 28  1  0
 28 29  1  6
 28 30  1  0
 30 31  1  0
 31 32  2  0
 31 35  1  0
 32 33  1  0
 33 34  1  0
 34 35  2  0
 35 36  1  0
 37 38  2  0
M  END
