
     RDKit          3D

 38 40  0  0  0  0  0  0  0  0999 V2000
   -4.2630   -0.6100    0.5890 C   0  0  0  0  0  0  0  0  0  0  0  0
   -2.7960   -0.3680    0.4830 C   0  0  0  0  0  0  0  0  0  0  0  0
   -1.8730   -1.2830    0.9110 C   0  0  0  0  0  0  0  0  0  0  0  0
   -2.0050   -2.6240    1.5150 C   0  0  0  0  0  0  0  0  0  0  0  0
   -2.2100   -3.7460    0.5580 C   0  0  2  0  0  0  0  0  0  0  0  0
   -3.4260   -3.6420   -0.2920 C   0  0  0  0  0  0  0  0  0  0  0  0
   -2.3340   -5.0410    1.3710 C   0  0  0  0  0  0  0  0  0  0  0  0
   -1.0010   -3.9430   -0.3470 C   0  0  0  0  0  0  0  0  0  0  0  0
   -1.2900   -4.9970   -1.1880 O   0  0  0  0  0  0  0  0  0  0  0  0
   -0.6580   -0.7140    0.6300 N   0  0  0  0  0  0  0  0  0  0  0  0
   -0.7790    0.4750    0.0640 C   0  0  0  0  0  0  0  0  0  0  0  0
    0.2280    1.3710   -0.4420 C   0  0  0  0  0  0  0  0  0  0  0  0
   -0.1650    2.5820   -0.7770 O   0  0  0  0  0  0  0  0  0  0  0  0
    1.6030    1.2070   -0.6590 N   0  0  0  0  0  0  0  0  0  0  0  0
    2.3600    2.4180   -1.0710 C   0  0  0  0  0  0  0  0  0  0  0  0
    2.8120    3.2060    0.1170 C   0  0  0  0  0  0  0  0  0  0  0  0
    1.6730    3.5810    0.8320 O   0  0  0  0  0  0  0  0  0  0  0  0
    2.2250   -0.0710   -0.6730 C   0  0  1  0  0  0  0  0  0  0  0  0
    2.7830   -0.3440   -2.0820 C   0  0  0  0  0  0  0  0  0  0  0  0
    3.3840   -1.7440   -1.9620 C   0  0  0  0  0  0  0  0  0  0  0  0
    4.5690   -1.5980   -1.3080 O   0  0  0  0  0  0  0  0  0  0  0  0
    4.5920   -0.8650   -0.1610 C   0  0  2  0  0  0  0  0  0  0  0  0
    5.6000    0.2840   -0.2810 C   0  0  0  0  0  0  0  0  0  0  0  0
    5.6280    0.9720    0.9290 O   0  0  0  0  0  0  0  0  0  0  0  0
    5.1190   -1.8090    0.9330 C   0  0  0  0  0  0  0  0  0  0  0  0
    6.4830   -2.3210    0.6220 C   0  0  0  0  0  0  0  0  0  0  0  0
    6.4860   -3.0150   -0.5830 F   0  0  0  0  0  0  0  0  0  0  0  0
    3.2670   -0.3570    0.3370 C   0  0  0  0  0  0  0  0  0  0  0  0
   -2.1710    0.7330   -0.0460 C   0  0  0  0  0  0  0  0  0  0  0  0
   -2.7780    1.9600   -0.5620 C   0  0  0  0  0  0  0  0  0  0  0  0
   -2.4260    2.3500   -1.6820 O   0  0  0  0  0  0  0  0  0  0  0  0
   -3.7270    2.7020    0.1660 N   0  0  0  0  0  0  0  0  0  0  0  0
   -4.3740    3.8880   -0.2400 C   0  0  0  0  0  0  0  0  0  0  0  0
   -4.0910    4.5810   -1.3710 C   0  0  0  0  0  0  0  0  0  0  0  0
   -4.7860    5.7490   -1.7050 C   0  0  0  0  0  0  0  0  0  0  0  0
   -5.7780    6.2290   -0.8930 C   0  0  0  0  0  0  0  0  0  0  0  0
   -6.0730    5.5340    0.2560 C   0  0  0  0  0  0  0  0  0  0  0  0
   -5.3880    4.3840    0.5840 C   0  0  0  0  0  0  0  0  0  0  0  0
  1  2  1  0
  2  3  2  0
  2 29  1  0
  3  4  1  0
  3 10  1  0
  4  5  1  0
  5  6  1  6
  5  7  1  0
  5  8  1  0
  8  9  1  0
 10 11  1  0
 11 12  1  0
 11 29  2  0
 12 13  2  0
 12 14  1  0
 14 15  1  0
 18 14  1  6
 15 16  1  0
 16 17  1  0
 18 19  1  0
 18 28  1  0
 19 20  1  0
 20 21  1  0
 21 22  1  0
 22 23  1  6
 22 25  1  0
 22 28  1  0
 23 24  1  0
 25 26  1  0
 26 27  1  0
 29 30  1  0
 30 31  2  0
 30 32  1  0
 32 33  1  0
 33 34  2  0
 33 38  1  0
 34 35  1  0
 35 36  2  0
 36 37  1  0
 37 38  2  0
M  END
