
     RDKit          3D

 38 40  0  0  0  0  0  0  0  0999 V2000
    3.2940   -3.1840    3.0640 C   0  0  0  0  0  0  0  0  0  0  0  0
    2.8790   -1.7990    2.7520 C   0  0  0  0  0  0  0  0  0  0  0  0
    3.2530   -0.8840    3.5340 O   0  0  0  0  0  0  0  0  0  0  0  0
    2.0890   -1.5350    1.6080 N   0  0  0  0  0  0  0  0  0  0  0  0
    1.6700   -0.1780    1.2820 C   0  0  1  0  0  0  0  0  0  0  0  0
    2.2460    0.3060    0.0070 C   0  0  2  0  0  0  0  0  0  0  0  0
    3.1310    1.3660    0.2260 O   0  0  0  0  0  0  0  0  0  0  0  0
    4.4670    1.4390   -0.0220 C   0  0  0  0  0  0  0  0  0  0  0  0
    5.2280    0.4490   -0.5560 C   0  0  0  0  0  0  0  0  0  0  0  0
    6.5980    0.6070   -0.7800 C   0  0  0  0  0  0  0  0  0  0  0  0
    7.2250    1.7920   -0.4590 C   0  0  0  0  0  0  0  0  0  0  0  0
    8.6170    1.9830   -0.6750 N   0  0  0  0  0  0  0  0  0  0  0  0
    9.3130    1.0650   -1.1690 O   0  0  0  0  0  0  0  0  0  0  0  0
    9.1820    3.1690   -0.3410 O   0  0  0  0  0  0  0  0  0  0  0  0
    6.4540    2.7890    0.0790 C   0  0  0  0  0  0  0  0  0  0  0  0
    5.1100    2.6340    0.2990 C   0  0  0  0  0  0  0  0  0  0  0  0
    1.3450    0.6890   -0.9780 O   0  0  0  0  0  0  0  0  0  0  0  0
    0.2970   -0.2480   -0.9340 C   0  0  2  0  0  0  0  0  0  0  0  0
   -0.4630   -0.2810   -2.2310 C   0  0  0  0  0  0  0  0  0  0  0  0
   -1.0130    0.9660   -2.4240 O   0  0  0  0  0  0  0  0  0  0  0  0
   -0.5940    0.1540    0.1810 C   0  0  1  0  0  0  0  0  0  0  0  0
   -1.8100   -0.4110    0.1310 O   0  0  0  0  0  0  0  0  0  0  0  0
   -2.9030    0.3950    0.1790 C   0  0  2  0  0  0  0  0  0  0  0  0
   -3.5310    0.0860    1.3850 O   0  0  0  0  0  0  0  0  0  0  0  0
   -4.0750   -1.1070    1.5870 C   0  0  2  0  0  0  0  0  0  0  0  0
   -3.0790   -2.0460    2.2520 C   0  0  0  0  0  0  0  0  0  0  0  0
   -3.6890   -3.3040    2.4680 O   0  0  0  0  0  0  0  0  0  0  0  0
   -4.5580   -1.7530    0.3230 C   0  0  2  0  0  0  0  0  0  0  0  0
   -3.4660   -2.4020   -0.2710 O   0  0  0  0  0  0  0  0  0  0  0  0
   -5.0130   -0.6600   -0.6030 C   0  0  2  0  0  0  0  0  0  0  0  0
   -5.5320   -1.2420   -1.7500 O   0  0  0  0  0  0  0  0  0  0  0  0
   -3.7960    0.1810   -0.9950 C   0  0  1  0  0  0  0  0  0  0  0  0
   -4.3380    1.4700   -1.4570 N   0  0  0  0  0  0  0  0  0  0  0  0
   -4.3200    1.7920   -2.8260 C   0  0  0  0  0  0  0  0  0  0  0  0
   -4.8440    3.0690   -3.3770 C   0  0  0  0  0  0  0  0  0  0  0  0
   -3.8400    0.9780   -3.6550 O   0  0  0  0  0  0  0  0  0  0  0  0
    0.1880   -0.1020    1.4560 C   0  0  2  0  0  0  0  0  0  0  0  0
   -0.0910    0.9840    2.3170 O   0  0  0  0  0  0  0  0  0  0  0  0
  1  2  1  0
  2  3  2  0
  2  4  1  0
  5  4  1  6
  5  6  1  0
  5 37  1  0
  6  7  1  1
  6 17  1  0
  7  8  1  0
  8  9  2  0
  8 16  1  0
  9 10  1  0
 10 11  2  0
 11 12  1  0
 11 15  1  0
 12 13  2  0
 12 14  1  0
 15 16  2  0
 17 18  1  0
 18 19  1  6
 18 21  1  0
 19 20  1  0
 21 22  1  1
 21 37  1  0
 23 22  1  6
 23 24  1  0
 23 32  1  0
 24 25  1  0
 25 26  1  6
 25 28  1  0
 26 27  1  0
 28 29  1  6
 28 30  1  0
 30 31  1  6
 30 32  1  0
 32 33  1  1
 33 34  1  0
 34 35  1  0
 34 36  2  0
 37 38  1  1
M  CHG  2  12   1  14  -1
M  END
