
     RDKit          3D

 38 42  0  0  0  0  0  0  0  0999 V2000
   -2.5840    2.9760    1.7840 C   0  0  0  0  0  0  0  0  0  0  0  0
   -3.1730    1.6350    1.4850 C   0  0  0  0  0  0  0  0  0  0  0  0
   -2.3830    0.5300    1.5330 C   0  0  0  0  0  0  0  0  0  0  0  0
   -2.9670   -0.7300    1.2420 C   0  0  0  0  0  0  0  0  0  0  0  0
   -4.3060   -0.7840    0.9220 C   0  0  0  0  0  0  0  0  0  0  0  0
   -5.1190    0.3560    0.8730 C   0  0  0  0  0  0  0  0  0  0  0  0
   -4.4820    1.5420    1.1680 C   0  0  0  0  0  0  0  0  0  0  0  0
   -5.7500    2.7840    1.0240 S   0  0  0  0  0  0  0  0  0  0  0  0
   -5.7170    3.4240   -0.3640 O   0  0  0  0  0  0  0  0  0  0  0  0
   -7.1150    1.6540    1.1310 N   0  0  0  0  0  0  0  0  0  0  0  0
   -6.5330    0.4790    0.5650 C   0  0  0  0  0  0  0  0  0  0  0  0
   -5.0440   -1.9650    0.5650 N   0  0  0  0  0  0  0  0  0  0  0  0
   -4.5790   -3.1340   -0.1110 C   0  0  0  0  0  0  0  0  0  0  0  0
   -5.3680   -3.9090   -0.6590 O   0  0  0  0  0  0  0  0  0  0  0  0
   -3.1860   -3.4710   -0.1890 N   0  0  0  0  0  0  0  0  0  0  0  0
   -2.1450   -3.0310    0.6420 C   0  0  0  0  0  0  0  0  0  0  0  0
   -1.1780   -3.8500    0.8230 O   0  0  0  0  0  0  0  0  0  0  0  0
   -1.9570   -1.7600    1.3710 C   0  0  1  0  0  0  0  0  0  0  0  0
   -0.5950   -1.2870    1.1900 N   0  0  0  0  0  0  0  0  0  0  0  0
    0.1860   -1.5400    0.0190 C   0  0  0  0  0  0  0  0  0  0  0  0
   -0.3250   -2.1970   -0.9110 O   0  0  0  0  0  0  0  0  0  0  0  0
    1.5380   -1.0400   -0.0730 N   0  0  0  0  0  0  0  0  0  0  0  0
    2.3390   -1.2640   -1.2050 C   0  0  0  0  0  0  0  0  0  0  0  0
    2.0670   -2.0140   -2.3390 C   0  0  0  0  0  0  0  0  0  0  0  0
    3.1320   -1.9700   -3.1590 N   0  0  0  0  0  0  0  0  0  0  0  0
    4.0920   -1.2310   -2.6280 C   0  0  0  0  0  0  0  0  0  0  0  0
    5.3270   -0.9710   -3.1870 C   0  0  0  0  0  0  0  0  0  0  0  0
    6.4460   -0.4440   -2.5630 C   0  0  0  0  0  0  0  0  0  0  0  0
    6.5590   -0.0850   -1.2460 C   0  0  0  0  0  0  0  0  0  0  0  0
    5.6080    0.0740   -0.2930 N   0  0  0  0  0  0  0  0  0  0  0  0
    4.2640    0.0400   -0.4930 C   0  0  0  0  0  0  0  0  0  0  0  0
    3.5280    0.8270    0.1990 N   0  0  0  0  0  0  0  0  0  0  0  0
    4.1440    1.6750    1.1200 N   0  0  0  0  0  0  0  0  0  0  0  0
    4.5220    3.2780    0.6580 S   0  0  2  0  0  0  0  0  0  0  0  0
    6.1110    3.3830   -0.0170 N   0  0  0  0  0  0  0  0  0  0  0  0
    4.4950    4.1360    1.8840 O   0  0  0  0  0  0  0  0  0  0  0  0
    3.5080    3.7490   -0.3770 O   0  0  0  0  0  0  0  0  0  0  0  0
    3.6110   -0.7750   -1.3940 C   0  0  0  0  0  0  0  0  0  0  0  0
  1  2  1  0
  2  3  2  0
  2  7  1  0
  3  4  1  0
  4  5  2  0
  4 18  1  0
  5  6  1  0
  5 12  1  0
  6  7  2  0
  6 11  1  0
  7  8  1  0
  8  9  2  0
  8 10  1  6
 10 11  1  0
 12 13  1  0
 13 14  2  0
 13 15  1  0
 15 16  1  0
 16 17  2  0
 16 18  1  0
 18 19  1  6
 19 20  1  0
 20 21  2  0
 20 22  1  0
 22 23  1  0
 23 24  2  0
 23 38  1  0
 24 25  1  0
 25 26  1  0
 26 27  1  0
 26 38  2  0
 27 28  2  0
 28 29  1  0
 29 30  2  0
 30 31  1  0
 31 32  2  3
 31 38  1  0
 32 33  1  0
 33 34  1  0
 34 35  1  6
 34 36  2  0
 34 37  2  0
M  END
