
     RDKit          3D

 38 40  0  0  0  0  0  0  0  0999 V2000
    5.3910   -5.9570   -3.4050 C   0  0  0  0  0  0  0  0  0  0  0  0
    5.2940   -5.6100   -2.1510 C   0  0  0  0  0  0  0  0  0  0  0  0
    4.3760   -4.5540   -1.7590 C   0  0  0  0  0  0  0  0  0  0  0  0
    4.2860   -4.2090   -0.4860 C   0  0  0  0  0  0  0  0  0  0  0  0
    5.0880   -4.8780    0.4610 O   0  0  0  0  0  0  0  0  0  0  0  0
    3.3990   -3.1680   -0.0090 C   0  0  0  0  0  0  0  0  0  0  0  0
    2.5890   -2.4940   -0.8880 C   0  0  0  0  0  0  0  0  0  0  0  0
    1.7660   -1.5080   -0.3960 C   0  0  0  0  0  0  0  0  0  0  0  0
    1.7550   -1.2030    0.9490 C   0  0  0  0  0  0  0  0  0  0  0  0
    0.8320   -0.1220    1.3870 C   0  0  2  0  0  0  0  0  0  0  0  0
   -0.4520   -0.3820    0.7910 N   0  0  0  0  0  0  0  0  0  0  0  0
   -1.6060   -0.3360    1.6710 C   0  0  0  0  0  0  0  0  0  0  0  0
   -1.4290   -0.0730    2.8850 O   0  0  0  0  0  0  0  0  0  0  0  0
   -2.9550   -0.5870    1.1720 C   0  0  0  0  0  0  0  0  0  0  0  0
   -3.8970   -0.3780    2.1460 O   0  0  0  0  0  0  0  0  0  0  0  0
   -4.0110    0.8860    2.6330 C   0  0  0  0  0  0  0  0  0  0  0  0
   -4.4340    1.8180    1.4770 C   0  0  0  0  0  0  0  0  0  0  0  0
   -5.5800    1.5040    0.9640 O   0  0  0  0  0  0  0  0  0  0  0  0
   -6.4830    0.8090    0.3820 C   0  0  0  0  0  0  0  0  0  0  0  0
   -6.3900   -0.4890   -0.1100 C   0  0  0  0  0  0  0  0  0  0  0  0
   -7.4480   -1.1150   -0.7180 C   0  0  0  0  0  0  0  0  0  0  0  0
   -8.6670   -0.5060   -0.8820 C   0  0  0  0  0  0  0  0  0  0  0  0
   -8.7930    0.7710   -0.4090 C   0  0  0  0  0  0  0  0  0  0  0  0
   -7.7540    1.4120    0.1980 C   0  0  0  0  0  0  0  0  0  0  0  0
   -7.9760    2.6810    0.6360 F   0  0  0  0  0  0  0  0  0  0  0  0
    1.4220    1.1590    0.8510 C   0  0  0  0  0  0  0  0  0  0  0  0
    0.7690    1.7920    0.0360 O   0  0  0  0  0  0  0  0  0  0  0  0
    2.6760    1.5630    1.3020 N   0  0  0  0  0  0  0  0  0  0  0  0
    3.4770    2.6810    1.0030 C   0  0  0  0  0  0  0  0  0  0  0  0
    3.9300    2.9410   -0.3770 C   0  0  2  0  0  0  0  0  0  0  0  0
    4.9100    4.0320   -0.1950 O   0  0  0  0  0  0  0  0  0  0  0  0
    2.9460    3.7030   -1.2400 C   0  0  0  0  0  0  0  0  0  0  0  0
    1.8660    4.3710   -0.9170 C   0  0  0  0  0  0  0  0  0  0  0  0
    1.2760    4.9300   -2.1340 C   0  0  0  0  0  0  0  0  0  0  0  0
    2.1840    4.5050   -3.1750 N   0  0  0  0  0  0  0  0  0  0  0  0
    3.1400    3.8000   -2.6760 C   0  0  0  0  0  0  0  0  0  0  0  0
    2.5620   -1.8670    1.8570 C   0  0  0  0  0  0  0  0  0  0  0  0
    3.3790   -2.8500    1.3520 C   0  0  0  0  0  0  0  0  0  0  0  0
  1  2  2  0
  2  3  1  0
  3  4  2  3
  4  5  1  0
  4  6  1  0
  6  7  2  0
  6 38  1  0
  7  8  1  0
  8  9  2  0
  9 10  1  0
  9 37  1  0
 10 11  1  6
 10 26  1  0
 11 12  1  0
 12 13  2  0
 12 14  1  0
 14 15  1  0
 15 16  1  0
 16 17  1  0
 17 18  1  0
 18 19  1  0
 19 20  2  0
 19 24  1  0
 20 21  1  0
 21 22  2  0
 22 23  1  0
 23 24  2  0
 24 25  1  0
 26 27  2  0
 26 28  1  0
 28 29  1  0
 29 30  1  0
 30 31  1  1
 30 32  1  0
 32 33  2  0
 32 36  1  0
 33 34  1  0
 34 35  1  0
 35 36  2  0
 37 38  2  0
M  END
