
     RDKit          3D

 31 35  0  0  0  0  0  0  0  0999 V2000
   -0.5080   -1.3290   -3.3670 C   0  0  0  0  0  0  0  0  0  0  0  0
   -0.2440   -0.9160   -1.9400 C   0  0  1  0  0  0  0  0  0  0  0  0
   -1.6020   -0.7260   -1.2370 C   0  0  0  0  0  0  0  0  0  0  0  0
   -2.2050    0.1260   -0.6840 N   0  0  0  0  0  0  0  0  0  0  0  0
   -3.3940    0.0530   -0.1430 C   0  0  0  0  0  0  0  0  0  0  0  0
   -4.1210    1.0580    0.5170 C   0  0  0  0  0  0  0  0  0  0  0  0
   -5.3640    0.7600    1.0130 C   0  0  0  0  0  0  0  0  0  0  0  0
   -6.0860    1.7590    1.6690 C   0  0  0  0  0  0  0  0  0  0  0  0
   -7.3320    1.4950    2.1770 C   0  0  0  0  0  0  0  0  0  0  0  0
   -8.2660    2.7900    3.0260 S   0  0  0  0  0  0  0  0  0  0  0  0
   -7.8900    0.2920    2.0630 N   0  0  0  0  0  0  0  0  0  0  0  0
   -7.2290   -0.7210    1.4320 C   0  0  0  0  0  0  0  0  0  0  0  0
   -5.9840   -0.4570    0.9250 C   0  0  0  0  0  0  0  0  0  0  0  0
   -5.2840   -1.4730    0.2730 C   0  0  0  0  0  0  0  0  0  0  0  0
   -4.0090   -1.1870   -0.2410 C   0  0  0  0  0  0  0  0  0  0  0  0
   -2.7670   -2.1250   -1.1240 S   0  0  0  0  0  0  0  0  0  0  0  0
    0.6320   -2.1620   -1.0420 S   0  0  2  0  0  0  0  0  0  0  0  0
   -0.1000   -3.4620   -1.2520 O   0  0  0  0  0  0  0  0  0  0  0  0
    0.5570   -1.8640    0.4320 O   0  0  0  0  0  0  0  0  0  0  0  0
    2.2810   -2.3640   -1.5510 C   0  0  0  0  0  0  0  0  0  0  0  0
    3.1200   -1.1670   -1.4170 C   0  0  0  0  0  0  0  0  0  0  0  0
    3.8410   -0.8830   -0.2670 C   0  0  0  0  0  0  0  0  0  0  0  0
    4.5160    0.3010   -0.4630 C   0  0  0  0  0  0  0  0  0  0  0  0
    5.3990    0.9670    0.5030 C   0  0  0  0  0  0  0  0  0  0  0  0
    5.6160    0.4080    1.7410 C   0  0  0  0  0  0  0  0  0  0  0  0
    6.4470    1.0260    2.6630 C   0  0  0  0  0  0  0  0  0  0  0  0
    7.0760    2.2080    2.3710 C   0  0  0  0  0  0  0  0  0  0  0  0
    6.8680    2.7830    1.1290 C   0  0  0  0  0  0  0  0  0  0  0  0
    6.0280    2.1530    0.2040 C   0  0  0  0  0  0  0  0  0  0  0  0
    4.2030    0.7090   -1.6980 N   0  0  0  0  0  0  0  0  0  0  0  0
    3.3790   -0.1640   -2.2520 N   0  0  0  0  0  0  0  0  0  0  0  0
  2  1  1  6
  2  3  1  0
  2 17  1  0
  3  4  2  0
  3 16  1  0
  4  5  1  0
  5  6  2  0
  5 15  1  0
  6  7  1  0
  7  8  2  0
  7 13  1  0
  8  9  1  0
  9 10  1  0
  9 11  2  0
 11 12  1  0
 12 13  2  0
 13 14  1  0
 14 15  2  0
 15 16  1  0
 17 18  2  0
 17 19  2  0
 17 20  1  6
 20 21  1  0
 21 22  2  0
 21 31  1  0
 22 23  1  0
 23 24  1  0
 23 30  2  0
 24 25  2  0
 24 29  1  0
 25 26  1  0
 26 27  2  0
 27 28  1  0
 28 29  2  0
 30 31  1  0
M  END
