
     RDKit          3D

 29 32  0  0  0  0  0  0  0  0999 V2000
   -2.7070   -1.2770   -2.4800 C   0  0  0  0  0  0  0  0  0  0  0  0
   -1.6620   -0.2190   -2.1810 C   0  0  2  0  0  0  0  0  0  0  0  0
   -0.4240   -0.8110   -1.5390 C   0  0  0  0  0  0  0  0  0  0  0  0
   -0.6670   -0.9750   -0.1420 N   0  0  0  0  0  0  0  0  0  0  0  0
    0.3410   -1.5540    0.6990 C   0  0  0  0  0  0  0  0  0  0  0  0
    1.2470   -0.7540    1.2550 N   0  0  0  0  0  0  0  0  0  0  0  0
    2.2330   -1.1850    2.0600 C   0  0  0  0  0  0  0  0  0  0  0  0
    3.2350   -0.2370    2.6590 C   0  0  0  0  0  0  0  0  0  0  0  0
    4.4100   -0.1600    1.8020 N   0  0  0  0  0  0  0  0  0  0  0  0
    4.3990    0.5750    0.5940 C   0  0  0  0  0  0  0  0  0  0  0  0
    3.3310    1.1670    0.2820 O   0  0  0  0  0  0  0  0  0  0  0  0
    5.5360    0.6890   -0.3060 C   0  0  0  0  0  0  0  0  0  0  0  0
    6.7370    0.0770   -0.0470 C   0  0  0  0  0  0  0  0  0  0  0  0
    7.8310    0.1830   -0.9120 C   0  0  0  0  0  0  0  0  0  0  0  0
    7.6710    0.9250   -2.0410 C   0  0  0  0  0  0  0  0  0  0  0  0
    6.4720    1.5450   -2.3140 C   0  0  0  0  0  0  0  0  0  0  0  0
    5.4570    1.4070   -1.4470 N   0  0  0  0  0  0  0  0  0  0  0  0
    2.3090   -2.5360    2.3270 C   0  0  0  0  0  0  0  0  0  0  0  0
    1.3550   -3.3410    1.7370 C   0  0  0  0  0  0  0  0  0  0  0  0
    0.3820   -2.8780    0.9360 N   0  0  0  0  0  0  0  0  0  0  0  0
   -1.9310   -0.5580    0.4170 C   0  0  0  0  0  0  0  0  0  0  0  0
   -2.3340    0.7390   -0.1710 C   0  0  2  0  0  0  0  0  0  0  0  0
   -3.7340    1.1330    0.1620 C   0  0  0  0  0  0  0  0  0  0  0  0
   -4.5540    0.4090    0.9130 C   0  0  0  0  0  0  0  0  0  0  0  0
   -5.9610    0.8870    1.1980 C   0  0  0  0  0  0  0  0  0  0  0  0
   -6.4770    1.2880   -0.1930 C   0  0  0  0  0  0  0  0  0  0  0  0
   -5.6950    2.4890   -0.6150 C   0  0  0  0  0  0  0  0  0  0  0  0
   -4.2270    2.4210   -0.3870 C   0  0  0  0  0  0  0  0  0  0  0  0
   -2.1690    0.8650   -1.5220 O   0  0  0  0  0  0  0  0  0  0  0  0
  2  1  1  1
  2  3  1  0
  2 29  1  0
  3  4  1  0
  4  5  1  0
  4 21  1  0
  5  6  2  0
  5 20  1  0
  6  7  1  0
  7  8  1  0
  7 18  2  0
  8  9  1  0
  9 10  1  0
 10 11  2  0
 10 12  1  0
 12 13  2  0
 12 17  1  0
 13 14  1  0
 14 15  2  0
 15 16  1  0
 16 17  2  0
 18 19  1  0
 19 20  2  0
 21 22  1  0
 22 23  1  6
 22 29  1  0
 23 24  2  0
 23 28  1  0
 24 25  1  0
 25 26  1  0
 26 27  1  0
 27 28  1  0
M  CHG  1  20   1
M  END
