
     RDKit          3D

 31 35  0  0  0  0  0  0  0  0999 V2000
    4.2030    3.4860    1.0510 O   0  0  0  0  0  0  0  0  0  0  0  0
    5.3000    2.7700    1.8260 S   0  0  0  0  0  0  0  0  0  0  0  0
    6.0340    1.4970    0.8910 N   0  0  0  0  0  0  0  0  0  0  0  0
    7.4420    1.0710    0.8730 C   0  0  0  0  0  0  0  0  0  0  0  0
    7.2970   -0.4130    0.6570 C   0  0  0  0  0  0  0  0  0  0  0  0
    6.1050   -0.5270   -0.2110 C   0  0  0  0  0  0  0  0  0  0  0  0
    5.6940   -1.5410   -1.0660 C   0  0  0  0  0  0  0  0  0  0  0  0
    4.5040   -1.4250   -1.7940 C   0  0  0  0  0  0  0  0  0  0  0  0
    4.1210   -2.5170   -2.7270 C   0  0  0  0  0  0  0  0  0  0  0  0
    3.4050   -3.9350   -1.9560 S   0  0  0  0  0  0  0  0  0  0  0  0
    1.8300   -3.6620   -1.2720 C   0  0  0  0  0  0  0  0  0  0  0  0
    0.9830   -4.3210   -0.6550 N   0  0  0  0  0  0  0  0  0  0  0  0
   -0.1440   -3.8640   -0.2610 N   0  0  0  0  0  0  0  0  0  0  0  0
   -0.5430   -2.7320   -0.4320 C   0  0  0  0  0  0  0  0  0  0  0  0
   -1.6910   -1.9090   -0.1470 N   0  0  0  0  0  0  0  0  0  0  0  0
   -1.7780   -0.5720   -0.5250 C   0  0  0  0  0  0  0  0  0  0  0  0
   -0.8310   -0.0250   -1.1400 O   0  0  0  0  0  0  0  0  0  0  0  0
   -2.9640    0.2130   -0.2120 C   0  0  0  0  0  0  0  0  0  0  0  0
   -2.9390    1.6100   -0.3760 C   0  0  0  0  0  0  0  0  0  0  0  0
   -4.0490    2.3760   -0.0920 C   0  0  0  0  0  0  0  0  0  0  0  0
   -5.2190    1.8040    0.3600 C   0  0  0  0  0  0  0  0  0  0  0  0
   -5.2600    0.4490    0.5250 C   0  0  0  0  0  0  0  0  0  0  0  0
   -4.1460   -0.3230    0.2400 C   0  0  0  0  0  0  0  0  0  0  0  0
   -6.4600   -0.2810    1.0020 C   0  0  0  0  0  0  0  0  0  0  0  0
   -7.6570    0.5750    1.2330 C   0  0  0  0  0  0  0  0  0  0  0  0
   -7.6360    1.7730    0.3390 C   0  0  0  0  0  0  0  0  0  0  0  0
   -6.4150    2.6430    0.6640 C   0  0  0  0  0  0  0  0  0  0  0  0
    0.8970   -2.0230   -1.3500 S   0  0  0  0  0  0  0  0  0  0  0  0
    3.7830   -0.2700   -1.6170 C   0  0  0  0  0  0  0  0  0  0  0  0
    4.2000    0.7480   -0.7550 C   0  0  0  0  0  0  0  0  0  0  0  0
    5.3720    0.6240   -0.0430 C   0  0  0  0  0  0  0  0  0  0  0  0
  1  2  2  0
  2  3  1  0
  3  4  1  0
  3 31  1  0
  4  5  1  0
  5  6  1  0
  6  7  2  0
  6 31  1  0
  7  8  1  0
  8  9  1  0
  8 29  2  0
  9 10  1  0
 10 11  1  0
 11 12  2  0
 11 28  1  0
 12 13  1  0
 13 14  2  0
 14 15  1  0
 14 28  1  0
 15 16  1  0
 16 17  2  0
 16 18  1  0
 18 19  2  0
 18 23  1  0
 19 20  1  0
 20 21  2  0
 21 22  1  0
 21 27  1  0
 22 23  2  0
 22 24  1  0
 24 25  1  0
 25 26  1  0
 26 27  1  0
 29 30  1  0
 30 31  2  0
M  END
