
     RDKit          3D

 29 31  0  0  0  0  0  0  0  0999 V2000
   -5.2830   -0.3580   -1.4480 C   0  0  0  0  0  0  0  0  0  0  0  0
   -4.5520   -1.2370   -0.4700 C   0  0  0  0  0  0  0  0  0  0  0  0
   -5.0500   -2.1550    0.3500 N   0  0  0  0  0  0  0  0  0  0  0  0
   -4.1260   -2.7370    1.0680 N   0  0  0  0  0  0  0  0  0  0  0  0
   -4.4000   -3.7820    2.0460 C   0  0  0  0  0  0  0  0  0  0  0  0
   -2.9570   -2.1840    0.7120 C   0  0  0  0  0  0  0  0  0  0  0  0
   -3.1810   -1.2260   -0.2620 C   0  0  0  0  0  0  0  0  0  0  0  0
   -2.2140   -0.3780   -0.9420 C   0  0  0  0  0  0  0  0  0  0  0  0
   -2.2740   -0.2060   -2.3130 C   0  0  0  0  0  0  0  0  0  0  0  0
   -1.3810    0.5730   -2.9460 N   0  0  0  0  0  0  0  0  0  0  0  0
   -0.3980    1.2130   -2.2670 C   0  0  0  0  0  0  0  0  0  0  0  0
    0.5460    2.0370   -2.9380 N   0  0  0  0  0  0  0  0  0  0  0  0
   -0.2690    1.0930   -0.8920 C   0  0  0  0  0  0  0  0  0  0  0  0
    0.7340    1.7570   -0.2630 O   0  0  0  0  0  0  0  0  0  0  0  0
    1.0750    1.8160    1.0790 C   0  0  2  0  0  0  0  0  0  0  0  0
    0.7350    3.1940    1.6700 C   0  0  0  0  0  0  0  0  0  0  0  0
    2.4620    1.4700    1.4180 C   0  0  0  0  0  0  0  0  0  0  0  0
    3.2880    2.4130    2.0020 C   0  0  0  0  0  0  0  0  0  0  0  0
    4.6000    2.1730    2.3610 C   0  0  0  0  0  0  0  0  0  0  0  0
    5.3650    3.1200    2.9250 F   0  0  0  0  0  0  0  0  0  0  0  0
    5.1160    0.9190    2.1220 C   0  0  0  0  0  0  0  0  0  0  0  0
    4.3470   -0.0620    1.5440 C   0  0  0  0  0  0  0  0  0  0  0  0
    3.0190    0.2240    1.1950 C   0  0  0  0  0  0  0  0  0  0  0  0
    2.1930   -0.8040    0.5680 C   0  0  0  0  0  0  0  0  0  0  0  0
    1.4400   -1.5620    1.2300 O   0  0  0  0  0  0  0  0  0  0  0  0
    2.2630   -0.9360   -0.8490 N   0  0  0  0  0  0  0  0  0  0  0  0
    3.1080   -0.1050   -1.6680 C   0  0  0  0  0  0  0  0  0  0  0  0
    1.4560   -1.9500   -1.5440 C   0  0  0  0  0  0  0  0  0  0  0  0
   -1.1940    0.2910   -0.2660 C   0  0  0  0  0  0  0  0  0  0  0  0
  1  2  1  0
  2  3  2  0
  2  7  1  0
  3  4  1  0
  4  5  1  0
  4  6  1  0
  6  7  2  0
  7  8  1  0
  8  9  2  0
  8 29  1  0
  9 10  1  0
 10 11  2  0
 11 12  1  0
 11 13  1  0
 13 14  1  0
 13 29  2  0
 14 15  1  0
 15 16  1  6
 15 17  1  0
 17 18  2  0
 17 23  1  0
 18 19  1  0
 19 20  1  0
 19 21  2  0
 21 22  1  0
 22 23  2  0
 23 24  1  0
 24 25  2  0
 24 26  1  0
 26 27  1  0
 26 28  1  0
M  END
