
     RDKit          3D

 15 15  0  0  0  0  0  0  0  0999 V2000
   -4.1580    0.1660    0.5110 C   0  0  0  0  0  0  0  0  0  0  0  0
   -3.0750   -0.4230   -0.3960 C   0  0  0  0  0  0  0  0  0  0  0  0
   -1.8670    0.4990   -0.4260 C   0  0  1  0  0  0  0  0  0  0  0  0
   -2.3820    1.7160   -0.9360 O   0  0  0  0  0  0  0  0  0  0  0  0
   -1.4580    0.7620    0.9850 C   0  0  0  0  0  0  0  0  0  0  0  0
   -1.0820   -0.4440    1.7690 C   0  0  0  0  0  0  0  0  0  0  0  0
    0.3080   -0.6450    1.5980 O   0  0  0  0  0  0  0  0  0  0  0  0
    0.4270   -1.3300    0.3820 C   0  0  0  0  0  0  0  0  0  0  0  0
    0.5160   -0.3030   -0.7170 C   0  0  2  0  0  0  0  0  0  0  0  0
    1.2080    0.7740   -0.2810 O   0  0  0  0  0  0  0  0  0  0  0  0
    2.3590    1.1140   -0.8830 C   0  0  0  0  0  0  0  0  0  0  0  0
    3.4200    0.0600   -0.7500 C   0  0  0  0  0  0  0  0  0  0  0  0
    3.8140   -0.1770    0.6770 C   0  0  0  0  0  0  0  0  0  0  0  0
    4.7930   -1.1720    0.7150 O   0  0  0  0  0  0  0  0  0  0  0  0
   -0.8250   -0.0160   -1.3280 C   0  0  0  0  0  0  0  0  0  0  0  0
  1  2  1  0
  2  3  1  0
  3  4  1  6
  3  5  1  0
  3 15  1  0
  5  6  1  0
  6  7  1  0
  7  8  1  0
  8  9  1  0
  9 10  1  1
  9 15  1  0
 10 11  1  0
 11 12  1  0
 12 13  1  0
 13 14  1  0
M  END
