
     RDKit          3D

 15 15  0  0  0  0  0  0  0  0999 V2000
    0.8090   -0.6820   -0.3100 O   0  0  0  0  0  0  0  0  0  0  0  0
    0.7890    0.2720    0.4960 C   0  0  0  0  0  0  0  0  0  0  0  0
   -0.4510    1.0390    0.7940 C   0  0  0  0  0  0  0  0  0  0  0  0
   -1.6130    0.5620    0.0550 C   0  0  0  0  0  0  0  0  0  0  0  0
   -2.2730    1.3480   -0.7760 C   0  0  0  0  0  0  0  0  0  0  0  0
   -3.4450    0.7640   -1.4820 C   0  0  0  0  0  0  0  0  0  0  0  0
   -4.2890   -0.1390   -0.6320 C   0  0  0  0  0  0  0  0  0  0  0  0
   -3.5710   -0.7200    0.5470 C   0  0  0  0  0  0  0  0  0  0  0  0
   -2.0980   -0.8290    0.2160 C   0  0  1  0  0  0  0  0  0  0  0  0
   -1.9490   -1.5180   -0.9980 O   0  0  0  0  0  0  0  0  0  0  0  0
    1.9800    0.6100    1.1240 O   0  0  0  0  0  0  0  0  0  0  0  0
    3.2010   -0.0360    0.9240 C   0  0  0  0  0  0  0  0  0  0  0  0
    3.6900    0.0110   -0.5010 C   0  0  0  0  0  0  0  0  0  0  0  0
    5.0260   -0.7410   -0.5210 C   0  0  0  0  0  0  0  0  0  0  0  0
    5.8930   -0.0640    0.3600 O   0  0  0  0  0  0  0  0  0  0  0  0
  1  2  2  0
  2  3  1  0
  2 11  1  0
  3  4  1  0
  4  5  2  0
  4  9  1  0
  5  6  1  0
  6  7  1  0
  7  8  1  0
  8  9  1  0
  9 10  1  6
 11 12  1  0
 12 13  1  0
 13 14  1  0
 14 15  1  0
M  END
