
     RDKit          3D

 15 15  0  0  0  0  0  0  0  0999 V2000
    4.6380    1.0480    0.9580 C   0  0  0  0  0  0  0  0  0  0  0  0
    3.7150    0.1590    1.4370 O   0  0  0  0  0  0  0  0  0  0  0  0
    2.8640   -0.3860    0.4720 C   0  0  0  0  0  0  0  0  0  0  0  0
    2.0560    0.6380   -0.2390 C   0  0  0  0  0  0  0  0  0  0  0  0
    1.2240    0.1900   -1.1790 O   0  0  0  0  0  0  0  0  0  0  0  0
    0.2090   -0.6540   -0.9710 C   0  0  2  0  0  0  0  0  0  0  0  0
    0.4930   -2.0350   -0.4880 C   0  0  0  0  0  0  0  0  0  0  0  0
   -0.4100   -0.8340   -2.2570 O   0  0  0  0  0  0  0  0  0  0  0  0
   -0.9130   -0.1060   -0.1120 C   0  0  2  0  0  0  0  0  0  0  0  0
   -0.3930    0.2240    1.1350 O   0  0  0  0  0  0  0  0  0  0  0  0
   -1.9930   -1.1230    0.0430 C   0  0  0  0  0  0  0  0  0  0  0  0
   -3.3700   -0.5240    0.1560 C   0  0  0  0  0  0  0  0  0  0  0  0
   -3.4000    0.8010    0.8370 C   0  0  0  0  0  0  0  0  0  0  0  0
   -2.3690    1.7720    0.3800 C   0  0  0  0  0  0  0  0  0  0  0  0
   -1.4760    1.1810   -0.7000 C   0  0  0  0  0  0  0  0  0  0  0  0
  1  2  1  0
  2  3  1  0
  3  4  1  0
  4  5  1  0
  5  6  1  0
  6  7  1  1
  6  8  1  0
  6  9  1  0
  9 10  1  1
  9 11  1  0
  9 15  1  0
 11 12  1  0
 12 13  1  0
 13 14  1  0
 14 15  1  0
M  END
