
     RDKit          3D

 39 44  0  0  0  0  0  0  0  0999 V2000
   -8.2290    2.0880    0.5860 N   0  0  0  0  0  0  0  0  0  0  0  0
   -7.1150    2.4440   -0.2050 C   0  0  0  0  0  0  0  0  0  0  0  0
   -7.1400    3.4580   -1.0970 N   0  0  0  0  0  0  0  0  0  0  0  0
   -6.0440    3.7620   -1.8340 C   0  0  0  0  0  0  0  0  0  0  0  0
   -4.8920    3.0760   -1.7120 N   0  0  0  0  0  0  0  0  0  0  0  0
   -4.7980    2.0500   -0.8390 C   0  0  0  0  0  0  0  0  0  0  0  0
   -3.6850    1.3330   -0.6720 N   0  0  0  0  0  0  0  0  0  0  0  0
   -3.6620    0.3140    0.2250 C   0  0  0  0  0  0  0  0  0  0  0  0
   -2.5940   -0.5430    0.5370 C   0  0  0  0  0  0  0  0  0  0  0  0
   -1.2720   -0.4840   -0.0710 C   0  0  0  0  0  0  0  0  0  0  0  0
   -0.5790   -1.5330   -0.2680 N   0  0  0  0  0  0  0  0  0  0  0  0
   -0.9090   -2.8630    0.0300 C   0  0  0  0  0  0  0  0  0  0  0  0
   -2.0070   -3.4470   -0.6140 C   0  0  0  0  0  0  0  0  0  0  0  0
   -2.3290   -4.7540   -0.3250 C   0  0  0  0  0  0  0  0  0  0  0  0
   -1.6570   -5.5280    0.5450 N   0  0  0  0  0  0  0  0  0  0  0  0
   -0.5930   -4.9550    1.1660 C   0  0  0  0  0  0  0  0  0  0  0  0
   -0.2260   -3.6580    0.9170 C   0  0  0  0  0  0  0  0  0  0  0  0
   -0.7200    0.7640   -0.4670 N   0  0  0  0  0  0  0  0  0  0  0  0
    0.6370    0.8740   -0.9830 C   0  0  0  0  0  0  0  0  0  0  0  0
    1.6420    0.5990    0.0670 C   0  0  0  0  0  0  0  0  0  0  0  0
    1.2800    0.3230    1.2330 O   0  0  0  0  0  0  0  0  0  0  0  0
    3.0620    0.6410   -0.2250 C   0  0  0  0  0  0  0  0  0  0  0  0
    3.5100    0.9050   -1.5030 C   0  0  0  0  0  0  0  0  0  0  0  0
    4.8590    0.9510   -1.8270 C   0  0  0  0  0  0  0  0  0  0  0  0
    5.7710    0.7250   -0.8330 C   0  0  0  0  0  0  0  0  0  0  0  0
    5.3720    0.4570    0.4620 C   0  0  0  0  0  0  0  0  0  0  0  0
    4.0330    0.4210    0.7360 C   0  0  0  0  0  0  0  0  0  0  0  0
    3.6530    0.1570    2.0070 F   0  0  0  0  0  0  0  0  0  0  0  0
    6.4380    0.2270    1.4690 C   0  0  0  0  0  0  0  0  0  0  0  0
    7.5390    1.2770    1.3680 C   0  0  0  0  0  0  0  0  0  0  0  0
    7.7980    1.7300   -0.0320 C   0  0  1  0  0  0  0  0  0  0  0  0
    9.1450    1.8730   -0.2540 F   0  0  0  0  0  0  0  0  0  0  0  0
    7.2530    0.7470   -1.0640 C   0  0  0  0  0  0  0  0  0  0  0  0
   -3.0250   -1.3940    1.4800 N   0  0  0  0  0  0  0  0  0  0  0  0
   -4.3090   -1.1110    1.7730 C   0  0  0  0  0  0  0  0  0  0  0  0
   -4.7070   -0.0610    1.0040 C   0  0  0  0  0  0  0  0  0  0  0  0
   -5.9030    0.6560    0.8730 C   0  0  0  0  0  0  0  0  0  0  0  0
   -6.8800    0.3410    1.5690 O   0  0  0  0  0  0  0  0  0  0  0  0
   -5.9530    1.6930   -0.0300 C   0  0  0  0  0  0  0  0  0  0  0  0
  1  2  1  0
  2  3  1  0
  2 39  2  0
  3  4  2  0
  4  5  1  0
  5  6  1  0
  6  7  2  0
  6 39  1  0
  7  8  1  0
  8  9  2  0
  8 36  1  0
  9 10  1  0
  9 34  1  0
 10 11  2  3
 10 18  1  0
 11 12  1  0
 12 13  2  0
 12 17  1  0
 13 14  1  0
 14 15  2  0
 15 16  1  0
 16 17  2  0
 18 19  1  0
 19 20  1  0
 20 21  2  0
 20 22  1  0
 22 23  2  0
 22 27  1  0
 23 24  1  0
 24 25  2  0
 25 26  1  0
 25 33  1  0
 26 27  2  0
 26 29  1  0
 27 28  1  0
 29 30  1  0
 30 31  1  0
 31 32  1  1
 31 33  1  0
 34 35  1  0
 35 36  2  0
 36 37  1  0
 37 38  2  0
 37 39  1  0
M  CHG  1  15   1
M  END
