
     RDKit          3D

 39 44  0  0  0  0  0  0  0  0999 V2000
   -6.8050    2.9140   -0.8980 C   0  0  0  0  0  0  0  0  0  0  0  0
   -6.8400    1.9050    0.1150 N   0  0  0  0  0  0  0  0  0  0  0  0
   -5.5990    1.3310    0.4550 C   0  0  0  0  0  0  0  0  0  0  0  0
   -4.9190    0.4800   -0.5880 C   0  0  1  0  0  0  0  0  0  0  0  0
   -3.6970    0.0310    0.0020 N   0  0  0  0  0  0  0  0  0  0  0  0
   -3.4490   -1.2590    0.4890 C   0  0  0  0  0  0  0  0  0  0  0  0
   -2.2350   -1.4790    1.2830 C   0  0  0  0  0  0  0  0  0  0  0  0
   -1.4080   -0.5210    1.5360 N   0  0  0  0  0  0  0  0  0  0  0  0
   -0.2300   -0.7200    2.3040 C   0  0  0  0  0  0  0  0  0  0  0  0
    1.0510   -0.5040    1.7830 C   0  0  0  0  0  0  0  0  0  0  0  0
    2.1690   -0.7070    2.5570 C   0  0  0  0  0  0  0  0  0  0  0  0
    3.4930   -0.4780    2.0000 C   0  0  0  0  0  0  0  0  0  0  0  0
    4.6670   -0.6410    2.6550 N   0  0  0  0  0  0  0  0  0  0  0  0
    5.6350   -0.3440    1.8440 O   0  0  0  0  0  0  0  0  0  0  0  0
    5.2130    0.0140    0.6690 C   0  0  0  0  0  0  0  0  0  0  0  0
    5.9070    0.4290   -0.5470 C   0  0  0  0  0  0  0  0  0  0  0  0
    5.1240    0.7550   -1.6610 C   0  0  0  0  0  0  0  0  0  0  0  0
    5.6730    1.1520   -2.8400 C   0  0  0  0  0  0  0  0  0  0  0  0
    4.9260    1.4320   -3.8080 O   0  0  0  0  0  0  0  0  0  0  0  0
    7.0000    1.2290   -2.9190 N   0  0  0  0  0  0  0  0  0  0  0  0
    7.8030    0.9330   -1.8930 C   0  0  0  0  0  0  0  0  0  0  0  0
    9.1610    1.0200   -1.9980 C   0  0  0  0  0  0  0  0  0  0  0  0
    9.6700    1.4220   -3.1950 F   0  0  0  0  0  0  0  0  0  0  0  0
    9.9840    0.7160   -0.9460 C   0  0  0  0  0  0  0  0  0  0  0  0
    9.4650    0.3120    0.2550 C   0  0  0  0  0  0  0  0  0  0  0  0
   10.2150    0.0010    1.3210 F   0  0  0  0  0  0  0  0  0  0  0  0
    8.0730    0.2170    0.3840 C   0  0  0  0  0  0  0  0  0  0  0  0
    7.2650    0.5210   -0.6670 C   0  0  0  0  0  0  0  0  0  0  0  0
    3.8480   -0.0740    0.7770 N   0  0  0  0  0  0  0  0  0  0  0  0
    1.9940   -1.1280    3.8540 C   0  0  0  0  0  0  0  0  0  0  0  0
    0.7220   -1.3470    4.3850 C   0  0  0  0  0  0  0  0  0  0  0  0
   -0.3230   -1.1300    3.5760 N   0  0  0  0  0  0  0  0  0  0  0  0
   -4.2570   -2.2260    0.2500 N   0  0  0  0  0  0  0  0  0  0  0  0
   -5.4380   -1.9340   -0.5350 C   0  0  0  0  0  0  0  0  0  0  0  0
   -6.2390   -3.0340   -0.8710 C   0  0  0  0  0  0  0  0  0  0  0  0
   -7.3270   -2.8730   -1.6920 C   0  0  0  0  0  0  0  0  0  0  0  0
   -7.6050   -1.6040   -2.1730 C   0  0  0  0  0  0  0  0  0  0  0  0
   -6.8220   -0.5400   -1.8410 C   0  0  0  0  0  0  0  0  0  0  0  0
   -5.7320   -0.6880   -1.0190 C   0  0  0  0  0  0  0  0  0  0  0  0
  1  2  1  0
  2  3  1  0
  4  3  1  1
  4  5  1  0
  4 39  1  0
  5  6  1  0
  6  7  1  0
  6 33  2  0
  7  8  2  3
  8  9  1  0
  9 10  2  0
  9 32  1  0
 10 11  1  0
 11 12  1  0
 11 30  2  0
 12 13  2  0
 12 29  1  0
 13 14  1  0
 14 15  1  0
 15 16  1  0
 15 29  2  0
 16 17  2  0
 16 28  1  0
 17 18  1  0
 18 19  2  0
 18 20  1  0
 20 21  1  0
 21 22  2  0
 21 28  1  0
 22 23  1  0
 22 24  1  0
 24 25  2  0
 25 26  1  0
 25 27  1  0
 27 28  2  0
 30 31  1  0
 31 32  2  0
 33 34  1  0
 34 35  2  0
 34 39  1  0
 35 36  1  0
 36 37  2  0
 37 38  1  0
 38 39  2  0
M  CHG  1   2   1
M  END
