
     RDKit          3D

 39 44  0  0  0  0  0  0  0  0999 V2000
    3.0010    4.3700   -2.1680 N   0  0  0  0  0  0  0  0  0  0  0  0
    1.8780    3.5610   -1.8080 C   0  0  0  0  0  0  0  0  0  0  0  0
    0.6810    4.1680   -1.8320 N   0  0  0  0  0  0  0  0  0  0  0  0
   -0.4730    3.5100   -1.5100 C   0  0  0  0  0  0  0  0  0  0  0  0
   -0.3710    2.1730   -1.1520 C   0  0  0  0  0  0  0  0  0  0  0  0
   -1.5140    1.4200   -0.8070 N   0  0  0  0  0  0  0  0  0  0  0  0
   -2.8520    1.8310   -0.7550 C   0  0  0  0  0  0  0  0  0  0  0  0
   -3.1550    2.9980   -1.0390 O   0  0  0  0  0  0  0  0  0  0  0  0
   -3.9570    0.8970   -0.3620 C   0  0  0  0  0  0  0  0  0  0  0  0
   -5.1900    1.3530   -0.3440 C   0  0  0  0  0  0  0  0  0  0  0  0
   -6.3030    0.5150    0.0230 C   0  0  0  0  0  0  0  0  0  0  0  0
   -7.5600    0.8620    0.0720 C   0  0  0  0  0  0  0  0  0  0  0  0
   -8.0570    2.2150   -0.2520 C   0  0  0  0  0  0  0  0  0  0  0  0
   -8.9530    2.1970   -1.3060 F   0  0  0  0  0  0  0  0  0  0  0  0
   -5.9510   -0.8860    0.3730 C   0  0  0  0  0  0  0  0  0  0  0  0
   -6.8070   -1.8630    0.2290 C   0  0  0  0  0  0  0  0  0  0  0  0
   -6.5090   -3.2490    0.5560 C   0  0  0  0  0  0  0  0  0  0  0  0
   -5.3010   -3.4860    1.0130 C   0  0  0  0  0  0  0  0  0  0  0  0
   -4.9360   -4.7480    1.3440 F   0  0  0  0  0  0  0  0  0  0  0  0
   -4.2790   -2.4320    1.1740 C   0  0  0  0  0  0  0  0  0  0  0  0
   -4.6510   -1.1130    0.8700 N   0  0  1  0  0  0  0  0  0  0  0  0
   -3.6570   -0.4920   -0.0040 C   0  0  0  0  0  0  0  0  0  0  0  0
    0.8750    1.5790   -1.1380 C   0  0  0  0  0  0  0  0  0  0  0  0
    0.9930    0.2130   -0.7730 N   0  0  0  0  0  0  0  0  0  0  0  0
    2.3110   -0.3630   -0.7740 N   0  0  0  0  0  0  0  0  0  0  0  0
    3.1090   -0.1200    0.2120 C   0  0  0  0  0  0  0  0  0  0  0  0
    2.7900    0.7120    1.3660 C   0  0  0  0  0  0  0  0  0  0  0  0
    1.6890    1.3200    1.5810 O   0  0  0  0  0  0  0  0  0  0  0  0
    3.9500    0.6980    2.1870 N   0  0  0  0  0  0  0  0  0  0  0  0
    4.9520   -0.1170    1.5570 C   0  0  0  0  0  0  0  0  0  0  0  0
    6.2390   -0.4480    1.9410 C   0  0  0  0  0  0  0  0  0  0  0  0
    7.0040   -1.2640    1.1350 C   0  0  0  0  0  0  0  0  0  0  0  0
    6.5220   -1.7670   -0.0540 C   0  0  0  0  0  0  0  0  0  0  0  0
    5.2410   -1.4470   -0.4520 C   0  0  0  0  0  0  0  0  0  0  0  0
    4.4750   -0.6170    0.3750 C   0  0  0  0  0  0  0  0  0  0  0  0
    7.5570   -2.6130   -0.7130 C   0  0  0  0  0  0  0  0  0  0  0  0
    8.6210   -2.7800    0.3380 C   0  0  0  0  0  0  0  0  0  0  0  0
    8.3970   -1.7290    1.3740 C   0  0  0  0  0  0  0  0  0  0  0  0
    2.0150    2.2740   -1.4680 N   0  0  0  0  0  0  0  0  0  0  0  0
  1  2  1  0
  2  3  2  0
  2 39  1  0
  3  4  1  0
  4  5  2  0
  5  6  1  0
  5 23  1  0
  6  7  1  0
  7  8  2  0
  7  9  1  0
  9 10  2  0
  9 22  1  0
 10 11  1  0
 11 12  2  3
 11 15  1  0
 12 13  1  0
 13 14  1  0
 15 16  2  0
 15 21  1  0
 16 17  1  0
 17 18  2  0
 18 19  1  0
 18 20  1  0
 21 20  1  6
 21 22  1  0
 23 24  1  0
 23 39  2  0
 24 25  1  0
 25 26  2  3
 26 27  1  0
 26 35  1  0
 27 28  2  0
 27 29  1  0
 29 30  1  0
 30 31  2  0
 30 35  1  0
 31 32  1  0
 32 33  2  0
 32 38  1  0
 33 34  1  0
 33 36  1  0
 34 35  2  0
 36 37  1  0
 37 38  1  0
M  CHG  1  21   1
M  END
