
     RDKit          3D

 39 44  0  0  0  0  0  0  0  0999 V2000
   -8.9850    1.7290    3.0050 C   0  0  0  0  0  0  0  0  0  0  0  0
   -7.6960    1.2580    2.4350 C   0  0  0  0  0  0  0  0  0  0  0  0
   -7.5570    0.8660    1.1250 C   0  0  0  0  0  0  0  0  0  0  0  0
   -6.3550    0.4280    0.5980 C   0  0  0  0  0  0  0  0  0  0  0  0
   -6.2700    0.0470   -0.7190 C   0  0  0  0  0  0  0  0  0  0  0  0
   -5.0600   -0.3920   -1.2460 C   0  0  0  0  0  0  0  0  0  0  0  0
   -4.9230   -0.7810   -2.5440 C   0  0  0  0  0  0  0  0  0  0  0  0
   -5.9220   -0.7440   -3.3020 O   0  0  0  0  0  0  0  0  0  0  0  0
   -3.7030   -1.1960   -2.9730 N   0  0  0  0  0  0  0  0  0  0  0  0
   -2.6150   -1.2390   -2.1540 C   0  0  0  0  0  0  0  0  0  0  0  0
   -1.3520   -1.7030   -2.6890 C   0  0  0  0  0  0  0  0  0  0  0  0
   -1.1740   -2.1380   -3.9900 C   0  0  0  0  0  0  0  0  0  0  0  0
    0.0580   -2.5820   -4.4740 C   0  0  0  0  0  0  0  0  0  0  0  0
    1.1440   -2.5980   -3.6510 C   0  0  0  0  0  0  0  0  0  0  0  0
    0.9860   -2.1660   -2.3440 C   0  0  0  0  0  0  0  0  0  0  0  0
   -0.2360   -1.7190   -1.8490 C   0  0  0  0  0  0  0  0  0  0  0  0
   -0.3920   -1.2860   -0.4550 C   0  0  0  0  0  0  0  0  0  0  0  0
    0.9030   -1.3300    0.2050 N   0  0  0  0  0  0  0  0  0  0  0  0
    1.9560   -0.4380   -0.1420 C   0  0  0  0  0  0  0  0  0  0  0  0
    1.7080    0.4120   -1.0630 O   0  0  0  0  0  0  0  0  0  0  0  0
    3.2320   -0.4620    0.4800 N   0  0  0  0  0  0  0  0  0  0  0  0
    4.2000    0.4820    0.0430 C   0  0  0  0  0  0  0  0  0  0  0  0
    3.9350    1.3750   -0.9280 N   0  0  0  0  0  0  0  0  0  0  0  0
    4.7960    2.2800   -1.3790 C   0  0  0  0  0  0  0  0  0  0  0  0
    4.5010    3.1770   -2.3670 F   0  0  0  0  0  0  0  0  0  0  0  0
    6.0530    2.3100   -0.8160 C   0  0  0  0  0  0  0  0  0  0  0  0
    6.3590    1.4070    0.1820 C   0  0  0  0  0  0  0  0  0  0  0  0
    7.7120    1.4400    0.7870 C   0  0  2  0  0  0  0  0  0  0  0  0
    8.4130    0.0870    0.8360 C   0  0  0  0  0  0  0  0  0  0  0  0
    8.9210    0.4630    2.1490 N   0  0  0  0  0  0  0  0  0  0  0  0
    7.7680    1.3320    2.2800 C   0  0  0  0  0  0  0  0  0  0  0  0
    5.4360    0.5290    0.5790 N   0  0  0  0  0  0  0  0  0  0  0  0
   -2.8090   -0.8490   -0.9010 N   0  0  0  0  0  0  0  0  0  0  0  0
   -3.9720   -0.4280   -0.4030 C   0  0  0  0  0  0  0  0  0  0  0  0
   -4.0910   -0.0420    0.9000 N   0  0  0  0  0  0  0  0  0  0  0  0
   -5.2520    0.3840    1.4230 C   0  0  0  0  0  0  0  0  0  0  0  0
   -5.3540    0.7730    2.7540 C   0  0  0  0  0  0  0  0  0  0  0  0
   -6.5820    1.2060    3.2420 C   0  0  0  0  0  0  0  0  0  0  0  0
   -6.6580    1.5820    4.5520 F   0  0  0  0  0  0  0  0  0  0  0  0
  1  2  1  0
  2  3  2  0
  2 38  1  0
  3  4  1  0
  4  5  2  0
  4 36  1  0
  5  6  1  0
  6  7  1  0
  6 34  2  0
  7  8  2  0
  7  9  1  0
  9 10  1  0
 10 11  1  0
 10 33  2  0
 11 12  2  0
 11 16  1  0
 12 13  1  0
 13 14  2  0
 14 15  1  0
 15 16  2  0
 16 17  1  0
 17 18  1  0
 18 19  1  0
 19 20  2  0
 19 21  1  0
 21 22  1  0
 22 23  2  0
 22 32  1  0
 23 24  1  0
 24 25  1  0
 24 26  2  0
 26 27  1  0
 28 27  1  1
 27 32  2  0
 28 29  1  0
 28 31  1  0
 29 30  1  0
 30 31  1  0
 33 34  1  0
 34 35  1  0
 35 36  2  0
 36 37  1  0
 37 38  2  0
 38 39  1  0
M  CHG  1  30   1
M  END
