
     RDKit          3D

 39 44  0  0  0  0  0  0  0  0999 V2000
   -1.6070    1.7740    0.8840 C   0  0  0  0  0  0  0  0  0  0  0  0
   -2.1200    1.2210   -0.4040 C   0  0  2  0  0  0  0  0  0  0  0  0
   -1.1020    1.4140   -1.4980 C   0  0  0  0  0  0  0  0  0  0  0  0
    0.1570    0.7830   -1.2810 N   0  0  0  0  0  0  0  0  0  0  0  0
    0.4590   -0.5800   -1.6860 C   0  0  0  0  0  0  0  0  0  0  0  0
    1.9370   -0.5660   -1.7790 C   0  0  0  0  0  0  0  0  0  0  0  0
    2.5980   -1.3560   -2.4740 O   0  0  0  0  0  0  0  0  0  0  0  0
    2.4450    0.4880   -0.9500 N   0  0  0  0  0  0  0  0  0  0  0  0
    3.7880    0.6700   -0.5170 C   0  0  0  0  0  0  0  0  0  0  0  0
    4.2860    1.9100   -0.1730 C   0  0  0  0  0  0  0  0  0  0  0  0
    5.5750    2.1230    0.2480 C   0  0  0  0  0  0  0  0  0  0  0  0
    6.4200    1.0350    0.3320 C   0  0  0  0  0  0  0  0  0  0  0  0
    7.7050    0.9050    0.6980 N   0  0  0  0  0  0  0  0  0  0  0  0
    8.0840   -0.3800    0.6110 C   0  0  0  0  0  0  0  0  0  0  0  0
    9.4230   -0.9280    0.9270 C   0  0  0  0  0  0  0  0  0  0  0  0
   10.4800   -0.2270    1.3550 N   0  0  0  0  0  0  0  0  0  0  0  0
   11.4990   -1.0670    1.5300 C   0  0  0  0  0  0  0  0  0  0  0  0
   11.0690   -2.3300    1.2020 C   0  0  0  0  0  0  0  0  0  0  0  0
    9.7900   -2.2060    0.8360 N   0  0  0  0  0  0  0  0  0  0  0  0
    7.0120   -1.0620    0.1820 N   0  0  0  0  0  0  0  0  0  0  0  0
    5.9550   -0.2340   -0.0060 C   0  0  0  0  0  0  0  0  0  0  0  0
    4.6600   -0.4110   -0.4230 C   0  0  0  0  0  0  0  0  0  0  0  0
    1.3200    1.3000   -0.6630 C   0  0  0  0  0  0  0  0  0  0  0  0
    1.3480    2.3420    0.0460 O   0  0  0  0  0  0  0  0  0  0  0  0
   -3.3450    1.8480   -0.8560 N   0  0  0  0  0  0  0  0  0  0  0  0
   -4.5160    1.3940   -0.1870 C   0  0  0  0  0  0  0  0  0  0  0  0
   -5.0680    0.1140   -0.6960 C   0  0  0  0  0  0  0  0  0  0  0  0
   -4.4930   -0.5740   -1.7310 C   0  0  0  0  0  0  0  0  0  0  0  0
   -5.0690   -1.7600   -2.1440 C   0  0  0  0  0  0  0  0  0  0  0  0
   -6.2030   -2.2120   -1.5010 C   0  0  0  0  0  0  0  0  0  0  0  0
   -6.7980   -1.5220   -0.4460 C   0  0  0  0  0  0  0  0  0  0  0  0
   -6.2080   -0.3420   -0.0500 C   0  0  0  0  0  0  0  0  0  0  0  0
   -6.7460    0.3050    0.9180 N   0  0  0  0  0  0  0  0  0  0  0  0
   -7.9140   -0.1100    1.6180 C   0  0  0  0  0  0  0  0  0  0  0  0
   -8.4140    0.6210    2.6080 C   0  0  0  0  0  0  0  0  0  0  0  0
   -7.8070    1.7970    2.9730 F   0  0  0  0  0  0  0  0  0  0  0  0
   -9.5200    0.1830    3.2380 F   0  0  0  0  0  0  0  0  0  0  0  0
   -8.5880   -1.3610    1.2520 C   0  0  0  0  0  0  0  0  0  0  0  0
   -7.8810   -2.0090    0.1300 C   0  0  0  0  0  0  0  0  0  0  0  0
  2  1  1  1
  2  3  1  0
  2 25  1  0
  3  4  1  0
  4  5  1  0
  4 23  1  0
  5  6  1  0
  6  7  2  0
  6  8  1  0
  8  9  1  0
  8 23  1  0
  9 10  2  0
  9 22  1  0
 10 11  1  0
 11 12  2  0
 12 13  1  0
 12 21  1  0
 13 14  2  0
 14 15  1  0
 14 20  1  0
 15 16  2  0
 15 19  1  0
 16 17  1  0
 17 18  2  0
 18 19  1  0
 20 21  1  0
 21 22  2  0
 23 24  2  0
 25 26  1  0
 26 27  1  0
 27 28  2  0
 27 32  1  0
 28 29  1  0
 29 30  2  0
 30 31  1  0
 31 32  1  0
 31 39  2  0
 32 33  2  0
 33 34  1  0
 34 35  2  3
 34 38  1  0
 35 36  1  0
 35 37  1  0
 38 39  1  0
M  CHG  1  25   1
M  END
