
     RDKit          3D

 20 22  0  0  0  0  0  0  0  0999 V2000
   -4.7470    1.0810   -1.5480 C   0  0  0  0  0  0  0  0  0  0  0  0
   -3.6500    0.4330   -0.7690 C   0  0  0  0  0  0  0  0  0  0  0  0
   -2.3630    0.3450   -1.2400 C   0  0  0  0  0  0  0  0  0  0  0  0
   -1.3380   -0.2610   -0.5140 C   0  0  0  0  0  0  0  0  0  0  0  0
    0.0120   -0.3330   -1.0480 C   0  0  0  0  0  0  0  0  0  0  0  0
    0.2640    0.1540   -2.1770 O   0  0  0  0  0  0  0  0  0  0  0  0
    1.0310   -0.9220   -0.3530 O   0  0  0  0  0  0  0  0  0  0  0  0
    2.3600   -1.0530   -0.7550 C   0  0  0  0  0  0  0  0  0  0  0  0
    3.0170    0.2880   -0.9910 C   0  0  2  0  0  0  0  0  0  0  0  0
    4.4600    0.1290   -1.4260 C   0  0  0  0  0  0  0  0  0  0  0  0
    5.3120    0.4840   -0.2400 C   0  0  0  0  0  0  0  0  0  0  0  0
    4.3990    0.8340    0.8950 C   0  0  0  0  0  0  0  0  0  0  0  0
    3.0450    1.1230    0.2500 C   0  0  0  0  0  0  0  0  0  0  0  0
   -1.6640   -0.7820    0.7250 C   0  0  0  0  0  0  0  0  0  0  0  0
   -0.9290   -1.4320    1.6900 C   0  0  0  0  0  0  0  0  0  0  0  0
   -1.7720   -1.7340    2.7380 C   0  0  0  0  0  0  0  0  0  0  0  0
   -2.9600   -1.2900    2.4270 O   0  0  0  0  0  0  0  0  0  0  0  0
   -2.9470   -0.7140    1.2350 C   0  0  0  0  0  0  0  0  0  0  0  0
   -3.9180   -0.1020    0.4680 C   0  0  0  0  0  0  0  0  0  0  0  0
   -5.3020   -0.0220    1.0050 C   0  0  0  0  0  0  0  0  0  0  0  0
  1  2  1  0
  2  3  2  0
  2 19  1  0
  3  4  1  0
  4  5  1  0
  4 14  2  0
  5  6  2  0
  5  7  1  0
  7  8  1  0
  9  8  1  1
  9 10  1  0
  9 13  1  0
 10 11  1  0
 11 12  1  0
 12 13  1  0
 14 15  1  0
 14 18  1  0
 15 16  2  0
 16 17  1  0
 17 18  1  0
 18 19  2  0
 19 20  1  0
M  END
