
     RDKit          3D

 23 24  0  0  0  0  0  0  0  0999 V2000
   -6.1480   -0.6040   -0.8360 C   0  0  0  0  0  0  0  0  0  0  0  0
   -4.9840   -0.1820   -0.2800 C   0  0  0  0  0  0  0  0  0  0  0  0
   -3.9560   -0.9700   -0.1000 C   0  0  0  0  0  0  0  0  0  0  0  0
   -3.8360   -2.3920   -0.5760 C   0  0  0  0  0  0  0  0  0  0  0  0
   -3.3120   -2.4720   -1.7570 O   0  0  0  0  0  0  0  0  0  0  0  0
   -2.7460   -0.4390    0.4780 C   0  0  0  0  0  0  0  0  0  0  0  0
   -1.6390   -1.3700    0.8600 C   0  0  0  0  0  0  0  0  0  0  0  0
   -0.3750   -1.1570    0.3770 N   0  0  0  0  0  0  0  0  0  0  0  0
    0.6980   -0.2760    0.5040 C   0  0  0  0  0  0  0  0  0  0  0  0
    0.6300    0.7050    1.2290 O   0  0  0  0  0  0  0  0  0  0  0  0
    1.8960   -0.5820   -0.2230 N   0  0  0  0  0  0  0  0  0  0  0  0
    3.1340    0.1570   -0.0780 C   0  0  0  0  0  0  0  0  0  0  0  0
    4.2840   -0.2610   -0.3710 N   0  0  0  0  0  0  0  0  0  0  0  0
    5.3600    0.4390   -0.1750 C   0  0  0  0  0  0  0  0  0  0  0  0
    6.7900   -0.0950   -0.3600 C   0  0  0  0  0  0  0  0  0  0  0  0
    5.2320    1.6890    0.3670 C   0  0  0  0  0  0  0  0  0  0  0  0
    6.1360    2.7220    0.7300 C   0  0  0  0  0  0  0  0  0  0  0  0
    7.3640    2.5600    0.5870 O   0  0  0  0  0  0  0  0  0  0  0  0
    3.4100    1.7870    0.5820 S   0  0  0  0  0  0  0  0  0  0  0  0
   -3.1380    1.2050    0.7440 S   0  0  0  0  0  0  0  0  0  0  0  0
   -4.8660    1.1780    0.1030 C   0  0  0  0  0  0  0  0  0  0  0  0
   -5.6210    2.2060    0.0630 C   0  0  0  0  0  0  0  0  0  0  0  0
   -7.2400    2.1570   -0.5760 Cl  0  0  0  0  0  0  0  0  0  0  0  0
  1  2  2  0
  2  3  1  0
  2 21  1  0
  3  4  1  0
  3  6  2  0
  4  5  2  0
  6  7  1  0
  6 20  1  0
  7  8  1  0
  8  9  1  0
  9 10  2  0
  9 11  1  0
 11 12  1  0
 12 13  2  0
 12 19  1  0
 13 14  1  0
 14 15  1  0
 14 16  2  0
 16 17  1  0
 16 19  1  0
 17 18  2  0
 20 21  1  0
 21 22  2  3
 22 23  1  0
M  END
