
     RDKit          3D

 20 22  0  0  0  0  0  0  0  0999 V2000
   -4.7880   -0.7190   -2.5000 C   0  0  0  0  0  0  0  0  0  0  0  0
   -3.7150   -0.5160   -1.5020 C   0  0  0  0  0  0  0  0  0  0  0  0
   -4.0770   -0.4780   -0.1640 C   0  0  0  0  0  0  0  0  0  0  0  0
   -3.1210   -0.2920    0.8040 C   0  0  0  0  0  0  0  0  0  0  0  0
   -3.4480   -0.2430    2.2520 C   0  0  0  0  0  0  0  0  0  0  0  0
   -1.8120   -0.1480    0.4000 C   0  0  0  0  0  0  0  0  0  0  0  0
   -0.8320    0.0400    1.3460 C   0  0  0  0  0  0  0  0  0  0  0  0
    0.5160    0.1950    1.0350 C   0  0  0  0  0  0  0  0  0  0  0  0
    1.4830    0.3930    2.1610 C   0  0  0  0  0  0  0  0  0  0  0  0
    0.9100    0.1640   -0.2730 C   0  0  0  0  0  0  0  0  0  0  0  0
    2.1540    0.2970   -0.7130 O   0  0  0  0  0  0  0  0  0  0  0  0
    3.4140    0.4880   -0.2830 C   0  0  2  0  0  0  0  0  0  0  0  0
    4.1550    1.6360   -0.9680 C   0  0  0  0  0  0  0  0  0  0  0  0
    5.5100    1.3150   -0.6080 O   0  0  0  0  0  0  0  0  0  0  0  0
    5.6460   -0.0600   -0.5560 C   0  0  0  0  0  0  0  0  0  0  0  0
    6.7230   -0.6560   -0.3680 O   0  0  0  0  0  0  0  0  0  0  0  0
    4.3170   -0.6790   -0.7590 C   0  0  0  0  0  0  0  0  0  0  0  0
   -0.0970   -0.0290   -1.2370 C   0  0  0  0  0  0  0  0  0  0  0  0
   -1.4240   -0.1810   -0.9160 C   0  0  0  0  0  0  0  0  0  0  0  0
   -2.4030   -0.3690   -1.8740 C   0  0  0  0  0  0  0  0  0  0  0  0
  1  2  1  0
  2  3  2  0
  2 20  1  0
  3  4  1  0
  4  5  1  0
  4  6  2  0
  6  7  1  0
  6 19  1  0
  7  8  2  0
  8  9  1  0
  8 10  1  0
 10 11  1  0
 10 18  2  0
 12 11  1  6
 12 13  1  0
 12 17  1  0
 13 14  1  0
 14 15  1  0
 15 16  2  0
 15 17  1  0
 18 19  1  0
 19 20  2  0
M  END
