
     RDKit          3D

 20 22  0  0  0  0  0  0  0  0999 V2000
   -0.0940    2.9260   -0.8030 C   0  0  0  0  0  0  0  0  0  0  0  0
   -0.1450    1.6360    0.0020 C   0  0  1  0  0  0  0  0  0  0  0  0
   -1.3800    0.9700   -0.1560 O   0  0  0  0  0  0  0  0  0  0  0  0
   -2.2830    0.7650    0.8490 C   0  0  0  0  0  0  0  0  0  0  0  0
   -2.0080    1.1950    1.9980 O   0  0  0  0  0  0  0  0  0  0  0  0
   -3.5830    0.0580    0.6600 C   0  0  1  0  0  0  0  0  0  0  0  0
   -4.4450    0.7730   -0.3600 C   0  0  0  0  0  0  0  0  0  0  0  0
   -5.5040   -0.3010   -0.6390 C   0  0  0  0  0  0  0  0  0  0  0  0
   -4.8130   -1.6140   -0.4340 C   0  0  0  0  0  0  0  0  0  0  0  0
   -3.3740   -1.2860   -0.0200 C   0  0  0  0  0  0  0  0  0  0  0  0
    1.0060    0.7650   -0.3520 C   0  0  0  0  0  0  0  0  0  0  0  0
    1.0960   -0.0590   -1.4800 C   0  0  0  0  0  0  0  0  0  0  0  0
    2.3220   -0.6770   -1.4060 C   0  0  0  0  0  0  0  0  0  0  0  0
    2.9350   -0.2270   -0.2670 C   0  0  0  0  0  0  0  0  0  0  0  0
    4.2780   -0.6070    0.2440 C   0  0  0  0  0  0  0  0  0  0  0  0
    5.1060   -1.4480   -0.3220 C   0  0  0  0  0  0  0  0  0  0  0  0
    6.3290   -1.5500    0.4970 C   0  0  0  0  0  0  0  0  0  0  0  0
    6.0790   -0.6360    1.6280 C   0  0  0  0  0  0  0  0  0  0  0  0
    4.8860   -0.1010    1.4610 C   0  0  0  0  0  0  0  0  0  0  0  0
    2.1190    0.6180    0.3140 O   0  0  0  0  0  0  0  0  0  0  0  0
  2  1  1  6
  2  3  1  0
  2 11  1  0
  3  4  1  0
  4  5  2  0
  6  4  1  6
  6  7  1  0
  6 10  1  0
  7  8  1  0
  8  9  1  0
  9 10  1  0
 11 12  2  0
 11 20  1  0
 12 13  1  0
 13 14  2  0
 14 15  1  0
 14 20  1  0
 15 16  2  0
 15 19  1  0
 16 17  1  0
 17 18  1  0
 18 19  2  0
M  END
