
     RDKit          3D

 20 22  0  0  0  0  0  0  0  0999 V2000
    0.4130   -0.3330   -2.1690 C   0  0  0  0  0  0  0  0  0  0  0  0
    1.0170   -0.4800   -0.8190 C   0  0  0  0  0  0  0  0  0  0  0  0
    2.3970   -0.3400   -0.6440 C   0  0  0  0  0  0  0  0  0  0  0  0
    2.9790   -0.4720    0.5980 C   0  0  0  0  0  0  0  0  0  0  0  0
    4.4340   -0.3230    0.7710 C   0  0  0  0  0  0  0  0  0  0  0  0
    5.3130   -0.0490   -0.2540 C   0  0  0  0  0  0  0  0  0  0  0  0
    6.5830    0.0190    0.2830 C   0  0  0  0  0  0  0  0  0  0  0  0
    6.4170   -0.2210    1.6300 C   0  0  0  0  0  0  0  0  0  0  0  0
    5.1440   -0.4110    1.8450 O   0  0  0  0  0  0  0  0  0  0  0  0
    2.1590   -0.7460    1.6720 C   0  0  0  0  0  0  0  0  0  0  0  0
    0.7900   -0.8860    1.5040 C   0  0  0  0  0  0  0  0  0  0  0  0
    0.2100   -0.7540    0.2620 C   0  0  0  0  0  0  0  0  0  0  0  0
   -1.1730   -0.8990    0.1190 O   0  0  0  0  0  0  0  0  0  0  0  0
   -2.0180    0.1940    0.2370 C   0  0  0  0  0  0  0  0  0  0  0  0
   -1.4840    1.3030    0.4740 O   0  0  0  0  0  0  0  0  0  0  0  0
   -3.4600    0.0410    0.0870 C   0  0  0  0  0  0  0  0  0  0  0  0
   -4.1030   -1.0850   -0.1630 C   0  0  0  0  0  0  0  0  0  0  0  0
   -5.5620   -0.8340   -0.2440 C   0  0  0  0  0  0  0  0  0  0  0  0
   -5.6040    0.6400   -0.5990 C   0  0  0  0  0  0  0  0  0  0  0  0
   -4.4260    1.1670    0.2000 C   0  0  0  0  0  0  0  0  0  0  0  0
  1  2  1  0
  2  3  2  0
  2 12  1  0
  3  4  1  0
  4  5  1  0
  4 10  2  0
  5  6  2  0
  5  9  1  0
  6  7  1  0
  7  8  2  0
  8  9  1  0
 10 11  1  0
 11 12  2  0
 12 13  1  0
 13 14  1  0
 14 15  2  0
 14 16  1  0
 16 17  2  0
 16 20  1  0
 17 18  1  0
 18 19  1  0
 19 20  1  0
M  END
