
     RDKit          3D

 20 22  0  0  0  0  0  0  0  0999 V2000
   -3.2500   -1.0870   -2.0460 C   0  0  0  0  0  0  0  0  0  0  0  0
   -2.8430   -0.9540   -0.5940 C   0  0  1  0  0  0  0  0  0  0  0  0
   -1.5270   -0.4220   -0.5860 O   0  0  0  0  0  0  0  0  0  0  0  0
   -0.4580   -1.0680    0.0100 C   0  0  0  0  0  0  0  0  0  0  0  0
   -0.6740   -2.1700    0.5640 O   0  0  0  0  0  0  0  0  0  0  0  0
    0.8620   -0.4410   -0.0330 C   0  0  0  0  0  0  0  0  0  0  0  0
    1.0740    0.7740   -0.6490 C   0  0  0  0  0  0  0  0  0  0  0  0
    2.3180    1.3610   -0.6880 C   0  0  0  0  0  0  0  0  0  0  0  0
    3.4270    0.7370   -0.0950 C   0  0  0  0  0  0  0  0  0  0  0  0
    3.2290   -0.4670    0.5190 C   0  0  0  0  0  0  0  0  0  0  0  0
    1.9490   -1.0510    0.5470 C   0  0  0  0  0  0  0  0  0  0  0  0
    4.3610   -1.1710    1.1640 C   0  0  0  0  0  0  0  0  0  0  0  0
    5.6510   -0.5840    0.6500 C   0  0  0  0  0  0  0  0  0  0  0  0
    5.6410    0.8090    0.7110 O   0  0  0  0  0  0  0  0  0  0  0  0
    4.7530    1.3830   -0.1490 C   0  0  0  0  0  0  0  0  0  0  0  0
   -3.7530   -0.0250    0.1180 C   0  0  0  0  0  0  0  0  0  0  0  0
   -3.4210    1.0870    0.7200 C   0  0  0  0  0  0  0  0  0  0  0  0
   -4.6290    1.7270    1.3120 C   0  0  0  0  0  0  0  0  0  0  0  0
   -5.7200    0.7950    0.9490 C   0  0  0  0  0  0  0  0  0  0  0  0
   -5.1960   -0.1960    0.2680 C   0  0  0  0  0  0  0  0  0  0  0  0
  2  1  1  6
  2  3  1  0
  2 16  1  0
  3  4  1  0
  4  5  2  0
  4  6  1  0
  6  7  2  0
  6 11  1  0
  7  8  1  0
  8  9  2  0
  9 10  1  0
  9 15  1  0
 10 11  2  0
 10 12  1  0
 12 13  1  0
 13 14  1  0
 14 15  1  0
 16 17  2  0
 16 20  1  0
 17 18  1  0
 18 19  1  0
 19 20  2  0
M  END
