
     RDKit          3D

 20 20  0  0  0  0  0  0  0  0999 V2000
    5.1990    1.1590   -0.1690 N   0  0  0  0  0  0  0  0  0  0  0  0
    4.9520   -0.2690   -0.0680 C   0  0  1  0  0  0  0  0  0  0  0  0
    6.2840   -1.0890   -0.9100 Cl  0  0  0  0  0  0  0  0  0  0  0  0
    4.9910   -0.7570    1.6530 Cl  0  0  0  0  0  0  0  0  0  0  0  0
    3.6720   -0.6310   -0.6370 N   0  0  0  0  0  0  0  0  0  0  0  0
    2.4690   -0.0900   -0.1320 C   0  0  0  0  0  0  0  0  0  0  0  0
    2.5230    0.9580    1.1100 S   0  0  0  0  0  0  0  0  0  0  0  0
    0.9150   -0.5620   -0.8610 S   0  0  0  0  0  0  0  0  0  0  0  0
   -0.4070    0.2900   -0.0020 C   0  0  0  0  0  0  0  0  0  0  0  0
   -1.7830   -0.0770   -0.5880 C   0  0  1  0  0  0  0  0  0  0  0  0
   -2.8540    0.6480    0.1490 C   0  0  0  0  0  0  0  0  0  0  0  0
   -3.1890    2.3380   -0.1720 Cl  0  0  0  0  0  0  0  0  0  0  0  0
   -3.5410    0.0490    1.0760 C   0  0  0  0  0  0  0  0  0  0  0  0
   -3.2930   -1.2710    1.4010 O   0  0  0  0  0  0  0  0  0  0  0  0
   -4.6140    0.7500    1.8220 C   0  0  0  0  0  0  0  0  0  0  0  0
   -4.8310    1.9470    1.5190 O   0  0  0  0  0  0  0  0  0  0  0  0
   -1.7700    0.1580   -2.0230 C   0  0  0  0  0  0  0  0  0  0  0  0
   -1.9540   -1.0230   -2.3060 N   0  0  0  0  0  0  0  0  0  0  0  0
   -2.0010   -1.4510   -0.9870 C   0  0  1  0  0  0  0  0  0  0  0  0
   -1.0160   -2.3710   -0.6120 F   0  0  0  0  0  0  0  0  0  0  0  0
  2  1  1  1
  2  3  1  0
  2  4  1  0
  2  5  1  0
  5  6  1  0
  6  7  2  0
  6  8  1  0
  8  9  1  0
 10  9  1  1
 10 11  1  0
 10 17  1  0
 10 19  1  0
 11 12  1  0
 11 13  2  3
 13 14  1  0
 13 15  1  0
 15 16  2  0
 17 18  2  0
 18 19  1  0
 19 20  1  6
M  END
