
     RDKit          3D

 27 31  0  0  0  0  0  0  0  0999 V2000
   -2.0210   -2.5740    2.8280 C   0  0  0  0  0  0  0  0  0  0  0  0
   -2.5080   -1.5630    1.8440 C   0  0  0  0  0  0  0  0  0  0  0  0
   -3.8520   -1.3040    1.6910 C   0  0  0  0  0  0  0  0  0  0  0  0
   -4.3290   -0.4130    0.8270 N   0  0  0  0  0  0  0  0  0  0  0  0
   -3.4750    0.2970    0.0370 C   0  0  0  0  0  0  0  0  0  0  0  0
   -4.0090    1.2550   -0.8890 N   0  0  0  0  0  0  0  0  0  0  0  0
   -5.4740    1.4040   -0.9210 C   0  0  0  0  0  0  0  0  0  0  0  0
   -6.0710    0.1120   -1.2800 C   0  0  0  0  0  0  0  0  0  0  0  0
   -7.2610    0.0670   -1.7300 N   0  0  0  0  0  0  0  0  0  0  0  0
   -2.1280    0.0610    0.1670 C   0  0  0  0  0  0  0  0  0  0  0  0
   -1.2560    0.7770   -0.6290 C   0  0  0  0  0  0  0  0  0  0  0  0
    0.1000    0.5460   -0.5070 C   0  0  0  0  0  0  0  0  0  0  0  0
    0.9630    1.2660   -1.3060 C   0  0  0  0  0  0  0  0  0  0  0  0
    2.3480    1.0830   -1.2340 C   0  0  0  0  0  0  0  0  0  0  0  0
    2.7870    0.1510   -0.3260 C   0  0  0  0  0  0  0  0  0  0  0  0
    1.9320   -0.5730    0.4780 C   0  0  0  0  0  0  0  0  0  0  0  0
    0.5570   -0.3840    0.3980 C   0  0  0  0  0  0  0  0  0  0  0  0
   -0.2720   -1.0930    1.1850 N   0  0  0  0  0  0  0  0  0  0  0  0
   -1.6000   -0.8710    1.0690 C   0  0  0  0  0  0  0  0  0  0  0  0
    4.2530   -0.0550   -0.2370 C   0  0  0  0  0  0  0  0  0  0  0  0
    4.6760   -0.9740    0.6600 N   0  0  0  0  0  0  0  0  0  0  0  0
    5.9900   -1.1970    0.7790 C   0  0  0  0  0  0  0  0  0  0  0  0
    6.9130   -0.5170    0.0140 C   0  0  0  0  0  0  0  0  0  0  0  0
    6.4850    0.4170   -0.8980 C   0  0  0  0  0  0  0  0  0  0  0  0
    5.1230    0.6550   -1.0270 C   0  0  0  0  0  0  0  0  0  0  0  0
    4.6120    1.6560   -2.0000 C   0  0  0  0  0  0  0  0  0  0  0  0
    3.2170    1.7840   -2.0160 O   0  0  0  0  0  0  0  0  0  0  0  0
  1  2  1  0
  2  3  2  0
  2 19  1  0
  3  4  1  0
  4  5  2  0
  5  6  1  0
  5 10  1  0
  6  7  1  0
  7  8  1  0
  8  9  2  0
 10 11  2  0
 10 19  1  0
 11 12  1  0
 12 13  2  0
 12 17  1  0
 13 14  1  0
 14 15  2  0
 14 27  1  0
 15 16  1  0
 15 20  1  0
 16 17  2  0
 17 18  1  0
 18 19  2  0
 20 21  2  0
 20 25  1  0
 21 22  1  0
 22 23  2  0
 23 24  1  0
 24 25  2  0
 25 26  1  0
 26 27  1  0
M  END
