
     RDKit          3D

 19 19  0  0  0  0  0  0  0  0999 V2000
   -3.8880    0.9580    0.5080 C   0  0  0  0  0  0  0  0  0  0  0  0
   -2.6670    0.1430    0.3260 C   0  0  0  0  0  0  0  0  0  0  0  0
   -2.1300   -0.4700    1.3000 C   0  0  0  0  0  0  0  0  0  0  0  0
   -2.7670   -0.4590    2.9470 Cl  0  0  0  0  0  0  0  0  0  0  0  0
   -0.8750   -1.2360    1.0730 C   0  0  1  0  0  0  0  0  0  0  0  0
    0.0440   -1.4970    2.5680 Cl  0  0  0  0  0  0  0  0  0  0  0  0
   -1.2480   -2.8330    0.3250 S   0  0  0  0  0  0  0  0  0  0  0  0
   -2.9000   -3.0110    0.0100 F   0  0  0  0  0  0  0  0  0  0  0  0
   -0.0130   -0.4640    0.0480 C   0  0  1  0  0  0  0  0  0  0  0  0
    0.0430    1.0360    0.4290 C   0  0  0  0  0  0  0  0  0  0  0  0
    1.2650   -0.9940    0.1660 N   0  0  0  0  0  0  0  0  0  0  0  0
    2.2890   -0.4720   -0.6540 C   0  0  0  0  0  0  0  0  0  0  0  0
    3.6460   -0.0180    0.4440 S   0  0  2  0  0  0  0  0  0  0  0  0
    5.0540    0.5480   -0.4190 C   0  0  0  0  0  0  0  0  0  0  0  0
    3.9310   -1.0850    1.3790 O   0  0  0  0  0  0  0  0  0  0  0  0
    3.1490    1.1800    1.2850 O   0  0  0  0  0  0  0  0  0  0  0  0
   -0.7780   -0.5490   -1.2300 C   0  0  0  0  0  0  0  0  0  0  0  0
   -2.0560    0.1510   -0.9880 N   0  0  0  0  0  0  0  0  0  0  0  0
   -2.6710    0.8660   -2.0100 N   0  0  0  0  0  0  0  0  0  0  0  0
  1  2  1  0
  2  3  2  0
  2 18  1  0
  3  4  1  0
  3  5  1  0
  5  6  1  1
  5  7  1  0
  5  9  1  0
  7  8  1  0
  9 10  1  1
  9 11  1  0
  9 17  1  0
 11 12  1  0
 12 13  1  0
 13 14  1  6
 13 15  2  0
 13 16  2  0
 17 18  1  0
 18 19  1  0
M  END
