
     RDKit          3D

 19 20  0  0  0  0  0  0  0  0999 V2000
    4.9540   -0.2170    1.4710 O   0  0  0  0  0  0  0  0  0  0  0  0
    3.8650    0.1380    0.8970 C   0  0  0  0  0  0  0  0  0  0  0  0
    2.6200   -0.0400    1.6000 C   0  0  0  0  0  0  0  0  0  0  0  0
    1.4490    0.2960    1.0950 C   0  0  0  0  0  0  0  0  0  0  0  0
    1.2950    0.8900   -0.2470 C   0  0  0  0  0  0  0  0  0  0  0  0
    0.5110    0.1240   -1.1430 N   0  0  0  0  0  0  0  0  0  0  0  0
    0.8510    0.2490   -2.4380 F   0  0  0  0  0  0  0  0  0  0  0  0
   -0.8840    0.0190   -0.9180 C   0  0  2  0  0  0  0  0  0  0  0  0
   -1.6450    1.6800   -0.7050 S   0  0  0  0  0  0  0  0  0  0  0  0
   -2.5170    1.3050    0.7900 C   0  0  0  0  0  0  0  0  0  0  0  0
   -3.3550    2.2210    1.4240 O   0  0  0  0  0  0  0  0  0  0  0  0
   -2.2370    0.0890    1.1490 C   0  0  0  0  0  0  0  0  0  0  0  0
   -1.3280   -0.6470    0.3010 C   0  0  0  0  0  0  0  0  0  0  0  0
   -0.8550   -1.8780    0.4750 N   0  0  0  0  0  0  0  0  0  0  0  0
    0.0010   -2.4220   -0.4880 N   0  0  0  0  0  0  0  0  0  0  0  0
   -0.6710   -2.3100   -2.1500 S   0  0  0  0  0  0  0  0  0  0  0  0
   -1.5760   -0.7050   -2.0850 C   0  0  2  0  0  0  0  0  0  0  0  0
   -1.3550    0.1350   -3.6100 Cl  0  0  0  0  0  0  0  0  0  0  0  0
   -3.2610   -0.9740   -1.6740 Cl  0  0  0  0  0  0  0  0  0  0  0  0
  1  2  2  0
  2  3  1  0
  3  4  2  3
  4  5  1  0
  5  6  1  0
  6  7  1  0
  8  6  1  6
  8  9  1  0
  8 13  1  0
  8 17  1  0
  9 10  1  0
 10 11  1  0
 10 12  2  0
 12 13  1  0
 13 14  2  0
 14 15  1  0
 15 16  1  0
 16 17  1  0
 17 18  1  6
 17 19  1  0
M  END
