
     RDKit          3D

 19 20  0  0  0  0  0  0  0  0999 V2000
   -3.8110    2.6830    1.0530 O   0  0  0  0  0  0  0  0  0  0  0  0
   -3.8810    1.5480    0.2260 C   0  0  0  0  0  0  0  0  0  0  0  0
   -2.6280    0.7920    0.3770 C   0  0  2  0  0  0  0  0  0  0  0  0
   -1.4360    1.5700   -0.0030 N   0  0  0  0  0  0  0  0  0  0  0  0
   -0.4370    0.5690   -0.1950 C   0  0  0  0  0  0  0  0  0  0  0  0
    1.0350    0.8480   -0.0940 C   0  0  0  0  0  0  0  0  0  0  0  0
    1.8160   -0.4190   -0.3500 C   0  0  0  0  0  0  0  0  0  0  0  0
    3.2850   -0.0740   -0.2340 C   0  0  0  0  0  0  0  0  0  0  0  0
    4.0960   -1.2720   -0.4740 N   0  0  0  0  0  0  0  0  0  0  0  0
    5.5140   -0.9070   -0.3560 C   0  0  2  0  0  0  0  0  0  0  0  0
    5.7400   -0.4150    0.9280 F   0  0  0  0  0  0  0  0  0  0  0  0
    5.9520    0.2600   -1.5970 Cl  0  0  0  0  0  0  0  0  0  0  0  0
    6.5440   -2.3420   -0.5340 Cl  0  0  0  0  0  0  0  0  0  0  0  0
   -1.0080   -0.5810   -0.4630 N   0  0  0  0  0  0  0  0  0  0  0  0
   -2.4520   -0.4090   -0.4650 C   0  0  1  0  0  0  0  0  0  0  0  0
   -3.2070   -1.5770    0.0320 C   0  0  1  0  0  0  0  0  0  0  0  0
   -2.9020   -2.6780   -0.7230 O   0  0  0  0  0  0  0  0  0  0  0  0
   -2.6950   -1.8130    1.7850 S   0  0  0  0  0  0  0  0  0  0  0  0
   -2.3140    0.2900    2.1140 S   0  0  0  0  0  0  0  0  0  0  0  0
  1  2  1  0
  3  2  1  1
  3  4  1  0
  3 15  1  0
  3 19  1  0
  4  5  1  0
  5  6  1  0
  5 14  2  0
  6  7  1  0
  7  8  1  0
  8  9  1  0
  9 10  1  0
 10 11  1  1
 10 12  1  0
 10 13  1  0
 15 14  1  1
 15 16  1  0
 16 17  1  6
 16 18  1  0
 18 19  1  0
M  END
