
     RDKit          3D

 36 39  0  0  0  0  0  0  0  0999 V2000
    7.2830    3.7990   -0.5330 C   0  0  0  0  0  0  0  0  0  0  0  0
    6.6740    2.4350   -0.4070 C   0  0  0  0  0  0  0  0  0  0  0  0
    5.4620    2.0860    0.0950 C   0  0  0  0  0  0  0  0  0  0  0  0
    5.3320    0.7090    0.0070 C   0  0  0  0  0  0  0  0  0  0  0  0
    4.1730   -0.0390    0.4250 C   0  0  0  0  0  0  0  0  0  0  0  0
    3.2680    0.5790    1.1080 O   0  0  0  0  0  0  0  0  0  0  0  0
    3.8730   -1.3930    0.1860 N   0  0  0  0  0  0  0  0  0  0  0  0
    2.6350   -2.0090    0.6910 C   0  0  0  0  0  0  0  0  0  0  0  0
    1.4540   -1.6570   -0.1030 C   0  0  0  0  0  0  0  0  0  0  0  0
    1.5080   -1.5460   -1.4750 C   0  0  0  0  0  0  0  0  0  0  0  0
    0.4030   -1.2210   -2.2370 C   0  0  0  0  0  0  0  0  0  0  0  0
   -0.8180   -0.9920   -1.6190 C   0  0  0  0  0  0  0  0  0  0  0  0
   -0.9060   -1.0930   -0.2630 C   0  0  0  0  0  0  0  0  0  0  0  0
   -2.1010   -0.8950    0.4590 N   0  0  0  0  0  0  0  0  0  0  0  0
   -2.5650    0.3950    0.6920 C   0  0  0  0  0  0  0  0  0  0  0  0
   -3.6450    0.4500    1.4120 O   0  0  0  0  0  0  0  0  0  0  0  0
   -2.0740    1.6960    0.2810 C   0  0  1  0  0  0  0  0  0  0  0  0
   -2.3890    2.1590   -1.1010 C   0  0  0  0  0  0  0  0  0  0  0  0
   -3.8690    2.3580   -1.3290 C   0  0  0  0  0  0  0  0  0  0  0  0
   -4.5330    2.8570   -0.1570 N   0  0  0  0  0  0  0  0  0  0  0  0
   -3.7860    3.3750    0.9170 C   0  0  0  0  0  0  0  0  0  0  0  0
   -4.1790    4.3840    1.5440 O   0  0  0  0  0  0  0  0  0  0  0  0
   -2.5270    2.7350    1.3160 C   0  0  0  0  0  0  0  0  0  0  0  0
   -2.7710   -2.0910    0.9510 C   0  0  1  0  0  0  0  0  0  0  0  0
   -2.8240   -2.1370    2.4420 C   0  0  0  0  0  0  0  0  0  0  0  0
   -4.2470   -2.0350    2.8500 C   0  0  0  0  0  0  0  0  0  0  0  0
   -5.0850   -2.1080    1.6120 C   0  0  0  0  0  0  0  0  0  0  0  0
   -4.1370   -2.3470    0.5080 C   0  0  1  0  0  0  0  0  0  0  0  0
   -4.5540   -1.7070   -0.7700 C   0  0  0  0  0  0  0  0  0  0  0  0
   -5.4800   -0.8390   -0.7050 O   0  0  0  0  0  0  0  0  0  0  0  0
   -4.0220   -1.9800   -2.0070 O   0  0  0  0  0  0  0  0  0  0  0  0
   -4.5740   -1.1740   -3.4670 S   0  0  0  0  0  0  0  0  0  0  0  0
    0.2240   -1.4230    0.4790 C   0  0  0  0  0  0  0  0  0  0  0  0
    6.4840    0.2380   -0.5540 C   0  0  0  0  0  0  0  0  0  0  0  0
    6.8990   -1.1590   -0.8700 C   0  0  0  0  0  0  0  0  0  0  0  0
    7.2870    1.3130   -0.7970 N   0  0  0  0  0  0  0  0  0  0  0  0
  1  2  1  0
  2  3  2  0
  2 36  1  0
  3  4  1  0
  4  5  1  0
  4 34  2  0
  5  6  2  0
  5  7  1  0
  7  8  1  0
  8  9  1  0
  9 10  2  0
  9 33  1  0
 10 11  1  0
 11 12  2  0
 12 13  1  0
 13 14  1  0
 13 33  2  0
 14 15  1  0
 24 14  1  1
 15 16  2  0
 17 15  1  1
 17 18  1  0
 17 23  1  0
 18 19  1  0
 19 20  1  0
 20 21  1  0
 21 22  2  0
 21 23  1  0
 24 25  1  0
 24 28  1  0
 25 26  1  0
 26 27  1  0
 27 28  1  0
 28 29  1  6
 29 30  2  0
 29 31  1  0
 31 32  1  0
 34 35  1  0
 34 36  1  0
M  END
