
     RDKit          3D

 36 39  0  0  0  0  0  0  0  0999 V2000
    4.5780    1.9250   -2.9810 C   0  0  0  0  0  0  0  0  0  0  0  0
    4.0760    1.4760   -1.6610 C   0  0  0  0  0  0  0  0  0  0  0  0
    2.9830    0.6560   -1.5410 C   0  0  0  0  0  0  0  0  0  0  0  0
    2.4960    0.2230   -0.3200 C   0  0  0  0  0  0  0  0  0  0  0  0
    1.3330   -0.6340   -0.3340 C   0  0  0  0  0  0  0  0  0  0  0  0
    0.6430   -0.8180   -1.3860 O   0  0  0  0  0  0  0  0  0  0  0  0
    0.9180   -1.3080    0.8390 N   0  0  0  0  0  0  0  0  0  0  0  0
   -0.2200   -2.1590    0.8670 C   0  0  0  0  0  0  0  0  0  0  0  0
   -0.1410   -3.4210    1.1760 C   0  0  0  0  0  0  0  0  0  0  0  0
   -1.2970   -4.3130    1.1830 C   0  0  0  0  0  0  0  0  0  0  0  0
   -2.4620   -3.8620    0.8410 C   0  0  0  0  0  0  0  0  0  0  0  0
   -2.6720   -2.4100    0.3980 C   0  0  2  0  0  0  0  0  0  0  0  0
   -2.7370   -2.4920   -1.0770 N   0  0  0  0  0  0  0  0  0  0  0  0
   -4.3010   -2.5490   -1.7160 S   0  0  1  0  0  0  0  0  0  0  0  0
   -5.3780   -2.4690   -0.6330 O   0  0  0  0  0  0  0  0  0  0  0  0
   -4.6090   -1.4840   -2.7230 O   0  0  0  0  0  0  0  0  0  0  0  0
   -4.5050   -4.1300   -2.5520 C   0  0  0  0  0  0  0  0  0  0  0  0
   -4.3250   -5.2260   -1.6520 N   0  0  0  0  0  0  0  0  0  0  0  0
   -1.5990   -1.5210    0.7650 C   0  0  0  0  0  0  0  0  0  0  0  0
   -1.6340   -0.2370    1.0620 C   0  0  0  0  0  0  0  0  0  0  0  0
   -2.7650    0.6480    1.0640 C   0  0  0  0  0  0  0  0  0  0  0  0
   -2.6420    1.9410    1.4060 C   0  0  0  0  0  0  0  0  0  0  0  0
   -3.9270    2.6510    1.3380 C   0  0  0  0  0  0  0  0  0  0  0  0
   -4.8740    1.7330    0.6730 C   0  0  1  0  0  0  0  0  0  0  0  0
   -5.1260    2.1770   -0.7530 C   0  0  0  0  0  0  0  0  0  0  0  0
   -4.1790    0.4060    0.7180 C   0  0  0  0  0  0  0  0  0  0  0  0
    3.1650    0.6560    0.7950 C   0  0  0  0  0  0  0  0  0  0  0  0
    4.2700    1.4820    0.7460 C   0  0  0  0  0  0  0  0  0  0  0  0
    4.7140    1.8830   -0.4880 C   0  0  0  0  0  0  0  0  0  0  0  0
    5.8820    2.7540   -0.5450 C   0  0  0  0  0  0  0  0  0  0  0  0
    6.3210    3.1440   -1.6430 O   0  0  0  0  0  0  0  0  0  0  0  0
    6.5570    3.1870    0.6300 N   0  0  0  0  0  0  0  0  0  0  0  0
    7.7170    4.0540    0.5100 C   0  0  0  0  0  0  0  0  0  0  0  0
    6.0710    2.7530    1.8800 C   0  0  0  0  0  0  0  0  0  0  0  0
    6.6510    3.1190    2.9590 O   0  0  0  0  0  0  0  0  0  0  0  0
    4.9070    1.8840    2.0050 C   0  0  0  0  0  0  0  0  0  0  0  0
  1  2  1  0
  2  3  2  0
  2 29  1  0
  3  4  1  0
  4  5  1  0
  4 27  2  0
  5  6  2  0
  5  7  1  0
  7  8  1  0
  8  9  2  0
  8 19  1  0
  9 10  1  0
 10 11  2  0
 11 12  1  0
 12 13  1  6
 12 19  1  0
 13 14  1  0
 14 15  2  0
 14 16  2  0
 14 17  1  6
 17 18  1  0
 19 20  2  3
 20 21  1  0
 21 22  2  0
 21 26  1  0
 22 23  1  0
 23 24  1  0
 24 25  1  6
 24 26  1  0
 27 28  1  0
 28 29  2  0
 28 36  1  0
 29 30  1  0
 30 31  2  0
 30 32  1  0
 32 33  1  0
 32 34  1  0
 34 35  2  0
 34 36  1  0
M  END
