
     RDKit          3D

 36 38  0  0  0  0  0  0  0  0999 V2000
    6.9910    2.3620   -0.8270 C   0  0  0  0  0  0  0  0  0  0  0  0
    6.2040    3.1130    0.1850 C   0  0  0  0  0  0  0  0  0  0  0  0
    5.0420    2.4290    0.8040 C   0  0  0  0  0  0  0  0  0  0  0  0
    5.2920    1.2000    1.5870 C   0  0  2  0  0  0  0  0  0  0  0  0
    5.9060    0.1150    0.7570 C   0  0  0  0  0  0  0  0  0  0  0  0
    4.0440    0.6410    2.1380 N   0  0  0  0  0  0  0  0  0  0  0  0
    3.8050    0.5390    3.5330 C   0  0  0  0  0  0  0  0  0  0  0  0
    4.7690    0.9670    4.2600 O   0  0  0  0  0  0  0  0  0  0  0  0
    2.6060    0.0060    4.1720 C   0  0  0  0  0  0  0  0  0  0  0  0
    1.5570   -0.4260    3.3160 N   0  0  0  0  0  0  0  0  0  0  0  0
    0.8400    0.3710    2.4200 C   0  0  0  0  0  0  0  0  0  0  0  0
    1.1550    1.5870    2.3710 O   0  0  0  0  0  0  0  0  0  0  0  0
   -0.2610   -0.1580    1.5420 C   0  0  0  0  0  0  0  0  0  0  0  0
   -0.8830    0.6730    0.7180 C   0  0  0  0  0  0  0  0  0  0  0  0
   -1.9190    0.5290   -0.2070 N   0  0  0  0  0  0  0  0  0  0  0  0
   -3.3190    0.6380   -0.1960 C   0  0  0  0  0  0  0  0  0  0  0  0
   -3.9360    1.3310   -1.1700 C   0  0  0  0  0  0  0  0  0  0  0  0
   -3.2860    2.0050   -2.2660 C   0  0  0  0  0  0  0  0  0  0  0  0
   -2.0240    2.0140   -2.3920 O   0  0  0  0  0  0  0  0  0  0  0  0
   -4.0640    2.7160   -3.2910 C   0  0  0  0  0  0  0  0  0  0  0  0
   -5.3700    2.8360   -3.3630 C   0  0  0  0  0  0  0  0  0  0  0  0
   -5.7450    3.6370   -4.5600 C   0  0  0  0  0  0  0  0  0  0  0  0
   -4.5270    3.9810   -5.1830 O   0  0  0  0  0  0  0  0  0  0  0  0
   -3.4980    3.4230   -4.4180 C   0  0  0  0  0  0  0  0  0  0  0  0
   -2.2870    3.5770   -4.7560 O   0  0  0  0  0  0  0  0  0  0  0  0
   -4.3230    0.0840    0.7580 C   0  0  0  0  0  0  0  0  0  0  0  0
   -3.5850   -0.8410    2.0750 S   0  0  0  0  0  0  0  0  0  0  0  0
   -3.5880   -2.6480    1.7170 C   0  0  0  0  0  0  0  0  0  0  0  0
   -3.5260   -2.8060    0.2580 C   0  0  0  0  0  0  0  0  0  0  0  0
   -2.4670   -3.6260   -0.3170 C   0  0  0  0  0  0  0  0  0  0  0  0
   -1.1800   -3.3270   -0.0870 C   0  0  0  0  0  0  0  0  0  0  0  0
   -0.3610   -4.3760   -0.8350 C   0  0  0  0  0  0  0  0  0  0  0  0
   -1.3040   -4.7010   -1.9650 C   0  0  0  0  0  0  0  0  0  0  0  0
   -2.5900   -4.8310   -1.1760 C   0  0  0  0  0  0  0  0  0  0  0  0
   -0.8480   -2.2930    0.6740 N   0  0  0  0  0  0  0  0  0  0  0  0
   -0.5640   -1.6190    1.6520 C   0  0  0  0  0  0  0  0  0  0  0  0
  1  2  1  0
  2  3  1  0
  3  4  1  0
  4  5  1  6
  4  6  1  0
  6  7  1  0
  7  8  2  0
  7  9  1  0
  9 10  1  0
 10 11  1  0
 11 12  2  0
 11 13  1  0
 13 14  2  0
 13 36  1  0
 14 15  1  0
 15 16  1  0
 16 17  2  3
 16 26  1  0
 17 18  1  0
 18 19  2  0
 18 20  1  0
 20 21  2  0
 20 24  1  0
 21 22  1  0
 22 23  1  0
 23 24  1  0
 24 25  2  0
 26 27  1  0
 27 28  1  0
 28 29  1  0
 29 30  1  0
 30 31  2  0
 30 34  1  0
 31 32  1  0
 31 35  1  0
 32 33  1  0
 33 34  1  0
 35 36  2  0
M  END
