
     RDKit          3D

 36 39  0  0  0  0  0  0  0  0999 V2000
    1.5270    8.5350   -0.4100 C   0  0  0  0  0  0  0  0  0  0  0  0
    1.2490    7.1030   -0.0430 C   0  0  0  0  0  0  0  0  0  0  0  0
    2.1320    6.0750    0.2110 C   0  0  0  0  0  0  0  0  0  0  0  0
    1.6000    4.8820    0.5200 C   0  0  0  0  0  0  0  0  0  0  0  0
    0.2820    4.7090    0.5750 C   0  0  0  0  0  0  0  0  0  0  0  0
   -0.5590    3.5590    0.8590 C   0  0  0  0  0  0  0  0  0  0  0  0
   -1.5750    3.8170    1.5890 O   0  0  0  0  0  0  0  0  0  0  0  0
   -0.3550    2.2070    0.4060 C   0  0  0  0  0  0  0  0  0  0  0  0
    0.6670    1.7920   -0.4260 C   0  0  0  0  0  0  0  0  0  0  0  0
    0.8190    0.4840   -0.8500 C   0  0  0  0  0  0  0  0  0  0  0  0
    1.8880    0.0530   -1.7210 C   0  0  0  0  0  0  0  0  0  0  0  0
    1.6550    0.1060   -2.9740 O   0  0  0  0  0  0  0  0  0  0  0  0
    3.1450   -0.4100   -1.2490 N   0  0  0  0  0  0  0  0  0  0  0  0
    3.3560   -0.4500    0.1660 C   0  0  0  0  0  0  0  0  0  0  0  0
    4.7540   -0.6600    0.6160 C   0  0  0  0  0  0  0  0  0  0  0  0
    5.7520   -0.9800   -0.4400 C   0  0  1  0  0  0  0  0  0  0  0  0
    6.8780   -1.7710    0.2020 C   0  0  0  0  0  0  0  0  0  0  0  0
    6.3850   -2.9580    0.7630 O   0  0  0  0  0  0  0  0  0  0  0  0
    5.0730   -1.7810   -1.5290 C   0  0  0  0  0  0  0  0  0  0  0  0
    4.1280   -0.8130   -2.2290 C   0  0  0  0  0  0  0  0  0  0  0  0
   -0.1020   -0.4380   -0.4130 C   0  0  0  0  0  0  0  0  0  0  0  0
    0.0080   -1.6310   -0.7800 O   0  0  0  0  0  0  0  0  0  0  0  0
   -1.1140   -0.0830    0.3970 N   0  0  0  0  0  0  0  0  0  0  0  0
   -2.0880   -1.0320    0.8650 C   0  0  0  0  0  0  0  0  0  0  0  0
   -3.2530   -1.1410   -0.0450 C   0  0  0  0  0  0  0  0  0  0  0  0
   -3.2660   -0.4340   -1.0810 O   0  0  0  0  0  0  0  0  0  0  0  0
   -4.3280   -2.0180    0.2390 N   0  0  0  0  0  0  0  0  0  0  0  0
   -4.4400   -2.8850    1.3930 C   0  0  0  0  0  0  0  0  0  0  0  0
   -5.4790   -3.9240    1.0690 C   0  0  2  0  0  0  0  0  0  0  0  0
   -5.0560   -5.3240    1.3760 C   0  0  0  0  0  0  0  0  0  0  0  0
   -5.7530   -3.7060   -0.4190 C   0  0  0  0  0  0  0  0  0  0  0  0
   -5.5250   -2.2330   -0.5470 C   0  0  2  0  0  0  0  0  0  0  0  0
   -5.3450   -1.7820   -1.9750 C   0  0  0  0  0  0  0  0  0  0  0  0
   -1.2540    1.2100    0.8090 C   0  0  0  0  0  0  0  0  0  0  0  0
   -2.3160    1.5830    1.6590 N   0  0  0  0  0  0  0  0  0  0  0  0
   -0.3400    6.3400    0.1650 S   0  0  0  0  0  0  0  0  0  0  0  0
  1  2  1  0
  2  3  2  0
  2 36  1  0
  3  4  1  0
  4  5  2  0
  5  6  1  0
  5 36  1  0
  6  7  2  0
  6  8  1  0
  8  9  1  0
  8 34  2  0
  9 10  2  0
 10 11  1  0
 10 21  1  0
 11 12  2  0
 11 13  1  0
 13 14  1  0
 13 20  1  0
 14 15  1  0
 15 16  1  0
 16 17  1  1
 16 19  1  0
 17 18  1  0
 19 20  1  0
 21 22  2  0
 21 23  1  0
 23 24  1  0
 23 34  1  0
 24 25  1  0
 25 26  2  0
 25 27  1  0
 27 28  1  0
 27 32  1  0
 28 29  1  0
 29 30  1  6
 29 31  1  0
 31 32  1  0
 32 33  1  6
 34 35  1  0
M  END
