
     RDKit          3D

 34 38  0  0  0  0  0  0  0  0999 V2000
   -9.0180   -0.0870    2.3780 C   0  0  0  0  0  0  0  0  0  0  0  0
   -7.7000   -0.5010    1.8160 C   0  0  0  0  0  0  0  0  0  0  0  0
   -7.1130   -1.5660    2.1880 N   0  0  0  0  0  0  0  0  0  0  0  0
   -5.8950   -1.9800    1.6920 N   0  0  0  0  0  0  0  0  0  0  0  0
   -5.1970   -1.1830    0.6740 C   0  0  0  0  0  0  0  0  0  0  0  0
   -3.9340   -1.6620    0.2350 C   0  0  0  0  0  0  0  0  0  0  0  0
   -3.5570   -2.7930    0.9000 O   0  0  0  0  0  0  0  0  0  0  0  0
   -2.9820   -1.2890   -0.6930 N   0  0  0  0  0  0  0  0  0  0  0  0
   -2.9670   -0.2640   -1.6340 C   0  0  0  0  0  0  0  0  0  0  0  0
   -1.7240   -0.4000   -2.5790 C   0  0  0  0  0  0  0  0  0  0  0  0
   -0.5590   -0.2950   -1.6560 C   0  0  0  0  0  0  0  0  0  0  0  0
    0.4400    0.6090   -1.7750 C   0  0  0  0  0  0  0  0  0  0  0  0
    1.4950    0.6190   -0.8590 C   0  0  0  0  0  0  0  0  0  0  0  0
    2.5510    1.6260   -1.0370 C   0  0  0  0  0  0  0  0  0  0  0  0
    3.6980    1.4690   -0.2060 N   0  0  0  0  0  0  0  0  0  0  0  0
    4.5700    0.4660   -0.8110 C   0  0  1  0  0  0  0  0  0  0  0  0
    5.0150    0.9120   -2.1800 C   0  0  0  0  0  0  0  0  0  0  0  0
    5.7200    0.1260    0.0630 C   0  0  0  0  0  0  0  0  0  0  0  0
    6.1510   -1.1640    0.2880 C   0  0  0  0  0  0  0  0  0  0  0  0
    7.2260   -1.4670    1.1060 C   0  0  0  0  0  0  0  0  0  0  0  0
    7.9060   -0.4450    1.7300 C   0  0  0  0  0  0  0  0  0  0  0  0
    9.0480   -0.8050    2.5950 C   0  0  0  0  0  0  0  0  0  0  0  0
    7.5010    0.8700    1.5270 C   0  0  0  0  0  0  0  0  0  0  0  0
    6.4270    1.1420    0.7070 C   0  0  0  0  0  0  0  0  0  0  0  0
    1.4800   -0.3100    0.1520 C   0  0  0  0  0  0  0  0  0  0  0  0
    0.4540   -1.2560    0.2950 C   0  0  0  0  0  0  0  0  0  0  0  0
   -0.5600   -1.2520   -0.6000 C   0  0  0  0  0  0  0  0  0  0  0  0
   -1.7370   -2.1650   -0.6270 C   0  0  0  0  0  0  0  0  0  0  0  0
   -5.7990   -0.0900    0.2940 C   0  0  0  0  0  0  0  0  0  0  0  0
   -5.2410    0.7730   -0.6750 N   0  0  0  0  0  0  0  0  0  0  0  0
   -5.7880    1.8240   -1.0610 C   0  0  0  0  0  0  0  0  0  0  0  0
   -7.0850    2.2490   -0.5210 C   0  0  0  0  0  0  0  0  0  0  0  0
   -7.6640    1.5060    0.3760 C   0  0  0  0  0  0  0  0  0  0  0  0
   -7.0760    0.3060    0.8420 N   0  0  0  0  0  0  0  0  0  0  0  0
  1  2  1  0
  2  3  2  0
  2 34  1  0
  3  4  1  0
  4  5  1  0
  5  6  1  0
  5 29  2  0
  6  7  2  0
  6  8  1  0
  8  9  1  0
  8 28  1  0
  9 10  1  0
 10 11  1  0
 11 12  2  0
 11 27  1  0
 12 13  1  0
 13 14  1  0
 13 25  2  0
 14 15  1  0
 15 16  1  0
 16 17  1  6
 16 18  1  0
 18 19  2  0
 18 24  1  0
 19 20  1  0
 20 21  2  0
 21 22  1  0
 21 23  1  0
 23 24  2  0
 25 26  1  0
 26 27  2  0
 27 28  1  0
 29 30  1  0
 29 34  1  0
 30 31  2  0
 31 32  1  0
 32 33  2  0
 33 34  1  0
M  CHG  1  15   1
M  END
