
     RDKit          3D

 34 39  0  0  0  0  0  0  0  0999 V2000
   -2.9100   -1.1330    1.3930 C   0  0  0  0  0  0  0  0  0  0  0  0
   -3.3910   -1.7290    0.1120 C   0  0  0  0  0  0  0  0  0  0  0  0
   -3.6710   -0.6690   -0.8850 C   0  0  0  0  0  0  0  0  0  0  0  0
   -4.9040   -0.2350   -1.2300 N   0  0  0  0  0  0  0  0  0  0  0  0
   -4.7650    0.7160   -2.1460 N   0  0  0  0  0  0  0  0  0  0  0  0
   -3.4400    0.8900   -2.3880 C   0  0  0  0  0  0  0  0  0  0  0  0
   -2.7060    0.0400   -1.6180 C   0  0  0  0  0  0  0  0  0  0  0  0
   -1.2940   -0.2760   -1.5050 C   0  0  0  0  0  0  0  0  0  0  0  0
   -0.3100    0.1230   -0.6370 C   0  0  0  0  0  0  0  0  0  0  0  0
   -0.2870    1.0760    0.3680 N   0  0  0  0  0  0  0  0  0  0  0  0
   -1.0420    2.2330    0.6230 C   0  0  0  0  0  0  0  0  0  0  0  0
   -1.7820    2.8890   -0.3050 C   0  0  0  0  0  0  0  0  0  0  0  0
   -2.5700    3.9740    0.0550 C   0  0  0  0  0  0  0  0  0  0  0  0
   -2.6430    4.4390    1.3430 C   0  0  0  0  0  0  0  0  0  0  0  0
   -1.8710    3.7470    2.2680 C   0  0  0  0  0  0  0  0  0  0  0  0
   -1.9420    4.2490    3.6800 C   0  0  0  0  0  0  0  0  0  0  0  0
   -1.1240    2.7130    1.9130 N   0  0  0  0  0  0  0  0  0  0  0  0
    0.8560   -0.5550   -0.9650 N   0  0  0  0  0  0  0  0  0  0  0  0
    2.1290   -0.4680   -0.3500 C   0  0  0  0  0  0  0  0  0  0  0  0
    2.8510    0.7030   -0.2540 C   0  0  0  0  0  0  0  0  0  0  0  0
    4.0920    0.7230    0.3600 C   0  0  0  0  0  0  0  0  0  0  0  0
    4.6480   -0.4250    0.8970 C   0  0  0  0  0  0  0  0  0  0  0  0
    5.7810   -0.6880    1.5220 O   0  0  0  0  0  0  0  0  0  0  0  0
    5.8780   -1.9370    1.8530 C   0  0  0  0  0  0  0  0  0  0  0  0
    7.0240   -2.5920    2.5730 C   0  0  0  0  0  0  0  0  0  0  0  0
    4.7240   -2.5480    1.4150 C   0  0  0  0  0  0  0  0  0  0  0  0
    3.9270   -1.6050    0.8040 C   0  0  0  0  0  0  0  0  0  0  0  0
    2.6870   -1.6190    0.1890 C   0  0  0  0  0  0  0  0  0  0  0  0
    0.6160   -1.3520   -2.0030 C   0  0  0  0  0  0  0  0  0  0  0  0
    1.4190   -2.2390   -2.7280 C   0  0  0  0  0  0  0  0  0  0  0  0
    0.8720   -2.9330   -3.7720 C   0  0  0  0  0  0  0  0  0  0  0  0
   -0.4530   -2.7800   -4.1290 C   0  0  0  0  0  0  0  0  0  0  0  0
   -1.1680   -1.9110   -3.3910 N   0  0  0  0  0  0  0  0  0  0  0  0
   -0.6670   -1.2210   -2.3700 C   0  0  0  0  0  0  0  0  0  0  0  0
  1  2  1  0
  2  3  1  0
  3  4  2  0
  3  7  1  0
  4  5  1  0
  5  6  1  0
  6  7  2  0
  7  8  1  0
  8  9  2  0
  8 34  1  0
  9 10  1  0
  9 18  1  0
 10 11  1  0
 11 12  2  0
 11 17  1  0
 12 13  1  0
 13 14  2  0
 14 15  1  0
 15 16  1  0
 15 17  2  0
 18 19  1  0
 18 29  1  0
 19 20  2  0
 19 28  1  0
 20 21  1  0
 21 22  2  0
 22 23  1  0
 22 27  1  0
 23 24  1  0
 24 25  1  0
 24 26  2  0
 26 27  1  0
 27 28  2  0
 29 30  2  0
 29 34  1  0
 30 31  1  0
 31 32  2  0
 32 33  1  0
 33 34  2  0
M  CHG  1   4   1
M  END
