
     RDKit          3D

 34 38  0  0  0  0  0  0  0  0999 V2000
   -7.8380    1.1690    0.0660 C   0  0  0  0  0  0  0  0  0  0  0  0
   -6.6930    0.3100    0.0210 N   0  0  0  0  0  0  0  0  0  0  0  0
   -5.5360    0.7870    0.7410 C   0  0  0  0  0  0  0  0  0  0  0  0
   -4.5000    1.3920   -0.0520 C   0  0  0  0  0  0  0  0  0  0  0  0
   -3.3140    1.3800   -0.5270 C   0  0  0  0  0  0  0  0  0  0  0  0
   -2.9340    2.5710   -1.3760 C   0  0  0  0  0  0  0  0  0  0  0  0
   -3.8860    3.6750   -1.6790 C   0  0  0  0  0  0  0  0  0  0  0  0
   -1.7180    2.6220   -1.8620 C   0  0  0  0  0  0  0  0  0  0  0  0
   -0.7480    1.5950   -1.6170 C   0  0  0  0  0  0  0  0  0  0  0  0
   -1.0160    0.5300   -0.8890 C   0  0  0  0  0  0  0  0  0  0  0  0
   -0.2100   -0.6110   -0.5240 N   0  0  0  0  0  0  0  0  0  0  0  0
    1.1390   -0.6810   -0.9750 C   0  0  0  0  0  0  0  0  0  0  0  0
    1.9820   -1.8120   -0.6220 C   0  0  0  0  0  0  0  0  0  0  0  0
    3.3280   -1.7150   -1.1770 N   0  0  0  0  0  0  0  0  0  0  0  0
    3.6350   -2.2190   -2.3780 C   0  0  0  0  0  0  0  0  0  0  0  0
    4.9410   -2.1040   -2.8720 C   0  0  0  0  0  0  0  0  0  0  0  0
    5.8980   -1.4720   -2.1160 C   0  0  0  0  0  0  0  0  0  0  0  0
    7.0830   -1.3330   -2.4940 O   0  0  0  0  0  0  0  0  0  0  0  0
    5.5470   -0.9820   -0.9200 N   0  0  0  0  0  0  0  0  0  0  0  0
    4.2810   -1.1100   -0.4750 C   0  0  0  0  0  0  0  0  0  0  0  0
    3.9930   -0.6260    0.6760 N   0  0  0  0  0  0  0  0  0  0  0  0
    4.9700    0.0320    1.4730 C   0  0  0  0  0  0  0  0  0  0  0  0
    5.4540   -0.5740    2.6280 C   0  0  0  0  0  0  0  0  0  0  0  0
    6.4000    0.0330    3.4260 C   0  0  0  0  0  0  0  0  0  0  0  0
    6.9100    1.2740    3.1120 C   0  0  0  0  0  0  0  0  0  0  0  0
    6.4280    1.8750    1.9640 C   0  0  0  0  0  0  0  0  0  0  0  0
    5.4790    1.2820    1.1510 C   0  0  0  0  0  0  0  0  0  0  0  0
   -1.0300   -1.4500    0.2560 C   0  0  0  0  0  0  0  0  0  0  0  0
   -0.7560   -2.6770    0.8080 C   0  0  0  0  0  0  0  0  0  0  0  0
   -1.7460   -3.3430    1.4870 C   0  0  0  0  0  0  0  0  0  0  0  0
   -2.9800   -2.7810    1.6020 C   0  0  0  0  0  0  0  0  0  0  0  0
   -3.2430   -1.5280    1.0330 C   0  0  0  0  0  0  0  0  0  0  0  0
   -2.2730   -0.8500    0.3590 C   0  0  0  0  0  0  0  0  0  0  0  0
   -2.2990    0.3910   -0.3300 N   0  0  0  0  0  0  0  0  0  0  0  0
  1  2  1  0
  2  3  1  0
  3  4  1  0
  4  5  2  3
  5  6  1  0
  5 34  1  0
  6  7  1  0
  6  8  2  0
  8  9  1  0
  9 10  2  0
 10 11  1  0
 10 34  1  0
 11 12  1  0
 11 28  1  0
 12 13  1  0
 13 14  1  0
 14 15  1  0
 14 20  1  0
 15 16  2  0
 16 17  1  0
 17 18  2  0
 17 19  1  0
 19 20  1  0
 20 21  2  3
 21 22  1  0
 22 23  2  0
 22 27  1  0
 23 24  1  0
 24 25  2  0
 25 26  1  0
 26 27  2  0
 28 29  2  0
 28 33  1  0
 29 30  1  0
 30 31  2  0
 31 32  1  0
 32 33  2  0
 33 34  1  0
M  CHG  1   2   1
M  END
