
     RDKit          3D

 34 37  0  0  0  0  0  0  0  0999 V2000
    5.7920   -1.3840   -1.9650 C   0  0  0  0  0  0  0  0  0  0  0  0
    4.5750   -1.9390   -1.6170 O   0  0  0  0  0  0  0  0  0  0  0  0
    4.3340   -1.7940   -0.2670 C   0  0  0  0  0  0  0  0  0  0  0  0
    3.0020   -2.4100    0.0730 C   0  0  0  0  0  0  0  0  0  0  0  0
    2.6420   -2.3060    1.5170 C   0  0  0  0  0  0  0  0  0  0  0  0
    2.5500   -0.8690    1.9950 C   0  0  0  0  0  0  0  0  0  0  0  0
    1.5280   -0.1630    1.2370 N   0  0  0  0  0  0  0  0  0  0  0  0
    1.6330    0.5210    0.1130 N   0  0  0  0  0  0  0  0  0  0  0  0
    0.4820    1.0330   -0.2910 C   0  0  0  0  0  0  0  0  0  0  0  0
    0.1420    1.8570   -1.4780 C   0  0  0  0  0  0  0  0  0  0  0  0
   -0.4670    0.6540    0.6480 C   0  0  0  0  0  0  0  0  0  0  0  0
   -1.9050    0.9740    0.6520 C   0  0  2  0  0  0  0  0  0  0  0  0
   -2.5850    0.4640   -0.5530 C   0  0  0  0  0  0  0  0  0  0  0  0
   -2.4470   -0.7850   -0.9280 C   0  0  0  0  0  0  0  0  0  0  0  0
   -1.6280   -1.6420   -0.1510 N   0  0  0  0  0  0  0  0  0  0  0  0
   -1.4590   -2.8830   -0.4780 C   0  0  0  0  0  0  0  0  0  0  0  0
   -2.1040   -3.4360   -1.6530 C   0  0  0  0  0  0  0  0  0  0  0  0
   -1.9000   -4.8850   -2.0250 C   0  0  0  0  0  0  0  0  0  0  0  0
   -2.6170   -5.1610   -3.1780 O   0  0  0  0  0  0  0  0  0  0  0  0
   -2.8510   -2.6800   -2.3720 N   0  0  0  0  0  0  0  0  0  0  0  0
   -3.0460   -1.3490   -2.0410 O   0  0  0  0  0  0  0  0  0  0  0  0
   -3.4350    1.3370   -1.3660 C   0  0  0  0  0  0  0  0  0  0  0  0
   -4.0040    0.8750   -2.3940 O   0  0  0  0  0  0  0  0  0  0  0  0
   -3.6440    2.7060   -1.0320 N   0  0  0  0  0  0  0  0  0  0  0  0
   -2.9860    3.1890    0.1330 C   0  0  0  0  0  0  0  0  0  0  0  0
   -3.2150    4.5360    0.4320 C   0  0  0  0  0  0  0  0  0  0  0  0
   -2.6080    5.0690    1.5500 C   0  0  0  0  0  0  0  0  0  0  0  0
   -2.8710    6.7650    1.9610 Cl  0  0  0  0  0  0  0  0  0  0  0  0
   -1.7940    4.2970    2.3580 C   0  0  0  0  0  0  0  0  0  0  0  0
   -1.1810    4.8820    3.5110 N   0  0  0  0  0  0  0  0  0  0  0  0
   -1.5990    2.9720    2.0210 C   0  0  0  0  0  0  0  0  0  0  0  0
   -2.1820    2.3910    0.9160 C   0  0  0  0  0  0  0  0  0  0  0  0
    0.2210   -0.0880    1.5810 C   0  0  0  0  0  0  0  0  0  0  0  0
   -0.2450   -0.6420    2.6260 O   0  0  0  0  0  0  0  0  0  0  0  0
  1  2  1  0
  2  3  1  0
  3  4  1  0
  4  5  1  0
  5  6  1  0
  6  7  1  0
  7  8  1  0
  7 33  1  0
  8  9  1  0
  9 10  1  0
  9 11  2  0
 12 11  1  6
 11 33  1  0
 12 13  1  0
 12 32  1  0
 13 14  2  3
 13 22  1  0
 14 15  1  0
 14 21  1  0
 15 16  2  0
 16 17  1  0
 17 18  1  0
 17 20  2  0
 18 19  1  0
 20 21  1  0
 22 23  2  0
 22 24  1  0
 24 25  1  0
 25 26  2  0
 25 32  1  0
 26 27  1  0
 27 28  1  0
 27 29  2  0
 29 30  1  0
 29 31  1  0
 31 32  2  0
 33 34  2  0
M  END
