
     RDKit          3D

 34 39  0  0  0  0  0  0  0  0999 V2000
    7.3830   -2.5040   -1.2730 C   0  0  0  0  0  0  0  0  0  0  0  0
    6.3720   -2.3460   -0.3290 O   0  0  0  0  0  0  0  0  0  0  0  0
    5.5010   -1.2620   -0.2980 C   0  0  0  0  0  0  0  0  0  0  0  0
    5.6170   -0.2770   -1.2360 C   0  0  0  0  0  0  0  0  0  0  0  0
    4.7710    0.7880   -1.2180 C   0  0  0  0  0  0  0  0  0  0  0  0
    3.7990    0.8570   -0.2410 C   0  0  0  0  0  0  0  0  0  0  0  0
    3.6330   -0.1080    0.7330 C   0  0  0  0  0  0  0  0  0  0  0  0
    4.5070   -1.1760    0.6870 C   0  0  0  0  0  0  0  0  0  0  0  0
    4.2450   -2.1460    1.7680 C   0  0  0  0  0  0  0  0  0  0  0  0
    2.8720   -1.7510    2.2490 C   0  0  0  0  0  0  0  0  0  0  0  0
    2.7210   -0.2810    1.8520 C   0  0  2  0  0  0  0  0  0  0  0  0
    1.3410    0.0930    1.6200 N   0  0  1  0  0  0  0  0  0  0  0  0
    1.1420    1.3810    2.1800 C   0  0  0  0  0  0  0  0  0  0  0  0
    0.4990    2.4210    1.3370 C   0  0  0  0  0  0  0  0  0  0  0  0
   -0.6950    1.6980    0.6620 C   0  0  1  0  0  0  0  0  0  0  0  0
   -1.6270    2.6520    0.0880 C   0  0  0  0  0  0  0  0  0  0  0  0
   -1.2620    3.9920   -0.1000 C   0  0  0  0  0  0  0  0  0  0  0  0
   -2.1590    4.8610   -0.6720 C   0  0  0  0  0  0  0  0  0  0  0  0
   -3.3810    4.4530   -1.0560 N   0  0  0  0  0  0  0  0  0  0  0  0
   -3.7480    3.1880   -0.8870 C   0  0  0  0  0  0  0  0  0  0  0  0
   -2.8800    2.2710   -0.3140 C   0  0  0  0  0  0  0  0  0  0  0  0
   -3.4000    0.9020   -0.1540 C   0  0  0  0  0  0  0  0  0  0  0  0
   -4.6490    0.4340   -0.5430 C   0  0  0  0  0  0  0  0  0  0  0  0
   -4.7490   -0.9150   -0.2140 C   0  0  0  0  0  0  0  0  0  0  0  0
   -5.9010   -1.7680   -0.4600 C   0  0  0  0  0  0  0  0  0  0  0  0
   -7.0430   -1.2860   -1.0610 C   0  0  0  0  0  0  0  0  0  0  0  0
   -8.1260   -2.0520   -1.3000 N   0  0  0  0  0  0  0  0  0  0  0  0
   -8.1140   -3.3450   -0.9450 C   0  0  0  0  0  0  0  0  0  0  0  0
   -6.9750   -3.8370   -0.3420 C   0  0  0  0  0  0  0  0  0  0  0  0
   -5.8880   -3.0650   -0.1030 N   0  0  0  0  0  0  0  0  0  0  0  0
   -3.5800   -1.2360    0.3580 N   0  0  0  0  0  0  0  0  0  0  0  0
   -2.8000   -0.1590    0.3850 N   0  0  0  0  0  0  0  0  0  0  0  0
    0.0440    0.8440   -0.3490 C   0  0  0  0  0  0  0  0  0  0  0  0
    0.8530   -0.1950    0.3300 C   0  0  0  0  0  0  0  0  0  0  0  0
  1  2  1  0
  2  3  1  0
  3  4  2  0
  3  8  1  0
  4  5  1  0
  5  6  2  0
  6  7  1  0
  7  8  2  0
  7 11  1  0
  8  9  1  0
  9 10  1  0
 11 10  1  6
 11 12  1  0
 12 13  1  6
 12 34  1  0
 13 14  1  0
 14 15  1  0
 15 16  1  6
 15 33  1  0
 16 17  2  0
 16 21  1  0
 17 18  1  0
 18 19  2  0
 19 20  1  0
 20 21  2  0
 21 22  1  0
 22 23  1  0
 22 32  2  0
 23 24  2  0
 24 25  1  0
 24 31  1  0
 25 26  2  0
 25 30  1  0
 26 27  1  0
 27 28  2  0
 28 29  1  0
 29 30  2  0
 31 32  1  0
 33 34  1  0
M  CHG  1  12   1
M  END
