
     RDKit          3D

 34 39  0  0  0  0  0  0  0  0999 V2000
   10.8930   -0.4700   -1.2940 C   0  0  0  0  0  0  0  0  0  0  0  0
    9.4360   -0.1450   -1.1740 C   0  0  0  0  0  0  0  0  0  0  0  0
    8.7760    0.6370   -2.0970 C   0  0  0  0  0  0  0  0  0  0  0  0
    7.4270    0.9290   -1.9730 C   0  0  0  0  0  0  0  0  0  0  0  0
    6.6870    0.4470   -0.9140 C   0  0  0  0  0  0  0  0  0  0  0  0
    5.3670    0.7280   -0.7840 N   0  0  0  0  0  0  0  0  0  0  0  0
    4.6350    0.2630    0.2430 C   0  0  0  0  0  0  0  0  0  0  0  0
    3.2080    0.5670    0.3760 C   0  0  0  0  0  0  0  0  0  0  0  0
    2.4200    1.2880   -0.4100 N   0  0  0  0  0  0  0  0  0  0  0  0
    1.2090    1.2990    0.0900 O   0  0  0  0  0  0  0  0  0  0  0  0
    1.1510    0.6020    1.1980 C   0  0  0  0  0  0  0  0  0  0  0  0
   -0.0310    0.3910    2.0310 C   0  0  0  0  0  0  0  0  0  0  0  0
   -1.2870    0.3830    1.3450 N   0  0  1  0  0  0  0  0  0  0  0  0
   -1.6630    1.6650    0.8150 C   0  0  0  0  0  0  0  0  0  0  0  0
   -3.0760    1.6840    0.2860 C   0  0  0  0  0  0  0  0  0  0  0  0
   -4.0340    0.8520    1.1080 C   0  0  0  0  0  0  0  0  0  0  0  0
   -3.9730   -0.5690    0.7310 C   0  0  0  0  0  0  0  0  0  0  0  0
   -5.0310   -1.4320    0.6480 C   0  0  0  0  0  0  0  0  0  0  0  0
   -6.4700   -1.1800    0.8600 C   0  0  0  0  0  0  0  0  0  0  0  0
   -7.1470   -0.5640   -0.2910 C   0  0  0  0  0  0  0  0  0  0  0  0
   -7.4110   -1.3540   -1.4030 C   0  0  0  0  0  0  0  0  0  0  0  0
   -8.0570   -0.8660   -2.5000 C   0  0  0  0  0  0  0  0  0  0  0  0
   -8.4460    0.4640   -2.4680 C   0  0  0  0  0  0  0  0  0  0  0  0
   -8.2150    1.2900   -1.4040 C   0  0  0  0  0  0  0  0  0  0  0  0
   -7.5490    0.7420   -0.3030 C   0  0  0  0  0  0  0  0  0  0  0  0
   -4.4760   -2.6370    0.2880 N   0  0  0  0  0  0  0  0  0  0  0  0
   -3.1690   -2.5050    0.1620 N   0  0  0  0  0  0  0  0  0  0  0  0
   -2.7930   -1.2630    0.4190 C   0  0  0  0  0  0  0  0  0  0  0  0
   -1.4300   -0.6890    0.3920 C   0  0  0  0  0  0  0  0  0  0  0  0
    2.4210    0.1370    1.3810 N   0  0  0  0  0  0  0  0  0  0  0  0
    5.2710   -0.5220    1.1830 C   0  0  0  0  0  0  0  0  0  0  0  0
    6.6060   -0.8200    1.0730 C   0  0  0  0  0  0  0  0  0  0  0  0
    7.3440   -0.3360    0.0130 C   0  0  0  0  0  0  0  0  0  0  0  0
    8.7010   -0.6300   -0.1130 C   0  0  0  0  0  0  0  0  0  0  0  0
  1  2  1  0
  2  3  2  0
  2 34  1  0
  3  4  1  0
  4  5  2  0
  5  6  1  0
  5 33  1  0
  6  7  2  0
  7  8  1  0
  7 31  1  0
  8  9  2  0
  8 30  1  0
  9 10  1  0
 10 11  1  0
 11 12  1  0
 11 30  2  0
 13 12  1  6
 13 14  1  0
 13 29  1  0
 14 15  1  0
 15 16  1  0
 16 17  1  0
 17 18  1  0
 17 28  2  0
 18 19  1  0
 18 26  2  0
 19 20  1  0
 20 21  2  0
 20 25  1  0
 21 22  1  0
 22 23  2  0
 23 24  1  0
 24 25  2  0
 26 27  1  0
 27 28  1  0
 28 29  1  0
 31 32  2  0
 32 33  1  0
 33 34  2  0
M  CHG  1  13   1
M  END
