
     RDKit          3D

 17 18  0  0  0  0  0  0  0  0999 V2000
    4.5950    0.0200   -1.7650 N   0  0  0  0  0  0  0  0  0  0  0  0
    4.9480    0.2620   -0.4170 C   0  0  0  0  0  0  0  0  0  0  0  0
    6.1530    0.3930   -0.0920 O   0  0  0  0  0  0  0  0  0  0  0  0
    3.9360    0.3690    0.6530 C   0  0  0  0  0  0  0  0  0  0  0  0
    2.6170    0.2000    0.1410 O   0  0  0  0  0  0  0  0  0  0  0  0
    1.4990    0.2590    0.9540 C   0  0  0  0  0  0  0  0  0  0  0  0
    1.6790    0.4690    2.1770 O   0  0  0  0  0  0  0  0  0  0  0  0
    0.1420    0.0890    0.4560 C   0  0  0  0  0  0  0  0  0  0  0  0
   -0.9980    0.1400    1.2280 C   0  0  0  0  0  0  0  0  0  0  0  0
   -2.1140   -0.0610    0.4420 C   0  0  0  0  0  0  0  0  0  0  0  0
   -3.4720   -0.1120    0.6760 C   0  0  0  0  0  0  0  0  0  0  0  0
   -4.3880   -0.3360   -0.3350 C   0  0  0  0  0  0  0  0  0  0  0  0
   -5.7590   -0.3880   -0.1030 O   0  0  0  0  0  0  0  0  0  0  0  0
   -3.8830   -0.5100   -1.6070 C   0  0  0  0  0  0  0  0  0  0  0  0
   -2.5260   -0.4600   -1.8520 C   0  0  0  0  0  0  0  0  0  0  0  0
   -1.6080   -0.2350   -0.8320 C   0  0  0  0  0  0  0  0  0  0  0  0
   -0.2670   -0.1430   -0.8060 N   0  0  0  0  0  0  0  0  0  0  0  0
  1  2  1  0
  2  3  2  0
  2  4  1  0
  4  5  1  0
  5  6  1  0
  6  7  2  0
  6  8  1  0
  8  9  2  0
  8 17  1  0
  9 10  1  0
 10 11  2  0
 10 16  1  0
 11 12  1  0
 12 13  1  0
 12 14  2  0
 14 15  1  0
 15 16  2  0
 16 17  1  0
M  END
