
     RDKit          3D

 18 19  0  0  0  0  0  0  0  0999 V2000
   -1.2620   -2.9250    0.5750 N   0  0  0  0  0  0  0  0  0  0  0  0
   -1.9640   -1.9380   -0.1070 C   0  0  0  0  0  0  0  0  0  0  0  0
   -1.6380   -0.7640   -0.5450 C   0  0  0  0  0  0  0  0  0  0  0  0
   -2.6850    0.0660   -1.2560 C   0  0  0  0  0  0  0  0  0  0  0  0
   -2.8950    1.1480   -0.4270 O   0  0  0  0  0  0  0  0  0  0  0  0
   -2.1350    2.2580   -0.6390 C   0  0  0  0  0  0  0  0  0  0  0  0
   -0.7580    2.1970   -0.0710 C   0  0  0  0  0  0  0  0  0  0  0  0
   -0.3200    3.2160    0.4680 O   0  0  0  0  0  0  0  0  0  0  0  0
    0.1530    1.0280   -0.0870 C   0  0  0  0  0  0  0  0  0  0  0  0
    1.4680    1.3640    0.1330 C   0  0  0  0  0  0  0  0  0  0  0  0
    2.3690    0.3190    0.0950 C   0  0  0  0  0  0  0  0  0  0  0  0
    3.7820    0.5880    0.3190 C   0  0  0  0  0  0  0  0  0  0  0  0
    4.1760    1.7520    0.5430 O   0  0  0  0  0  0  0  0  0  0  0  0
    4.6760   -0.4960    0.2750 O   0  0  0  0  0  0  0  0  0  0  0  0
    1.9020   -0.9620   -0.1550 C   0  0  0  0  0  0  0  0  0  0  0  0
    2.7590   -1.8930   -0.1820 O   0  0  0  0  0  0  0  0  0  0  0  0
    0.6260   -1.2680   -0.3660 N   0  0  0  0  0  0  0  0  0  0  0  0
   -0.2790   -0.2720   -0.3340 C   0  0  0  0  0  0  0  0  0  0  0  0
  1  2  1  0
  2  3  2  3
  3  4  1  0
  3 18  1  0
  4  5  1  0
  5  6  1  0
  6  7  1  0
  7  8  2  0
  7  9  1  0
  9 10  1  0
  9 18  2  0
 10 11  2  0
 11 12  1  0
 11 15  1  0
 12 13  2  0
 12 14  1  0
 15 16  2  0
 15 17  1  0
 17 18  1  0
M  END
