
     RDKit          3D

 16 17  0  0  0  0  0  0  0  0999 V2000
   -1.9310    3.1590    0.0780 C   0  0  0  0  0  0  0  0  0  0  0  0
   -1.6170    1.7070    0.0750 C   0  0  0  0  0  0  0  0  0  0  0  0
   -2.6200    0.7700    0.1280 C   0  0  0  0  0  0  0  0  0  0  0  0
   -2.2600   -0.5790    0.1210 C   0  0  0  0  0  0  0  0  0  0  0  0
   -3.3260   -1.6210    0.1780 C   0  0  0  0  0  0  0  0  0  0  0  0
   -0.9490   -0.9740    0.0640 C   0  0  0  0  0  0  0  0  0  0  0  0
   -0.6420   -2.2950    0.0590 F   0  0  0  0  0  0  0  0  0  0  0  0
    0.0730   -0.0300    0.0100 C   0  0  0  0  0  0  0  0  0  0  0  0
    1.4590   -0.4300   -0.0510 C   0  0  0  0  0  0  0  0  0  0  0  0
    1.9220   -1.4220    0.7770 C   0  0  0  0  0  0  0  0  0  0  0  0
    3.2410   -1.7990    0.7160 C   0  0  0  0  0  0  0  0  0  0  0  0
    4.0530   -1.1910   -0.1530 N   0  0  0  0  0  0  0  0  0  0  0  0
    3.6730   -0.2150   -0.9930 C   0  0  0  0  0  0  0  0  0  0  0  0
    4.7530    0.5680   -2.1220 Cl  0  0  0  0  0  0  0  0  0  0  0  0
    2.3300    0.1730   -0.9340 C   0  0  0  0  0  0  0  0  0  0  0  0
   -0.3150    1.3040    0.0180 C   0  0  0  0  0  0  0  0  0  0  0  0
  1  2  1  0
  2  3  2  0
  2 16  1  0
  3  4  1  0
  4  5  1  0
  4  6  2  0
  6  7  1  0
  6  8  1  0
  8  9  1  0
  8 16  2  0
  9 10  2  0
  9 15  1  0
 10 11  1  0
 11 12  2  0
 12 13  1  0
 13 14  1  0
 13 15  2  0
M  CHG  1  12   1
M  END
