
     RDKit          3D

 16 17  0  0  0  0  0  0  0  0999 V2000
   -3.5860   -0.1840   -1.0490 N   0  0  0  0  0  0  0  0  0  0  0  0
   -2.9800   -0.1810    0.3040 C   0  0  0  0  0  0  0  0  0  0  0  0
   -1.5430   -0.4920    0.1670 C   0  0  0  0  0  0  0  0  0  0  0  0
   -1.3680   -1.7010   -0.5190 F   0  0  0  0  0  0  0  0  0  0  0  0
   -0.4970    0.1530    0.4890 C   0  0  0  0  0  0  0  0  0  0  0  0
   -0.5730    1.4580    1.1160 C   0  0  0  0  0  0  0  0  0  0  0  0
   -1.8350    1.6580    2.2850 Cl  0  0  0  0  0  0  0  0  0  0  0  0
    0.2480    2.5170    0.9110 C   0  0  0  0  0  0  0  0  0  0  0  0
    1.4020    2.6100    0.0210 C   0  0  0  0  0  0  0  0  0  0  0  0
    2.1310    1.6240   -0.4740 C   0  0  0  0  0  0  0  0  0  0  0  0
    1.9750    0.1830   -0.2600 C   0  0  0  0  0  0  0  0  0  0  0  0
    3.1180   -0.5280   -0.5250 C   0  0  0  0  0  0  0  0  0  0  0  0
    3.1320   -1.9100   -0.3450 C   0  0  0  0  0  0  0  0  0  0  0  0
    1.9890   -2.5290    0.0990 C   0  0  0  0  0  0  0  0  0  0  0  0
    0.8250   -1.8050    0.3700 C   0  0  0  0  0  0  0  0  0  0  0  0
    0.8220   -0.4640    0.1890 C   0  0  0  0  0  0  0  0  0  0  0  0
  1  2  1  0
  2  3  1  0
  3  4  1  0
  3  5  2  3
  5  6  1  0
  5 16  1  0
  6  7  1  0
  6  8  2  0
  8  9  1  0
  9 10  2  0
 10 11  1  0
 11 12  2  0
 11 16  1  0
 12 13  1  0
 13 14  2  0
 14 15  1  0
 15 16  2  0
M  CHG  1   1   1
M  END
