
     RDKit          3D

 16 17  0  0  0  0  0  0  0  0999 V2000
   -4.1720   -0.5310    0.8130 C   0  0  0  0  0  0  0  0  0  0  0  0
   -3.0480    0.0870    0.0440 C   0  0  0  0  0  0  0  0  0  0  0  0
   -1.7570   -0.3240    0.3020 C   0  0  0  0  0  0  0  0  0  0  0  0
   -0.6820    0.2180   -0.3830 C   0  0  0  0  0  0  0  0  0  0  0  0
    0.6650   -0.2770   -0.0460 C   0  0  0  0  0  0  0  0  0  0  0  0
    0.8720   -1.5810    0.3630 C   0  0  0  0  0  0  0  0  0  0  0  0
    2.1290   -2.0560    0.6820 C   0  0  0  0  0  0  0  0  0  0  0  0
    2.3830   -3.7130    1.2000 Cl  0  0  0  0  0  0  0  0  0  0  0  0
    3.2200   -1.1890    0.5860 C   0  0  0  0  0  0  0  0  0  0  0  0
    3.0510    0.1160    0.1820 C   0  0  0  0  0  0  0  0  0  0  0  0
    4.2240    1.0340    0.0830 C   0  0  0  0  0  0  0  0  0  0  0  0
    4.4110    1.6770    1.2830 F   0  0  0  0  0  0  0  0  0  0  0  0
    1.7700    0.5450   -0.1270 C   0  0  0  0  0  0  0  0  0  0  0  0
   -0.9200    1.1710   -1.3240 C   0  0  0  0  0  0  0  0  0  0  0  0
   -2.2190    1.5750   -1.5740 C   0  0  0  0  0  0  0  0  0  0  0  0
   -3.2580    1.0300   -0.8910 N   0  0  0  0  0  0  0  0  0  0  0  0
  1  2  1  0
  2  3  2  0
  2 16  1  0
  3  4  1  0
  4  5  1  0
  4 14  2  0
  5  6  2  0
  5 13  1  0
  6  7  1  0
  7  8  1  0
  7  9  2  0
  9 10  1  0
 10 11  1  0
 10 13  2  0
 11 12  1  0
 14 15  1  0
 15 16  2  0
M  CHG  1  16   1
M  END
