
     RDKit          3D

 16 17  0  0  0  0  0  0  0  0999 V2000
   -1.2180    2.5540    0.1950 N   0  0  0  0  0  0  0  0  0  0  0  0
   -0.5810    1.4070    0.7210 C   0  0  0  0  0  0  0  0  0  0  0  0
   -0.8800    0.1280    0.0130 C   0  0  0  0  0  0  0  0  0  0  0  0
    0.2000   -0.5990   -0.4000 C   0  0  0  0  0  0  0  0  0  0  0  0
    1.5660   -0.1660   -0.2420 C   0  0  0  0  0  0  0  0  0  0  0  0
    2.3880   -1.1790    0.3580 C   0  0  0  0  0  0  0  0  0  0  0  0
    3.7860   -0.7350    0.4880 C   0  0  0  0  0  0  0  0  0  0  0  0
    3.7350    0.6410   -0.1270 C   0  0  0  0  0  0  0  0  0  0  0  0
    2.4900    0.8490   -0.4940 C   0  0  0  0  0  0  0  0  0  0  0  0
    0.0160   -1.8210   -1.0150 C   0  0  0  0  0  0  0  0  0  0  0  0
   -1.2330   -2.3590   -1.2340 C   0  0  0  0  0  0  0  0  0  0  0  0
   -2.3320   -1.6590   -0.8160 C   0  0  0  0  0  0  0  0  0  0  0  0
   -3.5680   -2.1250   -0.9330 F   0  0  0  0  0  0  0  0  0  0  0  0
   -2.1750   -0.3900   -0.1810 C   0  0  0  0  0  0  0  0  0  0  0  0
   -3.3510    0.1970    0.4630 C   0  0  0  0  0  0  0  0  0  0  0  0
   -3.4170   -0.3480    2.2020 Cl  0  0  0  0  0  0  0  0  0  0  0  0
  1  2  1  0
  2  3  1  0
  3  4  2  0
  3 14  1  0
  4  5  1  0
  4 10  1  0
  5  6  2  0
  5  9  1  0
  6  7  1  0
  7  8  1  0
  8  9  2  0
 10 11  2  0
 11 12  1  0
 12 13  1  0
 12 14  2  0
 14 15  1  0
 15 16  1  0
M  CHG  1   1   1
M  END
