
     RDKit          3D

 18 19  0  0  0  0  0  0  0  0999 V2000
   -2.1540    1.0200   -1.8880 C   0  0  0  0  0  0  0  0  0  0  0  0
   -2.3670    0.1020   -0.7630 C   0  0  0  0  0  0  0  0  0  0  0  0
   -3.6400   -0.3520   -0.5090 C   0  0  0  0  0  0  0  0  0  0  0  0
   -4.9660    0.1800   -1.5360 Cl  0  0  0  0  0  0  0  0  0  0  0  0
   -3.8350   -1.2110    0.5450 C   0  0  0  0  0  0  0  0  0  0  0  0
   -2.7920   -1.6220    1.3430 C   0  0  0  0  0  0  0  0  0  0  0  0
   -1.4910   -1.1510    1.0750 C   0  0  0  0  0  0  0  0  0  0  0  0
   -1.2620   -0.2910    0.0280 C   0  0  0  0  0  0  0  0  0  0  0  0
   -0.0140    0.2440   -0.3340 N   0  0  0  0  0  0  0  0  0  0  0  0
    1.1950   -0.0350    0.3340 C   0  0  0  0  0  0  0  0  0  0  0  0
    1.2570   -0.8520    1.3960 N   0  0  0  0  0  0  0  0  0  0  0  0
    2.3170   -1.1890    2.0990 C   0  0  0  0  0  0  0  0  0  0  0  0
    3.5470   -0.6560    1.7340 C   0  0  0  0  0  0  0  0  0  0  0  0
    3.5690    0.1850    0.6640 C   0  0  0  0  0  0  0  0  0  0  0  0
    2.4030    0.5160   -0.0600 C   0  0  0  0  0  0  0  0  0  0  0  0
    2.5480    1.4170   -1.1740 C   0  0  0  0  0  0  0  0  0  0  0  0
    1.6170    1.7880   -1.8880 O   0  0  0  0  0  0  0  0  0  0  0  0
    3.8210    1.9400   -1.5150 O   0  0  0  0  0  0  0  0  0  0  0  0
  1  2  1  0
  2  3  2  0
  2  8  1  0
  3  4  1  0
  3  5  1  0
  5  6  2  0
  6  7  1  0
  7  8  2  0
  8  9  1  0
  9 10  1  0
 10 11  2  0
 10 15  1  0
 11 12  1  0
 12 13  2  0
 13 14  1  0
 14 15  2  0
 15 16  1  0
 16 17  2  0
 16 18  1  0
M  END
