
     RDKit          3D

 17 18  0  0  0  0  0  0  0  0999 V2000
   -0.5580    1.3050    2.8920 C   0  0  0  0  0  0  0  0  0  0  0  0
    0.3790    0.9520    1.8100 C   0  0  0  0  0  0  0  0  0  0  0  0
    2.1900    1.1070    1.9460 S   0  0  0  0  0  0  0  0  0  0  0  0
    2.5410    0.5280    0.3430 C   0  0  0  0  0  0  0  0  0  0  0  0
    1.3230    0.2500   -0.2140 C   0  0  0  0  0  0  0  0  0  0  0  0
    0.2360    0.4840    0.5800 C   0  0  0  0  0  0  0  0  0  0  0  0
   -1.1440    0.2040    0.0450 C   0  0  0  0  0  0  0  0  0  0  0  0
   -1.7830    1.0960   -0.5570 O   0  0  0  0  0  0  0  0  0  0  0  0
   -1.7300   -1.0340    0.2060 O   0  0  0  0  0  0  0  0  0  0  0  0
   -2.9970   -1.3890   -0.2510 C   0  0  0  0  0  0  0  0  0  0  0  0
   -4.0910   -0.5340    0.3520 C   0  0  0  0  0  0  0  0  0  0  0  0
   -5.3410   -0.9220   -0.1310 O   0  0  0  0  0  0  0  0  0  0  0  0
    1.3240   -0.2700   -1.6380 C   0  0  0  0  0  0  0  0  0  0  0  0
    2.6040   -0.4590   -2.2470 C   0  0  0  0  0  0  0  0  0  0  0  0
    3.8530   -0.1310   -1.5720 C   0  0  0  0  0  0  0  0  0  0  0  0
    3.8240    0.3330   -0.3510 C   0  0  0  0  0  0  0  0  0  0  0  0
    4.9970    0.6480    0.3050 O   0  0  0  0  0  0  0  0  0  0  0  0
  1  2  1  0
  2  3  1  0
  2  6  2  0
  3  4  1  0
  4  5  2  0
  4 16  1  0
  5  6  1  0
  5 13  1  0
  6  7  1  0
  7  8  2  0
  7  9  1  0
  9 10  1  0
 10 11  1  0
 11 12  1  0
 13 14  1  0
 14 15  1  0
 15 16  2  0
 16 17  1  0
M  END
