
     RDKit          3D

 17 18  0  0  0  0  0  0  0  0999 V2000
   -0.3240   -1.6740    0.4170 O   0  0  0  0  0  0  0  0  0  0  0  0
   -0.6840   -0.4890    0.7240 C   0  0  0  0  0  0  0  0  0  0  0  0
   -2.0510   -0.2560    1.2600 C   0  0  0  0  0  0  0  0  0  0  0  0
   -3.1430   -0.3380    0.3240 C   0  0  0  0  0  0  0  0  0  0  0  0
   -3.4170   -0.9480   -0.8580 C   0  0  0  0  0  0  0  0  0  0  0  0
   -4.6160   -0.8030   -1.4080 C   0  0  0  0  0  0  0  0  0  0  0  0
   -5.5530   -0.0440   -0.7810 C   0  0  0  0  0  0  0  0  0  0  0  0
   -4.6410    0.4910    0.6980 S   0  0  0  0  0  0  0  0  0  0  0  0
    0.2350    0.5120    0.5380 O   0  0  0  0  0  0  0  0  0  0  0  0
    1.5170    0.4150    0.0750 C   0  0  0  0  0  0  0  0  0  0  0  0
    2.3240    1.5260    0.3360 C   0  0  0  0  0  0  0  0  0  0  0  0
    3.6450    1.5870   -0.0610 C   0  0  0  0  0  0  0  0  0  0  0  0
    4.3920    2.7310    0.2370 O   0  0  0  0  0  0  0  0  0  0  0  0
    4.2220    0.5400   -0.7370 C   0  0  0  0  0  0  0  0  0  0  0  0
    3.4190   -0.5540   -0.9900 C   0  0  0  0  0  0  0  0  0  0  0  0
    3.9570   -1.6530   -1.6740 O   0  0  0  0  0  0  0  0  0  0  0  0
    2.1030   -0.6120   -0.5950 C   0  0  0  0  0  0  0  0  0  0  0  0
  1  2  2  0
  2  3  1  0
  2  9  1  0
  3  4  1  0
  4  5  2  0
  4  8  1  0
  5  6  1  0
  6  7  2  0
  7  8  1  0
  9 10  1  0
 10 11  2  0
 10 17  1  0
 11 12  1  0
 12 13  1  0
 12 14  2  0
 14 15  1  0
 15 16  1  0
 15 17  2  0
M  END
