
     RDKit          3D

 17 18  0  0  0  0  0  0  0  0999 V2000
    0.4490   -2.8220   -0.5470 O   0  0  0  0  0  0  0  0  0  0  0  0
    0.1430   -1.4620   -1.1220 S   0  0  2  0  0  0  0  0  0  0  0  0
    0.0250   -1.5770   -2.6000 O   0  0  0  0  0  0  0  0  0  0  0  0
    1.4200   -0.3870   -0.6310 C   0  0  0  0  0  0  0  0  0  0  0  0
    1.7300    0.7310   -1.3700 C   0  0  0  0  0  0  0  0  0  0  0  0
    2.7490    1.5760   -0.9650 C   0  0  0  0  0  0  0  0  0  0  0  0
    3.4710    1.3140    0.1830 C   0  0  0  0  0  0  0  0  0  0  0  0
    4.5070    2.1620    0.6050 O   0  0  0  0  0  0  0  0  0  0  0  0
    3.1620    0.1960    0.9220 C   0  0  0  0  0  0  0  0  0  0  0  0
    2.1460   -0.6350    0.5080 C   0  0  0  0  0  0  0  0  0  0  0  0
   -1.3470   -0.9010   -0.3810 C   0  0  0  0  0  0  0  0  0  0  0  0
   -1.7400   -1.3550    0.8610 C   0  0  0  0  0  0  0  0  0  0  0  0
   -2.9080   -0.9240    1.4560 C   0  0  0  0  0  0  0  0  0  0  0  0
   -3.7340   -0.0160    0.8300 C   0  0  0  0  0  0  0  0  0  0  0  0
   -4.9240    0.4440    1.3990 O   0  0  0  0  0  0  0  0  0  0  0  0
   -3.3230    0.4270   -0.4150 C   0  0  0  0  0  0  0  0  0  0  0  0
   -2.1630    0.0070   -1.0220 C   0  0  0  0  0  0  0  0  0  0  0  0
  1  2  2  0
  2  3  2  0
  2  4  1  6
  2 11  1  0
  4  5  2  0
  4 10  1  0
  5  6  1  0
  6  7  2  0
  7  8  1  0
  7  9  1  0
  9 10  2  0
 11 12  2  0
 11 17  1  0
 12 13  1  0
 13 14  2  0
 14 15  1  0
 14 16  1  0
 16 17  2  0
M  END
