
     RDKit          3D

 17 18  0  0  0  0  0  0  0  0999 V2000
    3.3630   -2.2820   -0.9380 C   0  0  0  0  0  0  0  0  0  0  0  0
    3.3920   -0.8250   -0.5500 C   0  0  0  0  0  0  0  0  0  0  0  0
    2.1220   -0.3910   -0.1770 O   0  0  0  0  0  0  0  0  0  0  0  0
    1.8130    0.8900    0.2310 C   0  0  0  0  0  0  0  0  0  0  0  0
    2.7680    1.6920    0.2560 O   0  0  0  0  0  0  0  0  0  0  0  0
    0.4230    1.3030    0.6230 C   0  0  0  0  0  0  0  0  0  0  0  0
    0.2250    2.6040    1.0210 C   0  0  0  0  0  0  0  0  0  0  0  0
    1.1890    3.7240    1.1290 C   0  0  0  0  0  0  0  0  0  0  0  0
   -1.5060    2.6750    1.3970 S   0  0  0  0  0  0  0  0  0  0  0  0
   -1.8720    1.0060    1.0150 C   0  0  0  0  0  0  0  0  0  0  0  0
   -0.6460    0.4790    0.6170 C   0  0  0  0  0  0  0  0  0  0  0  0
   -0.6620   -1.0110    0.2020 C   0  0  0  0  0  0  0  0  0  0  0  0
   -2.0320   -1.2960   -0.3600 C   0  0  2  0  0  0  0  0  0  0  0  0
   -2.0020   -2.5930   -0.8640 O   0  0  0  0  0  0  0  0  0  0  0  0
   -2.3640   -0.4540   -1.4060 O   0  0  0  0  0  0  0  0  0  0  0  0
   -2.9860   -1.1600    0.8140 C   0  0  0  0  0  0  0  0  0  0  0  0
   -3.1390    0.2890    1.0840 C   0  0  0  0  0  0  0  0  0  0  0  0
  1  2  1  0
  2  3  1  0
  3  4  1  0
  4  5  2  0
  4  6  1  0
  6  7  2  0
  6 11  1  0
  7  8  1  0
  7  9  1  0
  9 10  1  0
 10 11  2  0
 10 17  1  0
 11 12  1  0
 12 13  1  0
 13 14  1  6
 13 15  1  0
 13 16  1  0
 16 17  1  0
M  END
