
     RDKit          3D

 17 18  0  0  0  0  0  0  0  0999 V2000
    2.9680   -1.9470    0.2250 C   0  0  0  0  0  0  0  0  0  0  0  0
    2.5710   -0.5650    0.4440 C   0  0  0  0  0  0  0  0  0  0  0  0
    3.5370    0.2060    0.8310 O   0  0  0  0  0  0  0  0  0  0  0  0
    1.2500    0.0040    0.2700 C   0  0  0  0  0  0  0  0  0  0  0  0
    1.0770    1.3650    0.4960 C   0  0  0  0  0  0  0  0  0  0  0  0
    2.0560    2.2120    0.9200 O   0  0  0  0  0  0  0  0  0  0  0  0
   -0.1830    1.9700    0.2890 C   0  0  0  0  0  0  0  0  0  0  0  0
   -0.3500    3.4390    0.5380 C   0  0  0  0  0  0  0  0  0  0  0  0
   -1.1940    1.1730   -0.1330 C   0  0  0  0  0  0  0  0  0  0  0  0
   -2.5350    1.7730   -0.3650 C   0  0  0  0  0  0  0  0  0  0  0  0
   -1.0510   -0.1650   -0.3610 C   0  0  0  0  0  0  0  0  0  0  0  0
    0.1690   -0.7930   -0.1660 C   0  0  0  0  0  0  0  0  0  0  0  0
    0.1180   -2.2470   -0.4110 C   0  0  0  0  0  0  0  0  0  0  0  0
   -1.3190   -2.7440   -0.1510 C   0  0  0  0  0  0  0  0  0  0  0  0
   -2.1780   -1.4090   -0.9340 S   0  0  1  0  0  0  0  0  0  0  0  0
   -3.5410   -1.1990   -0.3970 O   0  0  0  0  0  0  0  0  0  0  0  0
   -2.1140   -1.5440   -2.4100 O   0  0  0  0  0  0  0  0  0  0  0  0
  1  2  1  0
  2  3  2  0
  2  4  1  0
  4  5  2  0
  4 12  1  0
  5  6  1  0
  5  7  1  0
  7  8  1  0
  7  9  2  0
  9 10  1  0
  9 11  1  0
 11 12  2  0
 11 15  1  0
 12 13  1  0
 13 14  1  0
 15 14  1  1
 15 16  2  0
 15 17  2  0
M  END
