
     RDKit          3D

 14 14  0  0  0  0  0  0  0  0999 V2000
   -3.0960    1.8300   -0.4510 O   0  0  0  0  0  0  0  0  0  0  0  0
   -3.4250    0.7270    0.3590 C   0  0  0  0  0  0  0  0  0  0  0  0
   -2.7910   -0.4490   -0.0810 O   0  0  0  0  0  0  0  0  0  0  0  0
   -1.4020   -0.4870   -0.1190 C   0  0  0  0  0  0  0  0  0  0  0  0
   -0.6640    0.5740    0.2540 N   0  0  0  0  0  0  0  0  0  0  0  0
    0.6740    0.5760    0.2310 C   0  0  0  0  0  0  0  0  0  0  0  0
    1.4160   -0.5090   -0.1770 C   0  0  0  0  0  0  0  0  0  0  0  0
    2.7410   -0.5960   -0.2320 O   0  0  0  0  0  0  0  0  0  0  0  0
    3.8000    0.2050    0.0410 C   0  0  0  0  0  0  0  0  0  0  0  0
    3.9270    1.7120   -0.8450 Cl  0  0  0  0  0  0  0  0  0  0  0  0
    0.6720   -1.6300   -0.5730 C   0  0  0  0  0  0  0  0  0  0  0  0
    1.4870   -3.0870   -1.1170 Cl  0  0  0  0  0  0  0  0  0  0  0  0
   -0.7070   -1.6050   -0.5390 C   0  0  0  0  0  0  0  0  0  0  0  0
   -1.6310   -3.0040   -1.0320 Cl  0  0  0  0  0  0  0  0  0  0  0  0
  1  2  1  0
  2  3  1  0
  3  4  1  0
  4  5  2  0
  4 13  1  0
  5  6  1  0
  6  7  2  0
  7  8  1  0
  7 11  1  0
  8  9  1  0
  9 10  1  0
 11 12  1  0
 11 13  2  0
 13 14  1  0
M  END
