
     RDKit          3D

 13 13  0  0  0  0  0  0  0  0999 V2000
    3.0150   -0.0270   -0.0530 C   0  0  0  0  0  0  0  0  0  0  0  0
    1.9670    0.5580   -0.8690 N   0  0  0  0  0  0  0  0  0  0  0  0
    0.6320    0.5380   -0.3890 C   0  0  0  0  0  0  0  0  0  0  0  0
    0.1240    1.6530    0.1100 C   0  0  0  0  0  0  0  0  0  0  0  0
    1.0990    3.0980    0.1650 Cl  0  0  0  0  0  0  0  0  0  0  0  0
   -1.2580    1.7380    0.6370 C   0  0  0  0  0  0  0  0  0  0  0  0
   -1.9730    0.5280    0.5550 O   0  0  0  0  0  0  0  0  0  0  0  0
   -1.4660   -0.6600    0.0350 C   0  0  0  0  0  0  0  0  0  0  0  0
   -2.2610   -1.8820   -0.0210 C   0  0  0  0  0  0  0  0  0  0  0  0
   -1.7260   -2.9020   -0.5040 O   0  0  0  0  0  0  0  0  0  0  0  0
   -3.5620   -1.9860    0.4220 O   0  0  0  0  0  0  0  0  0  0  0  0
   -0.2180   -0.6270   -0.4100 C   0  0  0  0  0  0  0  0  0  0  0  0
    0.4310   -2.1080   -1.0640 Cl  0  0  0  0  0  0  0  0  0  0  0  0
  1  2  1  0
  2  3  1  0
  3  4  2  0
  3 12  1  0
  4  5  1  0
  4  6  1  0
  6  7  1  0
  7  8  1  0
  8  9  1  0
  8 12  2  0
  9 10  2  0
  9 11  1  0
 12 13  1  0
M  END
