
     RDKit          3D

 13 13  0  0  0  0  0  0  0  0999 V2000
   -3.6370    1.2010    0.0870 C   0  0  0  0  0  0  0  0  0  0  0  0
   -2.9440    0.0370   -0.3300 O   0  0  0  0  0  0  0  0  0  0  0  0
   -1.6920   -0.3180    0.1180 C   0  0  0  0  0  0  0  0  0  0  0  0
   -1.1410    0.4450    0.9470 O   0  0  0  0  0  0  0  0  0  0  0  0
   -0.9640   -1.5360   -0.3190 C   0  0  0  0  0  0  0  0  0  0  0  0
    0.3300   -1.5730    0.3600 N   0  0  0  0  0  0  0  0  0  0  0  0
    1.3490   -0.6240    0.0650 C   0  0  0  0  0  0  0  0  0  0  0  0
    1.7730    0.2690    0.9400 C   0  0  0  0  0  0  0  0  0  0  0  0
    2.8260    1.0750    0.2840 C   0  0  1  0  0  0  0  0  0  0  0  0
    2.3730    2.8090    0.3630 Cl  0  0  0  0  0  0  0  0  0  0  0  0
    4.3440    0.8460    1.1940 Cl  0  0  0  0  0  0  0  0  0  0  0  0
    2.9250    0.6410   -1.0130 O   0  0  0  0  0  0  0  0  0  0  0  0
    2.0940   -0.4390   -1.1730 C   0  0  0  0  0  0  0  0  0  0  0  0
  1  2  1  0
  2  3  1  0
  3  4  2  0
  3  5  1  0
  5  6  1  0
  6  7  1  0
  7  8  2  0
  7 13  1  0
  8  9  1  0
  9 10  1  6
  9 11  1  0
  9 12  1  0
 12 13  1  0
M  END
