
     RDKit          3D

 11 12  0  0  0  0  0  0  0  0999 V2000
    3.2190   -0.6020   -0.5150 C   0  0  0  0  0  0  0  0  0  0  0  0
    1.8490   -0.0400   -0.3180 C   0  0  0  0  0  0  0  0  0  0  0  0
    1.6740    1.2850    0.0480 C   0  0  0  0  0  0  0  0  0  0  0  0
    0.4260    1.8160    0.2320 C   0  0  0  0  0  0  0  0  0  0  0  0
   -0.6940    1.0280    0.0530 C   0  0  0  0  0  0  0  0  0  0  0  0
   -0.5580   -0.3120   -0.3170 C   0  0  0  0  0  0  0  0  0  0  0  0
    0.7240   -0.8080   -0.4930 C   0  0  0  0  0  0  0  0  0  0  0  0
   -1.7050   -1.2090   -0.5260 C   0  0  0  0  0  0  0  0  0  0  0  0
   -2.9850   -0.5250   -0.2990 C   0  0  0  0  0  0  0  0  0  0  0  0
   -3.0910    0.7530    0.0530 C   0  0  0  0  0  0  0  0  0  0  0  0
   -1.9670    1.5510    0.2360 O   0  0  0  0  0  0  0  0  0  0  0  0
  1  2  1  0
  2  3  2  0
  2  7  1  0
  3  4  1  0
  4  5  2  0
  5  6  1  0
  5 11  1  0
  6  7  2  0
  6  8  1  0
  8  9  1  0
  9 10  2  0
 10 11  1  0
M  END
