
     RDKit          3D

 11 12  0  0  0  0  0  0  0  0999 V2000
   -2.2830    1.4310   -0.7840 C   0  0  0  0  0  0  0  0  0  0  0  0
   -1.0810    0.6270   -0.3950 C   0  0  0  0  0  0  0  0  0  0  0  0
    0.1780    0.9770   -0.7900 C   0  0  0  0  0  0  0  0  0  0  0  0
    1.2780    0.2340   -0.4290 C   0  0  0  0  0  0  0  0  0  0  0  0
    1.0640   -0.8840    0.3500 C   0  0  0  0  0  0  0  0  0  0  0  0
   -0.2140   -1.2310    0.7440 C   0  0  0  0  0  0  0  0  0  0  0  0
   -1.3150   -0.4850    0.3810 C   0  0  0  0  0  0  0  0  0  0  0  0
   -2.7000   -0.8740    0.8180 C   0  0  0  0  0  0  0  0  0  0  0  0
    2.3040   -1.5060    0.6120 O   0  0  0  0  0  0  0  0  0  0  0  0
    3.2790   -0.4530    0.5180 C   0  0  0  0  0  0  0  0  0  0  0  0
    2.7340    0.3080   -0.6660 C   0  0  0  0  0  0  0  0  0  0  0  0
  1  2  1  0
  2  3  2  0
  2  7  1  0
  3  4  1  0
  4  5  2  0
  4 11  1  0
  5  6  1  0
  5  9  1  0
  6  7  2  0
  7  8  1  0
  9 10  1  0
 10 11  1  0
M  END
