
     RDKit          3D

 11 12  0  0  0  0  0  0  0  0999 V2000
    3.5170   -0.7570    0.2520 O   0  0  0  0  0  0  0  0  0  0  0  0
    2.9300    0.2020   -0.5670 C   0  0  0  0  0  0  0  0  0  0  0  0
    1.4770    0.2570   -0.1850 C   0  0  0  0  0  0  0  0  0  0  0  0
    1.0500    1.1190    0.7980 C   0  0  0  0  0  0  0  0  0  0  0  0
   -0.2830    1.1720    1.1520 C   0  0  0  0  0  0  0  0  0  0  0  0
   -1.2350    0.3770    0.5480 C   0  0  0  0  0  0  0  0  0  0  0  0
   -0.8090   -0.4880   -0.4380 C   0  0  0  0  0  0  0  0  0  0  0  0
    0.5400   -0.5410   -0.7960 C   0  0  0  0  0  0  0  0  0  0  0  0
   -1.9990   -1.1890   -0.8920 C   0  0  0  0  0  0  0  0  0  0  0  0
   -3.0840   -0.8140   -0.2620 C   0  0  0  0  0  0  0  0  0  0  0  0
   -2.7010    0.2150    0.7110 C   0  0  0  0  0  0  0  0  0  0  0  0
  1  2  1  0
  2  3  1  0
  3  4  2  0
  3  8  1  0
  4  5  1  0
  5  6  2  0
  6  7  1  0
  6 11  1  0
  7  8  2  0
  7  9  1  0
  9 10  2  0
 10 11  1  0
M  END
