
     RDKit          3D

 11 11  0  0  0  0  0  0  0  0999 V2000
   -3.1120    0.3490   -0.4120 C   0  0  0  0  0  0  0  0  0  0  0  0
   -1.8270    0.3750   -0.8820 O   0  0  0  0  0  0  0  0  0  0  0  0
   -0.8640   -0.0150    0.0140 C   0  0  1  0  0  0  0  0  0  0  0  0
   -0.0390   -1.1800   -0.3990 C   0  0  0  0  0  0  0  0  0  0  0  0
    1.3300   -1.0090    0.2310 C   0  0  1  0  0  0  0  0  0  0  0  0
    2.1300   -2.1240    0.0010 O   0  0  0  0  0  0  0  0  0  0  0  0
    2.0470    0.2140   -0.2450 C   0  0  2  0  0  0  0  0  0  0  0  0
    2.8700    0.7810    0.7260 O   0  0  0  0  0  0  0  0  0  0  0  0
    1.0980    1.1700   -0.6000 O   0  0  0  0  0  0  0  0  0  0  0  0
    0.0870    1.1300    0.3560 C   0  0  1  0  0  0  0  0  0  0  0  0
   -0.6610    2.3070    0.3300 O   0  0  0  0  0  0  0  0  0  0  0  0
  1  2  1  0
  3  2  1  6
  3  4  1  0
  3 10  1  0
  4  5  1  0
  5  6  1  6
  5  7  1  0
  7  8  1  1
  7  9  1  0
  9 10  1  0
 10 11  1  6
M  END
