
     RDKit          3D

 11 11  0  0  0  0  0  0  0  0999 V2000
    3.2380    0.4470   -0.6760 C   0  0  0  0  0  0  0  0  0  0  0  0
    2.3860   -0.0060    0.2160 C   0  0  0  0  0  0  0  0  0  0  0  0
    2.5920   -1.3280    0.8350 C   0  0  0  0  0  0  0  0  0  0  0  0
    1.2230    0.8130    0.5930 C   0  0  0  0  0  0  0  0  0  0  0  0
   -0.0990    0.1440    0.3130 C   0  0  1  0  0  0  0  0  0  0  0  0
   -0.2490   -1.0470    0.9920 O   0  0  0  0  0  0  0  0  0  0  0  0
   -1.1810    1.0930    0.8310 C   0  0  0  0  0  0  0  0  0  0  0  0
   -2.4000    1.0680   -0.0650 C   0  0  0  0  0  0  0  0  0  0  0  0
   -2.7480   -0.3490   -0.4320 C   0  0  0  0  0  0  0  0  0  0  0  0
   -1.6270   -0.9220   -1.2490 C   0  0  0  0  0  0  0  0  0  0  0  0
   -0.3570   -0.0760   -1.1370 C   0  0  0  0  0  0  0  0  0  0  0  0
  1  2  2  0
  2  3  1  0
  2  4  1  0
  4  5  1  0
  5  6  1  1
  5  7  1  0
  5 11  1  0
  7  8  1  0
  8  9  1  0
  9 10  1  0
 10 11  1  0
M  END
