
     RDKit          3D

 11 11  0  0  0  0  0  0  0  0999 V2000
    3.6610    0.5410   -0.2420 C   0  0  0  0  0  0  0  0  0  0  0  0
    2.5390    0.6000   -0.9130 C   0  0  0  0  0  0  0  0  0  0  0  0
    1.2410    0.1630   -0.4430 C   0  0  0  0  0  0  0  0  0  0  0  0
    0.1330    1.0290   -0.5310 C   0  0  0  0  0  0  0  0  0  0  0  0
   -1.1070    0.6200   -0.0960 C   0  0  0  0  0  0  0  0  0  0  0  0
   -2.2620    1.5380   -0.1940 C   0  0  0  0  0  0  0  0  0  0  0  0
   -1.3180   -0.6380    0.4380 C   0  0  0  0  0  0  0  0  0  0  0  0
   -2.6570   -1.0100    0.8810 C   0  0  0  0  0  0  0  0  0  0  0  0
   -0.2440   -1.4880    0.5260 C   0  0  0  0  0  0  0  0  0  0  0  0
    1.0380   -1.0870    0.0840 C   0  0  0  0  0  0  0  0  0  0  0  0
    2.0580   -1.9910    0.1950 O   0  0  0  0  0  0  0  0  0  0  0  0
  1  2  2  0
  2  3  1  0
  3  4  2  0
  3 10  1  0
  4  5  1  0
  5  6  1  0
  5  7  2  0
  7  8  1  0
  7  9  1  0
  9 10  2  0
 10 11  1  0
M  END
