
     RDKit          3D

 24 26  0  0  0  0  0  0  0  0999 V2000
   -3.8740   -2.5020   -1.7460 C   0  0  0  0  0  0  0  0  0  0  0  0
   -4.6700   -1.4330   -1.1000 C   0  0  0  0  0  0  0  0  0  0  0  0
   -6.0030   -1.1840   -1.1990 N   0  0  0  0  0  0  0  0  0  0  0  0
   -6.3250   -0.1670   -0.4930 O   0  0  0  0  0  0  0  0  0  0  0  0
   -5.2770    0.3290    0.1140 C   0  0  0  0  0  0  0  0  0  0  0  0
   -5.1990    1.4970    1.0220 C   0  0  0  0  0  0  0  0  0  0  0  0
   -4.1990   -0.4620   -0.2560 C   0  0  0  0  0  0  0  0  0  0  0  0
   -2.8120   -0.2950    0.1640 C   0  0  0  0  0  0  0  0  0  0  0  0
   -1.9760    0.4330   -0.6790 C   0  0  0  0  0  0  0  0  0  0  0  0
   -0.6470    0.6550   -0.3890 C   0  0  0  0  0  0  0  0  0  0  0  0
   -0.1420    0.1250    0.7930 C   0  0  0  0  0  0  0  0  0  0  0  0
    1.2940    0.3680    1.0990 C   0  0  0  0  0  0  0  0  0  0  0  0
    1.6850    1.6530    0.5540 N   0  0  0  0  0  0  0  0  0  0  0  0
    3.3400    1.9750    0.8790 S   0  0  2  0  0  0  0  0  0  0  0  0
    3.5930    2.0740    2.3430 O   0  0  0  0  0  0  0  0  0  0  0  0
    3.7250    3.3090    0.2530 O   0  0  0  0  0  0  0  0  0  0  0  0
    4.3800    0.7690    0.1230 C   0  0  0  0  0  0  0  0  0  0  0  0
    4.8430    0.9310   -1.1700 C   0  0  0  0  0  0  0  0  0  0  0  0
    5.6550   -0.0230   -1.7550 C   0  0  0  0  0  0  0  0  0  0  0  0
    6.0200   -1.1670   -1.0470 C   0  0  0  0  0  0  0  0  0  0  0  0
    5.5600   -1.3300    0.2400 C   0  0  0  0  0  0  0  0  0  0  0  0
    4.7410   -0.3580    0.8170 C   0  0  0  0  0  0  0  0  0  0  0  0
   -0.9550   -0.5990    1.6400 C   0  0  0  0  0  0  0  0  0  0  0  0
   -2.2980   -0.8200    1.3410 C   0  0  0  0  0  0  0  0  0  0  0  0
  1  2  1  0
  2  3  2  0
  2  7  1  0
  3  4  1  0
  4  5  1  0
  5  6  1  0
  5  7  2  0
  7  8  1  0
  8  9  2  0
  8 24  1  0
  9 10  1  0
 10 11  2  0
 11 12  1  0
 11 23  1  0
 12 13  1  0
 14 13  1  1
 14 15  2  0
 14 16  2  0
 14 17  1  0
 17 18  2  0
 17 22  1  0
 18 19  1  0
 19 20  2  0
 20 21  1  0
 21 22  2  0
 23 24  2  0
M  END
