
     RDKit          3D

 24 26  0  0  0  0  0  0  0  0999 V2000
    6.2680    2.9210    0.9840 C   0  0  0  0  0  0  0  0  0  0  0  0
    5.4950    1.9920    0.2900 O   0  0  0  0  0  0  0  0  0  0  0  0
    5.1020    0.9920    1.2080 C   0  0  0  0  0  0  0  0  0  0  0  0
    4.2660   -0.0350    0.5080 C   0  0  0  0  0  0  0  0  0  0  0  0
    2.9040    0.1510    0.4660 C   0  0  0  0  0  0  0  0  0  0  0  0
    2.0860   -0.7910   -0.1830 C   0  0  0  0  0  0  0  0  0  0  0  0
    0.7030   -0.5310   -0.1730 N   0  0  0  0  0  0  0  0  0  0  0  0
   -0.2070   -1.2880   -0.9410 C   0  0  0  0  0  0  0  0  0  0  0  0
    0.1010   -2.2320   -1.6880 O   0  0  0  0  0  0  0  0  0  0  0  0
   -1.6410   -0.8910   -0.8180 C   0  0  0  0  0  0  0  0  0  0  0  0
   -2.2180    0.0900   -0.0780 C   0  0  0  0  0  0  0  0  0  0  0  0
   -3.5780    0.2170   -0.1710 C   0  0  0  0  0  0  0  0  0  0  0  0
   -4.2410   -0.6060   -0.9590 C   0  0  0  0  0  0  0  0  0  0  0  0
   -2.9740   -1.6400   -1.6420 S   0  0  0  0  0  0  0  0  0  0  0  0
   -5.7350   -0.6410   -1.2020 C   0  0  0  0  0  0  0  0  0  0  0  0
   -6.2980   -0.2640    0.1790 C   0  0  0  0  0  0  0  0  0  0  0  0
   -5.7800    1.1240    0.4110 C   0  0  2  0  0  0  0  0  0  0  0  0
   -6.2590    2.0840   -0.6790 C   0  0  0  0  0  0  0  0  0  0  0  0
   -4.3460    1.2840    0.6120 C   0  0  0  0  0  0  0  0  0  0  0  0
    2.7370   -1.8460   -0.7330 C   0  0  0  0  0  0  0  0  0  0  0  0
    4.1220   -2.0410   -0.6930 C   0  0  0  0  0  0  0  0  0  0  0  0
    4.6650   -3.1670   -1.2970 O   0  0  0  0  0  0  0  0  0  0  0  0
    6.0280   -3.4570   -1.3160 C   0  0  0  0  0  0  0  0  0  0  0  0
    4.8460   -1.1080   -0.0610 N   0  0  0  0  0  0  0  0  0  0  0  0
  1  2  1  0
  2  3  1  0
  3  4  1  0
  4  5  2  0
  4 24  1  0
  5  6  1  0
  6  7  1  0
  6 20  2  0
  7  8  1  0
  8  9  2  0
  8 10  1  0
 10 11  2  0
 10 14  1  0
 11 12  1  0
 12 13  2  0
 12 19  1  0
 13 14  1  0
 13 15  1  0
 15 16  1  0
 16 17  1  0
 17 18  1  6
 17 19  1  0
 20 21  1  0
 21 22  1  0
 21 24  2  0
 22 23  1  0
M  END
