
     RDKit          3D

 24 26  0  0  0  0  0  0  0  0999 V2000
    4.7500   -3.6160    2.9690 C   0  0  0  0  0  0  0  0  0  0  0  0
    4.2470   -2.2170    2.7680 C   0  0  0  0  0  0  0  0  0  0  0  0
    4.1220   -1.2850    3.6900 C   0  0  0  0  0  0  0  0  0  0  0  0
    3.5930   -0.0730    3.0500 C   0  0  0  0  0  0  0  0  0  0  0  0
    3.3450    1.0190    3.6240 O   0  0  0  0  0  0  0  0  0  0  0  0
    3.4240   -0.4130    1.6350 C   0  0  0  0  0  0  0  0  0  0  0  0
    2.9380    0.4610    0.6330 N   0  0  0  0  0  0  0  0  0  0  0  0
    1.6350    1.0300    0.7130 C   0  0  0  0  0  0  0  0  0  0  0  0
    0.8860    0.7650    1.6800 O   0  0  0  0  0  0  0  0  0  0  0  0
    1.2630    1.9340   -0.4160 C   0  0  0  0  0  0  0  0  0  0  0  0
   -0.0480    2.4820   -0.3020 N   0  0  0  0  0  0  0  0  0  0  0  0
   -0.3670    3.7250    0.3620 C   0  0  0  0  0  0  0  0  0  0  0  0
    0.4530    4.5060    0.9410 O   0  0  0  0  0  0  0  0  0  0  0  0
   -1.8050    3.8660    0.2150 C   0  0  0  0  0  0  0  0  0  0  0  0
   -2.3050    2.8370   -0.4550 C   0  0  0  0  0  0  0  0  0  0  0  0
   -1.2430    1.9170   -0.8160 C   0  0  0  0  0  0  0  0  0  0  0  0
   -1.3780    0.7940   -1.4670 C   0  0  0  0  0  0  0  0  0  0  0  0
   -2.5850    0.2160   -1.9930 C   0  0  0  0  0  0  0  0  0  0  0  0
   -3.6700    0.7790   -2.6820 C   0  0  0  0  0  0  0  0  0  0  0  0
   -4.6760   -0.0210   -3.0440 C   0  0  0  0  0  0  0  0  0  0  0  0
   -4.6770   -1.3330   -2.7700 C   0  0  0  0  0  0  0  0  0  0  0  0
   -5.6020   -2.4230   -3.0300 C   0  0  0  0  0  0  0  0  0  0  0  0
   -3.0880   -1.5250   -1.8930 S   0  0  0  0  0  0  0  0  0  0  0  0
    3.8110   -1.6670    1.4910 C   0  0  0  0  0  0  0  0  0  0  0  0
  1  2  1  0
  2  3  2  0
  2 24  1  0
  3  4  1  0
  4  5  2  0
  4  6  1  0
  6  7  1  0
  6 24  2  0
  7  8  1  0
  8  9  2  0
  8 10  1  0
 10 11  1  0
 11 12  1  0
 11 16  1  0
 12 13  2  0
 12 14  1  0
 14 15  2  0
 15 16  1  0
 16 17  2  3
 17 18  1  0
 18 19  2  0
 18 23  1  0
 19 20  1  0
 20 21  2  0
 21 22  1  0
 21 23  1  0
M  END
