
     RDKit          3D

 24 26  0  0  0  0  0  0  0  0999 V2000
   -2.4260    4.5050    0.1760 C   0  0  0  0  0  0  0  0  0  0  0  0
   -1.3060    3.5360    0.1130 C   0  0  0  0  0  0  0  0  0  0  0  0
   -0.1430    4.0000    0.1300 O   0  0  0  0  0  0  0  0  0  0  0  0
   -1.5810    2.1040    0.0350 C   0  0  0  0  0  0  0  0  0  0  0  0
   -2.7820    1.4940    0.0090 N   0  0  0  0  0  0  0  0  0  0  0  0
   -2.5950    0.1670   -0.0670 C   0  0  0  0  0  0  0  0  0  0  0  0
   -3.4680   -0.9130   -0.1210 C   0  0  0  0  0  0  0  0  0  0  0  0
   -4.9150   -0.6110   -0.0930 C   0  0  0  0  0  0  0  0  0  0  0  0
   -2.9480   -2.1730   -0.1960 C   0  0  0  0  0  0  0  0  0  0  0  0
   -1.6000   -2.4440   -0.2220 C   0  0  0  0  0  0  0  0  0  0  0  0
   -1.0540   -3.8180   -0.3030 C   0  0  0  0  0  0  0  0  0  0  0  0
   -0.7330   -1.3660   -0.1670 C   0  0  0  0  0  0  0  0  0  0  0  0
   -1.2250   -0.0590   -0.0900 C   0  0  0  0  0  0  0  0  0  0  0  0
   -0.5760    1.1530   -0.0270 C   0  0  0  0  0  0  0  0  0  0  0  0
    0.8670    1.3380   -0.0270 C   0  0  0  0  0  0  0  0  0  0  0  0
    1.5430    1.3630    1.0400 O   0  0  0  0  0  0  0  0  0  0  0  0
    1.5750    1.4960   -1.2090 O   0  0  0  0  0  0  0  0  0  0  0  0
    2.9770    1.6770   -1.2480 C   0  0  0  0  0  0  0  0  0  0  0  0
    3.6690    0.4760   -0.6180 C   0  0  0  0  0  0  0  0  0  0  0  0
    4.0680    0.0280    0.3630 N   0  0  0  0  0  0  0  0  0  0  0  0
    4.6610   -1.1140    0.6170 C   0  0  0  0  0  0  0  0  0  0  0  0
    5.1500   -1.6020    1.9710 C   0  0  0  0  0  0  0  0  0  0  0  0
    4.8310   -1.9140   -0.5040 C   0  0  0  0  0  0  0  0  0  0  0  0
    4.1150   -0.9400   -1.8300 S   0  0  0  0  0  0  0  0  0  0  0  0
  1  2  1  0
  2  3  2  0
  2  4  1  0
  4  5  1  0
  4 14  2  0
  5  6  1  0
  6  7  2  0
  6 13  1  0
  7  8  1  0
  7  9  1  0
  9 10  2  0
 10 11  1  0
 10 12  1  0
 12 13  2  0
 13 14  1  0
 14 15  1  0
 15 16  2  0
 15 17  1  0
 17 18  1  0
 18 19  1  0
 19 20  2  0
 19 24  1  0
 20 21  1  0
 21 22  1  0
 21 23  2  0
 23 24  1  0
M  END
