
     RDKit          3D

 24 26  0  0  0  0  0  0  0  0999 V2000
    5.3480   -0.3330   -1.2130 C   0  0  0  0  0  0  0  0  0  0  0  0
    5.3980    0.0540    0.2530 C   0  0  1  0  0  0  0  0  0  0  0  0
    5.3880    1.5420    0.4220 C   0  0  0  0  0  0  0  0  0  0  0  0
    4.2300   -0.6050    0.9610 C   0  0  0  0  0  0  0  0  0  0  0  0
    2.9330   -0.1850    0.4070 C   0  0  0  0  0  0  0  0  0  0  0  0
    2.8880    0.5980   -0.5060 O   0  0  0  0  0  0  0  0  0  0  0  0
    1.6840   -0.7250    0.9730 C   0  0  2  0  0  0  0  0  0  0  0  0
    1.7360   -2.2400    0.7960 C   0  0  0  0  0  0  0  0  0  0  0  0
    0.2280   -0.0160    0.1960 S   0  0  0  0  0  0  0  0  0  0  0  0
   -1.2630   -0.6550    0.8650 C   0  0  0  0  0  0  0  0  0  0  0  0
   -1.2730   -1.5880    1.8670 N   0  0  0  0  0  0  0  0  0  0  0  0
   -2.5100   -1.9120    2.2020 C   0  0  0  0  0  0  0  0  0  0  0  0
   -3.3270   -1.1610    1.3870 C   0  0  0  0  0  0  0  0  0  0  0  0
   -2.5430   -0.4140    0.5930 N   0  0  0  0  0  0  0  0  0  0  0  0
   -3.1550    0.4570   -0.3490 C   0  0  0  0  0  0  0  0  0  0  0  0
   -2.3740    1.2350   -1.1760 C   0  0  0  0  0  0  0  0  0  0  0  0
   -2.9880    2.0810   -2.0910 C   0  0  0  0  0  0  0  0  0  0  0  0
   -4.3490    2.1720   -2.2040 C   0  0  0  0  0  0  0  0  0  0  0  0
   -4.9510    3.0390   -3.1410 O   0  0  0  0  0  0  0  0  0  0  0  0
   -5.1090    1.3950   -1.3770 C   0  0  0  0  0  0  0  0  0  0  0  0
   -4.5310    0.5210   -0.4320 C   0  0  0  0  0  0  0  0  0  0  0  0
   -5.4760   -0.2570    0.3930 C   0  0  0  0  0  0  0  0  0  0  0  0
   -4.7770   -1.1250    1.3320 C   0  0  0  0  0  0  0  0  0  0  0  0
   -5.4550   -1.8770    2.1320 O   0  0  0  0  0  0  0  0  0  0  0  0
  2  1  1  6
  2  3  1  0
  2  4  1  0
  4  5  1  0
  5  6  2  0
  5  7  1  0
  7  8  1  6
  7  9  1  0
  9 10  1  0
 10 11  2  0
 10 14  1  0
 11 12  1  0
 12 13  2  0
 13 14  1  0
 13 23  1  0
 14 15  1  0
 15 16  2  0
 15 21  1  0
 16 17  1  0
 17 18  2  0
 18 19  1  0
 18 20  1  0
 20 21  2  0
 21 22  1  0
 22 23  1  0
 23 24  2  0
M  END
