
     RDKit          3D

 24 26  0  0  0  0  0  0  0  0999 V2000
    5.3830    2.9050   -1.5340 C   0  0  0  0  0  0  0  0  0  0  0  0
    4.9970    1.5420   -1.1050 C   0  0  0  0  0  0  0  0  0  0  0  0
    4.2180    1.1600   -0.0170 C   0  0  0  0  0  0  0  0  0  0  0  0
    4.0040   -0.1450    0.1710 C   0  0  0  0  0  0  0  0  0  0  0  0
    3.1610   -0.6750    1.3310 C   0  0  0  0  0  0  0  0  0  0  0  0
    1.8300   -1.0780    0.8560 C   0  0  0  0  0  0  0  0  0  0  0  0
    1.5400   -0.9590   -0.3520 O   0  0  0  0  0  0  0  0  0  0  0  0
    0.9060   -1.5940    1.7910 N   0  0  0  0  0  0  0  0  0  0  0  0
   -0.3930   -1.9930    1.3680 C   0  0  0  0  0  0  0  0  0  0  0  0
   -1.2160   -0.8700    0.7500 C   0  0  0  0  0  0  0  0  0  0  0  0
   -2.5490   -1.3620    0.3380 C   0  0  0  0  0  0  0  0  0  0  0  0
   -2.6700   -2.6390    0.3050 O   0  0  0  0  0  0  0  0  0  0  0  0
   -3.6680   -0.6110   -0.0110 N   0  0  0  0  0  0  0  0  0  0  0  0
   -4.9750   -1.2050   -0.3800 C   0  0  0  0  0  0  0  0  0  0  0  0
   -5.9670   -0.2110    0.2040 C   0  0  0  0  0  0  0  0  0  0  0  0
   -5.2310    1.0760    0.0380 C   0  0  0  0  0  0  0  0  0  0  0  0
   -5.3250    2.4480   -0.0500 C   0  0  0  0  0  0  0  0  0  0  0  0
   -4.1370    2.9370   -0.2170 O   0  0  0  0  0  0  0  0  0  0  0  0
   -3.2240    1.9820   -0.2490 C   0  0  0  0  0  0  0  0  0  0  0  0
   -1.7620    2.1630   -0.4250 C   0  0  0  0  0  0  0  0  0  0  0  0
   -3.8780    0.7700   -0.0890 C   0  0  0  0  0  0  0  0  0  0  0  0
    4.5610   -1.0500   -0.7160 C   0  0  0  0  0  0  0  0  0  0  0  0
    4.4850   -2.5100   -0.7390 C   0  0  0  0  0  0  0  0  0  0  0  0
    5.4220    0.0010   -1.8600 S   0  0  0  0  0  0  0  0  0  0  0  0
  1  2  1  0
  2  3  2  0
  2 24  1  0
  3  4  1  0
  4  5  1  0
  4 22  2  0
  5  6  1  0
  6  7  2  0
  6  8  1  0
  8  9  1  0
  9 10  1  0
 10 11  1  0
 11 12  2  0
 11 13  1  0
 13 14  1  0
 13 21  1  0
 14 15  1  0
 15 16  1  0
 16 17  2  0
 16 21  1  0
 17 18  1  0
 18 19  1  0
 19 20  1  0
 19 21  2  0
 22 23  1  0
 22 24  1  0
M  END
