
     RDKit          3D

 28 31  0  0  0  0  0  0  0  0999 V2000
   -3.0580    3.6010   -1.0110 C   0  0  0  0  0  0  0  0  0  0  0  0
   -1.7510    2.9490   -0.8530 C   0  0  0  0  0  0  0  0  0  0  0  0
   -0.5960    3.7070   -0.9190 C   0  0  0  0  0  0  0  0  0  0  0  0
    0.6550    3.1470   -0.7780 C   0  0  0  0  0  0  0  0  0  0  0  0
    0.7100    1.8220   -0.5710 N   0  0  0  0  0  0  0  0  0  0  0  0
   -0.3440    1.0270   -0.4950 C   0  0  0  0  0  0  0  0  0  0  0  0
   -0.1980   -0.4010   -0.2690 C   0  0  0  0  0  0  0  0  0  0  0  0
   -1.3630   -1.1260   -0.2200 N   0  0  0  0  0  0  0  0  0  0  0  0
   -1.4200   -2.4400   -0.0750 C   0  0  0  0  0  0  0  0  0  0  0  0
   -2.6290   -3.1650   -0.0270 N   0  0  0  0  0  0  0  0  0  0  0  0
   -3.4990   -3.1720    1.0100 C   0  0  0  0  0  0  0  0  0  0  0  0
   -4.5560   -3.9810    0.7120 C   0  0  0  0  0  0  0  0  0  0  0  0
   -4.3130   -4.4820   -0.5590 C   0  0  0  0  0  0  0  0  0  0  0  0
   -3.1070   -3.9600   -0.9990 C   0  0  0  0  0  0  0  0  0  0  0  0
   -0.2170   -3.1060    0.0310 C   0  0  0  0  0  0  0  0  0  0  0  0
    0.9780   -2.4430   -0.0090 C   0  0  0  0  0  0  0  0  0  0  0  0
    0.9940   -1.0560   -0.1600 C   0  0  0  0  0  0  0  0  0  0  0  0
    2.2010   -0.3920   -0.1970 O   0  0  0  0  0  0  0  0  0  0  0  0
    2.7080    0.4540    0.7580 C   0  0  0  0  0  0  0  0  0  0  0  0
    2.1070    0.7260    1.9800 C   0  0  0  0  0  0  0  0  0  0  0  0
    2.6940    1.5880    2.8700 C   0  0  0  0  0  0  0  0  0  0  0  0
    3.8920    2.1810    2.5310 C   0  0  0  0  0  0  0  0  0  0  0  0
    4.4540    1.9020    1.3430 N   0  0  0  0  0  0  0  0  0  0  0  0
    3.9170    1.0700    0.4490 C   0  0  0  0  0  0  0  0  0  0  0  0
    4.5980    0.8280   -0.8130 C   0  0  0  0  0  0  0  0  0  0  0  0
    4.0430   -0.0530   -1.7770 N   0  0  0  0  0  0  0  0  0  0  0  0
    5.6880    1.3830   -1.0930 O   0  0  0  0  0  0  0  0  0  0  0  0
   -1.5940    1.5870   -0.6370 C   0  0  0  0  0  0  0  0  0  0  0  0
  1  2  1  0
  2  3  2  0
  2 28  1  0
  3  4  1  0
  4  5  2  0
  5  6  1  0
  6  7  1  0
  6 28  2  0
  7  8  2  0
  7 17  1  0
  8  9  1  0
  9 10  1  0
  9 15  2  0
 10 11  1  0
 10 14  1  0
 11 12  2  0
 12 13  1  0
 13 14  2  0
 15 16  1  0
 16 17  2  0
 17 18  1  0
 18 19  1  0
 19 20  2  0
 19 24  1  0
 20 21  1  0
 21 22  2  0
 22 23  1  0
 23 24  2  0
 24 25  1  0
 25 26  1  0
 25 27  2  0
M  END
