
     RDKit          3D

 29 32  0  0  0  0  0  0  0  0999 V2000
   -5.4050   -1.9330   -1.2800 C   0  0  0  0  0  0  0  0  0  0  0  0
   -3.9930   -1.6530   -0.8840 C   0  0  0  0  0  0  0  0  0  0  0  0
   -2.9870   -2.4720   -1.3270 C   0  0  0  0  0  0  0  0  0  0  0  0
   -1.6800   -2.2280   -0.9710 C   0  0  0  0  0  0  0  0  0  0  0  0
   -1.3360   -1.1600   -0.1620 C   0  0  0  0  0  0  0  0  0  0  0  0
    0.0710   -0.9540    0.1820 C   0  0  0  0  0  0  0  0  0  0  0  0
    0.9810   -1.7570   -0.2640 N   0  0  0  0  0  0  0  0  0  0  0  0
    2.3220   -1.5430    0.0760 N   0  0  0  0  0  0  0  0  0  0  0  0
    3.0470   -2.3160    0.8780 C   0  0  0  0  0  0  0  0  0  0  0  0
    2.5520   -3.5570    1.5620 C   0  0  0  0  0  0  0  0  0  0  0  0
    4.3040   -1.7590    0.9470 C   0  0  0  0  0  0  0  0  0  0  0  0
    4.2850   -0.6210    0.1480 C   0  0  0  0  0  0  0  0  0  0  0  0
    5.1980    0.3160   -0.1720 N   0  0  0  0  0  0  0  0  0  0  0  0
    4.9510    1.3550   -0.9850 C   0  0  0  0  0  0  0  0  0  0  0  0
    5.8770    2.2220   -1.2510 N   0  0  0  0  0  0  0  0  0  0  0  0
    5.6480    3.3540   -2.1220 C   0  0  0  0  0  0  0  0  0  0  0  0
    6.8320    3.9950   -2.4120 F   0  0  0  0  0  0  0  0  0  0  0  0
    3.7100    1.4680   -1.5160 N   0  0  0  0  0  0  0  0  0  0  0  0
    2.7550    0.5640   -1.2340 C   0  0  0  0  0  0  0  0  0  0  0  0
    1.6030    0.6600   -1.7200 O   0  0  0  0  0  0  0  0  0  0  0  0
    3.0240   -0.4990   -0.3960 C   0  0  0  0  0  0  0  0  0  0  0  0
   -2.3370   -0.3360    0.2870 C   0  0  0  0  0  0  0  0  0  0  0  0
   -1.9790    0.7280    1.0950 O   0  0  0  0  0  0  0  0  0  0  0  0
   -2.9680    1.5960    1.5770 C   0  0  0  0  0  0  0  0  0  0  0  0
   -3.7340    2.4170    0.8990 C   0  0  0  0  0  0  0  0  0  0  0  0
   -4.6350    3.1410    1.8150 C   0  0  0  0  0  0  0  0  0  0  0  0
   -4.2720    2.6090    3.1420 C   0  0  0  0  0  0  0  0  0  0  0  0
   -3.3100    1.7210    2.9740 C   0  0  0  0  0  0  0  0  0  0  0  0
   -3.6380   -0.5920   -0.0770 C   0  0  0  0  0  0  0  0  0  0  0  0
  1  2  1  0
  2  3  2  0
  2 29  1  0
  3  4  1  0
  4  5  2  0
  5  6  1  0
  5 22  1  0
  6  7  2  3
  7  8  1  0
  8  9  1  0
  8 21  1  0
  9 10  1  0
  9 11  2  0
 11 12  1  0
 12 13  1  0
 12 21  2  0
 13 14  1  0
 14 15  2  3
 14 18  1  0
 15 16  1  0
 16 17  1  0
 18 19  1  0
 19 20  2  0
 19 21  1  0
 22 23  1  0
 22 29  2  0
 23 24  1  0
 24 25  2  0
 24 28  1  0
 25 26  1  0
 26 27  1  0
 27 28  2  0
M  END
