
     RDKit          3D

 28 31  0  0  0  0  0  0  0  0999 V2000
   -3.9760    2.8420    1.0940 C   0  0  0  0  0  0  0  0  0  0  0  0
   -2.6840    2.9930    0.3880 C   0  0  0  0  0  0  0  0  0  0  0  0
   -2.4970    2.1840   -0.8640 C   0  0  0  0  0  0  0  0  0  0  0  0
   -2.5990    0.7370   -0.7010 C   0  0  0  0  0  0  0  0  0  0  0  0
   -3.7920    0.0980   -0.6930 C   0  0  0  0  0  0  0  0  0  0  0  0
   -5.1040    0.7550   -0.9220 C   0  0  0  0  0  0  0  0  0  0  0  0
   -3.8080   -1.2200   -0.4940 N   0  0  0  0  0  0  0  0  0  0  0  0
   -2.6900   -1.9790   -0.2970 C   0  0  0  0  0  0  0  0  0  0  0  0
   -2.8360   -3.2020   -0.1220 O   0  0  0  0  0  0  0  0  0  0  0  0
   -1.4670   -1.3660   -0.3000 C   0  0  0  0  0  0  0  0  0  0  0  0
   -1.4360   -0.0090   -0.5030 C   0  0  0  0  0  0  0  0  0  0  0  0
   -0.1480    0.3700   -0.4640 N   0  0  0  0  0  0  0  0  0  0  0  0
    0.6420   -0.6820   -0.2450 C   0  0  0  0  0  0  0  0  0  0  0  0
    1.9290   -1.1340   -0.0760 C   0  0  0  0  0  0  0  0  0  0  0  0
    3.0280   -0.3800   -0.1140 C   0  0  0  0  0  0  0  0  0  0  0  0
    2.9220    1.0390   -0.3510 C   0  0  0  0  0  0  0  0  0  0  0  0
    3.9530    1.8390   -0.3960 C   0  0  0  0  0  0  0  0  0  0  0  0
    3.7050    3.1840   -0.6350 F   0  0  0  0  0  0  0  0  0  0  0  0
    5.3360    1.3990   -0.1880 C   0  0  0  0  0  0  0  0  0  0  0  0
    5.8960    2.2150    0.9780 C   0  0  0  0  0  0  0  0  0  0  0  0
    1.9170   -2.4980    0.1330 C   0  0  0  0  0  0  0  0  0  0  0  0
    2.8970   -3.3950    0.3450 N   0  0  0  0  0  0  0  0  0  0  0  0
    2.6450   -4.6940    0.5240 C   0  0  0  0  0  0  0  0  0  0  0  0
    1.3840   -5.1060    0.4890 N   0  0  0  0  0  0  0  0  0  0  0  0
    0.3600   -4.2190    0.2740 C   0  0  0  0  0  0  0  0  0  0  0  0
   -0.7970   -4.6790    0.2550 O   0  0  0  0  0  0  0  0  0  0  0  0
    0.5680   -2.8730    0.0860 C   0  0  0  0  0  0  0  0  0  0  0  0
   -0.1770   -1.7660   -0.1420 N   0  0  0  0  0  0  0  0  0  0  0  0
  1  2  1  0
  2  3  1  0
  3  4  1  0
  4  5  2  0
  4 11  1  0
  5  6  1  0
  5  7  1  0
  7  8  1  0
  8  9  2  0
  8 10  1  0
 10 11  2  0
 10 28  1  0
 11 12  1  0
 12 13  2  0
 13 14  1  0
 13 28  1  0
 14 15  2  3
 14 21  1  0
 15 16  1  0
 16 17  2  3
 17 18  1  0
 17 19  1  0
 19 20  1  0
 21 22  1  0
 21 27  2  0
 22 23  2  0
 23 24  1  0
 24 25  1  0
 25 26  2  0
 25 27  1  0
 27 28  1  0
M  END
