
     RDKit          3D

 29 31  0  0  0  0  0  0  0  0999 V2000
   -2.5310    5.1900   -1.0670 C   0  0  0  0  0  0  0  0  0  0  0  0
   -1.5880    4.3340   -1.6530 O   0  0  0  0  0  0  0  0  0  0  0  0
   -1.3990    3.0100   -1.2800 C   0  0  0  0  0  0  0  0  0  0  0  0
   -0.5140    2.6160   -0.2990 C   0  0  0  0  0  0  0  0  0  0  0  0
    0.1990    3.6540    0.3140 O   0  0  0  0  0  0  0  0  0  0  0  0
   -0.3410    1.2940    0.0570 C   0  0  0  0  0  0  0  0  0  0  0  0
    0.5320    0.9320    1.0260 O   0  0  0  0  0  0  0  0  0  0  0  0
    1.8720    0.6930    1.0730 C   0  0  0  0  0  0  0  0  0  0  0  0
    2.4810   -0.3770    0.2470 C   0  0  2  0  0  0  0  0  0  0  0  0
    2.2540   -0.1240   -1.1600 N   0  0  0  0  0  0  0  0  0  0  0  0
    2.1880    1.2070   -1.3530 O   0  0  0  0  0  0  0  0  0  0  0  0
    2.0980   -1.7820    0.6600 C   0  0  0  0  0  0  0  0  0  0  0  0
    3.2210   -2.5670    1.2560 C   0  0  0  0  0  0  0  0  0  0  0  0
    3.9130   -1.8780    2.2390 O   0  0  0  0  0  0  0  0  0  0  0  0
    4.4590   -0.6880    1.7880 C   0  0  2  0  0  0  0  0  0  0  0  0
    4.3620    0.3080    2.7550 O   0  0  0  0  0  0  0  0  0  0  0  0
    3.9930   -0.2790    0.4360 C   0  0  0  0  0  0  0  0  0  0  0  0
   -1.0780    0.2870   -0.5840 C   0  0  0  0  0  0  0  0  0  0  0  0
   -1.9560    0.6980   -1.5600 C   0  0  0  0  0  0  0  0  0  0  0  0
   -2.1210    2.0180   -1.9080 C   0  0  0  0  0  0  0  0  0  0  0  0
   -3.0290    2.3760   -2.9090 O   0  0  0  0  0  0  0  0  0  0  0  0
   -2.9500   -0.5550   -2.4120 S   0  0  0  0  0  0  0  0  0  0  0  0
   -2.9150   -2.0110   -1.2860 C   0  0  2  0  0  0  0  0  0  0  0  0
   -3.9010   -1.7380   -0.1900 C   0  0  0  0  0  0  0  0  0  0  0  0
   -3.9410   -2.9060    0.8030 C   0  0  0  0  0  0  0  0  0  0  0  0
   -2.6670   -3.0500    1.3430 O   0  0  0  0  0  0  0  0  0  0  0  0
   -1.5250   -2.1330   -0.7360 C   0  0  0  0  0  0  0  0  0  0  0  0
   -0.9710   -3.2780   -0.7780 O   0  0  0  0  0  0  0  0  0  0  0  0
   -0.8880   -1.0370   -0.2100 O   0  0  0  0  0  0  0  0  0  0  0  0
  1  2  1  0
  2  3  1  0
  3  4  2  0
  3 20  1  0
  4  5  1  0
  4  6  1  0
  6  7  1  0
  6 18  2  0
  7  8  1  0
  9  8  1  1
  9 10  1  0
  9 12  1  0
  9 17  1  0
 10 11  1  0
 12 13  1  0
 13 14  1  0
 14 15  1  0
 15 16  1  1
 15 17  1  0
 18 19  1  0
 18 29  1  0
 19 20  2  0
 19 22  1  0
 20 21  1  0
 22 23  1  0
 23 24  1  1
 23 27  1  0
 24 25  1  0
 25 26  1  0
 27 28  2  0
 27 29  1  0
M  CHG  2  10   1  11  -1
M  END
