
     RDKit          3D

 28 31  0  0  0  0  0  0  0  0999 V2000
    6.4050   -0.0690    0.2320 C   0  0  0  0  0  0  0  0  0  0  0  0
    5.5490    1.1250    0.4870 C   0  0  0  0  0  0  0  0  0  0  0  0
    4.3280    1.1100   -0.3120 N   0  0  0  0  0  0  0  0  0  0  0  0
    4.2100    1.6740   -1.5980 C   0  0  0  0  0  0  0  0  0  0  0  0
    4.9210    2.5280   -2.1510 O   0  0  0  0  0  0  0  0  0  0  0  0
    2.7780    0.9000   -2.3320 S   0  0  0  0  0  0  0  0  0  0  0  0
    2.3970   -0.2130   -0.9140 C   0  0  2  0  0  0  0  0  0  0  0  0
    0.9760   -0.2330   -0.6490 N   0  0  0  0  0  0  0  0  0  0  0  0
    0.1650   -1.3710   -0.6480 C   0  0  0  0  0  0  0  0  0  0  0  0
    0.6250   -2.5480   -0.8920 O   0  0  0  0  0  0  0  0  0  0  0  0
   -1.2010   -1.0290   -0.3450 C   0  0  0  0  0  0  0  0  0  0  0  0
   -2.2830   -1.7360   -0.2360 C   0  0  0  0  0  0  0  0  0  0  0  0
   -2.5550   -3.1540   -0.3740 C   0  0  0  0  0  0  0  0  0  0  0  0
   -3.8000   -3.6610   -0.2070 C   0  0  0  0  0  0  0  0  0  0  0  0
   -3.7920   -5.0950   -0.4000 C   0  0  0  0  0  0  0  0  0  0  0  0
   -2.4200   -5.4420   -0.7050 C   0  0  0  0  0  0  0  0  0  0  0  0
   -1.7250   -4.2870   -0.6820 C   0  0  0  0  0  0  0  0  0  0  0  0
   -1.2220    0.4910   -0.1390 C   0  0  0  0  0  0  0  0  0  0  0  0
   -2.2710    1.1800    0.1510 C   0  0  0  0  0  0  0  0  0  0  0  0
   -2.4880    2.5800    0.3790 C   0  0  0  0  0  0  0  0  0  0  0  0
   -3.7470    3.0170    0.6740 C   0  0  0  0  0  0  0  0  0  0  0  0
   -3.7320    4.4710    0.8660 C   0  0  0  0  0  0  0  0  0  0  0  0
   -2.3350    4.8390    0.6520 C   0  0  0  0  0  0  0  0  0  0  0  0
   -1.6190    3.7280    0.3680 C   0  0  0  0  0  0  0  0  0  0  0  0
    0.1530    0.8820   -0.3450 C   0  0  0  0  0  0  0  0  0  0  0  0
    0.6370    2.0570   -0.2800 O   0  0  0  0  0  0  0  0  0  0  0  0
    3.1300    0.5160    0.1570 C   0  0  0  0  0  0  0  0  0  0  0  0
    2.6760    0.5650    1.3520 O   0  0  0  0  0  0  0  0  0  0  0  0
  1  2  1  0
  2  3  1  0
  3  4  1  0
  3 27  1  0
  4  5  2  0
  4  6  1  0
  6  7  1  0
  7  8  1  1
  7 27  1  0
  8  9  1  0
  8 25  1  0
  9 10  2  0
  9 11  1  0
 11 12  2  3
 11 18  1  0
 12 13  1  0
 13 14  2  0
 13 17  1  0
 14 15  1  0
 15 16  1  0
 16 17  2  0
 18 19  2  3
 18 25  1  0
 19 20  1  0
 20 21  2  0
 20 24  1  0
 21 22  1  0
 22 23  1  0
 23 24  2  0
 25 26  2  0
 27 28  2  0
M  END
