
     RDKit          3D

 28 30  0  0  0  0  0  0  0  0999 V2000
    3.9320    1.3000    0.4790 C   0  0  0  0  0  0  0  0  0  0  0  0
    3.8340    0.4370   -0.3040 C   0  0  0  0  0  0  0  0  0  0  0  0
    3.2040   -1.1980   -0.2630 C   0  0  0  0  0  0  0  0  0  0  0  0
    3.7430   -1.3730   -1.4270 C   0  0  0  0  0  0  0  0  0  0  0  0
    4.5690   -0.5490   -2.3490 C   0  0  0  0  0  0  0  0  0  0  0  0
    2.7270   -0.8940    1.0960 C   0  0  0  0  0  0  0  0  0  0  0  0
    1.4510   -1.4650    1.2330 C   0  0  0  0  0  0  0  0  0  0  0  0
    0.8920   -2.1030    0.4470 C   0  0  0  0  0  0  0  0  0  0  0  0
    0.2100   -2.9060   -0.5410 C   0  0  0  0  0  0  0  0  0  0  0  0
   -0.3980   -3.5920   -1.3940 C   0  0  0  0  0  0  0  0  0  0  0  0
   -1.6390   -2.7640   -1.8550 O   0  0  0  0  0  0  0  0  0  0  0  0
   -2.3900   -2.0970   -0.9620 C   0  0  0  0  0  0  0  0  0  0  0  0
   -3.6350   -2.2420   -0.6830 O   0  0  0  0  0  0  0  0  0  0  0  0
   -1.8210   -0.9580   -0.1030 C   0  0  0  0  0  0  0  0  0  0  0  0
   -2.8080    0.1570   -0.2160 N   0  0  0  0  0  0  0  0  0  0  0  0
   -3.6290    0.5500   -0.9750 C   0  0  0  0  0  0  0  0  0  0  0  0
   -4.1260   -0.0780   -2.1750 O   0  0  0  0  0  0  0  0  0  0  0  0
   -4.2930    1.7870   -0.8500 C   0  0  0  0  0  0  0  0  0  0  0  0
   -5.4050    3.0000   -1.3820 S   0  0  0  0  0  0  0  0  0  0  0  0
   -4.9230    4.1670    0.1760 C   0  0  0  0  0  0  0  0  0  0  0  0
   -5.7750    5.2610   -0.1180 O   0  0  0  0  0  0  0  0  0  0  0  0
   -4.2230    3.4910    0.5900 N   0  0  0  0  0  0  0  0  0  0  0  0
   -3.6730    2.3300    0.4400 C   0  0  0  0  0  0  0  0  0  0  0  0
   -2.6670    1.2480    0.8360 C   0  0  0  0  0  0  0  0  0  0  0  0
   -1.6390    1.5060    1.5830 C   0  0  0  0  0  0  0  0  0  0  0  0
   -0.3120    1.2070    1.9220 C   0  0  0  0  0  0  0  0  0  0  0  0
    0.5300    0.3580    2.2860 C   0  0  0  0  0  0  0  0  0  0  0  0
    0.8220   -1.0280    2.6530 C   0  0  0  0  0  0  0  0  0  0  0  0
  1  2  2  0
  2  3  1  0
  3  4  2  3
  3  6  1  0
  4  5  1  0
  6  7  2  3
  7  8  1  0
  7 28  1  0
  8  9  3  0
  9 10  1  0
 10 11  1  0
 11 12  1  0
 12 13  2  0
 12 14  1  0
 14 15  1  0
 15 16  1  0
 15 24  1  0
 16 17  2  0
 16 18  1  0
 18 19  1  0
 18 23  2  0
 19 20  1  0
 20 21  2  0
 20 22  1  0
 22 23  1  0
 23 24  1  0
 24 25  2  0
 25 26  1  0
 26 27  2  0
 27 28  1  0
M  END
