
     RDKit          3D

 26 28  0  0  0  0  0  0  0  0999 V2000
    7.0710    0.7250    0.5930 C   0  0  0  0  0  0  0  0  0  0  0  0
    6.0860   -0.1580    0.5660 C   0  0  0  0  0  0  0  0  0  0  0  0
    4.9780   -0.0330   -0.3690 C   0  0  0  0  0  0  0  0  0  0  0  0
    3.9130   -0.8190   -0.4950 N   0  0  0  0  0  0  0  0  0  0  0  0
    3.1000   -0.3610   -1.4970 C   0  0  0  0  0  0  0  0  0  0  0  0
    1.8500   -1.0380   -1.9260 C   0  0  0  0  0  0  0  0  0  0  0  0
    0.4590   -0.8010   -0.9620 S   0  0  0  0  0  0  0  0  0  0  0  0
   -0.4770    0.6060   -0.7560 C   0  0  0  0  0  0  0  0  0  0  0  0
   -1.5410    0.5500    0.1380 N   0  0  0  0  0  0  0  0  0  0  0  0
   -2.3500    1.5700    0.3740 C   0  0  0  0  0  0  0  0  0  0  0  0
   -3.3390    1.5380    1.1960 N   0  0  0  0  0  0  0  0  0  0  0  0
   -3.6060    0.3520    1.9090 C   0  0  0  0  0  0  0  0  0  0  0  0
   -2.6640   -0.3060    2.3900 O   0  0  0  0  0  0  0  0  0  0  0  0
   -4.9300   -0.0900    2.0780 N   0  0  0  0  0  0  0  0  0  0  0  0
   -5.1940   -1.3120    2.8150 C   0  0  0  0  0  0  0  0  0  0  0  0
   -4.4960   -2.4240    2.1150 C   0  0  0  0  0  0  0  0  0  0  0  0
   -3.5590   -3.2850    2.4610 C   0  0  0  0  0  0  0  0  0  0  0  0
   -3.6400   -3.8520    1.1230 C   0  0  0  0  0  0  0  0  0  0  0  0
   -4.5710   -2.9880    0.7960 C   0  0  0  0  0  0  0  0  0  0  0  0
   -2.1310    2.6930   -0.2740 O   0  0  0  0  0  0  0  0  0  0  0  0
   -1.1690    2.8460   -1.1250 C   0  0  0  0  0  0  0  0  0  0  0  0
   -1.0120    3.9490   -1.7160 O   0  0  0  0  0  0  0  0  0  0  0  0
   -0.3400    1.7790   -1.3600 N   0  0  0  0  0  0  0  0  0  0  0  0
    0.6840    2.0570   -2.3440 C   0  0  0  0  0  0  0  0  0  0  0  0
    3.7100    0.7490   -1.9920 C   0  0  0  0  0  0  0  0  0  0  0  0
    4.8450    0.9310   -1.2950 N   0  0  0  0  0  0  0  0  0  0  0  0
  1  2  2  0
  2  3  1  0
  3  4  2  0
  3 26  1  0
  4  5  1  0
  5  6  1  0
  5 25  2  0
  6  7  1  0
  7  8  1  0
  8  9  2  0
  8 23  1  0
  9 10  1  0
 10 11  2  3
 10 20  1  0
 11 12  1  0
 12 13  2  0
 12 14  1  0
 14 15  1  0
 15 16  1  0
 16 17  2  0
 16 19  1  0
 17 18  1  0
 18 19  2  0
 20 21  1  0
 21 22  2  0
 21 23  1  0
 23 24  1  0
 25 26  1  0
M  END
