
     RDKit          3D

 28 31  0  0  0  0  0  0  0  0999 V2000
   -5.7950   -0.0870    1.2600 C   0  0  0  0  0  0  0  0  0  0  0  0
   -4.9730    0.7490    0.3490 C   0  0  0  0  0  0  0  0  0  0  0  0
   -5.4410    1.8450   -0.2080 N   0  0  0  0  0  0  0  0  0  0  0  0
   -4.5190    2.3370   -0.9230 O   0  0  0  0  0  0  0  0  0  0  0  0
   -3.4300    1.6410   -0.8940 C   0  0  0  0  0  0  0  0  0  0  0  0
   -3.6200    0.5190   -0.0500 C   0  0  0  0  0  0  0  0  0  0  0  0
   -2.4730   -0.4220    0.1230 C   0  0  0  0  0  0  0  0  0  0  0  0
   -2.2300   -1.5210   -0.6890 C   0  0  0  0  0  0  0  0  0  0  0  0
   -1.1270   -2.4070   -0.5650 C   0  0  0  0  0  0  0  0  0  0  0  0
   -0.1700   -2.2360    0.4120 C   0  0  0  0  0  0  0  0  0  0  0  0
   -0.3690   -1.1560    1.2420 C   0  0  0  0  0  0  0  0  0  0  0  0
   -1.4850   -0.2940    1.0860 C   0  0  0  0  0  0  0  0  0  0  0  0
    0.9840   -3.1740    0.5350 C   0  0  0  0  0  0  0  0  0  0  0  0
    1.7640   -3.4230   -0.6430 N   0  0  0  0  0  0  0  0  0  0  0  0
    2.9920   -2.3770   -1.0650 S   0  0  2  0  0  0  0  0  0  0  0  0
    2.5920   -1.2870   -2.0170 O   0  0  0  0  0  0  0  0  0  0  0  0
    3.9900   -3.2060   -1.8960 O   0  0  0  0  0  0  0  0  0  0  0  0
    3.9530   -1.6880    0.2230 C   0  0  0  0  0  0  0  0  0  0  0  0
    3.4730   -0.4150    0.8100 C   0  0  0  0  0  0  0  0  0  0  0  0
    3.5460    0.7320   -0.1440 C   0  0  0  0  0  0  0  0  0  0  0  0
    2.3430    1.6270   -0.1660 C   0  0  0  0  0  0  0  0  0  0  0  0
    2.6810    2.9180    0.3040 C   0  0  0  0  0  0  0  0  0  0  0  0
    1.7880    3.9510    0.4130 C   0  0  0  0  0  0  0  0  0  0  0  0
    0.5070    3.6470    0.0270 C   0  0  0  0  0  0  0  0  0  0  0  0
    0.1130    2.3780   -0.4500 C   0  0  0  0  0  0  0  0  0  0  0  0
    1.0600    1.3600   -0.5420 C   0  0  0  0  0  0  0  0  0  0  0  0
   -1.2160    2.3910   -0.7490 O   0  0  0  0  0  0  0  0  0  0  0  0
   -2.1640    1.9210   -1.6060 C   0  0  0  0  0  0  0  0  0  0  0  0
  1  2  1  0
  2  3  2  0
  2  6  1  0
  3  4  1  0
  4  5  1  0
  5  6  2  0
  5 28  1  0
  6  7  1  0
  7  8  2  0
  7 12  1  0
  8  9  1  0
  9 10  2  0
 10 11  1  0
 10 13  1  0
 11 12  2  0
 13 14  1  0
 14 15  1  0
 15 16  2  0
 15 17  2  0
 15 18  1  1
 18 19  1  0
 19 20  1  0
 20 21  1  0
 21 22  1  0
 21 26  2  0
 22 23  2  0
 23 24  1  0
 24 25  2  0
 25 26  1  0
 25 27  1  0
 27 28  1  0
M  END
