
     RDKit          3D

 28 30  0  0  0  0  0  0  0  0999 V2000
   -2.2340   -4.0800   -1.8810 C   0  0  0  0  0  0  0  0  0  0  0  0
   -1.4300   -3.9210   -0.7650 O   0  0  0  0  0  0  0  0  0  0  0  0
   -1.1950   -2.5970   -0.4390 C   0  0  1  0  0  0  0  0  0  0  0  0
   -1.7410   -2.3610    0.9420 C   0  0  0  0  0  0  0  0  0  0  0  0
   -1.9990   -0.9390    1.2890 C   0  0  0  0  0  0  0  0  0  0  0  0
   -3.3390   -0.4280    0.8630 C   0  0  0  0  0  0  0  0  0  0  0  0
   -3.4750    0.7660    0.2150 C   0  0  0  0  0  0  0  0  0  0  0  0
   -4.9110    1.0220   -0.0850 C   0  0  0  0  0  0  0  0  0  0  0  0
   -2.1430    1.4510    0.0040 C   0  0  0  0  0  0  0  0  0  0  0  0
   -1.3520    1.2480   -1.1100 C   0  0  0  0  0  0  0  0  0  0  0  0
   -0.0790    1.8690   -1.2730 C   0  0  0  0  0  0  0  0  0  0  0  0
    0.4940    2.7200   -0.3620 C   0  0  0  0  0  0  0  0  0  0  0  0
   -0.3140    2.9100    0.7450 C   0  0  0  0  0  0  0  0  0  0  0  0
   -1.5800    2.3070    0.9310 C   0  0  0  0  0  0  0  0  0  0  0  0
    1.8670    3.2800   -0.5270 C   0  0  0  0  0  0  0  0  0  0  0  0
    2.5280    4.4950   -1.0780 C   0  0  0  0  0  0  0  0  0  0  0  0
    4.2390    4.2320   -0.7880 S   0  0  0  0  0  0  0  0  0  0  0  0
    3.9570    2.5490    0.0310 C   0  0  0  0  0  0  0  0  0  0  0  0
    2.8500    2.5130   -0.0530 N   0  0  0  0  0  0  0  0  0  0  0  0
    5.0420    1.7380    0.5360 N   0  0  0  0  0  0  0  0  0  0  0  0
    4.7570    0.4050    0.9050 C   0  0  0  0  0  0  0  0  0  0  0  0
    5.2420   -0.1070    1.9780 O   0  0  0  0  0  0  0  0  0  0  0  0
    3.8950   -0.5150    0.1160 C   0  0  0  0  0  0  0  0  0  0  0  0
    2.5170   -0.4890    0.7050 C   0  0  0  0  0  0  0  0  0  0  0  0
    2.1180   -1.8590    1.0780 C   0  0  0  0  0  0  0  0  0  0  0  0
    2.9170   -2.5810    1.7180 O   0  0  0  0  0  0  0  0  0  0  0  0
    0.8950   -2.3420    0.7340 O   0  0  0  0  0  0  0  0  0  0  0  0
    0.2280   -2.1800   -0.5000 C   0  0  0  0  0  0  0  0  0  0  0  0
  1  2  1  0
  3  2  1  1
  3  4  1  0
  3 28  1  0
  4  5  1  0
  5  6  1  0
  6  7  2  0
  7  8  1  0
  7  9  1  0
  9 10  2  0
  9 14  1  0
 10 11  1  0
 11 12  2  0
 12 13  1  0
 12 15  1  0
 13 14  2  0
 15 16  2  0
 15 19  1  0
 16 17  1  0
 17 18  1  0
 18 19  2  0
 18 20  1  0
 20 21  1  0
 21 22  2  0
 21 23  1  0
 23 24  1  0
 24 25  1  0
 25 26  2  0
 25 27  1  0
 27 28  1  0
M  END
