
     RDKit          3D

 20 20  0  0  0  0  0  0  0  0999 V2000
   -1.7360   -2.3330    1.2800 N   0  0  0  0  0  0  0  0  0  0  0  0
   -0.5860   -2.0260    0.5350 C   0  0  0  0  0  0  0  0  0  0  0  0
    0.0690   -2.9990    0.0300 O   0  0  0  0  0  0  0  0  0  0  0  0
   -0.0790   -0.6770    0.2920 C   0  0  1  0  0  0  0  0  0  0  0  0
   -1.0820    0.1280   -0.4580 C   0  0  0  0  0  0  0  0  0  0  0  0
   -2.3460    0.3150    0.1670 N   0  0  0  0  0  0  0  0  0  0  0  0
   -3.4580   -0.1450   -0.6770 C   0  0  0  0  0  0  0  0  0  0  0  0
   -4.7310    0.1890    0.0770 C   0  0  0  0  0  0  0  0  0  0  0  0
   -5.9090   -0.2160   -0.6540 N   0  0  0  0  0  0  0  0  0  0  0  0
    0.4150    0.0030    1.5470 C   0  0  0  0  0  0  0  0  0  0  0  0
    1.1510    1.1960    0.9780 C   0  0  0  0  0  0  0  0  0  0  0  0
    1.8970    0.5970   -0.1940 C   0  0  1  0  0  0  0  0  0  0  0  0
    3.2180    0.3360    0.2320 O   0  0  0  0  0  0  0  0  0  0  0  0
    4.3160    0.8890   -0.3940 C   0  0  0  0  0  0  0  0  0  0  0  0
    4.1470    1.6440   -1.3650 O   0  0  0  0  0  0  0  0  0  0  0  0
    5.6230    0.5850    0.0860 N   0  0  0  0  0  0  0  0  0  0  0  0
    6.7950    1.1330   -0.5270 C   0  0  0  0  0  0  0  0  0  0  0  0
    6.6570    1.9090   -1.5230 O   0  0  0  0  0  0  0  0  0  0  0  0
    8.0790    0.8340   -0.0560 O   0  0  0  0  0  0  0  0  0  0  0  0
    1.2140   -0.7090   -0.5240 C   0  0  0  0  0  0  0  0  0  0  0  0
  1  2  1  0
  2  3  2  0
  2  4  1  0
  4  5  1  6
  4 10  1  0
  4 20  1  0
  5  6  1  0
  6  7  1  0
  7  8  1  0
  8  9  1  0
 10 11  1  0
 11 12  1  0
 12 13  1  1
 12 20  1  0
 13 14  1  0
 14 15  2  0
 14 16  1  0
 16 17  1  0
 17 18  2  0
 17 19  1  0
M  CHG  2   6   1   9   1
M  END
