
     RDKit          3D

 27 29  0  0  0  0  0  0  0  0999 V2000
   -4.2330   -3.2240    0.4360 C   0  0  0  0  0  0  0  0  0  0  0  0
   -4.9600   -2.0190    0.0490 C   0  0  0  0  0  0  0  0  0  0  0  0
   -5.7390   -2.1670   -0.9620 O   0  0  0  0  0  0  0  0  0  0  0  0
   -4.8320   -0.7730    0.7330 C   0  0  0  0  0  0  0  0  0  0  0  0
   -3.7420   -0.3400    2.0220 S   0  0  0  0  0  0  0  0  0  0  0  0
   -2.2720   -1.2500    2.2860 C   0  0  0  0  0  0  0  0  0  0  0  0
   -1.2930   -0.9720    1.1960 C   0  0  0  0  0  0  0  0  0  0  0  0
   -1.3510   -1.3420    0.0190 O   0  0  0  0  0  0  0  0  0  0  0  0
   -0.1360   -0.2180    1.4290 N   0  0  0  0  0  0  0  0  0  0  0  0
    0.8490    0.1150    0.5090 C   0  0  0  0  0  0  0  0  0  0  0  0
    1.8450    0.6990    1.0350 N   0  0  0  0  0  0  0  0  0  0  0  0
    2.8440    1.0600    0.2850 N   0  0  0  0  0  0  0  0  0  0  0  0
    2.9070    0.8730   -0.9500 C   0  0  0  0  0  0  0  0  0  0  0  0
    3.8150    1.1230   -2.0580 C   0  0  0  0  0  0  0  0  0  0  0  0
    5.1900    1.4870   -1.6200 C   0  0  0  0  0  0  0  0  0  0  0  0
    5.8350    0.3640   -0.8720 C   0  0  1  0  0  0  0  0  0  0  0  0
    7.2500    0.7210   -0.4250 C   0  0  0  0  0  0  0  0  0  0  0  0
    7.4420   -0.3250    0.6760 C   0  0  0  0  0  0  0  0  0  0  0  0
    6.0320   -0.6670    1.0910 C   0  0  0  0  0  0  0  0  0  0  0  0
    5.1840    0.0950    0.2930 O   0  0  0  0  0  0  0  0  0  0  0  0
    1.2680    0.1310   -1.1770 S   0  0  0  0  0  0  0  0  0  0  0  0
    0.4880    1.1480   -2.0180 O   0  0  0  0  0  0  0  0  0  0  0  0
   -5.6450    0.2340    0.2640 C   0  0  0  0  0  0  0  0  0  0  0  0
   -6.6110    0.1600   -0.8410 C   0  0  0  0  0  0  0  0  0  0  0  0
   -7.2700    1.5120   -0.8880 C   0  0  0  0  0  0  0  0  0  0  0  0
   -6.2640    2.4020   -0.1760 C   0  0  0  0  0  0  0  0  0  0  0  0
   -5.6810    1.5210    0.7790 O   0  0  0  0  0  0  0  0  0  0  0  0
  1  2  1  0
  2  3  2  0
  2  4  1  0
  4  5  1  0
  4 23  2  3
  5  6  1  0
  6  7  1  0
  7  8  2  0
  7  9  1  0
  9 10  1  0
 10 11  2  0
 21 10  1  1
 11 12  1  0
 12 13  2  0
 13 14  1  0
 13 21  1  0
 14 15  1  0
 16 15  1  1
 16 17  1  0
 16 20  1  0
 17 18  1  0
 18 19  1  0
 19 20  1  0
 21 22  2  0
 23 24  1  0
 23 27  1  0
 24 25  1  0
 25 26  1  0
 26 27  1  0
M  END
