
     RDKit          3D

 27 29  0  0  0  0  0  0  0  0999 V2000
    8.2640    0.5590   -1.3040 C   0  0  0  0  0  0  0  0  0  0  0  0
    7.7310    0.7580    0.4110 S   0  0  0  0  0  0  0  0  0  0  0  0
    6.9280   -0.7730    0.9930 C   0  0  0  0  0  0  0  0  0  0  0  0
    5.7060   -0.9940    0.2780 N   0  0  0  0  0  0  0  0  0  0  0  0
    4.6500   -0.0550    0.3150 C   0  0  0  0  0  0  0  0  0  0  0  0
    4.8090    0.9860    0.9950 O   0  0  0  0  0  0  0  0  0  0  0  0
    3.3850   -0.2690   -0.4170 C   0  0  0  0  0  0  0  0  0  0  0  0
    2.3720    0.5520   -0.4280 C   0  0  0  0  0  0  0  0  0  0  0  0
    1.3030   -0.0310   -1.2800 C   0  0  2  0  0  0  0  0  0  0  0  0
    0.0910   -0.2680   -0.4600 N   0  0  0  0  0  0  0  0  0  0  0  0
   -0.0020   -1.1220    0.6540 C   0  0  0  0  0  0  0  0  0  0  0  0
    0.9980   -1.8040    1.0800 O   0  0  0  0  0  0  0  0  0  0  0  0
   -1.2990   -1.1050    1.1920 N   0  0  0  0  0  0  0  0  0  0  0  0
   -2.1380   -1.6510    2.2310 C   0  0  0  0  0  0  0  0  0  0  0  0
   -3.0830   -0.1340    2.6950 S   0  0  0  0  0  0  0  0  0  0  0  0
   -2.3010    0.9410    1.4070 C   0  0  0  0  0  0  0  0  0  0  0  0
   -2.0890   -0.1640    0.3660 C   0  0  2  0  0  0  0  0  0  0  0  0
   -3.2990   -0.8160   -0.1400 C   0  0  0  0  0  0  0  0  0  0  0  0
   -4.1740   -0.0940   -1.0490 C   0  0  0  0  0  0  0  0  0  0  0  0
   -4.8170    1.1920   -0.6550 C   0  0  2  0  0  0  0  0  0  0  0  0
   -5.6670    1.0990    0.5670 C   0  0  0  0  0  0  0  0  0  0  0  0
   -5.7920    1.6180   -1.8070 C   0  0  0  0  0  0  0  0  0  0  0  0
   -1.1800    0.3180   -0.6470 C   0  0  0  0  0  0  0  0  0  0  0  0
   -1.4090    1.1510   -1.6060 O   0  0  0  0  0  0  0  0  0  0  0  0
    1.8780   -1.3000   -1.7400 C   0  0  0  0  0  0  0  0  0  0  0  0
    1.2690   -2.1060   -2.5010 O   0  0  0  0  0  0  0  0  0  0  0  0
    3.1420   -1.3960   -1.1890 O   0  0  0  0  0  0  0  0  0  0  0  0
  1  2  1  0
  2  3  1  0
  3  4  1  0
  4  5  1  0
  5  6  2  0
  5  7  1  0
  7  8  2  0
  7 27  1  0
  8  9  1  0
  9 10  1  1
  9 25  1  0
 10 11  1  0
 10 23  1  0
 11 12  2  0
 11 13  1  0
 13 14  1  0
 13 17  1  0
 14 15  1  0
 15 16  1  0
 16 17  1  0
 17 18  1  6
 17 23  1  0
 18 19  1  0
 19 20  1  0
 20 21  1  1
 20 22  1  0
 23 24  2  0
 25 26  2  0
 25 27  1  0
M  END
