
     RDKit          3D

 28 30  0  0  0  0  0  0  0  0999 V2000
    6.5800    1.8750   -1.7190 C   0  0  0  0  0  0  0  0  0  0  0  0
    6.3530    0.7150   -0.8710 N   0  0  0  0  0  0  0  0  0  0  0  0
    7.1580    0.2200    0.1070 C   0  0  0  0  0  0  0  0  0  0  0  0
    6.5440   -0.8880    0.6400 C   0  0  0  0  0  0  0  0  0  0  0  0
    5.3950   -1.0620    0.0020 N   0  0  0  0  0  0  0  0  0  0  0  0
    5.2930   -0.0830   -0.9120 C   0  0  0  0  0  0  0  0  0  0  0  0
    3.9100    0.1170   -2.0360 S   0  0  0  0  0  0  0  0  0  0  0  0
    2.6920   -1.1700   -1.7840 C   0  0  0  0  0  0  0  0  0  0  0  0
    2.0670   -0.9770   -0.4280 C   0  0  0  0  0  0  0  0  0  0  0  0
    2.6620   -1.4200    0.5840 O   0  0  0  0  0  0  0  0  0  0  0  0
    0.8250   -0.3110   -0.2710 N   0  0  0  0  0  0  0  0  0  0  0  0
    0.2330    0.1950   -1.4930 C   0  0  0  0  0  0  0  0  0  0  0  0
   -1.0790    0.8950   -1.2550 C   0  0  0  0  0  0  0  0  0  0  0  0
   -1.8600    0.1900   -0.2460 N   0  0  0  0  0  0  0  0  0  0  0  0
   -3.2130   -0.1480   -0.5120 C   0  0  0  0  0  0  0  0  0  0  0  0
   -4.2650    0.8330   -0.1610 C   0  0  2  0  0  0  0  0  0  0  0  0
   -4.1260    2.0570   -0.8060 O   0  0  0  0  0  0  0  0  0  0  0  0
   -4.5890    0.9660    1.3070 C   0  0  0  0  0  0  0  0  0  0  0  0
   -4.9470   -0.3740    1.5490 O   0  0  0  0  0  0  0  0  0  0  0  0
   -5.6530   -0.7550    0.4100 C   0  0  1  0  0  0  0  0  0  0  0  0
   -7.1400   -0.6880    0.7960 C   0  0  0  0  0  0  0  0  0  0  0  0
   -8.0220   -1.1800   -0.6810 Cl  0  0  0  0  0  0  0  0  0  0  0  0
   -5.4890    0.2180   -0.5600 O   0  0  0  0  0  0  0  0  0  0  0  0
   -1.2570   -0.1630    0.9800 C   0  0  0  0  0  0  0  0  0  0  0  0
   -1.8650   -0.4580    2.0210 O   0  0  0  0  0  0  0  0  0  0  0  0
    0.2430   -0.1860    1.0230 C   0  0  2  0  0  0  0  0  0  0  0  0
    0.6690    1.0350    1.7960 C   0  0  0  0  0  0  0  0  0  0  0  0
    0.5790   -1.4370    1.8330 C   0  0  0  0  0  0  0  0  0  0  0  0
  1  2  1  0
  2  3  1  0
  2  6  1  0
  3  4  2  0
  4  5  1  0
  5  6  2  0
  6  7  1  0
  7  8  1  0
  8  9  1  0
  9 10  2  0
  9 11  1  0
 11 12  1  0
 11 26  1  0
 12 13  1  0
 13 14  1  0
 14 15  1  0
 14 24  1  0
 15 16  1  0
 16 17  1  6
 16 18  1  0
 16 23  1  0
 18 19  1  0
 19 20  1  0
 20 21  1  1
 20 23  1  0
 21 22  1  0
 24 25  2  0
 24 26  1  0
 26 27  1  1
 26 28  1  0
M  END
