
     RDKit          3D

 28 30  0  0  0  0  0  0  0  0999 V2000
    6.4340    2.2390    0.2470 C   0  0  0  0  0  0  0  0  0  0  0  0
    6.7380    0.7550    0.3760 C   0  0  0  0  0  0  0  0  0  0  0  0
    5.5030    0.0650    0.2890 O   0  0  0  0  0  0  0  0  0  0  0  0
    5.4200   -1.3020    0.3700 C   0  0  0  0  0  0  0  0  0  0  0  0
    6.4980   -1.9360    0.5280 O   0  0  0  0  0  0  0  0  0  0  0  0
    4.1480   -2.0580    0.2840 C   0  0  2  0  0  0  0  0  0  0  0  0
    4.3880   -3.4290    0.4020 O   0  0  0  0  0  0  0  0  0  0  0  0
    3.4310   -1.8380   -1.0060 C   0  0  0  0  0  0  0  0  0  0  0  0
    2.4990   -0.6990   -0.7120 C   0  0  0  0  0  0  0  0  0  0  0  0
    2.2820   -0.6630    0.6860 N   0  0  0  0  0  0  0  0  0  0  0  0
    0.6520   -0.8110    1.1260 S   0  0  2  0  0  0  0  0  0  0  0  0
    0.5980   -0.8250    2.6500 O   0  0  0  0  0  0  0  0  0  0  0  0
    0.0810   -2.1630    0.7160 O   0  0  0  0  0  0  0  0  0  0  0  0
   -0.3820    0.3810    0.5870 N   0  0  0  0  0  0  0  0  0  0  0  0
   -0.5620    0.5810   -0.7960 C   0  0  0  0  0  0  0  0  0  0  0  0
   -1.8330    1.3720   -0.9840 C   0  0  0  0  0  0  0  0  0  0  0  0
   -2.4630    1.3660    0.3740 C   0  0  1  0  0  0  0  0  0  0  0  0
   -3.8290    0.9050    0.3020 N   0  0  0  0  0  0  0  0  0  0  0  0
   -4.1160   -0.4070   -0.2030 C   0  0  0  0  0  0  0  0  0  0  0  0
   -5.3040   -0.2970   -1.1650 C   0  0  0  0  0  0  0  0  0  0  0  0
   -6.5690   -0.5150   -0.3650 C   0  0  0  0  0  0  0  0  0  0  0  0
   -7.0140    0.7490    0.2830 C   0  0  0  0  0  0  0  0  0  0  0  0
   -8.7670    0.9330    0.4290 Cl  0  0  0  0  0  0  0  0  0  0  0  0
   -6.2680    1.7490    0.7610 C   0  0  0  0  0  0  0  0  0  0  0  0
   -4.7910    1.8420    0.7610 C   0  0  0  0  0  0  0  0  0  0  0  0
   -4.2070    3.2370    1.3850 S   0  0  0  0  0  0  0  0  0  0  0  0
   -1.6030    0.5550    1.2700 C   0  0  0  0  0  0  0  0  0  0  0  0
    3.1830   -1.5650    1.3400 C   0  0  0  0  0  0  0  0  0  0  0  0
  1  2  1  0
  2  3  1  0
  3  4  1  0
  4  5  2  0
  4  6  1  0
  6  7  1  1
  6  8  1  0
  6 28  1  0
  8  9  1  0
  9 10  1  0
 11 10  1  1
 10 28  1  0
 11 12  2  0
 11 13  2  0
 11 14  1  0
 14 15  1  0
 14 27  1  0
 15 16  1  0
 16 17  1  0
 17 18  1  6
 17 27  1  0
 18 19  1  0
 18 25  1  0
 19 20  1  0
 20 21  1  0
 21 22  1  0
 22 23  1  0
 22 24  2  0
 24 25  1  0
 25 26  2  0
M  END
