
     RDKit          3D

 35 38  0  0  0  0  0  0  0  0999 V2000
    5.8200   -0.9590   -1.5010 C   0  0  0  0  0  0  0  0  0  0  0  0
    5.4850   -1.1760   -0.2660 C   0  0  0  0  0  0  0  0  0  0  0  0
    6.5740   -2.2130    0.7550 S   0  0  0  0  0  0  0  0  0  0  0  0
    5.6350   -2.5540    2.2210 C   0  0  0  0  0  0  0  0  0  0  0  0
    4.4680   -2.0110    2.4170 C   0  0  0  0  0  0  0  0  0  0  0  0
    3.8250   -1.1260    1.4990 C   0  0  0  0  0  0  0  0  0  0  0  0
    4.2510   -0.7190    0.3030 C   0  0  0  0  0  0  0  0  0  0  0  0
    3.3600    0.2120   -0.4310 C   0  0  0  0  0  0  0  0  0  0  0  0
    3.8380    1.1770   -1.2430 C   0  0  0  0  0  0  0  0  0  0  0  0
    2.9600    1.9640   -1.9900 C   0  0  0  0  0  0  0  0  0  0  0  0
    3.4830    2.9500   -2.8200 O   0  0  0  0  0  0  0  0  0  0  0  0
    1.6160    1.7690   -1.9060 C   0  0  0  0  0  0  0  0  0  0  0  0
    0.7300    2.5440   -2.6440 O   0  0  0  0  0  0  0  0  0  0  0  0
    1.0670    0.7750   -1.0700 C   0  0  0  0  0  0  0  0  0  0  0  0
   -0.3710    0.6700   -0.9780 C   0  0  0  0  0  0  0  0  0  0  0  0
   -1.0130    1.7620   -1.3660 O   0  0  0  0  0  0  0  0  0  0  0  0
   -1.1860   -0.3460   -0.5730 N   0  0  0  0  0  0  0  0  0  0  0  0
   -0.6850   -1.7070   -0.3730 C   0  0  0  0  0  0  0  0  0  0  0  0
   -0.3030   -2.0310    0.9870 C   0  0  0  0  0  0  0  0  0  0  0  0
   -0.5040   -1.2780    2.1350 C   0  0  0  0  0  0  0  0  0  0  0  0
    0.0390   -2.0220    3.1600 C   0  0  0  0  0  0  0  0  0  0  0  0
    0.5380   -3.1790    2.5910 C   0  0  0  0  0  0  0  0  0  0  0  0
    0.3160   -3.1430    1.3160 O   0  0  0  0  0  0  0  0  0  0  0  0
   -2.6050   -0.1630   -0.3410 C   0  0  0  0  0  0  0  0  0  0  0  0
   -3.3250   -1.2400    0.2100 C   0  0  0  0  0  0  0  0  0  0  0  0
   -4.6710   -1.1050    0.4540 C   0  0  0  0  0  0  0  0  0  0  0  0
   -5.6170   -2.6060    1.2060 Br  0  0  0  0  0  0  0  0  0  0  0  0
   -5.3210    0.0820    0.1620 C   0  0  0  0  0  0  0  0  0  0  0  0
   -4.6520    1.1420   -0.3700 C   0  0  0  0  0  0  0  0  0  0  0  0
   -5.3310    2.4090   -0.6530 C   0  0  0  0  0  0  0  0  0  0  0  0
   -4.6930    3.3640   -1.1690 O   0  0  0  0  0  0  0  0  0  0  0  0
   -6.6590    2.6140   -0.3750 O   0  0  0  0  0  0  0  0  0  0  0  0
   -7.2970    3.8670   -0.6580 C   0  0  0  0  0  0  0  0  0  0  0  0
   -3.2680    0.9860   -0.6160 C   0  0  0  0  0  0  0  0  0  0  0  0
    1.9610    0.0380   -0.3660 C   0  0  0  0  0  0  0  0  0  0  0  0
  1  2  2  0
  2  3  1  0
  2  7  1  0
  3  4  1  0
  4  5  2  0
  5  6  1  0
  6  7  2  0
  7  8  1  0
  8  9  2  0
  8 35  1  0
  9 10  1  0
 10 11  1  0
 10 12  2  0
 12 13  1  0
 12 14  1  0
 14 15  1  0
 14 35  2  0
 15 16  2  0
 15 17  1  0
 17 18  1  0
 17 24  1  0
 18 19  1  0
 19 20  2  0
 19 23  1  0
 20 21  1  0
 21 22  2  0
 22 23  1  0
 24 25  2  0
 24 34  1  0
 25 26  1  0
 26 27  1  0
 26 28  2  0
 28 29  1  0
 29 30  1  0
 29 34  2  0
 30 31  2  0
 30 32  1  0
 32 33  1  0
M  END
