
     RDKit          3D

 35 38  0  0  0  0  0  0  0  0999 V2000
   -9.3130    0.3850    2.4350 C   0  0  0  0  0  0  0  0  0  0  0  0
   -8.1090    0.0930    1.5750 C   0  0  0  0  0  0  0  0  0  0  0  0
   -7.0470   -0.6200    2.0550 C   0  0  0  0  0  0  0  0  0  0  0  0
   -5.9020   -0.9110    1.3140 C   0  0  0  0  0  0  0  0  0  0  0  0
   -4.8350   -1.7030    1.9120 C   0  0  0  0  0  0  0  0  0  0  0  0
   -3.5910   -1.2980    1.8460 C   0  0  0  0  0  0  0  0  0  0  0  0
   -3.1090   -0.0890    1.2210 C   0  0  0  0  0  0  0  0  0  0  0  0
   -1.7920   -0.0110    1.3570 C   0  0  0  0  0  0  0  0  0  0  0  0
   -0.8720    1.0670    0.8670 C   0  0  0  0  0  0  0  0  0  0  0  0
    0.0890    0.6360    0.0050 O   0  0  0  0  0  0  0  0  0  0  0  0
    0.0280    0.0660   -1.2400 C   0  0  0  0  0  0  0  0  0  0  0  0
   -1.0880   -0.1100   -1.7420 O   0  0  0  0  0  0  0  0  0  0  0  0
    1.3290   -0.2990   -1.8870 C   0  0  0  0  0  0  0  0  0  0  0  0
    2.2640    1.1370   -2.4310 S   0  0  0  0  0  0  0  0  0  0  0  0
    3.9830    0.5760   -2.6440 C   0  0  0  0  0  0  0  0  0  0  0  0
    4.4790    0.1280   -3.8290 C   0  0  0  0  0  0  0  0  0  0  0  0
    5.8050   -0.3020   -3.9190 C   0  0  0  0  0  0  0  0  0  0  0  0
    6.6270   -0.2770   -2.8000 C   0  0  0  0  0  0  0  0  0  0  0  0
    8.4350   -0.8370   -3.0450 Br  0  0  0  0  0  0  0  0  0  0  0  0
    6.1610    0.1670   -1.5850 C   0  0  0  0  0  0  0  0  0  0  0  0
    6.9210    0.1830   -0.3560 C   0  0  0  0  0  0  0  0  0  0  0  0
    6.5020    1.0280    0.5250 O   0  0  0  0  0  0  0  0  0  0  0  0
    8.0150   -0.6070   -0.0450 N   0  0  0  0  0  0  0  0  0  0  0  0
    8.6520   -0.4460    1.2590 C   0  0  1  0  0  0  0  0  0  0  0  0
    9.5070   -1.5120    1.7980 C   0  0  0  0  0  0  0  0  0  0  0  0
   10.1250   -0.2130    1.3100 C   0  0  0  0  0  0  0  0  0  0  0  0
    4.8200    0.5880   -1.5580 C   0  0  0  0  0  0  0  0  0  0  0  0
   -1.3810   -1.2030    2.0930 C   0  0  0  0  0  0  0  0  0  0  0  0
   -0.1800   -1.4860    2.4190 O   0  0  0  0  0  0  0  0  0  0  0  0
   -2.4790   -1.9750    2.3840 O   0  0  0  0  0  0  0  0  0  0  0  0
   -5.8490   -0.4460    0.0140 C   0  0  0  0  0  0  0  0  0  0  0  0
   -6.9210    0.2830   -0.4950 C   0  0  0  0  0  0  0  0  0  0  0  0
   -6.8420    0.7850   -1.8870 C   0  0  0  0  0  0  0  0  0  0  0  0
   -8.0350    0.5520    0.2670 C   0  0  0  0  0  0  0  0  0  0  0  0
   -9.1180    1.2850   -0.2400 O   0  0  0  0  0  0  0  0  0  0  0  0
  1  2  1  0
  2  3  2  0
  2 34  1  0
  3  4  1  0
  4  5  1  0
  4 31  2  0
  5  6  2  3
  6  7  1  0
  6 30  1  0
  7  8  2  0
  8  9  1  0
  8 28  1  0
  9 10  1  0
 10 11  1  0
 11 12  2  0
 11 13  1  0
 13 14  1  0
 14 15  1  0
 15 16  2  0
 15 27  1  0
 16 17  1  0
 17 18  2  0
 18 19  1  0
 18 20  1  0
 20 21  1  0
 20 27  2  0
 21 22  2  0
 21 23  1  0
 24 23  1  6
 24 25  1  0
 24 26  1  0
 25 26  1  0
 28 29  2  0
 28 30  1  0
 31 32  1  0
 32 33  1  0
 32 34  2  0
 34 35  1  0
M  END
