
     RDKit          3D

 34 38  0  0  0  0  0  0  0  0999 V2000
   -7.7550   -2.1630   -0.4280 C   0  0  0  0  0  0  0  0  0  0  0  0
   -6.4570   -2.5820    0.1310 C   0  0  0  0  0  0  0  0  0  0  0  0
   -6.3790   -3.6390    0.7830 O   0  0  0  0  0  0  0  0  0  0  0  0
   -5.2780   -1.7550   -0.0860 C   0  0  0  0  0  0  0  0  0  0  0  0
   -5.3440   -0.3750    0.0110 C   0  0  0  0  0  0  0  0  0  0  0  0
   -4.2530    0.4330   -0.1970 C   0  0  0  0  0  0  0  0  0  0  0  0
   -4.1200    1.7990   -0.1760 C   0  0  0  0  0  0  0  0  0  0  0  0
   -5.0130    2.8240    0.1020 C   0  0  0  0  0  0  0  0  0  0  0  0
   -4.6620    4.1570    0.0870 C   0  0  0  0  0  0  0  0  0  0  0  0
   -3.3640    4.4590   -0.2180 C   0  0  0  0  0  0  0  0  0  0  0  0
   -2.4580    3.4210   -0.4990 C   0  0  0  0  0  0  0  0  0  0  0  0
   -2.8210    2.1000   -0.4820 C   0  0  0  0  0  0  0  0  0  0  0  0
   -2.1270    0.9340   -0.6960 N   0  0  0  0  0  0  0  0  0  0  0  0
   -0.7830    0.8690   -1.1040 C   0  0  0  0  0  0  0  0  0  0  0  0
   -0.2660    2.0200   -1.4540 O   0  0  0  0  0  0  0  0  0  0  0  0
    0.1490   -0.2360   -1.2030 C   0  0  0  0  0  0  0  0  0  0  0  0
    0.8120   -0.4990    0.0830 N   0  0  0  0  0  0  0  0  0  0  0  0
    1.6590    0.5930    0.4280 C   0  0  0  0  0  0  0  0  0  0  0  0
    3.1320    0.3490    0.5140 C   0  0  0  0  0  0  0  0  0  0  0  0
    3.4960   -0.9670    0.9410 N   0  0  0  0  0  0  0  0  0  0  0  0
    4.8200   -1.3720    1.0520 C   0  0  0  0  0  0  0  0  0  0  0  0
    4.9700   -2.5970    1.4580 O   0  0  0  0  0  0  0  0  0  0  0  0
    5.9400   -0.5620    0.7600 C   0  0  0  0  0  0  0  0  0  0  0  0
    6.2660    0.6840    0.3660 C   0  0  0  0  0  0  0  0  0  0  0  0
    7.5400    0.9760    0.1860 N   0  0  0  0  0  0  0  0  0  0  0  0
    8.4590    0.3000    0.3160 C   0  0  0  0  0  0  0  0  0  0  0  0
    9.9720    0.2330    0.2070 C   0  0  0  0  0  0  0  0  0  0  0  0
    7.6460   -1.2860    0.8480 S   0  0  0  0  0  0  0  0  0  0  0  0
    2.4140   -1.8610    1.2570 C   0  0  0  0  0  0  0  0  0  0  0  0
    1.4440   -1.7830    0.0500 C   0  0  0  0  0  0  0  0  0  0  0  0
   -3.0110   -0.0800   -0.5170 C   0  0  0  0  0  0  0  0  0  0  0  0
   -2.9400   -1.4630   -0.6160 C   0  0  0  0  0  0  0  0  0  0  0  0
   -4.0330   -2.2700   -0.4080 C   0  0  0  0  0  0  0  0  0  0  0  0
   -3.8830   -4.0300   -0.5570 Cl  0  0  0  0  0  0  0  0  0  0  0  0
  1  2  1  0
  2  3  2  0
  2  4  1  0
  4  5  2  0
  4 33  1  0
  5  6  1  0
  6  7  1  0
  6 31  2  0
  7  8  2  0
  7 12  1  0
  8  9  1  0
  9 10  2  0
 10 11  1  0
 11 12  2  0
 12 13  1  0
 13 14  1  0
 13 31  1  0
 14 15  2  0
 14 16  1  0
 16 17  1  0
 17 18  1  0
 17 30  1  0
 18 19  1  0
 19 20  1  0
 20 21  1  0
 20 29  1  0
 21 22  2  0
 21 23  1  0
 23 24  2  0
 23 28  1  0
 24 25  1  0
 25 26  2  0
 26 27  1  0
 26 28  1  0
 29 30  1  0
 31 32  1  0
 32 33  2  0
 33 34  1  0
M  END
