
     RDKit          3D

 35 38  0  0  0  0  0  0  0  0999 V2000
    4.2650    1.0550    2.4240 C   0  0  0  0  0  0  0  0  0  0  0  0
    5.3180    1.5080    1.4490 C   0  0  0  0  0  0  0  0  0  0  0  0
    4.7210    2.2230    0.4050 O   0  0  0  0  0  0  0  0  0  0  0  0
    3.8090    1.6340   -0.4370 C   0  0  0  0  0  0  0  0  0  0  0  0
    3.4000    0.3260   -0.3800 C   0  0  0  0  0  0  0  0  0  0  0  0
    2.4670   -0.2250   -1.2580 C   0  0  0  0  0  0  0  0  0  0  0  0
    1.9000    0.5430   -2.2470 C   0  0  0  0  0  0  0  0  0  0  0  0
    0.9240    0.0280   -3.2150 C   0  0  0  0  0  0  0  0  0  0  0  0
   -0.7710    0.1390   -2.5820 S   0  0  0  0  0  0  0  0  0  0  0  0
   -0.8660   -0.9850   -1.1820 C   0  0  0  0  0  0  0  0  0  0  0  0
   -1.1340   -2.3330   -1.4410 C   0  0  0  0  0  0  0  0  0  0  0  0
   -1.2060   -3.2320   -0.4330 C   0  0  0  0  0  0  0  0  0  0  0  0
   -1.0260   -2.9070    0.9030 C   0  0  0  0  0  0  0  0  0  0  0  0
   -0.7640   -1.5780    1.1410 C   0  0  0  0  0  0  0  0  0  0  0  0
   -0.6830   -0.6140    0.1160 C   0  0  0  0  0  0  0  0  0  0  0  0
   -0.4190    0.7020    0.4510 O   0  0  0  0  0  0  0  0  0  0  0  0
   -1.3290    1.6840    0.1810 C   0  0  0  0  0  0  0  0  0  0  0  0
   -2.4970    1.6850    0.9160 C   0  0  0  0  0  0  0  0  0  0  0  0
   -3.4550    2.6390    0.7040 C   0  0  0  0  0  0  0  0  0  0  0  0
   -3.2850    3.6240   -0.2450 C   0  0  0  0  0  0  0  0  0  0  0  0
   -4.2850    4.5810   -0.4340 O   0  0  0  0  0  0  0  0  0  0  0  0
   -5.4620    4.5370    0.3450 C   0  0  0  0  0  0  0  0  0  0  0  0
   -2.1290    3.6410   -0.9870 C   0  0  0  0  0  0  0  0  0  0  0  0
   -1.8880    4.9950   -2.2970 Br  0  0  0  0  0  0  0  0  0  0  0  0
   -1.1500    2.6530   -0.7590 C   0  0  0  0  0  0  0  0  0  0  0  0
   -1.0450   -3.6430    2.1550 C   0  0  0  0  0  0  0  0  0  0  0  0
   -0.6530   -5.0700    2.1190 C   0  0  0  0  0  0  0  0  0  0  0  0
   -1.4020   -5.9440    1.2400 C   0  0  0  0  0  0  0  0  0  0  0  0
   -1.9070   -6.9770    1.7380 O   0  0  0  0  0  0  0  0  0  0  0  0
   -1.6600   -5.8040   -0.1450 N   0  0  0  0  0  0  0  0  0  0  0  0
   -1.4980   -4.6070   -0.8940 C   0  0  0  0  0  0  0  0  0  0  0  0
   -1.6150   -4.6980   -2.1480 O   0  0  0  0  0  0  0  0  0  0  0  0
    2.3030    1.8640   -2.3170 C   0  0  0  0  0  0  0  0  0  0  0  0
    3.2210    2.4000   -1.4510 C   0  0  0  0  0  0  0  0  0  0  0  0
    3.6200    3.7370   -1.5320 O   0  0  0  0  0  0  0  0  0  0  0  0
  1  2  1  0
  2  3  1  0
  3  4  1  0
  4  5  2  0
  4 34  1  0
  5  6  1  0
  6  7  2  0
  7  8  1  0
  7 33  1  0
  8  9  1  0
  9 10  1  0
 10 11  2  0
 10 15  1  0
 11 12  1  0
 12 13  2  0
 12 31  1  0
 13 14  1  0
 13 26  1  0
 14 15  2  0
 15 16  1  0
 16 17  1  0
 17 18  2  0
 17 25  1  0
 18 19  1  0
 19 20  2  0
 20 21  1  0
 20 23  1  0
 21 22  1  0
 23 24  1  0
 23 25  2  0
 26 27  1  0
 27 28  1  0
 28 29  2  0
 28 30  1  0
 30 31  1  0
 31 32  2  0
 33 34  2  0
 34 35  1  0
M  END
