
     RDKit          3D

 34 36  0  0  0  0  0  0  0  0999 V2000
    6.3670    1.2570    3.3330 C   0  0  0  0  0  0  0  0  0  0  0  0
    6.0270    0.7130    1.9910 C   0  0  0  0  0  0  0  0  0  0  0  0
    6.7750    0.9660    0.9410 C   0  0  0  0  0  0  0  0  0  0  0  0
    7.9950    1.8220    1.1130 C   0  0  0  0  0  0  0  0  0  0  0  0
    6.5160    0.4680   -0.4190 C   0  0  2  0  0  0  0  0  0  0  0  0
    6.3750    1.5510   -1.4600 C   0  0  0  0  0  0  0  0  0  0  0  0
    5.1050    2.3190   -1.3980 C   0  0  0  0  0  0  0  0  0  0  0  0
    4.0110    1.7200   -0.5820 C   0  0  0  0  0  0  0  0  0  0  0  0
    4.0630    0.2480   -0.6030 C   0  0  0  0  0  0  0  0  0  0  0  0
    2.8650   -0.4780   -0.7040 C   0  0  0  0  0  0  0  0  0  0  0  0
    1.6800    0.2240   -0.7830 O   0  0  0  0  0  0  0  0  0  0  0  0
    0.3910   -0.2970   -0.8870 C   0  0  2  0  0  0  0  0  0  0  0  0
   -0.2970    0.1730   -2.1770 C   0  0  0  0  0  0  0  0  0  0  0  0
   -0.3980    0.2050    0.3020 C   0  0  0  0  0  0  0  0  0  0  0  0
   -1.7780   -0.2630    0.3150 N   0  0  0  0  0  0  0  0  0  0  0  0
   -2.1210   -1.6320    0.3860 C   0  0  0  0  0  0  0  0  0  0  0  0
   -1.1270   -2.4460    0.4420 O   0  0  0  0  0  0  0  0  0  0  0  0
   -3.4810   -2.2000    0.3990 C   0  0  0  0  0  0  0  0  0  0  0  0
   -4.5270   -1.2240    0.3330 N   0  0  0  0  0  0  0  0  0  0  0  0
   -5.8860   -1.6890    0.3420 C   0  0  0  0  0  0  0  0  0  0  0  0
   -6.0770   -2.9460    0.4080 O   0  0  0  0  0  0  0  0  0  0  0  0
   -7.0320   -0.8000    0.2790 C   0  0  0  0  0  0  0  0  0  0  0  0
   -8.2980   -1.3570    0.2950 C   0  0  0  0  0  0  0  0  0  0  0  0
   -9.3950   -0.5410    0.2370 C   0  0  0  0  0  0  0  0  0  0  0  0
   -9.2470    0.8240    0.1630 C   0  0  0  0  0  0  0  0  0  0  0  0
  -10.5000    1.6310    0.1030 C   0  0  0  0  0  0  0  0  0  0  0  0
  -10.8910    1.9360    1.4660 N   0  0  0  0  0  0  0  0  0  0  0  0
   -8.0340    1.3790    0.1460 N   0  0  0  0  0  0  0  0  0  0  0  0
   -6.9540    0.5730    0.2040 C   0  0  0  0  0  0  0  0  0  0  0  0
    2.9680   -1.8440   -0.7170 C   0  0  0  0  0  0  0  0  0  0  0  0
    4.1930   -2.5150   -0.6340 C   0  0  0  0  0  0  0  0  0  0  0  0
    4.2240   -4.0030   -0.6540 C   0  0  0  0  0  0  0  0  0  0  0  0
    5.3150   -1.7460   -0.5390 C   0  0  0  0  0  0  0  0  0  0  0  0
    5.2910   -0.3660   -0.5200 C   0  0  0  0  0  0  0  0  0  0  0  0
  1  2  1  0
  2  3  2  3
  3  4  1  0
  5  3  1  1
  5  6  1  0
  5 34  1  0
  6  7  1  0
  7  8  1  0
  8  9  1  0
  9 10  2  0
  9 34  1  0
 10 11  1  0
 10 30  1  0
 11 12  1  0
 12 13  1  6
 12 14  1  0
 14 15  1  0
 15 16  1  0
 16 17  2  0
 16 18  1  0
 18 19  1  0
 19 20  1  0
 20 21  2  0
 20 22  1  0
 22 23  2  0
 22 29  1  0
 23 24  1  0
 24 25  2  0
 25 26  1  0
 25 28  1  0
 26 27  1  0
 28 29  2  0
 30 31  2  0
 31 32  1  0
 31 33  1  0
 33 34  2  0
M  CHG  1  28   1
M  END
