
     RDKit          3D

 34 36  0  0  0  0  0  0  0  0999 V2000
   -3.5730    2.4970   -1.0300 C   0  0  0  0  0  0  0  0  0  0  0  0
   -2.7410    3.6400   -0.5830 C   0  0  0  0  0  0  0  0  0  0  0  0
   -3.4250    4.8400   -0.3300 C   0  0  0  0  0  0  0  0  0  0  0  0
   -2.7370    5.9690    0.0660 C   0  0  0  0  0  0  0  0  0  0  0  0
   -3.4420    7.2130    0.3300 C   0  0  0  0  0  0  0  0  0  0  0  0
   -4.0090    8.2060    0.5620 N   0  0  0  0  0  0  0  0  0  0  0  0
   -1.3850    5.9030    0.2080 C   0  0  0  0  0  0  0  0  0  0  0  0
   -0.7140    4.7220   -0.0400 C   0  0  0  0  0  0  0  0  0  0  0  0
   -1.3810    3.5660   -0.4410 C   0  0  0  0  0  0  0  0  0  0  0  0
   -0.6620    2.2870   -0.6660 C   0  0  0  0  0  0  0  0  0  0  0  0
   -0.6750    1.4140    0.5200 C   0  0  0  0  0  0  0  0  0  0  0  0
   -0.0880    0.1380    0.4910 N   0  0  0  0  0  0  0  0  0  0  0  0
   -0.8380   -0.8490   -0.2560 C   0  0  0  0  0  0  0  0  0  0  0  0
   -2.0800   -1.2570    0.4580 C   0  0  0  0  0  0  0  0  0  0  0  0
   -2.3690   -0.7260    1.5670 O   0  0  0  0  0  0  0  0  0  0  0  0
   -2.9350   -2.2250   -0.0730 N   0  0  0  0  0  0  0  0  0  0  0  0
   -4.1480   -2.6200    0.6420 C   0  0  0  0  0  0  0  0  0  0  0  0
   -4.1080   -4.1140    0.9250 C   0  0  0  0  0  0  0  0  0  0  0  0
   -3.7110   -4.9320   -0.2740 C   0  0  1  0  0  0  0  0  0  0  0  0
   -4.6820   -4.9410   -1.2590 O   0  0  0  0  0  0  0  0  0  0  0  0
   -2.4490   -4.3870   -0.8940 C   0  0  0  0  0  0  0  0  0  0  0  0
   -2.7250   -2.9470   -1.3240 C   0  0  0  0  0  0  0  0  0  0  0  0
    1.3190    0.1170    0.1340 C   0  0  2  0  0  0  0  0  0  0  0  0
    1.6510    0.4480   -1.2760 C   0  0  0  0  0  0  0  0  0  0  0  0
    2.1520   -0.8790    0.8330 C   0  0  1  0  0  0  0  0  0  0  0  0
    1.8360   -2.2620    0.7280 N   0  0  0  0  0  0  0  0  0  0  0  0
    3.5940   -0.6540    0.5200 C   0  0  0  0  0  0  0  0  0  0  0  0
    4.3040    0.3130    1.2080 C   0  0  0  0  0  0  0  0  0  0  0  0
    5.6480    0.4900    0.9300 C   0  0  0  0  0  0  0  0  0  0  0  0
    6.2710   -0.2960   -0.0290 C   0  0  0  0  0  0  0  0  0  0  0  0
    7.7270   -0.1400   -0.3420 C   0  0  0  0  0  0  0  0  0  0  0  0
    8.3400    0.7210    0.5630 O   0  0  0  0  0  0  0  0  0  0  0  0
    5.5190   -1.2400   -0.6840 C   0  0  0  0  0  0  0  0  0  0  0  0
    4.1850   -1.4350   -0.4260 C   0  0  0  0  0  0  0  0  0  0  0  0
  1  2  1  0
  2  3  2  0
  2  9  1  0
  3  4  1  0
  4  5  1  0
  4  7  2  0
  5  6  3  0
  7  8  1  0
  8  9  2  0
  9 10  1  0
 10 11  1  0
 11 12  1  0
 12 13  1  0
 12 23  1  0
 13 14  1  0
 14 15  2  0
 14 16  1  0
 16 17  1  0
 16 22  1  0
 17 18  1  0
 18 19  1  0
 19 20  1  6
 19 21  1  0
 21 22  1  0
 23 24  1  6
 23 25  1  0
 25 26  1  6
 25 27  1  0
 27 28  2  0
 27 34  1  0
 28 29  1  0
 29 30  2  0
 30 31  1  0
 30 33  1  0
 31 32  1  0
 33 34  2  0
M  CHG  1  26   1
M  END
