
     RDKit          3D

 34 36  0  0  0  0  0  0  0  0999 V2000
   -6.5660   -2.1110    0.7900 C   0  0  0  0  0  0  0  0  0  0  0  0
   -5.1000   -1.9040    1.0550 C   0  0  0  0  0  0  0  0  0  0  0  0
   -4.4220   -1.1470   -0.0550 C   0  0  1  0  0  0  0  0  0  0  0  0
   -4.9580    0.1940   -0.2990 C   0  0  0  0  0  0  0  0  0  0  0  0
   -5.7310    0.8770    0.6420 C   0  0  0  0  0  0  0  0  0  0  0  0
   -6.2310    2.1330    0.4200 C   0  0  0  0  0  0  0  0  0  0  0  0
   -7.0510    2.8040    1.4770 C   0  0  0  0  0  0  0  0  0  0  0  0
   -5.9550    2.7390   -0.7840 C   0  0  0  0  0  0  0  0  0  0  0  0
   -5.1890    2.1040   -1.7600 C   0  0  0  0  0  0  0  0  0  0  0  0
   -4.7020    0.8300   -1.4930 C   0  0  0  0  0  0  0  0  0  0  0  0
   -3.8830    0.1440   -2.5340 C   0  0  0  0  0  0  0  0  0  0  0  0
   -2.9420   -1.1500    0.1310 C   0  0  0  0  0  0  0  0  0  0  0  0
   -2.3660   -0.1800    0.9590 C   0  0  0  0  0  0  0  0  0  0  0  0
   -1.0060   -0.1230    1.1700 C   0  0  0  0  0  0  0  0  0  0  0  0
   -0.4210    0.8390    1.9920 O   0  0  0  0  0  0  0  0  0  0  0  0
   -1.1990    1.8160    2.6560 C   0  0  0  0  0  0  0  0  0  0  0  0
   -0.1640   -1.0470    0.5520 C   0  0  0  0  0  0  0  0  0  0  0  0
    1.2020   -0.9530    0.7940 O   0  0  0  0  0  0  0  0  0  0  0  0
    2.0810   -1.8640    0.1930 C   0  0  0  0  0  0  0  0  0  0  0  0
    3.4960   -1.5450    0.6280 C   0  0  0  0  0  0  0  0  0  0  0  0
    3.9410   -0.2460    0.2730 N   0  0  2  0  0  0  0  0  0  0  0  0
    2.8750    0.6750   -0.1020 C   0  0  0  0  0  0  0  0  0  0  0  0
    4.9290   -0.1830   -0.7830 C   0  0  2  0  0  0  0  0  0  0  0  0
    5.7270   -1.4250   -0.9680 C   0  0  0  0  0  0  0  0  0  0  0  0
    6.8240   -1.1260   -2.0010 C   0  0  0  0  0  0  0  0  0  0  0  0
    7.7890   -0.1940   -1.3430 C   0  0  0  0  0  0  0  0  0  0  0  0
    7.1340    0.9550   -0.7940 N   0  0  0  0  0  0  0  0  0  0  0  0
    7.9230    2.0710   -0.4020 C   0  0  0  0  0  0  0  0  0  0  0  0
    7.3920    3.2570    0.1510 N   0  0  0  0  0  0  0  0  0  0  0  0
    9.1730    2.0400   -0.5400 O   0  0  0  0  0  0  0  0  0  0  0  0
    5.7090    1.0700   -0.6060 C   0  0  0  0  0  0  0  0  0  0  0  0
   -0.7370   -1.9860   -0.2510 C   0  0  0  0  0  0  0  0  0  0  0  0
   -2.1090   -2.0620   -0.4780 C   0  0  0  0  0  0  0  0  0  0  0  0
   -2.6990   -3.0460   -1.3180 N   0  0  0  0  0  0  0  0  0  0  0  0
  1  2  1  0
  3  2  1  1
  3  4  1  0
  3 12  1  0
  4  5  2  0
  4 10  1  0
  5  6  1  0
  6  7  1  0
  6  8  2  0
  8  9  1  0
  9 10  2  0
 10 11  1  0
 12 13  2  0
 12 33  1  0
 13 14  1  0
 14 15  1  0
 14 17  2  0
 15 16  1  0
 17 18  1  0
 17 32  1  0
 18 19  1  0
 19 20  1  0
 20 21  1  0
 21 22  1  6
 21 23  1  0
 23 24  1  1
 23 31  1  0
 24 25  1  0
 25 26  1  0
 26 27  1  0
 27 28  1  0
 27 31  1  0
 28 29  1  0
 28 30  2  0
 32 33  2  0
 33 34  1  0
M  CHG  1  21   1
M  END
