
     RDKit          3D

 33 35  0  0  0  0  0  0  0  0999 V2000
    9.2870    1.6000    0.8260 C   0  0  0  0  0  0  0  0  0  0  0  0
    8.8740    2.4760   -0.2610 N   0  0  0  0  0  0  0  0  0  0  0  0
    7.4880    2.2650   -0.6290 C   0  0  0  0  0  0  0  0  0  0  0  0
    7.0780    0.8260   -0.2660 C   0  0  0  0  0  0  0  0  0  0  0  0
    6.0980    0.7220    0.5790 C   0  0  0  0  0  0  0  0  0  0  0  0
    5.5310   -0.5290    1.0770 C   0  0  0  0  0  0  0  0  0  0  0  0
    4.0710   -0.6210    0.6980 C   0  0  0  0  0  0  0  0  0  0  0  0
    3.6700   -1.2010   -0.4820 C   0  0  0  0  0  0  0  0  0  0  0  0
    2.3410   -1.2930   -0.8450 C   0  0  0  0  0  0  0  0  0  0  0  0
    1.3410   -0.7890   -0.0040 C   0  0  0  0  0  0  0  0  0  0  0  0
   -0.0010   -0.9300   -0.4450 N   0  0  0  0  0  0  0  0  0  0  0  0
   -1.1640   -0.4250    0.1370 C   0  0  0  0  0  0  0  0  0  0  0  0
   -0.9800    0.3320    1.1820 O   0  0  0  0  0  0  0  0  0  0  0  0
   -2.5480   -0.6360   -0.2300 C   0  0  0  0  0  0  0  0  0  0  0  0
   -3.4510    0.2420    0.2820 C   0  0  0  0  0  0  0  0  0  0  0  0
   -4.8750    0.2070    0.0270 C   0  0  0  0  0  0  0  0  0  0  0  0
   -5.7620    1.2220    0.6390 C   0  0  0  0  0  0  0  0  0  0  0  0
   -5.2730    2.1190    1.3850 O   0  0  0  0  0  0  0  0  0  0  0  0
   -7.1470    1.2540    0.4380 N   0  0  0  0  0  0  0  0  0  0  0  0
   -8.0320    2.2400    1.0300 C   0  0  1  0  0  0  0  0  0  0  0  0
   -8.9790    2.8940   -0.0060 C   0  0  0  0  0  0  0  0  0  0  0  0
   -9.4770    2.0390    1.1020 C   0  0  2  0  0  0  0  0  0  0  0  0
  -10.2180    2.7460    2.2180 C   0  0  0  0  0  0  0  0  0  0  0  0
   -5.3050   -0.7500   -0.7540 C   0  0  0  0  0  0  0  0  0  0  0  0
   -4.4740   -1.7280   -1.3350 N   0  0  0  0  0  0  0  0  0  0  0  0
   -3.0060   -1.6940   -1.0630 C   0  0  0  0  0  0  0  0  0  0  0  0
   -2.4200   -2.8490   -1.2640 C   0  0  0  0  0  0  0  0  0  0  0  0
   -1.2100   -3.4750   -0.7520 C   0  0  0  0  0  0  0  0  0  0  0  0
   -3.0990   -3.7380   -2.3190 C   0  0  0  0  0  0  0  0  0  0  0  0
    1.7480   -0.2150    1.1650 C   0  0  0  0  0  0  0  0  0  0  0  0
    3.0990   -0.1230    1.5290 C   0  0  0  0  0  0  0  0  0  0  0  0
    7.7430   -0.1900   -0.8330 O   0  0  0  0  0  0  0  0  0  0  0  0
    7.7320   -1.5420   -0.8970 C   0  0  0  0  0  0  0  0  0  0  0  0
  1  2  1  0
  2  3  1  0
  3  4  1  0
  4  5  2  3
  4 32  1  0
  5  6  1  0
  6  7  1  0
  7  8  2  0
  7 31  1  0
  8  9  1  0
  9 10  2  0
 10 11  1  0
 10 30  1  0
 11 12  1  0
 12 13  2  0
 12 14  1  0
 14 15  2  0
 14 26  1  0
 15 16  1  0
 16 17  1  0
 16 24  2  0
 17 18  2  0
 17 19  1  0
 20 19  1  6
 20 21  1  0
 20 22  1  0
 21 22  1  0
 22 23  1  1
 24 25  1  0
 25 26  1  0
 26 27  2  3
 27 28  1  0
 27 29  1  0
 30 31  2  0
 32 33  1  0
M  CHG  1   2   1
M  END
