
     RDKit          3D

 35 38  0  0  0  0  0  0  0  0999 V2000
    2.3690   -4.8420   -0.3040 C   0  0  0  0  0  0  0  0  0  0  0  0
    2.0880   -3.4820   -0.1630 O   0  0  0  0  0  0  0  0  0  0  0  0
    0.8530   -2.8930   -0.3930 C   0  0  0  0  0  0  0  0  0  0  0  0
   -0.2480   -3.6040   -0.7940 C   0  0  0  0  0  0  0  0  0  0  0  0
   -1.4630   -2.9380   -1.0080 C   0  0  0  0  0  0  0  0  0  0  0  0
   -1.6290   -1.5890   -0.8360 C   0  0  0  0  0  0  0  0  0  0  0  0
   -2.8800   -0.8610   -0.9970 C   0  0  0  0  0  0  0  0  0  0  0  0
   -2.7540    0.4460   -0.9850 N   0  0  0  0  0  0  0  0  0  0  0  0
   -3.7650    1.3580   -1.1230 N   0  0  0  0  0  0  0  0  0  0  0  0
   -3.5420    2.7940   -1.0980 C   0  0  2  0  0  0  0  0  0  0  0  0
   -2.5440    3.1200   -2.1940 C   0  0  0  0  0  0  0  0  0  0  0  0
   -2.9710    3.2420    0.2330 C   0  0  0  0  0  0  0  0  0  0  0  0
   -5.0760    0.8670   -1.2990 C   0  0  0  0  0  0  0  0  0  0  0  0
   -6.0050    1.5290   -1.8070 O   0  0  0  0  0  0  0  0  0  0  0  0
   -5.3400   -0.5110   -0.8490 C   0  0  2  0  0  0  0  0  0  0  0  0
   -5.6420   -0.3730    0.6630 C   0  0  0  0  0  0  0  0  0  0  0  0
   -6.2690   -1.6700    1.0060 C   0  0  0  0  0  0  0  0  0  0  0  0
   -5.6650   -2.7460    0.5580 C   0  0  0  0  0  0  0  0  0  0  0  0
   -4.4140   -2.7050   -0.2530 C   0  0  0  0  0  0  0  0  0  0  0  0
   -4.2260   -1.4880   -1.1020 C   0  0  2  0  0  0  0  0  0  0  0  0
   -0.4790   -0.9010   -0.4260 C   0  0  0  0  0  0  0  0  0  0  0  0
    0.7230   -1.5360   -0.2130 C   0  0  0  0  0  0  0  0  0  0  0  0
    1.9070   -0.7820    0.2150 C   0  0  0  0  0  0  0  0  0  0  0  0
    3.1460   -0.9600   -0.3490 C   0  0  0  0  0  0  0  0  0  0  0  0
    4.2570   -0.2350    0.0690 C   0  0  0  0  0  0  0  0  0  0  0  0
    4.1620    0.7010    1.0750 C   0  0  0  0  0  0  0  0  0  0  0  0
    5.3010    1.4810    1.5400 C   0  0  0  0  0  0  0  0  0  0  0  0
    5.1310    2.2860    2.4840 O   0  0  0  0  0  0  0  0  0  0  0  0
    6.5920    1.3740    0.9770 N   0  0  0  0  0  0  0  0  0  0  0  0
    7.7230    2.1560    1.4430 C   0  0  0  0  0  0  0  0  0  0  0  0
    7.3530    3.5910    1.2460 C   0  0  0  0  0  0  0  0  0  0  0  0
    8.2180    4.6490    1.5920 N   0  0  0  0  0  0  0  0  0  0  0  0
    6.2370    3.9160    0.7530 O   0  0  0  0  0  0  0  0  0  0  0  0
    2.9120    0.8830    1.6480 C   0  0  0  0  0  0  0  0  0  0  0  0
    1.8220    0.1550    1.2200 C   0  0  0  0  0  0  0  0  0  0  0  0
  1  2  1  0
  2  3  1  0
  3  4  2  0
  3 22  1  0
  4  5  1  0
  5  6  2  0
  6  7  1  0
  6 21  1  0
  7  8  2  0
  7 20  1  0
  8  9  1  0
  9 10  1  0
  9 13  1  0
 10 11  1  6
 10 12  1  0
 13 14  2  0
 13 15  1  0
 15 16  1  1
 15 20  1  0
 16 17  1  0
 17 18  2  0
 18 19  1  0
 20 19  1  1
 21 22  2  0
 22 23  1  0
 23 24  2  0
 23 35  1  0
 24 25  1  0
 25 26  2  0
 26 27  1  0
 26 34  1  0
 27 28  2  0
 27 29  1  0
 29 30  1  0
 30 31  1  0
 31 32  1  0
 31 33  2  0
 34 35  2  0
M  END
