
     RDKit          3D

 34 36  0  0  0  0  0  0  0  0999 V2000
    4.3790   -4.1780   -2.9690 C   0  0  0  0  0  0  0  0  0  0  0  0
    3.2950   -3.4630   -3.1150 C   0  0  0  0  0  0  0  0  0  0  0  0
    2.3830   -3.1000   -1.9910 C   0  0  0  0  0  0  0  0  0  0  0  0
    2.3290   -1.5900   -1.8920 C   0  0  0  0  0  0  0  0  0  0  0  0
    1.4130   -1.1370   -0.7610 C   0  0  2  0  0  0  0  0  0  0  0  0
    1.8570   -1.6390    0.5650 C   0  0  0  0  0  0  0  0  0  0  0  0
    3.1960   -1.1570    0.8670 N   0  0  0  0  0  0  0  0  0  0  0  0
    3.5490    0.2090    0.9880 C   0  0  0  0  0  0  0  0  0  0  0  0
    2.6540    1.0900    0.8280 O   0  0  0  0  0  0  0  0  0  0  0  0
    4.9010    0.6530    1.2890 C   0  0  0  0  0  0  0  0  0  0  0  0
    5.9400   -0.1860    1.6250 C   0  0  0  0  0  0  0  0  0  0  0  0
    7.2190    0.3110    1.9000 C   0  0  0  0  0  0  0  0  0  0  0  0
    7.5010    1.6570    1.8500 C   0  0  0  0  0  0  0  0  0  0  0  0
    8.8730    2.1570    2.1490 C   0  0  0  0  0  0  0  0  0  0  0  0
    6.4710    2.5080    1.5150 C   0  0  0  0  0  0  0  0  0  0  0  0
    6.7210    3.8700    1.4550 O   0  0  0  0  0  0  0  0  0  0  0  0
    5.2110    2.0060    1.2450 C   0  0  0  0  0  0  0  0  0  0  0  0
    0.0570   -1.4720   -1.0950 N   0  0  1  0  0  0  0  0  0  0  0  0
   -0.5300   -2.5030   -0.2900 C   0  0  0  0  0  0  0  0  0  0  0  0
   -1.9880   -2.4210   -0.7730 C   0  0  0  0  0  0  0  0  0  0  0  0
   -2.1750   -1.0110   -1.1980 C   0  0  1  0  0  0  0  0  0  0  0  0
   -3.3040   -0.3510   -0.5970 N   0  0  0  0  0  0  0  0  0  0  0  0
   -4.3000    0.2960   -1.3410 C   0  0  0  0  0  0  0  0  0  0  0  0
   -4.1780    0.2840   -2.5940 O   0  0  0  0  0  0  0  0  0  0  0  0
   -5.4490    0.9710   -0.7540 C   0  0  0  0  0  0  0  0  0  0  0  0
   -5.6540    1.0340    0.6070 C   0  0  0  0  0  0  0  0  0  0  0  0
   -6.7740    1.6980    1.1230 C   0  0  0  0  0  0  0  0  0  0  0  0
   -7.7020    2.3060    0.3200 C   0  0  0  0  0  0  0  0  0  0  0  0
   -8.8530    2.9880    0.8940 C   0  0  0  0  0  0  0  0  0  0  0  0
   -9.0160    3.0250    2.3700 C   0  0  0  0  0  0  0  0  0  0  0  0
   -9.7580    3.5730    0.1950 N   0  0  0  0  0  0  0  0  0  0  0  0
   -7.4900    2.2390   -1.0400 C   0  0  0  0  0  0  0  0  0  0  0  0
   -6.3920    1.5890   -1.5620 C   0  0  0  0  0  0  0  0  0  0  0  0
   -0.8590   -0.3560   -0.8060 C   0  0  0  0  0  0  0  0  0  0  0  0
  1  2  2  0
  2  3  1  0
  3  4  1  0
  5  4  1  6
  5  6  1  0
  5 18  1  0
  6  7  1  0
  7  8  1  0
  8  9  2  0
  8 10  1  0
 10 11  2  0
 10 17  1  0
 11 12  1  0
 12 13  2  0
 13 14  1  0
 13 15  1  0
 15 16  1  0
 15 17  2  0
 18 19  1  1
 18 34  1  0
 19 20  1  0
 20 21  1  0
 21 22  1  1
 21 34  1  0
 22 23  1  0
 23 24  2  0
 23 25  1  0
 25 26  2  0
 25 33  1  0
 26 27  1  0
 27 28  2  0
 28 29  1  0
 28 32  1  0
 29 30  1  0
 29 31  2  0
 32 33  2  0
M  CHG  1  18   1
M  END
