
     RDKit          3D

 24 24  0  0  0  0  0  0  0  0999 V2000
   -4.2620   -0.0550    2.0570 C   0  0  0  0  0  0  0  0  0  0  0  0
   -3.0920   -0.0270    1.3450 O   0  0  0  0  0  0  0  0  0  0  0  0
   -3.1400   -0.8600    0.2130 C   0  0  0  0  0  0  0  0  0  0  0  0
   -1.8000   -0.7740   -0.5260 C   0  0  2  0  0  0  0  0  0  0  0  0
   -0.8500   -1.1990    0.3880 O   0  0  0  0  0  0  0  0  0  0  0  0
   -0.2250   -2.3770    0.0720 C   0  0  0  0  0  0  0  0  0  0  0  0
    0.7170   -2.6110    1.0950 O   0  0  0  0  0  0  0  0  0  0  0  0
    1.8740   -3.1870    0.6500 C   0  0  0  0  0  0  0  0  0  0  0  0
    2.7580   -2.3030   -0.1660 C   0  0  2  0  0  0  0  0  0  0  0  0
    4.0590   -2.8480   -0.1190 O   0  0  0  0  0  0  0  0  0  0  0  0
    2.7580   -0.8590    0.2820 C   0  0  0  0  0  0  0  0  0  0  0  0
    1.9150    0.0990   -0.9700 S   0  0  0  0  0  0  0  0  0  0  0  0
    2.2510    1.8460   -0.9480 C   0  0  2  0  0  0  0  0  0  0  0  0
    3.6600    2.2550    0.0780 S   0  0  2  0  0  0  0  0  0  0  0  0
    4.8270    1.4700   -0.4320 O   0  0  0  0  0  0  0  0  0  0  0  0
    3.3840    2.0170    1.5190 O   0  0  0  0  0  0  0  0  0  0  0  0
    3.9550    3.8950   -0.1490 O   0  0  0  0  0  0  0  0  0  0  0  0
    1.1230    2.6970   -0.6720 N   0  0  0  0  0  0  0  0  0  0  0  0
    0.0420    2.4280    0.2020 C   0  0  0  0  0  0  0  0  0  0  0  0
   -0.2280    3.3380    1.0790 O   0  0  0  0  0  0  0  0  0  0  0  0
   -0.7750    1.2820    0.2270 N   0  0  0  0  0  0  0  0  0  0  0  0
   -1.4640    0.6620   -0.8690 C   0  0  2  0  0  0  0  0  0  0  0  0
   -2.7640    1.3640   -1.2180 C   0  0  0  0  0  0  0  0  0  0  0  0
   -3.3550    0.7090   -2.2720 O   0  0  0  0  0  0  0  0  0  0  0  0
  1  2  1  0
  2  3  1  0
  4  3  1  1
  4  5  1  0
  4 22  1  0
  5  6  1  0
  6  7  1  0
  7  8  1  0
  8  9  1  0
  9 10  1  1
  9 11  1  0
 11 12  1  0
 12 13  1  0
 13 14  1  0
 13 18  1  1
 14 15  2  0
 14 16  2  0
 14 17  1  1
 18 19  1  0
 19 20  2  0
 19 21  1  0
 21 22  1  0
 22 23  1  1
 23 24  1  0
M  END
