
     RDKit          3D

 25 25  0  0  0  0  0  0  0  0999 V2000
   -2.6580   -0.2070    2.1780 C   0  0  0  0  0  0  0  0  0  0  0  0
   -3.3470    0.0900    0.8630 C   0  0  2  0  0  0  0  0  0  0  0  0
   -2.6180    1.5010    0.0410 S   0  0  0  0  0  0  0  0  0  0  0  0
   -0.9260    1.2880   -0.4910 C   0  0  0  0  0  0  0  0  0  0  0  0
    0.0470    1.1440    0.6650 C   0  0  2  0  0  0  0  0  0  0  0  0
   -0.0230    2.2950    1.4440 O   0  0  0  0  0  0  0  0  0  0  0  0
    1.4330    0.9360    0.1400 C   0  0  0  0  0  0  0  0  0  0  0  0
    2.2920    1.8120    0.4360 O   0  0  0  0  0  0  0  0  0  0  0  0
    1.7580   -0.2050   -0.6550 N   0  0  0  0  0  0  0  0  0  0  0  0
    3.0800   -0.3110   -1.0970 N   0  0  0  0  0  0  0  0  0  0  0  0
    4.2000   -0.2670   -0.2530 C   0  0  0  0  0  0  0  0  0  0  0  0
    3.9860   -0.1200    0.9910 O   0  0  0  0  0  0  0  0  0  0  0  0
    5.6060   -0.3780   -0.7130 C   0  0  0  0  0  0  0  0  0  0  0  0
    6.5090   -0.3040    0.3250 O   0  0  0  0  0  0  0  0  0  0  0  0
    8.0550   -0.4410   -0.3170 S   0  0  2  0  0  0  0  0  0  0  0  0
    8.4160   -1.8480   -0.6540 O   0  0  0  0  0  0  0  0  0  0  0  0
    9.0420    0.1150    0.6970 O   0  0  0  0  0  0  0  0  0  0  0  0
    8.1390    0.5390   -1.7010 O   0  0  0  0  0  0  0  0  0  0  0  0
   -4.6630    0.4830    1.2320 O   0  0  0  0  0  0  0  0  0  0  0  0
   -5.3200    0.8580    0.0530 C   0  0  0  0  0  0  0  0  0  0  0  0
   -5.6890   -0.4370   -0.6610 C   0  0  0  0  0  0  0  0  0  0  0  0
   -4.3960   -1.0560   -1.1120 C   0  0  0  0  0  0  0  0  0  0  0  0
   -3.3900   -1.1410    0.0100 C   0  0  2  0  0  0  0  0  0  0  0  0
   -3.6750   -2.2900    0.7860 O   0  0  0  0  0  0  0  0  0  0  0  0
   -2.1430   -1.3750   -0.5510 O   0  0  0  0  0  0  0  0  0  0  0  0
  2  1  1  1
  2  3  1  0
  2 19  1  0
  2 23  1  0
  3  4  1  0
  4  5  1  0
  5  6  1  6
  5  7  1  0
  7  8  2  0
  7  9  1  0
  9 10  1  0
 10 11  1  0
 11 12  2  0
 11 13  1  0
 13 14  1  0
 14 15  1  0
 15 16  2  0
 15 17  2  0
 15 18  1  6
 19 20  1  0
 20 21  1  0
 21 22  1  0
 22 23  1  0
 23 24  1  1
 23 25  1  0
M  END
