
     RDKit          3D

 25 25  0  0  0  0  0  0  0  0999 V2000
   -2.1500   -1.1960    1.4900 C   0  0  0  0  0  0  0  0  0  0  0  0
   -1.9200   -0.1550    0.3870 C   0  0  2  0  0  0  0  0  0  0  0  0
   -1.4600    1.1370    0.9620 C   0  0  0  0  0  0  0  0  0  0  0  0
   -3.0870   -0.1330   -0.5370 C   0  0  2  0  0  0  0  0  0  0  0  0
   -4.3510   -0.5410    0.0180 N   0  0  0  0  0  0  0  0  0  0  0  0
   -5.6600    0.4400   -0.4990 S   0  0  1  0  0  0  0  0  0  0  0  0
   -5.4450    1.0470   -1.8390 O   0  0  0  0  0  0  0  0  0  0  0  0
   -6.9430   -0.3450   -0.5280 O   0  0  0  0  0  0  0  0  0  0  0  0
   -5.8070    1.7100    0.6110 O   0  0  0  0  0  0  0  0  0  0  0  0
   -2.4240   -1.2800   -1.2570 C   0  0  1  0  0  0  0  0  0  0  0  0
   -2.5310   -1.2530   -2.6390 O   0  0  0  0  0  0  0  0  0  0  0  0
   -1.1140   -0.7640   -0.7060 C   0  0  1  0  0  0  0  0  0  0  0  0
   -0.3660    0.3170   -1.8860 S   0  0  1  0  0  0  0  0  0  0  0  0
    0.1180   -0.4680   -3.0880 O   0  0  0  0  0  0  0  0  0  0  0  0
   -1.2540    1.3820   -2.3900 O   0  0  0  0  0  0  0  0  0  0  0  0
    1.0830    1.1130   -1.2050 C   0  0  0  0  0  0  0  0  0  0  0  0
    2.0960    0.0880   -0.8020 C   0  0  0  0  0  0  0  0  0  0  0  0
    1.8500   -1.1350   -0.9680 O   0  0  0  0  0  0  0  0  0  0  0  0
    3.3270    0.5120   -0.2350 N   0  0  0  0  0  0  0  0  0  0  0  0
    4.2810   -0.4710    0.1440 C   0  0  0  0  0  0  0  0  0  0  0  0
    4.0040   -1.6730   -0.0350 O   0  0  0  0  0  0  0  0  0  0  0  0
    5.5660   -0.0520    0.7340 C   0  0  2  0  0  0  0  0  0  0  0  0
    6.3180   -1.1740    1.0170 O   0  0  0  0  0  0  0  0  0  0  0  0
    5.3610    0.7990    1.9720 C   0  0  0  0  0  0  0  0  0  0  0  0
    6.6020    1.2030    2.4590 O   0  0  0  0  0  0  0  0  0  0  0  0
  2  1  1  1
  2  3  1  0
  2  4  1  0
  2 12  1  0
  4  5  1  1
  4 10  1  0
  5  6  1  0
  6  7  2  0
  6  8  2  0
  6  9  1  1
 10 11  1  6
 10 12  1  0
 12 13  1  6
 13 14  2  0
 13 15  2  0
 13 16  1  1
 16 17  1  0
 17 18  2  0
 17 19  1  0
 19 20  1  0
 20 21  2  0
 20 22  1  0
 22 23  1  1
 22 24  1  0
 24 25  1  0
M  END
