
     RDKit          3D

 24 24  0  0  0  0  0  0  0  0999 V2000
   -3.0720    2.4940    0.0950 C   0  0  0  0  0  0  0  0  0  0  0  0
   -3.1960    0.8530    0.7350 S   0  0  0  0  0  0  0  0  0  0  0  0
   -3.7130    0.7610    2.1400 O   0  0  0  0  0  0  0  0  0  0  0  0
   -1.7440   -0.1360    0.4620 C   0  0  0  0  0  0  0  0  0  0  0  0
   -1.9530   -1.3330   -0.0970 C   0  0  0  0  0  0  0  0  0  0  0  0
   -3.2990   -1.7420   -0.4370 C   0  0  0  0  0  0  0  0  0  0  0  0
   -3.5070   -2.8540   -0.9620 O   0  0  0  0  0  0  0  0  0  0  0  0
   -4.3610   -0.9060   -0.1830 O   0  0  0  0  0  0  0  0  0  0  0  0
   -0.8440   -2.2780   -0.4000 C   0  0  1  0  0  0  0  0  0  0  0  0
   -0.3880   -2.0100   -1.6710 O   0  0  0  0  0  0  0  0  0  0  0  0
    0.1610   -2.3420    0.6150 N   0  0  0  0  0  0  0  0  0  0  0  0
    1.4860   -2.8180    0.4400 C   0  0  0  0  0  0  0  0  0  0  0  0
    2.0290   -3.5820    1.3130 O   0  0  0  0  0  0  0  0  0  0  0  0
    2.3540   -2.4990   -0.7220 C   0  0  0  0  0  0  0  0  0  0  0  0
    3.6240   -2.0470   -0.2840 O   0  0  0  0  0  0  0  0  0  0  0  0
    3.7840   -1.0180    0.6370 C   0  0  0  0  0  0  0  0  0  0  0  0
    4.7670   -1.1680    1.4440 O   0  0  0  0  0  0  0  0  0  0  0  0
    2.9670    0.0720    0.6900 O   0  0  0  0  0  0  0  0  0  0  0  0
    2.6100    0.9500   -0.3430 C   0  0  0  0  0  0  0  0  0  0  0  0
    1.8780    2.1160    0.2820 C   0  0  1  0  0  0  0  0  0  0  0  0
    2.2490    3.3100   -0.3560 O   0  0  0  0  0  0  0  0  0  0  0  0
    0.3630    1.9820    0.1840 C   0  0  2  0  0  0  0  0  0  0  0  0
   -0.1400    3.1280    0.9670 N   0  0  0  0  0  0  0  0  0  0  0  0
   -0.1170    0.4170    0.8920 S   0  0  0  0  0  0  0  0  0  0  0  0
  2  1  1  1
  2  3  2  0
  2  4  1  0
  4  5  2  0
  4 24  1  0
  5  6  1  0
  5  9  1  0
  6  7  2  0
  6  8  1  0
  9 10  1  6
  9 11  1  0
 11 12  1  0
 12 13  2  0
 12 14  1  0
 14 15  1  0
 15 16  1  0
 16 17  2  0
 16 18  1  0
 18 19  1  0
 19 20  1  0
 20 21  1  6
 20 22  1  0
 22 23  1  1
 22 24  1  0
M  END
