
     RDKit          3D

 42 46  0  0  0  0  0  0  0  0999 V2000
    2.1990    3.2230   -2.3550 C   0  0  0  0  0  0  0  0  0  0  0  0
    2.2110    1.9420   -1.7590 O   0  0  0  0  0  0  0  0  0  0  0  0
    1.0060    1.4200   -1.3170 C   0  0  0  0  0  0  0  0  0  0  0  0
   -0.1790    2.1370   -1.4580 C   0  0  0  0  0  0  0  0  0  0  0  0
   -1.3500    1.6360   -1.0310 C   0  0  0  0  0  0  0  0  0  0  0  0
   -1.4060    0.3640   -0.4270 C   0  0  0  0  0  0  0  0  0  0  0  0
   -2.7240   -0.1610   -0.0340 C   0  0  0  0  0  0  0  0  0  0  0  0
   -3.7900    0.4680   -0.4770 N   0  0  0  0  0  0  0  0  0  0  0  0
   -5.0950    0.0980   -0.2090 N   0  0  0  0  0  0  0  0  0  0  0  0
   -6.2300    0.8290   -0.7290 C   0  0  1  0  0  0  0  0  0  0  0  0
   -7.0820    0.0380   -1.6570 C   0  0  0  0  0  0  0  0  0  0  0  0
   -8.5640    0.4330   -1.5910 C   0  0  0  0  0  0  0  0  0  0  0  0
   -8.7790    1.8980   -1.7650 C   0  0  0  0  0  0  0  0  0  0  0  0
   -8.9420    2.5540   -0.3930 C   0  0  0  0  0  0  0  0  0  0  0  0
   -7.5230    2.7250    0.1450 C   0  0  0  0  0  0  0  0  0  0  0  0
   -7.0120    1.3340    0.4650 C   0  0  0  0  0  0  0  0  0  0  0  0
   -5.2800   -1.0520    0.6030 C   0  0  0  0  0  0  0  0  0  0  0  0
   -6.3420   -1.7520    0.5270 O   0  0  0  0  0  0  0  0  0  0  0  0
   -4.1930   -1.3990    1.5340 C   0  0  2  0  0  0  0  0  0  0  0  0
   -4.2840   -0.3220    2.6440 C   0  0  0  0  0  0  0  0  0  0  0  0
   -3.4670   -0.9130    3.7520 C   0  0  0  0  0  0  0  0  0  0  0  0
   -2.2960   -1.3750    3.3920 C   0  0  0  0  0  0  0  0  0  0  0  0
   -1.8160   -1.3170    1.9990 C   0  0  0  0  0  0  0  0  0  0  0  0
   -2.8230   -1.2970    0.9060 C   0  0  2  0  0  0  0  0  0  0  0  0
   -0.2290   -0.3250   -0.3000 C   0  0  0  0  0  0  0  0  0  0  0  0
    1.0060    0.1740   -0.7350 C   0  0  0  0  0  0  0  0  0  0  0  0
    2.2510   -0.5520   -0.5980 C   0  0  0  0  0  0  0  0  0  0  0  0
    3.4030    0.0640   -0.1580 C   0  0  0  0  0  0  0  0  0  0  0  0
    4.6160   -0.5940   -0.0110 C   0  0  0  0  0  0  0  0  0  0  0  0
    4.7040   -1.9320   -0.3140 C   0  0  0  0  0  0  0  0  0  0  0  0
    5.9540   -2.6810   -0.1860 C   0  0  0  0  0  0  0  0  0  0  0  0
    5.9600   -3.9430   -0.2310 O   0  0  0  0  0  0  0  0  0  0  0  0
    7.2100   -2.0480   -0.0080 N   0  0  0  0  0  0  0  0  0  0  0  0
    8.4360   -2.7820    0.1200 C   0  0  0  0  0  0  0  0  0  0  0  0
    9.6480   -1.9880    0.2880 C   0  0  0  0  0  0  0  0  0  0  0  0
   10.7500   -2.6390    0.4070 O   0  0  0  0  0  0  0  0  0  0  0  0
    9.7600   -0.5970    0.3370 N   0  0  0  0  0  0  0  0  0  0  0  0
   11.0020    0.1430    0.5120 C   0  0  0  0  0  0  0  0  0  0  0  0
   11.6240   -0.2080    1.8320 C   0  0  0  0  0  0  0  0  0  0  0  0
   10.7490    0.1130    2.8940 O   0  0  0  0  0  0  0  0  0  0  0  0
    3.5590   -2.5740   -0.7580 C   0  0  0  0  0  0  0  0  0  0  0  0
    2.3680   -1.9020   -0.8960 C   0  0  0  0  0  0  0  0  0  0  0  0
  1  2  1  0
  2  3  1  0
  3  4  2  0
  3 26  1  0
  4  5  1  0
  5  6  2  0
  6  7  1  0
  6 25  1  0
  7  8  2  0
  7 24  1  0
  8  9  1  0
 10  9  1  1
  9 17  1  0
 10 11  1  0
 10 16  1  0
 11 12  1  0
 12 13  1  0
 13 14  1  0
 14 15  1  0
 15 16  1  0
 17 18  2  0
 17 19  1  0
 19 20  1  1
 19 24  1  0
 20 21  1  0
 21 22  2  0
 22 23  1  0
 24 23  1  1
 25 26  2  0
 26 27  1  0
 27 28  2  0
 27 42  1  0
 28 29  1  0
 29 30  2  0
 30 31  1  0
 30 41  1  0
 31 32  2  0
 31 33  1  0
 33 34  1  0
 34 35  1  0
 35 36  2  0
 35 37  1  0
 37 38  1  0
 38 39  1  0
 39 40  1  0
 41 42  2  0
M  END
