
     RDKit          3D

 42 46  0  0  0  0  0  0  0  0999 V2000
   -5.3270   -1.9240    2.5080 C   0  0  0  0  0  0  0  0  0  0  0  0
   -4.6840   -2.1730    1.1860 C   0  0  0  0  0  0  0  0  0  0  0  0
   -5.4440   -1.6090    0.0190 C   0  0  0  0  0  0  0  0  0  0  0  0
   -5.6550   -0.1620   -0.0410 C   0  0  2  0  0  0  0  0  0  0  0  0
   -6.4570    0.2810   -1.2500 C   0  0  2  0  0  0  0  0  0  0  0  0
   -7.8040   -0.2530   -1.3830 C   0  0  0  0  0  0  0  0  0  0  0  0
   -7.8850   -1.4200   -2.2900 C   0  0  0  0  0  0  0  0  0  0  0  0
   -7.0220   -1.2350   -3.4880 C   0  0  0  0  0  0  0  0  0  0  0  0
   -5.6710   -0.2190   -2.8190 S   0  0  0  0  0  0  0  0  0  0  0  0
   -4.5890    0.7390    0.0350 N   0  0  0  0  0  0  0  0  0  0  0  0
   -4.7370    1.8940    0.8210 C   0  0  0  0  0  0  0  0  0  0  0  0
   -3.3960    2.4490    1.2680 C   0  0  0  0  0  0  0  0  0  0  0  0
   -2.5530    1.2870    1.7010 C   0  0  2  0  0  0  0  0  0  0  0  0
   -3.2720    0.5260    2.5980 O   0  0  0  0  0  0  0  0  0  0  0  0
   -1.2900    1.8070    2.3570 C   0  0  0  0  0  0  0  0  0  0  0  0
   -0.1630    0.7840    2.1270 C   0  0  0  0  0  0  0  0  0  0  0  0
    0.1500    0.9400    0.6900 N   0  0  0  0  0  0  0  0  0  0  0  0
    1.4610    0.7570    0.2640 C   0  0  0  0  0  0  0  0  0  0  0  0
    2.3680    0.3610    1.0770 O   0  0  0  0  0  0  0  0  0  0  0  0
    1.8620    1.0110   -1.1080 C   0  0  0  0  0  0  0  0  0  0  0  0
    1.0870    1.5790   -2.0270 O   0  0  0  0  0  0  0  0  0  0  0  0
    1.6840    1.7010   -3.1580 C   0  0  0  0  0  0  0  0  0  0  0  0
    1.2380    2.1910   -4.2130 O   0  0  0  0  0  0  0  0  0  0  0  0
    2.8880    1.2020   -2.9950 O   0  0  0  0  0  0  0  0  0  0  0  0
    3.0340    0.7650   -1.7610 C   0  0  0  0  0  0  0  0  0  0  0  0
    4.2420    0.1470   -1.2500 C   0  0  0  0  0  0  0  0  0  0  0  0
    4.1520   -1.0380   -0.5320 C   0  0  0  0  0  0  0  0  0  0  0  0
    5.2250   -1.6490    0.0140 C   0  0  0  0  0  0  0  0  0  0  0  0
    6.5010   -1.0520   -0.1540 C   0  0  0  0  0  0  0  0  0  0  0  0
    7.5540   -1.6600    0.3780 O   0  0  0  0  0  0  0  0  0  0  0  0
    8.4100   -2.3930    0.9490 C   0  0  0  0  0  0  0  0  0  0  0  0
    9.8590   -1.9890    0.8560 C   0  0  0  0  0  0  0  0  0  0  0  0
   10.6940   -2.6980    1.4750 O   0  0  0  0  0  0  0  0  0  0  0  0
   10.3040   -0.9090    0.1410 O   0  0  0  0  0  0  0  0  0  0  0  0
   11.7040   -0.6490    0.1370 C   0  0  0  0  0  0  0  0  0  0  0  0
    6.6170    0.1300   -0.8630 C   0  0  0  0  0  0  0  0  0  0  0  0
    7.8820    0.7160   -1.0140 O   0  0  0  0  0  0  0  0  0  0  0  0
    7.9410    1.9460   -1.7170 C   0  0  0  0  0  0  0  0  0  0  0  0
    5.4800    0.7020   -1.3970 C   0  0  0  0  0  0  0  0  0  0  0  0
   -0.9520    1.1990   -0.1770 C   0  0  0  0  0  0  0  0  0  0  0  0
   -2.1990    0.5080    0.4420 C   0  0  2  0  0  0  0  0  0  0  0  0
   -3.3250    0.4800   -0.5490 C   0  0  0  0  0  0  0  0  0  0  0  0
  1  2  1  0
  2  3  1  0
  4  3  1  6
  4  5  1  0
  4 10  1  0
  5  6  1  1
  5  9  1  0
  6  7  1  0
  7  8  1  0
  8  9  1  0
 10 11  1  0
 10 42  1  0
 11 12  1  0
 12 13  1  0
 13 14  1  1
 13 15  1  0
 13 41  1  0
 15 16  1  0
 16 17  1  0
 17 18  1  0
 17 40  1  0
 18 19  2  0
 18 20  1  0
 20 21  1  0
 20 25  2  0
 21 22  1  0
 22 23  2  0
 22 24  1  0
 24 25  1  0
 25 26  1  0
 26 27  2  0
 26 39  1  0
 27 28  1  0
 28 29  2  0
 29 30  1  0
 29 36  1  0
 30 31  1  0
 31 32  1  0
 32 33  2  0
 32 34  1  0
 34 35  1  0
 36 37  1  0
 36 39  2  0
 37 38  1  0
 41 40  1  6
 41 42  1  0
M  END
