
     RDKit          3D

 42 46  0  0  0  0  0  0  0  0999 V2000
   -2.1370    1.6180    1.4350 C   0  0  0  0  0  0  0  0  0  0  0  0
   -3.0990    0.6700    1.8920 N   0  0  0  0  0  0  0  0  0  0  0  0
   -3.5750   -0.2770    0.9540 C   0  0  2  0  0  0  0  0  0  0  0  0
   -2.4470   -1.1440    0.4170 C   0  0  0  0  0  0  0  0  0  0  0  0
   -2.7010   -1.4510   -0.8320 C   0  0  0  0  0  0  0  0  0  0  0  0
   -3.9910   -0.8350   -1.2250 C   0  0  1  0  0  0  0  0  0  0  0  0
   -5.0110   -1.9100   -0.9790 C   0  0  0  0  0  0  0  0  0  0  0  0
   -3.9980    0.3400   -0.3420 C   0  0  1  0  0  0  0  0  0  0  0  0
   -4.9960    1.3680   -0.3550 C   0  0  0  0  0  0  0  0  0  0  0  0
   -6.3670    1.2320    0.1400 C   0  0  1  0  0  0  0  0  0  0  0  0
   -7.0210    2.6320   -0.0690 C   0  0  0  0  0  0  0  0  0  0  0  0
   -8.3220    2.6710    0.6580 C   0  0  0  0  0  0  0  0  0  0  0  0
   -9.0660    1.5680    0.3130 O   0  0  0  0  0  0  0  0  0  0  0  0
   -8.6640    0.9220   -0.8340 C   0  0  2  0  0  0  0  0  0  0  0  0
   -9.6070   -0.2800   -0.9820 C   0  0  0  0  0  0  0  0  0  0  0  0
   -7.2630    0.3410   -0.7090 C   0  0  0  0  0  0  0  0  0  0  0  0
   -1.4010   -2.4430   -1.4600 S   0  0  2  0  0  0  0  0  0  0  0  0
   -0.6640   -1.7510   -2.5580 O   0  0  0  0  0  0  0  0  0  0  0  0
   -1.8600   -3.8100   -1.8440 O   0  0  0  0  0  0  0  0  0  0  0  0
   -0.4830   -2.4740    0.0090 N   0  0  0  0  0  0  0  0  0  0  0  0
    0.7550   -3.1850    0.1730 C   0  0  0  0  0  0  0  0  0  0  0  0
    1.9170   -2.3660   -0.2680 C   0  0  1  0  0  0  0  0  0  0  0  0
    1.8620   -1.9910   -1.6240 O   0  0  0  0  0  0  0  0  0  0  0  0
    2.1300   -1.1780    0.6180 C   0  0  0  0  0  0  0  0  0  0  0  0
    3.3020   -0.4940    0.4320 O   0  0  0  0  0  0  0  0  0  0  0  0
    4.6110   -0.8330    0.6060 C   0  0  0  0  0  0  0  0  0  0  0  0
    5.0680   -2.0440    1.0780 C   0  0  0  0  0  0  0  0  0  0  0  0
    6.4390   -2.2650    1.2050 C   0  0  0  0  0  0  0  0  0  0  0  0
    7.3620   -1.2980    0.8700 C   0  0  0  0  0  0  0  0  0  0  0  0
    6.9250   -0.0740    0.3950 C   0  0  0  0  0  0  0  0  0  0  0  0
    7.8900    0.9520    0.0400 C   0  0  0  0  0  0  0  0  0  0  0  0
    7.6130    2.2120   -0.4510 C   0  0  0  0  0  0  0  0  0  0  0  0
    8.8430    2.8240   -0.6380 C   0  0  0  0  0  0  0  0  0  0  0  0
    9.8080    1.9280   -0.2610 C   0  0  0  0  0  0  0  0  0  0  0  0
   11.2500    2.1540   -0.2940 C   0  0  0  0  0  0  0  0  0  0  0  0
   11.6990    3.2750   -0.7100 O   0  0  0  0  0  0  0  0  0  0  0  0
   12.1740    1.2110    0.1050 O   0  0  0  0  0  0  0  0  0  0  0  0
   13.5710    1.3870    0.0890 C   0  0  0  0  0  0  0  0  0  0  0  0
    9.1940    0.8410    0.1310 O   0  0  0  0  0  0  0  0  0  0  0  0
    5.5720    0.1170    0.2790 C   0  0  0  0  0  0  0  0  0  0  0  0
   -1.2240   -1.6910    0.9260 C   0  0  0  0  0  0  0  0  0  0  0  0
   -0.7540   -1.5370    2.1140 O   0  0  0  0  0  0  0  0  0  0  0  0
  1  2  1  0
  3  2  1  1
  3  4  1  0
  3  8  1  0
  4  5  2  0
  4 41  1  0
  5  6  1  0
  5 17  1  0
  6  7  1  1
  6  8  1  0
  8  9  1  1
 10  9  1  6
 10 11  1  0
 10 16  1  0
 11 12  1  0
 12 13  1  0
 13 14  1  0
 14 15  1  1
 14 16  1  0
 17 18  2  0
 17 19  2  0
 17 20  1  1
 20 21  1  0
 20 41  1  0
 21 22  1  0
 22 23  1  6
 22 24  1  0
 24 25  1  0
 25 26  1  0
 26 27  2  0
 26 40  1  0
 27 28  1  0
 28 29  2  0
 29 30  1  0
 30 31  1  0
 30 40  2  0
 31 32  2  0
 31 39  1  0
 32 33  1  0
 33 34  2  0
 34 35  1  0
 34 39  1  0
 35 36  2  0
 35 37  1  0
 37 38  1  0
 41 42  2  0
M  END
