
     RDKit          3D

 42 45  0  0  0  0  0  0  0  0999 V2000
    8.0520   -0.7070   -3.4420 C   0  0  0  0  0  0  0  0  0  0  0  0
    7.8670   -1.4230   -2.1640 C   0  0  0  0  0  0  0  0  0  0  0  0
    7.1740   -1.1390   -1.0640 C   0  0  0  0  0  0  0  0  0  0  0  0
    7.1510   -1.9800   -0.0160 C   0  0  0  0  0  0  0  0  0  0  0  0
    6.3930   -1.7520    1.2610 C   0  0  0  0  0  0  0  0  0  0  0  0
    6.4130   -2.6000    2.1810 O   0  0  0  0  0  0  0  0  0  0  0  0
    5.6460   -0.6140    1.4830 O   0  0  0  0  0  0  0  0  0  0  0  0
    4.9300   -0.4190    2.6920 C   0  0  1  0  0  0  0  0  0  0  0  0
    5.4330    0.8150    3.4170 C   0  0  0  0  0  0  0  0  0  0  0  0
    3.4850   -0.2010    2.4350 C   0  0  0  0  0  0  0  0  0  0  0  0
    2.6680   -0.0780    3.3760 O   0  0  0  0  0  0  0  0  0  0  0  0
    2.9990   -0.1260    1.1060 N   0  0  0  0  0  0  0  0  0  0  0  0
    1.5900    0.0860    0.8930 C   0  0  0  0  0  0  0  0  0  0  0  0
    1.2810    0.1590   -0.5930 C   0  0  1  0  0  0  0  0  0  0  0  0
    1.6810   -1.1150   -1.2800 C   0  0  0  0  0  0  0  0  0  0  0  0
   -0.1640    0.4980   -0.8020 C   0  0  0  0  0  0  0  0  0  0  0  0
   -1.2140   -0.4000   -0.8080 C   0  0  0  0  0  0  0  0  0  0  0  0
   -2.3940    0.2760   -1.0260 C   0  0  0  0  0  0  0  0  0  0  0  0
   -3.7420   -0.2600   -1.1160 C   0  0  0  0  0  0  0  0  0  0  0  0
   -4.7420    0.4810   -1.2370 O   0  0  0  0  0  0  0  0  0  0  0  0
   -3.9560   -1.6300   -1.0730 O   0  0  0  0  0  0  0  0  0  0  0  0
   -5.2840   -2.1710   -1.1650 C   0  0  1  0  0  0  0  0  0  0  0  0
   -5.4230   -2.9700   -2.4510 C   0  0  0  0  0  0  0  0  0  0  0  0
   -5.4950   -3.0650   -0.0240 C   0  0  0  0  0  0  0  0  0  0  0  0
   -6.6780   -3.5860    0.0270 O   0  0  0  0  0  0  0  0  0  0  0  0
   -4.5960   -3.3940    0.9580 O   0  0  0  0  0  0  0  0  0  0  0  0
   -4.9730   -4.2710    1.9810 C   0  0  1  0  0  0  0  0  0  0  0  0
   -4.0880   -5.5020    2.1150 C   0  0  0  0  0  0  0  0  0  0  0  0
   -4.2570   -5.3720    3.6270 C   0  0  0  0  0  0  0  0  0  0  0  0
   -4.6060   -3.9000    3.3880 C   0  0  0  0  0  0  0  0  0  0  0  0
   -1.9890    1.6220   -1.1480 C   0  0  0  0  0  0  0  0  0  0  0  0
   -2.9780    2.6870   -1.3920 C   0  0  0  0  0  0  0  0  0  0  0  0
   -2.3960    3.9770   -1.4950 N   0  0  1  0  0  0  0  0  0  0  0  0
   -3.3780    5.0400   -1.3300 C   0  0  0  0  0  0  0  0  0  0  0  0
   -3.3040    5.6700    0.0370 C   0  0  0  0  0  0  0  0  0  0  0  0
   -2.0740    6.1940    0.3350 O   0  0  0  0  0  0  0  0  0  0  0  0
   -1.0010    5.5990   -0.2660 C   0  0  2  0  0  0  0  0  0  0  0  0
   -0.3980    6.3680   -1.4070 C   0  0  0  0  0  0  0  0  0  0  0  0
   -1.2490    4.1560   -0.6750 C   0  0  0  0  0  0  0  0  0  0  0  0
   -0.6940    1.6610   -1.0080 O   0  0  0  0  0  0  0  0  0  0  0  0
    7.8980   -3.1680   -0.1530 C   0  0  0  0  0  0  0  0  0  0  0  0
    8.5980   -3.0290   -1.7730 S   0  0  0  0  0  0  0  0  0  0  0  0
  1  2  1  0
  2  3  2  0
  2 42  1  0
  3  4  1  0
  4  5  1  0
  4 41  2  0
  5  6  2  0
  5  7  1  0
  7  8  1  0
  8  9  1  6
  8 10  1  0
 10 11  2  0
 10 12  1  0
 12 13  1  0
 13 14  1  0
 14 15  1  6
 14 16  1  0
 16 17  2  0
 16 40  1  0
 17 18  1  0
 18 19  1  0
 18 31  2  0
 19 20  2  0
 19 21  1  0
 21 22  1  0
 22 23  1  6
 22 24  1  0
 24 25  2  0
 24 26  1  0
 27 26  1  6
 27 28  1  0
 27 30  1  0
 28 29  1  0
 29 30  1  0
 31 32  1  0
 31 40  1  0
 33 32  1  1
 33 34  1  0
 33 39  1  0
 34 35  1  0
 35 36  1  0
 36 37  1  0
 37 38  1  6
 37 39  1  0
 41 42  1  0
M  CHG  1  33   1
M  END
