
     RDKit          3D

 42 45  0  0  0  0  0  0  0  0999 V2000
   -8.1250    3.4280   -0.8370 C   0  0  0  0  0  0  0  0  0  0  0  0
   -7.9390    2.2710   -0.2130 C   0  0  0  0  0  0  0  0  0  0  0  0
   -6.6600    1.5970   -0.1890 C   0  0  0  0  0  0  0  0  0  0  0  0
   -6.4970    0.4540    0.4450 C   0  0  0  0  0  0  0  0  0  0  0  0
   -7.6020   -0.1710    1.1430 C   0  0  0  0  0  0  0  0  0  0  0  0
   -8.7850    0.3860    1.1560 C   0  0  0  0  0  0  0  0  0  0  0  0
   -9.0790    1.6530    0.4830 C   0  0  0  0  0  0  0  0  0  0  0  0
   -7.0430   -1.4410    1.7420 C   0  0  1  0  0  0  0  0  0  0  0  0
   -7.2960   -2.6460    0.9040 C   0  0  0  0  0  0  0  0  0  0  0  0
   -5.5690   -1.0870    1.8480 C   0  0  0  0  0  0  0  0  0  0  0  0
   -5.3340   -0.3950    0.5950 N   0  0  0  0  0  0  0  0  0  0  0  0
   -4.2720   -0.4760   -0.3260 C   0  0  0  0  0  0  0  0  0  0  0  0
   -4.2790    0.2760   -1.3580 O   0  0  0  0  0  0  0  0  0  0  0  0
   -3.1330   -1.4000   -0.1550 C   0  0  1  0  0  0  0  0  0  0  0  0
   -3.6160   -2.8550   -0.2740 C   0  0  0  0  0  0  0  0  0  0  0  0
   -2.1960   -1.2350   -1.2280 O   0  0  0  0  0  0  0  0  0  0  0  0
   -0.8250   -1.1160   -0.9390 C   0  0  0  0  0  0  0  0  0  0  0  0
   -0.4990   -1.1690    0.2650 O   0  0  0  0  0  0  0  0  0  0  0  0
    0.1540   -0.9360   -2.0570 C   0  0  0  0  0  0  0  0  0  0  0  0
    1.5360   -1.0240   -1.4370 C   0  0  1  0  0  0  0  0  0  0  0  0
    2.6190   -0.8450   -2.4710 C   0  0  0  0  0  0  0  0  0  0  0  0
    3.9300   -0.9640   -1.7720 C   0  0  0  0  0  0  0  0  0  0  0  0
    4.7460   -0.0600   -1.1770 C   0  0  0  0  0  0  0  0  0  0  0  0
    5.8970   -0.5020   -0.6190 C   0  0  0  0  0  0  0  0  0  0  0  0
    6.1860   -1.8100   -0.6750 C   0  0  0  0  0  0  0  0  0  0  0  0
    7.3170   -2.5840   -0.1850 C   0  0  0  0  0  0  0  0  0  0  0  0
    7.3900   -3.8320   -0.3560 O   0  0  0  0  0  0  0  0  0  0  0  0
    8.3720   -1.9450    0.5030 N   0  0  0  0  0  0  0  0  0  0  0  0
    9.5000   -2.6560    1.0030 C   0  0  0  0  0  0  0  0  0  0  0  0
    9.4970   -3.8960    0.7900 O   0  0  0  0  0  0  0  0  0  0  0  0
   10.5560   -2.1020    1.6800 O   0  0  0  0  0  0  0  0  0  0  0  0
   11.6430   -2.9150    2.1440 C   0  0  0  0  0  0  0  0  0  0  0  0
    4.7890   -2.5030   -1.5540 S   0  0  0  0  0  0  0  0  0  0  0  0
    1.7440   -0.0900   -0.3340 C   0  0  0  0  0  0  0  0  0  0  0  0
    2.0130   -0.5510    0.8260 O   0  0  0  0  0  0  0  0  0  0  0  0
    1.6480    1.2900   -0.5410 O   0  0  0  0  0  0  0  0  0  0  0  0
    1.8700    2.0750    0.6440 C   0  0  0  0  0  0  0  0  0  0  0  0
    1.7620    3.5450    0.4100 C   0  0  2  0  0  0  0  0  0  0  0  0
    2.8960    4.0140   -0.4890 C   0  0  0  0  0  0  0  0  0  0  0  0
    3.8490    4.6430    0.4800 C   0  0  0  0  0  0  0  0  0  0  0  0
    3.3210    4.2100    1.8110 C   0  0  0  0  0  0  0  0  0  0  0  0
    1.9600    4.1840    1.6190 O   0  0  0  0  0  0  0  0  0  0  0  0
  1  2  2  0
  2  3  1  0
  2  7  1  0
  3  4  2  0
  4  5  1  0
  4 11  1  0
  5  6  2  0
  5  8  1  0
  6  7  1  0
  8  9  1  6
  8 10  1  0
 10 11  1  0
 11 12  1  0
 12 13  2  0
 12 14  1  0
 14 15  1  6
 14 16  1  0
 16 17  1  0
 17 18  2  0
 17 19  1  0
 20 19  1  6
 20 21  1  0
 20 34  1  0
 21 22  1  0
 22 23  2  0
 22 33  1  0
 23 24  1  0
 24 25  2  0
 25 26  1  0
 25 33  1  0
 26 27  2  0
 26 28  1  0
 28 29  1  0
 29 30  2  0
 29 31  1  0
 31 32  1  0
 34 35  2  0
 34 36  1  0
 36 37  1  0
 38 37  1  1
 38 39  1  0
 38 42  1  0
 39 40  1  0
 40 41  1  0
 41 42  1  0
M  END
