
     RDKit          3D

 25 28  0  0  0  0  0  0  0  0999 V2000
    1.9490   -1.2980   -0.8320 C   0  0  0  0  0  0  0  0  0  0  0  0
    1.7490   -0.7280    0.5320 C   0  0  2  0  0  0  0  0  0  0  0  0
    0.7120   -1.5630    1.2800 C   0  0  0  0  0  0  0  0  0  0  0  0
   -0.6770   -1.4180    0.8140 C   0  0  2  0  0  0  0  0  0  0  0  0
   -0.9360   -2.4180   -0.1160 O   0  0  0  0  0  0  0  0  0  0  0  0
   -1.1360   -0.0640    0.3970 C   0  0  1  0  0  0  0  0  0  0  0  0
   -0.0080    0.6070   -0.4010 C   0  0  1  0  0  0  0  0  0  0  0  0
   -0.4200    1.9420   -0.9650 C   0  0  0  0  0  0  0  0  0  0  0  0
   -1.4620    1.6020   -2.0270 C   0  0  0  0  0  0  0  0  0  0  0  0
   -2.6200    1.0580   -1.2560 C   0  0  0  0  0  0  0  0  0  0  0  0
   -3.8200    1.5220   -1.5420 C   0  0  0  0  0  0  0  0  0  0  0  0
   -5.0470    1.1000   -0.8860 C   0  0  0  0  0  0  0  0  0  0  0  0
   -6.1600    1.3140   -1.3800 O   0  0  0  0  0  0  0  0  0  0  0  0
   -4.9070    0.4000    0.4030 C   0  0  0  0  0  0  0  0  0  0  0  0
   -3.4790    0.3870    0.8890 C   0  0  0  0  0  0  0  0  0  0  0  0
   -2.4740    0.0410   -0.2100 C   0  0  2  0  0  0  0  0  0  0  0  0
   -2.9970   -1.2650   -0.8160 C   0  0  0  0  0  0  0  0  0  0  0  0
    1.1180    0.6580    0.5330 C   0  0  2  0  0  0  0  0  0  0  0  0
    2.2680    1.5390    0.3030 C   0  0  0  0  0  0  0  0  0  0  0  0
    3.1610    1.0160    1.4590 C   0  0  0  0  0  0  0  0  0  0  0  0
    2.9870   -0.5240    1.3160 C   0  0  2  0  0  0  0  0  0  0  0  0
    4.2610   -0.9700    0.7160 C   0  0  0  0  0  0  0  0  0  0  0  0
    4.8070   -1.9670    1.2460 O   0  0  0  0  0  0  0  0  0  0  0  0
    4.9600   -0.3810   -0.4310 C   0  0  0  0  0  0  0  0  0  0  0  0
    6.1320   -1.0690   -0.7540 O   0  0  0  0  0  0  0  0  0  0  0  0
  2  1  1  6
  2  3  1  0
  2 18  1  0
  2 21  1  0
  3  4  1  0
  4  5  1  6
  6  4  1  6
  6  7  1  0
  6 16  1  0
  7  8  1  1
  7 18  1  0
  8  9  1  0
  9 10  1  0
 10 11  2  0
 10 16  1  0
 11 12  1  0
 12 13  2  0
 12 14  1  0
 14 15  1  0
 15 16  1  0
 16 17  1  6
 18 19  1  6
 19 20  1  0
 20 21  1  0
 21 22  1  6
 22 23  2  0
 22 24  1  0
 24 25  1  0
M  END
