
     RDKit          3D

 24 26  0  0  0  0  0  0  0  0999 V2000
   -3.9740    1.4380   -1.1690 C   0  0  0  0  0  0  0  0  0  0  0  0
   -4.4500    0.9160    0.1690 C   0  0  2  0  0  0  0  0  0  0  0  0
   -3.4710    0.0530    0.7840 N   0  0  0  0  0  0  0  0  0  0  0  0
   -2.1220    0.5210    0.7440 C   0  0  0  0  0  0  0  0  0  0  0  0
   -1.3810   -0.1990   -0.3490 C   0  0  0  0  0  0  0  0  0  0  0  0
    0.0480    0.2150   -0.4880 C   0  0  0  0  0  0  0  0  0  0  0  0
    0.7820   -0.1070    0.7860 C   0  0  1  0  0  0  0  0  0  0  0  0
    0.7220   -1.5370    1.0020 N   0  0  0  0  0  0  0  0  0  0  0  0
    2.2220    0.2920    0.7060 C   0  0  0  0  0  0  0  0  0  0  0  0
    3.2640   -0.2960    0.1230 N   0  0  0  0  0  0  0  0  0  0  0  0
    4.3950    0.3940    0.2740 C   0  0  0  0  0  0  0  0  0  0  0  0
    5.7510    0.0930   -0.2120 C   0  0  1  0  0  0  0  0  0  0  0  0
    5.6980   -0.5300   -1.5800 C   0  0  0  0  0  0  0  0  0  0  0  0
    6.5200    1.2610   -0.2180 O   0  0  0  0  0  0  0  0  0  0  0  0
    7.7900    0.7360   -0.5150 C   0  0  0  0  0  0  0  0  0  0  0  0
    7.7770   -0.5330    0.3440 C   0  0  0  0  0  0  0  0  0  0  0  0
    6.4370   -0.7310    0.6570 O   0  0  0  0  0  0  0  0  0  0  0  0
    4.0220    1.4880    1.0040 N   0  0  0  0  0  0  0  0  0  0  0  0
    2.7340    1.4360    1.2640 N   0  0  0  0  0  0  0  0  0  0  0  0
   -5.7170    0.1180   -0.1240 C   0  0  0  0  0  0  0  0  0  0  0  0
   -5.8910   -1.0740    0.3510 C   0  0  0  0  0  0  0  0  0  0  0  0
   -7.1580   -1.7830    0.0190 C   0  0  0  0  0  0  0  0  0  0  0  0
   -7.7810   -0.7730   -1.3470 S   0  0  0  0  0  0  0  0  0  0  0  0
   -6.8080    0.7030   -0.9420 C   0  0  0  0  0  0  0  0  0  0  0  0
  2  1  1  6
  2  3  1  0
  2 20  1  0
  3  4  1  0
  4  5  1  0
  5  6  1  0
  6  7  1  0
  7  8  1  6
  7  9  1  0
  9 10  2  0
  9 19  1  0
 10 11  1  0
 11 12  1  0
 11 18  2  0
 12 13  1  6
 12 14  1  0
 12 17  1  0
 14 15  1  0
 15 16  1  0
 16 17  1  0
 18 19  1  0
 20 21  2  0
 20 24  1  0
 21 22  1  0
 22 23  1  0
 23 24  1  0
M  CHG  2   3   1   8   1
M  END
