
     RDKit          3D

 24 25  0  0  0  0  0  0  0  0999 V2000
   -2.3350   -2.0180   -2.8380 C   0  0  0  0  0  0  0  0  0  0  0  0
   -2.6950   -2.4490   -1.6420 C   0  0  0  0  0  0  0  0  0  0  0  0
   -2.5420   -1.7290   -0.3950 C   0  0  0  0  0  0  0  0  0  0  0  0
   -2.9740   -2.3080    0.7130 C   0  0  0  0  0  0  0  0  0  0  0  0
   -3.5980   -3.6440    0.7390 C   0  0  0  0  0  0  0  0  0  0  0  0
   -1.8820   -0.3950   -0.3030 C   0  0  1  0  0  0  0  0  0  0  0  0
   -2.0640    0.2390    1.0660 C   0  0  0  0  0  0  0  0  0  0  0  0
   -3.4350    0.4590    1.4090 N   0  0  0  0  0  0  0  0  0  0  0  0
   -4.0420    1.4680    0.6020 C   0  0  2  0  0  0  0  0  0  0  0  0
   -3.4980    2.8430    0.6780 C   0  0  0  0  0  0  0  0  0  0  0  0
   -4.8560    2.5440    1.2660 C   0  0  0  0  0  0  0  0  0  0  0  0
   -0.4660   -0.6100   -0.5430 N   0  0  0  0  0  0  0  0  0  0  0  0
    0.3960    0.2910    0.1900 C   0  0  0  0  0  0  0  0  0  0  0  0
    1.8650   -0.0220   -0.1300 C   0  0  1  0  0  0  0  0  0  0  0  0
    2.0300    0.1480   -1.4990 O   0  0  0  0  0  0  0  0  0  0  0  0
    2.6910    1.0090    0.6090 C   0  0  0  0  0  0  0  0  0  0  0  0
    4.0920    0.8380    0.2780 N   0  0  0  0  0  0  0  0  0  0  0  0
    4.8400    1.4300   -0.7760 C   0  0  0  0  0  0  0  0  0  0  0  0
    4.4380    2.4460   -1.3950 O   0  0  0  0  0  0  0  0  0  0  0  0
    6.0760    0.6400   -0.9470 C   0  0  1  0  0  0  0  0  0  0  0  0
    7.1890    1.4510   -1.3950 N   0  0  0  0  0  0  0  0  0  0  0  0
    6.2950    0.0980    0.3730 N   0  0  0  0  0  0  0  0  0  0  0  0
    5.0190    0.0050    0.9900 C   0  0  0  0  0  0  0  0  0  0  0  0
    4.6270   -0.9010    2.3070 S   0  0  0  0  0  0  0  0  0  0  0  0
  1  2  2  0
  2  3  1  0
  3  4  2  3
  3  6  1  0
  4  5  1  0
  6  7  1  1
  6 12  1  0
  7  8  1  0
  9  8  1  1
  9 10  1  0
  9 11  1  0
 10 11  1  0
 12 13  1  0
 13 14  1  0
 14 15  1  6
 14 16  1  0
 16 17  1  0
 17 18  1  0
 17 23  1  0
 18 19  2  0
 18 20  1  0
 20 21  1  1
 20 22  1  0
 22 23  1  0
 23 24  2  0
M  CHG  1  12   1
M  END
