
     RDKit          3D

 24 25  0  0  0  0  0  0  0  0999 V2000
   -5.5610   -1.3570   -0.6480 C   0  0  0  0  0  0  0  0  0  0  0  0
   -4.6650   -0.3790   -0.0700 N   0  0  0  0  0  0  0  0  0  0  0  0
   -4.8740    0.9440   -0.5250 C   0  0  1  0  0  0  0  0  0  0  0  0
   -4.8200    1.9230    0.6490 C   0  0  0  0  0  0  0  0  0  0  0  0
   -5.8040    1.6600    1.5870 O   0  0  0  0  0  0  0  0  0  0  0  0
   -3.9600    1.4700   -1.5800 C   0  0  0  0  0  0  0  0  0  0  0  0
   -2.5840    1.4290   -1.1610 N   0  0  0  0  0  0  0  0  0  0  0  0
   -1.8190    0.2530   -0.9670 C   0  0  0  0  0  0  0  0  0  0  0  0
   -2.3200   -0.8670   -1.1660 O   0  0  0  0  0  0  0  0  0  0  0  0
   -0.3880    0.3400   -0.5290 C   0  0  0  0  0  0  0  0  0  0  0  0
    0.2800   -0.9330   -0.5590 N   0  0  0  0  0  0  0  0  0  0  0  0
    0.9840   -1.2170    0.6670 C   0  0  1  0  0  0  0  0  0  0  0  0
    1.0140   -2.7120    0.9190 C   0  0  0  0  0  0  0  0  0  0  0  0
    1.5990   -2.9840    2.2480 C   0  0  0  0  0  0  0  0  0  0  0  0
    2.9220   -2.3140    2.4860 C   0  0  0  0  0  0  0  0  0  0  0  0
    3.0080   -0.9240    1.9760 C   0  0  0  0  0  0  0  0  0  0  0  0
    2.4500   -0.7980    0.5660 C   0  0  2  0  0  0  0  0  0  0  0  0
    2.4600    0.9360    0.0400 S   0  0  0  0  0  0  0  0  0  0  0  0
    4.0890    1.5540   -0.2960 C   0  0  0  0  0  0  0  0  0  0  0  0
    4.9910    2.0830    0.5980 C   0  0  0  0  0  0  0  0  0  0  0  0
    6.1060    2.4700   -0.0480 N   0  0  0  0  0  0  0  0  0  0  0  0
    5.9450    2.2040   -1.3250 N   0  0  0  0  0  0  0  0  0  0  0  0
    4.7320    1.6460   -1.5300 C   0  0  0  0  0  0  0  0  0  0  0  0
    4.1440    1.2110   -2.8140 C   0  0  0  0  0  0  0  0  0  0  0  0
  1  2  1  0
  2  3  1  0
  3  4  1  1
  3  6  1  0
  4  5  1  0
  6  7  1  0
  7  8  1  0
  8  9  2  0
  8 10  1  0
 10 11  1  0
 12 11  1  6
 12 13  1  0
 12 17  1  0
 13 14  1  0
 14 15  1  0
 15 16  1  0
 16 17  1  0
 17 18  1  1
 18 19  1  0
 19 20  1  0
 19 23  2  0
 20 21  2  0
 21 22  1  0
 22 23  1  0
 23 24  1  0
M  CHG  1  11   1
M  END
