
     RDKit          3D

 24 25  0  0  0  0  0  0  0  0999 V2000
    6.2920   -1.0570    2.0860 N   0  0  0  0  0  0  0  0  0  0  0  0
    5.3360   -1.0600    1.0410 N   0  0  0  0  0  0  0  0  0  0  0  0
    5.6390   -0.5870   -0.2510 C   0  0  0  0  0  0  0  0  0  0  0  0
    6.8580   -0.4500   -0.6100 N   0  0  0  0  0  0  0  0  0  0  0  0
    4.5550   -0.2460   -1.2000 C   0  0  0  0  0  0  0  0  0  0  0  0
    3.6650    0.8540   -0.6420 C   0  0  0  0  0  0  0  0  0  0  0  0
    2.5690    1.1810   -1.6320 C   0  0  0  0  0  0  0  0  0  0  0  0
    1.6550    2.2560   -1.1500 C   0  0  0  0  0  0  0  0  0  0  0  0
    0.9540    1.8970    0.1400 C   0  0  0  0  0  0  0  0  0  0  0  0
    0.1420    0.6910   -0.0230 N   0  0  0  0  0  0  0  0  0  0  0  0
   -0.9170    0.6210   -0.9620 C   0  0  0  0  0  0  0  0  0  0  0  0
   -1.1980    1.5990   -1.6920 O   0  0  0  0  0  0  0  0  0  0  0  0
   -1.7020   -0.6170   -1.0850 C   0  0  2  0  0  0  0  0  0  0  0  0
   -2.7850   -0.5200   -2.1270 C   0  0  0  0  0  0  0  0  0  0  0  0
   -3.8640   -1.3380   -1.6080 N   0  0  0  0  0  0  0  0  0  0  0  0
   -3.4830   -1.9050   -0.3630 C   0  0  0  0  0  0  0  0  0  0  0  0
   -3.8710   -2.9420    0.2220 O   0  0  0  0  0  0  0  0  0  0  0  0
   -2.4570   -0.9690    0.1630 C   0  0  2  0  0  0  0  0  0  0  0  0
   -3.2080    0.2130    0.7670 C   0  0  2  0  0  0  0  0  0  0  0  0
   -3.8660   -0.3560    2.0340 C   0  0  0  0  0  0  0  0  0  0  0  0
   -4.8670    0.6320    2.5960 C   0  0  0  0  0  0  0  0  0  0  0  0
   -6.1690    0.5460    1.8780 C   0  0  0  0  0  0  0  0  0  0  0  0
   -6.1390    0.5920    0.5500 C   0  0  0  0  0  0  0  0  0  0  0  0
   -4.5820    0.7510   -0.2850 S   0  0  0  0  0  0  0  0  0  0  0  0
  1  2  1  0
  2  3  1  0
  3  4  2  0
  3  5  1  0
  5  6  1  0
  6  7  1  0
  7  8  1  0
  8  9  1  0
  9 10  1  0
 10 11  1  0
 11 12  2  0
 13 11  1  1
 13 14  1  0
 13 18  1  0
 14 15  1  0
 15 16  1  0
 16 17  2  0
 18 16  1  6
 18 19  1  0
 19 20  1  1
 19 24  1  0
 20 21  1  0
 21 22  1  0
 22 23  2  0
 23 24  1  0
M  CHG  1   4   1
M  END
