
     RDKit          3D

 24 25  0  0  0  0  0  0  0  0999 V2000
   -4.9630    0.5850    3.4520 C   0  0  0  0  0  0  0  0  0  0  0  0
   -4.2730    0.5930    2.1770 N   0  0  0  0  0  0  0  0  0  0  0  0
   -3.6680   -0.7060    1.9330 C   0  0  2  0  0  0  0  0  0  0  0  0
   -2.4300   -0.4770    1.1740 C   0  0  0  0  0  0  0  0  0  0  0  0
   -2.3710   -0.4690   -0.1680 C   0  0  0  0  0  0  0  0  0  0  0  0
   -1.0820   -0.2310   -0.8250 C   0  0  0  0  0  0  0  0  0  0  0  0
   -0.9250   -0.2210   -2.1180 C   0  0  0  0  0  0  0  0  0  0  0  0
   -2.0320   -0.4510   -3.0270 N   0  0  0  0  0  0  0  0  0  0  0  0
    0.3620   -0.1930   -2.7660 C   0  0  0  0  0  0  0  0  0  0  0  0
    1.5620   -0.2070   -2.4800 N   0  0  0  0  0  0  0  0  0  0  0  0
    2.0650   -0.2470   -1.1090 C   0  0  0  0  0  0  0  0  0  0  0  0
    2.1220   -1.5610   -0.4890 C   0  0  0  0  0  0  0  0  0  0  0  0
    1.6930   -2.7190   -1.2040 N   0  0  0  0  0  0  0  0  0  0  0  0
    2.6570   -1.7940    1.0360 S   0  0  0  0  0  0  0  0  0  0  0  0
    2.4510    0.8560   -0.5090 C   0  0  0  0  0  0  0  0  0  0  0  0
    2.3650    2.0740   -1.2360 N   0  0  0  0  0  0  0  0  0  0  0  0
    2.9200    0.8500    0.7620 O   0  0  0  0  0  0  0  0  0  0  0  0
    4.1540    1.2640    1.2600 C   0  0  1  0  0  0  0  0  0  0  0  0
    5.3770    0.5770    0.7500 C   0  0  0  0  0  0  0  0  0  0  0  0
    5.5890    1.7290   -0.2160 C   0  0  0  0  0  0  0  0  0  0  0  0
    4.6890    2.5620    0.6640 C   0  0  0  0  0  0  0  0  0  0  0  0
   -3.5380   -0.6870   -0.8650 O   0  0  0  0  0  0  0  0  0  0  0  0
   -4.7090   -1.1210   -0.2910 C   0  0  0  0  0  0  0  0  0  0  0  0
   -4.6340   -1.5720    1.1330 C   0  0  0  0  0  0  0  0  0  0  0  0
  1  2  1  0
  3  2  1  6
  3  4  1  0
  3 24  1  0
  4  5  2  0
  5  6  1  0
  5 22  1  0
  6  7  2  3
  7  8  1  0
  7  9  1  0
  9 10  2  3
 10 11  1  0
 11 12  1  0
 11 15  2  3
 12 13  1  0
 12 14  2  0
 15 16  1  0
 15 17  1  0
 18 17  1  6
 18 19  1  0
 18 21  1  0
 19 20  1  0
 20 21  1  0
 22 23  1  0
 23 24  1  0
M  CHG  1  13   1
M  END
