
     RDKit          3D

 24 25  0  0  0  0  0  0  0  0999 V2000
   -0.5680   -2.9290    2.1570 C   0  0  0  0  0  0  0  0  0  0  0  0
   -0.7070   -1.2190    1.6580 S   0  0  0  0  0  0  0  0  0  0  0  0
   -2.1900   -0.8660    0.7330 C   0  0  0  0  0  0  0  0  0  0  0  0
   -2.9930   -1.9240    0.5420 C   0  0  0  0  0  0  0  0  0  0  0  0
   -4.2470   -1.6100   -0.2440 C   0  0  0  0  0  0  0  0  0  0  0  0
   -3.8680   -0.9110   -1.5190 C   0  0  0  0  0  0  0  0  0  0  0  0
   -2.8280    0.1710   -1.3370 C   0  0  0  0  0  0  0  0  0  0  0  0
   -2.6370    0.3880    0.1750 C   0  0  2  0  0  0  0  0  0  0  0  0
   -2.0420    1.6100    0.5110 N   0  0  0  0  0  0  0  0  0  0  0  0
   -0.6680    1.8040    0.6200 C   0  0  0  0  0  0  0  0  0  0  0  0
    0.1340    1.9800   -0.6690 C   0  0  2  0  0  0  0  0  0  0  0  0
    1.5560    2.1440   -0.2560 N   0  0  0  0  0  0  0  0  0  0  0  0
    2.5510    1.1950   -0.5850 C   0  0  0  0  0  0  0  0  0  0  0  0
    2.1540    0.1940   -1.2560 O   0  0  0  0  0  0  0  0  0  0  0  0
    3.9810    1.3610   -0.1690 C   0  0  0  0  0  0  0  0  0  0  0  0
    4.7630    0.1670   -0.6210 C   0  0  0  0  0  0  0  0  0  0  0  0
    4.2780   -1.0750   -0.0210 C   0  0  0  0  0  0  0  0  0  0  0  0
    4.7600   -2.3020   -0.2860 N   0  0  0  0  0  0  0  0  0  0  0  0
    4.0880   -3.2060    0.4510 C   0  0  0  0  0  0  0  0  0  0  0  0
    3.1710   -2.4980    1.1830 C   0  0  0  0  0  0  0  0  0  0  0  0
    3.2940   -1.1760    0.8850 N   0  0  0  0  0  0  0  0  0  0  0  0
   -0.2750    3.1190   -1.4800 C   0  0  0  0  0  0  0  0  0  0  0  0
   -1.5420    3.2500   -2.0740 N   0  0  0  0  0  0  0  0  0  0  0  0
    0.5430    4.0630   -1.6800 O   0  0  0  0  0  0  0  0  0  0  0  0
  1  2  1  0
  2  3  1  0
  3  4  2  0
  3  8  1  0
  4  5  1  0
  5  6  1  0
  6  7  1  0
  7  8  1  0
  8  9  1  6
  9 10  1  0
 11 10  1  1
 11 12  1  0
 11 22  1  0
 12 13  1  0
 13 14  2  0
 13 15  1  0
 15 16  1  0
 16 17  1  0
 17 18  2  0
 17 21  1  0
 18 19  1  0
 19 20  2  0
 20 21  1  0
 22 23  1  0
 22 24  2  0
M  CHG  1   9   1
M  END
