
     RDKit          3D

 21 20  0  0  0  0  0  0  0  0999 V2000
    0.2800    4.6450    0.2770 N   0  0  0  0  0  0  0  0  0  0  0  0
   -0.6530    3.7180   -0.2110 C   0  0  0  0  0  0  0  0  0  0  0  0
   -1.5790    4.0440   -1.0290 O   0  0  0  0  0  0  0  0  0  0  0  0
   -0.6110    2.4080    0.1740 O   0  0  0  0  0  0  0  0  0  0  0  0
   -1.5190    1.4170   -0.2770 C   0  0  0  0  0  0  0  0  0  0  0  0
   -1.2020    0.0740    0.3340 C   0  0  2  0  0  0  0  0  0  0  0  0
    0.0700   -0.3640    0.0140 O   0  0  0  0  0  0  0  0  0  0  0  0
    0.9100   -0.4400    1.1200 C   0  0  0  0  0  0  0  0  0  0  0  0
    2.2950   -0.9220    0.7440 C   0  0  0  0  0  0  0  0  0  0  0  0
    2.9120   -0.0910   -0.1630 O   0  0  0  0  0  0  0  0  0  0  0  0
    4.1470   -0.4270   -0.5640 C   0  0  1  0  0  0  0  0  0  0  0  0
    4.1180   -0.7340   -1.9330 O   0  0  0  0  0  0  0  0  0  0  0  0
    5.2340    0.5780   -0.3590 C   0  0  0  0  0  0  0  0  0  0  0  0
    5.4190    0.9210    0.9770 O   0  0  0  0  0  0  0  0  0  0  0  0
   -2.2270   -0.9650    0.0840 C   0  0  1  0  0  0  0  0  0  0  0  0
   -3.5860   -0.5800    0.6380 C   0  0  0  0  0  0  0  0  0  0  0  0
   -3.4250   -0.3970    2.0850 N   0  0  0  0  0  0  0  0  0  0  0  0
   -2.4050   -1.4060   -1.3180 C   0  0  2  0  0  0  0  0  0  0  0  0
   -3.4300   -2.3860   -1.3160 O   0  0  0  0  0  0  0  0  0  0  0  0
   -1.1980   -2.1670   -1.8810 C   0  0  0  0  0  0  0  0  0  0  0  0
   -0.9090   -3.2550   -1.0640 O   0  0  0  0  0  0  0  0  0  0  0  0
  1  2  1  0
  2  3  2  0
  2  4  1  0
  4  5  1  0
  6  5  1  6
  6  7  1  0
  6 15  1  0
  7  8  1  0
  8  9  1  0
  9 10  1  0
 10 11  1  0
 11 12  1  6
 11 13  1  0
 13 14  1  0
 15 16  1  6
 15 18  1  0
 16 17  1  0
 18 19  1  1
 18 20  1  0
 20 21  1  0
M  CHG  1  17   1
M  END
