
     RDKit          3D

 20 19  0  0  0  0  0  0  0  0999 V2000
    6.8080   -1.3210    0.4970 N   0  0  0  0  0  0  0  0  0  0  0  0
    6.2040   -0.1890    0.9270 O   0  0  0  0  0  0  0  0  0  0  0  0
    4.9540   -0.1270    0.3190 C   0  0  0  0  0  0  0  0  0  0  0  0
    4.2560    1.0210    0.7100 O   0  0  0  0  0  0  0  0  0  0  0  0
    3.0030    1.0690    0.0910 C   0  0  2  0  0  0  0  0  0  0  0  0
    2.9080    2.2700   -0.8220 C   0  0  0  0  0  0  0  0  0  0  0  0
    3.9240    2.1250   -1.7800 O   0  0  0  0  0  0  0  0  0  0  0  0
    1.9750    1.0640    1.1650 C   0  0  0  0  0  0  0  0  0  0  0  0
    0.5560    1.1130    0.7230 C   0  0  0  0  0  0  0  0  0  0  0  0
    0.1380    0.0030   -0.1150 N   0  0  0  0  0  0  0  0  0  0  0  0
   -0.5510   -1.0100    0.6110 C   0  0  0  0  0  0  0  0  0  0  0  0
   -1.9740   -1.2900    0.2590 C   0  0  0  0  0  0  0  0  0  0  0  0
   -2.9550   -0.2170    0.4360 C   0  0  1  0  0  0  0  0  0  0  0  0
   -2.8930    0.1430    1.8130 O   0  0  0  0  0  0  0  0  0  0  0  0
   -2.8690    1.0290   -0.3470 C   0  0  0  0  0  0  0  0  0  0  0  0
   -2.9190    0.8640   -1.7290 O   0  0  0  0  0  0  0  0  0  0  0  0
   -4.4000   -0.7240    0.3180 C   0  0  0  0  0  0  0  0  0  0  0  0
   -4.7490   -1.3400   -0.9730 C   0  0  2  0  0  0  0  0  0  0  0  0
   -6.1070   -1.7340   -0.8890 O   0  0  0  0  0  0  0  0  0  0  0  0
   -4.0540   -2.4700   -1.3300 O   0  0  0  0  0  0  0  0  0  0  0  0
  1  2  1  0
  2  3  1  0
  3  4  1  0
  4  5  1  0
  5  6  1  1
  5  8  1  0
  6  7  1  0
  8  9  1  0
  9 10  1  0
 10 11  1  0
 11 12  1  0
 12 13  1  0
 13 14  1  1
 13 15  1  0
 13 17  1  0
 15 16  1  0
 17 18  1  0
 18 19  1  1
 18 20  1  0
M  CHG  1  10   1
M  END
