
     RDKit          3D

 20 19  0  0  0  0  0  0  0  0999 V2000
   -3.8140    1.2360    0.7020 C   0  0  0  0  0  0  0  0  0  0  0  0
   -2.7860    0.6400   -0.2740 C   0  0  1  0  0  0  0  0  0  0  0  0
   -3.5900   -0.0440   -1.3710 C   0  0  0  0  0  0  0  0  0  0  0  0
   -4.4220   -1.0390   -0.9780 O   0  0  0  0  0  0  0  0  0  0  0  0
   -2.2000    1.8620   -0.9600 C   0  0  0  0  0  0  0  0  0  0  0  0
   -1.6520    2.7260   -0.0210 O   0  0  0  0  0  0  0  0  0  0  0  0
   -1.8640   -0.3290    0.3150 C   0  0  2  0  0  0  0  0  0  0  0  0
   -2.7090   -1.3820    0.9160 N   0  0  0  0  0  0  0  0  0  0  0  0
   -0.8050    0.0380    1.2460 C   0  0  2  0  0  0  0  0  0  0  0  0
    0.0900    0.9990    0.7730 O   0  0  0  0  0  0  0  0  0  0  0  0
    0.0190   -1.1460    1.6730 C   0  0  0  0  0  0  0  0  0  0  0  0
    0.7860   -1.7710    0.7570 O   0  0  0  0  0  0  0  0  0  0  0  0
    1.8510   -1.1720    0.1790 C   0  0  2  0  0  0  0  0  0  0  0  0
    1.6260   -1.1390   -1.2180 O   0  0  0  0  0  0  0  0  0  0  0  0
    3.1340   -1.9750    0.3250 C   0  0  0  0  0  0  0  0  0  0  0  0
    4.1610   -1.3320   -0.2990 O   0  0  0  0  0  0  0  0  0  0  0  0
    4.5180   -0.0930    0.1330 C   0  0  0  0  0  0  0  0  0  0  0  0
    5.6910    0.4400   -0.6550 C   0  0  0  0  0  0  0  0  0  0  0  0
    6.1630    1.7290   -0.3020 N   0  0  0  0  0  0  0  0  0  0  0  0
    6.2180   -0.2280   -1.5740 O   0  0  0  0  0  0  0  0  0  0  0  0
  2  1  1  1
  2  3  1  0
  2  5  1  0
  2  7  1  0
  3  4  1  0
  5  6  1  0
  7  8  1  1
  7  9  1  0
  9 10  1  6
  9 11  1  0
 11 12  1  0
 12 13  1  0
 13 14  1  6
 13 15  1  0
 15 16  1  0
 16 17  1  0
 17 18  1  0
 18 19  1  0
 18 20  2  0
M  CHG  1   8   1
M  END
