
     RDKit          3D

 13 14  0  0  0  0  0  0  0  0999 V2000
   -1.1700   -1.9420    0.1290 C   0  0  0  0  0  0  0  0  0  0  0  0
   -0.7220   -0.5440    0.0260 C   0  0  0  0  0  0  0  0  0  0  0  0
    0.5960   -0.2890    0.0350 C   0  0  0  0  0  0  0  0  0  0  0  0
    1.5200   -1.3620    0.1410 N   0  0  0  0  0  0  0  0  0  0  0  0
    2.9200   -1.0800    0.1480 C   0  0  0  0  0  0  0  0  0  0  0  0
    3.3630    0.1660    0.0580 C   0  0  0  0  0  0  0  0  0  0  0  0
    2.4120    1.2780   -0.0520 C   0  0  0  0  0  0  0  0  0  0  0  0
    1.1090    1.0750   -0.0630 C   0  0  0  0  0  0  0  0  0  0  0  0
    0.1540    2.1370   -0.1690 N   0  0  0  0  0  0  0  0  0  0  0  0
   -1.2540    1.8720   -0.1780 C   0  0  0  0  0  0  0  0  0  0  0  0
   -2.3630    3.0580   -0.2970 S   0  0  0  0  0  0  0  0  0  0  0  0
   -1.6740    0.5120   -0.0790 N   0  0  0  0  0  0  0  0  0  0  0  0
   -3.0900    0.1730   -0.0820 C   0  0  0  0  0  0  0  0  0  0  0  0
  1  2  1  0
  2  3  2  0
  2 12  1  0
  3  4  1  0
  3  8  1  0
  4  5  1  0
  5  6  2  0
  6  7  1  0
  7  8  2  0
  8  9  1  0
  9 10  1  0
 10 11  2  0
 10 12  1  0
 12 13  1  0
M  END
