
     RDKit          3D

 13 14  0  0  0  0  0  0  0  0999 V2000
    4.5070   -0.6170    0.1320 C   0  0  0  0  0  0  0  0  0  0  0  0
    3.5770    0.4770    1.2300 S   0  0  0  0  0  0  0  0  0  0  0  0
    1.8930    0.5840    0.5830 C   0  0  0  0  0  0  0  0  0  0  0  0
    1.6010    1.5400   -0.3090 N   0  0  0  0  0  0  0  0  0  0  0  0
    0.3860    1.7140   -0.8570 C   0  0  0  0  0  0  0  0  0  0  0  0
   -0.6150    0.8410   -0.4610 C   0  0  0  0  0  0  0  0  0  0  0  0
   -0.3160   -0.1550    0.4670 C   0  0  0  0  0  0  0  0  0  0  0  0
    0.9330   -0.2560    0.9640 N   0  0  0  0  0  0  0  0  0  0  0  0
   -1.2050   -1.1510    1.0010 N   0  0  0  0  0  0  0  0  0  0  0  0
   -2.6230   -1.2210    0.9260 C   0  0  0  0  0  0  0  0  0  0  0  0
   -3.3830   -0.4900    0.1280 C   0  0  0  0  0  0  0  0  0  0  0  0
   -3.0490    0.5400   -0.8510 C   0  0  0  0  0  0  0  0  0  0  0  0
   -1.8920    1.0940   -1.0950 C   0  0  0  0  0  0  0  0  0  0  0  0
  1  2  1  0
  2  3  1  0
  3  4  2  0
  3  8  1  0
  4  5  1  0
  5  6  2  0
  6  7  1  0
  6 13  1  0
  7  8  2  0
  7  9  1  0
  9 10  1  0
 10 11  2  0
 11 12  1  0
 12 13  2  0
M  END
