
     RDKit          3D

 28 30  0  0  0  0  0  0  0  0999 V2000
   -3.7200    1.5330   -3.7220 C   0  0  0  0  0  0  0  0  0  0  0  0
   -3.0440    1.1950   -2.5280 O   0  0  0  0  0  0  0  0  0  0  0  0
   -3.8090    0.8820   -1.4200 C   0  0  0  0  0  0  0  0  0  0  0  0
   -5.1970    0.9020   -1.4850 C   0  0  0  0  0  0  0  0  0  0  0  0
   -5.9270    0.5820   -0.3510 C   0  0  0  0  0  0  0  0  0  0  0  0
   -5.2850    0.2500    0.8220 C   0  0  0  0  0  0  0  0  0  0  0  0
   -6.0020   -0.0660    1.9420 C   0  0  0  0  0  0  0  0  0  0  0  0
   -5.4050   -0.4070    3.1430 C   0  0  0  0  0  0  0  0  0  0  0  0
   -4.0200   -0.4140    3.1590 C   0  0  0  0  0  0  0  0  0  0  0  0
   -3.3010   -0.1010    2.0510 C   0  0  0  0  0  0  0  0  0  0  0  0
   -3.8860    0.2370    0.8580 C   0  0  0  0  0  0  0  0  0  0  0  0
   -3.1440    0.5530   -0.2610 C   0  0  0  0  0  0  0  0  0  0  0  0
   -1.7880    0.5460   -0.2430 O   0  0  0  0  0  0  0  0  0  0  0  0
   -0.9360   -0.5060   -0.5290 C   0  0  0  0  0  0  0  0  0  0  0  0
    0.5030   -0.0440   -0.3770 C   0  0  0  0  0  0  0  0  0  0  0  0
    0.7150    1.1300   -0.0420 O   0  0  0  0  0  0  0  0  0  0  0  0
    1.5650   -0.9290   -0.6110 N   0  0  0  0  0  0  0  0  0  0  0  0
    2.9450   -0.6320   -0.5070 C   0  0  0  0  0  0  0  0  0  0  0  0
    3.4810    0.5790   -0.1570 C   0  0  0  0  0  0  0  0  0  0  0  0
    4.8630    0.7320   -0.0930 C   0  0  0  0  0  0  0  0  0  0  0  0
    5.7320   -0.2930   -0.3700 C   0  0  0  0  0  0  0  0  0  0  0  0
    7.1940   -0.0460   -0.2780 C   0  0  0  0  0  0  0  0  0  0  0  0
    7.7010   -0.4190    1.3930 S   0  0  2  0  0  0  0  0  0  0  0  0
    6.7370   -1.4340    1.9540 O   0  0  0  0  0  0  0  0  0  0  0  0
    7.6710    0.8120    2.2230 O   0  0  0  0  0  0  0  0  0  0  0  0
    5.1980   -1.4760   -0.7120 N   0  0  0  0  0  0  0  0  0  0  0  0
    3.8720   -1.6390   -0.7780 C   0  0  0  0  0  0  0  0  0  0  0  0
    3.4000   -2.7740   -1.1060 O   0  0  0  0  0  0  0  0  0  0  0  0
  1  2  1  0
  2  3  1  0
  3  4  2  0
  3 12  1  0
  4  5  1  0
  5  6  2  0
  6  7  1  0
  6 11  1  0
  7  8  2  0
  8  9  1  0
  9 10  2  0
 10 11  1  0
 11 12  2  0
 12 13  1  0
 13 14  1  0
 14 15  1  0
 15 16  2  0
 15 17  1  0
 17 18  1  0
 18 19  2  0
 18 27  1  0
 19 20  1  0
 20 21  2  0
 21 22  1  0
 21 26  1  0
 23 22  1  6
 23 24  2  0
 23 25  2  0
 26 27  1  0
 27 28  2  0
M  END
