
     RDKit          3D

 21 20  0  0  0  0  0  0  0  0999 V2000
    5.7260   -1.2320    0.8780 N   0  0  0  0  0  0  0  0  0  0  0  0
    5.6760   -0.0080    1.5930 C   0  0  0  0  0  0  0  0  0  0  0  0
    6.6940    0.4940    2.1130 O   0  0  0  0  0  0  0  0  0  0  0  0
    4.3480    0.6630    1.7020 C   0  0  1  0  0  0  0  0  0  0  0  0
    4.4320    1.8490    2.4240 O   0  0  0  0  0  0  0  0  0  0  0  0
    3.8210    0.8170    0.4510 O   0  0  0  0  0  0  0  0  0  0  0  0
    2.6460    0.1020    0.2470 C   0  0  0  0  0  0  0  0  0  0  0  0
    2.0900    0.2880   -1.1310 C   0  0  0  0  0  0  0  0  0  0  0  0
    0.8710   -0.4750   -1.2890 N   0  0  0  0  0  0  0  0  0  0  0  0
   -0.2220    0.1470   -0.5640 C   0  0  0  0  0  0  0  0  0  0  0  0
   -1.5170   -0.2200   -1.2470 C   0  0  1  0  0  0  0  0  0  0  0  0
   -1.3550    0.3070   -2.5870 O   0  0  0  0  0  0  0  0  0  0  0  0
   -1.6160   -1.6780   -1.4160 C   0  0  0  0  0  0  0  0  0  0  0  0
   -1.7710   -2.3860   -0.2720 O   0  0  0  0  0  0  0  0  0  0  0  0
   -2.6330    0.5380   -0.6700 C   0  0  1  0  0  0  0  0  0  0  0  0
   -3.9860    0.2040   -1.2870 C   0  0  0  0  0  0  0  0  0  0  0  0
   -4.3340   -1.1090   -1.1430 O   0  0  0  0  0  0  0  0  0  0  0  0
   -2.6810    0.8360    0.7820 C   0  0  1  0  0  0  0  0  0  0  0  0
   -3.8910    1.6010    1.0170 O   0  0  0  0  0  0  0  0  0  0  0  0
   -2.8010   -0.2840    1.7450 C   0  0  0  0  0  0  0  0  0  0  0  0
   -2.9370    0.3440    3.0300 O   0  0  0  0  0  0  0  0  0  0  0  0
  1  2  1  0
  2  3  2  0
  2  4  1  0
  4  5  1  6
  4  6  1  0
  6  7  1  0
  7  8  1  0
  8  9  1  0
  9 10  1  0
 10 11  1  0
 11 12  1  6
 11 13  1  0
 11 15  1  0
 13 14  1  0
 15 16  1  1
 15 18  1  0
 16 17  1  0
 18 19  1  6
 18 20  1  0
 20 21  1  0
M  CHG  1   9   1
M  END
