
     RDKit          3D

 21 20  0  0  0  0  0  0  0  0999 V2000
   -5.1400   -2.5940   -1.0730 O   0  0  0  0  0  0  0  0  0  0  0  0
   -4.0520   -1.7300   -1.3550 C   0  0  0  0  0  0  0  0  0  0  0  0
   -3.1930   -1.5430   -0.1500 C   0  0  0  0  0  0  0  0  0  0  0  0
   -1.9960   -0.6500   -0.3530 C   0  0  2  0  0  0  0  0  0  0  0  0
   -1.3350   -0.6060    0.8690 O   0  0  0  0  0  0  0  0  0  0  0  0
   -0.0440   -1.0540    0.7970 C   0  0  0  0  0  0  0  0  0  0  0  0
    0.8550   -0.2400   -0.0980 C   0  0  0  0  0  0  0  0  0  0  0  0
    2.1650   -0.8610   -0.0420 N   0  0  0  0  0  0  0  0  0  0  0  0
    3.2370    0.0750   -0.2890 C   0  0  1  0  0  0  0  0  0  0  0  0
    4.5170   -0.7350   -0.3960 C   0  0  0  0  0  0  0  0  0  0  0  0
    4.8060   -1.4490    0.7380 O   0  0  0  0  0  0  0  0  0  0  0  0
    3.0630    0.8100   -1.5850 C   0  0  0  0  0  0  0  0  0  0  0  0
    1.8940    1.5510   -1.6510 O   0  0  0  0  0  0  0  0  0  0  0  0
    3.4240    1.0700    0.8150 C   0  0  0  0  0  0  0  0  0  0  0  0
    4.4810    1.9060    0.4540 O   0  0  0  0  0  0  0  0  0  0  0  0
   -2.3540    0.7780   -0.6960 C   0  0  1  0  0  0  0  0  0  0  0  0
   -3.0100    0.8950   -1.9170 O   0  0  0  0  0  0  0  0  0  0  0  0
   -3.0500    1.4820    0.3910 C   0  0  0  0  0  0  0  0  0  0  0  0
   -4.2630    0.9980    0.8580 O   0  0  0  0  0  0  0  0  0  0  0  0
   -2.5800    2.5480    0.9450 N   0  0  0  0  0  0  0  0  0  0  0  0
   -3.2130    3.2130    1.9560 O   0  0  0  0  0  0  0  0  0  0  0  0
  1  2  1  0
  2  3  1  0
  4  3  1  1
  4  5  1  0
  4 16  1  0
  5  6  1  0
  6  7  1  0
  7  8  1  0
  8  9  1  0
  9 10  1  6
  9 12  1  0
  9 14  1  0
 10 11  1  0
 12 13  1  0
 14 15  1  0
 16 17  1  6
 16 18  1  0
 18 19  1  0
 18 20  2  3
 20 21  1  0
M  CHG  1   8   1
M  END
