
     RDKit          3D

 20 19  0  0  0  0  0  0  0  0999 V2000
   -3.0390    1.9210   -1.6960 N   0  0  0  0  0  0  0  0  0  0  0  0
   -2.3880    1.4890   -0.5040 C   0  0  0  0  0  0  0  0  0  0  0  0
   -2.2340   -0.0170   -0.4660 C   0  0  2  0  0  0  0  0  0  0  0  0
   -1.4040   -0.4070   -1.6670 C   0  0  0  0  0  0  0  0  0  0  0  0
   -0.1610    0.2140   -1.6080 O   0  0  0  0  0  0  0  0  0  0  0  0
   -3.6070   -0.6320   -0.6620 C   0  0  0  0  0  0  0  0  0  0  0  0
   -3.6090   -1.9990   -0.6490 O   0  0  0  0  0  0  0  0  0  0  0  0
   -1.6120   -0.5070    0.8110 C   0  0  2  0  0  0  0  0  0  0  0  0
   -2.4170   -0.1510    2.0280 C   0  0  0  0  0  0  0  0  0  0  0  0
   -1.8150   -0.8320    3.1660 N   0  0  0  0  0  0  0  0  0  0  0  0
   -0.2690   -0.1340    0.8790 O   0  0  0  0  0  0  0  0  0  0  0  0
    0.7940   -1.0200    0.8820 C   0  0  0  0  0  0  0  0  0  0  0  0
    0.4620   -2.2330    0.8120 O   0  0  0  0  0  0  0  0  0  0  0  0
    2.2060   -0.6400    0.9610 C   0  0  1  0  0  0  0  0  0  0  0  0
    2.9940   -1.7880    0.9320 O   0  0  0  0  0  0  0  0  0  0  0  0
    2.6530    0.3690   -0.0510 C   0  0  0  0  0  0  0  0  0  0  0  0
    4.1170    0.7010    0.1030 C   0  0  1  0  0  0  0  0  0  0  0  0
    4.8860   -0.4560   -0.0660 O   0  0  0  0  0  0  0  0  0  0  0  0
    4.5710    1.7000   -0.9370 C   0  0  0  0  0  0  0  0  0  0  0  0
    4.4030    1.2240   -2.2130 O   0  0  0  0  0  0  0  0  0  0  0  0
  1  2  1  0
  3  2  1  1
  3  4  1  0
  3  6  1  0
  3  8  1  0
  4  5  1  0
  6  7  1  0
  8  9  1  1
  8 11  1  0
  9 10  1  0
 11 12  1  0
 12 13  2  0
 12 14  1  0
 14 15  1  6
 14 16  1  0
 16 17  1  0
 17 18  1  6
 17 19  1  0
 19 20  1  0
M  CHG  1  10   1
M  END
