
     RDKit          3D

 20 19  0  0  0  0  0  0  0  0999 V2000
    0.6640    3.3760   -0.5880 C   0  0  0  0  0  0  0  0  0  0  0  0
    0.4050    2.1910    0.0490 O   0  0  0  0  0  0  0  0  0  0  0  0
    1.2590    1.1950   -0.4180 C   0  0  0  0  0  0  0  0  0  0  0  0
    0.9860   -0.1400    0.2830 C   0  0  1  0  0  0  0  0  0  0  0  0
    1.4130    0.0010    1.6890 C   0  0  0  0  0  0  0  0  0  0  0  0
    0.7030    0.9650    2.3930 O   0  0  0  0  0  0  0  0  0  0  0  0
   -0.3620   -0.5180    0.0290 N   0  0  0  0  0  0  0  0  0  0  0  0
   -1.3840    0.0310    0.8420 C   0  0  0  0  0  0  0  0  0  0  0  0
   -2.6840   -0.0440    0.0260 C   0  0  1  0  0  0  0  0  0  0  0  0
   -2.4570    0.7070   -1.1240 O   0  0  0  0  0  0  0  0  0  0  0  0
   -2.9790   -1.4940   -0.3130 C   0  0  0  0  0  0  0  0  0  0  0  0
   -4.1270   -1.5910   -1.1040 O   0  0  0  0  0  0  0  0  0  0  0  0
   -3.8060    0.5660    0.7660 C   0  0  0  0  0  0  0  0  0  0  0  0
   -4.4270    1.7130    0.2470 N   0  0  0  0  0  0  0  0  0  0  0  0
   -4.2400    0.1010    1.8550 O   0  0  0  0  0  0  0  0  0  0  0  0
    1.8300   -1.1780   -0.4730 C   0  0  2  0  0  0  0  0  0  0  0  0
    1.5190   -2.4180    0.0290 O   0  0  0  0  0  0  0  0  0  0  0  0
    3.2830   -0.8690   -0.4900 C   0  0  0  0  0  0  0  0  0  0  0  0
    3.9870   -1.9790   -1.2630 C   0  0  0  0  0  0  0  0  0  0  0  0
    3.4630   -1.9960   -2.5510 O   0  0  0  0  0  0  0  0  0  0  0  0
  1  2  1  0
  2  3  1  0
  4  3  1  6
  4  5  1  0
  4  7  1  0
  4 16  1  0
  5  6  1  0
  7  8  1  0
  8  9  1  0
  9 10  1  6
  9 11  1  0
  9 13  1  0
 11 12  1  0
 13 14  1  0
 13 15  2  0
 16 17  1  1
 16 18  1  0
 18 19  1  0
 19 20  1  0
M  CHG  1   7   1
M  END
