
     RDKit          3D

 21 20  0  0  0  0  0  0  0  0999 V2000
   -0.7490   -0.1230    1.7520 C   0  0  0  0  0  0  0  0  0  0  0  0
   -0.8280    0.1120    0.2480 C   0  0  1  0  0  0  0  0  0  0  0  0
   -1.4730    1.2130   -0.0980 O   0  0  0  0  0  0  0  0  0  0  0  0
   -1.0910    2.4690   -0.0490 C   0  0  0  0  0  0  0  0  0  0  0  0
   -2.1960    3.4370   -0.4640 C   0  0  0  0  0  0  0  0  0  0  0  0
   -1.9800    4.8330   -0.4770 N   0  0  0  0  0  0  0  0  0  0  0  0
   -3.2980    2.9480   -0.7920 O   0  0  0  0  0  0  0  0  0  0  0  0
    0.3280   -0.1370   -0.3920 O   0  0  0  0  0  0  0  0  0  0  0  0
    1.3820    0.6850   -0.3310 C   0  0  2  0  0  0  0  0  0  0  0  0
    1.6970    1.0740   -1.6570 O   0  0  0  0  0  0  0  0  0  0  0  0
    2.6390    0.0320    0.1920 C   0  0  2  0  0  0  0  0  0  0  0  0
    2.4110   -0.4310    1.4810 O   0  0  0  0  0  0  0  0  0  0  0  0
    3.7010    1.1110    0.2710 C   0  0  0  0  0  0  0  0  0  0  0  0
    4.8920    0.6160    0.8030 O   0  0  0  0  0  0  0  0  0  0  0  0
    3.1160   -1.1120   -0.6390 C   0  0  0  0  0  0  0  0  0  0  0  0
    3.3860   -0.8100   -1.9470 O   0  0  0  0  0  0  0  0  0  0  0  0
   -1.7660   -1.0470   -0.2090 C   0  0  2  0  0  0  0  0  0  0  0  0
   -3.0350   -0.9870    0.4470 N   0  0  0  0  0  0  0  0  0  0  0  0
   -1.0770   -2.3710   -0.1450 C   0  0  0  0  0  0  0  0  0  0  0  0
   -1.9800   -3.5050   -0.5930 C   0  0  0  0  0  0  0  0  0  0  0  0
   -3.1100   -3.5830    0.2120 O   0  0  0  0  0  0  0  0  0  0  0  0
  2  1  1  1
  2  3  1  0
  2  8  1  0
  2 17  1  0
  3  4  1  0
  4  5  1  0
  5  6  1  0
  5  7  2  0
  8  9  1  0
  9 10  1  6
  9 11  1  0
 11 12  1  1
 11 13  1  0
 11 15  1  0
 13 14  1  0
 15 16  1  0
 17 18  1  1
 17 19  1  0
 19 20  1  0
 20 21  1  0
M  CHG  1  18   1
M  END
