
     RDKit          3D

 20 20  0  0  0  0  0  0  0  0999 V2000
    0.2520   -2.2300    0.8740 N   0  0  0  0  0  0  0  0  0  0  0  0
   -0.6810   -1.1460    1.0670 C   0  0  0  0  0  0  0  0  0  0  0  0
   -1.2040   -0.6760   -0.2270 C   0  0  2  0  0  0  0  0  0  0  0  0
   -1.9220   -1.8230   -0.9520 C   0  0  0  0  0  0  0  0  0  0  0  0
   -1.0790   -2.8850   -1.1980 O   0  0  0  0  0  0  0  0  0  0  0  0
   -0.3500    0.0860   -1.1640 C   0  0  2  0  0  0  0  0  0  0  0  0
    0.1420   -0.6180   -2.2760 O   0  0  0  0  0  0  0  0  0  0  0  0
    0.7140    0.9860   -0.6380 C   0  0  0  0  0  0  0  0  0  0  0  0
    1.8690    0.3240   -0.2340 O   0  0  0  0  0  0  0  0  0  0  0  0
    2.7670    1.2730    0.2300 C   0  0  0  0  0  0  0  0  0  0  0  0
    4.0570    0.6700    0.6950 C   0  0  0  0  0  0  0  0  0  0  0  0
    4.7710   -0.0830   -0.3980 C   0  0  0  0  0  0  0  0  0  0  0  0
    3.9630   -1.1320   -0.8770 O   0  0  0  0  0  0  0  0  0  0  0  0
   -1.6130    0.8800   -1.5510 C   0  0  0  0  0  0  0  0  0  0  0  0
   -2.1460    0.5120   -0.1840 C   0  0  1  0  0  0  0  0  0  0  0  0
   -3.6080    0.1400   -0.1590 C   0  0  0  0  0  0  0  0  0  0  0  0
   -3.8780   -0.3200    1.1440 O   0  0  0  0  0  0  0  0  0  0  0  0
   -1.8650    1.5320    0.7710 N   0  0  0  0  0  0  0  0  0  0  0  0
   -2.8150    2.4870    0.6420 O   0  0  0  0  0  0  0  0  0  0  0  0
   -2.3870    3.6810    0.9190 O   0  0  0  0  0  0  0  0  0  0  0  0
  1  2  1  0
  3  2  1  1
  3  4  1  0
  3  6  1  0
  3 15  1  0
  4  5  1  0
  6  7  1  6
  6  8  1  0
  6 14  1  0
  8  9  1  0
  9 10  1  0
 10 11  1  0
 11 12  1  0
 12 13  1  0
 14 15  1  0
 15 16  1  6
 15 18  1  0
 16 17  1  0
 18 19  1  0
 19 20  1  0
M  CHG  1   1   1
M  END
