
     RDKit          3D

 21 20  0  0  0  0  0  0  0  0999 V2000
   -0.3910   -0.2090   -2.3820 C   0  0  0  0  0  0  0  0  0  0  0  0
   -0.8920   -0.0050   -0.9510 C   0  0  1  0  0  0  0  0  0  0  0  0
   -1.7260   -0.9600   -0.5390 O   0  0  0  0  0  0  0  0  0  0  0  0
   -1.4680   -2.1990   -0.2110 C   0  0  0  0  0  0  0  0  0  0  0  0
   -2.7700   -2.9130    0.1170 C   0  0  0  0  0  0  0  0  0  0  0  0
   -2.7630   -4.2730    0.5020 N   0  0  0  0  0  0  0  0  0  0  0  0
   -3.8590   -2.3080    0.0500 O   0  0  0  0  0  0  0  0  0  0  0  0
    0.0840    0.2960   -0.0830 O   0  0  0  0  0  0  0  0  0  0  0  0
    1.0210   -0.5350    0.3490 C   0  0  2  0  0  0  0  0  0  0  0  0
    0.9880   -0.5760    1.7660 O   0  0  0  0  0  0  0  0  0  0  0  0
    2.4370    0.0330    0.0700 C   0  0  1  0  0  0  0  0  0  0  0  0
    2.6500    0.2330   -1.2700 O   0  0  0  0  0  0  0  0  0  0  0  0
    2.6430    1.3090    0.8410 C   0  0  0  0  0  0  0  0  0  0  0  0
    3.9600    1.7090    0.6200 O   0  0  0  0  0  0  0  0  0  0  0  0
    3.4270   -0.9880    0.5890 C   0  0  0  0  0  0  0  0  0  0  0  0
    4.7210   -0.5700    0.4140 O   0  0  0  0  0  0  0  0  0  0  0  0
   -1.7680    1.2630   -1.0840 C   0  0  2  0  0  0  0  0  0  0  0  0
   -0.9670    2.3850   -1.5210 N   0  0  0  0  0  0  0  0  0  0  0  0
   -2.5670    1.5560    0.1380 C   0  0  0  0  0  0  0  0  0  0  0  0
   -1.7840    1.7900    1.3880 C   0  0  0  0  0  0  0  0  0  0  0  0
   -0.9040    2.8550    1.3090 O   0  0  0  0  0  0  0  0  0  0  0  0
  2  1  1  6
  2  3  1  0
  2  8  1  0
  2 17  1  0
  3  4  1  0
  4  5  1  0
  5  6  1  0
  5  7  2  0
  8  9  1  0
  9 10  1  1
  9 11  1  0
 11 12  1  6
 11 13  1  0
 11 15  1  0
 13 14  1  0
 15 16  1  0
 17 18  1  1
 17 19  1  0
 19 20  1  0
 20 21  1  0
M  CHG  1  18   1
M  END
