
     RDKit          3D

 20 19  0  0  0  0  0  0  0  0999 V2000
   -2.7830    2.5260    0.0450 N   0  0  0  0  0  0  0  0  0  0  0  0
   -1.7950    1.5100   -0.1400 C   0  0  0  0  0  0  0  0  0  0  0  0
   -2.3620    0.1220    0.3070 C   0  0  1  0  0  0  0  0  0  0  0  0
   -2.7110    0.2580    1.7340 C   0  0  0  0  0  0  0  0  0  0  0  0
   -3.6670    1.2470    1.9650 O   0  0  0  0  0  0  0  0  0  0  0  0
   -3.6410    0.0120   -0.4960 C   0  0  0  0  0  0  0  0  0  0  0  0
   -4.5020    1.0830   -0.1980 O   0  0  0  0  0  0  0  0  0  0  0  0
   -1.3360   -0.8680   -0.0550 C   0  0  2  0  0  0  0  0  0  0  0  0
   -1.5210   -2.3020    0.2370 C   0  0  0  0  0  0  0  0  0  0  0  0
   -2.7180   -2.9400   -0.2060 N   0  0  0  0  0  0  0  0  0  0  0  0
   -0.0360   -0.4700    0.4620 O   0  0  0  0  0  0  0  0  0  0  0  0
    1.0150   -0.1150   -0.3230 C   0  0  0  0  0  0  0  0  0  0  0  0
    0.8750   -0.1240   -1.5650 O   0  0  0  0  0  0  0  0  0  0  0  0
    2.3570    0.2960    0.2080 C   0  0  1  0  0  0  0  0  0  0  0  0
    2.2630    0.2270    1.5970 O   0  0  0  0  0  0  0  0  0  0  0  0
    3.4370   -0.6000   -0.2550 C   0  0  0  0  0  0  0  0  0  0  0  0
    4.7780   -0.1930    0.2990 C   0  0  1  0  0  0  0  0  0  0  0  0
    5.7610   -1.1240   -0.1900 O   0  0  0  0  0  0  0  0  0  0  0  0
    5.2680    1.1520   -0.1200 C   0  0  0  0  0  0  0  0  0  0  0  0
    4.5020    2.2160    0.2900 O   0  0  0  0  0  0  0  0  0  0  0  0
  1  2  1  0
  3  2  1  6
  3  4  1  0
  3  6  1  0
  3  8  1  0
  4  5  1  0
  6  7  1  0
  8  9  1  1
  8 11  1  0
  9 10  1  0
 11 12  1  0
 12 13  2  0
 12 14  1  0
 14 15  1  1
 14 16  1  0
 16 17  1  0
 17 18  1  6
 17 19  1  0
 19 20  1  0
M  CHG  1  10   1
M  END
