
     RDKit          3D

 21 20  0  0  0  0  0  0  0  0999 V2000
    6.7330    0.2340   -0.6520 N   0  0  0  0  0  0  0  0  0  0  0  0
    5.4510   -0.2670   -0.2360 C   0  0  0  0  0  0  0  0  0  0  0  0
    5.3690   -0.6630    0.9400 O   0  0  0  0  0  0  0  0  0  0  0  0
    4.3650   -0.2650   -1.2400 C   0  0  0  0  0  0  0  0  0  0  0  0
    3.0290   -0.6910   -0.7060 C   0  0  0  0  0  0  0  0  0  0  0  0
    2.5640    0.2080    0.3840 C   0  0  2  0  0  0  0  0  0  0  0  0
    1.2600   -0.2130    0.9010 N   0  0  0  0  0  0  0  0  0  0  0  0
    0.3060   -0.4330   -0.1410 C   0  0  0  0  0  0  0  0  0  0  0  0
   -1.1220   -0.2210    0.3250 C   0  0  2  0  0  0  0  0  0  0  0  0
   -1.4060   -1.0820    1.3380 O   0  0  0  0  0  0  0  0  0  0  0  0
   -2.1030   -0.2330   -0.7900 C   0  0  1  0  0  0  0  0  0  0  0  0
   -2.2970   -1.4510   -1.4160 O   0  0  0  0  0  0  0  0  0  0  0  0
   -3.3290    0.5500   -0.5220 C   0  0  2  0  0  0  0  0  0  0  0  0
   -3.0520    1.7120    0.1620 O   0  0  0  0  0  0  0  0  0  0  0  0
   -4.5600   -0.1790   -0.1040 C   0  0  2  0  0  0  0  0  0  0  0  0
   -5.6860    0.6870   -0.3500 O   0  0  0  0  0  0  0  0  0  0  0  0
   -4.6690   -0.4380    1.3880 C   0  0  0  0  0  0  0  0  0  0  0  0
   -5.9520   -1.0140    1.5990 O   0  0  0  0  0  0  0  0  0  0  0  0
    2.4850    1.6340    0.0490 C   0  0  0  0  0  0  0  0  0  0  0  0
    3.4690    2.3390   -0.3430 O   0  0  0  0  0  0  0  0  0  0  0  0
    1.2380    2.2810    0.1650 O   0  0  0  0  0  0  0  0  0  0  0  0
  1  2  1  0
  2  3  2  0
  2  4  1  0
  4  5  1  0
  6  5  1  6
  6  7  1  0
  6 19  1  0
  7  8  1  0
  8  9  1  0
  9 10  1  1
  9 11  1  0
 11 12  1  1
 11 13  1  0
 13 14  1  1
 13 15  1  0
 15 16  1  1
 15 17  1  0
 17 18  1  0
 19 20  2  0
 19 21  1  0
M  CHG  1   7   1
M  END
