
     RDKit          3D

 20 20  0  0  0  0  0  0  0  0999 V2000
   -2.8510   -2.0850    1.0840 N   0  0  0  0  0  0  0  0  0  0  0  0
   -1.5240   -1.6970    0.7350 C   0  0  0  0  0  0  0  0  0  0  0  0
   -1.4700   -0.6390   -0.3430 C   0  0  2  0  0  0  0  0  0  0  0  0
   -2.1230   -1.0850   -1.6540 C   0  0  0  0  0  0  0  0  0  0  0  0
   -1.4860   -2.2070   -2.1490 O   0  0  0  0  0  0  0  0  0  0  0  0
   -0.0950   -0.1150   -0.6340 C   0  0  2  0  0  0  0  0  0  0  0  0
    0.3090   -0.2230   -1.9810 O   0  0  0  0  0  0  0  0  0  0  0  0
    1.0180   -0.5650    0.2500 C   0  0  0  0  0  0  0  0  0  0  0  0
    2.1270    0.2470    0.0140 O   0  0  0  0  0  0  0  0  0  0  0  0
    3.1950   -0.1420    0.8230 C   0  0  0  0  0  0  0  0  0  0  0  0
    4.4120    0.7170    0.5940 C   0  0  0  0  0  0  0  0  0  0  0  0
    4.8620    0.6170   -0.8470 C   0  0  0  0  0  0  0  0  0  0  0  0
    5.1820   -0.7120   -1.1580 O   0  0  0  0  0  0  0  0  0  0  0  0
   -0.5520    1.2880   -0.3570 C   0  0  0  0  0  0  0  0  0  0  0  0
   -1.8760    0.7230    0.1130 C   0  0  1  0  0  0  0  0  0  0  0  0
   -3.0260    1.3650   -0.6160 C   0  0  0  0  0  0  0  0  0  0  0  0
   -4.2510    0.8390   -0.2650 O   0  0  0  0  0  0  0  0  0  0  0  0
   -2.0310    0.9060    1.5390 N   0  0  0  0  0  0  0  0  0  0  0  0
   -2.4000    2.1900    1.7580 O   0  0  0  0  0  0  0  0  0  0  0  0
   -1.3160    2.8900    2.0000 O   0  0  0  0  0  0  0  0  0  0  0  0
  1  2  1  0
  3  2  1  1
  3  4  1  0
  3  6  1  0
  3 15  1  0
  4  5  1  0
  6  7  1  6
  6  8  1  0
  6 14  1  0
  8  9  1  0
  9 10  1  0
 10 11  1  0
 11 12  1  0
 12 13  1  0
 14 15  1  0
 15 16  1  6
 15 18  1  0
 16 17  1  0
 18 19  1  0
 19 20  1  0
M  CHG  1   1   1
M  END
