
     RDKit          3D

 43 48  0  0  0  0  0  0  0  0999 V2000
    2.3010   -1.7120    5.3120 C   0  0  0  0  0  0  0  0  0  0  0  0
    1.9840   -1.0690    4.1240 O   0  0  0  0  0  0  0  0  0  0  0  0
    0.7370   -1.0240    3.5210 C   0  0  0  0  0  0  0  0  0  0  0  0
   -0.3500   -1.6370    4.0650 C   0  0  0  0  0  0  0  0  0  0  0  0
   -1.6200   -1.5970    3.4590 C   0  0  0  0  0  0  0  0  0  0  0  0
   -1.7970   -0.9260    2.2800 C   0  0  0  0  0  0  0  0  0  0  0  0
   -3.1200   -0.8810    1.6030 C   0  0  0  0  0  0  0  0  0  0  0  0
   -3.2540   -0.2840    0.4920 N   0  0  0  0  0  0  0  0  0  0  0  0
   -4.4850   -0.2310   -0.1540 N   0  0  0  0  0  0  0  0  0  0  0  0
   -4.6110    0.4150   -1.4730 C   0  0  1  0  0  0  0  0  0  0  0  0
   -4.1640    1.8410   -1.4620 C   0  0  0  0  0  0  0  0  0  0  0  0
   -5.1250    2.5990   -2.3690 C   0  0  0  0  0  0  0  0  0  0  0  0
   -4.6410    2.4060   -3.7850 C   0  0  0  0  0  0  0  0  0  0  0  0
   -4.8660    0.9650   -4.1680 C   0  0  0  0  0  0  0  0  0  0  0  0
   -3.7290    0.0730   -3.8170 C   0  0  0  0  0  0  0  0  0  0  0  0
   -3.6870   -0.3580   -2.3950 C   0  0  0  0  0  0  0  0  0  0  0  0
   -5.6440   -0.8410    0.4120 C   0  0  0  0  0  0  0  0  0  0  0  0
   -6.7920   -0.4800    0.0490 O   0  0  0  0  0  0  0  0  0  0  0  0
   -5.4150   -1.9160    1.4480 C   0  0  2  0  0  0  0  0  0  0  0  0
   -6.6300   -2.0590    2.3170 C   0  0  0  0  0  0  0  0  0  0  0  0
   -6.3730   -2.2910    3.7550 C   0  0  0  0  0  0  0  0  0  0  0  0
   -5.4030   -1.6060    4.3490 C   0  0  0  0  0  0  0  0  0  0  0  0
   -4.6670   -0.6580    3.4620 C   0  0  0  0  0  0  0  0  0  0  0  0
   -4.2280   -1.5400    2.2760 C   0  0  2  0  0  0  0  0  0  0  0  0
   -0.7000   -0.2980    1.7160 C   0  0  0  0  0  0  0  0  0  0  0  0
    0.5600   -0.3320    2.3080 C   0  0  0  0  0  0  0  0  0  0  0  0
    1.6710    0.2600    1.8100 O   0  0  0  0  0  0  0  0  0  0  0  0
    1.9500    1.0360    0.7060 C   0  0  0  0  0  0  0  0  0  0  0  0
    3.4210    1.4690    0.7200 C   0  0  0  0  0  0  0  0  0  0  0  0
    4.3340    0.2580    0.7430 C   0  0  0  0  0  0  0  0  0  0  0  0
    4.2480   -0.6170   -0.4460 C   0  0  0  0  0  0  0  0  0  0  0  0
    4.6520   -0.0090   -1.6040 O   0  0  0  0  0  0  0  0  0  0  0  0
    5.9030    0.4200   -1.9550 C   0  0  0  0  0  0  0  0  0  0  0  0
    6.1000    1.0630   -3.1760 C   0  0  0  0  0  0  0  0  0  0  0  0
    7.3460    1.4980   -3.5500 C   0  0  0  0  0  0  0  0  0  0  0  0
    8.4560    1.3280   -2.7530 C   0  0  0  0  0  0  0  0  0  0  0  0
    9.8000    1.7830   -3.1330 C   0  0  0  0  0  0  0  0  0  0  0  0
   10.8960    1.6710   -2.3460 N   0  0  0  0  0  0  0  0  0  0  0  0
   11.9220    2.1800   -2.9730 N   0  0  0  0  0  0  0  0  0  0  0  0
   11.4900    2.6110   -4.1440 N   0  0  0  0  0  0  0  0  0  0  0  0
   10.2000    2.3750   -4.2540 N   0  0  0  0  0  0  0  0  0  0  0  0
    8.2700    0.6960   -1.5500 C   0  0  0  0  0  0  0  0  0  0  0  0
    6.9970    0.2420   -1.1510 C   0  0  0  0  0  0  0  0  0  0  0  0
  1  2  1  0
  2  3  1  0
  3  4  2  0
  3 26  1  0
  4  5  1  0
  5  6  2  0
  6  7  1  0
  6 25  1  0
  7  8  2  0
  7 24  1  0
  8  9  1  0
 10  9  1  1
  9 17  1  0
 10 11  1  0
 10 16  1  0
 11 12  1  0
 12 13  1  0
 13 14  1  0
 14 15  1  0
 15 16  1  0
 17 18  2  0
 17 19  1  0
 19 20  1  1
 19 24  1  0
 20 21  1  0
 21 22  2  0
 22 23  1  0
 24 23  1  1
 25 26  2  0
 26 27  1  0
 27 28  1  0
 28 29  1  0
 29 30  1  0
 30 31  1  0
 31 32  1  0
 32 33  1  0
 33 34  2  0
 33 43  1  0
 34 35  1  0
 35 36  2  0
 36 37  1  0
 36 42  1  0
 37 38  2  0
 37 41  1  0
 38 39  1  0
 39 40  2  0
 40 41  1  0
 42 43  2  0
M  END
