
     RDKit          3D

 24 26  0  0  0  0  0  0  0  0999 V2000
   -6.2010    1.2010   -1.2510 C   0  0  0  0  0  0  0  0  0  0  0  0
   -5.0400    1.0730   -0.2990 C   0  0  0  0  0  0  0  0  0  0  0  0
   -5.1990    1.2600    0.9830 C   0  0  0  0  0  0  0  0  0  0  0  0
   -3.9750    1.1070    1.8400 C   0  0  0  0  0  0  0  0  0  0  0  0
   -3.2880   -0.1710    1.3390 C   0  0  0  0  0  0  0  0  0  0  0  0
   -2.8710   -0.0390   -0.0170 N   0  0  0  0  0  0  0  0  0  0  0  0
   -1.4720    0.2220   -0.1950 C   0  0  0  0  0  0  0  0  0  0  0  0
   -0.6120   -0.8930    0.1770 C   0  0  0  0  0  0  0  0  0  0  0  0
   -1.1270   -2.0540    0.5800 N   0  0  0  0  0  0  0  0  0  0  0  0
   -0.3640   -3.1110    0.9060 C   0  0  0  0  0  0  0  0  0  0  0  0
   -0.9150   -4.2010    1.2870 O   0  0  0  0  0  0  0  0  0  0  0  0
    0.9640   -2.9970    0.8230 N   0  0  0  0  0  0  0  0  0  0  0  0
    1.7800   -4.1400    1.1760 C   0  0  0  0  0  0  0  0  0  0  0  0
    1.5400   -1.8190    0.4110 C   0  0  0  0  0  0  0  0  0  0  0  0
    2.7960   -1.8410    0.3760 O   0  0  0  0  0  0  0  0  0  0  0  0
    0.7940   -0.7240    0.0730 C   0  0  0  0  0  0  0  0  0  0  0  0
    1.2330    0.5720   -0.3720 C   0  0  0  0  0  0  0  0  0  0  0  0
    2.5870    0.9130   -0.5510 N   0  0  2  0  0  0  0  0  0  0  0  0
    3.2930    0.2360   -1.6150 C   0  0  0  0  0  0  0  0  0  0  0  0
    4.7840    0.1350   -1.2660 C   0  0  0  0  0  0  0  0  0  0  0  0
    5.2090    1.5990   -1.0790 C   0  0  0  0  0  0  0  0  0  0  0  0
    4.5320    2.1110    0.1510 C   0  0  0  0  0  0  0  0  0  0  0  0
    3.3720    1.2070    0.6060 C   0  0  0  0  0  0  0  0  0  0  0  0
   -3.7150    0.7430   -0.8530 C   0  0  0  0  0  0  0  0  0  0  0  0
  1  2  1  0
  2  3  2  0
  2 24  1  0
  3  4  1  0
  4  5  1  0
  5  6  1  0
  6  7  1  0
  6 24  1  0
  7  8  1  0
  8  9  1  0
  8 16  2  0
  9 10  1  0
 10 11  2  0
 10 12  1  0
 12 13  1  0
 12 14  1  0
 14 15  2  0
 14 16  1  0
 16 17  1  0
 18 17  1  1
 18 19  1  0
 18 23  1  0
 19 20  1  0
 20 21  1  0
 21 22  1  0
 22 23  1  0
M  CHG  1  18   1
M  END
