
     RDKit          3D

 24 27  0  0  0  0  0  0  0  0999 V2000
   -5.9110    1.4810    0.0680 C   0  0  0  0  0  0  0  0  0  0  0  0
   -4.5240    1.2950    0.3950 N   0  0  1  0  0  0  0  0  0  0  0  0
   -4.3020    0.2770    1.3970 C   0  0  0  0  0  0  0  0  0  0  0  0
   -4.6670   -1.1010    0.9310 C   0  0  0  0  0  0  0  0  0  0  0  0
   -3.3880   -1.8750    0.6900 C   0  0  0  0  0  0  0  0  0  0  0  0
   -2.3340   -0.8770    0.3320 C   0  0  0  0  0  0  0  0  0  0  0  0
   -1.0810   -1.0610    0.5770 O   0  0  0  0  0  0  0  0  0  0  0  0
   -0.3350   -0.0360    0.1680 C   0  0  0  0  0  0  0  0  0  0  0  0
    1.0610    0.0550    0.2970 N   0  0  0  0  0  0  0  0  0  0  0  0
    1.8200   -0.4050   -0.6300 C   0  0  0  0  0  0  0  0  0  0  0  0
    1.2240   -1.0130   -1.7960 C   0  0  0  0  0  0  0  0  0  0  0  0
   -0.0090   -1.0920   -1.9090 O   0  0  0  0  0  0  0  0  0  0  0  0
    3.2970   -0.3090   -0.4940 C   0  0  0  0  0  0  0  0  0  0  0  0
    4.2300   -0.7330   -1.3550 N   0  0  0  0  0  0  0  0  0  0  0  0
    5.4710   -0.4730   -0.8920 C   0  0  0  0  0  0  0  0  0  0  0  0
    6.7480   -0.6890   -1.3590 C   0  0  0  0  0  0  0  0  0  0  0  0
    7.8510   -0.3030   -0.6430 C   0  0  0  0  0  0  0  0  0  0  0  0
    7.6770    0.3080    0.5580 C   0  0  0  0  0  0  0  0  0  0  0  0
    6.3850    0.5310    1.0400 C   0  0  0  0  0  0  0  0  0  0  0  0
    5.2610    0.1540    0.3420 C   0  0  0  0  0  0  0  0  0  0  0  0
    3.9290    0.2390    0.5550 N   0  0  0  0  0  0  0  0  0  0  0  0
   -1.1860    0.8750   -0.3830 C   0  0  0  0  0  0  0  0  0  0  0  0
   -2.4580    0.3600   -0.2880 C   0  0  0  0  0  0  0  0  0  0  0  0
   -3.7040    1.0190   -0.7650 C   0  0  0  0  0  0  0  0  0  0  0  0
  2  1  1  6
  2  3  1  0
  2 24  1  0
  3  4  1  0
  4  5  1  0
  5  6  1  0
  6  7  1  0
  6 23  2  0
  7  8  1  0
  8  9  1  0
  8 22  2  0
  9 10  2  3
 10 11  1  0
 10 13  1  0
 11 12  2  0
 13 14  2  0
 13 21  1  0
 14 15  1  0
 15 16  2  0
 15 20  1  0
 16 17  1  0
 17 18  2  0
 18 19  1  0
 19 20  2  0
 20 21  1  0
 22 23  1  0
 23 24  1  0
M  CHG  1   2   1
M  END
