
     RDKit          3D

 24 26  0  0  0  0  0  0  0  0999 V2000
   -4.5210    4.0330   -0.9650 C   0  0  0  0  0  0  0  0  0  0  0  0
   -3.4940    3.0610   -0.7160 N   0  0  0  0  0  0  0  0  0  0  0  0
   -3.0200    2.9320    0.4610 C   0  0  0  0  0  0  0  0  0  0  0  0
   -2.0150    1.9930    0.7470 N   0  0  0  0  0  0  0  0  0  0  0  0
   -2.2760    0.7260    0.9170 C   0  0  0  0  0  0  0  0  0  0  0  0
   -3.6530    0.1800    0.8210 C   0  0  0  0  0  0  0  0  0  0  0  0
   -3.8110   -0.8150   -0.1910 N   0  0  1  0  0  0  0  0  0  0  0  0
   -3.1220   -0.4940   -1.4330 C   0  0  0  0  0  0  0  0  0  0  0  0
   -3.4930   -2.1500    0.2610 C   0  0  0  0  0  0  0  0  0  0  0  0
   -1.1540   -0.0970    1.2020 N   0  0  0  0  0  0  0  0  0  0  0  0
    0.1070    0.0260    0.5700 C   0  0  0  0  0  0  0  0  0  0  0  0
    0.3910    0.8830   -0.4420 C   0  0  0  0  0  0  0  0  0  0  0  0
    1.6630    0.9350   -0.9960 C   0  0  0  0  0  0  0  0  0  0  0  0
    2.6730    0.1140   -0.5270 C   0  0  0  0  0  0  0  0  0  0  0  0
    2.4120   -0.7650    0.4990 C   0  0  0  0  0  0  0  0  0  0  0  0
    1.1460   -0.7920    1.0230 C   0  0  0  0  0  0  0  0  0  0  0  0
    3.4330   -1.5990    0.9760 O   0  0  0  0  0  0  0  0  0  0  0  0
    4.7110   -1.5750    0.4510 C   0  0  0  0  0  0  0  0  0  0  0  0
    5.7180   -2.4130    0.9370 C   0  0  0  0  0  0  0  0  0  0  0  0
    6.9870   -2.3750    0.3990 C   0  0  0  0  0  0  0  0  0  0  0  0
    7.2220   -1.4910   -0.6210 C   0  0  0  0  0  0  0  0  0  0  0  0
    6.2360   -0.6740   -1.0950 C   0  0  0  0  0  0  0  0  0  0  0  0
    4.9690   -0.6940   -0.5770 C   0  0  0  0  0  0  0  0  0  0  0  0
    3.9540    0.1310   -1.0470 O   0  0  0  0  0  0  0  0  0  0  0  0
  1  2  1  0
  2  3  2  3
  3  4  1  0
  4  5  2  3
  5  6  1  0
  5 10  1  0
  6  7  1  0
  7  8  1  6
  7  9  1  0
 10 11  1  0
 11 12  2  0
 11 16  1  0
 12 13  1  0
 13 14  2  0
 14 15  1  0
 14 24  1  0
 15 16  2  0
 15 17  1  0
 17 18  1  0
 18 19  2  0
 18 23  1  0
 19 20  1  0
 20 21  2  0
 21 22  1  0
 22 23  2  0
 23 24  1  0
M  CHG  1   7   1
M  END
