
     RDKit          3D

 24 27  0  0  0  0  0  0  0  0999 V2000
    0.6200    1.5470   -0.3940 O   0  0  0  0  0  0  0  0  0  0  0  0
   -0.1850    0.8080    0.2520 C   0  0  0  0  0  0  0  0  0  0  0  0
   -1.6060    1.2200    0.2920 C   0  0  0  0  0  0  0  0  0  0  0  0
   -2.4720    0.3430    1.0400 N   0  0  2  0  0  0  0  0  0  0  0  0
   -2.7310   -0.8870    0.3650 C   0  0  0  0  0  0  0  0  0  0  0  0
   -4.1050   -1.0240   -0.2280 C   0  0  0  0  0  0  0  0  0  0  0  0
   -4.5640    0.2550   -0.7140 N   0  0  0  0  0  0  0  0  0  0  0  0
   -5.1760    0.7120   -1.8370 C   0  0  0  0  0  0  0  0  0  0  0  0
   -5.3570    2.0640   -1.6800 C   0  0  0  0  0  0  0  0  0  0  0  0
   -4.8640    2.4290   -0.4780 N   0  0  0  0  0  0  0  0  0  0  0  0
   -4.3940    1.3260    0.0800 C   0  0  0  0  0  0  0  0  0  0  0  0
   -3.7180    1.0400    1.3890 C   0  0  0  0  0  0  0  0  0  0  0  0
    0.3050   -0.3520    0.8890 N   0  0  0  0  0  0  0  0  0  0  0  0
    1.6490   -0.8130    0.8920 C   0  0  0  0  0  0  0  0  0  0  0  0
    1.9120   -1.8550    1.7890 C   0  0  0  0  0  0  0  0  0  0  0  0
    3.1900   -2.3490    1.8250 C   0  0  0  0  0  0  0  0  0  0  0  0
    4.1920   -1.8530    1.0190 C   0  0  0  0  0  0  0  0  0  0  0  0
    3.9550   -0.8310    0.1330 C   0  0  0  0  0  0  0  0  0  0  0  0
    4.9810   -0.2750   -0.7380 C   0  0  0  0  0  0  0  0  0  0  0  0
    4.8080    0.7460   -1.6450 C   0  0  0  0  0  0  0  0  0  0  0  0
    6.0160    0.9560   -2.2500 C   0  0  0  0  0  0  0  0  0  0  0  0
    6.8850    0.0500   -1.6860 C   0  0  0  0  0  0  0  0  0  0  0  0
    6.2330   -0.6560   -0.8000 O   0  0  0  0  0  0  0  0  0  0  0  0
    2.6500   -0.3220    0.0910 C   0  0  0  0  0  0  0  0  0  0  0  0
  1  2  2  0
  2  3  1  0
  2 13  1  0
  4  3  1  6
  4  5  1  0
  4 12  1  0
  5  6  1  0
  6  7  1  0
  7  8  1  0
  7 11  1  0
  8  9  2  0
  9 10  1  0
 10 11  2  0
 11 12  1  0
 13 14  1  0
 14 15  2  0
 14 24  1  0
 15 16  1  0
 16 17  2  0
 17 18  1  0
 18 19  1  0
 18 24  2  0
 19 20  2  0
 19 23  1  0
 20 21  1  0
 21 22  2  0
 22 23  1  0
M  CHG  1   4   1
M  END
