
     RDKit          3D

 24 26  0  0  0  0  0  0  0  0999 V2000
    6.2090    2.1940    1.3640 C   0  0  0  0  0  0  0  0  0  0  0  0
    5.5030    1.3460    0.6450 C   0  0  0  0  0  0  0  0  0  0  0  0
    4.2780    0.8680    1.1330 C   0  0  0  0  0  0  0  0  0  0  0  0
    3.4840   -0.0130    0.4530 C   0  0  0  0  0  0  0  0  0  0  0  0
    2.3170   -0.4360    0.9730 N   0  0  0  0  0  0  0  0  0  0  0  0
    1.5300   -1.3000    0.3140 C   0  0  0  0  0  0  0  0  0  0  0  0
    0.2410   -1.7860    0.8570 C   0  0  0  0  0  0  0  0  0  0  0  0
   -0.8350   -0.8380    0.3950 C   0  0  0  0  0  0  0  0  0  0  0  0
   -2.1830   -1.2680    0.9100 C   0  0  0  0  0  0  0  0  0  0  0  0
   -2.2340   -2.3060    1.6190 O   0  0  0  0  0  0  0  0  0  0  0  0
   -3.3480   -0.5290    0.6050 N   0  0  0  0  0  0  0  0  0  0  0  0
   -4.6200   -0.9500    1.1010 C   0  0  0  0  0  0  0  0  0  0  0  0
   -5.7570   -0.7480    0.1460 C   0  0  0  0  0  0  0  0  0  0  0  0
   -5.6390    0.3790   -0.7040 N   0  0  0  0  0  0  0  0  0  0  0  0
   -6.2190    1.5890   -0.1740 C   0  0  0  0  0  0  0  0  0  0  0  0
   -4.3280    0.5810   -1.2620 C   0  0  0  0  0  0  0  0  0  0  0  0
   -3.2520    0.6480   -0.2050 C   0  0  0  0  0  0  0  0  0  0  0  0
    1.9540   -1.7310   -0.8940 N   0  0  0  0  0  0  0  0  0  0  0  0
    3.1090   -1.3360   -1.4510 C   0  0  0  0  0  0  0  0  0  0  0  0
    3.4880   -1.7580   -2.5950 O   0  0  0  0  0  0  0  0  0  0  0  0
    3.9240   -0.4490   -0.7820 C   0  0  0  0  0  0  0  0  0  0  0  0
    5.1180   -0.0040   -1.2940 C   0  0  0  0  0  0  0  0  0  0  0  0
    5.9210    0.8970   -0.5880 C   0  0  0  0  0  0  0  0  0  0  0  0
    7.0560    1.2850   -1.1350 C   0  0  0  0  0  0  0  0  0  0  0  0
  1  2  2  0
  2  3  1  0
  2 23  1  0
  3  4  2  0
  4  5  1  0
  4 21  1  0
  5  6  2  0
  6  7  1  0
  6 18  1  0
  7  8  1  0
  8  9  1  0
  9 10  2  0
  9 11  1  0
 11 12  1  0
 11 17  1  0
 12 13  1  0
 13 14  1  0
 14 15  1  0
 14 16  1  0
 16 17  1  0
 18 19  1  0
 19 20  2  0
 19 21  1  0
 21 22  2  0
 22 23  1  0
 23 24  2  0
M  CHG  1   5   1
M  END
