
     RDKit          3D

 18 19  0  0  0  0  0  0  0  0999 V2000
    5.3730    0.0040   -1.2010 C   0  0  0  0  0  0  0  0  0  0  0  0
    3.9100    0.2630   -0.8440 C   0  0  0  0  0  0  0  0  0  0  0  0
    3.3970   -0.8970   -0.0710 C   0  0  0  0  0  0  0  0  0  0  0  0
    1.9600   -0.7950    0.3260 C   0  0  0  0  0  0  0  0  0  0  0  0
    1.6290    0.6000    1.3450 S   0  0  2  0  0  0  0  0  0  0  0  0
    1.8720    1.8670    0.5330 O   0  0  0  0  0  0  0  0  0  0  0  0
    2.4840    0.5760    2.5730 O   0  0  0  0  0  0  0  0  0  0  0  0
   -0.0610    0.6390    1.8020 N   0  0  0  0  0  0  0  0  0  0  0  0
   -1.1000    0.7500    0.8550 C   0  0  0  0  0  0  0  0  0  0  0  0
   -1.0700    1.6470   -0.1890 C   0  0  0  0  0  0  0  0  0  0  0  0
   -2.1390    1.6750   -1.0580 C   0  0  0  0  0  0  0  0  0  0  0  0
   -3.2140    0.8310   -0.8960 C   0  0  0  0  0  0  0  0  0  0  0  0
   -4.4040    0.6210   -1.5770 C   0  0  0  0  0  0  0  0  0  0  0  0
   -5.0500   -0.3500   -0.9280 N   0  0  0  0  0  0  0  0  0  0  0  0
   -4.3950   -0.7890    0.1060 N   0  0  0  0  0  0  0  0  0  0  0  0
   -4.7610   -1.8290    1.0580 C   0  0  0  0  0  0  0  0  0  0  0  0
   -3.2370   -0.0650    0.1520 C   0  0  0  0  0  0  0  0  0  0  0  0
   -2.1860   -0.1140    1.0330 C   0  0  0  0  0  0  0  0  0  0  0  0
  1  2  1  0
  2  3  1  0
  3  4  1  0
  5  4  1  6
  5  6  2  0
  5  7  2  0
  5  8  1  0
  8  9  1  0
  9 10  2  0
  9 18  1  0
 10 11  1  0
 11 12  2  0
 12 13  1  0
 12 17  1  0
 13 14  2  0
 14 15  1  0
 15 16  1  0
 15 17  1  0
 17 18  2  0
M  END
