
     RDKit          3D

 24 27  0  0  0  0  0  0  0  0999 V2000
   -5.0960    2.1240    0.4310 C   0  0  0  0  0  0  0  0  0  0  0  0
   -4.1580    0.9680    0.3240 C   0  0  0  0  0  0  0  0  0  0  0  0
   -2.7920    1.1280    0.2210 C   0  0  0  0  0  0  0  0  0  0  0  0
   -1.9360    0.0330    0.1220 C   0  0  0  0  0  0  0  0  0  0  0  0
   -0.5320    0.2070    0.0150 N   0  0  0  0  0  0  0  0  0  0  0  0
    0.1120    1.5010   -0.0020 C   0  0  0  0  0  0  0  0  0  0  0  0
    1.5460    1.3310    0.4450 C   0  0  0  0  0  0  0  0  0  0  0  0
    2.2880    0.3800   -0.3140 N   0  0  2  0  0  0  0  0  0  0  0  0
    3.2220    1.0570   -1.1800 C   0  0  0  0  0  0  0  0  0  0  0  0
    4.3840    0.1880   -1.5990 C   0  0  0  0  0  0  0  0  0  0  0  0
    5.1660   -0.2810   -0.4270 C   0  0  0  0  0  0  0  0  0  0  0  0
    5.0010   -1.4260    0.3300 C   0  0  0  0  0  0  0  0  0  0  0  0
    5.9840   -1.3830    1.2930 C   0  0  0  0  0  0  0  0  0  0  0  0
    6.6990   -0.2310    1.0890 C   0  0  0  0  0  0  0  0  0  0  0  0
    6.1930    0.4040    0.0630 O   0  0  0  0  0  0  0  0  0  0  0  0
    1.4720   -0.5760   -0.9900 C   0  0  0  0  0  0  0  0  0  0  0  0
    0.3210   -0.9580   -0.0820 C   0  0  0  0  0  0  0  0  0  0  0  0
   -2.5120   -1.1790    0.1330 N   0  0  0  0  0  0  0  0  0  0  0  0
   -3.8560   -1.3580    0.2340 C   0  0  0  0  0  0  0  0  0  0  0  0
   -4.7210   -0.2970    0.3330 C   0  0  0  0  0  0  0  0  0  0  0  0
   -6.1290   -0.7580    0.4310 C   0  0  0  0  0  0  0  0  0  0  0  0
   -6.0690   -2.2020    0.3850 N   0  0  0  0  0  0  0  0  0  0  0  0
   -4.6990   -2.5490    0.2670 C   0  0  0  0  0  0  0  0  0  0  0  0
   -4.2960   -3.7440    0.2010 O   0  0  0  0  0  0  0  0  0  0  0  0
  1  2  1  0
  2  3  2  0
  2 20  1  0
  3  4  1  0
  4  5  1  0
  4 18  2  0
  5  6  1  0
  5 17  1  0
  6  7  1  0
  7  8  1  0
  8  9  1  6
  8 16  1  0
  9 10  1  0
 10 11  1  0
 11 12  2  0
 11 15  1  0
 12 13  1  0
 13 14  2  0
 14 15  1  0
 16 17  1  0
 18 19  1  0
 19 20  2  0
 19 23  1  0
 20 21  1  0
 21 22  1  0
 22 23  1  0
 23 24  2  0
M  CHG  1   8   1
M  END
