
     RDKit          3D

 27 28  0  0  0  0  0  0  0  0999 V2000
    2.5470    0.4380    1.3340 N   0  0  0  0  0  0  0  0  0  0  0  0
    3.0580   -0.1500    0.3120 C   0  0  0  0  0  0  0  0  0  0  0  0
    2.1670   -0.7120   -0.6410 N   0  0  0  0  0  0  0  0  0  0  0  0
    0.8310   -1.0500   -0.2900 C   0  0  0  0  0  0  0  0  0  0  0  0
   -0.0480    0.0940    0.0040 C   0  0  0  0  0  0  0  0  0  0  0  0
    0.4160    1.2540   -0.0720 O   0  0  0  0  0  0  0  0  0  0  0  0
   -1.3930   -0.1370    0.3650 N   0  0  0  0  0  0  0  0  0  0  0  0
   -2.0470   -1.4450    0.4880 C   0  0  0  0  0  0  0  0  0  0  0  0
   -3.5190   -1.1750    0.3760 C   0  0  2  0  0  0  0  0  0  0  0  0
   -4.0730   -1.6550   -0.9180 C   0  0  0  0  0  0  0  0  0  0  0  0
   -3.5260   -2.5370   -1.6270 O   0  0  0  0  0  0  0  0  0  0  0  0
   -5.2670   -1.0710   -1.3350 O   0  0  0  0  0  0  0  0  0  0  0  0
   -5.9310   -0.0980   -0.5530 C   0  0  0  0  0  0  0  0  0  0  0  0
   -4.9930    0.8150    0.1860 C   0  0  2  0  0  0  0  0  0  0  0  0
   -4.8640    2.0630   -0.5700 C   0  0  0  0  0  0  0  0  0  0  0  0
   -5.8960    2.7330   -0.8810 O   0  0  0  0  0  0  0  0  0  0  0  0
   -3.6370    2.5390   -0.9590 O   0  0  0  0  0  0  0  0  0  0  0  0
   -3.6950    0.2540    0.4120 N   0  0  0  0  0  0  0  0  0  0  0  0
   -2.4210    0.8100    0.6890 C   0  0  0  0  0  0  0  0  0  0  0  0
   -2.1780    1.9680    1.1540 O   0  0  0  0  0  0  0  0  0  0  0  0
    4.4610   -0.2090    0.1860 N   0  0  0  0  0  0  0  0  0  0  0  0
    5.5260    0.0350    1.6050 P   0  0  0  0  0  0  0  0  0  0  0  0
    6.1220   -1.5460    2.0680 O   0  0  0  0  0  0  0  0  0  0  0  0
    6.9080    1.0020    1.2320 O   0  0  0  0  0  0  0  0  0  0  0  0
    7.0970    1.2670   -0.4550 P   0  0  0  0  0  0  0  0  0  0  0  0
    7.5930   -0.1230   -1.3220 O   0  0  0  0  0  0  0  0  0  0  0  0
    5.7290    2.0480   -1.1310 O   0  0  0  0  0  0  0  0  0  0  0  0
  1  2  2  0
  2  3  1  0
  2 21  1  0
  3  4  1  0
  4  5  1  0
  5  6  2  0
  5  7  1  0
  7  8  1  0
  7 19  1  0
  9  8  1  6
  9 10  1  0
  9 18  1  0
 10 11  2  0
 10 12  1  0
 12 13  1  0
 13 14  1  0
 14 15  1  6
 14 18  1  0
 15 16  2  0
 15 17  1  0
 18 19  1  0
 19 20  2  0
 21 22  1  0
 22 23  1  0
 22 24  1  0
 24 25  1  0
 25 26  1  0
 25 27  1  0
M  END
