
     RDKit          3D

 27 28  0  0  0  0  0  0  0  0999 V2000
   -2.9220    4.3610    1.1280 N   0  0  0  0  0  0  0  0  0  0  0  0
   -1.6780    4.5640    0.3890 C   0  0  0  0  0  0  0  0  0  0  0  0
   -1.0730    3.2870    0.1900 O   0  0  0  0  0  0  0  0  0  0  0  0
   -1.7800    2.3070   -0.5200 C   0  0  0  0  0  0  0  0  0  0  0  0
   -2.9160    2.6270   -0.9410 O   0  0  0  0  0  0  0  0  0  0  0  0
   -1.2280    1.0200   -0.7490 N   0  0  0  0  0  0  0  0  0  0  0  0
   -2.0060    0.0650   -1.4850 C   0  0  0  0  0  0  0  0  0  0  0  0
   -1.5660   -1.3330   -1.3870 C   0  0  1  0  0  0  0  0  0  0  0  0
   -0.0680   -1.5500   -1.4150 C   0  0  2  0  0  0  0  0  0  0  0  0
   -0.4520   -2.7170   -0.4750 C   0  0  0  0  0  0  0  0  0  0  0  0
   -1.5090   -1.8930   -0.1080 N   0  0  0  0  0  0  0  0  0  0  0  0
   -2.4480   -2.0000    0.8240 C   0  0  0  0  0  0  0  0  0  0  0  0
   -3.4440   -3.0720    0.5720 C   0  0  0  0  0  0  0  0  0  0  0  0
   -3.3310   -3.8560   -0.5860 N   0  0  0  0  0  0  0  0  0  0  0  0
   -4.3550   -3.2180    1.4300 O   0  0  0  0  0  0  0  0  0  0  0  0
    0.6670   -0.5720   -0.7010 N   0  0  0  0  0  0  0  0  0  0  0  0
    2.0290   -0.7760   -0.3860 C   0  0  0  0  0  0  0  0  0  0  0  0
    2.5690   -1.8730   -0.7690 O   0  0  0  0  0  0  0  0  0  0  0  0
    2.8310    0.0940    0.2950 O   0  0  0  0  0  0  0  0  0  0  0  0
    4.5170   -0.2580    0.6360 P   0  0  0  0  0  0  0  0  0  0  0  0
    4.6490   -1.9990    0.8000 O   0  0  0  0  0  0  0  0  0  0  0  0
    5.4220    0.1760   -0.7840 O   0  0  0  0  0  0  0  0  0  0  0  0
    6.6350    1.3390   -0.4800 P   0  0  0  0  0  0  0  0  0  0  0  0
    6.2420    2.8780   -1.2060 O   0  0  0  0  0  0  0  0  0  0  0  0
    7.0410    1.5180    1.1890 O   0  0  0  0  0  0  0  0  0  0  0  0
    0.0610    0.6470   -0.2790 C   0  0  0  0  0  0  0  0  0  0  0  0
    0.6480    1.4260    0.5220 O   0  0  0  0  0  0  0  0  0  0  0  0
  1  2  1  0
  2  3  1  0
  3  4  1  0
  4  5  2  0
  4  6  1  0
  6  7  1  0
  6 26  1  0
  8  7  1  1
  8  9  1  0
  8 11  1  0
  9 10  1  1
  9 16  1  0
 10 11  1  0
 11 12  1  0
 12 13  1  0
 13 14  1  0
 13 15  2  0
 16 17  1  0
 16 26  1  0
 17 18  2  0
 17 19  1  0
 19 20  1  0
 20 21  1  0
 20 22  1  0
 22 23  1  0
 23 24  1  0
 23 25  1  0
 26 27  2  0
M  END
