
     RDKit          3D

 26 28  0  0  0  0  0  0  0  0999 V2000
   -1.8970    0.9340    1.9580 N   0  0  0  0  0  0  0  0  0  0  0  0
   -2.5750   -0.2390    1.6270 C   0  0  0  0  0  0  0  0  0  0  0  0
   -3.6480   -0.7600    2.2790 N   0  0  0  0  0  0  0  0  0  0  0  0
   -4.0130   -1.8600    1.6860 N   0  0  0  0  0  0  0  0  0  0  0  0
   -3.2000   -2.0590    0.6670 N   0  0  0  0  0  0  0  0  0  0  0  0
   -2.2800   -1.0840    0.5740 C   0  0  0  0  0  0  0  0  0  0  0  0
   -1.2110   -0.9750   -0.4380 C   0  0  1  0  0  0  0  0  0  0  0  0
   -1.3440   -2.1060   -1.3010 O   0  0  0  0  0  0  0  0  0  0  0  0
   -2.3450   -1.8220   -2.2100 C   0  0  0  0  0  0  0  0  0  0  0  0
   -3.0630   -2.7030   -2.7450 O   0  0  0  0  0  0  0  0  0  0  0  0
   -2.3910   -0.3600   -2.4080 C   0  0  0  0  0  0  0  0  0  0  0  0
   -1.4440    0.0930   -1.3790 N   0  0  0  0  0  0  0  0  0  0  0  0
   -0.7690    1.3240   -1.1740 C   0  0  0  0  0  0  0  0  0  0  0  0
   -1.2960    2.4020   -1.5440 O   0  0  0  0  0  0  0  0  0  0  0  0
    0.5670    1.2570   -0.5110 C   0  0  1  0  0  0  0  0  0  0  0  0
    0.7270    2.4370    0.1980 O   0  0  0  0  0  0  0  0  0  0  0  0
    1.7000    3.2550   -0.3680 C   0  0  0  0  0  0  0  0  0  0  0  0
    1.8730    4.8150    0.6170 P   0  0  0  0  0  0  0  0  0  0  0  0
    0.5990    5.6330    1.0000 O   0  0  0  0  0  0  0  0  0  0  0  0
    0.7810    0.0400    0.2950 C   0  0  2  0  0  0  0  0  0  0  0  0
    2.2420   -0.3960    0.0700 C   0  0  0  0  0  0  0  0  0  0  0  0
    2.5750   -1.4060    0.9730 O   0  0  0  0  0  0  0  0  0  0  0  0
    4.2210   -1.8450    0.6630 P   0  0  0  0  0  0  0  0  0  0  0  0
    4.3740   -2.7970   -0.7700 O   0  0  0  0  0  0  0  0  0  0  0  0
    4.9050   -2.6500    2.0390 O   0  0  0  0  0  0  0  0  0  0  0  0
    0.0180   -1.0310    0.1000 O   0  0  0  0  0  0  0  0  0  0  0  0
  1  2  1  0
  2  3  2  0
  2  6  1  0
  3  4  1  0
  4  5  1  0
  5  6  2  0
  7  6  1  1
  7  8  1  0
  7 12  1  0
  7 26  1  0
  8  9  1  0
  9 10  2  0
  9 11  1  0
 11 12  1  0
 12 13  1  0
 13 14  2  0
 13 15  1  0
 15 16  1  1
 15 20  1  0
 16 17  1  0
 17 18  1  0
 18 19  2  0
 20 21  1  6
 20 26  1  0
 21 22  1  0
 22 23  1  0
 23 24  1  0
 23 25  1  0
M  END
