
     RDKit          3D

 26 27  0  0  0  0  0  0  0  0999 V2000
   -4.4740    4.1290   -0.8020 O   0  0  0  0  0  0  0  0  0  0  0  0
   -5.0950    2.9150    0.0240 P   0  0  0  0  0  0  0  0  0  0  0  0
   -4.7110    1.3720   -0.6060 O   0  0  0  0  0  0  0  0  0  0  0  0
   -4.9240    0.2850    0.1810 C   0  0  0  0  0  0  0  0  0  0  0  0
   -3.9030    0.3880    1.3610 C   0  0  0  0  0  0  0  0  0  0  0  0
   -2.5750    0.4780    0.8950 N   0  0  0  0  0  0  0  0  0  0  0  0
   -1.8920   -0.5890    0.1990 C   0  0  0  0  0  0  0  0  0  0  0  0
   -2.3180   -1.7820    0.3990 N   0  0  0  0  0  0  0  0  0  0  0  0
   -1.6140   -2.7870   -0.2860 C   0  0  0  0  0  0  0  0  0  0  0  0
   -1.6290   -3.9610    0.0930 O   0  0  0  0  0  0  0  0  0  0  0  0
   -0.8390   -2.4420   -1.4980 C   0  0  0  0  0  0  0  0  0  0  0  0
   -0.6560   -1.1250   -1.7400 O   0  0  0  0  0  0  0  0  0  0  0  0
   -0.7770   -0.2870   -0.6580 C   0  0  1  0  0  0  0  0  0  0  0  0
   -0.9300    1.0200   -1.1950 O   0  0  0  0  0  0  0  0  0  0  0  0
    0.5550   -0.1810    0.0540 C   0  0  0  0  0  0  0  0  0  0  0  0
    0.5720    0.1130    1.3930 N   0  0  0  0  0  0  0  0  0  0  0  0
    1.8080    0.2660    2.0300 C   0  0  0  0  0  0  0  0  0  0  0  0
    1.7890    0.5360    3.3680 O   0  0  0  0  0  0  0  0  0  0  0  0
    2.8960    0.1040    1.2810 N   0  0  0  0  0  0  0  0  0  0  0  0
    2.9080   -0.1750   -0.0120 C   0  0  0  0  0  0  0  0  0  0  0  0
    4.1950   -0.3630   -0.7220 C   0  0  2  0  0  0  0  0  0  0  0  0
    4.9700   -1.2490   -0.0470 O   0  0  0  0  0  0  0  0  0  0  0  0
    4.8970    1.3460   -0.9100 P   0  0  0  0  0  0  0  0  0  0  0  0
    6.0930    1.7930    0.1510 O   0  0  0  0  0  0  0  0  0  0  0  0
    4.7300    2.0960   -2.3790 O   0  0  0  0  0  0  0  0  0  0  0  0
    1.7180   -0.3140   -0.6190 N   0  0  0  0  0  0  0  0  0  0  0  0
  1  2  2  0
  2  3  1  0
  3  4  1  0
  4  5  1  0
  5  6  1  0
  6  7  1  0
  7  8  2  0
  7 13  1  0
  8  9  1  0
  9 10  2  0
  9 11  1  0
 11 12  1  0
 12 13  1  0
 13 14  1  6
 13 15  1  0
 15 16  2  0
 15 26  1  0
 16 17  1  0
 17 18  1  0
 17 19  2  0
 19 20  1  0
 20 21  1  0
 20 26  2  0
 21 22  1  1
 21 23  1  0
 23 24  1  0
 23 25  1  0
M  END
