
     RDKit          3D

 26 27  0  0  0  0  0  0  0  0999 V2000
    2.8690   -0.1930    1.3580 C   0  0  0  0  0  0  0  0  0  0  0  0
    1.8430   -0.2730    0.2550 C   0  0  2  0  0  0  0  0  0  0  0  0
    2.2230   -0.8920   -0.8880 O   0  0  0  0  0  0  0  0  0  0  0  0
    3.1690   -0.3610   -1.6900 C   0  0  0  0  0  0  0  0  0  0  0  0
    4.8480   -0.1280   -1.0280 P   0  0  0  0  0  0  0  0  0  0  0  0
    5.4120   -1.3030    0.0550 O   0  0  0  0  0  0  0  0  0  0  0  0
    5.3190    1.4750   -0.7100 O   0  0  0  0  0  0  0  0  0  0  0  0
    1.3330    0.9990    0.0810 O   0  0  0  0  0  0  0  0  0  0  0  0
    0.2200    1.1140   -0.6760 C   0  0  2  0  0  0  0  0  0  0  0  0
   -0.4280    2.4890   -0.4570 C   0  0  0  0  0  0  0  0  0  0  0  0
   -0.7810    2.6600    0.8760 O   0  0  0  0  0  0  0  0  0  0  0  0
   -1.4990    4.2350    1.0120 P   0  0  0  0  0  0  0  0  0  0  0  0
   -3.1810    4.1950    0.5640 O   0  0  0  0  0  0  0  0  0  0  0  0
   -0.6450    5.3020   -0.0560 O   0  0  0  0  0  0  0  0  0  0  0  0
   -0.7800    0.0610   -0.5070 C   0  0  0  0  0  0  0  0  0  0  0  0
   -2.0050   -0.0630   -0.9600 N   0  0  0  0  0  0  0  0  0  0  0  0
   -2.5580   -1.2290   -0.5340 N   0  0  0  0  0  0  0  0  0  0  0  0
   -3.8600   -1.6560   -0.8490 C   0  0  0  0  0  0  0  0  0  0  0  0
   -4.5640   -0.8430   -1.6120 O   0  0  0  0  0  0  0  0  0  0  0  0
   -4.6000   -2.8470   -0.4880 C   0  0  0  0  0  0  0  0  0  0  0  0
   -3.8640   -3.7430    0.3390 N   0  0  0  0  0  0  0  0  0  0  0  0
   -1.6320   -1.8240    0.2000 C   0  0  0  0  0  0  0  0  0  0  0  0
   -1.6290   -2.9180    0.8240 O   0  0  0  0  0  0  0  0  0  0  0  0
   -0.5210   -1.0280    0.2240 N   0  0  0  0  0  0  0  0  0  0  0  0
    0.7470   -1.1330    0.8260 C   0  0  0  0  0  0  0  0  0  0  0  0
    0.9680   -1.9080    1.7960 N   0  0  0  0  0  0  0  0  0  0  0  0
  2  1  1  1
  2  3  1  0
  2  8  1  0
  2 25  1  0
  3  4  1  0
  4  5  1  0
  5  6  1  0
  5  7  1  0
  8  9  1  0
  9 10  1  1
  9 15  1  0
 10 11  1  0
 11 12  1  0
 12 13  1  0
 12 14  1  0
 15 16  2  0
 15 24  1  0
 16 17  1  0
 17 18  1  0
 17 22  1  0
 18 19  2  0
 18 20  1  0
 20 21  1  0
 22 23  2  0
 22 24  1  0
 24 25  1  0
 25 26  2  0
M  END
