
     RDKit          3D

 26 27  0  0  0  0  0  0  0  0999 V2000
   -4.4910    0.7090   -1.7940 N   0  0  0  0  0  0  0  0  0  0  0  0
   -3.5610    1.0420   -1.0680 C   0  0  0  0  0  0  0  0  0  0  0  0
   -2.3680    0.4730   -1.4270 N   0  0  0  0  0  0  0  0  0  0  0  0
   -1.2710    0.0050   -0.7080 C   0  0  0  0  0  0  0  0  0  0  0  0
   -1.4790    0.0940    0.5040 O   0  0  0  0  0  0  0  0  0  0  0  0
   -0.0820   -0.5190   -1.3840 C   0  0  1  0  0  0  0  0  0  0  0  0
    0.8940    0.5980   -1.5320 C   0  0  0  0  0  0  0  0  0  0  0  0
    1.9740    0.4620   -0.6570 O   0  0  0  0  0  0  0  0  0  0  0  0
    2.6530   -0.7100   -0.8390 C   0  0  1  0  0  0  0  0  0  0  0  0
    3.9560   -0.7590   -0.1250 C   0  0  0  0  0  0  0  0  0  0  0  0
    3.9230   -0.6210    1.2940 N   0  0  0  0  0  0  0  0  0  0  0  0
    3.4600    0.5040    2.0170 C   0  0  0  0  0  0  0  0  0  0  0  0
    3.0340    1.5000    1.4170 O   0  0  0  0  0  0  0  0  0  0  0  0
    3.4720    0.5160    3.4250 O   0  0  0  0  0  0  0  0  0  0  0  0
    2.8970    1.9140    4.3180 P   0  0  0  0  0  0  0  0  0  0  0  0
    2.9330    3.3520    3.7350 O   0  0  0  0  0  0  0  0  0  0  0  0
    1.8190   -1.9130   -0.5990 C   0  0  1  0  0  0  0  0  0  0  0  0
    1.9370   -2.4890    0.8070 C   0  0  0  0  0  0  0  0  0  0  0  0
    0.8190   -3.4000    0.8000 O   0  0  0  0  0  0  0  0  0  0  0  0
   -0.1930   -2.6290    0.1870 C   0  0  0  0  0  0  0  0  0  0  0  0
   -1.4390   -2.7550    0.3040 O   0  0  0  0  0  0  0  0  0  0  0  0
    0.4280   -1.6340   -0.6260 N   0  0  0  0  0  0  0  0  0  0  0  0
   -3.8310    2.2080   -0.2750 N   0  0  0  0  0  0  0  0  0  0  0  0
   -5.3090    2.3400    0.6760 P   0  0  0  0  0  0  0  0  0  0  0  0
   -5.8670    0.8100    1.2310 O   0  0  0  0  0  0  0  0  0  0  0  0
   -6.5900    3.1470   -0.1650 O   0  0  0  0  0  0  0  0  0  0  0  0
  1  2  2  0
  2  3  1  0
  2 23  1  0
  3  4  1  0
  4  5  2  0
  6  4  1  1
  6  7  1  0
  6 22  1  0
  7  8  1  0
  8  9  1  0
  9 10  1  1
  9 17  1  0
 10 11  1  0
 11 12  1  0
 12 13  2  0
 12 14  1  0
 14 15  1  0
 15 16  2  0
 17 18  1  1
 17 22  1  0
 18 19  1  0
 19 20  1  0
 20 21  2  0
 20 22  1  0
 23 24  1  0
 24 25  1  0
 24 26  1  0
M  END
