
     RDKit          3D

 23 25  0  0  0  0  0  0  0  0999 V2000
    5.4800   -1.9900    0.1970 N   0  0  0  0  0  0  0  0  0  0  0  0
    4.5950   -0.9090   -0.1000 C   0  0  0  0  0  0  0  0  0  0  0  0
    5.0600    0.2640   -0.5750 N   0  0  0  0  0  0  0  0  0  0  0  0
    4.2390    1.2860   -0.8570 C   0  0  0  0  0  0  0  0  0  0  0  0
    2.9180    1.1440   -0.6620 N   0  0  0  0  0  0  0  0  0  0  0  0
    2.3590    0.0090   -0.1900 C   0  0  0  0  0  0  0  0  0  0  0  0
    3.2160   -1.0340    0.0950 C   0  0  0  0  0  0  0  0  0  0  0  0
    2.4760   -2.0470    0.5430 N   0  0  0  0  0  0  0  0  0  0  0  0
    1.1770   -1.6280    0.5320 C   0  0  0  0  0  0  0  0  0  0  0  0
    1.0980   -0.3720    0.0850 N   0  0  0  0  0  0  0  0  0  0  0  0
   -0.0340    0.4890   -0.1050 C   0  0  2  0  0  0  0  0  0  0  0  0
    0.0760    1.6150    0.7240 O   0  0  0  0  0  0  0  0  0  0  0  0
   -1.1840    2.1910    0.5450 C   0  0  2  0  0  0  0  0  0  0  0  0
   -1.4040    3.3660    1.4680 C   0  0  0  0  0  0  0  0  0  0  0  0
   -2.6880    3.8550    1.1990 O   0  0  0  0  0  0  0  0  0  0  0  0
   -2.0940    1.0280    0.8720 C   0  0  1  0  0  0  0  0  0  0  0  0
   -3.3090    1.2530    0.2300 O   0  0  0  0  0  0  0  0  0  0  0  0
   -1.3440   -0.1510    0.2360 C   0  0  1  0  0  0  0  0  0  0  0  0
   -2.0020   -0.4700   -0.9150 O   0  0  0  0  0  0  0  0  0  0  0  0
   -2.5100   -2.0230   -0.9530 P   0  0  0  0  0  0  0  0  0  0  0  0
   -3.9620   -1.6290   -1.1770 O   0  0  0  0  0  0  0  0  0  0  0  0
   -2.8310   -2.8770    0.4040 O   0  0  0  0  0  0  0  0  0  0  0  0
   -2.5030   -2.8530   -2.4190 O   0  0  0  0  0  0  0  0  0  0  0  0
  1  2  1  0
  2  3  2  0
  2  7  1  0
  3  4  1  0
  4  5  2  0
  5  6  1  0
  6  7  2  0
  6 10  1  0
  7  8  1  0
  8  9  2  0
  9 10  1  0
 11 10  1  1
 11 12  1  0
 11 18  1  0
 12 13  1  0
 13 14  1  1
 13 16  1  0
 14 15  1  0
 16 17  1  6
 16 18  1  0
 18 19  1  6
 19 20  1  0
 20 21  1  0
 20 22  1  0
 20 23  1  0
M  END
