
     RDKit          3D

 42 45  0  0  0  0  0  0  0  0999 V2000
   -9.7700    0.1350   -3.3600 C   0  0  0  0  0  0  0  0  0  0  0  0
   -8.5870   -0.8000   -3.1630 C   0  0  0  0  0  0  0  0  0  0  0  0
   -8.7890   -2.0990   -3.1860 C   0  0  0  0  0  0  0  0  0  0  0  0
   -7.1870   -2.8090   -2.9240 S   0  0  0  0  0  0  0  0  0  0  0  0
   -7.2100   -3.4870   -1.5490 O   0  0  0  0  0  0  0  0  0  0  0  0
   -6.3250   -1.2600   -2.7960 C   0  0  0  0  0  0  0  0  0  0  0  0
   -4.9600   -1.0710   -2.5770 O   0  0  0  0  0  0  0  0  0  0  0  0
   -4.5310   -0.4010   -1.4450 C   0  0  0  0  0  0  0  0  0  0  0  0
   -3.1920   -0.1870   -1.1800 C   0  0  0  0  0  0  0  0  0  0  0  0
   -2.7890    0.4880   -0.0410 C   0  0  0  0  0  0  0  0  0  0  0  0
   -3.6910    0.9700    0.8660 C   0  0  0  0  0  0  0  0  0  0  0  0
   -3.3870    1.6550    2.0280 O   0  0  0  0  0  0  0  0  0  0  0  0
   -3.2580    1.0670    3.2830 C   0  0  0  0  0  0  0  0  0  0  0  0
   -3.4380   -0.1990    3.3170 O   0  0  0  0  0  0  0  0  0  0  0  0
   -2.9460    1.7830    4.5030 C   0  0  0  0  0  0  0  0  0  0  0  0
   -1.5290    2.0550    4.8410 C   0  0  0  0  0  0  0  0  0  0  0  0
   -0.6200    0.9080    5.0200 C   0  0  1  0  0  0  0  0  0  0  0  0
   -1.0270    0.0060    6.0010 O   0  0  0  0  0  0  0  0  0  0  0  0
   -0.0510    0.3400    3.7890 C   0  0  0  0  0  0  0  0  0  0  0  0
    0.7850    1.3640    3.0830 C   0  0  0  0  0  0  0  0  0  0  0  0
    0.9500    2.5320    3.5010 O   0  0  0  0  0  0  0  0  0  0  0  0
    1.4520    1.0390    1.8660 N   0  0  0  0  0  0  0  0  0  0  0  0
    2.2630    2.0060    1.1720 C   0  0  0  0  0  0  0  0  0  0  0  0
    2.8790    1.4060   -0.0760 C   0  0  2  0  0  0  0  0  0  0  0  0
    1.7670    0.9680   -0.9590 C   0  0  0  0  0  0  0  0  0  0  0  0
    0.6430    1.5160   -0.8770 O   0  0  0  0  0  0  0  0  0  0  0  0
    2.0340   -0.1070   -1.9070 C   0  0  0  0  0  0  0  0  0  0  0  0
    2.9830   -1.0130   -1.7310 C   0  0  0  0  0  0  0  0  0  0  0  0
    3.1660   -2.0550   -2.7520 C   0  0  0  0  0  0  0  0  0  0  0  0
    3.7880   -0.9340   -0.5560 N   0  0  0  0  0  0  0  0  0  0  0  0
    4.8160   -1.9040   -0.3550 C   0  0  0  0  0  0  0  0  0  0  0  0
    6.1570   -1.5380   -0.9440 C   0  0  2  0  0  0  0  0  0  0  0  0
    6.6680   -0.3050   -0.2600 C   0  0  0  0  0  0  0  0  0  0  0  0
    7.9360    0.2370   -0.8870 C   0  0  0  0  0  0  0  0  0  0  0  0
    8.2660   -0.5820   -2.0890 C   0  0  0  0  0  0  0  0  0  0  0  0
    7.0470   -0.7790   -2.9460 C   0  0  0  0  0  0  0  0  0  0  0  0
    5.9880   -1.3790   -2.3150 O   0  0  0  0  0  0  0  0  0  0  0  0
    3.5320    0.1290    0.3860 C   0  0  0  0  0  0  0  0  0  0  0  0
    3.8520   -0.0210    1.5710 O   0  0  0  0  0  0  0  0  0  0  0  0
   -5.0260    0.7560    0.5980 C   0  0  0  0  0  0  0  0  0  0  0  0
   -5.4610    0.0750   -0.5480 C   0  0  0  0  0  0  0  0  0  0  0  0
   -7.2640   -0.3510   -2.9540 C   0  0  0  0  0  0  0  0  0  0  0  0
  1  2  1  0
  2  3  2  0
  2 42  1  0
  4  3  1  1
  4  5  2  0
  4  6  1  0
  6  7  1  0
  6 42  2  0
  7  8  1  0
  8  9  2  0
  8 41  1  0
  9 10  1  0
 10 11  2  0
 11 12  1  0
 11 40  1  0
 12 13  1  0
 13 14  2  0
 13 15  1  0
 15 16  1  0
 16 17  1  0
 17 18  1  6
 17 19  1  0
 19 20  1  0
 20 21  2  0
 20 22  1  0
 22 23  1  0
 24 23  1  1
 24 25  1  0
 24 38  1  0
 25 26  2  0
 25 27  1  0
 27 28  2  0
 28 29  1  0
 28 30  1  0
 30 31  1  0
 30 38  1  0
 32 31  1  1
 32 33  1  0
 32 37  1  0
 33 34  1  0
 34 35  1  0
 35 36  1  0
 36 37  1  0
 38 39  2  0
 40 41  2  0
M  END
