
     RDKit          3D

 42 46  0  0  0  0  0  0  0  0999 V2000
   -6.4780    2.0900   -3.2220 C   0  0  0  0  0  0  0  0  0  0  0  0
   -5.8080    1.6220   -1.9780 C   0  0  0  0  0  0  0  0  0  0  0  0
   -5.3530    0.3250   -1.9540 C   0  0  0  0  0  0  0  0  0  0  0  0
   -4.7150   -0.1780   -0.8240 C   0  0  0  0  0  0  0  0  0  0  0  0
   -4.2520   -1.5430   -0.8070 C   0  0  0  0  0  0  0  0  0  0  0  0
   -2.9520   -1.8530   -1.2030 C   0  0  0  0  0  0  0  0  0  0  0  0
   -2.1360   -0.7820   -1.5650 N   0  0  0  0  0  0  0  0  0  0  0  0
   -0.8330   -0.8620   -2.0720 C   0  0  0  0  0  0  0  0  0  0  0  0
   -0.2920   -1.9700   -2.2490 O   0  0  0  0  0  0  0  0  0  0  0  0
   -0.0240    0.3420   -2.4220 C   0  0  1  0  0  0  0  0  0  0  0  0
   -0.7350    1.2870   -3.3500 C   0  0  0  0  0  0  0  0  0  0  0  0
    0.5370    1.0370   -1.2000 C   0  0  0  0  0  0  0  0  0  0  0  0
    1.4070    0.1150   -0.4520 N   0  0  0  0  0  0  0  0  0  0  0  0
    2.7020   -0.0500   -0.6530 N   0  0  0  0  0  0  0  0  0  0  0  0
    3.2090   -0.9820    0.1980 C   0  0  0  0  0  0  0  0  0  0  0  0
    4.6120   -1.4450    0.2890 C   0  0  0  0  0  0  0  0  0  0  0  0
    5.2770   -0.8470    1.4080 N   0  0  0  0  0  0  0  0  0  0  0  0
    5.3720   -1.3460    2.6370 C   0  0  0  0  0  0  0  0  0  0  0  0
    6.1090   -0.4570    3.4020 C   0  0  0  0  0  0  0  0  0  0  0  0
    6.4700   -0.6010    4.8370 C   0  0  0  0  0  0  0  0  0  0  0  0
    6.4420    0.5850    2.5630 C   0  0  0  0  0  0  0  0  0  0  0  0
    7.1680    1.7170    2.8370 C   0  0  0  0  0  0  0  0  0  0  0  0
    7.3590    2.6210    1.7900 C   0  0  0  0  0  0  0  0  0  0  0  0
    6.8510    2.4050    0.5330 C   0  0  0  0  0  0  0  0  0  0  0  0
    6.1240    1.2430    0.3100 C   0  0  0  0  0  0  0  0  0  0  0  0
    5.9260    0.3420    1.3300 C   0  0  0  0  0  0  0  0  0  0  0  0
    2.1580   -1.4070    0.9600 C   0  0  0  0  0  0  0  0  0  0  0  0
    2.1420   -2.6170    2.2500 Cl  0  0  0  0  0  0  0  0  0  0  0  0
    1.0400   -0.7110    0.5400 C   0  0  0  0  0  0  0  0  0  0  0  0
   -0.1280   -0.8240    1.0030 O   0  0  0  0  0  0  0  0  0  0  0  0
   -2.5570   -3.1910   -1.1890 C   0  0  0  0  0  0  0  0  0  0  0  0
   -3.4310   -4.1880   -0.7920 C   0  0  0  0  0  0  0  0  0  0  0  0
   -2.8950   -5.8760   -0.7880 Cl  0  0  0  0  0  0  0  0  0  0  0  0
   -4.6670   -3.8520   -0.4200 N   0  0  0  0  0  0  0  0  0  0  0  0
   -5.0730   -2.5700   -0.4250 C   0  0  0  0  0  0  0  0  0  0  0  0
   -6.4650   -2.2530    0.0010 C   0  0  0  0  0  0  0  0  0  0  0  0
   -4.5860    0.6750    0.2020 N   0  0  0  0  0  0  0  0  0  0  0  0
   -5.0130    1.9450    0.2240 C   0  0  0  0  0  0  0  0  0  0  0  0
   -4.8460    2.8060    1.3410 N   0  0  0  0  0  0  0  0  0  0  0  0
   -4.2030    2.3850    2.5310 C   0  0  0  0  0  0  0  0  0  0  0  0
   -3.7660    1.2120    2.5980 O   0  0  0  0  0  0  0  0  0  0  0  0
   -5.6360    2.4160   -0.8970 N   0  0  0  0  0  0  0  0  0  0  0  0
  1  2  1  0
  2  3  2  0
  2 42  1  0
  3  4  1  0
  4  5  1  0
  4 37  2  0
  5  6  1  0
  5 35  2  0
  6  7  1  0
  6 31  2  0
  7  8  1  0
  8  9  2  0
  8 10  1  0
 10 11  1  1
 10 12  1  0
 12 13  1  0
 13 14  1  0
 13 29  1  0
 14 15  1  0
 15 16  1  0
 15 27  2  0
 16 17  1  0
 17 18  1  0
 17 26  1  0
 18 19  2  0
 19 20  1  0
 19 21  1  0
 21 22  2  0
 21 26  1  0
 22 23  1  0
 23 24  2  0
 24 25  1  0
 25 26  2  0
 27 28  1  0
 27 29  1  0
 29 30  2  0
 31 32  1  0
 32 33  1  0
 32 34  2  0
 34 35  1  0
 35 36  1  0
 37 38  1  0
 38 39  1  0
 38 42  2  0
 39 40  1  0
 40 41  2  0
M  END
