
     RDKit          3D

 41 45  0  0  0  0  0  0  0  0999 V2000
   -1.9860    4.4410   -4.6820 C   0  0  0  0  0  0  0  0  0  0  0  0
   -2.8500    3.5170   -3.8470 C   0  0  0  0  0  0  0  0  0  0  0  0
   -2.6510    3.7020   -2.4920 O   0  0  0  0  0  0  0  0  0  0  0  0
   -3.4710    2.8320   -1.8020 C   0  0  2  0  0  0  0  0  0  0  0  0
   -4.7910    3.1290   -2.1560 O   0  0  0  0  0  0  0  0  0  0  0  0
   -5.0800    4.2340   -1.3600 C   0  0  0  0  0  0  0  0  0  0  0  0
   -4.6280    3.8040   -0.0470 N   0  0  0  0  0  0  0  0  0  0  0  0
   -3.4470    3.0130   -0.3210 C   0  0  1  0  0  0  0  0  0  0  0  0
   -3.6540    1.6110    0.2140 C   0  0  0  0  0  0  0  0  0  0  0  0
   -3.8190    0.8020   -1.0550 C   0  0  2  0  0  0  0  0  0  0  0  0
   -3.3940   -0.6060   -0.9110 C   0  0  0  0  0  0  0  0  0  0  0  0
   -3.9440   -1.3210   -0.0240 O   0  0  0  0  0  0  0  0  0  0  0  0
   -2.3940   -1.2160   -1.7180 N   0  0  0  0  0  0  0  0  0  0  0  0
   -1.9690   -2.5910   -1.5870 C   0  0  0  0  0  0  0  0  0  0  0  0
   -1.3890   -2.9140   -0.2270 C   0  0  2  0  0  0  0  0  0  0  0  0
   -0.2700   -2.1450    0.0810 O   0  0  0  0  0  0  0  0  0  0  0  0
   -0.1610   -1.2630    1.1160 C   0  0  0  0  0  0  0  0  0  0  0  0
   -1.1630   -1.1260    1.8680 O   0  0  0  0  0  0  0  0  0  0  0  0
    1.0690   -0.4960    1.3540 C   0  0  0  0  0  0  0  0  0  0  0  0
    2.2730   -0.4490    0.7070 C   0  0  0  0  0  0  0  0  0  0  0  0
    3.2160    0.3750    1.1850 C   0  0  0  0  0  0  0  0  0  0  0  0
    4.5840    0.4860    0.5310 C   0  0  0  0  0  0  0  0  0  0  0  0
    2.9410    1.1300    2.2890 C   0  0  0  0  0  0  0  0  0  0  0  0
    3.8090    2.1000    3.0060 C   0  0  0  0  0  0  0  0  0  0  0  0
    3.9190    3.3760    2.2950 C   0  0  0  0  0  0  0  0  0  0  0  0
    5.0080    3.6450    1.5020 C   0  0  0  0  0  0  0  0  0  0  0  0
    5.1280    4.8350    0.7930 C   0  0  0  0  0  0  0  0  0  0  0  0
    4.1250    5.7780    0.8840 C   0  0  0  0  0  0  0  0  0  0  0  0
    3.0410    5.5110    1.6740 C   0  0  0  0  0  0  0  0  0  0  0  0
    2.9180    4.3110    2.3920 C   0  0  0  0  0  0  0  0  0  0  0  0
    1.7740    4.1850    3.1510 O   0  0  0  0  0  0  0  0  0  0  0  0
    1.3320    0.6930    2.6870 S   0  0  0  0  0  0  0  0  0  0  0  0
   -1.1370   -4.3740   -0.0890 C   0  0  0  0  0  0  0  0  0  0  0  0
   -1.9950   -5.2550   -0.3290 O   0  0  0  0  0  0  0  0  0  0  0  0
    0.1110   -4.8060    0.3290 O   0  0  0  0  0  0  0  0  0  0  0  0
    0.3780   -6.1770    0.4670 C   0  0  2  0  0  0  0  0  0  0  0  0
    0.6800   -6.5710    1.8940 C   0  0  0  0  0  0  0  0  0  0  0  0
    1.0920   -8.0340    1.6580 C   0  0  0  0  0  0  0  0  0  0  0  0
    1.9880   -7.9240    0.4380 C   0  0  0  0  0  0  0  0  0  0  0  0
    1.5560   -6.6710   -0.2870 C   0  0  0  0  0  0  0  0  0  0  0  0
   -3.1700    1.4920   -2.0510 O   0  0  0  0  0  0  0  0  0  0  0  0
  1  2  1  0
  2  3  1  0
  4  3  1  6
  4  5  1  0
  4  8  1  0
  4 41  1  0
  5  6  1  0
  6  7  1  0
  7  8  1  0
  8  9  1  1
  9 10  1  0
 10 11  1  1
 10 41  1  0
 11 12  2  0
 11 13  1  0
 13 14  1  0
 15 14  1  6
 15 16  1  0
 15 33  1  0
 16 17  1  0
 17 18  2  0
 17 19  1  0
 19 20  2  0
 19 32  1  0
 20 21  1  0
 21 22  1  0
 21 23  2  0
 23 24  1  0
 23 32  1  0
 24 25  1  0
 25 26  2  0
 25 30  1  0
 26 27  1  0
 27 28  2  0
 28 29  1  0
 29 30  2  0
 30 31  1  0
 33 34  2  0
 33 35  1  0
 36 35  1  1
 36 37  1  0
 36 40  1  0
 37 38  1  0
 38 39  1  0
 39 40  1  0
M  END
