
     RDKit          3D

 34 36  0  0  0  0  0  0  0  0999 V2000
    0.1420   -4.0400    1.3340 C   0  0  0  0  0  0  0  0  0  0  0  0
   -0.4590   -2.6640    1.5680 C   0  0  2  0  0  0  0  0  0  0  0  0
   -1.8390   -2.5490    0.9720 C   0  0  0  0  0  0  0  0  0  0  0  0
   -1.8700   -1.9960   -0.3980 C   0  0  1  0  0  0  0  0  0  0  0  0
   -2.3450   -0.6550   -0.5210 N   0  0  0  0  0  0  0  0  0  0  0  0
   -3.5480   -0.3400    0.1570 C   0  0  0  0  0  0  0  0  0  0  0  0
   -4.4520    0.5800   -0.6680 C   0  0  1  0  0  0  0  0  0  0  0  0
   -4.8000   -0.0430   -1.8610 O   0  0  0  0  0  0  0  0  0  0  0  0
   -5.6870    0.8020    0.1060 C   0  0  0  0  0  0  0  0  0  0  0  0
   -5.9080    0.2310    1.3300 N   0  0  0  0  0  0  0  0  0  0  0  0
   -7.0900    0.5650    1.7790 N   0  0  0  0  0  0  0  0  0  0  0  0
   -7.6290    1.3350    0.8740 N   0  0  0  0  0  0  0  0  0  0  0  0
   -6.7980    1.5220   -0.1980 C   0  0  0  0  0  0  0  0  0  0  0  0
   -7.1160    2.3630   -1.3110 C   0  0  0  0  0  0  0  0  0  0  0  0
   -8.5440    2.7790   -1.3590 N   0  0  0  0  0  0  0  0  0  0  0  0
   -6.4490    2.8300   -2.2960 C   0  0  0  0  0  0  0  0  0  0  0  0
   -5.1700    2.6740   -2.6180 F   0  0  0  0  0  0  0  0  0  0  0  0
   -0.5380   -2.0840   -1.1140 C   0  0  0  0  0  0  0  0  0  0  0  0
    0.5630   -1.6080   -0.3190 N   0  0  0  0  0  0  0  0  0  0  0  0
    1.6970   -1.1070   -1.0320 C   0  0  0  0  0  0  0  0  0  0  0  0
    1.7500   -1.0780   -2.2880 O   0  0  0  0  0  0  0  0  0  0  0  0
    2.8010   -0.6250   -0.3220 N   0  0  0  0  0  0  0  0  0  0  0  0
    3.9450   -0.1210   -1.0360 C   0  0  0  0  0  0  0  0  0  0  0  0
    3.9720   -0.1050   -2.2840 O   0  0  0  0  0  0  0  0  0  0  0  0
    5.0750    0.3700   -0.2020 C   0  0  0  0  0  0  0  0  0  0  0  0
    6.1280    0.8330   -1.0270 O   0  0  0  0  0  0  0  0  0  0  0  0
    7.2680    1.3280   -0.3880 C   0  0  0  0  0  0  0  0  0  0  0  0
    8.3290    1.7940   -1.1280 C   0  0  0  0  0  0  0  0  0  0  0  0
    9.4770    2.2940   -0.5420 C   0  0  0  0  0  0  0  0  0  0  0  0
    9.5980    2.3410    0.8350 C   0  0  0  0  0  0  0  0  0  0  0  0
   10.7590    2.8460    1.4310 O   0  0  0  0  0  0  0  0  0  0  0  0
    8.5420    1.8770    1.5810 C   0  0  0  0  0  0  0  0  0  0  0  0
    7.3910    1.3770    0.9830 C   0  0  0  0  0  0  0  0  0  0  0  0
    0.5160   -1.6380    1.1050 C   0  0  0  0  0  0  0  0  0  0  0  0
  2  1  1  6
  2  3  1  0
  2 34  1  0
  3  4  1  0
  4  5  1  1
  4 18  1  0
  5  6  1  0
  6  7  1  0
  7  8  1  6
  7  9  1  0
  9 10  1  0
  9 13  2  0
 10 11  2  0
 11 12  1  0
 12 13  1  0
 13 14  1  0
 14 15  1  0
 14 16  2  3
 16 17  1  0
 18 19  1  0
 19 20  1  0
 19 34  1  0
 20 21  2  0
 20 22  1  0
 22 23  1  0
 23 24  2  0
 23 25  1  0
 25 26  1  0
 26 27  1  0
 27 28  2  0
 27 33  1  0
 28 29  1  0
 29 30  2  0
 30 31  1  0
 30 32  1  0
 32 33  2  0
M  CHG  2   5   1  10   1
M  END
