
     RDKit          3D

 34 40  0  0  0  0  0  0  0  0999 V2000
    2.5540   -5.9180   -0.0150 N   0  0  0  0  0  0  0  0  0  0  0  0
    1.7430   -4.7550   -0.1260 C   0  0  0  0  0  0  0  0  0  0  0  0
    0.4360   -4.8440    0.2990 C   0  0  0  0  0  0  0  0  0  0  0  0
   -0.3830   -3.7400    0.2090 C   0  0  0  0  0  0  0  0  0  0  0  0
    0.0810   -2.5460   -0.2990 C   0  0  0  0  0  0  0  0  0  0  0  0
    1.4020   -2.4310   -0.7360 C   0  0  0  0  0  0  0  0  0  0  0  0
    2.2020   -3.5580   -0.6330 C   0  0  0  0  0  0  0  0  0  0  0  0
    1.9930   -1.2100   -1.2900 C   0  0  2  0  0  0  0  0  0  0  0  0
    3.1950   -0.7810   -0.5380 C   0  0  0  0  0  0  0  0  0  0  0  0
    3.8620   -1.4310    0.4250 N   0  0  0  0  0  0  0  0  0  0  0  0
    4.8620   -0.6700    0.8020 O   0  0  0  0  0  0  0  0  0  0  0  0
    4.8730    0.4490    0.1250 C   0  0  0  0  0  0  0  0  0  0  0  0
    5.8250    1.5510    0.2520 C   0  0  0  0  0  0  0  0  0  0  0  0
    5.7240    2.6820   -0.5280 C   0  0  0  0  0  0  0  0  0  0  0  0
    6.6540    3.7050   -0.3710 C   0  0  0  0  0  0  0  0  0  0  0  0
    7.6740    3.6070    0.5510 C   0  0  0  0  0  0  0  0  0  0  0  0
    7.7360    2.4880    1.2920 N   0  0  0  0  0  0  0  0  0  0  0  0
    6.8500    1.4730    1.1660 C   0  0  0  0  0  0  0  0  0  0  0  0
    3.8280    0.3850   -0.7190 N   0  0  0  0  0  0  0  0  0  0  0  0
    1.0810   -0.1120   -1.3500 N   0  0  0  0  0  0  0  0  0  0  0  0
   -0.2800   -0.1810   -0.9150 C   0  0  0  0  0  0  0  0  0  0  0  0
   -1.1140    0.9220   -1.0000 C   0  0  0  0  0  0  0  0  0  0  0  0
   -2.4280    0.8820   -0.5880 C   0  0  0  0  0  0  0  0  0  0  0  0
   -3.2180    1.9920   -0.6890 N   0  0  0  0  0  0  0  0  0  0  0  0
   -4.5200    1.9380   -0.2770 C   0  0  0  0  0  0  0  0  0  0  0  0
   -5.0520    0.7770    0.2420 C   0  0  0  0  0  0  0  0  0  0  0  0
   -4.2590   -0.3350    0.3420 C   0  0  0  0  0  0  0  0  0  0  0  0
   -2.9300   -0.2900   -0.0760 C   0  0  0  0  0  0  0  0  0  0  0  0
   -2.0990   -1.4060    0.0140 C   0  0  0  0  0  0  0  0  0  0  0  0
   -0.7840   -1.3670   -0.3980 C   0  0  0  0  0  0  0  0  0  0  0  0
   -6.4640    0.7840    0.6720 C   0  0  0  0  0  0  0  0  0  0  0  0
   -6.6210    1.9890    1.5750 C   0  0  0  0  0  0  0  0  0  0  0  0
   -6.2200    3.2730    0.9120 C   0  0  0  0  0  0  0  0  0  0  0  0
   -5.4410    3.0980   -0.3560 C   0  0  0  0  0  0  0  0  0  0  0  0
  1  2  1  0
  2  3  2  0
  2  7  1  0
  3  4  1  0
  4  5  2  0
  5  6  1  0
  5 30  1  0
  6  7  2  0
  6  8  1  0
  8  9  1  1
  8 20  1  0
  9 10  2  0
  9 19  1  0
 10 11  1  0
 11 12  1  0
 12 13  1  0
 12 19  2  0
 13 14  2  0
 13 18  1  0
 14 15  1  0
 15 16  2  0
 16 17  1  0
 17 18  2  0
 20 21  1  0
 21 22  2  0
 21 30  1  0
 22 23  1  0
 23 24  2  0
 23 28  1  0
 24 25  1  0
 25 26  2  0
 25 34  1  0
 26 27  1  0
 26 31  1  0
 27 28  2  0
 28 29  1  0
 29 30  2  0
 31 32  1  0
 32 33  1  0
 33 34  1  0
M  END
