
     RDKit          3D

 33 35  0  0  0  0  0  0  0  0999 V2000
    9.0570   -0.6250   -2.8110 N   0  0  0  0  0  0  0  0  0  0  0  0
    7.7320   -0.6280   -2.3010 C   0  0  0  0  0  0  0  0  0  0  0  0
    7.3690   -1.4250   -1.2420 C   0  0  0  0  0  0  0  0  0  0  0  0
    6.1000   -1.4230   -0.7650 C   0  0  0  0  0  0  0  0  0  0  0  0
    5.1000   -0.6000   -1.3360 C   0  0  0  0  0  0  0  0  0  0  0  0
    3.8600   -0.7020   -0.7840 N   0  0  0  0  0  0  0  0  0  0  0  0
    2.6980    0.1850   -1.0400 C   0  0  0  0  0  0  0  0  0  0  0  0
    2.8340    1.0810   -1.7660 O   0  0  0  0  0  0  0  0  0  0  0  0
    1.6170   -0.3110   -0.2760 N   0  0  0  0  0  0  0  0  0  0  0  0
    0.5190    1.0000   -0.5850 C   0  0  0  0  0  0  0  0  0  0  0  0
    1.0050    1.8620   -1.2280 O   0  0  0  0  0  0  0  0  0  0  0  0
   -0.7410    0.8380   -0.0230 N   0  0  0  0  0  0  0  0  0  0  0  0
   -1.5710    2.0110   -0.0270 C   0  0  0  0  0  0  0  0  0  0  0  0
   -1.4630    2.9290    1.1530 C   0  0  1  0  0  0  0  0  0  0  0  0
   -0.0340    3.3700    1.3150 C   0  0  0  0  0  0  0  0  0  0  0  0
   -0.0400    4.2690    2.4010 O   0  0  0  0  0  0  0  0  0  0  0  0
   -0.6030    5.4300    1.9160 C   0  0  0  0  0  0  0  0  0  0  0  0
   -1.8130    5.2480    1.0590 C   0  0  0  0  0  0  0  0  0  0  0  0
   -2.3280    4.0010    0.9380 O   0  0  0  0  0  0  0  0  0  0  0  0
   -1.2710   -0.5080    0.3370 C   0  0  1  0  0  0  0  0  0  0  0  0
   -1.1620   -0.6020    1.8560 C   0  0  0  0  0  0  0  0  0  0  0  0
   -1.5490   -1.9250    2.4300 C   0  0  0  0  0  0  0  0  0  0  0  0
   -0.6620   -2.9590    1.8710 N   0  0  0  0  0  0  0  0  0  0  0  0
   -2.6450   -0.5700   -0.1960 C   0  0  0  0  0  0  0  0  0  0  0  0
   -3.4490   -1.7220   -0.1360 N   0  0  2  0  0  0  0  0  0  0  0  0
   -4.0080   -1.9850   -1.5010 C   0  0  0  0  0  0  0  0  0  0  0  0
   -5.1810   -2.8820   -1.4580 C   0  0  0  0  0  0  0  0  0  0  0  0
   -5.3210   -3.6420   -0.1990 N   0  0  0  0  0  0  0  0  0  0  0  0
   -5.1770   -2.8310    0.9560 C   0  0  0  0  0  0  0  0  0  0  0  0
   -5.4700   -3.2290    2.0700 O   0  0  0  0  0  0  0  0  0  0  0  0
   -4.6480   -1.4690    0.6950 C   0  0  0  0  0  0  0  0  0  0  0  0
    5.4620    0.1920   -2.3870 C   0  0  0  0  0  0  0  0  0  0  0  0
    6.7540    0.1730   -2.8540 C   0  0  0  0  0  0  0  0  0  0  0  0
  1  2  1  0
  2  3  2  0
  2 33  1  0
  3  4  1  0
  4  5  2  0
  5  6  1  0
  5 32  1  0
  6  7  1  0
  7  8  2  0
  7  9  1  0
  9 10  1  0
 10 11  2  0
 10 12  1  0
 12 13  1  0
 12 20  1  0
 14 13  1  6
 14 15  1  0
 14 19  1  0
 15 16  1  0
 16 17  1  0
 17 18  1  0
 18 19  1  0
 20 21  1  1
 20 24  1  0
 21 22  1  0
 22 23  1  0
 25 24  1  6
 25 26  1  0
 25 31  1  0
 26 27  1  0
 27 28  1  0
 28 29  1  0
 29 30  2  0
 29 31  1  0
 32 33  2  0
M  CHG  2  23   1  25   1
M  END
