
     RDKit          3D

 33 34  0  0  0  0  0  0  0  0999 V2000
   -3.0200   -0.6470   -2.9020 C   0  0  0  0  0  0  0  0  0  0  0  0
   -2.4740   -0.1410   -1.6950 O   0  0  0  0  0  0  0  0  0  0  0  0
   -2.3450   -0.9760   -0.6170 C   0  0  0  0  0  0  0  0  0  0  0  0
   -2.7050   -2.1690   -0.6960 O   0  0  0  0  0  0  0  0  0  0  0  0
   -1.7750   -0.4810    0.6670 C   0  0  2  0  0  0  0  0  0  0  0  0
   -2.9740   -0.6500    1.6180 C   0  0  0  0  0  0  0  0  0  0  0  0
   -4.1830   -0.1020    0.8900 C   0  0  0  0  0  0  0  0  0  0  0  0
   -4.0010    1.3080    0.4220 C   0  0  1  0  0  0  0  0  0  0  0  0
   -4.8810    1.6860   -0.7350 C   0  0  0  0  0  0  0  0  0  0  0  0
   -4.4750    2.1800    1.6070 C   0  0  0  0  0  0  0  0  0  0  0  0
   -2.5830    1.6920    0.2280 C   0  0  0  0  0  0  0  0  0  0  0  0
   -2.3600    2.7740   -0.4200 O   0  0  0  0  0  0  0  0  0  0  0  0
   -1.4720    0.8950    0.7440 N   0  0  0  0  0  0  0  0  0  0  0  0
   -0.3250    1.5590    1.2410 C   0  0  0  0  0  0  0  0  0  0  0  0
   -0.3850    2.8350    1.0370 O   0  0  0  0  0  0  0  0  0  0  0  0
    0.8930    1.1640    1.9230 C   0  0  0  0  0  0  0  0  0  0  0  0
    0.8970    1.3510    3.3850 O   0  0  0  0  0  0  0  0  0  0  0  0
    2.0290    0.6740    1.5640 C   0  0  0  0  0  0  0  0  0  0  0  0
    2.6190    0.2870    0.2510 C   0  0  2  0  0  0  0  0  0  0  0  0
    4.1220    0.7440    0.3060 C   0  0  0  0  0  0  0  0  0  0  0  0
    4.7380    0.4160   -0.8840 O   0  0  0  0  0  0  0  0  0  0  0  0
    6.3870    0.9430   -0.7630 P   0  0  0  0  0  0  0  0  0  0  0  0
    7.1170    0.4820    0.7260 O   0  0  0  0  0  0  0  0  0  0  0  0
    6.3780    2.6790   -0.8480 O   0  0  0  0  0  0  0  0  0  0  0  0
    1.9830    1.1510   -1.2010 P   0  0  0  0  0  0  0  0  0  0  0  0
    3.1780    1.1990   -2.4470 O   0  0  0  0  0  0  0  0  0  0  0  0
    0.4310    0.7890   -1.7510 O   0  0  0  0  0  0  0  0  0  0  0  0
    2.7260   -1.2050    0.1850 C   0  0  0  0  0  0  0  0  0  0  0  0
    2.3830   -1.8420   -1.1170 C   0  0  0  0  0  0  0  0  0  0  0  0
    1.9560   -3.2830   -0.7710 C   0  0  0  0  0  0  0  0  0  0  0  0
    0.7250   -3.1360    0.0990 C   0  0  0  0  0  0  0  0  0  0  0  0
    0.1260   -1.8450   -0.1500 N   0  0  0  0  0  0  0  0  0  0  0  0
   -0.7310   -1.5000    0.8960 C   0  0  0  0  0  0  0  0  0  0  0  0
  1  2  1  0
  2  3  1  0
  3  4  2  0
  5  3  1  6
  5  6  1  0
  5 13  1  0
  5 33  1  0
  6  7  1  0
  7  8  1  0
  8  9  1  6
  8 10  1  0
  8 11  1  0
 11 12  2  0
 11 13  1  0
 13 14  1  0
 14 15  2  0
 14 16  1  0
 16 17  1  0
 16 18  2  0
 18 19  1  0
 19 20  1  1
 19 25  1  0
 19 28  1  0
 20 21  1  0
 21 22  1  0
 22 23  1  0
 22 24  1  0
 25 26  1  0
 25 27  1  0
 28 29  1  0
 29 30  1  0
 30 31  1  0
 31 32  1  0
 32 33  1  0
M  END
