
     RDKit          3D

 34 35  0  0  0  0  0  0  0  0999 V2000
   -7.4570    2.5800   -1.0920 C   0  0  0  0  0  0  0  0  0  0  0  0
   -7.1350    2.6180    0.2310 O   0  0  0  0  0  0  0  0  0  0  0  0
   -6.1770    1.7220    0.6160 C   0  0  0  0  0  0  0  0  0  0  0  0
   -4.8800    1.9590   -0.1110 C   0  0  0  0  0  0  0  0  0  0  0  0
   -3.9880    0.9800    0.3800 O   0  0  0  0  0  0  0  0  0  0  0  0
   -2.7770    1.1420   -0.2440 C   0  0  2  0  0  0  0  0  0  0  0  0
   -2.4060    0.0340   -1.0100 O   0  0  0  0  0  0  0  0  0  0  0  0
   -3.3190   -1.0220   -0.8050 C   0  0  0  0  0  0  0  0  0  0  0  0
   -2.8520   -2.2840   -1.4620 C   0  0  0  0  0  0  0  0  0  0  0  0
   -2.7680   -3.4340   -0.4790 C   0  0  0  0  0  0  0  0  0  0  0  0
   -1.6650   -3.3450    0.3520 O   0  0  0  0  0  0  0  0  0  0  0  0
   -0.5030   -3.7610   -0.3030 C   0  0  0  0  0  0  0  0  0  0  0  0
    0.7350   -3.2250    0.4140 C   0  0  0  0  0  0  0  0  0  0  0  0
    1.7180   -2.8000   -0.4400 O   0  0  0  0  0  0  0  0  0  0  0  0
    2.0400   -1.4470   -0.2870 C   0  0  2  0  0  0  0  0  0  0  0  0
    2.7280   -1.2710    1.0250 C   0  0  0  0  0  0  0  0  0  0  0  0
    2.7760    0.1440    1.5150 C   0  0  1  0  0  0  0  0  0  0  0  0
    3.9760    0.9000    1.0430 C   0  0  0  0  0  0  0  0  0  0  0  0
    3.7290    2.0000    0.4620 O   0  0  0  0  0  0  0  0  0  0  0  0
    5.3080    0.5180    1.1810 N   0  0  0  0  0  0  0  0  0  0  0  0
    5.8380   -0.6630    1.8140 C   0  0  0  0  0  0  0  0  0  0  0  0
    6.3390    1.4110    0.6260 C   0  0  0  0  0  0  0  0  0  0  0  0
    6.7670    1.0430   -1.1130 P   0  0  0  0  0  0  0  0  0  0  0  0
    6.6250    2.4250   -2.1490 O   0  0  0  0  0  0  0  0  0  0  0  0
    5.9380   -0.3250   -1.7620 O   0  0  0  0  0  0  0  0  0  0  0  0
    1.6390    0.9160    1.2820 N   0  0  0  0  0  0  0  0  0  0  0  0
    0.6220    0.5400    0.3940 C   0  0  2  0  0  0  0  0  0  0  0  0
    0.3320    2.0790   -0.6740 P   0  0  0  0  0  0  0  0  0  0  0  0
    1.6150    2.0960   -1.8540 O   0  0  0  0  0  0  0  0  0  0  0  0
    0.5180    3.4420    0.3820 O   0  0  0  0  0  0  0  0  0  0  0  0
   -0.7200    0.2990    1.1140 C   0  0  0  0  0  0  0  0  0  0  0  0
   -1.7210    1.3480    0.7970 C   0  0  0  0  0  0  0  0  0  0  0  0
   -1.6570    2.3970    1.4180 O   0  0  0  0  0  0  0  0  0  0  0  0
    0.8420   -0.6180   -0.5030 C   0  0  0  0  0  0  0  0  0  0  0  0
  1  2  1  0
  2  3  1  0
  3  4  1  0
  4  5  1  0
  6  5  1  1
  6  7  1  0
  6 32  1  0
  7  8  1  0
  8  9  1  0
  9 10  1  0
 10 11  1  0
 11 12  1  0
 12 13  1  0
 13 14  1  0
 14 15  1  0
 15 16  1  1
 15 34  1  0
 16 17  1  0
 17 18  1  6
 17 26  1  0
 18 19  2  0
 18 20  1  0
 20 21  1  0
 20 22  1  0
 22 23  1  0
 23 24  1  0
 23 25  1  0
 26 27  1  0
 27 28  1  6
 27 31  1  0
 27 34  1  0
 28 29  1  0
 28 30  1  0
 31 32  1  0
 32 33  2  0
M  END
