
     RDKit          3D

 30 32  0  0  0  0  0  0  0  0999 V2000
   -5.9800    1.6480    0.4400 O   0  0  0  0  0  0  0  0  0  0  0  0
   -5.0210    1.1160    1.0560 C   0  0  0  0  0  0  0  0  0  0  0  0
   -4.1630    1.9660    1.8390 N   0  0  0  0  0  0  0  0  0  0  0  0
   -2.9610    1.4240    2.3430 C   0  0  0  0  0  0  0  0  0  0  0  0
   -2.3550    2.0080    3.2590 O   0  0  0  0  0  0  0  0  0  0  0  0
   -2.3560    0.1490    1.8220 C   0  0  2  0  0  0  0  0  0  0  0  0
   -1.0550    0.4620    1.1950 C   0  0  0  0  0  0  0  0  0  0  0  0
   -0.1040    0.4610    2.0930 O   0  0  0  0  0  0  0  0  0  0  0  0
   -0.7530    0.7360   -0.1330 N   0  0  0  0  0  0  0  0  0  0  0  0
   -1.8070    0.8630   -1.1200 C   0  0  0  0  0  0  0  0  0  0  0  0
   -1.5140   -0.0980   -2.2500 C   0  0  0  0  0  0  0  0  0  0  0  0
   -0.2200    0.1520   -2.7560 O   0  0  0  0  0  0  0  0  0  0  0  0
    0.7100   -0.1660   -1.7310 C   0  0  0  0  0  0  0  0  0  0  0  0
    0.5750    0.9250   -0.6330 C   0  0  1  0  0  0  0  0  0  0  0  0
    0.6700    2.2340   -1.4340 C   0  0  0  0  0  0  0  0  0  0  0  0
    1.9870    2.3570   -1.8840 O   0  0  0  0  0  0  0  0  0  0  0  0
    1.7260    0.9210    0.2790 C   0  0  0  0  0  0  0  0  0  0  0  0
    2.0930   -0.1750    1.0550 N   0  0  0  0  0  0  0  0  0  0  0  0
    2.6260   -1.3510    0.5250 C   0  0  0  0  0  0  0  0  0  0  0  0
    3.9940   -1.2560   -0.0900 C   0  0  0  0  0  0  0  0  0  0  0  0
    5.0600   -0.7990    0.8650 C   0  0  0  0  0  0  0  0  0  0  0  0
    6.6650   -0.7550   -0.1050 P   0  0  0  0  0  0  0  0  0  0  0  0
    7.8620   -1.7690    0.5830 O   0  0  0  0  0  0  0  0  0  0  0  0
    7.1890    0.8440   -0.4100 O   0  0  0  0  0  0  0  0  0  0  0  0
   -3.2940   -0.6240    1.0890 N   0  0  0  0  0  0  0  0  0  0  0  0
   -3.1540   -1.8330    0.3120 C   0  0  0  0  0  0  0  0  0  0  0  0
   -2.2340   -2.6820    0.4220 O   0  0  0  0  0  0  0  0  0  0  0  0
   -4.2580   -1.9530   -0.6590 C   0  0  0  0  0  0  0  0  0  0  0  0
   -5.2290   -0.9010   -0.2430 C   0  0  0  0  0  0  0  0  0  0  0  0
   -4.7120   -0.3130    1.0340 C   0  0  2  0  0  0  0  0  0  0  0  0
  1  2  2  0
  2  3  1  0
  2 30  1  0
  3  4  1  0
  4  5  2  0
  4  6  1  0
  6  7  1  6
  6 25  1  0
  7  8  2  0
  7  9  1  0
  9 10  1  0
  9 14  1  0
 10 11  1  0
 11 12  1  0
 12 13  1  0
 13 14  1  0
 14 15  1  6
 14 17  1  0
 15 16  1  0
 17 18  1  0
 18 19  1  0
 19 20  1  0
 20 21  1  0
 21 22  1  0
 22 23  1  0
 22 24  1  0
 25 26  1  0
 25 30  1  0
 26 27  2  0
 26 28  1  0
 28 29  1  0
 30 29  1  6
M  END
