
     RDKit          3D

 31 33  0  0  0  0  0  0  0  0999 V2000
   -7.2830    1.1320   -0.2650 O   0  0  0  0  0  0  0  0  0  0  0  0
   -6.7940    1.6880   -1.2910 C   0  0  0  0  0  0  0  0  0  0  0  0
   -5.3470    1.8030   -1.3850 C   0  0  0  0  0  0  0  0  0  0  0  0
   -4.5570    1.3440   -0.4320 C   0  0  0  0  0  0  0  0  0  0  0  0
   -3.1280    1.4520   -0.5120 C   0  0  0  0  0  0  0  0  0  0  0  0
   -2.2100    1.0600    0.3130 C   0  0  0  0  0  0  0  0  0  0  0  0
   -2.2880    0.3710    1.5890 C   0  0  0  0  0  0  0  0  0  0  0  0
   -2.9310   -0.7030    1.9280 C   0  0  0  0  0  0  0  0  0  0  0  0
   -3.7730   -1.5830    1.1380 C   0  0  0  0  0  0  0  0  0  0  0  0
   -4.4050   -2.6310    1.6430 N   0  0  0  0  0  0  0  0  0  0  0  0
   -5.1130   -3.2680    0.6900 O   0  0  0  0  0  0  0  0  0  0  0  0
   -5.2450   -2.3300   -0.3900 C   0  0  0  0  0  0  0  0  0  0  0  0
   -4.0930   -1.5670   -0.2000 O   0  0  0  0  0  0  0  0  0  0  0  0
   -1.2970    1.0460    2.4380 N   0  0  0  0  0  0  0  0  0  0  0  0
   -0.6960    2.0610    1.6220 C   0  0  0  0  0  0  0  0  0  0  0  0
   -0.2640    3.1820    1.9430 O   0  0  0  0  0  0  0  0  0  0  0  0
   -0.7200    1.4120    0.2530 C   0  0  1  0  0  0  0  0  0  0  0  0
    0.1450    0.2180    0.2470 C   0  0  0  0  0  0  0  0  0  0  0  0
    0.9770    0.4100   -0.9300 N   0  0  0  0  0  0  0  0  0  0  0  0
    1.9130   -0.5840   -1.3940 C   0  0  0  0  0  0  0  0  0  0  0  0
    3.2300   -0.3640   -0.7590 C   0  0  0  0  0  0  0  0  0  0  0  0
    3.3590    0.5860    0.0420 O   0  0  0  0  0  0  0  0  0  0  0  0
    4.3440   -1.1950   -1.0310 N   0  0  0  0  0  0  0  0  0  0  0  0
    5.6400   -1.0000   -0.4200 C   0  0  0  0  0  0  0  0  0  0  0  0
    5.5320   -1.1280    1.0670 C   0  0  0  0  0  0  0  0  0  0  0  0
    7.2200   -0.8760    1.8120 P   0  0  0  0  0  0  0  0  0  0  0  0
    7.3820    0.8220    2.1750 O   0  0  0  0  0  0  0  0  0  0  0  0
    8.4060   -1.4010    0.6690 O   0  0  0  0  0  0  0  0  0  0  0  0
    0.6740    1.6880   -1.4560 C   0  0  0  0  0  0  0  0  0  0  0  0
    1.3100    2.2250   -2.4110 O   0  0  0  0  0  0  0  0  0  0  0  0
   -0.4090    2.2600   -0.7820 O   0  0  0  0  0  0  0  0  0  0  0  0
  1  2  2  0
  2  3  1  0
  3  4  2  3
  4  5  1  0
  5  6  2  3
  6  7  1  0
  6 17  1  0
  7  8  2  3
  7 14  1  0
  8  9  1  0
  9 10  2  0
  9 13  1  0
 10 11  1  0
 11 12  1  0
 12 13  1  0
 14 15  1  0
 15 16  2  0
 15 17  1  0
 17 18  1  1
 17 31  1  0
 18 19  1  0
 19 20  1  0
 19 29  1  0
 20 21  1  0
 21 22  2  0
 21 23  1  0
 23 24  1  0
 24 25  1  0
 25 26  1  0
 26 27  1  0
 26 28  1  0
 29 30  2  0
 29 31  1  0
M  END
