
     RDKit          3D

 30 32  0  0  0  0  0  0  0  0999 V2000
    0.8720   -3.5070    1.8210 O   0  0  0  0  0  0  0  0  0  0  0  0
    0.2300   -3.2340    0.7770 C   0  0  0  0  0  0  0  0  0  0  0  0
    0.0850   -4.1660   -0.2390 O   0  0  0  0  0  0  0  0  0  0  0  0
   -0.3480   -1.9580    0.6520 N   0  0  0  0  0  0  0  0  0  0  0  0
   -1.5450   -1.6980    0.9860 C   0  0  0  0  0  0  0  0  0  0  0  0
   -2.3300   -2.7720    1.5150 O   0  0  0  0  0  0  0  0  0  0  0  0
   -3.7140   -2.7330    1.6110 C   0  0  0  0  0  0  0  0  0  0  0  0
   -4.3230   -1.4890    1.0450 C   0  0  0  0  0  0  0  0  0  0  0  0
   -3.5040   -0.3190    1.2810 N   0  0  0  0  0  0  0  0  0  0  0  0
   -2.0950   -0.3770    0.8360 C   0  0  0  0  0  0  0  0  0  0  0  0
   -1.5020    0.6740    0.4140 C   0  0  0  0  0  0  0  0  0  0  0  0
   -0.2850    1.1630   -0.0550 C   0  0  0  0  0  0  0  0  0  0  0  0
   -0.3040    2.4790   -0.4160 N   0  0  0  0  0  0  0  0  0  0  0  0
   -1.4880    3.1190   -0.2690 O   0  0  0  0  0  0  0  0  0  0  0  0
   -1.9210    4.1610   -1.1230 C   0  0  0  0  0  0  0  0  0  0  0  0
   -3.2880    4.6160   -0.6370 C   0  0  1  0  0  0  0  0  0  0  0  0
   -3.3400    5.1500    0.8000 C   0  0  0  0  0  0  0  0  0  0  0  0
   -3.5600    6.0430   -0.3870 C   0  0  0  0  0  0  0  0  0  0  0  0
    1.0350    0.6150   -0.2010 C   0  0  1  0  0  0  0  0  0  0  0  0
    1.7440    0.2740    1.1000 C   0  0  0  0  0  0  0  0  0  0  0  0
    2.5100   -0.8460    1.0620 O   0  0  0  0  0  0  0  0  0  0  0  0
    3.7220   -0.7840    0.4560 C   0  0  0  0  0  0  0  0  0  0  0  0
    3.7370   -0.8560   -1.0300 C   0  0  1  0  0  0  0  0  0  0  0  0
    4.7810   -1.8220   -1.5100 C   0  0  0  0  0  0  0  0  0  0  0  0
    4.5710   -3.5340   -0.9370 P   0  0  0  0  0  0  0  0  0  0  0  0
    4.6840   -4.6170   -2.2880 O   0  0  0  0  0  0  0  0  0  0  0  0
    5.8010   -3.9750    0.1900 O   0  0  0  0  0  0  0  0  0  0  0  0
    2.3780   -1.1640   -1.4940 C   0  0  0  0  0  0  0  0  0  0  0  0
    2.1440   -2.1810   -2.1740 O   0  0  0  0  0  0  0  0  0  0  0  0
    1.2240   -0.3810   -1.2390 N   0  0  0  0  0  0  0  0  0  0  0  0
  1  2  2  0
  2  3  1  0
  2  4  1  0
  4  5  2  3
  5  6  1  0
  5 10  1  0
  6  7  1  0
  7  8  1  0
  8  9  1  0
  9 10  1  0
 10 11  2  3
 11 12  1  0
 12 13  2  3
 19 12  1  1
 13 14  1  0
 14 15  1  0
 16 15  1  6
 16 17  1  0
 16 18  1  0
 17 18  1  0
 19 20  1  0
 19 30  1  0
 20 21  1  0
 21 22  1  0
 22 23  1  0
 23 24  1  1
 23 28  1  0
 24 25  1  0
 25 26  1  0
 25 27  1  0
 28 29  2  0
 28 30  1  0
M  END
