
     RDKit          3D

 25 26  0  0  0  0  0  0  0  0999 V2000
   -2.4590    2.6970   -4.0810 N   0  0  0  0  0  0  0  0  0  0  0  0
   -1.3750    1.7940   -4.2140 C   0  0  0  0  0  0  0  0  0  0  0  0
   -0.6210    1.8990   -5.2040 O   0  0  0  0  0  0  0  0  0  0  0  0
   -1.1550    0.7730   -3.2190 C   0  0  0  0  0  0  0  0  0  0  0  0
   -1.9240    0.6320   -2.1610 C   0  0  0  0  0  0  0  0  0  0  0  0
   -3.3960    1.8120   -1.9090 Br  0  0  0  0  0  0  0  0  0  0  0  0
   -1.6990   -0.4090   -1.1460 C   0  0  0  0  0  0  0  0  0  0  0  0
   -2.4810   -0.5180   -0.1010 C   0  0  0  0  0  0  0  0  0  0  0  0
   -2.4820   -1.4170    1.0110 C   0  0  0  0  0  0  0  0  0  0  0  0
   -1.7760   -1.3800    2.1500 C   0  0  0  0  0  0  0  0  0  0  0  0
   -0.8110   -0.4270    2.5890 C   0  0  0  0  0  0  0  0  0  0  0  0
    0.4680   -0.2590    2.3350 C   0  0  0  0  0  0  0  0  0  0  0  0
    1.1770    0.8200    2.9410 O   0  0  0  0  0  0  0  0  0  0  0  0
    1.9800    1.6340    2.1150 C   0  0  0  0  0  0  0  0  0  0  0  0
    3.2650    1.8790    2.3230 C   0  0  0  0  0  0  0  0  0  0  0  0
    3.7540    2.7610    1.2600 C   0  0  0  0  0  0  0  0  0  0  0  0
    2.5770    2.9890    0.4140 C   0  0  0  0  0  0  0  0  0  0  0  0
    1.5470    2.3360    0.9100 C   0  0  0  0  0  0  0  0  0  0  0  0
    1.3180   -1.0860    1.4550 C   0  0  0  0  0  0  0  0  0  0  0  0
    1.1130   -2.4680    1.7070 O   0  0  0  0  0  0  0  0  0  0  0  0
    0.4380   -3.3480    0.8980 C   0  0  0  0  0  0  0  0  0  0  0  0
   -0.3320   -4.2660    1.3110 O   0  0  0  0  0  0  0  0  0  0  0  0
    0.5950   -3.2510   -0.5820 C   0  0  0  0  0  0  0  0  0  0  0  0
   -0.6670   -2.6800   -1.2130 C   0  0  0  0  0  0  0  0  0  0  0  0
   -0.5940   -1.2710   -1.3800 O   0  0  0  0  0  0  0  0  0  0  0  0
  1  2  1  0
  2  3  2  0
  2  4  1  0
  4  5  2  3
  5  6  1  0
  5  7  1  0
  7  8  2  0
  7 25  1  0
  8  9  1  0
  9 10  2  0
 10 11  1  0
 11 12  2  0
 12 13  1  0
 12 19  1  0
 13 14  1  0
 14 15  2  0
 14 18  1  0
 15 16  1  0
 16 17  1  0
 17 18  2  0
 19 20  1  0
 20 21  1  0
 21 22  2  0
 21 23  1  0
 23 24  1  0
 24 25  1  0
M  END
