
     RDKit          3D

 25 27  0  0  0  0  0  0  0  0999 V2000
   -0.1040    0.4910   -2.3030 C   0  0  0  0  0  0  0  0  0  0  0  0
    0.6670    1.5130   -1.7530 O   0  0  0  0  0  0  0  0  0  0  0  0
    0.3460    1.7190   -0.4030 C   0  0  0  0  0  0  0  0  0  0  0  0
    0.5780    0.5040    0.4020 C   0  0  0  0  0  0  0  0  0  0  0  0
   -0.4080   -0.0550    1.0570 C   0  0  0  0  0  0  0  0  0  0  0  0
   -1.7860    0.4230    1.0730 C   0  0  2  0  0  0  0  0  0  0  0  0
   -2.2800    0.5410    2.9800 Br  0  0  0  0  0  0  0  0  0  0  0  0
   -2.7510   -0.5540    0.5050 C   0  0  0  0  0  0  0  0  0  0  0  0
   -2.4250   -1.6750    0.0560 O   0  0  0  0  0  0  0  0  0  0  0  0
   -4.1130   -0.1610    0.4860 N   0  0  0  0  0  0  0  0  0  0  0  0
   -5.1720   -0.9960   -0.0320 C   0  0  2  0  0  0  0  0  0  0  0  0
   -6.1540   -0.2550   -0.9330 C   0  0  0  0  0  0  0  0  0  0  0  0
   -6.5760   -0.7770    0.4050 C   0  0  0  0  0  0  0  0  0  0  0  0
   -0.0760   -1.2730    1.8390 C   0  0  0  0  0  0  0  0  0  0  0  0
   -1.0440   -1.8120    2.4720 O   0  0  0  0  0  0  0  0  0  0  0  0
    1.1870   -1.7550    1.8570 O   0  0  0  0  0  0  0  0  0  0  0  0
    2.2150   -1.3620    0.9970 C   0  0  0  0  0  0  0  0  0  0  0  0
    1.9710   -0.0390    0.3920 C   0  0  0  0  0  0  0  0  0  0  0  0
    2.9530    0.6710   -0.1290 C   0  0  0  0  0  0  0  0  0  0  0  0
    4.3280    0.3330   -0.2390 C   0  0  0  0  0  0  0  0  0  0  0  0
    5.2570    1.1620   -0.7740 C   0  0  0  0  0  0  0  0  0  0  0  0
    6.5240    0.4510   -0.6960 C   0  0  0  0  0  0  0  0  0  0  0  0
    7.6390    0.7100   -1.4280 O   0  0  0  0  0  0  0  0  0  0  0  0
    6.2930   -0.4730    0.2420 C   0  0  0  0  0  0  0  0  0  0  0  0
    5.0160   -0.8940    0.0920 C   0  0  0  0  0  0  0  0  0  0  0  0
  1  2  1  0
  2  3  1  0
  3  4  1  0
  4  5  2  0
  4 18  1  0
  5  6  1  0
  5 14  1  0
  6  7  1  1
  6  8  1  0
  8  9  2  0
  8 10  1  0
 11 10  1  1
 11 12  1  0
 11 13  1  0
 12 13  1  0
 14 15  2  0
 14 16  1  0
 16 17  1  0
 17 18  1  0
 18 19  2  3
 19 20  1  0
 20 21  2  0
 20 25  1  0
 21 22  1  0
 22 23  1  0
 22 24  2  0
 24 25  2  0
M  END
