
     RDKit          3D

 23 25  0  0  0  0  0  0  0  0999 V2000
    5.3220   -2.3350   -1.0000 C   0  0  0  0  0  0  0  0  0  0  0  0
    4.6660   -1.0660   -0.6350 C   0  0  0  0  0  0  0  0  0  0  0  0
    3.3370   -1.0680   -0.2200 C   0  0  0  0  0  0  0  0  0  0  0  0
    2.6760    0.0690    0.1280 C   0  0  0  0  0  0  0  0  0  0  0  0
    1.3520   -0.0070    0.5310 O   0  0  0  0  0  0  0  0  0  0  0  0
    0.6290   -1.1990    0.6110 C   0  0  0  0  0  0  0  0  0  0  0  0
   -0.7540   -0.8900    1.0690 C   0  0  0  0  0  0  0  0  0  0  0  0
   -1.6040   -1.8080    1.2770 O   0  0  0  0  0  0  0  0  0  0  0  0
   -1.1490    0.4540    1.2840 N   0  0  0  0  0  0  0  0  0  0  0  0
   -2.4150    0.7920    1.7040 N   0  0  0  0  0  0  0  0  0  0  0  0
   -3.6120    0.5720    0.9700 C   0  0  0  0  0  0  0  0  0  0  0  0
   -3.5610   -0.0060   -0.2800 C   0  0  0  0  0  0  0  0  0  0  0  0
   -4.7330   -0.2190   -0.9740 C   0  0  0  0  0  0  0  0  0  0  0  0
   -5.9220    0.1560   -0.3920 C   0  0  0  0  0  0  0  0  0  0  0  0
   -7.2070   -0.0750   -1.1410 C   0  0  0  0  0  0  0  0  0  0  0  0
   -5.9570    0.7180    0.8260 N   0  0  0  0  0  0  0  0  0  0  0  0
   -4.8170    0.9050    1.4580 N   0  0  0  0  0  0  0  0  0  0  0  0
    3.3400    1.3050    0.0760 C   0  0  0  0  0  0  0  0  0  0  0  0
    4.6490    1.2960   -0.3330 C   0  0  0  0  0  0  0  0  0  0  0  0
    5.3070    0.1650   -0.6800 C   0  0  0  0  0  0  0  0  0  0  0  0
    5.1050    3.0190   -0.2350 S   0  0  0  0  0  0  0  0  0  0  0  0
    3.8100    3.4750    0.8550 O   0  0  0  0  0  0  0  0  0  0  0  0
    2.8170    2.6290    0.3890 C   0  0  0  0  0  0  0  0  0  0  0  0
  1  2  1  0
  2  3  2  0
  2 20  1  0
  3  4  1  0
  4  5  1  0
  4 18  2  0
  5  6  1  0
  6  7  1  0
  7  8  2  0
  7  9  1  0
  9 10  1  0
 10 11  1  0
 11 12  2  0
 11 17  1  0
 12 13  1  0
 13 14  2  0
 14 15  1  0
 14 16  1  0
 16 17  2  0
 18 19  1  0
 18 23  1  0
 19 20  2  0
 19 21  1  0
 21 22  1  0
 22 23  1  0
M  END
