
     RDKit          3D

 22 24  0  0  0  0  0  0  0  0999 V2000
   -2.1030   -3.5780    1.2920 C   0  0  0  0  0  0  0  0  0  0  0  0
   -1.1340   -2.5430    0.2030 S   0  0  0  0  0  0  0  0  0  0  0  0
   -1.7690   -0.8730    0.1530 C   0  0  0  0  0  0  0  0  0  0  0  0
   -2.8520   -0.3910    0.8320 N   0  0  0  0  0  0  0  0  0  0  0  0
   -3.0460    0.9060    0.5590 C   0  0  0  0  0  0  0  0  0  0  0  0
   -3.9310    1.8520    0.9340 N   0  0  0  0  0  0  0  0  0  0  0  0
   -3.8880    3.1190    0.4870 C   0  0  0  0  0  0  0  0  0  0  0  0
   -2.9070    3.5310   -0.4060 C   0  0  0  0  0  0  0  0  0  0  0  0
   -2.0000    2.5780   -0.7950 C   0  0  0  0  0  0  0  0  0  0  0  0
   -2.0580    1.2840   -0.3280 C   0  0  0  0  0  0  0  0  0  0  0  0
   -1.3060    0.1650   -0.5430 N   0  0  0  0  0  0  0  0  0  0  0  0
   -0.1540    0.2240   -1.4540 C   0  0  0  0  0  0  0  0  0  0  0  0
    1.0710    0.6040   -0.7310 C   0  0  0  0  0  0  0  0  0  0  0  0
    1.1460    1.8110   -0.3810 O   0  0  0  0  0  0  0  0  0  0  0  0
    2.1600   -0.2880   -0.4080 C   0  0  0  0  0  0  0  0  0  0  0  0
    2.1470   -1.6270   -0.8030 C   0  0  0  0  0  0  0  0  0  0  0  0
    3.1860   -2.4920   -0.5180 C   0  0  0  0  0  0  0  0  0  0  0  0
    4.2450   -2.0490    0.1540 N   0  0  0  0  0  0  0  0  0  0  0  0
    4.3290   -0.8000    0.5590 C   0  0  0  0  0  0  0  0  0  0  0  0
    5.4420   -0.3490    1.2620 O   0  0  0  0  0  0  0  0  0  0  0  0
    3.2930    0.1170    0.2920 C   0  0  0  0  0  0  0  0  0  0  0  0
    3.4190    1.3960    0.7270 O   0  0  0  0  0  0  0  0  0  0  0  0
  1  2  1  0
  2  3  1  0
  3  4  2  0
  3 11  1  0
  4  5  1  0
  5  6  2  0
  5 10  1  0
  6  7  1  0
  7  8  2  0
  8  9  1  0
  9 10  2  0
 10 11  1  0
 11 12  1  0
 12 13  1  0
 13 14  2  0
 13 15  1  0
 15 16  2  0
 15 21  1  0
 16 17  1  0
 17 18  2  0
 18 19  1  0
 19 20  1  0
 19 21  2  0
 21 22  1  0
M  END
