
     RDKit          3D

 23 25  0  0  0  0  0  0  0  0999 V2000
    6.9580    0.6680    0.7870 C   0  0  0  0  0  0  0  0  0  0  0  0
    5.4890    0.9960    0.7550 C   0  0  0  0  0  0  0  0  0  0  0  0
    4.7010   -0.1800    0.3870 N   0  0  0  0  0  0  0  0  0  0  0  0
    3.2890   -0.0620    0.3050 C   0  0  0  0  0  0  0  0  0  0  0  0
    2.7790    1.0660    0.5560 O   0  0  0  0  0  0  0  0  0  0  0  0
    2.4290   -1.1880   -0.0550 C   0  0  0  0  0  0  0  0  0  0  0  0
    2.8460   -2.3970   -0.3350 O   0  0  0  0  0  0  0  0  0  0  0  0
    1.8250   -3.1810   -0.6200 C   0  0  0  0  0  0  0  0  0  0  0  0
    0.6660   -2.4080   -0.5120 C   0  0  0  0  0  0  0  0  0  0  0  0
    1.0550   -1.1510   -0.1550 C   0  0  0  0  0  0  0  0  0  0  0  0
    0.1870    0.0100    0.0750 C   0  0  0  0  0  0  0  0  0  0  0  0
   -1.2280   -0.3250   -0.1250 N   0  0  0  0  0  0  0  0  0  0  0  0
   -2.2110    0.6680    0.0500 C   0  0  0  0  0  0  0  0  0  0  0  0
   -1.8010    1.8440    0.3750 O   0  0  0  0  0  0  0  0  0  0  0  0
   -3.6450    0.4990   -0.1050 C   0  0  0  0  0  0  0  0  0  0  0  0
   -4.2870   -0.7050   -0.1610 C   0  0  0  0  0  0  0  0  0  0  0  0
   -3.7660   -2.1090   -0.0300 C   0  0  0  0  0  0  0  0  0  0  0  0
   -5.6150   -0.4220   -0.3520 N   0  0  0  0  0  0  0  0  0  0  0  0
   -5.7250    0.8980   -0.4020 C   0  0  0  0  0  0  0  0  0  0  0  0
   -6.9230    2.2640   -0.6040 S   0  0  0  0  0  0  0  0  0  0  0  0
   -5.6310    3.6040   -0.4610 C   0  0  0  0  0  0  0  0  0  0  0  0
   -4.5210    2.8340   -0.2870 C   0  0  0  0  0  0  0  0  0  0  0  0
   -4.5680    1.5300   -0.2590 N   0  0  0  0  0  0  0  0  0  0  0  0
  1  2  1  0
  2  3  1  0
  3  4  1  0
  4  5  2  0
  4  6  1  0
  6  7  1  0
  6 10  2  0
  7  8  1  0
  8  9  2  0
  9 10  1  0
 10 11  1  0
 11 12  1  0
 12 13  1  0
 13 14  2  0
 13 15  1  0
 15 16  2  0
 15 23  1  0
 16 17  1  0
 16 18  1  0
 18 19  2  0
 19 20  1  0
 19 23  1  0
 20 21  1  0
 21 22  2  0
 22 23  1  0
M  END
