
     RDKit          3D

 23 25  0  0  0  0  0  0  0  0999 V2000
    5.7600   -0.9720    0.3070 C   0  0  0  0  0  0  0  0  0  0  0  0
    4.8050   -0.0680    0.1390 C   0  0  0  0  0  0  0  0  0  0  0  0
    5.1160    1.1400   -0.6700 C   0  0  0  0  0  0  0  0  0  0  0  0
    4.8990    2.6070    0.3440 S   0  0  0  0  0  0  0  0  0  0  0  0
    3.4550   -0.2400    0.7340 C   0  0  0  0  0  0  0  0  0  0  0  0
    2.4720   -0.2640   -0.2820 O   0  0  0  0  0  0  0  0  0  0  0  0
    1.1320   -0.4110   -0.0330 C   0  0  0  0  0  0  0  0  0  0  0  0
    0.6530   -0.5470    1.2560 C   0  0  0  0  0  0  0  0  0  0  0  0
   -0.6920   -0.6910    1.4460 C   0  0  0  0  0  0  0  0  0  0  0  0
   -1.5920   -0.7040    0.4000 C   0  0  0  0  0  0  0  0  0  0  0  0
   -2.9800   -0.8570    0.6650 N   0  0  0  0  0  0  0  0  0  0  0  0
   -3.6790   -1.9430    0.9250 N   0  0  0  0  0  0  0  0  0  0  0  0
   -4.9670   -1.6650    1.1180 C   0  0  0  0  0  0  0  0  0  0  0  0
   -5.1130   -0.2890    0.9710 C   0  0  0  0  0  0  0  0  0  0  0  0
   -5.9610    0.7540    0.9900 N   0  0  0  0  0  0  0  0  0  0  0  0
   -5.2750    1.8820    0.7270 C   0  0  0  0  0  0  0  0  0  0  0  0
   -5.7340    3.0700    0.6590 O   0  0  0  0  0  0  0  0  0  0  0  0
   -3.9930    1.5200    0.5460 N   0  0  0  0  0  0  0  0  0  0  0  0
   -3.8490    0.1830    0.6880 C   0  0  0  0  0  0  0  0  0  0  0  0
   -1.0870   -0.5660   -0.8740 C   0  0  0  0  0  0  0  0  0  0  0  0
    0.2630   -0.4180   -1.1190 C   0  0  0  0  0  0  0  0  0  0  0  0
    0.7230   -0.2820   -2.4200 O   0  0  0  0  0  0  0  0  0  0  0  0
   -0.1760   -0.2940   -3.4890 C   0  0  0  0  0  0  0  0  0  0  0  0
  1  2  2  0
  2  3  1  0
  2  5  1  0
  3  4  1  0
  5  6  1  0
  6  7  1  0
  7  8  2  0
  7 21  1  0
  8  9  1  0
  9 10  2  0
 10 11  1  0
 10 20  1  0
 11 12  1  0
 11 19  1  0
 12 13  2  0
 13 14  1  0
 14 15  1  0
 14 19  2  0
 15 16  1  0
 16 17  2  0
 16 18  1  0
 18 19  1  0
 20 21  2  0
 21 22  1  0
 22 23  1  0
M  END
