
     RDKit          3D

 23 25  0  0  0  0  0  0  0  0999 V2000
    6.6610    1.0690    0.2200 C   0  0  0  0  0  0  0  0  0  0  0  0
    5.7140    0.0700   -0.1240 O   0  0  0  0  0  0  0  0  0  0  0  0
    4.3440    0.2640    0.0040 C   0  0  0  0  0  0  0  0  0  0  0  0
    3.5420   -0.7880   -0.3660 C   0  0  0  0  0  0  0  0  0  0  0  0
    2.1510   -0.6800   -0.2700 C   0  0  0  0  0  0  0  0  0  0  0  0
    1.3420   -1.8030   -0.6670 C   0  0  0  0  0  0  0  0  0  0  0  0
    1.9370   -2.8560   -1.0910 O   0  0  0  0  0  0  0  0  0  0  0  0
   -0.0540   -1.8190   -0.6180 N   0  0  0  0  0  0  0  0  0  0  0  0
   -0.8520   -3.0000   -1.0370 C   0  0  0  0  0  0  0  0  0  0  0  0
   -2.2030   -2.3420   -1.2590 C   0  0  0  0  0  0  0  0  0  0  0  0
   -2.1220   -1.0500   -0.5270 C   0  0  0  0  0  0  0  0  0  0  0  0
   -3.2900   -0.2170   -0.2520 C   0  0  0  0  0  0  0  0  0  0  0  0
   -3.3900    0.9660    0.3920 C   0  0  0  0  0  0  0  0  0  0  0  0
   -4.6010    1.5370    0.5140 C   0  0  0  0  0  0  0  0  0  0  0  0
   -5.6810    0.8900   -0.0230 C   0  0  0  0  0  0  0  0  0  0  0  0
   -7.1040    1.2490   -0.0540 C   0  0  0  0  0  0  0  0  0  0  0  0
   -7.8840    0.4530   -0.6250 O   0  0  0  0  0  0  0  0  0  0  0  0
   -4.9590   -0.5900   -0.7320 S   0  0  0  0  0  0  0  0  0  0  0  0
   -0.9170   -0.8280   -0.2070 N   0  0  0  0  0  0  0  0  0  0  0  0
    1.6940    0.5220    0.2050 C   0  0  0  0  0  0  0  0  0  0  0  0
    2.5360    1.5800    0.5750 C   0  0  0  0  0  0  0  0  0  0  0  0
    1.9500    2.7760    1.0540 N   0  0  0  0  0  0  0  0  0  0  0  0
    3.8630    1.4240    0.4640 N   0  0  0  0  0  0  0  0  0  0  0  0
  1  2  1  0
  2  3  1  0
  3  4  2  0
  3 23  1  0
  4  5  1  0
  5  6  1  0
  5 20  2  0
  6  7  2  0
  6  8  1  0
  8  9  1  0
  8 19  1  0
  9 10  1  0
 10 11  1  0
 11 12  1  0
 11 19  2  0
 12 13  2  0
 12 18  1  0
 13 14  1  0
 14 15  2  0
 15 16  1  0
 15 18  1  0
 16 17  2  0
 20 21  1  0
 21 22  1  0
 21 23  2  0
M  END
