
     RDKit          3D

 26 27  0  0  0  0  0  0  0  0999 V2000
   -0.3780    1.4180   -1.8700 C   0  0  0  0  0  0  0  0  0  0  0  0
   -0.7350    0.0270   -1.6720 N   0  0  0  0  0  0  0  0  0  0  0  0
   -1.6060   -0.2960   -0.6150 C   0  0  0  0  0  0  0  0  0  0  0  0
   -2.9740   -0.2930   -0.8990 C   0  0  0  0  0  0  0  0  0  0  0  0
   -3.4500    0.0060   -2.1280 F   0  0  0  0  0  0  0  0  0  0  0  0
   -3.8600   -0.6040    0.1000 C   0  0  0  0  0  0  0  0  0  0  0  0
   -5.5620   -0.6050   -0.2390 S   0  0  2  0  0  0  0  0  0  0  0  0
   -6.0550   -2.1570   -0.7640 N   0  0  0  0  0  0  0  0  0  0  0  0
   -5.8610    0.3700   -1.3500 O   0  0  0  0  0  0  0  0  0  0  0  0
   -6.2780   -0.1680    1.0120 O   0  0  0  0  0  0  0  0  0  0  0  0
   -3.3710   -0.9090    1.3540 C   0  0  0  0  0  0  0  0  0  0  0  0
   -4.2330   -1.2250    2.3750 F   0  0  0  0  0  0  0  0  0  0  0  0
   -2.0160   -0.9160    1.6500 C   0  0  0  0  0  0  0  0  0  0  0  0
   -1.6020   -1.2280    2.9140 F   0  0  0  0  0  0  0  0  0  0  0  0
   -1.1350   -0.6020    0.6380 C   0  0  0  0  0  0  0  0  0  0  0  0
    0.5600   -0.5990    0.9700 S   0  0  2  0  0  0  0  0  0  0  0  0
    1.2890   -1.0070   -0.2990 O   0  0  0  0  0  0  0  0  0  0  0  0
    0.9060   -1.6230    2.0110 O   0  0  0  0  0  0  0  0  0  0  0  0
    1.1390    0.9770    1.5310 C   0  0  0  0  0  0  0  0  0  0  0  0
    2.6150    1.0010    1.8370 C   0  0  0  0  0  0  0  0  0  0  0  0
    3.4910    0.6770    0.7170 C   0  0  0  0  0  0  0  0  0  0  0  0
    3.8830   -0.6240    0.5090 C   0  0  0  0  0  0  0  0  0  0  0  0
    4.7160   -0.8820   -0.5720 C   0  0  0  0  0  0  0  0  0  0  0  0
    5.1590    0.0930   -1.4300 C   0  0  0  0  0  0  0  0  0  0  0  0
    4.7610    1.3890   -1.2120 C   0  0  0  0  0  0  0  0  0  0  0  0
    3.9210    1.6740   -0.1290 C   0  0  0  0  0  0  0  0  0  0  0  0
  1  2  1  0
  2  3  1  0
  3  4  2  0
  3 15  1  0
  4  5  1  0
  4  6  1  0
  6  7  1  0
  6 11  2  0
  7  8  1  6
  7  9  2  0
  7 10  2  0
 11 12  1  0
 11 13  1  0
 13 14  1  0
 13 15  2  0
 15 16  1  0
 16 17  2  0
 16 18  2  0
 16 19  1  1
 19 20  1  0
 20 21  1  0
 21 22  2  0
 21 26  1  0
 22 23  1  0
 23 24  2  0
 24 25  1  0
 25 26  2  0
M  END
