
     RDKit          3D

 21 23  0  0  0  0  0  0  0  0999 V2000
   -1.4120   -3.4470   -0.2430 C   0  0  0  0  0  0  0  0  0  0  0  0
   -1.1560   -1.9800   -0.2200 C   0  0  0  0  0  0  0  0  0  0  0  0
    0.1080   -1.5610    0.0510 C   0  0  0  0  0  0  0  0  0  0  0  0
    1.2080   -2.5480    0.3200 C   0  0  0  0  0  0  0  0  0  0  0  0
    0.3650   -0.1930    0.0760 C   0  0  0  0  0  0  0  0  0  0  0  0
    1.6740    0.1860    0.3600 O   0  0  0  0  0  0  0  0  0  0  0  0
    2.6870    0.3580   -0.5900 C   0  0  0  0  0  0  0  0  0  0  0  0
    3.9230    0.7700    0.1660 C   0  0  0  0  0  0  0  0  0  0  0  0
    4.8970   -0.0540    0.7000 C   0  0  0  0  0  0  0  0  0  0  0  0
    5.8180    0.7570    1.2910 C   0  0  0  0  0  0  0  0  0  0  0  0
    5.3930    2.0420    1.1080 C   0  0  0  0  0  0  0  0  0  0  0  0
    4.2710    1.9970    0.4390 O   0  0  0  0  0  0  0  0  0  0  0  0
   -0.6530    0.6890   -0.1710 C   0  0  0  0  0  0  0  0  0  0  0  0
   -1.9570    0.2700   -0.4520 C   0  0  0  0  0  0  0  0  0  0  0  0
   -2.2020   -1.0770   -0.4750 C   0  0  0  0  0  0  0  0  0  0  0  0
   -3.5180   -1.6710   -0.7550 C   0  0  0  0  0  0  0  0  0  0  0  0
   -3.0240    1.2440   -0.7140 C   0  0  1  0  0  0  0  0  0  0  0  0
   -3.8080    1.5840    0.5490 C   0  0  0  0  0  0  0  0  0  0  0  0
   -2.5140    2.5250   -1.2440 C   0  0  0  0  0  0  0  0  0  0  0  0
   -1.3010    2.9430   -0.9820 C   0  0  0  0  0  0  0  0  0  0  0  0
   -0.3990    2.1310   -0.1360 C   0  0  0  0  0  0  0  0  0  0  0  0
  1  2  1  0
  2  3  2  0
  2 15  1  0
  3  4  1  0
  3  5  1  0
  5  6  1  0
  5 13  2  0
  6  7  1  0
  7  8  1  0
  8  9  2  0
  8 12  1  0
  9 10  1  0
 10 11  2  0
 11 12  1  0
 13 14  1  0
 13 21  1  0
 14 15  2  0
 14 17  1  0
 15 16  1  0
 17 18  1  1
 17 19  1  0
 19 20  2  0
 20 21  1  0
M  END
