
     RDKit          3D

 20 21  0  0  0  0  0  0  0  0999 V2000
    5.6880   -1.1630    0.7750 C   0  0  0  0  0  0  0  0  0  0  0  0
    5.7230   -0.1030   -0.3060 C   0  0  0  0  0  0  0  0  0  0  0  0
    4.5290    0.8440   -0.1960 C   0  0  0  0  0  0  0  0  0  0  0  0
    3.2380    0.0470   -0.3390 C   0  0  0  0  0  0  0  0  0  0  0  0
    2.1030    1.0150   -0.2250 C   0  0  0  0  0  0  0  0  0  0  0  0
    0.8580    0.4030   -0.3410 O   0  0  0  0  0  0  0  0  0  0  0  0
   -0.2870    1.6480   -0.1870 S   0  0  1  0  0  0  0  0  0  0  0  0
   -0.1480    2.1480    1.2440 O   0  0  0  0  0  0  0  0  0  0  0  0
    0.1430    2.7430   -1.1170 O   0  0  0  0  0  0  0  0  0  0  0  0
   -1.8840    1.1130   -0.5230 C   0  0  0  0  0  0  0  0  0  0  0  0
   -2.7530    1.5550   -1.4910 C   0  0  0  0  0  0  0  0  0  0  0  0
   -3.9050    0.8660   -1.4090 N   0  0  0  0  0  0  0  0  0  0  0  0
   -3.8210   -0.0400   -0.3920 C   0  0  0  0  0  0  0  0  0  0  0  0
   -4.7280   -0.9750    0.0920 C   0  0  0  0  0  0  0  0  0  0  0  0
   -6.0680   -1.1120   -0.5240 C   0  0  0  0  0  0  0  0  0  0  0  0
   -4.3740   -1.7590    1.1320 N   0  0  0  0  0  0  0  0  0  0  0  0
   -5.2750   -2.6800    1.6050 O   0  0  0  0  0  0  0  0  0  0  0  0
   -3.1420   -1.6130    1.6770 C   0  0  0  0  0  0  0  0  0  0  0  0
   -2.2250   -0.7010    1.2230 C   0  0  0  0  0  0  0  0  0  0  0  0
   -2.5690    0.1080    0.1620 C   0  0  0  0  0  0  0  0  0  0  0  0
  1  2  1  0
  2  3  1  0
  3  4  1  0
  4  5  1  0
  5  6  1  0
  7  6  1  1
  7  8  2  0
  7  9  2  0
  7 10  1  0
 10 11  2  0
 10 20  1  0
 11 12  1  0
 12 13  1  0
 13 14  2  0
 13 20  1  0
 14 15  1  0
 14 16  1  0
 16 17  1  0
 16 18  2  0
 18 19  1  0
 19 20  2  0
M  CHG  2  16   1  17  -1
M  END
