
     RDKit          3D

 19 20  0  0  0  0  0  0  0  0999 V2000
    1.4500    2.0610   -0.6650 O   0  0  0  0  0  0  0  0  0  0  0  0
    0.8430    1.1640   -0.0610 C   0  0  0  0  0  0  0  0  0  0  0  0
   -0.6640    1.2400    0.1210 C   0  0  0  0  0  0  0  0  0  0  0  0
   -1.4460    0.0300   -0.9490 S   0  0  0  0  0  0  0  0  0  0  0  0
   -3.2110    0.0240   -0.6260 C   0  0  0  0  0  0  0  0  0  0  0  0
   -3.7460    0.8800    0.3280 C   0  0  0  0  0  0  0  0  0  0  0  0
   -5.1010    0.8260    0.5450 C   0  0  0  0  0  0  0  0  0  0  0  0
   -5.9450   -0.0330   -0.1360 C   0  0  0  0  0  0  0  0  0  0  0  0
   -5.3920   -0.8690   -1.0750 C   0  0  0  0  0  0  0  0  0  0  0  0
   -4.0350   -0.8320   -1.3090 C   0  0  0  0  0  0  0  0  0  0  0  0
    1.5620    0.0710    0.4540 N   0  0  0  0  0  0  0  0  0  0  0  0
    2.9490   -0.1590    0.3840 C   0  0  0  0  0  0  0  0  0  0  0  0
    3.8350    0.7320   -0.1480 C   0  0  0  0  0  0  0  0  0  0  0  0
    5.2170    0.5090   -0.2000 C   0  0  0  0  0  0  0  0  0  0  0  0
    6.0650    1.4840   -0.7700 O   0  0  0  0  0  0  0  0  0  0  0  0
    5.6570   -0.6420    0.3060 N   0  0  0  0  0  0  0  0  0  0  0  0
    4.8350   -1.5480    0.8390 C   0  0  0  0  0  0  0  0  0  0  0  0
    3.4790   -1.3550    0.9030 C   0  0  0  0  0  0  0  0  0  0  0  0
    2.6700   -2.3000    1.4510 O   0  0  0  0  0  0  0  0  0  0  0  0
  1  2  2  0
  2  3  1  0
  2 11  1  0
  3  4  1  0
  4  5  1  0
  5  6  2  0
  5 10  1  0
  6  7  1  0
  7  8  2  0
  8  9  1  0
  9 10  2  0
 11 12  1  0
 12 13  2  0
 12 18  1  0
 13 14  1  0
 14 15  1  0
 14 16  2  0
 16 17  1  0
 17 18  2  0
 18 19  1  0
M  CHG  2  15  -1  16   1
M  END
