
     RDKit          3D

 21 23  0  0  0  0  0  0  0  0999 V2000
    0.2890    2.5980   -1.1300 C   0  0  0  0  0  0  0  0  0  0  0  0
   -0.3700    1.4720   -0.4090 C   0  0  0  0  0  0  0  0  0  0  0  0
   -1.5910    1.7230    0.0560 C   0  0  0  0  0  0  0  0  0  0  0  0
   -2.5010    2.8980    0.0340 C   0  0  0  0  0  0  0  0  0  0  0  0
   -2.0700    4.0710   -0.0350 O   0  0  0  0  0  0  0  0  0  0  0  0
   -3.8800    2.3560    0.1090 C   0  0  0  0  0  0  0  0  0  0  0  0
   -3.6960    0.8550    0.0720 C   0  0  0  0  0  0  0  0  0  0  0  0
   -2.3620    0.6930    0.7710 C   0  0  1  0  0  0  0  0  0  0  0  0
   -1.7730   -0.6260    0.7340 C   0  0  0  0  0  0  0  0  0  0  0  0
   -0.5870   -0.9150    0.2880 C   0  0  0  0  0  0  0  0  0  0  0  0
    0.0020   -2.2620    0.2660 C   0  0  0  0  0  0  0  0  0  0  0  0
   -0.8710   -3.3700    0.7500 C   0  0  0  0  0  0  0  0  0  0  0  0
   -2.3360   -3.0810    0.6420 C   0  0  0  0  0  0  0  0  0  0  0  0
   -2.5880   -1.7620    1.2550 C   0  0  0  0  0  0  0  0  0  0  0  0
   -3.4400   -1.5680    2.1730 O   0  0  0  0  0  0  0  0  0  0  0  0
    0.2490    0.1730   -0.3440 C   0  0  0  0  0  0  0  0  0  0  0  0
    1.4720   -0.1080   -0.6700 C   0  0  0  0  0  0  0  0  0  0  0  0
    2.5270    0.7640   -1.1570 C   0  0  0  0  0  0  0  0  0  0  0  0
    3.8900    0.3340   -0.5200 C   0  0  1  0  0  0  0  0  0  0  0  0
    3.7420    0.4620    0.9780 C   0  0  0  0  0  0  0  0  0  0  0  0
    4.3020   -1.0220   -0.9680 C   0  0  0  0  0  0  0  0  0  0  0  0
  1  2  1  0
  2  3  2  0
  2 16  1  0
  3  4  1  0
  3  8  1  0
  4  5  2  0
  4  6  1  0
  6  7  1  0
  8  7  1  6
  8  9  1  0
  9 10  2  0
  9 14  1  0
 10 11  1  0
 10 16  1  0
 11 12  1  0
 12 13  1  0
 13 14  1  0
 14 15  2  0
 16 17  2  3
 17 18  1  0
 18 19  1  0
 19 20  1  1
 19 21  1  0
M  END
