
     RDKit          3D

 25 26  0  0  0  0  0  0  0  0999 V2000
   -2.7860   -0.8510    1.2930 N   0  0  0  0  0  0  0  0  0  0  0  0
   -2.8260    0.3450    0.4150 C   0  0  0  0  0  0  0  0  0  0  0  0
   -4.0890    1.0340    0.4570 C   0  0  0  0  0  0  0  0  0  0  0  0
   -5.0960    0.6110    1.2500 C   0  0  0  0  0  0  0  0  0  0  0  0
   -6.2510    1.4540    1.1190 C   0  0  0  0  0  0  0  0  0  0  0  0
   -7.4500    1.3070    1.7830 F   0  0  0  0  0  0  0  0  0  0  0  0
   -6.0080    2.3950    0.2710 C   0  0  0  0  0  0  0  0  0  0  0  0
   -4.6120    2.2270   -0.2330 C   0  0  0  0  0  0  0  0  0  0  0  0
   -1.7180    0.5080   -0.2260 C   0  0  0  0  0  0  0  0  0  0  0  0
   -0.6660   -0.4970    0.0330 C   0  0  0  0  0  0  0  0  0  0  0  0
    0.5120   -0.7200   -0.3580 C   0  0  0  0  0  0  0  0  0  0  0  0
    1.4400   -0.1010   -1.2680 C   0  0  0  0  0  0  0  0  0  0  0  0
    2.5850   -1.0420   -1.6820 C   0  0  0  0  0  0  0  0  0  0  0  0
    3.3740   -1.5170   -0.5130 C   0  0  1  0  0  0  0  0  0  0  0  0
    4.4420   -0.5640   -0.2740 N   0  0  0  0  0  0  0  0  0  0  0  0
    5.8030   -0.8940   -0.2310 C   0  0  0  0  0  0  0  0  0  0  0  0
    6.1600   -2.0740   -0.4040 O   0  0  0  0  0  0  0  0  0  0  0  0
    7.0590    0.3360    0.0690 S   0  0  0  0  0  0  0  0  0  0  0  0
    8.4320   -0.2730    0.1030 O   0  0  0  0  0  0  0  0  0  0  0  0
    2.5030   -1.4980    0.7530 C   0  0  0  0  0  0  0  0  0  0  0  0
    1.1500   -1.9930    0.3050 C   0  0  0  0  0  0  0  0  0  0  0  0
   -1.3740    1.5510   -1.1730 C   0  0  1  0  0  0  0  0  0  0  0  0
   -0.1410    2.1390   -0.8500 F   0  0  0  0  0  0  0  0  0  0  0  0
   -1.3590    1.0630   -2.4870 F   0  0  0  0  0  0  0  0  0  0  0  0
   -2.2000    2.6500   -1.2510 F   0  0  0  0  0  0  0  0  0  0  0  0
  1  2  1  0
  2  3  1  0
  2  9  2  3
  3  4  2  0
  3  8  1  0
  4  5  1  0
  5  6  1  0
  5  7  2  0
  7  8  1  0
  9 10  1  0
  9 22  1  0
 10 11  2  3
 11 12  1  0
 11 21  1  0
 12 13  1  0
 13 14  1  0
 14 15  1  1
 14 20  1  0
 15 16  1  0
 16 17  2  0
 16 18  1  0
 18 19  2  0
 20 21  1  0
 22 23  1  1
 22 24  1  0
 22 25  1  0
M  END
