
     RDKit          3D

 25 27  0  0  0  0  0  0  0  0999 V2000
   -5.5020   -2.3840    0.4040 O   0  0  0  0  0  0  0  0  0  0  0  0
   -5.4190   -1.1120    0.3020 C   0  0  0  0  0  0  0  0  0  0  0  0
   -6.5130   -0.4420   -0.4300 C   0  0  0  0  0  0  0  0  0  0  0  0
   -6.0080    1.1850   -1.0520 S   0  0  0  0  0  0  0  0  0  0  0  0
   -4.1780    1.1810   -0.9810 C   0  0  0  0  0  0  0  0  0  0  0  0
   -3.7970    0.8400    0.4340 C   0  0  2  0  0  0  0  0  0  0  0  0
   -2.3320    0.7600    0.5140 C   0  0  0  0  0  0  0  0  0  0  0  0
   -1.6810   -0.0200   -0.3260 C   0  0  0  0  0  0  0  0  0  0  0  0
   -0.2080   -0.1080   -0.2530 C   0  0  0  0  0  0  0  0  0  0  0  0
    0.5910    0.5750    0.6380 C   0  0  0  0  0  0  0  0  0  0  0  0
    1.8780    0.2010    0.3680 C   0  0  0  0  0  0  0  0  0  0  0  0
    3.1130    0.3770    0.7270 O   0  0  0  0  0  0  0  0  0  0  0  0
    3.9500   -0.3250    0.0220 C   0  0  0  0  0  0  0  0  0  0  0  0
    5.3860   -0.4500    0.0600 C   0  0  0  0  0  0  0  0  0  0  0  0
    6.2550    0.6770    0.2350 C   0  0  0  0  0  0  0  0  0  0  0  0
    5.9020    1.9230    0.3710 C   0  0  0  0  0  0  0  0  0  0  0  0
    6.8270    2.9260    0.5340 F   0  0  0  0  0  0  0  0  0  0  0  0
    4.6280    2.3100    0.3510 F   0  0  0  0  0  0  0  0  0  0  0  0
    5.8960   -1.6630   -0.0710 C   0  0  0  0  0  0  0  0  0  0  0  0
    5.0890   -2.7130   -0.2330 F   0  0  0  0  0  0  0  0  0  0  0  0
    7.2360   -1.8240   -0.0380 F   0  0  0  0  0  0  0  0  0  0  0  0
    3.1710   -1.0320   -0.8960 C   0  0  0  0  0  0  0  0  0  0  0  0
    1.8570   -0.6970   -0.6740 C   0  0  0  0  0  0  0  0  0  0  0  0
    0.5730   -0.8700   -1.0370 N   0  0  0  0  0  0  0  0  0  0  0  0
   -4.3190   -0.4350    0.8770 N   0  0  0  0  0  0  0  0  0  0  0  0
  1  2  2  0
  2  3  1  0
  2 25  1  0
  3  4  1  0
  4  5  1  0
  5  6  1  0
  6  7  1  6
  6 25  1  0
  7  8  2  3
  8  9  1  0
  9 10  2  0
  9 24  1  0
 10 11  1  0
 11 12  1  0
 11 23  2  0
 12 13  1  0
 13 14  1  0
 13 22  2  0
 14 15  1  0
 14 19  2  3
 15 16  2  3
 16 17  1  0
 16 18  1  0
 19 20  1  0
 19 21  1  0
 22 23  1  0
 23 24  1  0
M  END
