
     RDKit          3D

 25 28  0  0  0  0  0  0  0  0999 V2000
    6.6530   -0.3950   -0.3830 N   0  0  0  0  0  0  0  0  0  0  0  0
    5.4120   -1.3860    0.2810 S   0  0  2  0  0  0  0  0  0  0  0  0
    5.6810   -1.5960    1.7310 O   0  0  0  0  0  0  0  0  0  0  0  0
    5.4100   -2.7030   -0.4760 O   0  0  0  0  0  0  0  0  0  0  0  0
    3.8640   -0.5900    0.0090 C   0  0  0  0  0  0  0  0  0  0  0  0
    3.1420   -0.8390   -1.1420 C   0  0  0  0  0  0  0  0  0  0  0  0
    3.6990   -1.7190   -2.0240 F   0  0  0  0  0  0  0  0  0  0  0  0
    1.9350   -0.2400   -1.3900 C   0  0  0  0  0  0  0  0  0  0  0  0
    1.2820   -0.5280   -2.5510 F   0  0  0  0  0  0  0  0  0  0  0  0
    1.4250    0.6410   -0.4560 C   0  0  0  0  0  0  0  0  0  0  0  0
    0.1690    1.2480   -0.7330 N   0  0  0  0  0  0  0  0  0  0  0  0
   -1.0600    0.6470   -0.2850 C   0  0  2  0  0  0  0  0  0  0  0  0
   -1.1440    0.5560    1.2130 C   0  0  0  0  0  0  0  0  0  0  0  0
   -2.5080    0.0220    1.5900 C   0  0  1  0  0  0  0  0  0  0  0  0
   -3.6050    0.9450    1.1520 C   0  0  0  0  0  0  0  0  0  0  0  0
   -3.5340    1.0440   -0.3690 C   0  0  2  0  0  0  0  0  0  0  0  0
   -3.7720   -0.3550   -0.8960 C   0  0  0  0  0  0  0  0  0  0  0  0
   -2.6310   -1.2510   -0.5090 C   0  0  2  0  0  0  0  0  0  0  0  0
   -2.6350   -1.3620    1.0140 C   0  0  0  0  0  0  0  0  0  0  0  0
   -1.3120   -0.6830   -0.9510 C   0  0  0  0  0  0  0  0  0  0  0  0
   -2.1910    1.5810   -0.7280 C   0  0  0  0  0  0  0  0  0  0  0  0
    2.1140    0.9170    0.7030 C   0  0  0  0  0  0  0  0  0  0  0  0
    1.6410    1.7760    1.6280 F   0  0  0  0  0  0  0  0  0  0  0  0
    3.3380    0.2830    0.9120 C   0  0  0  0  0  0  0  0  0  0  0  0
    3.9950    0.5670    2.0530 F   0  0  0  0  0  0  0  0  0  0  0  0
  2  1  1  6
  2  3  2  0
  2  4  2  0
  2  5  1  0
  5  6  2  0
  5 24  1  0
  6  7  1  0
  6  8  1  0
  8  9  1  0
  8 10  2  0
 10 11  1  0
 10 22  1  0
 12 11  1  1
 12 13  1  0
 12 20  1  0
 12 21  1  0
 14 13  1  6
 14 15  1  0
 14 19  1  0
 15 16  1  0
 16 17  1  6
 16 21  1  0
 18 17  1  1
 18 19  1  0
 18 20  1  0
 22 23  1  0
 22 24  2  0
 24 25  1  0
M  END
