
     RDKit          3D

 25 26  0  0  0  0  0  0  0  0999 V2000
   -0.3080    0.1940   -1.9970 C   0  0  0  0  0  0  0  0  0  0  0  0
   -0.8880   -0.0980   -0.6170 C   0  0  1  0  0  0  0  0  0  0  0  0
   -2.1590   -0.6250   -0.9940 O   0  0  0  0  0  0  0  0  0  0  0  0
   -0.2060   -1.1940    0.1210 C   0  0  0  0  0  0  0  0  0  0  0  0
    0.9730   -1.6680   -0.5840 N   0  0  0  0  0  0  0  0  0  0  0  0
    1.9600   -2.5690   -0.1650 C   0  0  0  0  0  0  0  0  0  0  0  0
    2.2520   -3.7460   -0.9990 C   0  0  0  0  0  0  0  0  0  0  0  0
    1.5680   -3.9670   -2.0970 C   0  0  0  0  0  0  0  0  0  0  0  0
    0.5750   -3.1750   -2.5500 F   0  0  0  0  0  0  0  0  0  0  0  0
    2.7010   -2.4050    0.9510 C   0  0  0  0  0  0  0  0  0  0  0  0
    2.6510   -1.3330    1.9020 C   0  0  0  0  0  0  0  0  0  0  0  0
    2.6990   -0.0290    1.6520 C   0  0  0  0  0  0  0  0  0  0  0  0
    2.8370    0.6230   -0.0070 S   0  0  0  0  0  0  0  0  0  0  0  0
    2.1190    2.1760   -0.1300 N   0  0  0  0  0  0  0  0  0  0  0  0
    0.9850    2.5960    0.2250 C   0  0  0  0  0  0  0  0  0  0  0  0
    0.7230    4.0500   -0.0580 C   0  0  2  0  0  0  0  0  0  0  0  0
    0.3210    4.6130    1.1380 F   0  0  0  0  0  0  0  0  0  0  0  0
   -0.1590    4.2050   -1.0770 F   0  0  0  0  0  0  0  0  0  0  0  0
    1.8770    4.7260   -0.4240 F   0  0  0  0  0  0  0  0  0  0  0  0
    0.0100    1.7480    0.8780 C   0  0  0  0  0  0  0  0  0  0  0  0
   -1.1270    1.1740    0.1240 C   0  0  1  0  0  0  0  0  0  0  0  0
   -1.4710    2.1100   -0.8870 O   0  0  0  0  0  0  0  0  0  0  0  0
   -2.3420    1.1690    1.0210 C   0  0  1  0  0  0  0  0  0  0  0  0
   -3.7270    0.9690    0.4950 C   0  0  0  0  0  0  0  0  0  0  0  0
   -3.0790   -0.0000    1.4420 C   0  0  0  0  0  0  0  0  0  0  0  0
  2  1  1  6
  2  3  1  0
  2  4  1  0
  2 21  1  0
  4  5  1  0
  5  6  1  0
  6  7  1  0
  6 10  2  0
  7  8  2  3
  8  9  1  0
 10 11  1  0
 11 12  2  0
 12 13  1  0
 13 14  1  0
 14 15  2  0
 15 16  1  0
 15 20  1  0
 16 17  1  1
 16 18  1  0
 16 19  1  0
 20 21  1  0
 21 22  1  6
 21 23  1  0
 23 24  1  6
 23 25  1  0
 24 25  1  0
M  END
