
     RDKit          3D

 24 26  0  0  0  0  0  0  0  0999 V2000
   -4.5900   -1.2030    2.4450 N   0  0  0  0  0  0  0  0  0  0  0  0
   -4.6370   -0.2720    1.3680 C   0  0  0  0  0  0  0  0  0  0  0  0
   -5.7720    0.4130    1.0270 C   0  0  0  0  0  0  0  0  0  0  0  0
   -5.8600    1.3210   -0.0060 C   0  0  0  0  0  0  0  0  0  0  0  0
   -4.7040    1.5260   -0.7220 C   0  0  0  0  0  0  0  0  0  0  0  0
   -3.5490    0.8550   -0.4040 C   0  0  0  0  0  0  0  0  0  0  0  0
   -2.2410    0.8500   -0.9330 C   0  0  0  0  0  0  0  0  0  0  0  0
   -1.4690   -0.0220   -0.2230 C   0  0  0  0  0  0  0  0  0  0  0  0
   -0.0540   -0.3880   -0.3710 C   0  0  0  0  0  0  0  0  0  0  0  0
    0.4850   -1.3270    0.5130 C   0  0  0  0  0  0  0  0  0  0  0  0
    1.7960   -1.6700    0.3810 C   0  0  0  0  0  0  0  0  0  0  0  0
    2.6360   -1.1490   -0.5770 C   0  0  0  0  0  0  0  0  0  0  0  0
    4.0620   -1.5530   -0.6850 C   0  0  0  0  0  0  0  0  0  0  0  0
    4.9070   -0.8010    0.1150 O   0  0  0  0  0  0  0  0  0  0  0  0
    4.8160    0.5300   -0.2550 C   0  0  0  0  0  0  0  0  0  0  0  0
    5.7460    1.3810    0.6180 C   0  0  1  0  0  0  0  0  0  0  0  0
    5.3760    1.2450    1.9360 F   0  0  0  0  0  0  0  0  0  0  0  0
    7.0290    0.8920    0.3830 F   0  0  0  0  0  0  0  0  0  0  0  0
    5.6480    2.6940    0.1960 F   0  0  0  0  0  0  0  0  0  0  0  0
    2.1060   -0.2530   -1.4140 N   0  0  0  0  0  0  0  0  0  0  0  0
    0.7920    0.1170   -1.3110 C   0  0  0  0  0  0  0  0  0  0  0  0
    0.2580    1.2210   -2.3920 S   0  0  0  0  0  0  0  0  0  0  0  0
   -2.2810   -0.5290    0.7060 O   0  0  0  0  0  0  0  0  0  0  0  0
   -3.4740   -0.0470    0.6270 C   0  0  0  0  0  0  0  0  0  0  0  0
  1  2  1  0
  2  3  2  0
  2 24  1  0
  3  4  1  0
  4  5  2  0
  5  6  1  0
  6  7  1  0
  6 24  2  0
  7  8  2  0
  8  9  1  0
  8 23  1  0
  9 10  2  0
  9 21  1  0
 10 11  1  0
 11 12  2  0
 12 13  1  0
 12 20  1  0
 13 14  1  0
 14 15  1  0
 15 16  1  0
 16 17  1  1
 16 18  1  0
 16 19  1  0
 20 21  1  0
 21 22  2  0
 23 24  1  0
M  END
