
     RDKit          3D

 24 26  0  0  0  0  0  0  0  0999 V2000
   -3.4140    0.8790    1.4090 C   0  0  0  0  0  0  0  0  0  0  0  0
   -3.1210    0.3840   -0.0090 C   0  0  2  0  0  0  0  0  0  0  0  0
   -4.3010    0.9380   -0.8460 C   0  0  0  0  0  0  0  0  0  0  0  0
   -3.2510   -1.0860   -0.1200 C   0  0  0  0  0  0  0  0  0  0  0  0
   -2.2800   -2.0750    0.9130 S   0  0  2  0  0  0  0  0  0  0  0  0
   -2.3350   -3.5030    0.3720 O   0  0  0  0  0  0  0  0  0  0  0  0
   -2.8950   -2.1850    2.3030 O   0  0  0  0  0  0  0  0  0  0  0  0
   -0.5720   -1.6490    0.9860 C   0  0  0  0  0  0  0  0  0  0  0  0
   -0.3750   -0.2000    0.7580 C   0  0  1  0  0  0  0  0  0  0  0  0
    0.9890    0.3490    0.5820 C   0  0  1  0  0  0  0  0  0  0  0  0
    2.0680   -0.5540    0.3430 N   0  0  0  0  0  0  0  0  0  0  0  0
    3.4070   -0.0620    0.1650 C   0  0  0  0  0  0  0  0  0  0  0  0
    3.6660    1.3070    0.2250 C   0  0  0  0  0  0  0  0  0  0  0  0
    4.9430    1.8060    0.0580 C   0  0  0  0  0  0  0  0  0  0  0  0
    5.1810    3.1550    0.1200 F   0  0  0  0  0  0  0  0  0  0  0  0
    6.0050    0.9590   -0.1740 C   0  0  0  0  0  0  0  0  0  0  0  0
    7.2390    1.4910   -0.3320 F   0  0  0  0  0  0  0  0  0  0  0  0
    5.7530   -0.3890   -0.2340 C   0  0  0  0  0  0  0  0  0  0  0  0
    4.4760   -0.8870   -0.0670 C   0  0  0  0  0  0  0  0  0  0  0  0
    4.2720   -2.2430   -0.1340 F   0  0  0  0  0  0  0  0  0  0  0  0
    0.4810    1.1150   -0.6250 C   0  0  0  0  0  0  0  0  0  0  0  0
   -0.7750    0.2270   -0.6300 C   0  0  1  0  0  0  0  0  0  0  0  0
   -0.6420   -0.7900   -1.7170 C   0  0  0  0  0  0  0  0  0  0  0  0
   -1.9660    0.9770   -0.5680 N   0  0  0  0  0  0  0  0  0  0  0  0
  2  1  1  1
  2  3  1  0
  2  4  1  0
  2 24  1  0
  5  4  1  6
  5  6  2  0
  5  7  2  0
  5  8  1  0
  9  8  1  6
  9 10  1  0
  9 22  1  0
 10 11  1  6
 10 21  1  0
 11 12  1  0
 12 13  2  0
 12 19  1  0
 13 14  1  0
 14 15  1  0
 14 16  2  0
 16 17  1  0
 16 18  1  0
 18 19  2  0
 19 20  1  0
 21 22  1  0
 22 23  1  6
 22 24  1  0
M  END
