
     RDKit          3D

 24 26  0  0  0  0  0  0  0  0999 V2000
    2.5260   -1.9040    0.2610 O   0  0  0  0  0  0  0  0  0  0  0  0
    1.9940   -0.8380   -0.1360 C   0  0  0  0  0  0  0  0  0  0  0  0
    2.7960    0.1680   -0.7150 N   0  0  0  0  0  0  0  0  0  0  0  0
    4.2140    0.0670   -0.8760 C   0  0  0  0  0  0  0  0  0  0  0  0
    5.0370   -0.0380    0.3550 C   0  0  2  0  0  0  0  0  0  0  0  0
    4.7370   -1.1510    1.1020 O   0  0  0  0  0  0  0  0  0  0  0  0
    4.8870    1.1340    1.1220 F   0  0  0  0  0  0  0  0  0  0  0  0
    6.5290   -0.0830    0.0420 C   0  0  1  0  0  0  0  0  0  0  0  0
    6.8270   -1.1760   -0.7570 F   0  0  0  0  0  0  0  0  0  0  0  0
    6.9310    1.0910   -0.5210 F   0  0  0  0  0  0  0  0  0  0  0  0
    0.5330   -0.6450    0.0040 C   0  0  0  0  0  0  0  0  0  0  0  0
   -0.2260   -1.7440    0.3630 C   0  0  0  0  0  0  0  0  0  0  0  0
   -1.5770   -1.5770    0.5010 C   0  0  0  0  0  0  0  0  0  0  0  0
   -2.3470   -2.6360    0.8520 F   0  0  0  0  0  0  0  0  0  0  0  0
   -2.1790   -0.3540    0.2900 C   0  0  0  0  0  0  0  0  0  0  0  0
   -3.5120    0.0490    0.3700 C   0  0  0  0  0  0  0  0  0  0  0  0
   -3.5130    1.3980    0.0510 C   0  0  0  0  0  0  0  0  0  0  0  0
   -2.2450    1.7920   -0.2090 N   0  0  0  0  0  0  0  0  0  0  0  0
   -1.4570    0.7370   -0.0620 C   0  0  0  0  0  0  0  0  0  0  0  0
   -0.0720    0.5670   -0.2030 C   0  0  0  0  0  0  0  0  0  0  0  0
   -4.7490    2.1960    0.0250 C   0  0  0  0  0  0  0  0  0  0  0  0
   -6.2430    1.2600   -0.2590 S   0  0  0  0  0  0  0  0  0  0  0  0
   -5.8100   -0.4920   -0.3570 C   0  0  0  0  0  0  0  0  0  0  0  0
   -4.7230   -0.7030    0.7070 C   0  0  0  0  0  0  0  0  0  0  0  0
  1  2  2  0
  2  3  1  0
  2 11  1  0
  3  4  1  0
  4  5  1  0
  5  6  1  1
  5  7  1  0
  5  8  1  0
  8  9  1  6
  8 10  1  0
 11 12  2  0
 11 20  1  0
 12 13  1  0
 13 14  1  0
 13 15  2  0
 15 16  1  0
 15 19  1  0
 16 17  2  0
 16 24  1  0
 17 18  1  0
 17 21  1  0
 18 19  1  0
 19 20  2  0
 21 22  1  0
 22 23  1  0
 23 24  1  0
M  END
