
     RDKit          3D

 19 19  0  0  0  0  0  0  0  0999 V2000
   -3.5570   -0.0170   -1.5620 C   0  0  0  0  0  0  0  0  0  0  0  0
   -3.2160   -0.3470   -0.1090 C   0  0  2  0  0  0  0  0  0  0  0  0
   -3.0880   -1.7320   -0.0690 O   0  0  0  0  0  0  0  0  0  0  0  0
   -4.3960    0.0320    0.7550 C   0  0  0  0  0  0  0  0  0  0  0  0
   -5.5670   -0.5790    0.2490 O   0  0  0  0  0  0  0  0  0  0  0  0
   -1.9540    0.3390    0.3180 C   0  0  1  0  0  0  0  0  0  0  0  0
   -2.0870    1.8440    0.3090 C   0  0  0  0  0  0  0  0  0  0  0  0
   -1.5170   -0.1900    1.6450 C   0  0  0  0  0  0  0  0  0  0  0  0
   -0.7730   -1.3150    1.2890 O   0  0  0  0  0  0  0  0  0  0  0  0
   -0.2180   -1.0460    0.0430 C   0  0  2  0  0  0  0  0  0  0  0  0
    1.2680   -0.7540    0.3010 C   0  0  2  0  0  0  0  0  0  0  0  0
    1.8380   -1.9090    1.0280 C   0  0  0  0  0  0  0  0  0  0  0  0
    1.2540    0.3540    1.1590 O   0  0  0  0  0  0  0  0  0  0  0  0
    1.9520   -0.3730   -0.9590 C   0  0  0  0  0  0  0  0  0  0  0  0
    3.3930   -0.0620   -0.8860 C   0  0  0  0  0  0  0  0  0  0  0  0
    3.7850    1.0750    0.0060 C   0  0  0  0  0  0  0  0  0  0  0  0
    5.3110    1.2540   -0.0480 C   0  0  0  0  0  0  0  0  0  0  0  0
    5.7160    1.5310   -1.3480 O   0  0  0  0  0  0  0  0  0  0  0  0
   -0.8740    0.0220   -0.5020 O   0  0  0  0  0  0  0  0  0  0  0  0
  2  1  1  6
  2  3  1  0
  2  4  1  0
  2  6  1  0
  4  5  1  0
  6  7  1  1
  6  8  1  0
  6 19  1  0
  8  9  1  0
 10  9  1  1
 10 11  1  0
 10 19  1  0
 11 12  1  1
 11 13  1  0
 11 14  1  0
 14 15  1  0
 15 16  1  0
 16 17  1  0
 17 18  1  0
M  END
