
     RDKit          3D

 26 28  0  0  0  0  0  0  0  0999 V2000
    3.1040   -3.3930   -0.1610 C   0  0  0  0  0  0  0  0  0  0  0  0
    3.8760   -2.3330   -0.2420 C   0  0  0  0  0  0  0  0  0  0  0  0
    5.3430   -2.6450   -0.2440 C   0  0  0  0  0  0  0  0  0  0  0  0
    3.3510   -0.9630   -0.3370 C   0  0  0  0  0  0  0  0  0  0  0  0
    4.1070    0.1370   -0.4120 C   0  0  0  0  0  0  0  0  0  0  0  0
    5.5700    0.2640   -0.4180 C   0  0  0  0  0  0  0  0  0  0  0  0
    3.2090    1.3130   -0.5010 C   0  0  0  0  0  0  0  0  0  0  0  0
    3.5960    2.5780   -0.5930 C   0  0  0  0  0  0  0  0  0  0  0  0
    2.5930    3.6890   -0.6770 C   0  0  0  0  0  0  0  0  0  0  0  0
    1.9210    0.7800   -0.4690 N   0  0  0  0  0  0  0  0  0  0  0  0
    1.9690   -0.5290   -0.3750 C   0  0  0  0  0  0  0  0  0  0  0  0
    0.7500   -1.3740   -0.3260 C   0  0  0  0  0  0  0  0  0  0  0  0
   -0.5010   -0.4630   -0.3840 C   0  0  0  0  0  0  0  0  0  0  0  0
   -1.6890   -1.3960   -0.3290 C   0  0  0  0  0  0  0  0  0  0  0  0
   -2.9130   -0.6460   -0.3770 N   0  0  0  0  0  0  0  0  0  0  0  0
   -3.5030   -0.3540   -1.5670 C   0  0  0  0  0  0  0  0  0  0  0  0
   -2.9460   -0.7610   -2.6390 O   0  0  0  0  0  0  0  0  0  0  0  0
   -4.6450    0.3470   -1.5900 N   0  0  0  0  0  0  0  0  0  0  0  0
   -5.2320    0.7760   -0.4560 C   0  0  0  0  0  0  0  0  0  0  0  0
   -6.3960    1.4940   -0.4370 C   0  0  0  0  0  0  0  0  0  0  0  0
   -6.9340    1.8970    0.7670 C   0  0  0  0  0  0  0  0  0  0  0  0
   -6.3300    1.5970    1.9620 C   0  0  0  0  0  0  0  0  0  0  0  0
   -5.1620    0.8780    1.9650 C   0  0  0  0  0  0  0  0  0  0  0  0
   -4.6360    0.4820    0.7620 C   0  0  0  0  0  0  0  0  0  0  0  0
   -3.4500   -0.2460    0.7890 C   0  0  0  0  0  0  0  0  0  0  0  0
   -2.9080   -0.5130    1.8980 O   0  0  0  0  0  0  0  0  0  0  0  0
  1  2  2  0
  2  3  1  0
  2  4  1  0
  4  5  2  0
  4 11  1  0
  5  6  1  0
  5  7  1  0
  7  8  2  3
  7 10  1  0
  8  9  1  0
 10 11  2  0
 11 12  1  0
 12 13  1  0
 13 14  1  0
 14 15  1  0
 15 16  1  0
 15 25  1  0
 16 17  2  0
 16 18  1  0
 18 19  1  0
 19 20  2  0
 19 24  1  0
 20 21  1  0
 21 22  2  0
 22 23  1  0
 23 24  2  0
 24 25  1  0
 25 26  2  0
M  END
