
     RDKit          3D

 10 10  0  0  0  0  0  0  0  0999 V2000
   -1.8190    0.9290   -0.6340 C   0  0  0  0  0  0  0  0  0  0  0  0
   -1.0450    0.0720    0.0180 C   0  0  0  0  0  0  0  0  0  0  0  0
   -1.4720   -1.3400    0.1040 C   0  0  0  0  0  0  0  0  0  0  0  0
    0.2140    0.5270    0.6410 C   0  0  2  0  0  0  0  0  0  0  0  0
    0.4460    1.8930    0.3530 O   0  0  0  0  0  0  0  0  0  0  0  0
    1.6590    2.0180   -0.2920 C   0  0  0  0  0  0  0  0  0  0  0  0
    2.1400    3.1180   -0.6770 O   0  0  0  0  0  0  0  0  0  0  0  0
    2.1950    0.7120   -0.4100 N   0  0  0  0  0  0  0  0  0  0  0  0
    1.4120   -0.1670    0.1040 C   0  0  0  0  0  0  0  0  0  0  0  0
    1.6790   -1.5600    0.1370 N   0  0  0  0  0  0  0  0  0  0  0  0
  1  2  2  0
  2  3  1  0
  4  2  1  6
  4  5  1  0
  4  9  1  0
  5  6  1  0
  6  7  2  0
  6  8  1  0
  8  9  2  0
  9 10  1  0
M  END
