
     RDKit          3D

 10 10  0  0  0  0  0  0  0  0999 V2000
    2.8350    0.0130   -0.4790 C   0  0  0  0  0  0  0  0  0  0  0  0
    1.5360   -0.6700   -0.3040 C   0  0  0  0  0  0  0  0  0  0  0  0
    1.5600   -1.9100   -0.0950 O   0  0  0  0  0  0  0  0  0  0  0  0
    0.2540    0.0270   -0.3620 C   0  0  0  0  0  0  0  0  0  0  0  0
    0.2180    1.3350   -0.5810 C   0  0  0  0  0  0  0  0  0  0  0  0
   -1.0520    1.9540   -0.6270 N   0  0  0  0  0  0  0  0  0  0  0  0
   -2.2250    1.3350   -0.5280 O   0  0  0  0  0  0  0  0  0  0  0  0
   -2.1690    0.1450    0.1860 C   0  0  0  0  0  0  0  0  0  0  0  0
   -1.0030   -0.7140   -0.1790 C   0  0  2  0  0  0  0  0  0  0  0  0
   -0.7900   -1.6570    0.9180 N   0  0  0  0  0  0  0  0  0  0  0  0
  1  2  1  0
  2  3  2  0
  2  4  1  0
  4  5  2  0
  4  9  1  0
  5  6  1  0
  6  7  1  0
  7  8  1  0
  8  9  1  0
  9 10  1  1
M  END
