
     RDKit          3D

 10 10  0  0  0  0  0  0  0  0999 V2000
   -1.4930    1.7460    0.2710 C   0  0  0  0  0  0  0  0  0  0  0  0
   -1.1470    0.4140    0.7950 N   0  0  0  0  0  0  0  0  0  0  0  0
   -1.7340   -0.5510   -0.0870 C   0  0  0  0  0  0  0  0  0  0  0  0
   -1.0440   -1.8650   -0.1440 C   0  0  0  0  0  0  0  0  0  0  0  0
    0.3130   -1.8280    0.0150 O   0  0  0  0  0  0  0  0  0  0  0  0
    0.7600   -0.5440   -0.2610 C   0  0  2  0  0  0  0  0  0  0  0  0
    2.2140   -0.5020   -0.4630 C   0  0  0  0  0  0  0  0  0  0  0  0
    2.9530    0.6540   -0.7570 N   0  0  0  0  0  0  0  0  0  0  0  0
    2.8530   -1.5870   -0.3670 O   0  0  0  0  0  0  0  0  0  0  0  0
    0.2890    0.3340    0.8760 C   0  0  0  0  0  0  0  0  0  0  0  0
  1  2  1  0
  2  3  1  0
  2 10  1  0
  3  4  1  0
  4  5  1  0
  5  6  1  0
  6  7  1  1
  6 10  1  0
  7  8  1  0
  7  9  2  0
M  END
