
     RDKit          3D

 10 10  0  0  0  0  0  0  0  0999 V2000
    3.1660    0.8240   -0.4660 C   0  0  0  0  0  0  0  0  0  0  0  0
    1.7830    0.4870   -0.0520 C   0  0  0  0  0  0  0  0  0  0  0  0
    1.2370    0.9920    1.1190 O   0  0  0  0  0  0  0  0  0  0  0  0
    1.0180   -0.2900   -0.7520 N   0  0  0  0  0  0  0  0  0  0  0  0
   -0.2930   -0.6280   -0.3890 C   0  0  0  0  0  0  0  0  0  0  0  0
   -1.3660    0.1420   -0.3240 C   0  0  0  0  0  0  0  0  0  0  0  0
   -1.4290    1.5330   -0.6170 N   0  0  0  0  0  0  0  0  0  0  0  0
   -2.5230   -0.6690    0.1100 C   0  0  0  0  0  0  0  0  0  0  0  0
   -2.0730   -1.9550    0.2510 O   0  0  0  0  0  0  0  0  0  0  0  0
   -0.7260   -1.9890    0.0060 C   0  0  0  0  0  0  0  0  0  0  0  0
  1  2  1  0
  2  3  1  0
  2  4  2  3
  4  5  1  0
  5  6  2  0
  5 10  1  0
  6  7  1  0
  6  8  1  0
  8  9  1  0
  9 10  1  0
M  END
