
     RDKit          3D

 24 26  0  0  0  0  0  0  0  0999 V2000
    6.3000    0.1510    0.1660 N   0  0  0  0  0  0  0  0  0  0  0  0
    4.9240   -0.4970   -0.6530 S   0  0  1  0  0  0  0  0  0  0  0  0
    4.9270   -0.1330   -2.0990 O   0  0  0  0  0  0  0  0  0  0  0  0
    4.9530   -2.0170   -0.5720 O   0  0  0  0  0  0  0  0  0  0  0  0
    3.4510    0.0650    0.0900 C   0  0  0  0  0  0  0  0  0  0  0  0
    2.8200    1.2250   -0.3130 C   0  0  0  0  0  0  0  0  0  0  0  0
    3.3900    1.9370   -1.3300 F   0  0  0  0  0  0  0  0  0  0  0  0
    1.6620    1.6630    0.2740 C   0  0  0  0  0  0  0  0  0  0  0  0
    1.0430    2.7990   -0.1200 F   0  0  0  0  0  0  0  0  0  0  0  0
    1.0690    0.9580    1.3040 C   0  0  0  0  0  0  0  0  0  0  0  0
   -0.4490    1.5120    2.0870 S   0  0  0  0  0  0  0  0  0  0  0  0
   -1.8700    0.7710    1.1480 C   0  0  0  0  0  0  0  0  0  0  0  0
   -2.5540   -0.1210    1.0790 N   0  0  0  0  0  0  0  0  0  0  0  0
   -3.5410   -0.3920    0.2520 C   0  0  0  0  0  0  0  0  0  0  0  0
   -4.3760   -1.5130    0.1910 C   0  0  0  0  0  0  0  0  0  0  0  0
   -5.3470   -1.5710   -0.7730 C   0  0  0  0  0  0  0  0  0  0  0  0
   -5.5980   -0.6150   -1.7160 C   0  0  0  0  0  0  0  0  0  0  0  0
   -4.7700    0.5080   -1.6640 C   0  0  0  0  0  0  0  0  0  0  0  0
   -3.7790    0.5760   -0.6880 C   0  0  0  0  0  0  0  0  0  0  0  0
   -2.5460    1.8270   -0.3070 S   0  0  0  0  0  0  0  0  0  0  0  0
    1.6940   -0.2030    1.7110 C   0  0  0  0  0  0  0  0  0  0  0  0
    1.1570   -0.9320    2.7150 F   0  0  0  0  0  0  0  0  0  0  0  0
    2.8640   -0.6450    1.1190 C   0  0  0  0  0  0  0  0  0  0  0  0
    3.4960   -1.7860    1.5060 F   0  0  0  0  0  0  0  0  0  0  0  0
  2  1  1  1
  2  3  2  0
  2  4  2  0
  2  5  1  0
  5  6  2  0
  5 23  1  0
  6  7  1  0
  6  8  1  0
  8  9  1  0
  8 10  2  0
 10 11  1  0
 10 21  1  0
 11 12  1  0
 12 13  2  0
 12 20  1  0
 13 14  1  0
 14 15  2  0
 14 19  1  0
 15 16  1  0
 16 17  2  0
 17 18  1  0
 18 19  2  0
 19 20  1  0
 21 22  1  0
 21 23  2  0
 23 24  1  0
M  END
