
     RDKit          3D

 37 40  0  0  0  0  0  0  0  0999 V2000
    8.8650    0.7740    1.1100 C   0  0  0  0  0  0  0  0  0  0  0  0
    8.5420    0.1470   -0.2290 C   0  0  0  0  0  0  0  0  0  0  0  0
    9.4500   -0.5350   -0.8780 N   0  0  0  0  0  0  0  0  0  0  0  0
    9.3500   -1.0650   -1.9730 C   0  0  0  0  0  0  0  0  0  0  0  0
    7.5780   -0.6000   -2.3680 S   0  0  0  0  0  0  0  0  0  0  0  0
    7.3320    0.2840   -0.8410 C   0  0  0  0  0  0  0  0  0  0  0  0
    6.0730    0.9420   -0.4980 C   0  0  0  0  0  0  0  0  0  0  0  0
    5.7660    1.4660    0.7120 C   0  0  0  0  0  0  0  0  0  0  0  0
    4.5300    2.1030    0.9570 C   0  0  0  0  0  0  0  0  0  0  0  0
    3.5760    2.2240   -0.0290 C   0  0  0  0  0  0  0  0  0  0  0  0
    2.2700    2.8840    0.2440 C   0  0  0  0  0  0  0  0  0  0  0  0
    1.3100    1.9740    0.8390 N   0  0  0  0  0  0  0  0  0  0  0  0
    0.5900    0.9910    0.0880 C   0  0  0  0  0  0  0  0  0  0  0  0
    0.7810    0.9020   -1.1320 O   0  0  0  0  0  0  0  0  0  0  0  0
   -0.3620    0.1200    0.8600 C   0  0  2  0  0  0  0  0  0  0  0  0
    0.4930   -0.7610    1.7400 C   0  0  0  0  0  0  0  0  0  0  0  0
    1.1080   -1.6830    0.6810 C   0  0  1  0  0  0  0  0  0  0  0  0
    1.2460   -2.9670    1.1940 O   0  0  0  0  0  0  0  0  0  0  0  0
    0.1330   -1.7040   -0.4590 C   0  0  0  0  0  0  0  0  0  0  0  0
   -0.9850   -0.8520   -0.0110 N   0  0  0  0  0  0  0  0  0  0  0  0
   -2.3040   -1.0490   -0.4430 C   0  0  0  0  0  0  0  0  0  0  0  0
   -2.5520   -1.9450   -1.2730 O   0  0  0  0  0  0  0  0  0  0  0  0
   -3.4630   -0.2260    0.0450 C   0  0  1  0  0  0  0  0  0  0  0  0
   -4.3310   -0.0490   -1.0800 N   0  0  0  0  0  0  0  0  0  0  0  0
   -5.6940    0.0950   -1.1160 C   0  0  0  0  0  0  0  0  0  0  0  0
   -6.4080    0.0630   -0.1060 O   0  0  0  0  0  0  0  0  0  0  0  0
   -6.4460    0.3060   -2.4240 C   0  0  2  0  0  0  0  0  0  0  0  0
   -5.6280    0.4350   -3.6100 C   0  0  0  0  0  0  0  0  0  0  0  0
   -4.9760    0.5380   -4.5820 N   0  0  0  0  0  0  0  0  0  0  0  0
   -7.7220    1.0950   -2.2640 C   0  0  0  0  0  0  0  0  0  0  0  0
   -7.7550   -0.3960   -2.5120 C   0  0  0  0  0  0  0  0  0  0  0  0
   -4.0950   -0.9720    1.2250 C   0  0  2  0  0  0  0  0  0  0  0  0
   -2.9390   -1.3040    2.2170 C   0  0  0  0  0  0  0  0  0  0  0  0
   -4.8470   -2.1660    0.9380 C   0  0  0  0  0  0  0  0  0  0  0  0
   -4.8400    0.1080    2.0410 C   0  0  0  0  0  0  0  0  0  0  0  0
    3.8920    1.6900   -1.2540 C   0  0  0  0  0  0  0  0  0  0  0  0
    5.0950    1.0670   -1.5000 C   0  0  0  0  0  0  0  0  0  0  0  0
  1  2  1  0
  2  3  1  0
  2  6  2  0
  3  4  2  0
  4  5  1  0
  5  6  1  0
  6  7  1  0
  7  8  2  0
  7 37  1  0
  8  9  1  0
  9 10  2  0
 10 11  1  0
 10 36  1  0
 11 12  1  0
 12 13  1  0
 13 14  2  0
 15 13  1  6
 15 16  1  0
 15 20  1  0
 16 17  1  0
 17 18  1  1
 17 19  1  0
 19 20  1  0
 20 21  1  0
 21 22  2  0
 21 23  1  0
 23 24  1  6
 23 32  1  0
 24 25  1  0
 25 26  2  0
 25 27  1  0
 27 28  1  6
 27 30  1  0
 27 31  1  0
 28 29  3  0
 30 31  1  0
 32 33  1  1
 32 34  1  0
 32 35  1  0
 36 37  2  0
M  END
