
     RDKit          3D

 36 40  0  0  0  0  0  0  0  0999 V2000
   -8.0000   -0.0350    0.0900 C   0  0  0  0  0  0  0  0  0  0  0  0
   -7.2880   -1.0060   -0.7200 C   0  0  0  0  0  0  0  0  0  0  0  0
   -6.0470   -1.2810   -0.8220 C   0  0  0  0  0  0  0  0  0  0  0  0
   -4.7780   -0.8720   -0.2930 C   0  0  0  0  0  0  0  0  0  0  0  0
   -3.7430   -1.8450   -0.5160 C   0  0  0  0  0  0  0  0  0  0  0  0
   -2.4500   -1.5810   -0.1990 C   0  0  0  0  0  0  0  0  0  0  0  0
   -2.1340   -0.3770    0.3390 C   0  0  0  0  0  0  0  0  0  0  0  0
   -0.7980   -0.1050    0.6630 O   0  0  0  0  0  0  0  0  0  0  0  0
   -0.0010    0.5370   -0.3030 C   0  0  0  0  0  0  0  0  0  0  0  0
   -0.5420    0.8280   -1.4060 O   0  0  0  0  0  0  0  0  0  0  0  0
    1.3470    0.8180    0.0160 N   0  0  0  0  0  0  0  0  0  0  0  0
    1.8630    0.4270    1.2910 C   0  0  0  0  0  0  0  0  0  0  0  0
    3.3420    0.6540    1.4710 C   0  0  0  0  0  0  0  0  0  0  0  0
    4.0220    0.9080    0.2440 N   0  0  0  0  0  0  0  0  0  0  0  0
    5.2300    0.1760   -0.0430 C   0  0  0  0  0  0  0  0  0  0  0  0
    5.2820   -0.6970   -1.0470 N   0  0  0  0  0  0  0  0  0  0  0  0
    6.3950   -1.4290   -1.3730 C   0  0  0  0  0  0  0  0  0  0  0  0
    7.5350   -1.2650   -0.6230 C   0  0  0  0  0  0  0  0  0  0  0  0
    7.4960   -0.3540    0.4350 C   0  0  0  0  0  0  0  0  0  0  0  0
    6.3540    0.3690    0.7310 C   0  0  0  0  0  0  0  0  0  0  0  0
    6.3470    1.3420    1.8540 C   0  0  0  0  0  0  0  0  0  0  0  0
    8.5240   -2.0340   -1.0520 C   0  0  0  0  0  0  0  0  0  0  0  0
    8.0010   -2.8010   -2.2100 C   0  0  0  0  0  0  0  0  0  0  0  0
    6.6120   -2.3190   -2.3210 C   0  0  0  0  0  0  0  0  0  0  0  0
    3.4800    1.8880   -0.6620 C   0  0  0  0  0  0  0  0  0  0  0  0
    2.0890    1.5150   -1.0230 C   0  0  0  0  0  0  0  0  0  0  0  0
   -3.0820    0.5620    0.5640 C   0  0  0  0  0  0  0  0  0  0  0  0
   -2.7270    1.7760    1.1150 O   0  0  0  0  0  0  0  0  0  0  0  0
   -2.4090    2.8720    0.3140 C   0  0  0  0  0  0  0  0  0  0  0  0
   -4.4650    0.3220    0.2420 C   0  0  0  0  0  0  0  0  0  0  0  0
   -5.2770    1.3660    0.5340 O   0  0  0  0  0  0  0  0  0  0  0  0
   -5.8400    1.7120    1.7780 C   0  0  0  0  0  0  0  0  0  0  0  0
   -6.6470    2.9790    1.5550 C   0  0  0  0  0  0  0  0  0  0  0  0
   -1.6290   -2.6530   -0.4990 O   0  0  0  0  0  0  0  0  0  0  0  0
   -2.3910   -3.7190   -0.9530 C   0  0  0  0  0  0  0  0  0  0  0  0
   -3.7920   -3.2360   -1.0620 C   0  0  0  0  0  0  0  0  0  0  0  0
  1  2  1  0
  2  3  2  3
  3  4  1  0
  4  5  2  0
  4 30  1  0
  5  6  1  0
  5 36  1  0
  6  7  2  0
  6 34  1  0
  7  8  1  0
  7 27  1  0
  8  9  1  0
  9 10  2  0
  9 11  1  0
 11 12  1  0
 11 26  1  0
 12 13  1  0
 13 14  1  0
 14 15  1  0
 14 25  1  0
 15 16  2  0
 15 20  1  0
 16 17  1  0
 17 18  1  0
 17 24  2  0
 18 19  1  0
 18 22  2  0
 19 20  2  0
 20 21  1  0
 22 23  1  0
 23 24  1  0
 25 26  1  0
 27 28  1  0
 27 30  2  0
 28 29  1  0
 30 31  1  0
 31 32  1  0
 32 33  1  0
 34 35  1  0
 35 36  1  0
M  END
