
     RDKit          3D

 36 40  0  0  0  0  0  0  0  0999 V2000
    9.0210    3.2990    0.2500 C   0  0  0  0  0  0  0  0  0  0  0  0
    9.6900    2.1940   -0.3250 O   0  0  0  0  0  0  0  0  0  0  0  0
    8.9850    1.0410   -0.5640 C   0  0  0  0  0  0  0  0  0  0  0  0
    9.6160   -0.0510   -1.1270 C   0  0  0  0  0  0  0  0  0  0  0  0
    8.9440   -1.2110   -1.3780 C   0  0  0  0  0  0  0  0  0  0  0  0
    7.5990   -1.3060   -1.0660 C   0  0  0  0  0  0  0  0  0  0  0  0
    6.9430   -0.2200   -0.4990 C   0  0  0  0  0  0  0  0  0  0  0  0
    5.6050   -0.2860   -0.1770 O   0  0  0  0  0  0  0  0  0  0  0  0
    4.8230   -1.4560   -0.4090 C   0  0  0  0  0  0  0  0  0  0  0  0
    3.4340   -1.3080    0.0180 C   0  0  0  0  0  0  0  0  0  0  0  0
    2.7030   -0.2190   -0.3850 C   0  0  0  0  0  0  0  0  0  0  0  0
    1.3970   -0.0990    0.0290 C   0  0  0  0  0  0  0  0  0  0  0  0
    0.6500    0.8750   -0.2970 O   0  0  0  0  0  0  0  0  0  0  0  0
    0.8510   -1.0660    0.8320 N   0  0  0  0  0  0  0  0  0  0  0  0
   -0.4230   -0.9500    1.2350 C   0  0  0  0  0  0  0  0  0  0  0  0
   -1.0180   -1.8880    2.0380 C   0  0  0  0  0  0  0  0  0  0  0  0
   -2.4030   -1.7980    2.4760 C   0  0  0  0  0  0  0  0  0  0  0  0
   -2.7250   -2.3920    3.5340 O   0  0  0  0  0  0  0  0  0  0  0  0
   -3.3570   -1.0360    1.6880 C   0  0  0  0  0  0  0  0  0  0  0  0
   -4.4340   -0.4000    2.3270 C   0  0  0  0  0  0  0  0  0  0  0  0
   -5.3730    0.3150    1.6250 C   0  0  0  0  0  0  0  0  0  0  0  0
   -5.3150    0.4520    0.2540 C   0  0  0  0  0  0  0  0  0  0  0  0
   -6.2840    1.1950   -0.4750 N   0  0  0  0  0  0  0  0  0  0  0  0
   -6.6140    0.9530   -1.8690 C   0  0  0  0  0  0  0  0  0  0  0  0
   -8.0740    0.5740   -1.9320 C   0  0  0  0  0  0  0  0  0  0  0  0
   -8.9410    1.2940   -0.9480 C   0  0  0  0  0  0  0  0  0  0  0  0
   -8.3370    2.5700   -0.4090 C   0  0  0  0  0  0  0  0  0  0  0  0
   -6.9920    2.2460    0.1680 C   0  0  0  0  0  0  0  0  0  0  0  0
   -6.4880    2.8320    1.1450 O   0  0  0  0  0  0  0  0  0  0  0  0
   -4.2650   -0.1670   -0.3840 C   0  0  0  0  0  0  0  0  0  0  0  0
   -3.3060   -0.8960    0.3190 C   0  0  0  0  0  0  0  0  0  0  0  0
   -0.2560   -2.9930    2.4390 C   0  0  0  0  0  0  0  0  0  0  0  0
    1.0380   -3.1030    2.0250 C   0  0  0  0  0  0  0  0  0  0  0  0
    1.5800   -2.1220    1.2140 C   0  0  0  0  0  0  0  0  0  0  0  0
    2.8600   -2.2230    0.8000 N   0  0  0  0  0  0  0  0  0  0  0  0
    7.6260    0.9500   -0.2470 C   0  0  0  0  0  0  0  0  0  0  0  0
  1  2  1  0
  2  3  1  0
  3  4  2  0
  3 36  1  0
  4  5  1  0
  5  6  2  0
  6  7  1  0
  7  8  1  0
  7 36  2  0
  8  9  1  0
  9 10  1  0
 10 11  2  0
 10 35  1  0
 11 12  1  0
 12 13  2  0
 12 14  1  0
 14 15  1  0
 14 34  1  0
 15 16  2  0
 16 17  1  0
 16 32  1  0
 17 18  2  0
 17 19  1  0
 19 20  2  0
 19 31  1  0
 20 21  1  0
 21 22  2  0
 22 23  1  0
 22 30  1  0
 23 24  1  0
 23 28  1  0
 24 25  1  0
 25 26  1  0
 26 27  1  0
 27 28  1  0
 28 29  2  0
 30 31  2  0
 32 33  2  0
 33 34  1  0
 34 35  2  0
M  END
