
     RDKit          3D

 31 33  0  0  0  0  0  0  0  0999 V2000
    3.5560   -1.2480   -1.7560 O   0  0  0  0  0  0  0  0  0  0  0  0
    3.8750   -0.7280   -0.7210 C   0  0  0  0  0  0  0  0  0  0  0  0
    3.0580    0.1810    0.0900 C   0  0  0  0  0  0  0  0  0  0  0  0
    1.9120   -0.8030    1.0780 S   0  0  0  0  0  0  0  0  0  0  0  0
    0.7400   -1.6090   -0.0490 C   0  0  0  0  0  0  0  0  0  0  0  0
   -0.1340   -0.5930   -0.7470 C   0  0  1  0  0  0  0  0  0  0  0  0
   -1.0760   -1.3180   -1.6570 C   0  0  0  0  0  0  0  0  0  0  0  0
   -2.0150   -0.3450   -2.2780 C   0  0  0  0  0  0  0  0  0  0  0  0
   -2.9410    0.1430   -1.0660 C   0  0  1  0  0  0  0  0  0  0  0  0
   -3.4140   -0.9870   -0.4770 O   0  0  0  0  0  0  0  0  0  0  0  0
   -4.6280   -1.4560   -0.7810 C   0  0  0  0  0  0  0  0  0  0  0  0
   -5.8750   -0.7820   -0.5250 C   0  0  0  0  0  0  0  0  0  0  0  0
   -6.9250   -1.3280   -1.1040 O   0  0  0  0  0  0  0  0  0  0  0  0
   -6.1610    0.3410    0.2290 N   0  0  0  0  0  0  0  0  0  0  0  0
   -7.5360    0.8800    0.3070 C   0  0  0  0  0  0  0  0  0  0  0  0
   -8.0200    0.6310    1.7100 C   0  0  0  0  0  0  0  0  0  0  0  0
   -6.9630    0.8000    2.5900 O   0  0  0  0  0  0  0  0  0  0  0  0
   -6.0050    1.7020    2.1580 C   0  0  0  0  0  0  0  0  0  0  0  0
   -5.2020    1.0640    1.0200 C   0  0  0  0  0  0  0  0  0  0  0  0
   -2.0330    0.9690   -0.2720 C   0  0  0  0  0  0  0  0  0  0  0  0
   -0.8490    0.2160    0.3050 C   0  0  0  0  0  0  0  0  0  0  0  0
    5.1930   -1.0800   -0.3210 N   0  0  0  0  0  0  0  0  0  0  0  0
    6.0460   -1.9450   -0.9220 C   0  0  0  0  0  0  0  0  0  0  0  0
    5.8930   -3.0940   -1.7370 O   0  0  0  0  0  0  0  0  0  0  0  0
    7.2530   -1.7090   -0.7080 N   0  0  0  0  0  0  0  0  0  0  0  0
    7.7720   -0.6720    0.0440 C   0  0  0  0  0  0  0  0  0  0  0  0
    8.3480    0.3940   -0.4940 C   0  0  0  0  0  0  0  0  0  0  0  0
    8.7760    1.2940    0.5930 C   0  0  1  0  0  0  0  0  0  0  0  0
    8.1100    2.5200    0.4410 O   0  0  0  0  0  0  0  0  0  0  0  0
    8.3430    0.5970    1.8270 C   0  0  0  0  0  0  0  0  0  0  0  0
    7.7740   -0.5260    1.4940 C   0  0  0  0  0  0  0  0  0  0  0  0
  1  2  2  0
  2  3  1  0
  2 22  1  0
  3  4  1  0
  4  5  1  0
  6  5  1  1
  6  7  1  0
  6 21  1  0
  7  8  1  0
  8  9  1  0
  9 10  1  1
  9 20  1  0
 10 11  1  0
 11 12  1  0
 12 13  2  0
 12 14  1  0
 14 15  1  0
 14 19  1  0
 15 16  1  0
 16 17  1  0
 17 18  1  0
 18 19  1  0
 20 21  1  0
 22 23  1  0
 23 24  1  0
 23 25  2  3
 25 26  1  0
 26 27  2  0
 26 31  1  0
 27 28  1  0
 28 29  1  6
 28 30  1  0
 30 31  2  0
M  END
