
     RDKit          3D

 31 32  0  0  0  0  0  0  0  0999 V2000
   -1.6330   -0.5930    3.7110 C   0  0  0  0  0  0  0  0  0  0  0  0
   -2.6110   -0.4640    2.8080 C   0  0  0  0  0  0  0  0  0  0  0  0
   -3.8450   -1.2900    3.0720 C   0  0  0  0  0  0  0  0  0  0  0  0
   -3.7420   -2.0480    4.2260 O   0  0  0  0  0  0  0  0  0  0  0  0
   -2.5660    0.3340    1.7320 N   0  0  0  0  0  0  0  0  0  0  0  0
   -2.2810    0.3530    0.5080 C   0  0  0  0  0  0  0  0  0  0  0  0
   -2.4220    1.8540   -0.5560 S   0  0  0  0  0  0  0  0  0  0  0  0
   -2.3290    0.9880   -2.1510 C   0  0  2  0  0  0  0  0  0  0  0  0
   -3.4730    1.4330   -3.0170 C   0  0  0  0  0  0  0  0  0  0  0  0
   -3.3190    2.9350   -3.2080 C   0  0  0  0  0  0  0  0  0  0  0  0
   -2.0700    3.1880   -3.8240 O   0  0  0  0  0  0  0  0  0  0  0  0
   -2.4560   -0.4220   -1.7070 C   0  0  0  0  0  0  0  0  0  0  0  0
   -3.0410   -1.3260   -2.3810 O   0  0  0  0  0  0  0  0  0  0  0  0
   -1.8310   -0.6250   -0.4260 N   0  0  0  0  0  0  0  0  0  0  0  0
   -0.9300   -1.6600   -0.0980 C   0  0  0  0  0  0  0  0  0  0  0  0
    0.5210   -1.5200   -0.3570 C   0  0  2  0  0  0  0  0  0  0  0  0
    1.0700   -0.3700    0.3940 C   0  0  0  0  0  0  0  0  0  0  0  0
    0.4040    0.3400    1.1800 O   0  0  0  0  0  0  0  0  0  0  0  0
    2.4520    0.0330    0.2800 N   0  0  0  0  0  0  0  0  0  0  0  0
    2.9910    1.1450    1.0130 C   0  0  2  0  0  0  0  0  0  0  0  0
    4.4510    1.3150    0.6660 C   0  0  0  0  0  0  0  0  0  0  0  0
    2.9300    0.9160    2.5150 C   0  0  0  0  0  0  0  0  0  0  0  0
    2.2910    2.4290    0.7410 C   0  0  0  0  0  0  0  0  0  0  0  0
    1.3460    2.4320   -0.0730 O   0  0  0  0  0  0  0  0  0  0  0  0
    2.6490    3.6100    1.3570 O   0  0  0  0  0  0  0  0  0  0  0  0
    1.9480    4.8350    1.0790 C   0  0  0  0  0  0  0  0  0  0  0  0
    0.8590   -1.4510   -1.8200 C   0  0  0  0  0  0  0  0  0  0  0  0
    0.9620   -2.7020   -2.5710 C   0  0  0  0  0  0  0  0  0  0  0  0
    1.2350   -3.9430   -1.7560 C   0  0  0  0  0  0  0  0  0  0  0  0
    2.1360   -3.4430   -0.6170 C   0  0  0  0  0  0  0  0  0  0  0  0
    1.1460   -2.7560    0.3080 C   0  0  0  0  0  0  0  0  0  0  0  0
  1  2  2  0
  2  3  1  0
  2  5  1  0
  3  4  1  0
  5  6  2  3
  6  7  1  0
  6 14  1  0
  7  8  1  0
  8  9  1  6
  8 12  1  0
  9 10  1  0
 10 11  1  0
 12 13  2  0
 12 14  1  0
 14 15  1  0
 16 15  1  6
 16 17  1  0
 16 27  1  0
 16 31  1  0
 17 18  2  0
 17 19  1  0
 19 20  1  0
 20 21  1  6
 20 22  1  0
 20 23  1  0
 23 24  2  0
 23 25  1  0
 25 26  1  0
 27 28  1  0
 28 29  1  0
 29 30  1  0
 30 31  1  0
M  END
