
     RDKit          3D

 31 32  0  0  0  0  0  0  0  0999 V2000
   -5.9220   -1.8660    0.3010 C   0  0  0  0  0  0  0  0  0  0  0  0
   -5.3510   -1.4510   -0.7680 C   0  0  0  0  0  0  0  0  0  0  0  0
   -4.1240   -0.9220   -1.2190 C   0  0  0  0  0  0  0  0  0  0  0  0
   -4.2170   -0.6790   -2.6210 C   0  0  0  0  0  0  0  0  0  0  0  0
   -5.3790   -0.9390   -3.4170 C   0  0  0  0  0  0  0  0  0  0  0  0
   -2.8410   -0.5560   -0.7350 C   0  0  0  0  0  0  0  0  0  0  0  0
   -2.0450   -0.4680    0.2670 C   0  0  0  0  0  0  0  0  0  0  0  0
   -2.3740   -0.8530    1.6200 C   0  0  0  0  0  0  0  0  0  0  0  0
   -3.4710   -1.3140    1.9620 O   0  0  0  0  0  0  0  0  0  0  0  0
   -1.3560   -0.6890    2.6400 N   0  0  0  0  0  0  0  0  0  0  0  0
   -0.0790   -0.1740    2.3530 C   0  0  0  0  0  0  0  0  0  0  0  0
    0.7050   -0.0860    3.3350 O   0  0  0  0  0  0  0  0  0  0  0  0
    0.3070    0.2250    1.0310 N   0  0  0  0  0  0  0  0  0  0  0  0
    1.6290    0.7230    0.9000 C   0  0  1  0  0  0  0  0  0  0  0  0
    2.4200   -0.2940    0.1410 C   0  0  0  0  0  0  0  0  0  0  0  0
    3.6400   -0.0580   -0.1690 O   0  0  0  0  0  0  0  0  0  0  0  0
    1.9190   -1.5450   -0.2800 N   0  0  0  0  0  0  0  0  0  0  0  0
    2.7480   -2.4900   -1.0180 C   0  0  0  0  0  0  0  0  0  0  0  0
    3.9620   -2.8900   -0.1860 C   0  0  2  0  0  0  0  0  0  0  0  0
    4.9270   -3.8840   -0.8400 C   0  0  0  0  0  0  0  0  0  0  0  0
    3.9760   -4.3420    0.2270 C   0  0  0  0  0  0  0  0  0  0  0  0
    1.9160    2.0300    0.3280 C   0  0  1  0  0  0  0  0  0  0  0  0
    1.8930    2.1230   -1.1740 C   0  0  0  0  0  0  0  0  0  0  0  0
    1.3660    3.1580    0.8890 O   0  0  0  0  0  0  0  0  0  0  0  0
    2.0410    4.1640    1.5490 C   0  0  0  0  0  0  0  0  0  0  0  0
    3.2700    4.0120    1.6310 O   0  0  0  0  0  0  0  0  0  0  0  0
    1.3520    5.3320    2.1120 C   0  0  0  0  0  0  0  0  0  0  0  0
    0.0440    5.4030    1.9740 C   0  0  0  0  0  0  0  0  0  0  0  0
    2.2280    6.6230    2.9610 S   0  0  0  0  0  0  0  0  0  0  0  0
   -0.6510    0.0750    0.0460 C   0  0  0  0  0  0  0  0  0  0  0  0
   -0.3700    0.4020   -1.1070 O   0  0  0  0  0  0  0  0  0  0  0  0
  1  2  2  0
  2  3  1  0
  3  4  2  3
  3  6  1  0
  4  5  1  0
  6  7  2  3
  7  8  1  0
  7 30  1  0
  8  9  2  0
  8 10  1  0
 10 11  1  0
 11 12  2  0
 11 13  1  0
 14 13  1  6
 13 30  1  0
 14 15  1  0
 14 22  1  0
 15 16  2  0
 15 17  1  0
 17 18  1  0
 19 18  1  6
 19 20  1  0
 19 21  1  0
 20 21  1  0
 22 23  1  6
 22 24  1  0
 24 25  1  0
 25 26  2  0
 25 27  1  0
 27 28  2  0
 27 29  1  0
 30 31  2  0
M  END
