
     RDKit          3D

 29 31  0  0  0  0  0  0  0  0999 V2000
   -4.2240   -3.5440   -0.9780 C   0  0  0  0  0  0  0  0  0  0  0  0
   -4.4470   -3.2050    0.4740 C   0  0  0  0  0  0  0  0  0  0  0  0
   -3.1790   -3.0170    1.2400 C   0  0  0  0  0  0  0  0  0  0  0  0
   -2.3550   -2.0040    0.7730 O   0  0  0  0  0  0  0  0  0  0  0  0
   -2.7100   -0.6520    0.6890 C   0  0  0  0  0  0  0  0  0  0  0  0
   -3.8700   -0.4250    1.0820 O   0  0  0  0  0  0  0  0  0  0  0  0
   -1.8000    0.3730    0.1850 C   0  0  0  0  0  0  0  0  0  0  0  0
   -2.2280    1.6170    0.1230 C   0  0  0  0  0  0  0  0  0  0  0  0
   -3.6070    1.9990    0.5650 C   0  0  0  0  0  0  0  0  0  0  0  0
   -1.4010    2.6410   -0.5380 C   0  0  1  0  0  0  0  0  0  0  0  0
   -1.7700    4.0590   -0.3400 C   0  0  0  0  0  0  0  0  0  0  0  0
   -0.6050    4.9970   -0.2700 C   0  0  0  0  0  0  0  0  0  0  0  0
    0.6490    4.6410   -0.2760 C   0  0  0  0  0  0  0  0  0  0  0  0
    0.9880    3.2330   -0.3720 C   0  0  0  0  0  0  0  0  0  0  0  0
    0.0170    2.3200   -0.4810 C   0  0  0  0  0  0  0  0  0  0  0  0
    0.4440    0.9280   -0.4460 C   0  0  0  0  0  0  0  0  0  0  0  0
   -0.4030   -0.0180   -0.1190 C   0  0  0  0  0  0  0  0  0  0  0  0
   -0.0200   -1.4320   -0.0180 C   0  0  0  0  0  0  0  0  0  0  0  0
    1.3940   -1.6190   -0.2730 N   0  0  0  0  0  0  0  0  0  0  0  0
    2.4240   -1.0920    0.5440 C   0  0  0  0  0  0  0  0  0  0  0  0
    2.1450   -0.4250    1.5660 O   0  0  0  0  0  0  0  0  0  0  0  0
    3.8300   -1.3290    0.1950 C   0  0  1  0  0  0  0  0  0  0  0  0
    4.1720   -0.7570   -1.1870 C   0  0  0  0  0  0  0  0  0  0  0  0
    5.5810   -1.1120   -1.4460 C   0  0  0  0  0  0  0  0  0  0  0  0
    5.9240   -1.6510   -2.5180 O   0  0  0  0  0  0  0  0  0  0  0  0
    6.5310   -0.8410   -0.4850 O   0  0  0  0  0  0  0  0  0  0  0  0
    6.2240   -0.7000    0.8890 C   0  0  0  0  0  0  0  0  0  0  0  0
    4.7660   -0.7050    1.1540 C   0  0  0  0  0  0  0  0  0  0  0  0
    4.3540   -0.1890    2.1730 O   0  0  0  0  0  0  0  0  0  0  0  0
  1  2  1  0
  2  3  1  0
  3  4  1  0
  4  5  1  0
  5  6  2  0
  5  7  1  0
  7  8  2  0
  7 17  1  0
  8  9  1  0
  8 10  1  0
 10 11  1  1
 10 15  1  0
 11 12  1  0
 12 13  2  0
 13 14  1  0
 14 15  2  0
 15 16  1  0
 16 17  2  0
 17 18  1  0
 18 19  1  0
 19 20  1  0
 20 21  2  0
 22 20  1  1
 22 23  1  0
 22 28  1  0
 23 24  1  0
 24 25  2  0
 24 26  1  0
 26 27  1  0
 27 28  1  0
 28 29  2  0
M  END
