
     RDKit          3D

 31 34  0  0  0  0  0  0  0  0999 V2000
    5.6520    2.3350    0.7290 C   0  0  0  0  0  0  0  0  0  0  0  0
    5.7760    1.9610   -0.5320 C   0  0  0  0  0  0  0  0  0  0  0  0
    5.3490    0.6330   -0.9300 C   0  0  0  0  0  0  0  0  0  0  0  0
    5.4750    0.2680   -2.1870 C   0  0  0  0  0  0  0  0  0  0  0  0
    5.1180   -0.9840   -2.7760 C   0  0  0  0  0  0  0  0  0  0  0  0
    4.6150   -1.9800   -2.2130 N   0  0  0  0  0  0  0  0  0  0  0  0
    4.2290   -2.2730   -0.9260 C   0  0  0  0  0  0  0  0  0  0  0  0
    5.0230   -2.8610   -0.0320 C   0  0  0  0  0  0  0  0  0  0  0  0
    4.6310   -3.1840    1.3500 C   0  0  0  0  0  0  0  0  0  0  0  0
    3.3250   -2.8590    1.6800 O   0  0  0  0  0  0  0  0  0  0  0  0
    2.4700   -2.2550    0.8040 C   0  0  0  0  0  0  0  0  0  0  0  0
    1.2030   -1.9580    1.2280 C   0  0  0  0  0  0  0  0  0  0  0  0
    0.2980   -1.3530    0.3970 C   0  0  0  0  0  0  0  0  0  0  0  0
   -1.0600   -1.0650    0.9210 C   0  0  0  0  0  0  0  0  0  0  0  0
   -1.3780   -1.6120    1.9850 O   0  0  0  0  0  0  0  0  0  0  0  0
   -1.9590   -0.2180    0.2660 N   0  0  0  0  0  0  0  0  0  0  0  0
   -3.2680    0.1480    0.6330 C   0  0  0  0  0  0  0  0  0  0  0  0
   -3.8260   -0.3510    1.7800 C   0  0  0  0  0  0  0  0  0  0  0  0
   -5.1270   -0.0030    2.1670 C   0  0  0  0  0  0  0  0  0  0  0  0
   -5.8730    0.8460    1.4050 C   0  0  0  0  0  0  0  0  0  0  0  0
   -7.2570    1.2550    1.7590 C   0  0  0  0  0  0  0  0  0  0  0  0
   -5.2950    1.3520    0.2340 C   0  0  0  0  0  0  0  0  0  0  0  0
   -4.0180    1.0270   -0.1700 C   0  0  0  0  0  0  0  0  0  0  0  0
   -3.4680    1.5590   -1.3560 N   0  0  0  0  0  0  0  0  0  0  0  0
   -4.2580    2.4500   -2.1460 C   0  0  0  0  0  0  0  0  0  0  0  0
   -3.8130    2.9510   -3.2120 O   0  0  0  0  0  0  0  0  0  0  0  0
   -5.5220    2.7520   -1.7140 O   0  0  0  0  0  0  0  0  0  0  0  0
   -6.1250    2.2650   -0.5670 C   0  0  0  0  0  0  0  0  0  0  0  0
    0.6820   -1.0440   -0.8850 C   0  0  0  0  0  0  0  0  0  0  0  0
    1.9680   -1.3380   -1.3360 C   0  0  0  0  0  0  0  0  0  0  0  0
    2.8540   -1.9480   -0.4710 C   0  0  0  0  0  0  0  0  0  0  0  0
  1  2  2  0
  2  3  1  0
  3  4  2  3
  4  5  1  0
  5  6  2  3
  6  7  1  0
  7  8  2  0
  7 31  1  0
  8  9  1  0
  9 10  1  0
 10 11  1  0
 11 12  2  0
 11 31  1  0
 12 13  1  0
 13 14  1  0
 13 29  2  0
 14 15  2  0
 14 16  1  0
 16 17  1  0
 17 18  2  0
 17 23  1  0
 18 19  1  0
 19 20  2  0
 20 21  1  0
 20 22  1  0
 22 23  2  0
 22 28  1  0
 23 24  1  0
 24 25  1  0
 25 26  2  0
 25 27  1  0
 27 28  1  0
 29 30  1  0
 30 31  2  0
M  END
