
     RDKit          3D

 11 11  0  0  0  0  0  0  0  0999 V2000
    2.9300    0.4690    0.1400 O   0  0  0  0  0  0  0  0  0  0  0  0
    2.0720   -0.3070   -0.6140 C   0  0  0  0  0  0  0  0  0  0  0  0
    0.7050   -0.3470    0.0350 C   0  0  2  0  0  0  0  0  0  0  0  0
    0.7930   -0.8860    1.3070 O   0  0  0  0  0  0  0  0  0  0  0  0
   -0.2060   -1.2570   -0.7970 C   0  0  0  0  0  0  0  0  0  0  0  0
   -1.3270   -1.4620   -0.0170 O   0  0  0  0  0  0  0  0  0  0  0  0
   -2.0890   -0.3350    0.1150 C   0  0  2  0  0  0  0  0  0  0  0  0
   -3.2010   -0.4880   -0.7460 O   0  0  0  0  0  0  0  0  0  0  0  0
   -1.4310    0.9460   -0.2050 C   0  0  0  0  0  0  0  0  0  0  0  0
    0.0430    1.0030    0.0400 C   0  0  1  0  0  0  0  0  0  0  0  0
    0.3770    1.7090    1.1930 O   0  0  0  0  0  0  0  0  0  0  0  0
  1  2  1  0
  2  3  1  0
  3  4  1  1
  3  5  1  0
  3 10  1  0
  5  6  1  0
  6  7  1  0
  7  8  1  6
  7  9  1  0
  9 10  1  0
 10 11  1  1
M  END
