
     RDKit          3D

 12 12  0  0  0  0  0  0  0  0999 V2000
    3.3590    0.5850    0.2200 O   0  0  0  0  0  0  0  0  0  0  0  0
    2.4020   -0.2370   -0.3650 C   0  0  0  0  0  0  0  0  0  0  0  0
    1.0870   -0.1850    0.4270 C   0  0  1  0  0  0  0  0  0  0  0  0
    0.6460    1.0710    0.4320 O   0  0  0  0  0  0  0  0  0  0  0  0
   -0.5850    1.4130    0.0810 C   0  0  1  0  0  0  0  0  0  0  0  0
   -0.5290    2.1480   -1.1290 O   0  0  0  0  0  0  0  0  0  0  0  0
   -1.6180    0.3650   -0.0920 C   0  0  2  0  0  0  0  0  0  0  0  0
   -2.8620    0.8040    0.3360 O   0  0  0  0  0  0  0  0  0  0  0  0
   -1.2100   -0.9290    0.5680 C   0  0  1  0  0  0  0  0  0  0  0  0
   -2.1100   -1.9410    0.3590 O   0  0  0  0  0  0  0  0  0  0  0  0
    0.1580   -1.2480   -0.0560 C   0  0  1  0  0  0  0  0  0  0  0  0
    0.0120   -1.2340   -1.4480 O   0  0  0  0  0  0  0  0  0  0  0  0
  1  2  1  0
  3  2  1  6
  3  4  1  0
  3 11  1  0
  4  5  1  0
  5  6  1  6
  5  7  1  0
  7  8  1  1
  7  9  1  0
  9 10  1  6
  9 11  1  0
 11 12  1  6
M  END
