
     RDKit          3D

 11 11  0  0  0  0  0  0  0  0999 V2000
   -1.8780    0.6920    1.8000 O   0  0  0  0  0  0  0  0  0  0  0  0
   -2.2880    0.6900    0.4570 C   0  0  0  0  0  0  0  0  0  0  0  0
   -1.3960   -0.2960   -0.3120 C   0  0  1  0  0  0  0  0  0  0  0  0
   -1.7810   -0.3160   -1.6430 O   0  0  0  0  0  0  0  0  0  0  0  0
    0.0510    0.1500   -0.2390 C   0  0  2  0  0  0  0  0  0  0  0  0
    0.2110    1.4260   -0.7840 O   0  0  0  0  0  0  0  0  0  0  0  0
    0.8840   -0.8800   -0.9500 C   0  0  0  0  0  0  0  0  0  0  0  0
    1.9220   -1.2330    0.0950 C   0  0  0  0  0  0  0  0  0  0  0  0
    1.9020    0.0460    0.9370 C   0  0  1  0  0  0  0  0  0  0  0  0
    2.3640    1.1230    0.2110 O   0  0  0  0  0  0  0  0  0  0  0  0
    0.5060    0.2140    1.0730 O   0  0  0  0  0  0  0  0  0  0  0  0
  1  2  1  0
  2  3  1  0
  3  4  1  6
  3  5  1  0
  5  6  1  6
  5  7  1  0
  5 11  1  0
  7  8  1  0
  8  9  1  0
  9 10  1  6
  9 11  1  0
M  END
