
     RDKit          3D

 11 11  0  0  0  0  0  0  0  0999 V2000
    3.0910   -0.0470    0.4540 O   0  0  0  0  0  0  0  0  0  0  0  0
    2.2150    0.8110   -0.2200 C   0  0  0  0  0  0  0  0  0  0  0  0
    0.8150    0.4100    0.1930 C   0  0  2  0  0  0  0  0  0  0  0  0
    0.7390    0.5660    1.5760 O   0  0  0  0  0  0  0  0  0  0  0  0
    0.5800   -0.9910   -0.2560 C   0  0  0  0  0  0  0  0  0  0  0  0
   -0.8500   -1.4070   -0.2840 C   0  0  2  0  0  0  0  0  0  0  0  0
   -1.2120   -1.8310   -1.5750 O   0  0  0  0  0  0  0  0  0  0  0  0
   -1.8220   -0.4160    0.2200 C   0  0  0  0  0  0  0  0  0  0  0  0
   -1.3380    0.9830    0.3220 C   0  0  2  0  0  0  0  0  0  0  0  0
   -2.3250    1.9000   -0.0430 O   0  0  0  0  0  0  0  0  0  0  0  0
   -0.1570    1.2200   -0.4020 O   0  0  0  0  0  0  0  0  0  0  0  0
  1  2  1  0
  2  3  1  0
  3  4  1  1
  3  5  1  0
  3 11  1  0
  5  6  1  0
  6  7  1  6
  6  8  1  0
  8  9  1  0
  9 10  1  6
  9 11  1  0
M  END
