
     RDKit          3D

 25 25  0  0  0  0  0  0  0  0999 V2000
    5.9170    0.0500    0.1830 C   0  0  0  0  0  0  0  0  0  0  0  0
    4.9910    0.7190    0.9600 O   0  0  0  0  0  0  0  0  0  0  0  0
    3.7350    0.8390    0.3190 C   0  0  2  0  0  0  0  0  0  0  0  0
    3.5010    2.1830    0.1350 O   0  0  0  0  0  0  0  0  0  0  0  0
    2.6940    0.1550    1.1870 C   0  0  0  0  0  0  0  0  0  0  0  0
    1.4340    0.1800    0.7530 O   0  0  0  0  0  0  0  0  0  0  0  0
    1.0070   -0.2880   -0.4210 C   0  0  1  0  0  0  0  0  0  0  0  0
    1.7320    0.4580   -1.4250 O   0  0  0  0  0  0  0  0  0  0  0  0
    1.0920   -1.5660   -0.8010 O   0  0  0  0  0  0  0  0  0  0  0  0
    2.2530   -2.2330   -0.9180 C   0  0  0  0  0  0  0  0  0  0  0  0
   -0.4460    0.1840   -0.6990 C   0  0  1  0  0  0  0  0  0  0  0  0
   -0.8300   -0.3400   -1.8820 O   0  0  0  0  0  0  0  0  0  0  0  0
   -1.3410    0.0010    0.4820 C   0  0  2  0  0  0  0  0  0  0  0  0
   -1.5180   -1.3830    0.9760 C   0  0  2  0  0  0  0  0  0  0  0  0
   -0.2800   -1.9560    1.3560 O   0  0  0  0  0  0  0  0  0  0  0  0
   -2.3640   -2.3100    0.2030 C   0  0  0  0  0  0  0  0  0  0  0  0
   -1.7330   -2.7020   -0.9710 O   0  0  0  0  0  0  0  0  0  0  0  0
   -2.6690    0.6910    0.3040 C   0  0  2  0  0  0  0  0  0  0  0  0
   -3.3770    0.2110   -0.7850 O   0  0  0  0  0  0  0  0  0  0  0  0
   -2.4860    2.1800    0.0410 C   0  0  0  0  0  0  0  0  0  0  0  0
   -3.8030    2.8850    0.0410 C   0  0  0  0  0  0  0  0  0  0  0  0
   -4.9190    2.0540    0.2920 O   0  0  0  0  0  0  0  0  0  0  0  0
   -4.8200    1.1160    1.3440 C   0  0  0  0  0  0  0  0  0  0  0  0
   -5.7750    0.7850    2.0690 O   0  0  0  0  0  0  0  0  0  0  0  0
   -3.4810    0.5820    1.4810 N   0  0  0  0  0  0  0  0  0  0  0  0
  1  2  1  0
  2  3  1  0
  3  4  1  1
  3  5  1  0
  5  6  1  0
  6  7  1  0
  7  8  1  6
  7  9  1  0
  7 11  1  0
  9 10  1  0
 11 12  1  6
 11 13  1  0
 13 14  1  6
 13 18  1  0
 14 15  1  6
 14 16  1  0
 16 17  1  0
 18 19  1  6
 18 20  1  0
 18 25  1  0
 20 21  1  0
 21 22  1  0
 22 23  1  0
 23 24  2  0
 23 25  1  0
M  END
