
     RDKit          3D

 26 27  0  0  0  0  0  0  0  0999 V2000
    1.1720   -1.7940   -1.3600 C   0  0  0  0  0  0  0  0  0  0  0  0
    1.1280   -1.1590   -0.0130 C   0  0  2  0  0  0  0  0  0  0  0  0
    1.6270   -2.0060    0.9900 O   0  0  0  0  0  0  0  0  0  0  0  0
   -0.2660   -0.9790    0.2970 O   0  0  0  0  0  0  0  0  0  0  0  0
   -1.1010   -0.2080   -0.4850 C   0  0  0  0  0  0  0  0  0  0  0  0
   -0.6280    0.3580   -1.5010 O   0  0  0  0  0  0  0  0  0  0  0  0
   -2.5550   -0.0280   -0.1530 C   0  0  2  0  0  0  0  0  0  0  0  0
   -2.6380    0.5920    1.1790 C   0  0  0  0  0  0  0  0  0  0  0  0
   -3.9900    0.8650    1.7240 C   0  0  0  0  0  0  0  0  0  0  0  0
   -4.7480    1.7310    0.9390 O   0  0  0  0  0  0  0  0  0  0  0  0
   -3.2700   -1.3860   -0.0970 C   0  0  0  0  0  0  0  0  0  0  0  0
   -4.6110   -0.9390   -0.1720 O   0  0  0  0  0  0  0  0  0  0  0  0
   -4.5750   -0.1160   -1.3220 C   0  0  0  0  0  0  0  0  0  0  0  0
   -3.2670    0.6190   -1.2730 C   0  0  1  0  0  0  0  0  0  0  0  0
   -3.3480    1.9730   -1.2660 O   0  0  0  0  0  0  0  0  0  0  0  0
    1.8250    0.1470    0.1240 C   0  0  1  0  0  0  0  0  0  0  0  0
    1.5050    0.6490    1.4150 O   0  0  0  0  0  0  0  0  0  0  0  0
    3.3220    0.0930    0.0440 C   0  0  1  0  0  0  0  0  0  0  0  0
    3.9400   -0.7490    1.0680 C   0  0  0  0  0  0  0  0  0  0  0  0
    3.7560   -0.4570    2.4320 N   0  0  0  0  0  0  0  0  0  0  0  0
    4.6310   -1.7290    0.7360 O   0  0  0  0  0  0  0  0  0  0  0  0
    3.8070   -0.1880   -1.3610 C   0  0  0  0  0  0  0  0  0  0  0  0
    4.8930    0.7130   -1.5370 O   0  0  0  0  0  0  0  0  0  0  0  0
    4.3520    1.8730   -1.8230 O   0  0  0  0  0  0  0  0  0  0  0  0
    3.6680    2.3010   -0.7980 O   0  0  0  0  0  0  0  0  0  0  0  0
    3.8320    1.5250    0.3370 C   0  0  0  0  0  0  0  0  0  0  0  0
  2  1  1  6
  2  3  1  0
  2  4  1  0
  2 16  1  0
  4  5  1  0
  5  6  2  0
  5  7  1  0
  7  8  1  1
  7 11  1  0
  7 14  1  0
  8  9  1  0
  9 10  1  0
 11 12  1  0
 12 13  1  0
 13 14  1  0
 14 15  1  1
 16 17  1  1
 16 18  1  0
 18 19  1  1
 18 22  1  0
 18 26  1  0
 19 20  1  0
 19 21  2  0
 22 23  1  0
 23 24  1  0
 24 25  1  0
 25 26  1  0
M  END
