
     RDKit          3D

 26 27  0  0  0  0  0  0  0  0999 V2000
   -2.1640   -3.7740    0.3960 N   0  0  0  0  0  0  0  0  0  0  0  0
   -1.5540   -2.5390    0.7730 C   0  0  0  0  0  0  0  0  0  0  0  0
   -0.6660   -2.5070    1.6630 O   0  0  0  0  0  0  0  0  0  0  0  0
   -1.9490   -1.2680    0.1290 C   0  0  2  0  0  0  0  0  0  0  0  0
   -1.2890   -0.1680    0.3740 O   0  0  0  0  0  0  0  0  0  0  0  0
   -0.0710    0.2350    0.1210 C   0  0  1  0  0  0  0  0  0  0  0  0
    1.1360   -0.5570    0.6100 C   0  0  0  0  0  0  0  0  0  0  0  0
    2.3650    0.2520    0.1150 C   0  0  0  0  0  0  0  0  0  0  0  0
    3.4900   -0.4730    0.5680 O   0  0  0  0  0  0  0  0  0  0  0  0
    4.6660    0.1390    0.1940 C   0  0  0  0  0  0  0  0  0  0  0  0
    5.8070   -0.7030    0.7210 C   0  0  0  0  0  0  0  0  0  0  0  0
    7.0270   -0.1380    0.3760 O   0  0  0  0  0  0  0  0  0  0  0  0
    0.0920    0.2320   -1.2560 O   0  0  0  0  0  0  0  0  0  0  0  0
    0.1120    1.3840   -1.9320 C   0  0  0  0  0  0  0  0  0  0  0  0
   -0.7440    2.4340   -1.2610 C   0  0  0  0  0  0  0  0  0  0  0  0
   -0.1150    2.5950    0.1110 C   0  0  1  0  0  0  0  0  0  0  0  0
   -0.9000    3.5880    0.9290 C   0  0  0  0  0  0  0  0  0  0  0  0
   -1.2550    3.3030    2.0980 O   0  0  0  0  0  0  0  0  0  0  0  0
   -1.2280    4.8080    0.3940 O   0  0  0  0  0  0  0  0  0  0  0  0
    0.1350    1.4510    0.7510 O   0  0  0  0  0  0  0  0  0  0  0  0
   -3.3690   -0.9880    0.6890 C   0  0  2  0  0  0  0  0  0  0  0  0
   -3.3810   -1.1290    2.0610 O   0  0  0  0  0  0  0  0  0  0  0  0
   -4.1750   -1.9810   -0.0530 C   0  0  0  0  0  0  0  0  0  0  0  0
   -3.5410   -2.2800   -1.2240 O   0  0  0  0  0  0  0  0  0  0  0  0
   -2.3940   -1.4920   -1.3080 C   0  0  1  0  0  0  0  0  0  0  0  0
   -2.7940   -0.2700   -1.8130 O   0  0  0  0  0  0  0  0  0  0  0  0
  1  2  1  0
  2  3  2  0
  2  4  1  0
  4  5  1  6
  4 21  1  0
  4 25  1  0
  5  6  1  0
  6  7  1  1
  6 13  1  0
  6 20  1  0
  7  8  1  0
  8  9  1  0
  9 10  1  0
 10 11  1  0
 11 12  1  0
 13 14  1  0
 14 15  1  0
 15 16  1  0
 16 17  1  1
 16 20  1  0
 17 18  2  0
 17 19  1  0
 21 22  1  1
 21 23  1  0
 23 24  1  0
 24 25  1  0
 25 26  1  1
M  END
