
     RDKit          3D

 26 27  0  0  0  0  0  0  0  0999 V2000
   -3.8480   -3.4850    0.7920 C   0  0  0  0  0  0  0  0  0  0  0  0
   -3.4460   -2.7920   -0.2680 O   0  0  0  0  0  0  0  0  0  0  0  0
   -2.5170   -1.8500   -0.3410 C   0  0  0  0  0  0  0  0  0  0  0  0
   -2.6170   -0.5670    0.3530 C   0  0  1  0  0  0  0  0  0  0  0  0
   -2.6860   -0.6650    1.8490 C   0  0  0  0  0  0  0  0  0  0  0  0
   -1.5670   -1.3940    2.3230 O   0  0  0  0  0  0  0  0  0  0  0  0
   -0.5090   -0.4510    2.2520 C   0  0  0  0  0  0  0  0  0  0  0  0
   -0.2190   -0.2790    0.7510 C   0  0  2  0  0  0  0  0  0  0  0  0
    1.0040    0.4230    0.5880 O   0  0  0  0  0  0  0  0  0  0  0  0
    2.1160   -0.2130    0.0950 C   0  0  0  0  0  0  0  0  0  0  0  0
    2.0300   -1.4170   -0.2060 O   0  0  0  0  0  0  0  0  0  0  0  0
    3.4280    0.4530   -0.1040 C   0  0  2  0  0  0  0  0  0  0  0  0
    3.4250    1.7790    0.2560 O   0  0  0  0  0  0  0  0  0  0  0  0
    3.9330    0.3130   -1.5080 C   0  0  0  0  0  0  0  0  0  0  0  0
    5.3390    0.4390   -1.3680 O   0  0  0  0  0  0  0  0  0  0  0  0
    5.7280    0.1410   -0.0760 C   0  0  0  0  0  0  0  0  0  0  0  0
    6.8940    0.1910    0.4330 O   0  0  0  0  0  0  0  0  0  0  0  0
    4.5180   -0.2700    0.6820 C   0  0  0  0  0  0  0  0  0  0  0  0
   -1.3820    0.3510    0.1250 C   0  0  2  0  0  0  0  0  0  0  0  0
   -1.7720    1.5010    0.9010 O   0  0  0  0  0  0  0  0  0  0  0  0
   -1.2810    0.8400   -1.2700 C   0  0  2  0  0  0  0  0  0  0  0  0
   -0.9230   -0.1370   -2.2070 O   0  0  0  0  0  0  0  0  0  0  0  0
   -0.3450    1.9630   -1.3620 N   0  0  0  0  0  0  0  0  0  0  0  0
   -0.8630    3.2610   -1.7230 C   0  0  0  0  0  0  0  0  0  0  0  0
   -2.0910    3.4110   -1.9510 O   0  0  0  0  0  0  0  0  0  0  0  0
    0.0070    4.3280   -1.8140 O   0  0  0  0  0  0  0  0  0  0  0  0
  1  2  1  0
  2  3  1  0
  4  3  1  6
  4  5  1  0
  4 19  1  0
  5  6  1  0
  6  7  1  0
  7  8  1  0
  8  9  1  1
  8 19  1  0
  9 10  1  0
 10 11  2  0
 10 12  1  0
 12 13  1  1
 12 14  1  0
 12 18  1  0
 14 15  1  0
 15 16  1  0
 16 17  2  0
 16 18  1  0
 19 20  1  1
 19 21  1  0
 21 22  1  6
 21 23  1  0
 23 24  1  0
 24 25  2  0
 24 26  1  0
M  END
