
     RDKit          3D

 25 26  0  0  0  0  0  0  0  0999 V2000
    5.4330    1.3910    1.9230 C   0  0  0  0  0  0  0  0  0  0  0  0
    4.6030    1.1900    0.8290 O   0  0  0  0  0  0  0  0  0  0  0  0
    4.4790   -0.1460    0.4950 C   0  0  0  0  0  0  0  0  0  0  0  0
    3.5610   -0.2560   -0.7010 C   0  0  1  0  0  0  0  0  0  0  0  0
    4.1800    0.4740   -1.8720 C   0  0  0  0  0  0  0  0  0  0  0  0
    3.3750    0.3790   -3.0060 O   0  0  0  0  0  0  0  0  0  0  0  0
    3.4190   -1.5880   -1.0590 O   0  0  0  0  0  0  0  0  0  0  0  0
    2.2200   -1.6460   -1.7540 C   0  0  0  0  0  0  0  0  0  0  0  0
    1.4780   -0.4150   -1.2780 C   0  0  1  0  0  0  0  0  0  0  0  0
    0.1990   -0.8760   -0.6940 C   0  0  0  0  0  0  0  0  0  0  0  0
   -0.5770   -1.4750   -1.4770 O   0  0  0  0  0  0  0  0  0  0  0  0
   -0.2030   -0.7100    0.5900 O   0  0  0  0  0  0  0  0  0  0  0  0
   -1.3630   -1.0920    1.2310 C   0  0  0  0  0  0  0  0  0  0  0  0
   -2.6520   -0.5190    0.7400 C   0  0  2  0  0  0  0  0  0  0  0  0
   -3.7210   -1.1200    1.5910 C   0  0  0  0  0  0  0  0  0  0  0  0
   -3.7410   -0.9480    3.0040 N   0  0  0  0  0  0  0  0  0  0  0  0
   -4.6120   -1.7890    1.0170 O   0  0  0  0  0  0  0  0  0  0  0  0
   -2.8910   -0.8460   -0.5550 O   0  0  0  0  0  0  0  0  0  0  0  0
   -3.8780   -0.1750   -1.2140 C   0  0  2  0  0  0  0  0  0  0  0  0
   -3.7050   -0.4370   -2.5940 O   0  0  0  0  0  0  0  0  0  0  0  0
   -3.8600    1.3140   -1.0610 C   0  0  0  0  0  0  0  0  0  0  0  0
   -3.8070    1.6870    0.4050 C   0  0  0  0  0  0  0  0  0  0  0  0
   -2.6140    0.9760    0.9950 C   0  0  1  0  0  0  0  0  0  0  0  0
   -2.5730    1.1660    2.3780 O   0  0  0  0  0  0  0  0  0  0  0  0
    2.2940    0.2330   -0.3940 O   0  0  0  0  0  0  0  0  0  0  0  0
  1  2  1  0
  2  3  1  0
  4  3  1  1
  4  5  1  0
  4  7  1  0
  4 25  1  0
  5  6  1  0
  7  8  1  0
  8  9  1  0
  9 10  1  1
  9 25  1  0
 10 11  2  0
 10 12  1  0
 12 13  1  0
 14 13  1  1
 14 15  1  0
 14 18  1  0
 14 23  1  0
 15 16  1  0
 15 17  2  0
 18 19  1  0
 19 20  1  6
 19 21  1  0
 21 22  1  0
 22 23  1  0
 23 24  1  1
M  END
