
     RDKit          3D

 34 37  0  0  0  0  0  0  0  0999 V2000
    3.9620    4.3650   -0.5080 C   0  0  0  0  0  0  0  0  0  0  0  0
    3.1350    3.1520   -0.7190 C   0  0  0  0  0  0  0  0  0  0  0  0
    2.9350    2.2140    0.2680 C   0  0  0  0  0  0  0  0  0  0  0  0
    2.1500    1.0820    0.0370 C   0  0  0  0  0  0  0  0  0  0  0  0
    1.5560    0.8650   -1.1710 C   0  0  0  0  0  0  0  0  0  0  0  0
    0.7920   -0.2420   -1.3870 O   0  0  0  0  0  0  0  0  0  0  0  0
    0.4870   -1.2790   -0.5160 C   0  0  2  0  0  0  0  0  0  0  0  0
   -0.4080   -2.2610   -1.2750 C   0  0  0  0  0  0  0  0  0  0  0  0
   -0.1190   -0.8830    0.7300 N   0  0  0  0  0  0  0  0  0  0  0  0
   -1.3980   -0.2140    0.7600 C   0  0  0  0  0  0  0  0  0  0  0  0
   -1.9150   -0.0170   -0.3700 O   0  0  0  0  0  0  0  0  0  0  0  0
   -2.0080    0.1860    2.0510 C   0  0  0  0  0  0  0  0  0  0  0  0
   -3.2490    0.7720    1.8290 O   0  0  0  0  0  0  0  0  0  0  0  0
   -4.3580    0.2220    1.2590 C   0  0  0  0  0  0  0  0  0  0  0  0
   -4.4790   -1.0660    0.7810 C   0  0  0  0  0  0  0  0  0  0  0  0
   -5.6590   -1.5490    0.2100 C   0  0  0  0  0  0  0  0  0  0  0  0
   -6.7380   -0.6960    0.1260 C   0  0  0  0  0  0  0  0  0  0  0  0
   -6.6650    0.6160    0.5960 C   0  0  0  0  0  0  0  0  0  0  0  0
   -7.7750    1.4550    0.4970 C   0  0  0  0  0  0  0  0  0  0  0  0
   -7.6580    2.7440    0.9730 C   0  0  0  0  0  0  0  0  0  0  0  0
   -6.4980    3.2190    1.5350 C   0  0  0  0  0  0  0  0  0  0  0  0
   -5.4240    2.3550    1.6130 C   0  0  0  0  0  0  0  0  0  0  0  0
   -5.4780    1.0460    1.1510 C   0  0  0  0  0  0  0  0  0  0  0  0
    1.7030   -2.1030   -0.1570 C   0  0  0  0  0  0  0  0  0  0  0  0
    2.0260   -2.3410    1.0010 O   0  0  0  0  0  0  0  0  0  0  0  0
    2.4320   -2.5750   -1.1970 O   0  0  0  0  0  0  0  0  0  0  0  0
    3.5710   -3.3290   -1.2070 C   0  0  0  0  0  0  0  0  0  0  0  0
    4.8100   -2.7860   -0.6830 C   0  0  0  0  0  0  0  0  0  0  0  0
    5.9080   -2.6480   -1.4430 C   0  0  0  0  0  0  0  0  0  0  0  0
    6.9730   -2.0980   -0.6860 N   0  0  0  0  0  0  0  0  0  0  0  0
    6.4450   -1.9180    0.6080 C   0  0  0  0  0  0  0  0  0  0  0  0
    5.1740   -2.3190    0.6170 C   0  0  0  0  0  0  0  0  0  0  0  0
    1.7660    1.8180   -2.1550 C   0  0  0  0  0  0  0  0  0  0  0  0
    2.5370    2.9380   -1.9400 C   0  0  0  0  0  0  0  0  0  0  0  0
  1  2  1  0
  2  3  2  0
  2 34  1  0
  3  4  1  0
  4  5  2  0
  5  6  1  0
  5 33  1  0
  6  7  1  0
  7  8  1  6
  7  9  1  0
  7 24  1  0
  9 10  1  0
 10 11  2  0
 10 12  1  0
 12 13  1  0
 13 14  1  0
 14 15  2  0
 14 23  1  0
 15 16  1  0
 16 17  2  0
 17 18  1  0
 18 19  2  0
 18 23  1  0
 19 20  1  0
 20 21  2  0
 21 22  1  0
 22 23  2  0
 24 25  2  0
 24 26  1  0
 26 27  1  0
 27 28  1  0
 28 29  2  0
 28 32  1  0
 29 30  1  0
 30 31  1  0
 31 32  2  0
 33 34  2  0
M  CHG  1  30   1
M  END
