
     RDKit          3D

 34 38  0  0  0  0  0  0  0  0999 V2000
    4.4380    0.8840    0.6830 C   0  0  0  0  0  0  0  0  0  0  0  0
    4.2560   -0.2510   -0.2980 C   0  0  0  0  0  0  0  0  0  0  0  0
    5.3640   -0.7900   -0.7350 N   0  0  0  0  0  0  0  0  0  0  0  0
    5.5240   -1.8290   -1.5350 C   0  0  0  0  0  0  0  0  0  0  0  0
    6.8070   -2.1140   -1.7830 N   0  0  0  0  0  0  0  0  0  0  0  0
    7.7680   -1.3140   -1.2070 N   0  0  0  0  0  0  0  0  0  0  0  0
    8.3130   -0.2320   -1.1100 C   0  0  0  0  0  0  0  0  0  0  0  0
    9.4380    0.0260   -0.1760 C   0  0  2  0  0  0  0  0  0  0  0  0
    8.9380    0.1950    1.1270 F   0  0  0  0  0  0  0  0  0  0  0  0
   10.1410    1.1700   -0.4960 F   0  0  0  0  0  0  0  0  0  0  0  0
   10.6550   -1.4390   -0.2840 Br  0  0  0  0  0  0  0  0  0  0  0  0
    4.0920   -2.5310   -2.0370 S   0  0  0  0  0  0  0  0  0  0  0  0
    2.7050   -1.7170   -1.3820 C   0  0  0  0  0  0  0  0  0  0  0  0
    1.2870   -1.8270   -1.4670 C   0  0  0  0  0  0  0  0  0  0  0  0
    0.7430   -0.8620   -0.7300 C   0  0  0  0  0  0  0  0  0  0  0  0
   -0.5010   -0.4450   -0.1720 C   0  0  0  0  0  0  0  0  0  0  0  0
   -1.6380    0.0760   -0.9290 N   0  0  0  0  0  0  0  0  0  0  0  0
   -2.3320    0.7730    0.1670 C   0  0  0  0  0  0  0  0  0  0  0  0
   -3.4740    1.5630    0.0620 N   0  0  0  0  0  0  0  0  0  0  0  0
   -3.7130    2.8820   -0.1430 C   0  0  0  0  0  0  0  0  0  0  0  0
   -2.8130    3.7280   -0.3780 O   0  0  0  0  0  0  0  0  0  0  0  0
   -4.9950    3.1270   -0.0530 O   0  0  0  0  0  0  0  0  0  0  0  0
   -5.6540    2.0270    0.2090 C   0  0  0  0  0  0  0  0  0  0  0  0
   -6.9630    1.6570    0.4120 C   0  0  0  0  0  0  0  0  0  0  0  0
   -7.3700    0.3400    0.6800 C   0  0  0  0  0  0  0  0  0  0  0  0
   -8.4800   -0.2950    0.9540 N   0  0  0  0  0  0  0  0  0  0  0  0
   -8.2390   -1.6150    1.1770 C   0  0  0  0  0  0  0  0  0  0  0  0
   -6.9110   -1.8720    1.0490 C   0  0  0  0  0  0  0  0  0  0  0  0
   -6.3530   -0.6190    0.7330 C   0  0  0  0  0  0  0  0  0  0  0  0
   -5.0380   -0.2580    0.5320 C   0  0  0  0  0  0  0  0  0  0  0  0
   -4.7270    1.0390    0.2790 C   0  0  0  0  0  0  0  0  0  0  0  0
    1.8850   -0.1050   -0.1730 C   0  0  0  0  0  0  0  0  0  0  0  0
    1.6060    1.1490    0.5600 C   0  0  0  0  0  0  0  0  0  0  0  0
    3.0050   -0.6810   -0.6050 N   0  0  0  0  0  0  0  0  0  0  0  0
  1  2  1  0
  2  3  2  0
  2 34  1  0
  3  4  1  0
  4  5  2  3
  4 12  1  0
  5  6  1  0
  6  7  2  3
  7  8  1  0
  8  9  1  1
  8 10  1  0
  8 11  1  0
 12 13  1  0
 13 14  2  0
 13 34  1  0
 14 15  1  0
 15 16  1  0
 15 32  2  0
 16 17  1  0
 17 18  1  0
 18 19  1  0
 19 20  1  0
 19 31  1  0
 20 21  2  0
 20 22  1  0
 22 23  1  0
 23 24  2  0
 23 31  1  0
 24 25  1  0
 25 26  1  0
 25 29  2  0
 26 27  1  0
 27 28  2  0
 28 29  1  0
 29 30  1  0
 30 31  2  0
 32 33  1  0
 32 34  1  0
M  END
