
     RDKit          3D

 35 39  0  0  0  0  0  0  0  0999 V2000
   -3.8450   -1.8740   -0.9650 O   0  0  0  0  0  0  0  0  0  0  0  0
   -3.2790   -1.0700   -0.0180 C   0  0  0  0  0  0  0  0  0  0  0  0
   -3.1170   -1.6560    1.1860 N   0  0  0  0  0  0  0  0  0  0  0  0
   -3.3920   -2.9850    1.6600 C   0  0  0  0  0  0  0  0  0  0  0  0
   -2.5620   -4.0650    1.0080 C   0  0  1  0  0  0  0  0  0  0  0  0
   -2.9340   -5.2820    1.5500 F   0  0  0  0  0  0  0  0  0  0  0  0
   -2.8270   -4.1320   -0.3360 F   0  0  0  0  0  0  0  0  0  0  0  0
   -3.0420    0.2060   -0.6150 C   0  0  0  0  0  0  0  0  0  0  0  0
   -4.1120    1.1340   -0.6590 C   0  0  0  0  0  0  0  0  0  0  0  0
   -4.0060    2.3630   -1.2150 C   0  0  0  0  0  0  0  0  0  0  0  0
   -4.9910    3.4230   -1.3730 C   0  0  0  0  0  0  0  0  0  0  0  0
   -5.7880    4.2630   -1.4910 N   0  0  0  0  0  0  0  0  0  0  0  0
   -6.6480    4.9990   -1.2570 C   0  0  0  0  0  0  0  0  0  0  0  0
   -6.8140    4.3240    0.4880 S   0  0  0  0  0  0  0  0  0  0  0  0
   -5.5790    3.1930    0.3160 N   0  0  0  0  0  0  0  0  0  0  0  0
   -2.7650    2.6560   -1.7610 N   0  0  0  0  0  0  0  0  0  0  0  0
   -1.7580    1.8490   -1.7450 C   0  0  0  0  0  0  0  0  0  0  0  0
   -1.8510    0.5750   -1.1570 C   0  0  0  0  0  0  0  0  0  0  0  0
   -0.6280   -0.1860   -0.9570 C   0  0  0  0  0  0  0  0  0  0  0  0
   -0.3280   -1.4840   -0.7440 N   0  0  0  0  0  0  0  0  0  0  0  0
    0.9370   -1.6500   -0.4300 O   0  0  0  0  0  0  0  0  0  0  0  0
    1.4770   -0.3770   -0.4460 C   0  0  0  0  0  0  0  0  0  0  0  0
    2.8820   -0.1650   -0.1420 C   0  0  0  0  0  0  0  0  0  0  0  0
    3.8150   -1.0740    0.0350 C   0  0  0  0  0  0  0  0  0  0  0  0
    5.1260   -0.8070    0.4800 C   0  0  0  0  0  0  0  0  0  0  0  0
    6.0570   -1.8140    0.6480 C   0  0  0  0  0  0  0  0  0  0  0  0
    5.7970   -2.9560    0.4100 O   0  0  0  0  0  0  0  0  0  0  0  0
    7.3140   -1.4610    1.1080 N   0  0  0  0  0  0  0  0  0  0  0  0
    7.6290   -0.2370    1.3620 C   0  0  0  0  0  0  0  0  0  0  0  0
    6.7150    0.8060    1.1920 C   0  0  0  0  0  0  0  0  0  0  0  0
    5.4540    0.4890    0.7440 C   0  0  0  0  0  0  0  0  0  0  0  0
    4.4790    1.4420    0.5560 C   0  0  0  0  0  0  0  0  0  0  0  0
    3.2240    1.2290    0.1370 C   0  0  0  0  0  0  0  0  0  0  0  0
    1.8920    2.5060   -0.1090 Br  0  0  0  0  0  0  0  0  0  0  0  0
    0.5500    0.3920   -0.7530 N   0  0  0  0  0  0  0  0  0  0  0  0
  1  2  2  0
  2  3  1  0
  2  8  1  0
  3  4  1  0
  4  5  1  0
  5  6  1  1
  5  7  1  0
  8  9  2  0
  8 18  1  0
  9 10  1  0
 10 11  1  0
 10 16  2  0
 11 12  1  0
 11 15  2  0
 12 13  2  0
 13 14  1  0
 14 15  1  0
 16 17  1  0
 17 18  2  0
 18 19  1  0
 19 20  2  0
 19 35  1  0
 20 21  1  0
 21 22  1  0
 22 23  1  0
 22 35  2  0
 23 24  2  0
 23 33  1  0
 24 25  1  0
 25 26  1  0
 25 31  2  0
 26 27  2  0
 26 28  1  0
 28 29  1  0
 29 30  2  0
 30 31  1  0
 31 32  1  0
 32 33  2  0
 33 34  1  0
M  END
