
     RDKit          3D

 34 37  0  0  0  0  0  0  0  0999 V2000
    8.9990    1.3150    1.5300 C   0  0  0  0  0  0  0  0  0  0  0  0
    9.1420   -0.1080    1.0570 C   0  0  0  0  0  0  0  0  0  0  0  0
    8.2530   -0.4100   -0.1170 C   0  0  0  0  0  0  0  0  0  0  0  0
    6.8350   -0.1930    0.2670 C   0  0  0  0  0  0  0  0  0  0  0  0
    6.5850    0.1830    1.4260 O   0  0  0  0  0  0  0  0  0  0  0  0
    5.8040   -0.4120   -0.6640 N   0  0  0  0  0  0  0  0  0  0  0  0
    4.4120   -0.2510   -0.4500 C   0  0  0  0  0  0  0  0  0  0  0  0
    3.8250    0.1540    0.7200 C   0  0  0  0  0  0  0  0  0  0  0  0
    2.4380    0.2860    0.8410 C   0  0  0  0  0  0  0  0  0  0  0  0
    1.5920    0.0150   -0.2130 C   0  0  0  0  0  0  0  0  0  0  0  0
    0.2090    0.1440   -0.1010 O   0  0  0  0  0  0  0  0  0  0  0  0
   -0.5700   -0.1510   -1.2190 C   0  0  0  0  0  0  0  0  0  0  0  0
   -2.0300    0.0080   -1.0280 C   0  0  0  0  0  0  0  0  0  0  0  0
   -2.7320   -0.2400   -1.9890 O   0  0  0  0  0  0  0  0  0  0  0  0
   -2.6600    0.4400    0.2350 C   0  0  2  0  0  0  0  0  0  0  0  0
   -4.1400    0.4000    0.0550 C   0  0  0  0  0  0  0  0  0  0  0  0
   -4.9950    1.4090    0.4120 C   0  0  0  0  0  0  0  0  0  0  0  0
   -6.3780    1.3000    0.2270 C   0  0  0  0  0  0  0  0  0  0  0  0
   -6.9400    0.1710   -0.3240 C   0  0  0  0  0  0  0  0  0  0  0  0
   -6.0810   -0.8450   -0.6820 C   0  0  0  0  0  0  0  0  0  0  0  0
   -4.7160   -0.7280   -0.4950 C   0  0  0  0  0  0  0  0  0  0  0  0
   -6.6860   -2.0480   -1.2670 C   0  0  0  0  0  0  0  0  0  0  0  0
   -7.9870   -2.1600   -1.4440 C   0  0  0  0  0  0  0  0  0  0  0  0
   -8.9300   -1.0860   -1.0680 C   0  0  0  0  0  0  0  0  0  0  0  0
   -8.3100    0.0490   -0.5130 O   0  0  0  0  0  0  0  0  0  0  0  0
   -2.1350    1.8140    0.5460 C   0  0  0  0  0  0  0  0  0  0  0  0
   -1.8380    2.0060    1.9990 C   0  0  0  0  0  0  0  0  0  0  0  0
   -2.6690    1.2600    2.8890 N   0  0  0  0  0  0  0  0  0  0  0  0
   -2.6730   -0.1490    2.6730 C   0  0  0  0  0  0  0  0  0  0  0  0
   -2.3200   -0.5880    1.2940 C   0  0  0  0  0  0  0  0  0  0  0  0
    2.1960   -0.3890   -1.3790 C   0  0  0  0  0  0  0  0  0  0  0  0
    3.5540   -0.5290   -1.5300 C   0  0  0  0  0  0  0  0  0  0  0  0
    4.1130   -0.9450   -2.7430 O   0  0  0  0  0  0  0  0  0  0  0  0
    3.2360   -1.2190   -3.8170 C   0  0  0  0  0  0  0  0  0  0  0  0
  1  2  1  0
  2  3  1  0
  3  4  1  0
  4  5  2  0
  4  6  1  0
  6  7  1  0
  7  8  2  0
  7 32  1  0
  8  9  1  0
  9 10  2  0
 10 11  1  0
 10 31  1  0
 11 12  1  0
 12 13  1  0
 13 14  2  0
 15 13  1  6
 15 16  1  0
 15 26  1  0
 15 30  1  0
 16 17  2  0
 16 21  1  0
 17 18  1  0
 18 19  2  0
 19 20  1  0
 19 25  1  0
 20 21  2  0
 20 22  1  0
 22 23  2  0
 23 24  1  0
 24 25  1  0
 26 27  1  0
 27 28  1  0
 28 29  1  0
 29 30  1  0
 31 32  2  0
 32 33  1  0
 33 34  1  0
M  CHG  1  28   1
M  END
