
     RDKit          3D

 13 14  0  0  0  0  0  0  0  0999 V2000
    5.2110    0.6640    0.1440 C   0  0  0  0  0  0  0  0  0  0  0  0
    4.3920   -0.9750    0.0590 S   0  0  0  0  0  0  0  0  0  0  0  0
    2.7740   -0.6750   -0.6780 C   0  0  0  0  0  0  0  0  0  0  0  0
    2.4610   -0.6970   -1.9830 N   0  0  0  0  0  0  0  0  0  0  0  0
    1.1750   -0.4230   -2.0580 N   0  0  0  0  0  0  0  0  0  0  0  0
    0.6600   -0.2270   -0.8320 C   0  0  0  0  0  0  0  0  0  0  0  0
   -0.7130    0.0900   -0.5470 C   0  0  0  0  0  0  0  0  0  0  0  0
   -1.1090    0.2640    0.7200 C   0  0  0  0  0  0  0  0  0  0  0  0
   -2.5190    0.5870    0.9720 C   0  0  0  0  0  0  0  0  0  0  0  0
   -3.4210   -0.3440    0.1990 C   0  0  0  0  0  0  0  0  0  0  0  0
   -2.9080   -0.6820   -1.1590 C   0  0  0  0  0  0  0  0  0  0  0  0
   -1.7680    0.2480   -1.5770 C   0  0  0  0  0  0  0  0  0  0  0  0
    1.6790   -0.3890    0.0170 N   0  0  0  0  0  0  0  0  0  0  0  0
  1  2  1  0
  2  3  1  0
  3  4  2  0
  3 13  1  0
  4  5  1  0
  5  6  2  0
  6  7  1  0
  6 13  1  0
  7  8  2  0
  7 12  1  0
  8  9  1  0
  9 10  1  0
 10 11  1  0
 11 12  1  0
M  END
