
     RDKit          3D

 13 14  0  0  0  0  0  0  0  0999 V2000
    4.3910   -0.0300   -0.6100 C   0  0  0  0  0  0  0  0  0  0  0  0
    3.7160    0.2270    1.0500 S   0  0  0  0  0  0  0  0  0  0  0  0
    1.9360    0.1960    1.0000 C   0  0  0  0  0  0  0  0  0  0  0  0
    1.2340    0.3670    2.1250 N   0  0  0  0  0  0  0  0  0  0  0  0
   -0.1080    0.3600    2.1850 C   0  0  0  0  0  0  0  0  0  0  0  0
   -0.8160    0.1630    1.0160 C   0  0  0  0  0  0  0  0  0  0  0  0
   -0.1150   -0.0140   -0.1510 C   0  0  0  0  0  0  0  0  0  0  0  0
    1.2360    0.0050   -0.1370 N   0  0  0  0  0  0  0  0  0  0  0  0
   -0.6720   -0.2280   -1.4430 N   0  0  0  0  0  0  0  0  0  0  0  0
   -2.0270   -0.3690   -1.8540 C   0  0  0  0  0  0  0  0  0  0  0  0
   -3.1070   -0.2720   -1.0920 C   0  0  0  0  0  0  0  0  0  0  0  0
   -3.2450   -0.0060    0.3310 C   0  0  0  0  0  0  0  0  0  0  0  0
   -2.2750    0.1750    1.2070 C   0  0  0  0  0  0  0  0  0  0  0  0
  1  2  1  0
  2  3  1  0
  3  4  2  0
  3  8  1  0
  4  5  1  0
  5  6  2  0
  6  7  1  0
  6 13  1  0
  7  8  2  0
  7  9  1  0
  9 10  1  0
 10 11  2  0
 11 12  1  0
 12 13  2  0
M  END
