
     RDKit          3D

 13 14  0  0  0  0  0  0  0  0999 V2000
    3.9810    0.2480    1.5340 C   0  0  0  0  0  0  0  0  0  0  0  0
    2.9820    0.1400    0.6800 C   0  0  0  0  0  0  0  0  0  0  0  0
    1.6000    0.2850    0.9820 N   0  0  0  0  0  0  0  0  0  0  0  0
    0.9040    0.0830   -0.2430 C   0  0  0  0  0  0  0  0  0  0  0  0
   -0.5070    0.1350   -0.4170 N   0  0  0  0  0  0  0  0  0  0  0  0
   -1.2380    1.3150    0.0040 C   0  0  0  0  0  0  0  0  0  0  0  0
   -2.6740    1.2290   -0.2780 C   0  0  0  0  0  0  0  0  0  0  0  0
   -3.3350    0.0780   -0.3500 C   0  0  0  0  0  0  0  0  0  0  0  0
   -2.4960   -1.1560   -0.1180 C   0  0  0  0  0  0  0  0  0  0  0  0
   -1.2620   -0.9530   -1.0050 C   0  0  0  0  0  0  0  0  0  0  0  0
    1.7270   -0.1600   -1.2080 N   0  0  0  0  0  0  0  0  0  0  0  0
    3.0590   -0.1510   -0.7540 C   0  0  0  0  0  0  0  0  0  0  0  0
    4.4470   -0.4000   -1.5760 S   0  0  0  0  0  0  0  0  0  0  0  0
  1  2  2  0
  2  3  1  0
  2 12  1  0
  3  4  1  0
  4  5  1  0
  4 11  2  0
  5  6  1  0
  5 10  1  0
  6  7  1  0
  7  8  2  0
  8  9  1  0
  9 10  1  0
 11 12  1  0
 12 13  2  0
M  END
