
     RDKit          3D

 13 14  0  0  0  0  0  0  0  0999 V2000
    3.5470   -0.2980    0.3010 C   0  0  0  0  0  0  0  0  0  0  0  0
    2.9310   -0.9760   -0.9040 C   0  0  0  0  0  0  0  0  0  0  0  0
    1.5470   -1.2390   -0.6660 N   0  0  0  0  0  0  0  0  0  0  0  0
    0.5610   -0.2400   -0.4530 C   0  0  0  0  0  0  0  0  0  0  0  0
    0.9170    1.0900   -0.4900 C   0  0  0  0  0  0  0  0  0  0  0  0
   -0.0260    2.0010   -0.2820 N   0  0  0  0  0  0  0  0  0  0  0  0
   -1.3450    1.6550   -0.0310 C   0  0  0  0  0  0  0  0  0  0  0  0
   -2.3620    2.6070    0.1930 C   0  0  0  0  0  0  0  0  0  0  0  0
   -3.8010    1.5600    0.4500 S   0  0  0  0  0  0  0  0  0  0  0  0
   -2.9830    0.0390    0.2520 C   0  0  0  0  0  0  0  0  0  0  0  0
   -3.6620   -1.2810    0.3530 C   0  0  0  0  0  0  0  0  0  0  0  0
   -1.7000    0.3720    0.0070 C   0  0  0  0  0  0  0  0  0  0  0  0
   -0.7000   -0.5640   -0.2120 N   0  0  0  0  0  0  0  0  0  0  0  0
  1  2  1  0
  2  3  1  0
  3  4  1  0
  4  5  1  0
  4 13  2  0
  5  6  2  0
  6  7  1  0
  7  8  2  0
  7 12  1  0
  8  9  1  0
  9 10  1  0
 10 11  1  0
 10 12  2  0
 12 13  1  0
M  END
