
     RDKit          3D

 21 21  0  0  0  0  0  0  0  0999 V2000
    2.9610   -2.1120    1.8890 N   0  0  0  0  0  0  0  0  0  0  0  0
    3.0310   -0.8640    1.1950 C   0  0  0  0  0  0  0  0  0  0  0  0
    2.7170    0.1420    1.8710 O   0  0  0  0  0  0  0  0  0  0  0  0
    3.4460   -0.7820   -0.2140 C   0  0  0  0  0  0  0  0  0  0  0  0
    3.2170    0.5790   -0.7630 C   0  0  0  0  0  0  0  0  0  0  0  0
    1.7530    1.0310   -0.7810 C   0  0  2  0  0  0  0  0  0  0  0  0
    0.9420    0.1760   -1.5710 N   0  0  0  0  0  0  0  0  0  0  0  0
   -0.4160    0.4780   -1.7560 C   0  0  0  0  0  0  0  0  0  0  0  0
   -1.3150    0.3960   -0.5300 C   0  0  1  0  0  0  0  0  0  0  0  0
   -0.8910    1.2630    0.4690 O   0  0  0  0  0  0  0  0  0  0  0  0
   -2.5760    0.7780   -1.0190 O   0  0  0  0  0  0  0  0  0  0  0  0
   -3.6380    0.1100   -0.4980 C   0  0  0  0  0  0  0  0  0  0  0  0
   -3.4340    0.0630    1.0110 C   0  0  1  0  0  0  0  0  0  0  0  0
   -4.6200   -0.3280    1.6260 O   0  0  0  0  0  0  0  0  0  0  0  0
   -2.3430   -0.9780    1.2210 C   0  0  1  0  0  0  0  0  0  0  0  0
   -2.9300   -2.2470    1.3850 O   0  0  0  0  0  0  0  0  0  0  0  0
   -1.3820   -0.9830    0.0560 C   0  0  2  0  0  0  0  0  0  0  0  0
   -0.1210   -1.2630    0.6170 O   0  0  0  0  0  0  0  0  0  0  0  0
    1.7480    2.4540   -1.1970 C   0  0  0  0  0  0  0  0  0  0  0  0
    1.1360    2.7960   -2.2230 O   0  0  0  0  0  0  0  0  0  0  0  0
    2.4010    3.4460   -0.4880 O   0  0  0  0  0  0  0  0  0  0  0  0
  1  2  1  0
  2  3  2  0
  2  4  1  0
  4  5  1  0
  6  5  1  6
  6  7  1  0
  6 19  1  0
  7  8  1  0
  8  9  1  0
  9 10  1  1
  9 11  1  0
  9 17  1  0
 11 12  1  0
 12 13  1  0
 13 14  1  1
 13 15  1  0
 15 16  1  6
 15 17  1  0
 17 18  1  1
 19 20  2  0
 19 21  1  0
M  CHG  1   7   1
M  END
