
     RDKit          3D

 31 34  0  0  0  0  0  0  0  0999 V2000
   -7.0940    3.3380   -2.0070 N   0  0  0  0  0  0  0  0  0  0  0  0
   -6.8170    2.1850   -2.1350 C   0  0  0  0  0  0  0  0  0  0  0  0
   -6.4730    0.7720   -2.2660 C   0  0  0  0  0  0  0  0  0  0  0  0
   -5.6480    0.0850   -1.4620 C   0  0  0  0  0  0  0  0  0  0  0  0
   -5.2940   -1.2340   -1.6790 C   0  0  0  0  0  0  0  0  0  0  0  0
   -4.4740   -1.8500   -0.8800 O   0  0  0  0  0  0  0  0  0  0  0  0
   -3.6580   -2.3390   -0.0240 C   0  0  0  0  0  0  0  0  0  0  0  0
   -2.2980   -1.6370   -0.0120 C   0  0  0  0  0  0  0  0  0  0  0  0
   -1.6490   -1.0460    1.0160 C   0  0  0  0  0  0  0  0  0  0  0  0
   -0.3920   -0.6180    0.5860 C   0  0  0  0  0  0  0  0  0  0  0  0
    0.6520    0.0190    1.4060 C   0  0  0  0  0  0  0  0  0  0  0  0
    0.4710    0.3400    2.6860 C   0  0  0  0  0  0  0  0  0  0  0  0
    1.5390    0.8720    3.4170 C   0  0  0  0  0  0  0  0  0  0  0  0
    2.7140    1.0230    2.7430 N   0  0  0  0  0  0  0  0  0  0  0  0
    2.8840    0.6920    1.4450 C   0  0  0  0  0  0  0  0  0  0  0  0
    4.1900    0.8580    0.8740 C   0  0  0  0  0  0  0  0  0  0  0  0
    4.4580    0.7000   -0.4860 C   0  0  0  0  0  0  0  0  0  0  0  0
    5.6950    0.8680   -0.9630 N   0  0  0  0  0  0  0  0  0  0  0  0
    6.7870    1.1960   -0.2130 C   0  0  0  0  0  0  0  0  0  0  0  0
    6.5420    1.3630    1.1650 C   0  0  0  0  0  0  0  0  0  0  0  0
    7.8810    1.7970    2.2480 S   0  0  2  0  0  0  0  0  0  0  0  0
    8.6070    0.5290    2.5920 O   0  0  0  0  0  0  0  0  0  0  0  0
    7.3040    2.3580    3.5060 O   0  0  0  0  0  0  0  0  0  0  0  0
    5.3230    1.1940    1.6330 C   0  0  0  0  0  0  0  0  0  0  0  0
    1.8670    0.1900    0.7610 N   0  0  0  0  0  0  0  0  0  0  0  0
   -0.3100   -0.9650   -0.7380 C   0  0  0  0  0  0  0  0  0  0  0  0
    0.9990   -0.6760   -1.8560 Cl  0  0  0  0  0  0  0  0  0  0  0  0
   -1.4720   -1.5820   -1.0910 N   0  0  0  0  0  0  0  0  0  0  0  0
   -5.8440   -1.8800   -2.8010 C   0  0  0  0  0  0  0  0  0  0  0  0
   -6.6520   -1.1590   -3.5620 C   0  0  0  0  0  0  0  0  0  0  0  0
   -7.0380    0.1620   -3.4060 N   0  0  0  0  0  0  0  0  0  0  0  0
  1  2  3  0
  2  3  1  0
  3  4  2  0
  3 31  1  0
  4  5  1  0
  5  6  1  0
  5 29  2  0
  6  7  1  0
  7  8  1  0
  8  9  2  0
  8 28  1  0
  9 10  1  0
 10 11  1  0
 10 26  2  0
 11 12  2  0
 11 25  1  0
 12 13  1  0
 13 14  2  0
 14 15  1  0
 15 16  1  0
 15 25  2  0
 16 17  2  0
 16 24  1  0
 17 18  1  0
 18 19  2  0
 19 20  1  0
 21 20  1  6
 20 24  2  0
 21 22  2  0
 21 23  2  0
 26 27  1  0
 26 28  1  0
 29 30  1  0
 30 31  2  0
M  END
