
     RDKit          3D

 32 34  0  0  0  0  0  0  0  0999 V2000
   -7.0430    2.2520   -0.0520 C   0  0  0  0  0  0  0  0  0  0  0  0
   -5.8360    1.4010   -0.5210 C   0  0  1  0  0  0  0  0  0  0  0  0
   -4.7320    2.3960   -0.7150 C   0  0  0  0  0  0  0  0  0  0  0  0
   -5.5920    0.3200    0.4560 C   0  0  1  0  0  0  0  0  0  0  0  0
   -6.7600   -0.5400    0.5950 N   0  0  0  0  0  0  0  0  0  0  0  0
   -7.2010   -1.2020   -0.5670 C   0  0  0  0  0  0  0  0  0  0  0  0
   -8.3780   -1.9910   -0.2090 N   0  0  0  0  0  0  0  0  0  0  0  0
   -4.4010   -0.5080    0.3140 C   0  0  0  0  0  0  0  0  0  0  0  0
   -4.5610   -1.7470    0.2060 O   0  0  0  0  0  0  0  0  0  0  0  0
   -3.0980   -0.0090    0.2950 N   0  0  0  0  0  0  0  0  0  0  0  0
   -1.8960   -0.7460    0.1580 C   0  0  0  0  0  0  0  0  0  0  0  0
   -1.7790   -2.1070    0.2290 C   0  0  0  0  0  0  0  0  0  0  0  0
   -0.5740   -2.7850    0.0690 C   0  0  0  0  0  0  0  0  0  0  0  0
    0.5590   -2.0820   -0.1700 C   0  0  0  0  0  0  0  0  0  0  0  0
    0.5220   -0.7080   -0.2540 C   0  0  0  0  0  0  0  0  0  0  0  0
   -0.6910   -0.0720   -0.0910 C   0  0  0  0  0  0  0  0  0  0  0  0
    1.7550    0.1260   -0.5170 C   0  0  0  0  0  0  0  0  0  0  0  0
    2.9180   -0.6210   -0.7960 N   0  0  1  0  0  0  0  0  0  0  0  0
    3.8770   -0.7280    0.2460 C   0  0  2  0  0  0  0  0  0  0  0  0
    3.3820   -0.5400    1.6260 C   0  0  0  0  0  0  0  0  0  0  0  0
    5.0380    0.2330    0.0550 C   0  0  0  0  0  0  0  0  0  0  0  0
    4.9640    0.9480   -0.9610 O   0  0  0  0  0  0  0  0  0  0  0  0
    6.0870    0.2740    0.9770 N   0  0  0  0  0  0  0  0  0  0  0  0
    7.1950    1.1280    0.8770 C   0  0  0  0  0  0  0  0  0  0  0  0
    7.4110    2.0310   -0.1250 C   0  0  0  0  0  0  0  0  0  0  0  0
    8.5690    2.8120   -0.0800 C   0  0  0  0  0  0  0  0  0  0  0  0
    9.4770    2.6930    0.9320 C   0  0  0  0  0  0  0  0  0  0  0  0
    9.2360    1.7930    1.9070 N   0  0  0  0  0  0  0  0  0  0  0  0
    8.1350    1.0330    1.8880 C   0  0  0  0  0  0  0  0  0  0  0  0
    7.9750    0.2030    2.8460 O   0  0  0  0  0  0  0  0  0  0  0  0
    2.6320   -1.9430   -1.3600 C   0  0  0  0  0  0  0  0  0  0  0  0
    1.8880   -2.7930   -0.3520 C   0  0  0  0  0  0  0  0  0  0  0  0
  2  1  1  1
  2  3  1  0
  2  4  1  0
  4  5  1  6
  4  8  1  0
  5  6  1  0
  6  7  1  0
  8  9  2  0
  8 10  1  0
 10 11  1  0
 11 12  2  0
 11 16  1  0
 12 13  1  0
 13 14  2  0
 14 15  1  0
 14 32  1  0
 15 16  2  0
 15 17  1  0
 18 17  1  1
 18 19  1  0
 18 31  1  0
 19 20  1  1
 19 21  1  0
 21 22  2  0
 21 23  1  0
 23 24  1  0
 24 25  2  0
 24 29  1  0
 25 26  1  0
 26 27  2  0
 27 28  1  0
 28 29  1  0
 29 30  2  0
 31 32  1  0
M  CHG  2   7   1  18   1
M  END
