
     RDKit          3D

 32 34  0  0  0  0  0  0  0  0999 V2000
    7.1920   -3.8800    0.4570 C   0  0  0  0  0  0  0  0  0  0  0  0
    6.2680   -2.7720    0.2000 N   0  0  0  0  0  0  0  0  0  0  0  0
    6.2030   -1.9630    1.3970 C   0  0  1  0  0  0  0  0  0  0  0  0
    6.9480   -0.6880    1.1910 C   0  0  0  0  0  0  0  0  0  0  0  0
    5.9480    0.3970    1.4340 C   0  0  0  0  0  0  0  0  0  0  0  0
    4.6510   -0.2210    1.2880 N   0  0  1  0  0  0  0  0  0  0  0  0
    4.2320   -0.0900   -0.0890 C   0  0  0  0  0  0  0  0  0  0  0  0
    3.7550    1.2700   -0.4230 C   0  0  0  0  0  0  0  0  0  0  0  0
    3.3690    1.4600   -1.6110 O   0  0  0  0  0  0  0  0  0  0  0  0
    3.7020    2.3510    0.4800 N   0  0  0  0  0  0  0  0  0  0  0  0
    3.2190    3.6570    0.1020 C   0  0  0  0  0  0  0  0  0  0  0  0
    1.7790    3.6610   -0.2490 C   0  0  0  0  0  0  0  0  0  0  0  0
    0.9980    2.5360   -0.1490 C   0  0  0  0  0  0  0  0  0  0  0  0
   -0.3700    2.5690   -0.4650 C   0  0  0  0  0  0  0  0  0  0  0  0
   -1.1190    1.3760   -0.3510 N   0  0  0  0  0  0  0  0  0  0  0  0
   -2.5040    1.2060   -0.4570 C   0  0  0  0  0  0  0  0  0  0  0  0
   -3.2260    2.2000   -0.6760 O   0  0  0  0  0  0  0  0  0  0  0  0
   -3.1760   -0.1180   -0.3200 C   0  0  0  0  0  0  0  0  0  0  0  0
   -4.6310    0.0450   -0.4770 C   0  0  0  0  0  0  0  0  0  0  0  0
   -5.1630    1.1860   -0.7010 O   0  0  0  0  0  0  0  0  0  0  0  0
   -5.5010   -1.0550   -0.3870 N   0  0  0  0  0  0  0  0  0  0  0  0
   -6.9540   -0.9390   -0.5370 C   0  0  2  0  0  0  0  0  0  0  0  0
   -7.5250   -1.2840    0.8430 C   0  0  0  0  0  0  0  0  0  0  0  0
   -7.4600   -2.7870    1.0610 C   0  0  0  0  0  0  0  0  0  0  0  0
   -8.3120   -3.5250    0.0720 C   0  0  0  0  0  0  0  0  0  0  0  0
   -8.5960   -2.6980   -1.1470 C   0  0  0  0  0  0  0  0  0  0  0  0
   -7.4010   -1.9080   -1.5810 C   0  0  0  0  0  0  0  0  0  0  0  0
   -0.8660    3.7750   -0.8710 C   0  0  0  0  0  0  0  0  0  0  0  0
   -0.0790    4.9360   -0.9780 C   0  0  0  0  0  0  0  0  0  0  0  0
    1.2520    4.8800   -0.6650 C   0  0  0  0  0  0  0  0  0  0  0  0
    2.1150    5.9990   -0.7440 N   0  0  0  0  0  0  0  0  0  0  0  0
    4.8080   -1.5550    1.7460 C   0  0  0  0  0  0  0  0  0  0  0  0
  1  2  1  0
  3  2  1  6
  3  4  1  0
  3 32  1  0
  4  5  1  0
  5  6  1  0
  6  7  1  6
  6 32  1  0
  7  8  1  0
  8  9  2  0
  8 10  1  0
 10 11  1  0
 11 12  1  0
 12 13  2  0
 12 30  1  0
 13 14  1  0
 14 15  1  0
 14 28  2  0
 15 16  1  0
 16 17  2  0
 16 18  1  0
 18 19  1  0
 19 20  2  0
 19 21  1  0
 22 21  1  1
 22 23  1  0
 22 27  1  0
 23 24  1  0
 24 25  1  0
 25 26  1  0
 26 27  1  0
 28 29  1  0
 29 30  2  0
 30 31  1  0
M  CHG  2   2   1   6   1
M  END
