
     RDKit          3D

 32 34  0  0  0  0  0  0  0  0999 V2000
    6.0570   -0.5730    4.4860 C   0  0  0  0  0  0  0  0  0  0  0  0
    5.6840    0.4090    3.3880 C   0  0  0  0  0  0  0  0  0  0  0  0
    5.9000   -0.2220    2.0300 C   0  0  0  0  0  0  0  0  0  0  0  0
    5.5360    0.7080    0.8930 C   0  0  0  0  0  0  0  0  0  0  0  0
    4.0980    1.1340    0.9560 C   0  0  0  0  0  0  0  0  0  0  0  0
    3.1280   -0.0190    0.8770 C   0  0  1  0  0  0  0  0  0  0  0  0
    1.7380    0.5300    0.9930 C   0  0  0  0  0  0  0  0  0  0  0  0
    0.7070   -0.4690    0.9450 N   0  0  0  0  0  0  0  0  0  0  0  0
   -0.6690   -0.2200    1.1850 C   0  0  0  0  0  0  0  0  0  0  0  0
   -1.1350   -0.1610    2.5140 C   0  0  0  0  0  0  0  0  0  0  0  0
   -2.4560    0.0470    2.8070 C   0  0  0  0  0  0  0  0  0  0  0  0
   -3.3880    0.2070    1.8060 C   0  0  0  0  0  0  0  0  0  0  0  0
   -4.6830    0.3830    2.0970 N   0  0  0  0  0  0  0  0  0  0  0  0
   -5.6000    0.5150    1.1170 C   0  0  0  0  0  0  0  0  0  0  0  0
   -6.8130    0.6870    1.4110 O   0  0  0  0  0  0  0  0  0  0  0  0
   -5.2530    0.4750   -0.2140 C   0  0  0  0  0  0  0  0  0  0  0  0
   -6.2040    0.5230   -1.3150 C   0  0  0  0  0  0  0  0  0  0  0  0
   -5.7980    1.0320   -2.4280 O   0  0  0  0  0  0  0  0  0  0  0  0
   -7.5100    0.0300   -1.1850 N   0  0  0  0  0  0  0  0  0  0  0  0
   -8.4540    0.0540   -2.2230 N   0  0  0  0  0  0  0  0  0  0  0  0
   -9.7040    0.7080   -2.0340 C   0  0  0  0  0  0  0  0  0  0  0  0
  -10.6890    0.7010   -3.1800 C   0  0  0  0  0  0  0  0  0  0  0  0
   -9.9890    1.2740   -0.9510 O   0  0  0  0  0  0  0  0  0  0  0  0
   -3.8960    0.2920   -0.4990 C   0  0  0  0  0  0  0  0  0  0  0  0
   -2.9420    0.1540    0.4830 C   0  0  0  0  0  0  0  0  0  0  0  0
   -1.6060   -0.0560    0.1980 C   0  0  0  0  0  0  0  0  0  0  0  0
    3.3640   -0.8710   -0.2400 N   0  0  0  0  0  0  0  0  0  0  0  0
    3.4290   -0.2530   -1.5270 C   0  0  1  0  0  0  0  0  0  0  0  0
    4.4510   -1.0630   -2.3410 C   0  0  0  0  0  0  0  0  0  0  0  0
    3.9850   -0.9460   -3.7620 C   0  0  0  0  0  0  0  0  0  0  0  0
    2.6270   -0.4880   -3.7350 N   0  0  0  0  0  0  0  0  0  0  0  0
    2.1790   -0.5510   -2.3600 C   0  0  0  0  0  0  0  0  0  0  0  0
  1  2  1  0
  2  3  1  0
  3  4  1  0
  4  5  1  0
  6  5  1  6
  6  7  1  0
  6 27  1  0
  7  8  1  0
  8  9  1  0
  9 10  2  0
  9 26  1  0
 10 11  1  0
 11 12  2  0
 12 13  1  0
 12 25  1  0
 13 14  1  0
 14 15  2  0
 14 16  1  0
 16 17  1  0
 16 24  2  0
 17 18  2  0
 17 19  1  0
 19 20  1  0
 20 21  1  0
 21 22  1  0
 21 23  2  0
 24 25  1  0
 25 26  2  0
 28 27  1  1
 28 29  1  0
 28 32  1  0
 29 30  1  0
 30 31  1  0
 31 32  1  0
M  CHG  2  27   1  31   1
M  END
