
     RDKit          3D

 32 35  0  0  0  0  0  0  0  0999 V2000
   -3.6800   -5.6960   -1.3130 C   0  0  0  0  0  0  0  0  0  0  0  0
   -2.9720   -4.8920   -0.5430 C   0  0  0  0  0  0  0  0  0  0  0  0
   -3.6200   -4.1860    0.5940 C   0  0  0  0  0  0  0  0  0  0  0  0
   -3.5120   -2.6800    0.4460 C   0  0  0  0  0  0  0  0  0  0  0  0
   -2.1310   -2.3410    0.4090 N   0  0  0  0  0  0  0  0  0  0  0  0
   -1.6360   -1.1630    0.2300 C   0  0  0  0  0  0  0  0  0  0  0  0
   -0.1880   -1.1510    0.2450 C   0  0  0  0  0  0  0  0  0  0  0  0
    0.4820    0.0490    0.5580 N   0  0  0  0  0  0  0  0  0  0  0  0
    1.9090   -0.0590    0.4710 C   0  0  0  0  0  0  0  0  0  0  0  0
    2.4490    0.2280   -0.7370 N   0  0  0  0  0  0  0  0  0  0  0  0
    3.7750    0.1660   -0.9560 C   0  0  0  0  0  0  0  0  0  0  0  0
    4.5740   -0.2030    0.1000 C   0  0  0  0  0  0  0  0  0  0  0  0
    5.9450   -0.3440    0.1490 C   0  0  0  0  0  0  0  0  0  0  0  0
    6.9550   -0.1360   -0.9280 C   0  0  0  0  0  0  0  0  0  0  0  0
    6.2270   -0.7370    1.4610 C   0  0  0  0  0  0  0  0  0  0  0  0
    7.8480   -1.0520    2.0490 Cl  0  0  0  0  0  0  0  0  0  0  0  0
    5.0630   -0.8150    2.1280 N   0  0  0  0  0  0  0  0  0  0  0  0
    4.0300   -0.5010    1.3490 C   0  0  0  0  0  0  0  0  0  0  0  0
    2.6800   -0.4170    1.4940 N   0  0  0  0  0  0  0  0  0  0  0  0
   -0.0140    1.6430    1.0290 S   0  0  2  0  0  0  0  0  0  0  0  0
    1.0210    2.6690    0.6660 O   0  0  0  0  0  0  0  0  0  0  0  0
   -0.1930    1.7260    2.5350 O   0  0  0  0  0  0  0  0  0  0  0  0
   -1.4920    2.0680    0.2220 C   0  0  0  0  0  0  0  0  0  0  0  0
   -1.5590    3.4190   -0.0540 C   0  0  0  0  0  0  0  0  0  0  0  0
   -2.6620    3.9640   -0.6990 C   0  0  0  0  0  0  0  0  0  0  0  0
   -2.7270    5.3390   -0.9790 O   0  0  0  0  0  0  0  0  0  0  0  0
   -1.6390    6.1630   -0.5880 C   0  0  0  0  0  0  0  0  0  0  0  0
   -3.6740    3.1290   -1.0500 C   0  0  0  0  0  0  0  0  0  0  0  0
   -4.7520    3.6680   -1.6810 F   0  0  0  0  0  0  0  0  0  0  0  0
   -3.6010    1.7790   -0.7710 C   0  0  0  0  0  0  0  0  0  0  0  0
   -2.5150    1.2180   -0.1320 C   0  0  0  0  0  0  0  0  0  0  0  0
   -2.6330   -0.1640    0.0600 N   0  0  0  0  0  0  0  0  0  0  0  0
  1  2  2  0
  2  3  1  0
  3  4  1  0
  4  5  1  0
  5  6  2  3
  6  7  1  0
  6 32  1  0
  7  8  1  0
  8  9  1  0
 20  8  1  1
  9 10  2  0
  9 19  1  0
 10 11  1  0
 11 12  2  0
 12 13  1  0
 12 18  1  0
 13 14  1  0
 13 15  2  0
 15 16  1  0
 15 17  1  0
 17 18  1  0
 18 19  2  0
 20 21  2  0
 20 22  2  0
 20 23  1  0
 23 24  2  0
 23 31  1  0
 24 25  1  0
 25 26  1  0
 25 28  2  0
 26 27  1  0
 28 29  1  0
 28 30  1  0
 30 31  2  0
 31 32  1  0
M  END
