
     RDKit          3D

 14 14  0  0  0  0  0  0  0  0999 V2000
   -2.7190   -1.8760    1.1700 C   0  0  0  0  0  0  0  0  0  0  0  0
   -2.8450   -0.7290    0.5630 C   0  0  0  0  0  0  0  0  0  0  0  0
   -4.1380   -0.3230    0.2040 O   0  0  0  0  0  0  0  0  0  0  0  0
   -4.3350    0.8660   -0.4320 C   0  0  0  0  0  0  0  0  0  0  0  0
   -3.3300    1.6640   -0.7290 C   0  0  0  0  0  0  0  0  0  0  0  0
   -1.9840    1.2890   -0.3800 C   0  0  0  0  0  0  0  0  0  0  0  0
   -1.7240    0.1340    0.2470 C   0  0  0  0  0  0  0  0  0  0  0  0
   -0.3490   -0.1910    0.5730 C   0  0  0  0  0  0  0  0  0  0  0  0
    0.0680   -1.2090    1.1470 O   0  0  0  0  0  0  0  0  0  0  0  0
    0.6310    0.7310    0.2100 O   0  0  0  0  0  0  0  0  0  0  0  0
    1.9970    0.5780    0.4450 C   0  0  0  0  0  0  0  0  0  0  0  0
    2.6100   -0.6370   -0.2130 C   0  0  0  0  0  0  0  0  0  0  0  0
    4.1020   -0.6800    0.1230 C   0  0  0  0  0  0  0  0  0  0  0  0
    4.6660    0.4880   -0.3690 O   0  0  0  0  0  0  0  0  0  0  0  0
  1  2  2  0
  2  3  1  0
  2  7  1  0
  3  4  1  0
  4  5  2  0
  5  6  1  0
  6  7  2  0
  7  8  1  0
  8  9  2  0
  8 10  1  0
 10 11  1  0
 11 12  1  0
 12 13  1  0
 13 14  1  0
M  END
