
     RDKit          3D

 14 14  0  0  0  0  0  0  0  0999 V2000
   -0.2330    0.6840   -1.0600 O   0  0  0  0  0  0  0  0  0  0  0  0
   -0.8330    0.7150    0.0540 C   0  0  0  0  0  0  0  0  0  0  0  0
   -2.2190    0.1930    0.0830 C   0  0  0  0  0  0  0  0  0  0  0  0
   -2.6860   -0.2960   -1.2490 C   0  0  0  0  0  0  0  0  0  0  0  0
   -4.1150   -0.7990   -1.0720 C   0  0  0  0  0  0  0  0  0  0  0  0
   -4.5480   -1.2530   -2.3080 O   0  0  0  0  0  0  0  0  0  0  0  0
   -0.1630    1.2210    1.1300 O   0  0  0  0  0  0  0  0  0  0  0  0
    1.1620    1.7110    1.0620 C   0  0  0  0  0  0  0  0  0  0  0  0
    2.1330    0.7040    0.6260 C   0  0  0  0  0  0  0  0  0  0  0  0
    2.8540    0.8820   -0.4650 C   0  0  0  0  0  0  0  0  0  0  0  0
    3.8440   -0.0690   -0.9730 C   0  0  0  0  0  0  0  0  0  0  0  0
    3.9860   -1.2210   -0.2040 O   0  0  0  0  0  0  0  0  0  0  0  0
    3.2480   -1.4280    0.9340 C   0  0  0  0  0  0  0  0  0  0  0  0
    2.3610   -0.5360    1.3550 C   0  0  0  0  0  0  0  0  0  0  0  0
  1  2  2  0
  2  3  1  0
  2  7  1  0
  3  4  1  0
  4  5  1  0
  5  6  1  0
  7  8  1  0
  8  9  1  0
  9 10  2  0
  9 14  1  0
 10 11  1  0
 11 12  1  0
 12 13  1  0
 13 14  2  0
M  END
