
     RDKit          3D

 14 14  0  0  0  0  0  0  0  0999 V2000
   -4.0140   -0.7170   -0.5050 C   0  0  0  0  0  0  0  0  0  0  0  0
   -2.7920    0.1940   -0.4170 C   0  0  1  0  0  0  0  0  0  0  0  0
   -3.2090    1.5890    0.0210 C   0  0  0  0  0  0  0  0  0  0  0  0
   -1.9830   -0.3440    0.6200 O   0  0  0  0  0  0  0  0  0  0  0  0
   -0.6840   -0.6820    0.3370 C   0  0  0  0  0  0  0  0  0  0  0  0
   -0.2370   -0.5150   -0.8040 O   0  0  0  0  0  0  0  0  0  0  0  0
    0.1530   -1.2380    1.4040 C   0  0  0  0  0  0  0  0  0  0  0  0
    1.4210   -1.5050    0.9000 O   0  0  0  0  0  0  0  0  0  0  0  0
    2.2840   -0.5810    0.3460 C   0  0  0  0  0  0  0  0  0  0  0  0
    3.3350   -1.0660   -0.3040 C   0  0  0  0  0  0  0  0  0  0  0  0
    4.3380   -0.1940   -0.9450 C   0  0  0  0  0  0  0  0  0  0  0  0
    4.0560    1.1670   -0.7890 O   0  0  0  0  0  0  0  0  0  0  0  0
    2.9680    1.6730   -0.1160 C   0  0  0  0  0  0  0  0  0  0  0  0
    2.1130    0.8420    0.4320 C   0  0  0  0  0  0  0  0  0  0  0  0
  2  1  1  1
  2  3  1  0
  2  4  1  0
  4  5  1  0
  5  6  2  0
  5  7  1  0
  7  8  1  0
  8  9  1  0
  9 10  2  0
  9 14  1  0
 10 11  1  0
 11 12  1  0
 12 13  1  0
 13 14  2  0
M  END
