
     RDKit          3D

 14 14  0  0  0  0  0  0  0  0999 V2000
   -2.4300    1.4120    0.6340 C   0  0  0  0  0  0  0  0  0  0  0  0
   -2.1770    0.6390   -0.6280 C   0  0  2  0  0  0  0  0  0  0  0  0
   -2.8250    1.3710   -1.7810 C   0  0  0  0  0  0  0  0  0  0  0  0
   -2.7230   -0.7500   -0.5930 C   0  0  0  0  0  0  0  0  0  0  0  0
   -2.0690   -1.5200    0.5440 C   0  0  0  0  0  0  0  0  0  0  0  0
   -0.6360   -1.2090    0.6660 C   0  0  0  0  0  0  0  0  0  0  0  0
   -0.0200   -0.2290    0.0290 C   0  0  0  0  0  0  0  0  0  0  0  0
    1.3970    0.0480    0.1750 C   0  0  0  0  0  0  0  0  0  0  0  0
    1.9150    0.9960   -0.4620 O   0  0  0  0  0  0  0  0  0  0  0  0
    2.2430   -0.6820    0.9900 O   0  0  0  0  0  0  0  0  0  0  0  0
    3.6050   -0.4390    1.1490 C   0  0  0  0  0  0  0  0  0  0  0  0
    4.4020   -0.5420   -0.1220 C   0  0  0  0  0  0  0  0  0  0  0  0
    5.7380   -0.2720    0.2110 O   0  0  0  0  0  0  0  0  0  0  0  0
   -0.7760    0.5640   -0.8140 O   0  0  0  0  0  0  0  0  0  0  0  0
  2  1  1  1
  2  3  1  0
  2  4  1  0
  2 14  1  0
  4  5  1  0
  5  6  1  0
  6  7  2  0
  7  8  1  0
  7 14  1  0
  8  9  2  0
  8 10  1  0
 10 11  1  0
 11 12  1  0
 12 13  1  0
M  END
