
     RDKit          3D

 14 14  0  0  0  0  0  0  0  0999 V2000
    4.1740    1.0790    0.8890 C   0  0  0  0  0  0  0  0  0  0  0  0
    4.0790   -0.4290    0.9230 C   0  0  0  0  0  0  0  0  0  0  0  0
    3.6080   -0.9810   -0.2410 O   0  0  0  0  0  0  0  0  0  0  0  0
    2.3540   -0.5770   -0.6110 C   0  0  0  0  0  0  0  0  0  0  0  0
    1.2900   -0.9130    0.4300 C   0  0  0  0  0  0  0  0  0  0  0  0
    0.0440   -0.4540   -0.0520 O   0  0  0  0  0  0  0  0  0  0  0  0
   -1.1480   -0.5760    0.6060 C   0  0  0  0  0  0  0  0  0  0  0  0
   -1.1640   -1.1390    1.7340 O   0  0  0  0  0  0  0  0  0  0  0  0
   -2.4200   -0.0800    0.0580 C   0  0  0  0  0  0  0  0  0  0  0  0
   -2.5080    0.5240   -1.1160 C   0  0  0  0  0  0  0  0  0  0  0  0
   -3.9120    0.8880   -1.3550 C   0  0  0  0  0  0  0  0  0  0  0  0
   -4.6300    0.4150   -0.1620 C   0  0  0  0  0  0  0  0  0  0  0  0
   -3.7380   -0.1420    0.6400 C   0  0  0  0  0  0  0  0  0  0  0  0
   -4.0610   -0.7010    1.8670 O   0  0  0  0  0  0  0  0  0  0  0  0
  1  2  1  0
  2  3  1  0
  3  4  1  0
  4  5  1  0
  5  6  1  0
  6  7  1  0
  7  8  2  0
  7  9  1  0
  9 10  2  0
  9 13  1  0
 10 11  1  0
 11 12  1  0
 12 13  2  0
 13 14  1  0
M  END
