
     RDKit          3D

 14 14  0  0  0  0  0  0  0  0999 V2000
    4.5600   -0.3530    0.5430 C   0  0  0  0  0  0  0  0  0  0  0  0
    3.8790   -0.7390   -0.5760 O   0  0  0  0  0  0  0  0  0  0  0  0
    3.2760    0.2690   -1.2950 C   0  0  0  0  0  0  0  0  0  0  0  0
    2.2480    0.9990   -0.4720 C   0  0  0  0  0  0  0  0  0  0  0  0
    1.2810    0.0360   -0.0810 O   0  0  0  0  0  0  0  0  0  0  0  0
    0.1510    0.3150    0.6510 C   0  0  0  0  0  0  0  0  0  0  0  0
   -0.0700    1.4830    1.0120 O   0  0  0  0  0  0  0  0  0  0  0  0
   -0.8030   -0.7980    1.0040 C   0  0  0  0  0  0  0  0  0  0  0  0
   -2.1790   -0.4340    0.5060 C   0  0  0  0  0  0  0  0  0  0  0  0
   -2.7700   -1.2090   -0.3600 C   0  0  0  0  0  0  0  0  0  0  0  0
   -4.1060   -0.9530   -0.9100 C   0  0  0  0  0  0  0  0  0  0  0  0
   -4.6600    0.2230   -0.4130 O   0  0  0  0  0  0  0  0  0  0  0  0
   -4.0830    1.0680    0.4930 C   0  0  0  0  0  0  0  0  0  0  0  0
   -2.8670    0.7610    0.9550 C   0  0  0  0  0  0  0  0  0  0  0  0
  1  2  1  0
  2  3  1  0
  3  4  1  0
  4  5  1  0
  5  6  1  0
  6  7  2  0
  6  8  1  0
  8  9  1  0
  9 10  2  0
  9 14  1  0
 10 11  1  0
 11 12  1  0
 12 13  1  0
 13 14  2  0
M  END
