
     RDKit          3D

 11 12  0  0  0  0  0  0  0  0999 V2000
    0.9300    0.0320   -1.6500 N   0  0  0  0  0  0  0  0  0  0  0  0
    0.4050    0.4180   -0.3470 C   0  0  2  0  0  0  0  0  0  0  0  0
    1.5780    0.7710    0.4930 C   0  0  0  0  0  0  0  0  0  0  0  0
    2.0170    0.3050    1.6500 C   0  0  0  0  0  0  0  0  0  0  0  0
    3.1410    1.2290    1.6300 C   0  0  0  0  0  0  0  0  0  0  0  0
    2.7000    1.6840    0.4870 C   0  0  0  0  0  0  0  0  0  0  0  0
   -0.4060   -0.6730    0.2660 C   0  0  2  0  0  0  0  0  0  0  0  0
   -1.5300   -1.1620   -0.5590 C   0  0  0  0  0  0  0  0  0  0  0  0
   -2.7560   -0.9570    0.3060 C   0  0  0  0  0  0  0  0  0  0  0  0
   -2.2370   -0.0370    1.3770 C   0  0  0  0  0  0  0  0  0  0  0  0
   -0.8800   -0.2640    1.4920 O   0  0  0  0  0  0  0  0  0  0  0  0
  2  1  1  6
  2  3  1  0
  2  7  1  0
  3  4  2  0
  3  6  1  0
  4  5  1  0
  5  6  2  0
  7  8  1  6
  7 11  1  0
  8  9  1  0
  9 10  1  0
 10 11  1  0
M  CHG  1   1   1
M  END
