
     RDKit          3D

 11 11  0  0  0  0  0  0  0  0999 V2000
    1.6680   -0.6310    1.1670 C   0  0  0  0  0  0  0  0  0  0  0  0
    1.2490   -0.0790   -0.1550 C   0  0  2  0  0  0  0  0  0  0  0  0
    2.5590   -0.0310   -0.9800 C   0  0  0  0  0  0  0  0  0  0  0  0
    0.8630    1.3760   -0.1100 C   0  0  0  0  0  0  0  0  0  0  0  0
   -0.3250    1.7120    0.6980 C   0  0  0  0  0  0  0  0  0  0  0  0
   -1.6270    1.6570   -0.0200 C   0  0  0  0  0  0  0  0  0  0  0  0
   -2.1690    0.3230   -0.3330 C   0  0  0  0  0  0  0  0  0  0  0  0
   -1.6880   -0.8050    0.5060 C   0  0  1  0  0  0  0  0  0  0  0  0
   -2.7870   -1.6880    0.6920 O   0  0  0  0  0  0  0  0  0  0  0  0
   -0.6310   -1.6010   -0.1670 C   0  0  0  0  0  0  0  0  0  0  0  0
    0.3540   -0.8910   -0.9030 N   0  0  0  0  0  0  0  0  0  0  0  0
  2  1  1  1
  2  3  1  0
  2  4  1  0
  2 11  1  0
  4  5  1  0
  5  6  1  0
  6  7  1  0
  7  8  1  0
  8  9  1  6
  8 10  1  0
 10 11  1  0
M  CHG  1  11   1
M  END
