
     RDKit          3D

 11 11  0  0  0  0  0  0  0  0999 V2000
   -0.5460    3.4570    0.1510 C   0  0  0  0  0  0  0  0  0  0  0  0
    0.1800    2.3180    0.2350 C   0  0  0  0  0  0  0  0  0  0  0  0
    1.5000    2.4340    0.6650 O   0  0  0  0  0  0  0  0  0  0  0  0
   -0.4570    1.0960   -0.1210 C   0  0  0  0  0  0  0  0  0  0  0  0
    0.0320   -0.1300   -0.1230 C   0  0  0  0  0  0  0  0  0  0  0  0
    1.3880   -0.4690    0.2600 C   0  0  0  0  0  0  0  0  0  0  0  0
    1.8690   -1.7150    0.2530 C   0  0  0  0  0  0  0  0  0  0  0  0
    0.9800   -2.7810   -0.1620 C   0  0  0  0  0  0  0  0  0  0  0  0
   -0.2650   -2.5610   -0.5260 C   0  0  0  0  0  0  0  0  0  0  0  0
   -0.8950   -1.2350   -0.5550 C   0  0  1  0  0  0  0  0  0  0  0  0
   -2.1340   -1.1890    0.1930 N   0  0  0  0  0  0  0  0  0  0  0  0
  1  2  2  0
  2  3  1  0
  2  4  1  0
  4  5  2  3
  5  6  1  0
  5 10  1  0
  6  7  2  0
  7  8  1  0
  8  9  2  0
  9 10  1  0
 10 11  1  1
M  END
