
     RDKit          3D

 11 12  0  0  0  0  0  0  0  0999 V2000
   -1.2090    2.5500    0.2480 O   0  0  0  0  0  0  0  0  0  0  0  0
   -1.1740    1.1830    0.1460 C   0  0  0  0  0  0  0  0  0  0  0  0
   -2.3930    0.4830    0.1560 C   0  0  0  0  0  0  0  0  0  0  0  0
   -2.3830   -0.8520    0.0570 N   0  0  0  0  0  0  0  0  0  0  0  0
   -1.2130   -1.5190   -0.0510 C   0  0  0  0  0  0  0  0  0  0  0  0
   -0.0010   -0.8730   -0.0640 C   0  0  0  0  0  0  0  0  0  0  0  0
    1.2010   -1.5380   -0.1730 C   0  0  0  0  0  0  0  0  0  0  0  0
    2.4170   -0.8870   -0.1860 C   0  0  0  0  0  0  0  0  0  0  0  0
    2.4670    0.4870   -0.0880 C   0  0  0  0  0  0  0  0  0  0  0  0
    1.2540    1.1540    0.0220 C   0  0  0  0  0  0  0  0  0  0  0  0
    0.0290    0.5160    0.0360 C   0  0  0  0  0  0  0  0  0  0  0  0
  1  2  1  0
  2  3  2  0
  2 11  1  0
  3  4  1  0
  4  5  2  0
  5  6  1  0
  6  7  2  0
  6 11  1  0
  7  8  1  0
  8  9  2  0
  9 10  1  0
 10 11  2  0
M  CHG  1   4   1
M  END
