
     RDKit          3D

 26 27  0  0  0  0  0  0  0  0999 V2000
    2.6700    1.1130   -3.6270 C   0  0  0  0  0  0  0  0  0  0  0  0
    3.9280    0.2330   -3.6680 C   0  0  0  0  0  0  0  0  0  0  0  0
    4.2330   -0.5180   -2.4830 C   0  0  0  0  0  0  0  0  0  0  0  0
    3.6050   -0.3340   -1.3130 C   0  0  0  0  0  0  0  0  0  0  0  0
    2.6190    0.6100   -1.2110 O   0  0  0  0  0  0  0  0  0  0  0  0
    1.6180    0.3900   -0.2390 C   0  0  0  0  0  0  0  0  0  0  0  0
    0.3590    0.2320   -0.5870 C   0  0  0  0  0  0  0  0  0  0  0  0
   -0.6520    0.0070    0.4260 C   0  0  0  0  0  0  0  0  0  0  0  0
   -1.8510   -0.1240   -0.0070 N   0  0  0  0  0  0  0  0  0  0  0  0
   -3.2170   -0.4030    1.0680 S   0  0  0  0  0  0  0  0  0  0  0  0
   -2.5090   -0.2710    2.7270 C   0  0  0  0  0  0  0  0  0  0  0  0
   -3.2400   -0.0010    3.7730 C   0  0  0  0  0  0  0  0  0  0  0  0
   -4.7090    0.2260    3.7250 C   0  0  1  0  0  0  0  0  0  0  0  0
   -5.1880    0.5800    4.9920 O   0  0  0  0  0  0  0  0  0  0  0  0
   -5.1070    1.2360    2.7070 C   0  0  0  0  0  0  0  0  0  0  0  0
   -6.1970    0.6370    1.8850 C   0  0  0  0  0  0  0  0  0  0  0  0
   -6.5120   -0.7260    2.4270 C   0  0  0  0  0  0  0  0  0  0  0  0
   -5.3550   -1.0650    3.2950 C   0  0  0  0  0  0  0  0  0  0  0  0
   -1.1550   -0.4810    2.7710 O   0  0  0  0  0  0  0  0  0  0  0  0
   -0.2440   -0.0540    1.8320 C   0  0  0  0  0  0  0  0  0  0  0  0
    4.5000    0.1390   -4.8130 C   0  0  0  0  0  0  0  0  0  0  0  0
    5.6930   -0.5740   -5.2150 C   0  0  0  0  0  0  0  0  0  0  0  0
    6.4070   -1.2540   -4.2460 O   0  0  0  0  0  0  0  0  0  0  0  0
    7.1740   -0.5520   -3.2740 C   0  0  0  0  0  0  0  0  0  0  0  0
    7.1670    0.6840   -3.3440 O   0  0  0  0  0  0  0  0  0  0  0  0
    7.8990   -1.1880   -2.2910 O   0  0  0  0  0  0  0  0  0  0  0  0
  1  2  1  0
  2  3  1  0
  2 21  2  3
  3  4  2  3
  4  5  1  0
  5  6  1  0
  6  7  2  3
  7  8  1  0
  8  9  2  0
  8 20  1  0
  9 10  1  0
 10 11  1  0
 11 12  2  3
 11 19  1  0
 12 13  1  0
 13 14  1  1
 13 15  1  0
 13 18  1  0
 15 16  1  0
 16 17  1  0
 17 18  1  0
 19 20  1  0
 21 22  1  0
 22 23  1  0
 23 24  1  0
 24 25  2  0
 24 26  1  0
M  END
