
     RDKit          3D

 19 19  0  0  0  0  0  0  0  0999 V2000
   -2.2680    3.0650    1.0010 C   0  0  0  0  0  0  0  0  0  0  0  0
   -0.8530    2.8580    0.8270 N   0  0  0  0  0  0  0  0  0  0  0  0
   -0.3480    1.7060    0.6230 C   0  0  0  0  0  0  0  0  0  0  0  0
   -1.2440    0.5170    0.5600 C   0  0  0  0  0  0  0  0  0  0  0  0
   -0.8280   -0.3850   -0.4950 N   0  0  0  0  0  0  0  0  0  0  0  0
   -1.7990   -1.0180   -1.3330 C   0  0  0  0  0  0  0  0  0  0  0  0
   -2.2820   -2.3540   -0.9020 C   0  0  0  0  0  0  0  0  0  0  0  0
   -2.9590   -2.3990    0.4380 C   0  0  0  0  0  0  0  0  0  0  0  0
   -3.3840   -3.7180    0.7290 O   0  0  0  0  0  0  0  0  0  0  0  0
    0.5800   -0.6120   -0.6950 C   0  0  0  0  0  0  0  0  0  0  0  0
    1.0340   -1.6190   -1.2720 O   0  0  0  0  0  0  0  0  0  0  0  0
    1.4840    0.4090   -0.1840 C   0  0  0  0  0  0  0  0  0  0  0  0
    2.7950    0.2230   -0.3560 C   0  0  0  0  0  0  0  0  0  0  0  0
    3.6660    1.1830    0.1240 O   0  0  0  0  0  0  0  0  0  0  0  0
    5.0320    1.1060    0.0090 C   0  0  0  0  0  0  0  0  0  0  0  0
    5.5200    0.1050   -0.5660 O   0  0  0  0  0  0  0  0  0  0  0  0
    5.8840    2.0930    0.5040 O   0  0  0  0  0  0  0  0  0  0  0  0
    7.2170    2.0230    0.3940 O   0  0  0  0  0  0  0  0  0  0  0  0
    1.0110    1.5390    0.4600 O   0  0  0  0  0  0  0  0  0  0  0  0
  1  2  1  0
  2  3  2  3
  3  4  1  0
  3 19  1  0
  4  5  1  0
  5  6  1  0
  5 10  1  0
  6  7  1  0
  7  8  1  0
  8  9  1  0
 10 11  2  0
 10 12  1  0
 12 13  2  3
 12 19  1  0
 13 14  1  0
 14 15  1  0
 15 16  2  0
 15 17  1  0
 17 18  1  0
M  END
