
     RDKit          3D

 26 27  0  0  0  0  0  0  0  0999 V2000
   -0.0480    4.9540   -0.7730 C   0  0  0  0  0  0  0  0  0  0  0  0
   -0.1940    3.5480   -0.6900 O   0  0  0  0  0  0  0  0  0  0  0  0
   -1.4080    2.9030   -0.6440 C   0  0  0  0  0  0  0  0  0  0  0  0
   -2.4590    3.5810   -0.6760 O   0  0  0  0  0  0  0  0  0  0  0  0
   -1.5390    1.4880   -0.5610 N   0  0  0  0  0  0  0  0  0  0  0  0
   -0.5160    0.5820   -0.5170 C   0  0  0  0  0  0  0  0  0  0  0  0
    1.1900    1.0560   -0.5570 S   0  0  0  0  0  0  0  0  0  0  0  0
    1.7990    1.3280    1.0750 C   0  0  0  0  0  0  0  0  0  0  0  0
    2.9670    0.9900    1.5060 C   0  0  0  0  0  0  0  0  0  0  0  0
    3.9730    0.3290    0.7210 C   0  0  0  0  0  0  0  0  0  0  0  0
    3.7360   -0.0260   -0.6730 C   0  0  0  0  0  0  0  0  0  0  0  0
    5.1280    0.0550    1.3330 C   0  0  0  0  0  0  0  0  0  0  0  0
    6.2980   -0.6100    0.7390 C   0  0  0  0  0  0  0  0  0  0  0  0
    6.5860   -1.7910    1.4430 O   0  0  0  0  0  0  0  0  0  0  0  0
   -1.0280   -0.6940   -0.4390 C   0  0  0  0  0  0  0  0  0  0  0  0
   -0.0800   -2.2680   -0.3550 P   0  0  0  0  0  0  0  0  0  0  0  0
    0.3710   -2.6210    1.2830 O   0  0  0  0  0  0  0  0  0  0  0  0
   -1.0260   -3.5550   -1.0350 O   0  0  0  0  0  0  0  0  0  0  0  0
   -2.4060   -0.5920   -0.4350 C   0  0  0  0  0  0  0  0  0  0  0  0
   -3.4100   -1.5340   -0.3730 C   0  0  0  0  0  0  0  0  0  0  0  0
   -4.7190   -1.1290   -0.3870 C   0  0  0  0  0  0  0  0  0  0  0  0
   -5.7480   -2.0480   -0.3260 O   0  0  0  0  0  0  0  0  0  0  0  0
   -5.4190   -3.4210   -0.2490 C   0  0  0  0  0  0  0  0  0  0  0  0
   -5.0460    0.2060   -0.4610 C   0  0  0  0  0  0  0  0  0  0  0  0
   -4.0010    1.1250   -0.5220 C   0  0  0  0  0  0  0  0  0  0  0  0
   -2.6700    0.7660   -0.5110 C   0  0  0  0  0  0  0  0  0  0  0  0
  1  2  1  0
  2  3  1  0
  3  4  2  0
  3  5  1  0
  5  6  1  0
  5 26  1  0
  6  7  1  0
  6 15  2  0
  7  8  1  0
  8  9  2  3
  9 10  1  0
 10 11  1  0
 10 12  2  3
 12 13  1  0
 13 14  1  0
 15 16  1  0
 15 19  1  0
 16 17  1  0
 16 18  1  0
 19 20  2  0
 19 26  1  0
 20 21  1  0
 21 22  1  0
 21 24  2  0
 22 23  1  0
 24 25  1  0
 25 26  2  0
M  END
