
     RDKit          3D

 25 26  0  0  0  0  0  0  0  0999 V2000
   -5.9790    3.0960   -0.7710 C   0  0  0  0  0  0  0  0  0  0  0  0
   -5.0090    1.9340   -0.7550 C   0  0  0  0  0  0  0  0  0  0  0  0
   -4.7560    1.5220    0.5420 O   0  0  0  0  0  0  0  0  0  0  0  0
   -3.6850    0.2280    0.6960 P   0  0  0  0  0  0  0  0  0  0  0  0
   -2.8880   -0.3540   -0.8250 C   0  0  0  0  0  0  0  0  0  0  0  0
   -1.4050   -0.1080   -0.7090 C   0  0  0  0  0  0  0  0  0  0  0  0
   -0.8500    1.0670   -1.1330 C   0  0  0  0  0  0  0  0  0  0  0  0
    0.4990    1.3270   -1.0420 C   0  0  0  0  0  0  0  0  0  0  0  0
    1.3190    0.3460   -0.4960 C   0  0  0  0  0  0  0  0  0  0  0  0
    2.7750    0.5670   -0.4720 C   0  0  0  0  0  0  0  0  0  0  0  0
    3.2820    1.4940   -1.2990 C   0  0  0  0  0  0  0  0  0  0  0  0
    4.6750    1.8440   -1.4100 C   0  0  0  0  0  0  0  0  0  0  0  0
    5.7430    1.2030   -0.4550 S   0  0  2  0  0  0  0  0  0  0  0  0
    6.7190    0.4580   -1.3680 O   0  0  0  0  0  0  0  0  0  0  0  0
    4.9500    0.0500    0.5440 C   0  0  0  0  0  0  0  0  0  0  0  0
    5.6490   -0.7040    1.4700 O   0  0  0  0  0  0  0  0  0  0  0  0
    7.0110   -0.9880    1.3400 C   0  0  0  0  0  0  0  0  0  0  0  0
    7.2050   -1.6870    0.1520 O   0  0  0  0  0  0  0  0  0  0  0  0
    3.6290   -0.1480    0.4500 C   0  0  0  0  0  0  0  0  0  0  0  0
    3.1100   -1.1080    1.4000 N   0  0  0  0  0  0  0  0  0  0  0  0
    0.7700   -0.8310   -0.0720 C   0  0  0  0  0  0  0  0  0  0  0  0
   -0.6090   -1.0610   -0.1790 C   0  0  0  0  0  0  0  0  0  0  0  0
   -4.1310   -0.9850    1.8030 O   0  0  0  0  0  0  0  0  0  0  0  0
   -4.8180   -2.0470    1.2180 C   0  0  0  0  0  0  0  0  0  0  0  0
   -5.1790   -3.0810    2.2640 C   0  0  0  0  0  0  0  0  0  0  0  0
  1  2  1  0
  2  3  1  0
  3  4  1  0
  4  5  1  0
  4 23  1  0
  5  6  1  0
  6  7  2  0
  6 22  1  0
  7  8  1  0
  8  9  2  0
  9 10  1  0
  9 21  1  0
 10 11  2  0
 10 19  1  0
 11 12  1  0
 12 13  2  0
 13 14  2  0
 13 15  1  1
 15 16  1  0
 15 19  2  0
 16 17  1  0
 17 18  1  0
 19 20  1  0
 21 22  2  0
 23 24  1  0
 24 25  1  0
M  END
