
     RDKit          3D

 26 27  0  0  0  0  0  0  0  0999 V2000
   -8.4400    2.1450   -1.5090 C   0  0  0  0  0  0  0  0  0  0  0  0
   -7.0690    2.4800   -0.9780 C   0  0  0  0  0  0  0  0  0  0  0  0
   -6.0770    1.6910   -1.5560 O   0  0  0  0  0  0  0  0  0  0  0  0
   -4.5530    2.1980   -0.8420 P   0  0  0  0  0  0  0  0  0  0  0  0
   -4.2960    1.2320    0.6790 C   0  0  0  0  0  0  0  0  0  0  0  0
   -2.9510    0.5790    0.6450 C   0  0  0  0  0  0  0  0  0  0  0  0
   -2.5360   -0.2820    2.1560 S   0  0  0  0  0  0  0  0  0  0  0  0
   -0.7950   -0.7490    2.0880 C   0  0  0  0  0  0  0  0  0  0  0  0
    0.1090    0.4400    2.2150 C   0  0  0  0  0  0  0  0  0  0  0  0
    1.5070    0.0940    2.1530 N   0  0  0  0  0  0  0  0  0  0  0  0
    2.1130   -0.5420    1.0420 C   0  0  0  0  0  0  0  0  0  0  0  0
    1.4080   -0.8240    0.0560 O   0  0  0  0  0  0  0  0  0  0  0  0
    3.5520   -0.8730    1.0330 C   0  0  0  0  0  0  0  0  0  0  0  0
    4.2650   -0.5900    2.0280 O   0  0  0  0  0  0  0  0  0  0  0  0
    4.1570   -1.4880   -0.0360 O   0  0  0  0  0  0  0  0  0  0  0  0
    5.5060   -1.8170   -0.0870 C   0  0  0  0  0  0  0  0  0  0  0  0
    5.8840   -3.0580    0.3750 C   0  0  0  0  0  0  0  0  0  0  0  0
    7.1990   -3.4850    0.3700 C   0  0  0  0  0  0  0  0  0  0  0  0
    8.1840   -2.6230   -0.1240 C   0  0  0  0  0  0  0  0  0  0  0  0
    7.7750   -1.3880   -0.5790 C   0  0  0  0  0  0  0  0  0  0  0  0
    6.4640   -0.9620   -0.5740 C   0  0  0  0  0  0  0  0  0  0  0  0
    6.0730    0.2780   -1.0340 O   0  0  0  0  0  0  0  0  0  0  0  0
   -2.1360    0.5900   -0.3650 C   0  0  0  0  0  0  0  0  0  0  0  0
   -2.2680    1.2010   -1.6850 C   0  0  2  0  0  0  0  0  0  0  0  0
   -0.9300    1.8930   -2.0010 C   0  0  0  0  0  0  0  0  0  0  0  0
   -3.3340    1.9560   -1.9760 O   0  0  0  0  0  0  0  0  0  0  0  0
  1  2  1  0
  2  3  1  0
  3  4  1  0
  4  5  1  0
  4 26  1  0
  5  6  1  0
  6  7  1  0
  6 23  2  0
  7  8  1  0
  8  9  1  0
  9 10  1  0
 10 11  1  0
 11 12  2  0
 11 13  1  0
 13 14  2  0
 13 15  1  0
 15 16  1  0
 16 17  2  0
 16 21  1  0
 17 18  1  0
 18 19  2  0
 19 20  1  0
 20 21  2  0
 21 22  1  0
 23 24  1  0
 24 25  1  1
 24 26  1  0
M  END
