
     RDKit          3D

 25 26  0  0  0  0  0  0  0  0999 V2000
    3.0310   -3.1980    1.0250 C   0  0  0  0  0  0  0  0  0  0  0  0
    2.8510   -1.9330    0.4610 O   0  0  0  0  0  0  0  0  0  0  0  0
    1.6030   -1.4330    0.1630 C   0  0  0  0  0  0  0  0  0  0  0  0
    0.5140   -2.2060    0.4310 C   0  0  0  0  0  0  0  0  0  0  0  0
   -0.7530   -1.7160    0.1360 C   0  0  0  0  0  0  0  0  0  0  0  0
   -1.9350   -2.5590    0.4290 C   0  0  0  0  0  0  0  0  0  0  0  0
   -0.8700   -0.4620   -0.4190 C   0  0  0  0  0  0  0  0  0  0  0  0
   -2.1880    0.0850   -0.7410 C   0  0  0  0  0  0  0  0  0  0  0  0
   -2.4380    1.3300   -1.2970 C   0  0  0  0  0  0  0  0  0  0  0  0
   -3.8190    1.3880   -1.4110 C   0  0  0  0  0  0  0  0  0  0  0  0
   -4.3330    0.1990   -0.9280 C   0  0  0  0  0  0  0  0  0  0  0  0
   -5.7970   -0.1330   -0.8780 C   0  0  0  0  0  0  0  0  0  0  0  0
   -6.5110    0.4120    0.7400 P   0  0  0  0  0  0  0  0  0  0  0  0
   -7.9960    1.2520    0.5490 O   0  0  0  0  0  0  0  0  0  0  0  0
   -5.3980    1.3740    1.6450 O   0  0  0  0  0  0  0  0  0  0  0  0
   -3.3280   -0.5290   -0.5480 O   0  0  0  0  0  0  0  0  0  0  0  0
    0.2840    0.3070   -0.6810 C   0  0  0  0  0  0  0  0  0  0  0  0
    1.5430   -0.1510   -0.4010 C   0  0  0  0  0  0  0  0  0  0  0  0
    2.7230    0.5780   -0.6440 N   0  0  0  0  0  0  0  0  0  0  0  0
    2.8540    1.8540   -1.2050 C   0  0  0  0  0  0  0  0  0  0  0  0
    1.8380    2.4660   -1.5580 O   0  0  0  0  0  0  0  0  0  0  0  0
    4.4580    2.6520   -1.4360 S   0  0  0  0  0  0  0  0  0  0  0  0
    5.8020    1.7130   -0.6860 C   0  0  0  0  0  0  0  0  0  0  0  0
    5.6910    1.7740    0.8010 C   0  0  0  0  0  0  0  0  0  0  0  0
    6.7070    1.0540    1.4330 O   0  0  0  0  0  0  0  0  0  0  0  0
  1  2  1  0
  2  3  1  0
  3  4  2  0
  3 18  1  0
  4  5  1  0
  5  6  1  0
  5  7  2  0
  7  8  1  0
  7 17  1  0
  8  9  2  0
  8 16  1  0
  9 10  1  0
 10 11  2  0
 11 12  1  0
 11 16  1  0
 12 13  1  0
 13 14  1  0
 13 15  1  0
 17 18  2  0
 18 19  1  0
 19 20  1  0
 20 21  2  0
 20 22  1  0
 22 23  1  0
 23 24  1  0
 24 25  1  0
M  END
