
     RDKit          3D

 20 22  0  0  0  0  0  0  0  0999 V2000
   -2.4850    0.8160    1.6440 N   0  0  0  0  0  0  0  0  0  0  0  0
   -2.3920    0.8420    0.1850 C   0  0  2  0  0  0  0  0  0  0  0  0
   -3.7600    0.6300   -0.3630 C   0  0  2  0  0  0  0  0  0  0  0  0
   -4.5570   -0.1450    0.5120 O   0  0  0  0  0  0  0  0  0  0  0  0
   -3.7820    0.1250   -1.6550 O   0  0  0  0  0  0  0  0  0  0  0  0
   -3.0650   -1.0640   -1.7680 C   0  0  0  0  0  0  0  0  0  0  0  0
   -1.5880   -0.6800   -1.6420 C   0  0  0  0  0  0  0  0  0  0  0  0
   -1.3950   -0.2080   -0.2200 C   0  0  1  0  0  0  0  0  0  0  0  0
   -0.0030    0.2880   -0.0720 C   0  0  0  0  0  0  0  0  0  0  0  0
    0.2680    1.4720    0.3600 N   0  0  0  0  0  0  0  0  0  0  0  0
    1.5770    1.9820    0.5160 C   0  0  0  0  0  0  0  0  0  0  0  0
    1.8310    3.3710    1.0250 C   0  0  0  0  0  0  0  0  0  0  0  0
    3.1880    3.6360    1.0880 O   0  0  0  0  0  0  0  0  0  0  0  0
    2.5580    1.2170    0.2060 N   0  0  0  0  0  0  0  0  0  0  0  0
    2.3990   -0.0850   -0.2740 N   0  0  0  0  0  0  0  0  0  0  0  0
    3.5320   -0.9140   -0.6280 C   0  0  0  0  0  0  0  0  0  0  0  0
    3.7540   -2.0590    0.3060 C   0  0  0  0  0  0  0  0  0  0  0  0
    2.5910   -3.0320    0.3160 C   0  0  0  0  0  0  0  0  0  0  0  0
    1.0200   -2.1630    0.5720 S   0  0  0  0  0  0  0  0  0  0  0  0
    1.0850   -0.6400   -0.4350 C   0  0  1  0  0  0  0  0  0  0  0  0
  2  1  1  1
  2  3  1  0
  2  8  1  0
  3  4  1  1
  3  5  1  0
  5  6  1  0
  6  7  1  0
  7  8  1  0
  8  9  1  6
  9 10  2  0
  9 20  1  0
 10 11  1  0
 11 12  1  0
 11 14  2  0
 12 13  1  0
 14 15  1  0
 15 16  1  0
 15 20  1  0
 16 17  1  0
 17 18  1  0
 18 19  1  0
 20 19  1  1
M  CHG  1   1   1
M  END
