
     RDKit          3D

 26 27  0  0  0  0  0  0  0  0999 V2000
   -4.6450   -0.3230   -1.9900 C   0  0  0  0  0  0  0  0  0  0  0  0
   -4.6580   -0.5030   -0.4960 C   0  0  1  0  0  0  0  0  0  0  0  0
   -3.4900    0.1770    0.1740 C   0  0  2  0  0  0  0  0  0  0  0  0
   -2.1610   -0.3590   -0.3120 C   0  0  0  0  0  0  0  0  0  0  0  0
   -1.1280    0.3690    0.4020 N   0  0  0  0  0  0  0  0  0  0  0  0
    0.2650    0.1000    0.1720 C   0  0  0  0  0  0  0  0  0  0  0  0
    0.5040   -0.7750   -0.6590 O   0  0  0  0  0  0  0  0  0  0  0  0
    1.2890    0.7720    0.8310 N   0  0  0  0  0  0  0  0  0  0  0  0
    2.6670    0.5930    0.6790 C   0  0  0  0  0  0  0  0  0  0  0  0
    3.5530    1.2790    1.5340 C   0  0  0  0  0  0  0  0  0  0  0  0
    4.9120    1.1610    1.4430 C   0  0  0  0  0  0  0  0  0  0  0  0
    5.4210    0.3310    0.4680 C   0  0  0  0  0  0  0  0  0  0  0  0
    6.7570    0.1580    0.3100 N   0  0  0  0  0  0  0  0  0  0  0  0
    7.2520   -0.6520   -0.6410 C   0  0  0  0  0  0  0  0  0  0  0  0
    8.5050   -0.7480   -0.7090 O   0  0  0  0  0  0  0  0  0  0  0  0
    6.4670   -1.3390   -1.4930 N   0  0  0  0  0  0  0  0  0  0  0  0
    5.1340   -1.1950   -1.3700 C   0  0  0  0  0  0  0  0  0  0  0  0
    4.3490   -1.8080   -2.1330 O   0  0  0  0  0  0  0  0  0  0  0  0
    4.6070   -0.3640   -0.3950 C   0  0  0  0  0  0  0  0  0  0  0  0
    3.2250   -0.2090   -0.2600 C   0  0  0  0  0  0  0  0  0  0  0  0
   -3.5660   -0.1100    1.6300 C   0  0  0  0  0  0  0  0  0  0  0  0
   -3.5190   -1.4610    2.0680 N   0  0  0  0  0  0  0  0  0  0  0  0
   -3.6690    0.8140    2.4720 O   0  0  0  0  0  0  0  0  0  0  0  0
   -6.1640    0.2190    0.1810 S   0  0  0  0  0  0  0  0  0  0  0  0
   -6.1980    1.9210   -0.2120 N   0  0  0  0  0  0  0  0  0  0  0  0
   -6.1370    0.0930    1.6970 O   0  0  0  0  0  0  0  0  0  0  0  0
  2  1  1  6
  2  3  1  0
  2 24  1  0
  3  4  1  6
  3 21  1  0
  4  5  1  0
  5  6  1  0
  6  7  2  0
  6  8  1  0
  8  9  1  0
  9 10  2  0
  9 20  1  0
 10 11  1  0
 11 12  2  0
 12 13  1  0
 12 19  1  0
 13 14  1  0
 14 15  2  0
 14 16  1  0
 16 17  1  0
 17 18  2  0
 17 19  1  0
 19 20  2  0
 21 22  1  0
 21 23  2  0
 24 25  1  1
 24 26  2  0
M  END
