
     RDKit          3D

 26 27  0  0  0  0  0  0  0  0999 V2000
   -7.5180   -1.4020   -1.7220 N   0  0  0  0  0  0  0  0  0  0  0  0
   -6.3040   -1.2200   -1.0370 C   0  0  0  0  0  0  0  0  0  0  0  0
   -5.0350   -2.1710   -1.3650 S   0  0  0  0  0  0  0  0  0  0  0  0
   -6.1870   -0.1650   -0.0160 C   0  0  0  0  0  0  0  0  0  0  0  0
   -4.8860   -0.0690    0.5810 N   0  0  0  0  0  0  0  0  0  0  0  0
   -3.6910    0.2090   -0.1400 C   0  0  0  0  0  0  0  0  0  0  0  0
   -3.7970    0.3820   -1.3820 O   0  0  0  0  0  0  0  0  0  0  0  0
   -2.3670    0.3010    0.4910 C   0  0  1  0  0  0  0  0  0  0  0  0
   -1.3540   -0.6110   -0.1580 C   0  0  0  0  0  0  0  0  0  0  0  0
   -0.0250   -0.5090    0.4880 C   0  0  0  0  0  0  0  0  0  0  0  0
    0.1440    0.2710    1.4580 O   0  0  0  0  0  0  0  0  0  0  0  0
    1.0930   -1.2660    0.0550 N   0  0  0  0  0  0  0  0  0  0  0  0
    2.3500   -1.1770    0.6580 N   0  0  0  0  0  0  0  0  0  0  0  0
    3.4470   -0.7140   -0.1360 C   0  0  0  0  0  0  0  0  0  0  0  0
    3.3130   -0.3880   -1.3460 O   0  0  0  0  0  0  0  0  0  0  0  0
    4.7580   -0.6020    0.4200 N   0  0  0  0  0  0  0  0  0  0  0  0
    5.8780   -0.1460   -0.3310 C   0  0  0  0  0  0  0  0  0  0  0  0
    6.5840    0.9180   -0.0080 C   0  0  0  0  0  0  0  0  0  0  0  0
    7.6620    1.0920   -1.0000 C   0  0  0  0  0  0  0  0  0  0  0  0
    7.4780   -0.0240   -1.9420 C   0  0  0  0  0  0  0  0  0  0  0  0
    6.4410   -0.7240   -1.5330 C   0  0  0  0  0  0  0  0  0  0  0  0
   -1.8730    1.7240    0.3320 C   0  0  0  0  0  0  0  0  0  0  0  0
   -1.6830    2.2190    1.6870 N   0  0  0  0  0  0  0  0  0  0  0  0
   -2.4210    1.3160    2.5210 C   0  0  0  0  0  0  0  0  0  0  0  0
   -2.9720    1.6330    3.6230 O   0  0  0  0  0  0  0  0  0  0  0  0
   -2.3890    0.0890    1.8740 O   0  0  0  0  0  0  0  0  0  0  0  0
  1  2  1  0
  2  3  2  0
  2  4  1  0
  4  5  1  0
  5  6  1  0
  6  7  2  0
  6  8  1  0
  8  9  1  6
  8 22  1  0
  8 26  1  0
  9 10  1  0
 10 11  2  0
 10 12  1  0
 12 13  1  0
 13 14  1  0
 14 15  2  0
 14 16  1  0
 16 17  1  0
 17 18  2  0
 17 21  1  0
 18 19  1  0
 19 20  1  0
 20 21  2  0
 22 23  1  0
 23 24  1  0
 24 25  2  0
 24 26  1  0
M  END
