
     RDKit          3D

 20 22  0  0  0  0  0  0  0  0999 V2000
    0.7440   -2.6540    1.3140 C   0  0  0  0  0  0  0  0  0  0  0  0
   -0.0640   -2.3220    0.0880 C   0  0  2  0  0  0  0  0  0  0  0  0
   -1.4390   -2.9510    0.3960 C   0  0  0  0  0  0  0  0  0  0  0  0
    0.4400   -3.0750   -0.9140 O   0  0  0  0  0  0  0  0  0  0  0  0
   -0.2290   -0.8630   -0.1830 C   0  0  2  0  0  0  0  0  0  0  0  0
   -1.0650   -0.7840   -1.5090 C   0  0  0  0  0  0  0  0  0  0  0  0
   -1.9360    0.2940   -1.2680 C   0  0  0  0  0  0  0  0  0  0  0  0
   -2.9550    1.1890   -1.6680 C   0  0  0  0  0  0  0  0  0  0  0  0
   -3.1540    2.0000   -0.3360 C   0  0  0  0  0  0  0  0  0  0  0  0
   -1.9480    2.0720    0.5120 C   0  0  0  0  0  0  0  0  0  0  0  0
   -1.2710    1.0570    1.2660 C   0  0  2  0  0  0  0  0  0  0  0  0
    0.1460    1.6110    1.5610 C   0  0  0  0  0  0  0  0  0  0  0  0
    1.2280    0.9440    0.8340 C   0  0  2  0  0  0  0  0  0  0  0  0
    2.1100    2.0770    0.2600 C   0  0  0  0  0  0  0  0  0  0  0  0
    3.4720    1.5150   -0.0960 C   0  0  0  0  0  0  0  0  0  0  0  0
    3.2040    0.5170   -1.1680 C   0  0  0  0  0  0  0  0  0  0  0  0
    2.2830   -0.6110   -0.6390 C   0  0  2  0  0  0  0  0  0  0  0  0
    2.2250   -1.4250   -1.7590 O   0  0  0  0  0  0  0  0  0  0  0  0
    0.9430    0.0040   -0.2860 C   0  0  1  0  0  0  0  0  0  0  0  0
   -1.0600   -0.3470    0.9990 C   0  0  0  0  0  0  0  0  0  0  0  0
  2  1  1  1
  2  3  1  0
  2  4  1  0
  2  5  1  0
  5  6  1  6
  5 19  1  0
  5 20  1  0
  6  7  1  0
  7  8  1  0
  8  9  1  0
  9 10  1  0
 11 10  1  6
 11 12  1  0
 11 20  1  0
 13 12  1  6
 13 14  1  0
 13 19  1  0
 14 15  1  0
 15 16  1  0
 16 17  1  0
 17 18  1  6
 19 17  1  1
M  END
