
     RDKit          3D

 20 22  0  0  0  0  0  0  0  0999 V2000
   -0.5590    3.2000    0.8620 C   0  0  0  0  0  0  0  0  0  0  0  0
   -1.0560    1.7720    1.1750 C   0  0  0  0  0  0  0  0  0  0  0  0
   -0.4630    0.7970    0.1930 C   0  0  1  0  0  0  0  0  0  0  0  0
   -0.9760    1.2610   -1.1790 C   0  0  0  0  0  0  0  0  0  0  0  0
    1.0480    0.9600    0.2520 C   0  0  2  0  0  0  0  0  0  0  0  0
    1.3980    1.8090   -0.8030 O   0  0  0  0  0  0  0  0  0  0  0  0
    1.8040   -0.3260    0.1030 C   0  0  2  0  0  0  0  0  0  0  0  0
    2.1750   -0.9790    1.4120 C   0  0  0  0  0  0  0  0  0  0  0  0
    3.6700   -1.1800    1.3070 C   0  0  0  0  0  0  0  0  0  0  0  0
    4.0920    0.1030    0.6260 C   0  0  0  0  0  0  0  0  0  0  0  0
    3.1320    0.0470   -0.5740 C   0  0  0  0  0  0  0  0  0  0  0  0
    1.1560   -1.3600   -0.7590 C   0  0  2  0  0  0  0  0  0  0  0  0
    1.3730   -1.1420   -2.1290 O   0  0  0  0  0  0  0  0  0  0  0  0
   -0.2990   -1.6130   -0.4490 C   0  0  0  0  0  0  0  0  0  0  0  0
   -0.8530   -0.5890    0.5170 C   0  0  2  0  0  0  0  0  0  0  0  0
   -2.2990   -0.7650    0.7160 C   0  0  0  0  0  0  0  0  0  0  0  0
   -3.0520   -1.5450   -0.0830 C   0  0  0  0  0  0  0  0  0  0  0  0
   -4.4630   -1.5200    0.3760 C   0  0  0  0  0  0  0  0  0  0  0  0
   -4.4400   -0.6440    1.5540 C   0  0  0  0  0  0  0  0  0  0  0  0
   -3.1990   -0.2320    1.7180 C   0  0  0  0  0  0  0  0  0  0  0  0
  1  2  1  0
  2  3  1  0
  3  4  1  6
  3  5  1  0
  3 15  1  0
  5  6  1  6
  5  7  1  0
  7  8  1  1
  7 11  1  0
  7 12  1  0
  8  9  1  0
  9 10  1  0
 10 11  1  0
 12 13  1  6
 12 14  1  0
 14 15  1  0
 15 16  1  6
 16 17  2  0
 16 20  1  0
 17 18  1  0
 18 19  1  0
 19 20  2  0
M  END
