
     RDKit          3D

 20 23  0  0  0  0  0  0  0  0999 V2000
   -1.8910    0.7830   -1.5670 C   0  0  0  0  0  0  0  0  0  0  0  0
   -2.0840    0.5760   -0.0550 C   0  0  1  0  0  0  0  0  0  0  0  0
   -1.8800    1.9740    0.5490 C   0  0  0  0  0  0  0  0  0  0  0  0
   -3.5460    0.3050    0.0690 C   0  0  2  0  0  0  0  0  0  0  0  0
   -4.3040    1.2480   -0.6740 O   0  0  0  0  0  0  0  0  0  0  0  0
   -4.1980   -0.1510    1.2970 C   0  0  0  0  0  0  0  0  0  0  0  0
   -4.0270   -1.0520    0.0360 C   0  0  2  0  0  0  0  0  0  0  0  0
   -3.0540   -2.1490    0.1350 C   0  0  0  0  0  0  0  0  0  0  0  0
   -1.6310   -1.8250    0.0960 C   0  0  0  0  0  0  0  0  0  0  0  0
   -1.1690   -0.4520    0.4770 C   0  0  2  0  0  0  0  0  0  0  0  0
   -1.1400   -0.3980    1.8570 O   0  0  0  0  0  0  0  0  0  0  0  0
    0.2620   -0.3460   -0.0050 C   0  0  1  0  0  0  0  0  0  0  0  0
    0.9370    0.9520    0.3330 C   0  0  0  0  0  0  0  0  0  0  0  0
    2.3680    0.9870   -0.1890 C   0  0  0  0  0  0  0  0  0  0  0  0
    3.1890   -0.1790    0.2380 C   0  0  2  0  0  0  0  0  0  0  0  0
    4.5310   -0.1790   -0.4070 C   0  0  2  0  0  0  0  0  0  0  0  0
    5.4410    1.0230   -0.1450 C   0  0  0  0  0  0  0  0  0  0  0  0
    4.8970    0.7300   -1.5200 C   0  0  0  0  0  0  0  0  0  0  0  0
    2.4410   -1.4270   -0.2310 C   0  0  0  0  0  0  0  0  0  0  0  0
    1.1240   -1.4540    0.5640 C   0  0  0  0  0  0  0  0  0  0  0  0
  2  1  1  6
  2  3  1  0
  2  4  1  0
  2 10  1  0
  4  5  1  6
  4  6  1  0
  4  7  1  0
  7  6  1  1
  7  8  1  0
  8  9  1  0
  9 10  1  0
 10 11  1  1
 10 12  1  0
 12 13  1  1
 12 20  1  0
 13 14  1  0
 15 14  1  6
 15 16  1  0
 15 19  1  0
 16 17  1  1
 16 18  1  0
 17 18  1  0
 19 20  1  0
M  END
