
     RDKit          3D

 26 28  0  0  0  0  0  0  0  0999 V2000
    3.9550    2.0680   -1.7290 C   0  0  0  0  0  0  0  0  0  0  0  0
    3.3480    2.0410   -0.3800 C   0  0  0  0  0  0  0  0  0  0  0  0
    3.9970    1.4730    0.6170 C   0  0  0  0  0  0  0  0  0  0  0  0
    5.3310    0.8660    0.3770 C   0  0  0  0  0  0  0  0  0  0  0  0
    3.3300    1.4100    2.2380 S   0  0  1  0  0  0  0  0  0  0  0  0
    4.3870    1.5030    3.2920 O   0  0  0  0  0  0  0  0  0  0  0  0
    2.4250    2.6080    2.3860 O   0  0  0  0  0  0  0  0  0  0  0  0
    2.4140   -0.0470    2.3940 N   0  0  0  0  0  0  0  0  0  0  0  0
    1.2800   -0.2930    1.5760 C   0  0  0  0  0  0  0  0  0  0  0  0
    0.6610    0.7870    1.1970 N   0  0  0  0  0  0  0  0  0  0  0  0
   -0.4820    0.8910    0.3920 N   0  0  0  0  0  0  0  0  0  0  0  0
   -1.1660   -0.0010   -0.2390 C   0  0  0  0  0  0  0  0  0  0  0  0
   -2.3040    0.4010   -0.9930 N   0  0  0  0  0  0  0  0  0  0  0  0
   -2.1360    0.5390   -2.4170 C   0  0  0  0  0  0  0  0  0  0  0  0
   -3.2900    1.1730   -3.0890 C   0  0  0  0  0  0  0  0  0  0  0  0
   -4.1980    1.8510   -2.4050 C   0  0  0  0  0  0  0  0  0  0  0  0
   -4.0870    1.9960   -0.9520 C   0  0  0  0  0  0  0  0  0  0  0  0
   -3.5900    0.6690   -0.3790 C   0  0  1  0  0  0  0  0  0  0  0  0
   -4.6150   -0.3850   -0.6800 C   0  0  0  0  0  0  0  0  0  0  0  0
   -3.4730    0.8630    1.1120 C   0  0  0  0  0  0  0  0  0  0  0  0
   -0.8970   -1.4050   -0.2650 N   0  0  0  0  0  0  0  0  0  0  0  0
    0.0440   -2.1460    0.4910 C   0  0  0  0  0  0  0  0  0  0  0  0
    0.9990   -1.7100    1.2970 C   0  0  0  0  0  0  0  0  0  0  0  0
    1.7360   -2.8490    1.8720 C   0  0  0  0  0  0  0  0  0  0  0  0
    1.5140   -3.9320    0.8380 C   0  0  0  0  0  0  0  0  0  0  0  0
    0.0570   -3.6390    0.4500 C   0  0  0  0  0  0  0  0  0  0  0  0
  1  2  1  0
  2  3  2  3
  3  4  1  0
  3  5  1  0
  5  6  2  0
  5  7  2  0
  5  8  1  6
  8  9  1  0
  9 10  2  0
  9 23  1  0
 10 11  1  0
 11 12  2  0
 12 13  1  0
 12 21  1  0
 13 14  1  0
 13 18  1  0
 14 15  1  0
 15 16  2  0
 16 17  1  0
 17 18  1  0
 18 19  1  1
 18 20  1  0
 21 22  1  0
 22 23  2  0
 22 26  1  0
 23 24  1  0
 24 25  1  0
 25 26  1  0
M  END
