
     RDKit          3D

 15 16  0  0  0  0  0  0  0  0999 V2000
    2.8460    2.0300   -1.0720 C   0  0  0  0  0  0  0  0  0  0  0  0
    1.7880    1.1350   -0.5900 C   0  0  0  0  0  0  0  0  0  0  0  0
    0.4600    1.2430   -0.7260 N   0  0  0  0  0  0  0  0  0  0  0  0
   -0.1440    0.2410   -0.1550 N   0  0  0  0  0  0  0  0  0  0  0  0
   -1.5410   -0.0380   -0.0620 C   0  0  0  0  0  0  0  0  0  0  0  0
   -2.0110   -1.3290   -0.1630 C   0  0  0  0  0  0  0  0  0  0  0  0
   -3.3560   -1.6390   -0.0780 C   0  0  0  0  0  0  0  0  0  0  0  0
   -4.2200   -0.5800    0.1170 C   0  0  0  0  0  0  0  0  0  0  0  0
   -3.7950    0.7280    0.2250 C   0  0  0  0  0  0  0  0  0  0  0  0
   -2.4400    0.9780    0.1320 C   0  0  0  0  0  0  0  0  0  0  0  0
    0.7780   -0.5470    0.3690 N   0  0  0  0  0  0  0  0  0  0  0  0
    2.0020   -0.0300    0.1230 C   0  0  0  0  0  0  0  0  0  0  0  0
    3.2500   -0.6240    0.5480 C   0  0  0  0  0  0  0  0  0  0  0  0
    3.2450   -1.8290    1.2740 N   0  0  0  0  0  0  0  0  0  0  0  0
    4.3290   -0.0670    0.2700 O   0  0  0  0  0  0  0  0  0  0  0  0
  1  2  1  0
  2  3  2  0
  2 12  1  0
  3  4  1  0
  4  5  1  0
  4 11  1  0
  5  6  2  0
  5 10  1  0
  6  7  1  0
  7  8  2  0
  8  9  1  0
  9 10  2  0
 11 12  2  0
 12 13  1  0
 13 14  1  0
 13 15  2  0
M  END
