
     RDKit          3D

 20 19  0  0  0  0  0  0  0  0999 V2000
   -2.6070   -1.9560    2.8930 N   0  0  0  0  0  0  0  0  0  0  0  0
   -2.6340   -1.5370    1.5150 C   0  0  0  0  0  0  0  0  0  0  0  0
   -3.3050   -2.2120    0.6950 O   0  0  0  0  0  0  0  0  0  0  0  0
   -1.8610   -0.3390    1.1930 C   0  0  0  0  0  0  0  0  0  0  0  0
   -1.9560    0.1440   -0.2290 C   0  0  2  0  0  0  0  0  0  0  0  0
   -1.1480    1.2510   -0.3310 O   0  0  0  0  0  0  0  0  0  0  0  0
   -0.1680    1.2930   -1.2390 C   0  0  0  0  0  0  0  0  0  0  0  0
    0.9250    0.2450   -0.9490 C   0  0  1  0  0  0  0  0  0  0  0  0
    0.3820   -1.0180   -1.0170 O   0  0  0  0  0  0  0  0  0  0  0  0
    2.0290    0.4690   -1.9130 C   0  0  0  0  0  0  0  0  0  0  0  0
    3.2030   -0.4240   -1.8450 C   0  0  0  0  0  0  0  0  0  0  0  0
    3.9890   -0.5050   -0.7810 O   0  0  0  0  0  0  0  0  0  0  0  0
    3.5570   -1.0080    0.3710 C   0  0  1  0  0  0  0  0  0  0  0  0
    4.3740   -2.1270    0.7620 O   0  0  0  0  0  0  0  0  0  0  0  0
    3.7810    0.0330    1.4860 C   0  0  0  0  0  0  0  0  0  0  0  0
    5.1550    0.2840    1.5400 O   0  0  0  0  0  0  0  0  0  0  0  0
   -3.3640    0.7130   -0.5410 C   0  0  1  0  0  0  0  0  0  0  0  0
   -4.3520   -0.2170   -0.5060 O   0  0  0  0  0  0  0  0  0  0  0  0
   -3.5910    1.9240    0.3080 C   0  0  0  0  0  0  0  0  0  0  0  0
   -4.7690    2.5680   -0.1400 O   0  0  0  0  0  0  0  0  0  0  0  0
  1  2  1  0
  2  3  2  0
  2  4  1  0
  5  4  1  1
  5  6  1  0
  5 17  1  0
  6  7  1  0
  7  8  1  0
  8  9  1  6
  8 10  1  0
 10 11  1  0
 11 12  1  0
 12 13  1  0
 13 14  1  1
 13 15  1  0
 15 16  1  0
 17 18  1  1
 17 19  1  0
 19 20  1  0
M  END
