
     RDKit          3D

 20 19  0  0  0  0  0  0  0  0999 V2000
   -0.9770   -3.8690   -1.0610 C   0  0  0  0  0  0  0  0  0  0  0  0
   -0.3150   -3.0460   -0.1550 O   0  0  0  0  0  0  0  0  0  0  0  0
   -0.5600   -1.7180   -0.4700 C   0  0  1  0  0  0  0  0  0  0  0  0
   -1.2520   -1.1110    0.6300 O   0  0  0  0  0  0  0  0  0  0  0  0
   -2.4270   -0.4500    0.4040 C   0  0  0  0  0  0  0  0  0  0  0  0
   -2.9100   -0.3680   -0.7510 O   0  0  0  0  0  0  0  0  0  0  0  0
   -3.1940    0.2130    1.5000 C   0  0  0  0  0  0  0  0  0  0  0  0
   -3.5010    1.6170    1.0110 C   0  0  0  0  0  0  0  0  0  0  0  0
   -4.2040    2.3420    1.9580 O   0  0  0  0  0  0  0  0  0  0  0  0
   -4.3980    3.5550    1.4250 O   0  0  0  0  0  0  0  0  0  0  0  0
   -3.2460    4.2310    1.4670 O   0  0  0  0  0  0  0  0  0  0  0  0
    0.7120   -0.9780   -0.7100 C   0  0  0  0  0  0  0  0  0  0  0  0
    0.6370    0.2080   -1.0970 O   0  0  0  0  0  0  0  0  0  0  0  0
    1.9120   -1.6030   -0.5020 O   0  0  0  0  0  0  0  0  0  0  0  0
    3.1820   -0.9930   -0.6860 C   0  0  0  0  0  0  0  0  0  0  0  0
    3.2870    0.1710    0.2420 C   0  0  0  0  0  0  0  0  0  0  0  0
    4.4770    0.8860    0.1960 O   0  0  0  0  0  0  0  0  0  0  0  0
    4.9190    1.4800   -0.9530 C   0  0  0  0  0  0  0  0  0  0  0  0
    4.2140    1.3610   -2.0000 O   0  0  0  0  0  0  0  0  0  0  0  0
    6.1200    2.2180   -1.0470 O   0  0  0  0  0  0  0  0  0  0  0  0
  1  2  1  0
  3  2  1  1
  3  4  1  0
  3 12  1  0
  4  5  1  0
  5  6  2  0
  5  7  1  0
  7  8  1  0
  8  9  1  0
  9 10  1  0
 10 11  1  0
 12 13  2  0
 12 14  1  0
 14 15  1  0
 15 16  1  0
 16 17  1  0
 17 18  1  0
 18 19  2  0
 18 20  1  0
M  END
