
     RDKit          3D

 20 19  0  0  0  0  0  0  0  0999 V2000
   -0.4590    4.6260    0.1980 C   0  0  0  0  0  0  0  0  0  0  0  0
   -0.1040    3.3230    0.8530 C   0  0  0  0  0  0  0  0  0  0  0  0
   -0.4270    2.2620   -0.0420 O   0  0  0  0  0  0  0  0  0  0  0  0
   -0.2100    1.0000    0.4360 C   0  0  0  0  0  0  0  0  0  0  0  0
    0.2300    0.8800    1.6740 O   0  0  0  0  0  0  0  0  0  0  0  0
   -0.3500   -0.2530   -0.2410 C   0  0  2  0  0  0  0  0  0  0  0  0
   -0.3150   -0.2070   -1.6700 O   0  0  0  0  0  0  0  0  0  0  0  0
   -1.0730   -1.1970    0.3290 O   0  0  0  0  0  0  0  0  0  0  0  0
   -2.2760   -1.4160   -0.2020 C   0  0  0  0  0  0  0  0  0  0  0  0
   -3.2780   -2.1480    0.6820 C   0  0  0  0  0  0  0  0  0  0  0  0
   -4.0780   -2.6600   -0.2730 O   0  0  0  0  0  0  0  0  0  0  0  0
   -4.9770   -2.2310   -0.8680 O   0  0  0  0  0  0  0  0  0  0  0  0
   -5.9690   -1.6140   -0.4940 O   0  0  0  0  0  0  0  0  0  0  0  0
    1.0960   -0.8220    0.0390 C   0  0  0  0  0  0  0  0  0  0  0  0
    1.4340   -1.3440    0.9760 O   0  0  0  0  0  0  0  0  0  0  0  0
    2.0320   -0.5200   -1.1200 O   0  0  0  0  0  0  0  0  0  0  0  0
    3.3320   -0.9180   -0.6290 C   0  0  0  0  0  0  0  0  0  0  0  0
    3.7410   -2.1780   -0.1050 C   0  0  0  0  0  0  0  0  0  0  0  0
    5.2180   -1.7400    0.0920 O   0  0  0  0  0  0  0  0  0  0  0  0
    5.1380   -1.0090    1.2300 O   0  0  0  0  0  0  0  0  0  0  0  0
  1  2  1  0
  2  3  1  0
  3  4  1  0
  4  5  2  0
  4  6  1  0
  6  7  1  6
  6  8  1  0
  6 14  1  0
  8  9  1  0
  9 10  1  0
 10 11  1  0
 11 12  1  0
 12 13  1  0
 14 15  2  0
 14 16  1  0
 16 17  1  0
 17 18  1  0
 18 19  1  0
 19 20  1  0
M  END
