
     RDKit          3D

 20 20  0  0  0  0  0  0  0  0999 V2000
    4.8300    2.1490   -0.2400 O   0  0  0  0  0  0  0  0  0  0  0  0
    4.4450    1.7120    0.8720 C   0  0  0  0  0  0  0  0  0  0  0  0
    5.1890    1.9660    2.0180 O   0  0  0  0  0  0  0  0  0  0  0  0
    3.2630    0.9730    0.9260 O   0  0  0  0  0  0  0  0  0  0  0  0
    2.5540    0.7350   -0.1930 O   0  0  0  0  0  0  0  0  0  0  0  0
    2.0300   -0.5540   -0.2180 C   0  0  2  0  0  0  0  0  0  0  0  0
    2.6130   -1.2930   -1.3360 C   0  0  0  0  0  0  0  0  0  0  0  0
    2.3350   -2.4880   -1.6180 O   0  0  0  0  0  0  0  0  0  0  0  0
    3.5360   -0.6720   -2.1610 O   0  0  0  0  0  0  0  0  0  0  0  0
    0.5080   -0.4800   -0.3040 C   0  0  1  0  0  0  0  0  0  0  0  0
   -0.0750   -1.7180   -0.3330 O   0  0  0  0  0  0  0  0  0  0  0  0
   -1.0910   -1.8930    0.5840 C   0  0  0  0  0  0  0  0  0  0  0  0
   -2.4100   -2.1200   -0.1110 C   0  0  0  0  0  0  0  0  0  0  0  0
   -3.4470   -1.4070    0.4730 O   0  0  0  0  0  0  0  0  0  0  0  0
   -4.0610   -0.6120   -0.3750 O   0  0  0  0  0  0  0  0  0  0  0  0
   -4.0330    0.6680    0.1740 C   0  0  0  0  0  0  0  0  0  0  0  0
   -2.9610    1.5150   -0.4880 C   0  0  0  0  0  0  0  0  0  0  0  0
   -1.7660    0.8270   -0.6120 O   0  0  0  0  0  0  0  0  0  0  0  0
   -0.8380    1.3060    0.2830 C   0  0  0  0  0  0  0  0  0  0  0  0
    0.0810    0.3500    0.6960 O   0  0  0  0  0  0  0  0  0  0  0  0
  1  2  2  0
  2  3  1  0
  2  4  1  0
  4  5  1  0
  6  5  1  6
  6  7  1  0
  6 10  1  0
  7  8  2  0
  7  9  1  0
 10 11  1  1
 10 20  1  0
 11 12  1  0
 12 13  1  0
 13 14  1  0
 14 15  1  0
 15 16  1  0
 16 17  1  0
 17 18  1  0
 18 19  1  0
 19 20  1  0
M  END
