
     RDKit          3D

 20 19  0  0  0  0  0  0  0  0999 V2000
   -2.7480   -2.9170   -0.1040 C   0  0  0  0  0  0  0  0  0  0  0  0
   -1.2420   -2.9860   -0.1100 C   0  0  0  0  0  0  0  0  0  0  0  0
   -0.6320   -1.7720    0.2590 O   0  0  0  0  0  0  0  0  0  0  0  0
   -0.7860   -0.5870   -0.3950 C   0  0  0  0  0  0  0  0  0  0  0  0
   -1.5210   -0.5320   -1.4120 O   0  0  0  0  0  0  0  0  0  0  0  0
   -0.1260    0.7070    0.0110 C   0  0  2  0  0  0  0  0  0  0  0  0
    0.6200    0.5080    1.0960 O   0  0  0  0  0  0  0  0  0  0  0  0
    1.9030    0.7480    1.2050 C   0  0  0  0  0  0  0  0  0  0  0  0
    2.9580    0.0030    0.5180 C   0  0  0  0  0  0  0  0  0  0  0  0
    3.1760   -0.1590   -0.7500 O   0  0  0  0  0  0  0  0  0  0  0  0
    2.4940   -0.7800   -1.6820 C   0  0  0  0  0  0  0  0  0  0  0  0
    2.3560   -2.1590   -1.3150 O   0  0  0  0  0  0  0  0  0  0  0  0
    3.5500   -2.6760   -1.2060 O   0  0  0  0  0  0  0  0  0  0  0  0
   -1.2060    1.7450    0.2260 C   0  0  0  0  0  0  0  0  0  0  0  0
   -2.0010    2.0540   -0.6960 O   0  0  0  0  0  0  0  0  0  0  0  0
   -1.3740    2.4000    1.4360 O   0  0  0  0  0  0  0  0  0  0  0  0
   -2.3360    3.3330    1.6460 O   0  0  0  0  0  0  0  0  0  0  0  0
   -2.5430    4.4380    0.8700 C   0  0  0  0  0  0  0  0  0  0  0  0
   -1.7900    4.6200   -0.1240 O   0  0  0  0  0  0  0  0  0  0  0  0
   -3.5720    5.3050    1.2130 O   0  0  0  0  0  0  0  0  0  0  0  0
  1  2  1  0
  2  3  1  0
  3  4  1  0
  4  5  2  0
  4  6  1  0
  6  7  1  1
  6 14  1  0
  7  8  1  0
  8  9  1  0
  9 10  1  0
 10 11  1  0
 11 12  1  0
 12 13  1  0
 14 15  2  0
 14 16  1  0
 16 17  1  0
 17 18  1  0
 18 19  2  0
 18 20  1  0
M  END
