
     RDKit          3D

 33 35  0  0  0  0  0  0  0  0999 V2000
    5.2530   -2.0280   -2.1380 C   0  0  0  0  0  0  0  0  0  0  0  0
    5.9930   -1.2780   -1.1070 C   0  0  0  0  0  0  0  0  0  0  0  0
    5.3890   -0.3340   -0.4100 C   0  0  0  0  0  0  0  0  0  0  0  0
    4.0270   -0.1410   -0.7530 N   0  0  0  0  0  0  0  0  0  0  0  0
    2.8990    0.4090   -0.0850 C   0  0  0  0  0  0  0  0  0  0  0  0
    1.9340    0.5570   -0.8480 N   0  0  0  0  0  0  0  0  0  0  0  0
    0.3710    1.1350   -0.6850 S   0  0  2  0  0  0  0  0  0  0  0  0
   -0.2420    1.4510   -2.0730 O   0  0  0  0  0  0  0  0  0  0  0  0
    0.4050    2.6150   -0.1090 C   0  0  0  0  0  0  0  0  0  0  0  0
    1.6530    3.6420   -0.6950 Cl  0  0  0  0  0  0  0  0  0  0  0  0
   -0.7360    0.1770    0.2630 C   0  0  0  0  0  0  0  0  0  0  0  0
   -1.0270   -1.1930   -0.1880 C   0  0  1  0  0  0  0  0  0  0  0  0
    0.2060   -2.0900   -0.2520 C   0  0  0  0  0  0  0  0  0  0  0  0
    0.3740   -2.5410    1.1540 C   0  0  0  0  0  0  0  0  0  0  0  0
   -1.0150   -2.7160    1.6520 C   0  0  0  0  0  0  0  0  0  0  0  0
   -1.8640   -1.8740    0.7710 N   0  0  0  0  0  0  0  0  0  0  0  0
   -3.2500   -1.8080    0.8910 C   0  0  0  0  0  0  0  0  0  0  0  0
   -3.7500   -2.5540    1.8250 O   0  0  0  0  0  0  0  0  0  0  0  0
   -4.2090   -1.0430    0.1420 C   0  0  0  0  0  0  0  0  0  0  0  0
   -4.0240   -0.1460   -0.8720 C   0  0  0  0  0  0  0  0  0  0  0  0
   -5.2920    0.3070   -1.2480 C   0  0  0  0  0  0  0  0  0  0  0  0
   -6.1840   -0.3350   -0.4460 C   0  0  0  0  0  0  0  0  0  0  0  0
   -7.6720   -0.1280   -0.5270 C   0  0  0  0  0  0  0  0  0  0  0  0
   -8.0520    0.9520    0.3610 N   0  0  0  0  0  0  0  0  0  0  0  0
   -7.2350    2.1300    0.0710 C   0  0  0  0  0  0  0  0  0  0  0  0
   -5.5370   -1.1030    0.3420 O   0  0  0  0  0  0  0  0  0  0  0  0
    2.6550    0.8220    1.3080 C   0  0  0  0  0  0  0  0  0  0  0  0
    3.8750    1.5480    1.8640 C   0  0  0  0  0  0  0  0  0  0  0  0
    4.6620    2.2070    0.7830 C   0  0  0  0  0  0  0  0  0  0  0  0
    6.0950    1.7730    0.7280 C   0  0  0  0  0  0  0  0  0  0  0  0
    6.3110    0.3060    0.5820 C   0  0  1  0  0  0  0  0  0  0  0  0
    6.2790   -0.3910    1.7740 F   0  0  0  0  0  0  0  0  0  0  0  0
    7.6110    0.1220    0.0870 F   0  0  0  0  0  0  0  0  0  0  0  0
  1  2  1  0
  2  3  2  3
  3  4  1  0
  3 31  1  0
  4  5  1  0
  5  6  2  3
  5 27  1  0
  6  7  1  0
  7  8  2  0
  7  9  2  0
  7 11  1  1
  9 10  1  0
 12 11  1  1
 12 13  1  0
 12 16  1  0
 13 14  1  0
 14 15  1  0
 15 16  1  0
 16 17  1  0
 17 18  2  0
 17 19  1  0
 19 20  2  0
 19 26  1  0
 20 21  1  0
 21 22  2  0
 22 23  1  0
 22 26  1  0
 23 24  1  0
 24 25  1  0
 27 28  1  0
 28 29  1  0
 29 30  1  0
 30 31  1  0
 31 32  1  1
 31 33  1  0
M  CHG  1  24   1
M  END
