
     RDKit          3D

 33 36  0  0  0  0  0  0  0  0999 V2000
    4.9720   -0.9350    2.5540 C   0  0  0  0  0  0  0  0  0  0  0  0
    4.2440   -0.2380    1.7210 C   0  0  0  0  0  0  0  0  0  0  0  0
    3.5270    0.7950    0.7720 S   0  0  1  0  0  0  0  0  0  0  0  0
    2.9600    1.8000    1.7370 O   0  0  0  0  0  0  0  0  0  0  0  0
    4.7030    1.6110   -0.1170 C   0  0  0  0  0  0  0  0  0  0  0  0
    5.8150    1.1860   -0.6750 C   0  0  0  0  0  0  0  0  0  0  0  0
    6.3110   -0.2090   -0.6510 C   0  0  0  0  0  0  0  0  0  0  0  0
    6.4600   -0.6430   -1.9880 F   0  0  0  0  0  0  0  0  0  0  0  0
    4.4450    3.0280   -0.4030 N   0  0  0  0  0  0  0  0  0  0  0  0
    5.2170    3.9250    0.0830 C   0  0  0  0  0  0  0  0  0  0  0  0
    4.9320    5.2140   -0.2130 F   0  0  0  0  0  0  0  0  0  0  0  0
    6.6040    3.6020    1.0970 Cl  0  0  0  0  0  0  0  0  0  0  0  0
    2.4060   -0.1620    0.0190 N   0  0  0  0  0  0  0  0  0  0  0  0
    2.5800   -0.3580   -1.3920 C   0  0  0  0  0  0  0  0  0  0  0  0
    1.4940   -1.1990   -1.9890 C   0  0  0  0  0  0  0  0  0  0  0  0
    0.9430   -2.0820   -0.8900 C   0  0  0  0  0  0  0  0  0  0  0  0
    0.1460   -1.1460    0.0330 C   0  0  2  0  0  0  0  0  0  0  0  0
   -1.0110   -0.6050   -0.6280 N   0  0  0  0  0  0  0  0  0  0  0  0
   -2.2020   -0.8990    0.1010 C   0  0  1  0  0  0  0  0  0  0  0  0
   -2.1760   -0.4100    1.5390 C   0  0  0  0  0  0  0  0  0  0  0  0
   -3.3220   -1.1140    2.2370 C   0  0  0  0  0  0  0  0  0  0  0  0
   -4.6150   -0.5380    1.7210 C   0  0  0  0  0  0  0  0  0  0  0  0
   -4.5640   -0.1910    0.2860 C   0  0  0  0  0  0  0  0  0  0  0  0
   -3.4350   -0.3560   -0.4860 C   0  0  0  0  0  0  0  0  0  0  0  0
   -3.5080   -0.0070   -1.7680 N   0  0  0  0  0  0  0  0  0  0  0  0
   -4.6160    0.4910   -2.3390 C   0  0  0  0  0  0  0  0  0  0  0  0
   -4.6420    0.8080   -3.5560 O   0  0  0  0  0  0  0  0  0  0  0  0
   -5.7690    0.6730   -1.6040 C   0  0  0  0  0  0  0  0  0  0  0  0
   -6.9730    1.1270   -1.8780 O   0  0  0  0  0  0  0  0  0  0  0  0
   -7.7520    1.1120   -0.8360 C   0  0  0  0  0  0  0  0  0  0  0  0
   -7.0010    0.6100    0.1970 C   0  0  0  0  0  0  0  0  0  0  0  0
   -5.7410    0.3260   -0.2710 C   0  0  0  0  0  0  0  0  0  0  0  0
    1.0330    0.0410    0.4190 C   0  0  0  0  0  0  0  0  0  0  0  0
  1  2  2  0
  2  3  2  0
  3  4  2  0
  3  5  1  0
  3 13  1  6
  5  6  2  3
  5  9  1  0
  6  7  1  0
  7  8  1  0
  9 10  2  3
 10 11  1  0
 10 12  1  0
 13 14  1  0
 13 33  1  0
 14 15  1  0
 15 16  1  0
 16 17  1  0
 17 18  1  6
 17 33  1  0
 19 18  1  6
 19 20  1  0
 19 24  1  0
 20 21  1  0
 21 22  1  0
 22 23  1  0
 23 24  2  0
 23 32  1  0
 24 25  1  0
 25 26  1  0
 26 27  2  0
 26 28  1  0
 28 29  1  0
 28 32  2  0
 29 30  1  0
 30 31  2  0
 31 32  1  0
M  CHG  1  18   1
M  END
