
     RDKit          3D

 33 36  0  0  0  0  0  0  0  0999 V2000
   -4.7950    3.4580    1.0280 C   0  0  0  0  0  0  0  0  0  0  0  0
   -4.3480    2.0250    1.1580 C   0  0  0  0  0  0  0  0  0  0  0  0
   -3.3230    1.6930    0.1550 N   0  0  0  0  0  0  0  0  0  0  0  0
   -2.7490    0.4390    0.5620 C   0  0  1  0  0  0  0  0  0  0  0  0
   -3.8280   -0.4170    1.1580 C   0  0  0  0  0  0  0  0  0  0  0  0
   -4.1180   -0.4440    2.3210 O   0  0  0  0  0  0  0  0  0  0  0  0
   -4.3920   -1.1560    0.0210 C   0  0  2  0  0  0  0  0  0  0  0  0
   -4.9720   -2.4820    0.4540 C   0  0  0  0  0  0  0  0  0  0  0  0
   -4.9180   -3.5130   -0.6460 C   0  0  0  0  0  0  0  0  0  0  0  0
   -4.7760   -2.8760   -2.0100 C   0  0  0  0  0  0  0  0  0  0  0  0
   -3.4080   -2.2150   -2.0540 C   0  0  0  0  0  0  0  0  0  0  0  0
   -3.3300   -1.2780   -0.9130 N   0  0  0  0  0  0  0  0  0  0  0  0
   -2.2750   -0.4020   -0.5670 C   0  0  0  0  0  0  0  0  0  0  0  0
   -1.0800   -0.3240   -1.1220 C   0  0  0  0  0  0  0  0  0  0  0  0
   -0.7540   -1.4430   -2.4610 Cl  0  0  0  0  0  0  0  0  0  0  0  0
   -0.0150    0.5700   -0.7550 C   0  0  0  0  0  0  0  0  0  0  0  0
    1.0890    0.5270   -1.3890 O   0  0  0  0  0  0  0  0  0  0  0  0
   -0.1090    1.4780    0.2450 O   0  0  0  0  0  0  0  0  0  0  0  0
    0.8490    2.3890    0.6880 C   0  0  0  0  0  0  0  0  0  0  0  0
    2.0410    1.6530    1.1480 C   0  0  0  0  0  0  0  0  0  0  0  0
    2.5680    1.0660    2.0050 N   0  0  0  0  0  0  0  0  0  0  0  0
    3.7650    0.5410    1.9540 N   0  0  0  0  0  0  0  0  0  0  0  0
    4.4800    0.5850    1.0450 C   0  0  0  0  0  0  0  0  0  0  0  0
    5.8220    0.1460    0.6120 C   0  0  0  0  0  0  0  0  0  0  0  0
    6.5070   -0.5410    1.5110 C   0  0  0  0  0  0  0  0  0  0  0  0
    7.8460   -1.1150    1.4080 C   0  0  0  0  0  0  0  0  0  0  0  0
    8.1330   -2.1370    2.2560 F   0  0  0  0  0  0  0  0  0  0  0  0
    8.8260   -0.7690    0.5890 C   0  0  0  0  0  0  0  0  0  0  0  0
    8.8320    0.2870   -0.4350 C   0  0  0  0  0  0  0  0  0  0  0  0
    7.5740    0.5310   -1.1310 C   0  0  0  0  0  0  0  0  0  0  0  0
    7.6410    0.8810   -2.4490 F   0  0  0  0  0  0  0  0  0  0  0  0
    6.2950    0.4790   -0.7110 C   0  0  0  0  0  0  0  0  0  0  0  0
    3.4150    1.5580   -0.1610 S   0  0  0  0  0  0  0  0  0  0  0  0
  1  2  1  0
  2  3  1  0
  4  3  1  6
  4  5  1  0
  4 13  1  0
  5  6  2  0
  5  7  1  0
  7  8  1  1
  7 12  1  0
  8  9  1  0
  9 10  1  0
 10 11  1  0
 11 12  1  0
 12 13  1  0
 13 14  2  3
 14 15  1  0
 14 16  1  0
 16 17  2  0
 16 18  1  0
 18 19  1  0
 19 20  1  0
 20 21  2  0
 20 33  1  0
 21 22  1  0
 22 23  2  0
 23 24  1  0
 23 33  1  0
 24 25  2  0
 24 32  1  0
 25 26  1  0
 26 27  1  0
 26 28  2  0
 28 29  1  0
 29 30  1  0
 30 31  1  0
 30 32  2  0
M  CHG  1   3   1
M  END
