
     RDKit          3D

 32 35  0  0  0  0  0  0  0  0999 V2000
    8.3680    0.0950    0.2060 C   0  0  0  0  0  0  0  0  0  0  0  0
    7.3420   -0.3300    1.1150 N   0  0  2  0  0  0  0  0  0  0  0  0
    6.8240   -1.6320    0.7470 C   0  0  0  0  0  0  0  0  0  0  0  0
    6.0090   -1.3170   -0.5090 C   0  0  0  0  0  0  0  0  0  0  0  0
    5.4810    0.0560   -0.2520 C   0  0  1  0  0  0  0  0  0  0  0  0
    4.0440   -0.0060   -0.0460 N   0  0  0  0  0  0  0  0  0  0  0  0
    3.1330    0.7790   -0.7750 C   0  0  0  0  0  0  0  0  0  0  0  0
    3.5780    1.5670   -1.6400 O   0  0  0  0  0  0  0  0  0  0  0  0
    1.6640    0.7000   -0.5480 C   0  0  0  0  0  0  0  0  0  0  0  0
    0.9580   -0.0370    0.2890 C   0  0  0  0  0  0  0  0  0  0  0  0
   -0.3880    0.0690    0.3110 C   0  0  0  0  0  0  0  0  0  0  0  0
   -0.9610    0.9460   -0.5460 C   0  0  0  0  0  0  0  0  0  0  0  0
   -2.3620    1.3070   -0.7860 C   0  0  0  0  0  0  0  0  0  0  0  0
   -3.3790    0.7280   -0.0810 C   0  0  0  0  0  0  0  0  0  0  0  0
   -4.6800    1.0920   -0.3330 C   0  0  0  0  0  0  0  0  0  0  0  0
   -5.7750    0.4820    0.4100 C   0  0  0  0  0  0  0  0  0  0  0  0
   -6.7660    1.3160    0.9180 C   0  0  0  0  0  0  0  0  0  0  0  0
   -7.8010    0.7770    1.6230 C   0  0  0  0  0  0  0  0  0  0  0  0
   -7.8660   -0.5790    1.8320 C   0  0  0  0  0  0  0  0  0  0  0  0
   -8.9160   -1.0570    2.5400 F   0  0  0  0  0  0  0  0  0  0  0  0
   -6.8850   -1.4000    1.3290 C   0  0  0  0  0  0  0  0  0  0  0  0
   -7.0150   -2.7340    1.5750 F   0  0  0  0  0  0  0  0  0  0  0  0
   -5.8320   -0.8800    0.6140 C   0  0  0  0  0  0  0  0  0  0  0  0
   -4.8770   -1.7270    0.1300 O   0  0  0  0  0  0  0  0  0  0  0  0
   -4.9010   -2.3620   -1.1120 C   0  0  0  0  0  0  0  0  0  0  0  0
   -4.9490   -1.2500   -2.4880 Cl  0  0  0  0  0  0  0  0  0  0  0  0
   -4.9780    2.0380   -1.2900 C   0  0  0  0  0  0  0  0  0  0  0  0
   -3.9330    2.6150   -1.9940 C   0  0  0  0  0  0  0  0  0  0  0  0
   -4.2100    3.4840   -2.8720 O   0  0  0  0  0  0  0  0  0  0  0  0
   -2.6700    2.2430   -1.7300 N   0  0  0  0  0  0  0  0  0  0  0  0
    0.4620    1.6320   -1.4010 S   0  0  0  0  0  0  0  0  0  0  0  0
    6.1570    0.5050    1.0350 C   0  0  0  0  0  0  0  0  0  0  0  0
  2  1  1  6
  2  3  1  0
  2 32  1  0
  3  4  1  0
  4  5  1  0
  5  6  1  1
  5 32  1  0
  6  7  1  0
  7  8  2  0
  7  9  1  0
  9 10  2  0
  9 31  1  0
 10 11  1  0
 11 12  2  0
 12 13  1  0
 12 31  1  0
 13 14  2  0
 13 30  1  0
 14 15  1  0
 15 16  1  0
 15 27  2  0
 16 17  2  0
 16 23  1  0
 17 18  1  0
 18 19  2  0
 19 20  1  0
 19 21  1  0
 21 22  1  0
 21 23  2  0
 23 24  1  0
 24 25  1  0
 25 26  1  0
 27 28  1  0
 28 29  2  0
 28 30  1  0
M  CHG  1   2   1
M  END
