
     RDKit          3D

 32 36  0  0  0  0  0  0  0  0999 V2000
    6.0310   -0.4030   -1.8710 C   0  0  0  0  0  0  0  0  0  0  0  0
    5.8280   -0.6110   -0.4770 N   0  0  0  0  0  0  0  0  0  0  0  0
    6.4950    0.2930    0.4680 C   0  0  0  0  0  0  0  0  0  0  0  0
    5.0200   -1.6350    0.0400 C   0  0  0  0  0  0  0  0  0  0  0  0
    4.9950   -1.7000    1.3190 O   0  0  0  0  0  0  0  0  0  0  0  0
    4.2170   -2.6240   -0.6890 C   0  0  2  0  0  0  0  0  0  0  0  0
    5.1820   -3.3890   -1.5090 C   0  0  0  0  0  0  0  0  0  0  0  0
    5.9440   -4.0080   -2.1820 N   0  0  0  0  0  0  0  0  0  0  0  0
    3.0840   -2.1360   -1.5010 C   0  0  0  0  0  0  0  0  0  0  0  0
    2.0280   -1.4080   -0.7530 C   0  0  0  0  0  0  0  0  0  0  0  0
    1.8420   -1.2360    0.5760 C   0  0  0  0  0  0  0  0  0  0  0  0
    0.6850   -0.4550    0.7360 C   0  0  0  0  0  0  0  0  0  0  0  0
    0.2400   -0.2100   -0.5390 C   0  0  0  0  0  0  0  0  0  0  0  0
   -0.9510    0.5610   -0.8710 C   0  0  0  0  0  0  0  0  0  0  0  0
   -0.9170    1.2770   -2.0380 N   0  0  0  0  0  0  0  0  0  0  0  0
   -2.0570    1.8950   -2.1780 C   0  0  0  0  0  0  0  0  0  0  0  0
   -2.5100    2.7380   -3.1630 C   0  0  0  0  0  0  0  0  0  0  0  0
   -3.7140    3.2960   -3.1320 N   0  0  0  0  0  0  0  0  0  0  0  0
   -4.4990    3.0020   -2.0740 C   0  0  0  0  0  0  0  0  0  0  0  0
   -5.7390    3.4350   -1.7850 N   0  0  0  0  0  0  0  0  0  0  0  0
   -6.1160    2.8770   -0.5940 C   0  0  0  0  0  0  0  0  0  0  0  0
   -5.0850    2.0780   -0.1350 C   0  0  0  0  0  0  0  0  0  0  0  0
   -4.0850    2.1610   -1.0650 C   0  0  0  0  0  0  0  0  0  0  0  0
   -2.8370    1.5570   -1.0600 C   0  0  0  0  0  0  0  0  0  0  0  0
   -2.1220    0.7250   -0.2740 N   0  0  0  0  0  0  0  0  0  0  0  0
   -2.6400    0.0940    0.8820 C   0  0  2  0  0  0  0  0  0  0  0  0
   -2.5940    1.0000    2.0590 C   0  0  0  0  0  0  0  0  0  0  0  0
   -3.3050    0.3120    3.2390 C   0  0  0  0  0  0  0  0  0  0  0  0
   -2.2520   -0.7070    3.6990 C   0  0  0  0  0  0  0  0  0  0  0  0
   -1.8870   -1.6480    2.6250 C   0  0  0  0  0  0  0  0  0  0  0  0
   -2.2830   -1.2940    1.2290 C   0  0  0  0  0  0  0  0  0  0  0  0
    1.0560   -0.7840   -1.3740 O   0  0  0  0  0  0  0  0  0  0  0  0
  1  2  1  0
  2  3  1  0
  2  4  1  0
  4  5  2  0
  4  6  1  0
  6  7  1  6
  6  9  1  0
  7  8  3  0
  9 10  1  0
 10 11  2  0
 10 32  1  0
 11 12  1  0
 12 13  2  0
 13 14  1  0
 13 32  1  0
 14 15  2  0
 14 25  1  0
 15 16  1  0
 16 17  2  0
 16 24  1  0
 17 18  1  0
 18 19  2  0
 19 20  1  0
 19 23  1  0
 20 21  1  0
 21 22  2  0
 22 23  1  0
 23 24  2  0
 24 25  1  0
 26 25  1  6
 26 27  1  0
 26 31  1  0
 27 28  1  0
 28 29  1  0
 29 30  1  0
 30 31  1  0
M  END
