
     RDKit          3D

 33 36  0  0  0  0  0  0  0  0999 V2000
    3.1450   -1.4860   -2.7060 O   0  0  0  0  0  0  0  0  0  0  0  0
    3.8280   -1.1030   -1.7280 C   0  0  0  0  0  0  0  0  0  0  0  0
    5.2180   -1.2650   -1.8120 N   0  0  0  0  0  0  0  0  0  0  0  0
    5.8520   -1.8580   -2.9910 C   0  0  2  0  0  0  0  0  0  0  0  0
    6.9410   -2.8320   -2.6880 C   0  0  0  0  0  0  0  0  0  0  0  0
    7.2140   -1.5000   -3.3860 C   0  0  0  0  0  0  0  0  0  0  0  0
    3.1740   -0.5190   -0.5710 C   0  0  0  0  0  0  0  0  0  0  0  0
    3.8530   -0.1160    0.4470 C   0  0  0  0  0  0  0  0  0  0  0  0
    3.4540    0.4840    1.6890 C   0  0  0  0  0  0  0  0  0  0  0  0
    4.3810    0.8130    2.5940 C   0  0  0  0  0  0  0  0  0  0  0  0
    4.0210    1.4210    3.8610 C   0  0  0  0  0  0  0  0  0  0  0  0
    4.9420    1.7410    4.7450 C   0  0  0  0  0  0  0  0  0  0  0  0
    6.2530    1.5140    4.5040 F   0  0  0  0  0  0  0  0  0  0  0  0
    4.6100    2.3080    5.9270 F   0  0  0  0  0  0  0  0  0  0  0  0
    1.7140   -0.4450   -0.6960 C   0  0  0  0  0  0  0  0  0  0  0  0
    0.9010   -0.7280   -1.4790 N   0  0  0  0  0  0  0  0  0  0  0  0
   -0.3910   -0.5840   -1.4140 C   0  0  0  0  0  0  0  0  0  0  0  0
   -0.9100   -0.0350   -0.3060 C   0  0  0  0  0  0  0  0  0  0  0  0
   -2.2090    0.2960    0.1920 C   0  0  0  0  0  0  0  0  0  0  0  0
   -2.1670    0.7850    1.3270 O   0  0  0  0  0  0  0  0  0  0  0  0
   -3.5440    0.3510    0.0480 N   0  0  2  0  0  0  0  0  0  0  0  0
   -4.2010    1.5820    0.6960 C   0  0  0  0  0  0  0  0  0  0  0  0
   -5.6120    1.5510    0.3600 C   0  0  0  0  0  0  0  0  0  0  0  0
   -6.3360    2.7370    0.4190 C   0  0  0  0  0  0  0  0  0  0  0  0
   -7.6780    2.7350    0.1060 C   0  0  0  0  0  0  0  0  0  0  0  0
   -8.3230    1.6060   -0.2600 N   0  0  0  0  0  0  0  0  0  0  0  0
   -7.6450    0.4360   -0.3250 C   0  0  0  0  0  0  0  0  0  0  0  0
   -8.4290   -1.0610   -0.7940 Cl  0  0  0  0  0  0  0  0  0  0  0  0
   -6.3080    0.4150   -0.0190 C   0  0  0  0  0  0  0  0  0  0  0  0
   -5.5640   -0.8400   -0.0860 C   0  0  2  0  0  0  0  0  0  0  0  0
   -6.2490   -1.9450    0.3540 O   0  0  0  0  0  0  0  0  0  0  0  0
   -4.2600   -0.6620    0.7210 C   0  0  0  0  0  0  0  0  0  0  0  0
    0.6510    0.2640    0.6580 S   0  0  0  0  0  0  0  0  0  0  0  0
  1  2  2  0
  2  3  1  0
  2  7  1  0
  4  3  1  1
  4  5  1  0
  4  6  1  0
  5  6  1  0
  7  8  2  3
  7 15  1  0
  8  9  1  0
  9 10  2  3
 10 11  1  0
 11 12  2  3
 12 13  1  0
 12 14  1  0
 15 16  2  0
 15 33  1  0
 16 17  1  0
 17 18  2  0
 18 19  1  0
 18 33  1  0
 19 20  2  0
 21 19  1  1
 21 22  1  0
 21 32  1  0
 22 23  1  0
 23 24  2  0
 23 29  1  0
 24 25  1  0
 25 26  2  0
 26 27  1  0
 27 28  1  0
 27 29  2  0
 29 30  1  0
 30 31  1  1
 30 32  1  0
M  CHG  1  21   1
M  END
