
     RDKit          3D

 11 12  0  0  0  0  0  0  0  0999 V2000
    3.1730   -0.1850   -0.0970 N   0  0  0  0  0  0  0  0  0  0  0  0
    1.7330   -0.2050   -0.0600 C   0  0  0  0  0  0  0  0  0  0  0  0
    0.9270    0.8260    0.2590 N   0  0  0  0  0  0  0  0  0  0  0  0
   -0.3600    0.4440    0.1880 C   0  0  0  0  0  0  0  0  0  0  0  0
   -1.5900    1.0380    0.3940 C   0  0  0  0  0  0  0  0  0  0  0  0
   -1.6490    2.7340    0.8810 S   0  0  0  0  0  0  0  0  0  0  0  0
   -2.7340    0.3690    0.2370 N   0  0  0  0  0  0  0  0  0  0  0  0
   -2.7340   -0.9210   -0.1320 C   0  0  0  0  0  0  0  0  0  0  0  0
   -1.5570   -1.5290   -0.3410 N   0  0  0  0  0  0  0  0  0  0  0  0
   -0.3640   -0.8810   -0.1910 C   0  0  0  0  0  0  0  0  0  0  0  0
    0.9150   -1.2340   -0.3300 N   0  0  0  0  0  0  0  0  0  0  0  0
  1  2  1  0
  2  3  2  0
  2 11  1  0
  3  4  1  0
  4  5  2  0
  4 10  1  0
  5  6  1  0
  5  7  1  0
  7  8  2  0
  8  9  1  0
  9 10  2  0
 10 11  1  0
M  END
