
     RDKit          3D

 11 12  0  0  0  0  0  0  0  0999 V2000
   -2.4910    0.9750   -0.4790 N   0  0  0  0  0  0  0  0  0  0  0  0
   -1.5060    0.0730   -0.0230 C   0  0  0  0  0  0  0  0  0  0  0  0
   -1.7720   -1.0460    0.6690 N   0  0  0  0  0  0  0  0  0  0  0  0
   -0.7800   -1.8660    1.0750 C   0  0  0  0  0  0  0  0  0  0  0  0
    0.5180   -1.6200    0.8190 N   0  0  0  0  0  0  0  0  0  0  0  0
    0.8390   -0.5070    0.1260 C   0  0  0  0  0  0  0  0  0  0  0  0
    2.0600   -0.0060   -0.2760 C   0  0  0  0  0  0  0  0  0  0  0  0
    3.6620   -0.7380    0.0260 S   0  0  0  0  0  0  0  0  0  0  0  0
    1.7660    1.1340   -0.9330 N   0  0  0  0  0  0  0  0  0  0  0  0
    0.4650    1.3370   -0.9450 N   0  0  0  0  0  0  0  0  0  0  0  0
   -0.1850    0.3410   -0.2940 C   0  0  0  0  0  0  0  0  0  0  0  0
  1  2  1  0
  2  3  2  0
  2 11  1  0
  3  4  1  0
  4  5  2  0
  5  6  1  0
  6  7  1  0
  6 11  2  0
  7  8  1  0
  7  9  2  0
  9 10  1  0
 10 11  1  0
M  END
