
     RDKit          3D

 20 21  0  0  0  0  0  0  0  0999 V2000
   -2.1870    2.0070   -3.2600 C   0  0  0  0  0  0  0  0  0  0  0  0
   -2.7720    1.7220   -1.8920 C   0  0  1  0  0  0  0  0  0  0  0  0
   -3.9800    2.6060   -1.6890 C   0  0  0  0  0  0  0  0  0  0  0  0
   -3.2360    0.2910   -1.8560 C   0  0  0  0  0  0  0  0  0  0  0  0
   -2.0710   -0.3950   -1.2460 C   0  0  0  0  0  0  0  0  0  0  0  0
   -1.7670   -1.6250   -1.4450 O   0  0  0  0  0  0  0  0  0  0  0  0
   -1.3730    0.5280   -0.4310 N   0  0  0  0  0  0  0  0  0  0  0  0
   -0.4060    0.0780    0.5550 C   0  0  0  0  0  0  0  0  0  0  0  0
    0.9760   -0.0350   -0.0540 C   0  0  0  0  0  0  0  0  0  0  0  0
    1.9810   -0.4220    0.7120 O   0  0  0  0  0  0  0  0  0  0  0  0
    2.6200   -1.2390    1.4790 C   0  0  0  0  0  0  0  0  0  0  0  0
    2.1090   -2.4990    1.8080 C   0  0  0  0  0  0  0  0  0  0  0  0
    2.8000   -3.3590    2.6260 C   0  0  0  0  0  0  0  0  0  0  0  0
    4.0430   -3.0100    3.1640 C   0  0  0  0  0  0  0  0  0  0  0  0
    4.7140   -3.8590    3.9620 F   0  0  0  0  0  0  0  0  0  0  0  0
    4.5800   -1.7550    2.8530 C   0  0  0  0  0  0  0  0  0  0  0  0
    5.8400   -1.4260    3.4040 C   0  0  0  0  0  0  0  0  0  0  0  0
    6.8950   -1.1610    3.8840 N   0  0  0  0  0  0  0  0  0  0  0  0
    3.8740   -0.9340    2.0470 C   0  0  0  0  0  0  0  0  0  0  0  0
   -1.7790    1.8690   -0.7590 C   0  0  0  0  0  0  0  0  0  0  0  0
  2  1  1  6
  2  3  1  0
  2  4  1  0
  2 20  1  0
  4  5  1  0
  5  6  2  0
  5  7  1  0
  7  8  1  0
  7 20  1  0
  8  9  1  0
  9 10  1  0
 10 11  1  0
 11 12  2  0
 11 19  1  0
 12 13  1  0
 13 14  2  0
 14 15  1  0
 14 16  1  0
 16 17  1  0
 16 19  2  0
 17 18  3  0
M  END
