
     RDKit          3D

 23 25  0  0  0  0  0  0  0  0999 V2000
    6.6380    2.1640    0.5770 C   0  0  0  0  0  0  0  0  0  0  0  0
    5.5880    1.8800    1.3950 O   0  0  0  0  0  0  0  0  0  0  0  0
    4.6930    0.9240    0.9680 C   0  0  0  0  0  0  0  0  0  0  0  0
    4.0420    1.3210   -0.2930 C   0  0  0  0  0  0  0  0  0  0  0  0
    3.0460    0.3640   -0.8540 C   0  0  1  0  0  0  0  0  0  0  0  0
    3.5070   -0.9900   -1.1960 C   0  0  1  0  0  0  0  0  0  0  0  0
    4.9470   -1.1300   -1.5880 C   0  0  0  0  0  0  0  0  0  0  0  0
    3.1040   -1.9240   -0.0910 C   0  0  0  0  0  0  0  0  0  0  0  0
    2.1210   -1.1880    0.7740 C   0  0  0  0  0  0  0  0  0  0  0  0
    1.8440    0.1070    0.0450 C   0  0  1  0  0  0  0  0  0  0  0  0
    1.6560    1.1660    0.9360 O   0  0  0  0  0  0  0  0  0  0  0  0
    0.6820   -0.0960   -0.8640 C   0  0  0  0  0  0  0  0  0  0  0  0
   -0.6390   -0.3530   -0.2490 C   0  0  0  0  0  0  0  0  0  0  0  0
   -1.6230   -0.5130   -1.3890 C   0  0  0  0  0  0  0  0  0  0  0  0
   -3.0190   -0.7810   -0.9340 C   0  0  1  0  0  0  0  0  0  0  0  0
   -3.1520   -2.0410   -0.1150 C   0  0  0  0  0  0  0  0  0  0  0  0
   -4.6220   -2.2720    0.1370 C   0  0  0  0  0  0  0  0  0  0  0  0
   -5.3380   -1.0230    0.5610 C   0  0  0  0  0  0  0  0  0  0  0  0
   -4.3250    0.0140    0.9960 C   0  0  2  0  0  0  0  0  0  0  0  0
   -4.9970    1.2140    1.6220 C   0  0  2  0  0  0  0  0  0  0  0  0
   -5.9700    2.0170    0.8330 C   0  0  0  0  0  0  0  0  0  0  0  0
   -4.6300    2.5870    1.2750 C   0  0  0  0  0  0  0  0  0  0  0  0
   -3.5730    0.4330   -0.2660 C   0  0  0  0  0  0  0  0  0  0  0  0
  1  2  1  0
  2  3  1  0
  3  4  1  0
  5  4  1  1
  5  6  1  0
  5 10  1  0
  6  7  1  1
  6  8  1  0
  8  9  1  0
  9 10  1  0
 10 11  1  1
 10 12  1  0
 12 13  1  0
 13 14  1  0
 15 14  1  1
 15 16  1  0
 15 23  1  0
 16 17  1  0
 17 18  1  0
 19 18  1  6
 19 20  1  0
 19 23  1  0
 20 21  1  6
 20 22  1  0
 21 22  1  0
M  END
