
     RDKit          3D

 23 24  0  0  0  0  0  0  0  0999 V2000
    4.7990   -4.1400   -0.5110 C   0  0  0  0  0  0  0  0  0  0  0  0
    3.4730   -3.5780   -0.1470 C   0  0  0  0  0  0  0  0  0  0  0  0
    3.2950   -2.3200    0.2290 C   0  0  0  0  0  0  0  0  0  0  0  0
    1.9790   -1.7830    0.5850 C   0  0  0  0  0  0  0  0  0  0  0  0
    1.5760   -0.6300   -0.3060 C   0  0  1  0  0  0  0  0  0  0  0  0
    1.5050   -1.0430   -1.7600 C   0  0  0  0  0  0  0  0  0  0  0  0
    0.3020    0.0110    0.1310 C   0  0  2  0  0  0  0  0  0  0  0  0
   -0.1590    1.1750   -0.7220 C   0  0  0  0  0  0  0  0  0  0  0  0
    0.8320    2.2980   -0.7640 C   0  0  0  0  0  0  0  0  0  0  0  0
    0.2610    3.3880   -1.6390 C   0  0  0  0  0  0  0  0  0  0  0  0
    1.2190    4.5730   -1.7310 C   0  0  0  0  0  0  0  0  0  0  0  0
    0.1370    0.3290    1.5730 C   0  0  1  0  0  0  0  0  0  0  0  0
   -0.6020    1.4880    1.8490 O   0  0  0  0  0  0  0  0  0  0  0  0
    0.0020    2.2060    2.8810 C   0  0  0  0  0  0  0  0  0  0  0  0
   -0.7430    3.4550    3.2200 C   0  0  0  0  0  0  0  0  0  0  0  0
   -0.7370   -0.9110    1.7940 C   0  0  1  0  0  0  0  0  0  0  0  0
   -2.0350   -0.5990    2.4910 C   0  0  0  0  0  0  0  0  0  0  0  0
   -0.8570   -0.9810    0.2690 C   0  0  1  0  0  0  0  0  0  0  0  0
   -2.0810   -0.4780   -0.1210 O   0  0  0  0  0  0  0  0  0  0  0  0
   -2.7440   -1.4150   -0.8990 C   0  0  1  0  0  0  0  0  0  0  0  0
   -4.2300   -1.5390   -0.6390 C   0  0  0  0  0  0  0  0  0  0  0  0
   -4.4180   -1.5810   -2.1570 C   0  0  0  0  0  0  0  0  0  0  0  0
   -3.1100   -0.8080   -2.2600 C   0  0  0  0  0  0  0  0  0  0  0  0
  1  2  1  0
  2  3  2  3
  3  4  1  0
  4  5  1  0
  5  6  1  6
  5  7  1  0
  7  8  1  6
  7 12  1  0
  7 18  1  0
  8  9  1  0
  9 10  1  0
 10 11  1  0
 12 13  1  6
 12 16  1  0
 13 14  1  0
 14 15  1  0
 16 17  1  1
 16 18  1  0
 18 19  1  1
 20 19  1  1
 20 21  1  0
 20 23  1  0
 21 22  1  0
 22 23  1  0
M  END
