
     RDKit          3D

 23 24  0  0  0  0  0  0  0  0999 V2000
   -3.8500   -3.7200   -1.5620 C   0  0  0  0  0  0  0  0  0  0  0  0
   -2.5190   -3.1350   -1.0630 C   0  0  0  0  0  0  0  0  0  0  0  0
   -2.3080   -1.7600   -1.6220 C   0  0  0  0  0  0  0  0  0  0  0  0
   -0.9920   -1.1130   -1.2000 C   0  0  0  0  0  0  0  0  0  0  0  0
   -0.8730   -0.9460    0.2660 C   0  0  2  0  0  0  0  0  0  0  0  0
   -1.9460   -0.1260    0.8260 C   0  0  0  0  0  0  0  0  0  0  0  0
   -2.1220    1.2720    0.3850 C   0  0  0  0  0  0  0  0  0  0  0  0
   -1.4670    2.0410   -0.4580 C   0  0  0  0  0  0  0  0  0  0  0  0
   -2.0480    3.4040   -0.5650 C   0  0  0  0  0  0  0  0  0  0  0  0
   -3.1690    3.3290    0.3590 C   0  0  0  0  0  0  0  0  0  0  0  0
   -3.2170    2.1580    0.8880 C   0  0  0  0  0  0  0  0  0  0  0  0
   -4.2140    1.6650    1.8870 C   0  0  0  0  0  0  0  0  0  0  0  0
    0.4870   -0.8250    0.8620 C   0  0  2  0  0  0  0  0  0  0  0  0
    1.3770    0.2870    0.4750 C   0  0  0  0  0  0  0  0  0  0  0  0
    2.1390    0.0740   -0.8240 C   0  0  1  0  0  0  0  0  0  0  0  0
    2.8760    1.3510   -1.1520 C   0  0  0  0  0  0  0  0  0  0  0  0
    3.8530    1.7480   -0.0870 C   0  0  0  0  0  0  0  0  0  0  0  0
    4.5180    2.9290   -0.4150 O   0  0  0  0  0  0  0  0  0  0  0  0
    5.4000    3.2200    0.6240 C   0  0  0  0  0  0  0  0  0  0  0  0
    3.0810   -1.0720   -0.5310 C   0  0  0  0  0  0  0  0  0  0  0  0
    2.2730   -2.2770   -0.1990 C   0  0  0  0  0  0  0  0  0  0  0  0
    1.2230   -2.1430    0.8350 C   0  0  1  0  0  0  0  0  0  0  0  0
    1.7900   -2.4370    2.0790 O   0  0  0  0  0  0  0  0  0  0  0  0
  1  2  1  0
  2  3  1  0
  3  4  1  0
  5  4  1  6
  5  6  1  0
  5 13  1  0
  6  7  1  0
  7  8  2  0
  7 11  1  0
  8  9  1  0
  9 10  1  0
 10 11  2  0
 11 12  1  0
 13 14  1  6
 13 22  1  0
 14 15  1  0
 15 16  1  1
 15 20  1  0
 16 17  1  0
 17 18  1  0
 18 19  1  0
 20 21  1  0
 21 22  1  0
 22 23  1  1
M  END
