
     RDKit          3D

 23 24  0  0  0  0  0  0  0  0999 V2000
   -3.2470   -1.2300   -1.9460 C   0  0  0  0  0  0  0  0  0  0  0  0
   -4.0790   -2.1290   -1.0990 C   0  0  0  0  0  0  0  0  0  0  0  0
   -4.5810   -1.5080    0.1840 C   0  0  2  0  0  0  0  0  0  0  0  0
   -5.4270   -0.3000   -0.0490 C   0  0  0  0  0  0  0  0  0  0  0  0
   -3.5420   -1.3730    1.2440 C   0  0  2  0  0  0  0  0  0  0  0  0
   -4.1880   -0.7480    2.4580 C   0  0  0  0  0  0  0  0  0  0  0  0
   -3.3930    0.5220    2.6710 C   0  0  0  0  0  0  0  0  0  0  0  0
   -1.9910    0.0370    2.2750 C   0  0  2  0  0  0  0  0  0  0  0  0
   -1.1600    1.1230    2.1650 O   0  0  0  0  0  0  0  0  0  0  0  0
   -0.0700    0.9050    3.0160 C   0  0  0  0  0  0  0  0  0  0  0  0
    0.9090    2.0530    2.9690 C   0  0  0  0  0  0  0  0  0  0  0  0
    1.4670    2.2690    1.5790 C   0  0  0  0  0  0  0  0  0  0  0  0
    2.1910    1.0600    1.0770 C   0  0  0  0  0  0  0  0  0  0  0  0
    2.7410    1.2820   -0.3100 C   0  0  1  0  0  0  0  0  0  0  0  0
    3.7000    2.4240   -0.3250 C   0  0  0  0  0  0  0  0  0  0  0  0
    4.2030    2.6150   -1.6200 O   0  0  0  0  0  0  0  0  0  0  0  0
    3.3580   -0.0140   -0.7860 C   0  0  1  0  0  0  0  0  0  0  0  0
    2.2210   -1.0450   -0.7790 C   0  0  0  0  0  0  0  0  0  0  0  0
    2.5600   -2.0250   -1.8550 C   0  0  0  0  0  0  0  0  0  0  0  0
    3.4480   -1.3190   -2.8260 C   0  0  0  0  0  0  0  0  0  0  0  0
    3.8370    0.0100   -2.1970 C   0  0  2  0  0  0  0  0  0  0  0  0
    5.3480    0.1070   -2.2950 C   0  0  0  0  0  0  0  0  0  0  0  0
   -2.3430   -0.5670    0.9040 C   0  0  0  0  0  0  0  0  0  0  0  0
  1  2  1  0
  2  3  1  0
  3  4  1  6
  3  5  1  0
  5  6  1  1
  5 23  1  0
  6  7  1  0
  7  8  1  0
  8  9  1  6
  8 23  1  0
  9 10  1  0
 10 11  1  0
 11 12  1  0
 12 13  1  0
 14 13  1  1
 14 15  1  0
 14 17  1  0
 15 16  1  0
 17 18  1  6
 17 21  1  0
 18 19  1  0
 19 20  1  0
 20 21  1  0
 21 22  1  1
M  END
