
     RDKit          3D

  9  9  0  0  0  0  0  0  0  0999 V2000
    2.4030    1.0050   -1.2430 O   0  0  0  0  0  0  0  0  0  0  0  0
    1.4800    0.6660   -0.4580 C   0  0  0  0  0  0  0  0  0  0  0  0
    1.7950   -0.5640    0.3040 C   0  0  0  0  0  0  0  0  0  0  0  0
    1.2090   -1.6660   -0.2760 O   0  0  0  0  0  0  0  0  0  0  0  0
   -0.1070   -1.8600    0.0880 C   0  0  0  0  0  0  0  0  0  0  0  0
   -1.0280   -0.7650   -0.4080 C   0  0  0  0  0  0  0  0  0  0  0  0
   -1.2880    0.2940    0.6170 C   0  0  0  0  0  0  0  0  0  0  0  0
   -0.8810    1.6630    0.0870 C   0  0  0  0  0  0  0  0  0  0  0  0
    0.4070    1.6050   -0.5670 N   0  0  0  0  0  0  0  0  0  0  0  0
  1  2  2  0
  2  3  1  0
  2  9  1  0
  3  4  1  0
  4  5  1  0
  5  6  1  0
  6  7  1  0
  7  8  1  0
  8  9  1  0
M  END
