
     RDKit          3D

  9  9  0  0  0  0  0  0  0  0999 V2000
    2.1100    0.8840   -0.0140 C   0  0  0  0  0  0  0  0  0  0  0  0
    1.3430    0.0540   -0.9250 N   0  0  0  0  0  0  0  0  0  0  0  0
    1.2710   -1.3140   -0.4220 C   0  0  0  0  0  0  0  0  0  0  0  0
   -0.1520   -1.8330   -0.4430 C   0  0  0  0  0  0  0  0  0  0  0  0
   -0.9570   -1.0770    0.4050 O   0  0  0  0  0  0  0  0  0  0  0  0
   -0.7040    0.2760    0.3050 C   0  0  2  0  0  0  0  0  0  0  0  0
   -1.9980    1.0750    0.4350 C   0  0  0  0  0  0  0  0  0  0  0  0
   -2.9020    0.7440   -0.5480 O   0  0  0  0  0  0  0  0  0  0  0  0
   -0.0130    0.6010   -0.9820 C   0  0  0  0  0  0  0  0  0  0  0  0
  1  2  1  0
  2  3  1  0
  2  9  1  0
  3  4  1  0
  4  5  1  0
  5  6  1  0
  6  7  1  6
  6  9  1  0
  7  8  1  0
M  END
