
     RDKit          3D

  9  9  0  0  0  0  0  0  0  0999 V2000
    3.5940    0.2060   -0.3310 C   0  0  0  0  0  0  0  0  0  0  0  0
    2.2180    0.5340   -0.2520 O   0  0  0  0  0  0  0  0  0  0  0  0
    1.2280   -0.3720   -0.0000 C   0  0  0  0  0  0  0  0  0  0  0  0
    1.5450   -1.5720    0.1730 O   0  0  0  0  0  0  0  0  0  0  0  0
   -0.2050   -0.0050    0.0780 C   0  0  0  0  0  0  0  0  0  0  0  0
   -0.7040    1.1610   -0.0720 N   0  0  0  0  0  0  0  0  0  0  0  0
   -2.1420    1.1930    0.0640 C   0  0  0  0  0  0  0  0  0  0  0  0
   -2.5180   -0.1310    0.7040 C   0  0  0  0  0  0  0  0  0  0  0  0
   -1.3190   -0.9470    0.3460 C   0  0  0  0  0  0  0  0  0  0  0  0
  1  2  1  0
  2  3  1  0
  3  4  2  0
  3  5  1  0
  5  6  2  0
  5  9  1  0
  6  7  1  0
  7  8  1  0
  8  9  1  0
M  END
