
     RDKit          3D

  9  9  0  0  0  0  0  0  0  0999 V2000
    2.6110    0.6010    0.3430 N   0  0  0  0  0  0  0  0  0  0  0  0
    1.3120    0.2630   -0.2610 C   0  0  1  0  0  0  0  0  0  0  0  0
    0.7470   -0.8720    0.5170 C   0  0  0  0  0  0  0  0  0  0  0  0
   -0.5620   -1.3290   -0.1310 C   0  0  0  0  0  0  0  0  0  0  0  0
   -1.6580   -0.5450    0.5480 C   0  0  0  0  0  0  0  0  0  0  0  0
   -1.9070    0.7490   -0.1290 C   0  0  0  0  0  0  0  0  0  0  0  0
   -0.8410    1.6090   -0.2440 O   0  0  0  0  0  0  0  0  0  0  0  0
    0.5130    1.4810   -0.2670 C   0  0  0  0  0  0  0  0  0  0  0  0
    1.1410    2.5760   -0.2970 O   0  0  0  0  0  0  0  0  0  0  0  0
  2  1  1  1
  2  3  1  0
  2  8  1  0
  3  4  1  0
  4  5  1  0
  5  6  1  0
  6  7  1  0
  7  8  1  0
  8  9  2  0
M  END
