
     RDKit          3D

 16 16  0  0  0  0  0  0  0  0999 V2000
    3.9800    1.0940   -1.8110 O   0  0  0  0  0  0  0  0  0  0  0  0
    4.6320    1.3520   -0.6320 C   0  0  0  0  0  0  0  0  0  0  0  0
    3.7640    1.3940    0.5910 C   0  0  0  0  0  0  0  0  0  0  0  0
    3.0810    0.2850    0.8910 O   0  0  0  0  0  0  0  0  0  0  0  0
    2.1730   -0.2320   -0.0070 C   0  0  0  0  0  0  0  0  0  0  0  0
    1.0870    0.8000   -0.2530 C   0  0  0  0  0  0  0  0  0  0  0  0
   -0.1690    0.4270   -1.3840 S   0  0  0  0  0  0  0  0  0  0  0  0
   -1.4110   -0.7690   -1.1750 C   0  0  1  0  0  0  0  0  0  0  0  0
   -1.0250   -2.2200   -1.1200 C   0  0  0  0  0  0  0  0  0  0  0  0
   -0.2080   -2.6380   -0.1420 O   0  0  0  0  0  0  0  0  0  0  0  0
   -2.5050   -0.4630   -0.2110 C   0  0  0  0  0  0  0  0  0  0  0  0
   -2.3960    0.4700    0.6910 C   0  0  0  0  0  0  0  0  0  0  0  0
   -3.4740    0.7980    1.6710 C   0  0  0  0  0  0  0  0  0  0  0  0
   -4.6420    0.0700    1.5300 O   0  0  0  0  0  0  0  0  0  0  0  0
   -4.7450   -0.9180    0.5680 C   0  0  0  0  0  0  0  0  0  0  0  0
   -3.7530   -1.2090   -0.2840 C   0  0  0  0  0  0  0  0  0  0  0  0
  1  2  1  0
  2  3  1  0
  3  4  1  0
  4  5  1  0
  5  6  1  0
  6  7  1  0
  7  8  1  0
  8  9  1  1
  8 11  1  0
  9 10  1  0
 11 12  2  0
 11 16  1  0
 12 13  1  0
 13 14  1  0
 14 15  1  0
 15 16  2  0
M  END
