
     RDKit          3D

 16 16  0  0  0  0  0  0  0  0999 V2000
    6.3180    0.0210   -0.1900 C   0  0  0  0  0  0  0  0  0  0  0  0
    4.6530   -0.5730    0.1450 S   0  0  0  0  0  0  0  0  0  0  0  0
    3.4180    0.5510   -0.5570 C   0  0  0  0  0  0  0  0  0  0  0  0
    2.0210   -0.0470   -0.2140 C   0  0  0  0  0  0  0  0  0  0  0  0
    1.0380    0.7410   -0.7090 O   0  0  0  0  0  0  0  0  0  0  0  0
   -0.2550    0.3990   -0.6330 C   0  0  0  0  0  0  0  0  0  0  0  0
   -0.9360    0.1710    0.6690 C   0  0  2  0  0  0  0  0  0  0  0  0
   -0.7790    1.3010    1.4710 O   0  0  0  0  0  0  0  0  0  0  0  0
   -0.6060   -1.0400    1.4430 C   0  0  0  0  0  0  0  0  0  0  0  0
   -0.6800   -2.2210    0.7080 O   0  0  0  0  0  0  0  0  0  0  0  0
   -2.4330    0.1080    0.3020 C   0  0  0  0  0  0  0  0  0  0  0  0
   -3.2480    0.9540    0.8210 C   0  0  0  0  0  0  0  0  0  0  0  0
   -4.7040    0.9890    0.5430 C   0  0  0  0  0  0  0  0  0  0  0  0
   -5.0820   -0.0050   -0.3460 O   0  0  0  0  0  0  0  0  0  0  0  0
   -4.2050   -0.8990   -0.8930 C   0  0  0  0  0  0  0  0  0  0  0  0
   -2.8890   -0.9070   -0.6240 C   0  0  0  0  0  0  0  0  0  0  0  0
  1  2  1  0
  2  3  1  0
  3  4  1  0
  4  5  1  0
  5  6  1  0
  6  7  1  0
  7  8  1  1
  7  9  1  0
  7 11  1  0
  9 10  1  0
 11 12  2  0
 11 16  1  0
 12 13  1  0
 13 14  1  0
 14 15  1  0
 15 16  2  0
M  END
