
     RDKit          3D

 16 15  0  0  0  0  0  0  0  0999 V2000
    5.1000   -0.4690   -1.0920 C   0  0  0  0  0  0  0  0  0  0  0  0
    4.4780    0.4240   -0.0490 C   0  0  0  0  0  0  0  0  0  0  0  0
    3.4680   -0.2940    0.8010 C   0  0  0  0  0  0  0  0  0  0  0  0
    2.3230   -0.8570    0.0040 C   0  0  0  0  0  0  0  0  0  0  0  0
    1.6040    0.0860   -0.6850 O   0  0  0  0  0  0  0  0  0  0  0  0
    1.0180    1.0570    0.0740 C   0  0  0  0  0  0  0  0  0  0  0  0
    0.0320    0.5560    1.0890 C   0  0  1  0  0  0  0  0  0  0  0  0
   -0.4840    1.6480    1.7810 O   0  0  0  0  0  0  0  0  0  0  0  0
   -1.0370   -0.3060    0.5240 C   0  0  0  0  0  0  0  0  0  0  0  0
   -1.8970    0.3540   -0.5220 C   0  0  2  0  0  0  0  0  0  0  0  0
   -2.6370    1.5600   -0.0810 C   0  0  0  0  0  0  0  0  0  0  0  0
   -2.6980   -0.6130   -1.3090 C   0  0  0  0  0  0  0  0  0  0  0  0
   -3.6440   -1.5000   -0.6080 C   0  0  0  0  0  0  0  0  0  0  0  0
   -4.9550   -0.7370    0.2830 S   0  0  2  0  0  0  0  0  0  0  0  0
   -5.4550    0.5310   -0.3350 O   0  0  0  0  0  0  0  0  0  0  0  0
   -4.6420   -0.5760    1.7630 O   0  0  0  0  0  0  0  0  0  0  0  0
  1  2  1  0
  2  3  1  0
  3  4  1  0
  4  5  1  0
  5  6  1  0
  6  7  1  0
  7  8  1  6
  7  9  1  0
  9 10  1  0
 10 11  1  1
 10 12  1  0
 12 13  1  0
 14 13  1  6
 14 15  2  0
 14 16  2  0
M  END
