
     RDKit          3D

 20 21  0  0  0  0  0  0  0  0999 V2000
   -1.6680   -2.1430    0.2990 C   0  0  0  0  0  0  0  0  0  0  0  0
   -1.5210   -0.7700   -0.2760 C   0  0  1  0  0  0  0  0  0  0  0  0
   -1.6790   -0.8870   -1.7940 C   0  0  0  0  0  0  0  0  0  0  0  0
   -2.5470    0.2110    0.1970 C   0  0  1  0  0  0  0  0  0  0  0  0
   -3.6340    0.2770   -0.6720 O   0  0  0  0  0  0  0  0  0  0  0  0
   -2.9960    0.0000    1.6140 C   0  0  0  0  0  0  0  0  0  0  0  0
   -3.7070   -1.1380    1.8360 O   0  0  0  0  0  0  0  0  0  0  0  0
   -1.9440    1.4900    0.1810 O   0  0  0  0  0  0  0  0  0  0  0  0
   -0.6710    1.3700   -0.2310 C   0  0  1  0  0  0  0  0  0  0  0  0
    0.3430    2.1800    0.4390 C   0  0  0  0  0  0  0  0  0  0  0  0
    0.1140    3.1660    1.1800 O   0  0  0  0  0  0  0  0  0  0  0  0
    1.6740    1.7800    0.2000 O   0  0  0  0  0  0  0  0  0  0  0  0
    2.0530    0.4820   -0.1130 C   0  0  2  0  0  0  0  0  0  0  0  0
    2.3570   -0.1690    1.1030 O   0  0  0  0  0  0  0  0  0  0  0  0
    3.3000    0.4270   -0.9520 C   0  0  0  0  0  0  0  0  0  0  0  0
    4.4100    1.0880   -0.1540 C   0  0  0  0  0  0  0  0  0  0  0  0
    4.5370    0.3430    1.0290 O   0  0  0  0  0  0  0  0  0  0  0  0
    0.9280   -0.3460   -0.7340 C   0  0  0  0  0  0  0  0  0  0  0  0
   -0.2680   -0.0810    0.0930 C   0  0  2  0  0  0  0  0  0  0  0  0
   -0.0220   -0.2380    1.4450 O   0  0  0  0  0  0  0  0  0  0  0  0
  2  1  1  1
  2  3  1  0
  2  4  1  0
  2 19  1  0
  4  5  1  6
  4  6  1  0
  4  8  1  0
  6  7  1  0
  9  8  1  1
  9 10  1  0
  9 19  1  0
 10 11  2  0
 10 12  1  0
 12 13  1  0
 13 14  1  1
 13 15  1  0
 13 18  1  0
 15 16  1  0
 16 17  1  0
 18 19  1  0
 19 20  1  1
M  END
