
     RDKit          3D

 21 22  0  0  0  0  0  0  0  0999 V2000
    6.9110   -1.4450    0.1510 O   0  0  0  0  0  0  0  0  0  0  0  0
    5.5580   -1.4290    0.4220 C   0  0  0  0  0  0  0  0  0  0  0  0
    5.0890   -0.0260    0.7870 C   0  0  1  0  0  0  0  0  0  0  0  0
    5.3430    0.8350   -0.2770 O   0  0  0  0  0  0  0  0  0  0  0  0
    3.5730   -0.0670    1.0750 C   0  0  0  0  0  0  0  0  0  0  0  0
    2.9890   -0.5150   -0.0660 O   0  0  0  0  0  0  0  0  0  0  0  0
    1.6440   -0.6850   -0.1050 C   0  0  0  0  0  0  0  0  0  0  0  0
    0.8620    0.5490    0.1450 C   0  0  2  0  0  0  0  0  0  0  0  0
    1.0720    1.1150    1.3950 O   0  0  0  0  0  0  0  0  0  0  0  0
   -0.6240    0.3750   -0.0490 C   0  0  2  0  0  0  0  0  0  0  0  0
   -1.2350   -0.3530    1.1060 C   0  0  0  0  0  0  0  0  0  0  0  0
   -2.5070   -0.7970    0.8800 O   0  0  0  0  0  0  0  0  0  0  0  0
   -2.7840   -1.1970   -0.3950 C   0  0  1  0  0  0  0  0  0  0  0  0
   -4.3000   -1.2690   -0.5420 C   0  0  0  0  0  0  0  0  0  0  0  0
   -4.8440    0.1120   -0.3730 C   0  0  2  0  0  0  0  0  0  0  0  0
   -5.9770    0.3340   -1.1810 O   0  0  0  0  0  0  0  0  0  0  0  0
   -3.8430    1.2010   -0.5660 C   0  0  2  0  0  0  0  0  0  0  0  0
   -4.5570    2.3400   -1.0000 O   0  0  0  0  0  0  0  0  0  0  0  0
   -2.8740    0.9540   -1.4900 O   0  0  0  0  0  0  0  0  0  0  0  0
   -2.2730   -0.2650   -1.4390 C   0  0  1  0  0  0  0  0  0  0  0  0
   -0.8710   -0.1840   -1.2760 O   0  0  0  0  0  0  0  0  0  0  0  0
  1  2  1  0
  2  3  1  0
  3  4  1  6
  3  5  1  0
  5  6  1  0
  6  7  1  0
  7  8  1  0
  8  9  1  1
  8 10  1  0
 10 11  1  1
 10 21  1  0
 11 12  1  0
 12 13  1  0
 13 14  1  1
 13 20  1  0
 14 15  1  0
 15 16  1  6
 15 17  1  0
 17 18  1  6
 17 19  1  0
 20 19  1  1
 20 21  1  0
M  END
