
     RDKit          3D

 20 21  0  0  0  0  0  0  0  0999 V2000
   -3.5080    3.7250    0.8220 C   0  0  0  0  0  0  0  0  0  0  0  0
   -3.3450    2.5630    0.0940 O   0  0  0  0  0  0  0  0  0  0  0  0
   -2.2610    1.8140    0.4980 C   0  0  0  0  0  0  0  0  0  0  0  0
   -2.1870    0.5750   -0.3680 C   0  0  2  0  0  0  0  0  0  0  0  0
   -3.3460   -0.1900   -0.2460 O   0  0  0  0  0  0  0  0  0  0  0  0
   -3.0530   -1.0770    0.7940 C   0  0  0  0  0  0  0  0  0  0  0  0
   -1.7240   -1.6250    0.2910 C   0  0  1  0  0  0  0  0  0  0  0  0
   -1.0900   -2.3870    1.2400 O   0  0  0  0  0  0  0  0  0  0  0  0
   -2.0500   -2.3990   -0.9640 C   0  0  0  0  0  0  0  0  0  0  0  0
   -0.9550   -2.9220   -1.5970 O   0  0  0  0  0  0  0  0  0  0  0  0
   -1.0300   -0.3170    0.0000 C   0  0  1  0  0  0  0  0  0  0  0  0
   -0.0540   -0.3930   -0.9460 O   0  0  0  0  0  0  0  0  0  0  0  0
    1.1480    0.0230   -0.3750 C   0  0  1  0  0  0  0  0  0  0  0  0
    2.2400   -0.9890   -0.4870 C   0  0  0  0  0  0  0  0  0  0  0  0
    3.4910   -0.1280   -0.4610 C   0  0  2  0  0  0  0  0  0  0  0  0
    4.3830   -0.4750   -1.4750 O   0  0  0  0  0  0  0  0  0  0  0  0
    4.1740   -0.1810    0.8800 C   0  0  0  0  0  0  0  0  0  0  0  0
    4.6670   -1.4300    1.1840 O   0  0  0  0  0  0  0  0  0  0  0  0
    2.9580    1.2740   -0.6550 C   0  0  0  0  0  0  0  0  0  0  0  0
    1.6310    1.1510   -1.0330 O   0  0  0  0  0  0  0  0  0  0  0  0
  1  2  1  0
  2  3  1  0
  4  3  1  1
  4  5  1  0
  4 11  1  0
  5  6  1  0
  6  7  1  0
  7  8  1  1
  7  9  1  0
  7 11  1  0
  9 10  1  0
 11 12  1  6
 13 12  1  6
 13 14  1  0
 13 20  1  0
 14 15  1  0
 15 16  1  6
 15 17  1  0
 15 19  1  0
 17 18  1  0
 19 20  1  0
M  END
