
     RDKit          3D

 20 21  0  0  0  0  0  0  0  0999 V2000
   -4.5350    0.8330   -1.3520 O   0  0  0  0  0  0  0  0  0  0  0  0
   -4.3310   -0.4930   -1.0630 C   0  0  0  0  0  0  0  0  0  0  0  0
   -2.9990   -0.7420   -0.4710 C   0  0  0  0  0  0  0  0  0  0  0  0
   -2.6850   -0.0660    0.8130 C   0  0  2  0  0  0  0  0  0  0  0  0
   -3.6200   -0.4130    1.9310 C   0  0  0  0  0  0  0  0  0  0  0  0
   -3.2290    0.3310    3.0520 O   0  0  0  0  0  0  0  0  0  0  0  0
   -2.5030    1.4280    0.7390 C   0  0  0  0  0  0  0  0  0  0  0  0
   -1.2550    1.4710    0.0690 O   0  0  0  0  0  0  0  0  0  0  0  0
   -0.5200    0.4770    0.7100 C   0  0  2  0  0  0  0  0  0  0  0  0
    0.2660   -0.1500   -0.2410 O   0  0  0  0  0  0  0  0  0  0  0  0
    1.6060   -0.0370    0.1260 C   0  0  1  0  0  0  0  0  0  0  0  0
    2.2100   -1.3960    0.3090 C   0  0  0  0  0  0  0  0  0  0  0  0
    3.6080   -1.5200   -0.2020 C   0  0  1  0  0  0  0  0  0  0  0  0
    3.6080   -1.8390   -1.5470 O   0  0  0  0  0  0  0  0  0  0  0  0
    4.3590   -0.2510    0.1020 C   0  0  1  0  0  0  0  0  0  0  0  0
    5.7060   -0.4010   -0.1230 O   0  0  0  0  0  0  0  0  0  0  0  0
    3.7800    0.9430   -0.6240 C   0  0  0  0  0  0  0  0  0  0  0  0
    2.3220    0.7730   -0.9320 C   0  0  2  0  0  0  0  0  0  0  0  0
    1.7370    2.0380   -0.9560 O   0  0  0  0  0  0  0  0  0  0  0  0
   -1.3940   -0.4260    1.2730 O   0  0  0  0  0  0  0  0  0  0  0  0
  1  2  1  0
  2  3  1  0
  4  3  1  6
  4  5  1  0
  4  7  1  0
  4 20  1  0
  5  6  1  0
  7  8  1  0
  8  9  1  0
  9 10  1  6
  9 20  1  0
 11 10  1  6
 11 12  1  0
 11 18  1  0
 12 13  1  0
 13 14  1  6
 13 15  1  0
 15 16  1  6
 15 17  1  0
 17 18  1  0
 18 19  1  1
M  END
