
     RDKit          3D

 19 20  0  0  0  0  0  0  0  0999 V2000
   -2.4320   -1.5280   -0.5120 C   0  0  0  0  0  0  0  0  0  0  0  0
   -2.3040   -0.0420   -0.3530 C   0  0  2  0  0  0  0  0  0  0  0  0
   -2.9830    0.3950    0.7720 O   0  0  0  0  0  0  0  0  0  0  0  0
   -2.8000    0.7300   -1.5410 C   0  0  1  0  0  0  0  0  0  0  0  0
   -4.2200    0.9540   -1.5270 N   0  0  0  0  0  0  0  0  0  0  0  0
   -2.0280    2.0360   -1.3170 C   0  0  0  0  0  0  0  0  0  0  0  0
   -0.7520    1.5420   -1.0710 O   0  0  0  0  0  0  0  0  0  0  0  0
   -0.8690    0.4260   -0.2890 C   0  0  2  0  0  0  0  0  0  0  0  0
    0.0150   -0.5420   -0.8050 O   0  0  0  0  0  0  0  0  0  0  0  0
    1.0010   -0.8770    0.1060 C   0  0  1  0  0  0  0  0  0  0  0  0
    0.8470   -2.3350    0.5050 C   0  0  0  0  0  0  0  0  0  0  0  0
    1.8460   -2.6720    1.4270 O   0  0  0  0  0  0  0  0  0  0  0  0
    2.2750   -0.6000   -0.3260 O   0  0  0  0  0  0  0  0  0  0  0  0
    2.9460    0.3280    0.4740 C   0  0  1  0  0  0  0  0  0  0  0  0
    4.0610   -0.3050    1.0000 O   0  0  0  0  0  0  0  0  0  0  0  0
    5.0780    0.6440    1.0330 C   0  0  0  0  0  0  0  0  0  0  0  0
    4.8420    1.4860   -0.1030 O   0  0  0  0  0  0  0  0  0  0  0  0
    3.4700    1.4730   -0.3120 C   0  0  0  0  0  0  0  0  0  0  0  0
    2.7730    2.2440   -1.0070 O   0  0  0  0  0  0  0  0  0  0  0  0
  2  1  1  6
  2  3  1  0
  2  4  1  0
  2  8  1  0
  4  5  1  1
  4  6  1  0
  6  7  1  0
  7  8  1  0
  8  9  1  6
  9 10  1  0
 10 11  1  6
 10 13  1  0
 11 12  1  0
 14 13  1  6
 14 15  1  0
 14 18  1  0
 15 16  1  0
 16 17  1  0
 17 18  1  0
 18 19  2  0
M  END
