
     RDKit          3D

 20 20  0  0  0  0  0  0  0  0999 V2000
   -3.2400   -0.3610   -0.9170 N   0  0  0  0  0  0  0  0  0  0  0  0
   -2.4860   -0.3080    0.3020 C   0  0  1  0  0  0  0  0  0  0  0  0
   -1.6250   -1.5200    0.4160 C   0  0  2  0  0  0  0  0  0  0  0  0
   -0.8640   -1.5290    1.5830 O   0  0  0  0  0  0  0  0  0  0  0  0
   -0.7010   -1.7000   -0.7690 C   0  0  1  0  0  0  0  0  0  0  0  0
   -1.3650   -1.7040   -1.9690 O   0  0  0  0  0  0  0  0  0  0  0  0
    0.3220   -0.7180   -0.7240 O   0  0  0  0  0  0  0  0  0  0  0  0
    1.6560   -1.0340   -0.5660 C   0  0  0  0  0  0  0  0  0  0  0  0
    1.9520   -2.2520   -0.4590 O   0  0  0  0  0  0  0  0  0  0  0  0
    2.7250    0.0280   -0.5220 C   0  0  1  0  0  0  0  0  0  0  0  0
    3.7330   -0.3420   -1.5780 C   0  0  0  0  0  0  0  0  0  0  0  0
    4.1700   -1.6460   -1.2780 O   0  0  0  0  0  0  0  0  0  0  0  0
    2.1900    1.2710   -0.6560 O   0  0  0  0  0  0  0  0  0  0  0  0
    2.4260    2.1400    0.3860 C   0  0  0  0  0  0  0  0  0  0  0  0
    3.7790    2.3350    0.5550 O   0  0  0  0  0  0  0  0  0  0  0  0
   -1.7670    0.9860    0.5170 C   0  0  0  0  0  0  0  0  0  0  0  0
   -2.7970    1.7890    1.3220 C   0  0  0  0  0  0  0  0  0  0  0  0
   -3.4480    0.8360    2.1360 O   0  0  0  0  0  0  0  0  0  0  0  0
   -3.4620   -0.3440    1.4380 C   0  0  0  0  0  0  0  0  0  0  0  0
   -4.1860   -1.3280    1.7000 O   0  0  0  0  0  0  0  0  0  0  0  0
  2  1  1  6
  2  3  1  0
  2 16  1  0
  2 19  1  0
  3  4  1  1
  3  5  1  0
  5  6  1  6
  5  7  1  0
  7  8  1  0
  8  9  2  0
  8 10  1  0
 10 11  1  6
 10 13  1  0
 11 12  1  0
 13 14  1  0
 14 15  1  0
 16 17  1  0
 17 18  1  0
 18 19  1  0
 19 20  2  0
M  END
