
     RDKit          3D

 20 21  0  0  0  0  0  0  0  0999 V2000
    4.9260    2.0050   -0.2170 O   0  0  0  0  0  0  0  0  0  0  0  0
    4.4830    0.7100   -0.4620 C   0  0  0  0  0  0  0  0  0  0  0  0
    3.5910    0.2400    0.6730 C   0  0  1  0  0  0  0  0  0  0  0  0
    2.5070    1.0720    0.7800 O   0  0  0  0  0  0  0  0  0  0  0  0
    1.3470    0.3240    0.5770 C   0  0  2  0  0  0  0  0  0  0  0  0
    0.2900    0.8320    1.3070 O   0  0  0  0  0  0  0  0  0  0  0  0
   -0.7950    1.2320    0.5790 C   0  0  0  0  0  0  0  0  0  0  0  0
   -1.4090    0.1250   -0.2030 C   0  0  2  0  0  0  0  0  0  0  0  0
   -2.5090    0.6780   -0.9010 O   0  0  0  0  0  0  0  0  0  0  0  0
   -3.4640    0.9550    0.0420 C   0  0  1  0  0  0  0  0  0  0  0  0
   -4.7650    0.8630   -0.6100 N   0  0  0  0  0  0  0  0  0  0  0  0
   -4.9460   -0.3840   -1.1070 O   0  0  0  0  0  0  0  0  0  0  0  0
   -3.3710   -0.0860    1.1150 C   0  0  2  0  0  0  0  0  0  0  0  0
   -3.2780    0.4260    2.3910 O   0  0  0  0  0  0  0  0  0  0  0  0
   -2.1380   -0.8610    0.7030 C   0  0  1  0  0  0  0  0  0  0  0  0
   -2.5290   -1.9770    0.0040 O   0  0  0  0  0  0  0  0  0  0  0  0
    1.7200   -1.0710    1.0480 C   0  0  1  0  0  0  0  0  0  0  0  0
    0.8990   -2.0600    0.5880 O   0  0  0  0  0  0  0  0  0  0  0  0
    3.1220   -1.1580    0.4260 C   0  0  2  0  0  0  0  0  0  0  0  0
    3.8890   -2.1180    1.0620 O   0  0  0  0  0  0  0  0  0  0  0  0
  1  2  1  0
  3  2  1  6
  3  4  1  0
  3 19  1  0
  4  5  1  0
  5  6  1  1
  5 17  1  0
  6  7  1  0
  8  7  1  1
  8  9  1  0
  8 15  1  0
  9 10  1  0
 10 11  1  6
 10 13  1  0
 11 12  1  0
 13 14  1  1
 13 15  1  0
 15 16  1  6
 17 18  1  6
 17 19  1  0
 19 20  1  1
M  END
