
     RDKit          3D

 19 19  0  0  0  0  0  0  0  0999 V2000
   -4.2470    2.2650    0.6140 C   0  0  0  0  0  0  0  0  0  0  0  0
   -3.7200    0.9250    0.1430 C   0  0  2  0  0  0  0  0  0  0  0  0
   -3.8040   -0.0040    1.2270 N   0  0  0  0  0  0  0  0  0  0  0  0
   -2.3140    1.1410   -0.3640 C   0  0  2  0  0  0  0  0  0  0  0  0
   -2.4120    2.0710   -1.4150 O   0  0  0  0  0  0  0  0  0  0  0  0
   -1.6830   -0.1300   -0.8630 C   0  0  2  0  0  0  0  0  0  0  0  0
   -1.5800   -1.0500    0.1500 O   0  0  0  0  0  0  0  0  0  0  0  0
   -0.2560   -1.3440    0.3650 C   0  0  0  0  0  0  0  0  0  0  0  0
    0.4200   -0.8700   -0.8820 C   0  0  2  0  0  0  0  0  0  0  0  0
    0.4510   -1.9990   -1.8880 C   0  0  0  0  0  0  0  0  0  0  0  0
    0.9370   -1.5310   -3.1090 O   0  0  0  0  0  0  0  0  0  0  0  0
    1.8430   -0.3700   -0.6080 C   0  0  0  0  0  0  0  0  0  0  0  0
    2.5960   -1.4300   -0.1990 O   0  0  0  0  0  0  0  0  0  0  0  0
    3.9070   -1.2090    0.0890 C   0  0  0  0  0  0  0  0  0  0  0  0
    4.2260   -0.2560    1.1810 C   0  0  1  0  0  0  0  0  0  0  0  0
    5.6510   -0.2300    1.2560 O   0  0  0  0  0  0  0  0  0  0  0  0
    3.8710    1.0610    0.9530 O   0  0  0  0  0  0  0  0  0  0  0  0
    3.3390    1.5280    2.0670 O   0  0  0  0  0  0  0  0  0  0  0  0
   -0.3990    0.1720   -1.3050 O   0  0  0  0  0  0  0  0  0  0  0  0
  2  1  1  1
  2  3  1  0
  2  4  1  0
  4  5  1  6
  4  6  1  0
  6  7  1  1
  6 19  1  0
  7  8  1  0
  8  9  1  0
  9 10  1  6
  9 12  1  0
  9 19  1  0
 10 11  1  0
 12 13  1  0
 13 14  1  0
 14 15  1  0
 15 16  1  6
 15 17  1  0
 17 18  1  0
M  CHG  1   3   1
M  END
