
     RDKit          3D

 34 36  0  0  0  0  0  0  0  0999 V2000
    6.0750    0.0390   -2.9590 O   0  0  0  0  0  0  0  0  0  0  0  0
    5.1170   -0.8530   -2.4250 C   0  0  0  0  0  0  0  0  0  0  0  0
    4.8260   -0.4160   -1.0370 C   0  0  1  0  0  0  0  0  0  0  0  0
    3.8990   -1.2200   -0.4190 O   0  0  0  0  0  0  0  0  0  0  0  0
    3.4000   -0.6800    0.7750 C   0  0  2  0  0  0  0  0  0  0  0  0
    2.3670    0.1380    0.4140 O   0  0  0  0  0  0  0  0  0  0  0  0
    1.1020   -0.3090    0.6880 C   0  0  2  0  0  0  0  0  0  0  0  0
    0.2190   -0.4700   -0.5240 C   0  0  1  0  0  0  0  0  0  0  0  0
    0.8600   -1.1900   -1.6680 C   0  0  0  0  0  0  0  0  0  0  0  0
    1.2340   -2.5000   -1.3200 O   0  0  0  0  0  0  0  0  0  0  0  0
   -0.8990   -1.1680   -0.1470 O   0  0  0  0  0  0  0  0  0  0  0  0
   -1.6920   -0.5220    0.7990 C   0  0  2  0  0  0  0  0  0  0  0  0
   -2.4740    0.4720    0.2300 O   0  0  0  0  0  0  0  0  0  0  0  0
   -3.8400    0.1880    0.2360 C   0  0  2  0  0  0  0  0  0  0  0  0
   -4.3640   -0.0240   -1.1700 C   0  0  1  0  0  0  0  0  0  0  0  0
   -5.0470   -1.3660   -1.3400 C   0  0  0  0  0  0  0  0  0  0  0  0
   -5.2800   -1.6690   -2.6640 O   0  0  0  0  0  0  0  0  0  0  0  0
   -5.0930    1.0180   -1.6710 O   0  0  0  0  0  0  0  0  0  0  0  0
   -6.1540    1.4430   -0.9220 C   0  0  2  0  0  0  0  0  0  0  0  0
   -6.2830    2.8420   -1.0890 O   0  0  0  0  0  0  0  0  0  0  0  0
   -6.0720    1.1740    0.5410 C   0  0  2  0  0  0  0  0  0  0  0  0
   -6.6960    2.2360    1.2370 O   0  0  0  0  0  0  0  0  0  0  0  0
   -4.6410    1.1630    1.0310 C   0  0  1  0  0  0  0  0  0  0  0  0
   -4.7260    0.8240    2.3960 O   0  0  0  0  0  0  0  0  0  0  0  0
   -0.9140   -0.0870    2.0040 C   0  0  2  0  0  0  0  0  0  0  0  0
   -1.6840    0.6560    2.8570 O   0  0  0  0  0  0  0  0  0  0  0  0
    0.3200    0.6640    1.5470 C   0  0  1  0  0  0  0  0  0  0  0  0
    1.0060    1.2630    2.5500 O   0  0  0  0  0  0  0  0  0  0  0  0
    4.4270   -0.1680    1.6910 C   0  0  2  0  0  0  0  0  0  0  0  0
    4.0610    1.0060    2.3930 O   0  0  0  0  0  0  0  0  0  0  0  0
    5.7790    0.1420    1.1050 C   0  0  1  0  0  0  0  0  0  0  0  0
    6.8150   -0.1520    2.0090 O   0  0  0  0  0  0  0  0  0  0  0  0
    6.0930   -0.5380   -0.1780 C   0  0  2  0  0  0  0  0  0  0  0  0
    7.1740    0.0640   -0.7780 O   0  0  0  0  0  0  0  0  0  0  0  0
  1  2  1  0
  3  2  1  6
  3  4  1  0
  3 33  1  0
  4  5  1  0
  5  6  1  6
  5 29  1  0
  7  6  1  6
  7  8  1  0
  7 27  1  0
  8  9  1  6
  8 11  1  0
  9 10  1  0
 11 12  1  0
 12 13  1  6
 12 25  1  0
 14 13  1  6
 14 15  1  0
 14 23  1  0
 15 16  1  1
 15 18  1  0
 16 17  1  0
 18 19  1  0
 19 20  1  1
 19 21  1  0
 21 22  1  1
 21 23  1  0
 23 24  1  1
 25 26  1  1
 25 27  1  0
 27 28  1  1
 29 30  1  6
 29 31  1  0
 31 32  1  1
 31 33  1  0
 33 34  1  6
M  END
