
     RDKit          3D

 34 37  0  0  0  0  0  0  0  0999 V2000
    4.4820   -0.0430    2.2540 O   0  0  0  0  0  0  0  0  0  0  0  0
    4.7180    0.1320    1.0320 C   0  0  0  0  0  0  0  0  0  0  0  0
    3.6680   -0.0730    0.1120 N   0  0  0  0  0  0  0  0  0  0  0  0
    2.3500   -0.4570    0.3770 C   0  0  0  0  0  0  0  0  0  0  0  0
    1.4780   -0.5670   -0.7120 C   0  0  0  0  0  0  0  0  0  0  0  0
    0.1610   -0.9400   -0.5620 C   0  0  0  0  0  0  0  0  0  0  0  0
   -0.3140   -1.2130    0.6870 C   0  0  0  0  0  0  0  0  0  0  0  0
   -1.6170   -1.5890    0.8960 O   0  0  0  0  0  0  0  0  0  0  0  0
   -2.5630   -1.7320   -0.0840 C   0  0  1  0  0  0  0  0  0  0  0  0
   -3.2130   -3.1200   -0.0820 C   0  0  0  0  0  0  0  0  0  0  0  0
   -4.5420   -2.9540   -0.6370 N   0  0  0  0  0  0  0  0  0  0  0  0
   -4.5140   -1.9250   -1.6460 C   0  0  0  0  0  0  0  0  0  0  0  0
   -4.2940   -0.5880   -0.9410 C   0  0  1  0  0  0  0  0  0  0  0  0
   -5.5890    0.0890   -0.7400 C   0  0  0  0  0  0  0  0  0  0  0  0
   -6.2640    0.3650   -1.7640 O   0  0  0  0  0  0  0  0  0  0  0  0
   -6.1010    0.4360    0.4860 O   0  0  0  0  0  0  0  0  0  0  0  0
   -7.3330    1.0820    0.6920 C   0  0  0  0  0  0  0  0  0  0  0  0
   -7.3940    2.4300    0.0120 C   0  0  1  0  0  0  0  0  0  0  0  0
   -8.6460    2.9780    0.2780 O   0  0  0  0  0  0  0  0  0  0  0  0
   -6.4330    3.2860    0.5350 O   0  0  0  0  0  0  0  0  0  0  0  0
   -3.6270   -0.8470    0.2390 O   0  0  0  0  0  0  0  0  0  0  0  0
    0.5350   -1.1050    1.7340 N   0  0  0  0  0  0  0  0  0  0  0  0
    1.8170   -0.7440    1.6040 C   0  0  0  0  0  0  0  0  0  0  0  0
    6.0540    0.5360    0.6070 C   0  0  0  0  0  0  0  0  0  0  0  0
    6.3210    0.7190   -0.6110 N   0  0  0  0  0  0  0  0  0  0  0  0
    7.5390    1.0990   -1.1350 N   0  0  0  0  0  0  0  0  0  0  0  0
    8.7290    1.3590   -0.4180 C   0  0  0  0  0  0  0  0  0  0  0  0
    8.7890    1.2520    0.9450 C   0  0  0  0  0  0  0  0  0  0  0  0
   10.0320    1.5600    1.2940 N   0  0  0  0  0  0  0  0  0  0  0  0
   10.4750    1.5630    2.6010 O   0  0  0  0  0  0  0  0  0  0  0  0
   10.7570    1.8550    0.2290 N   0  0  0  0  0  0  0  0  0  0  0  0
   10.0050    1.7490   -0.8720 C   0  0  0  0  0  0  0  0  0  0  0  0
   10.3300    1.9470   -2.0790 O   0  0  0  0  0  0  0  0  0  0  0  0
    7.3250    0.7720    1.8330 S   0  0  0  0  0  0  0  0  0  0  0  0
  1  2  2  0
  2  3  1  0
  2 24  1  0
  3  4  1  0
  4  5  2  0
  4 23  1  0
  5  6  1  0
  6  7  2  0
  7  8  1  0
  7 22  1  0
  9  8  1  1
  9 10  1  0
  9 21  1  0
 10 11  1  0
 11 12  1  0
 12 13  1  0
 13 14  1  1
 13 21  1  0
 14 15  2  0
 14 16  1  0
 16 17  1  0
 17 18  1  0
 18 19  1  1
 18 20  1  0
 22 23  2  0
 24 25  2  0
 24 34  1  0
 25 26  1  0
 26 27  1  0
 27 28  2  0
 27 32  1  0
 28 29  1  0
 28 34  1  0
 29 30  1  0
 29 31  1  0
 31 32  1  0
 32 33  2  0
M  CHG  2  11   1  30  -1
M  END
