
     RDKit          3D

 34 36  0  0  0  0  0  0  0  0999 V2000
   -9.8780   -1.3940   -0.8880 O   0  0  0  0  0  0  0  0  0  0  0  0
   -9.0450   -2.2040   -0.4250 C   0  0  0  0  0  0  0  0  0  0  0  0
   -9.4420   -3.5020   -0.1270 O   0  0  0  0  0  0  0  0  0  0  0  0
   -7.7220   -1.7470   -0.2260 N   0  0  0  0  0  0  0  0  0  0  0  0
   -7.3220   -0.4370   -0.5270 C   0  0  0  0  0  0  0  0  0  0  0  0
   -6.3590   -0.2120   -1.4210 C   0  0  0  0  0  0  0  0  0  0  0  0
   -5.8310    1.3970   -1.8240 S   0  0  2  0  0  0  0  0  0  0  0  0
   -6.9960    2.3480   -1.5930 O   0  0  0  0  0  0  0  0  0  0  0  0
   -5.4670    1.4750   -3.2900 O   0  0  0  0  0  0  0  0  0  0  0  0
   -4.5320    1.9450   -0.8660 N   0  0  0  0  0  0  0  0  0  0  0  0
   -4.8930    2.0050    0.5180 C   0  0  0  0  0  0  0  0  0  0  0  0
   -4.6610    0.7220    1.2570 C   0  0  0  0  0  0  0  0  0  0  0  0
   -4.2210   -0.3060    0.4410 O   0  0  0  0  0  0  0  0  0  0  0  0
   -3.1090    0.0260   -0.3150 C   0  0  2  0  0  0  0  0  0  0  0  0
   -1.8740    0.0260    0.5190 C   0  0  0  0  0  0  0  0  0  0  0  0
   -1.9600   -0.2570    1.7430 O   0  0  0  0  0  0  0  0  0  0  0  0
   -0.6000    0.3290    0.0100 N   0  0  0  0  0  0  0  0  0  0  0  0
    0.5160    0.3140    0.8330 N   0  0  0  0  0  0  0  0  0  0  0  0
    1.8420    0.3600    0.2660 C   0  0  0  0  0  0  0  0  0  0  0  0
    2.0000    0.4140   -0.9750 O   0  0  0  0  0  0  0  0  0  0  0  0
    2.9250    0.3410    1.1610 N   0  0  0  0  0  0  0  0  0  0  0  0
    4.2810    0.3840    0.7810 C   0  0  0  0  0  0  0  0  0  0  0  0
    5.2670    0.1420    1.7400 C   0  0  0  0  0  0  0  0  0  0  0  0
    6.6150    0.1760    1.4630 C   0  0  0  0  0  0  0  0  0  0  0  0
    7.0140    0.4630    0.1740 C   0  0  0  0  0  0  0  0  0  0  0  0
    8.3770    0.4960   -0.1010 O   0  0  0  0  0  0  0  0  0  0  0  0
    9.0260   -0.6800   -0.3920 C   0  0  0  0  0  0  0  0  0  0  0  0
   10.3670   -0.8620   -0.6930 C   0  0  0  0  0  0  0  0  0  0  0  0
   10.5420   -2.1830   -0.9050 N   0  0  0  0  0  0  0  0  0  0  0  0
    9.4100   -2.8050   -0.7540 O   0  0  0  0  0  0  0  0  0  0  0  0
    8.4800   -1.9580   -0.4490 C   0  0  0  0  0  0  0  0  0  0  0  0
    6.0800    0.6970   -0.7540 N   0  0  0  0  0  0  0  0  0  0  0  0
    4.7420    0.6630   -0.4740 C   0  0  0  0  0  0  0  0  0  0  0  0
   -3.2890    1.2770   -1.1130 C   0  0  0  0  0  0  0  0  0  0  0  0
  1  2  2  0
  2  3  1  0
  2  4  1  0
  4  5  1  0
  5  6  2  3
  6  7  1  0
  7  8  2  0
  7  9  2  0
  7 10  1  1
 10 11  1  0
 10 34  1  0
 11 12  1  0
 12 13  1  0
 13 14  1  0
 14 15  1  1
 14 34  1  0
 15 16  2  0
 15 17  1  0
 17 18  1  0
 18 19  1  0
 19 20  2  0
 19 21  1  0
 21 22  1  0
 22 23  2  0
 22 33  1  0
 23 24  1  0
 24 25  2  0
 25 26  1  0
 25 32  1  0
 26 27  1  0
 27 28  1  0
 27 31  2  0
 28 29  2  0
 29 30  1  0
 30 31  1  0
 32 33  2  0
M  CHG  2   3  -1  29   1
M  END
