
     RDKit          3D

 34 36  0  0  0  0  0  0  0  0999 V2000
    0.3870   -1.4980    0.7290 C   0  0  0  0  0  0  0  0  0  0  0  0
    0.7420   -0.2760   -0.0990 N   0  0  1  0  0  0  0  0  0  0  0  0
    1.5800    0.4300    0.7720 C   0  0  0  0  0  0  0  0  0  0  0  0
    3.0440    0.4260    0.5480 C   0  0  0  0  0  0  0  0  0  0  0  0
    3.8130    1.0630    1.5440 N   0  0  0  0  0  0  0  0  0  0  0  0
    5.2100    1.1720    1.5170 C   0  0  0  0  0  0  0  0  0  0  0  0
    5.9000    0.7040    0.5840 O   0  0  0  0  0  0  0  0  0  0  0  0
    5.9130    1.8200    2.5460 O   0  0  0  0  0  0  0  0  0  0  0  0
    7.3140    1.8830    2.4440 C   0  0  0  0  0  0  0  0  0  0  0  0
    7.8910    0.5330    2.4370 C   0  0  0  0  0  0  0  0  0  0  0  0
    9.3030    0.3630    2.3080 N   0  0  0  0  0  0  0  0  0  0  0  0
    7.1440   -0.4620    2.5420 O   0  0  0  0  0  0  0  0  0  0  0  0
    3.4940   -0.1550   -0.5350 C   0  0  0  0  0  0  0  0  0  0  0  0
    2.5640   -0.7790   -1.4520 C   0  0  0  0  0  0  0  0  0  0  0  0
    1.2560   -0.8340   -1.2670 C   0  0  0  0  0  0  0  0  0  0  0  0
    0.4500   -1.4980   -2.3220 C   0  0  0  0  0  0  0  0  0  0  0  0
   -0.7980   -1.6890   -2.4740 C   0  0  0  0  0  0  0  0  0  0  0  0
   -1.9380   -1.3340   -1.6910 C   0  0  0  0  0  0  0  0  0  0  0  0
   -2.0450   -0.7090   -0.6220 O   0  0  0  0  0  0  0  0  0  0  0  0
   -3.2760   -1.7390   -2.1540 N   0  0  0  0  0  0  0  0  0  0  0  0
   -4.3910   -1.4010   -1.4000 N   0  0  0  0  0  0  0  0  0  0  0  0
   -5.1930   -2.3820   -0.9480 O   0  0  0  0  0  0  0  0  0  0  0  0
   -4.7110   -0.0550   -1.0920 C   0  0  0  0  0  0  0  0  0  0  0  0
   -3.9710    0.8760   -1.5070 O   0  0  0  0  0  0  0  0  0  0  0  0
   -5.8680    0.2650   -0.3120 N   0  0  0  0  0  0  0  0  0  0  0  0
   -6.1050    1.6450   -0.0550 C   0  0  0  0  0  0  0  0  0  0  0  0
   -7.3600    1.8180    0.7810 C   0  0  0  0  0  0  0  0  0  0  0  0
   -8.1160    0.8360    1.2020 C   0  0  0  0  0  0  0  0  0  0  0  0
   -9.4250    1.6800    2.1280 S   0  0  0  0  0  0  0  0  0  0  0  0
   -8.4570    3.1890    2.3000 N   0  0  0  0  0  0  0  0  0  0  0  0
   -7.7550    3.0760    1.1340 O   0  0  0  0  0  0  0  0  0  0  0  0
   -0.9670   -2.4080   -3.7030 O   0  0  0  0  0  0  0  0  0  0  0  0
    0.2210   -2.3260   -4.4530 C   0  0  0  0  0  0  0  0  0  0  0  0
    1.1510   -2.0740   -3.4440 O   0  0  0  0  0  0  0  0  0  0  0  0
  2  1  1  1
  2  3  1  0
  2 15  1  0
  3  4  1  0
  4  5  1  0
  4 13  2  0
  5  6  1  0
  6  7  2  0
  6  8  1  0
  8  9  1  0
  9 10  1  0
 10 11  1  0
 10 12  2  0
 13 14  1  0
 14 15  2  0
 15 16  1  0
 16 17  2  0
 16 34  1  0
 17 18  1  0
 17 32  1  0
 18 19  2  0
 18 20  1  0
 20 21  1  0
 21 22  1  0
 21 23  1  0
 23 24  2  0
 23 25  1  0
 25 26  1  0
 26 27  1  0
 27 28  2  0
 27 31  1  0
 28 29  1  0
 29 30  1  0
 30 31  1  0
 32 33  1  0
 33 34  1  0
M  CHG  2   2   1  22  -1
M  END
