
     RDKit          3D

 34 36  0  0  0  0  0  0  0  0999 V2000
    1.1900    5.4800    3.2580 N   0  0  0  0  0  0  0  0  0  0  0  0
    1.3170    4.6270    2.1290 C   0  0  0  0  0  0  0  0  0  0  0  0
    1.5520    5.1580    1.0180 O   0  0  0  0  0  0  0  0  0  0  0  0
    1.1810    3.1720    2.2450 C   0  0  0  0  0  0  0  0  0  0  0  0
    0.9460    2.6140    3.3460 O   0  0  0  0  0  0  0  0  0  0  0  0
    1.3160    2.3570    1.0850 N   0  0  0  0  0  0  0  0  0  0  0  0
    1.1940    0.9150    1.1290 C   0  0  1  0  0  0  0  0  0  0  0  0
    0.0370    0.4820    0.3110 C   0  0  0  0  0  0  0  0  0  0  0  0
   -1.1890    1.0650    0.8090 N   0  0  0  0  0  0  0  0  0  0  0  0
   -2.4440    0.7580    0.1370 C   0  0  0  0  0  0  0  0  0  0  0  0
   -2.3070   -0.0110   -0.8390 O   0  0  0  0  0  0  0  0  0  0  0  0
   -3.6790    1.3250    0.6110 C   0  0  0  0  0  0  0  0  0  0  0  0
   -4.8500    1.1190    0.0910 C   0  0  0  0  0  0  0  0  0  0  0  0
   -5.1940    0.2960   -1.0550 C   0  0  0  0  0  0  0  0  0  0  0  0
   -6.4650    0.2040   -1.4480 N   0  0  0  0  0  0  0  0  0  0  0  0
   -6.4960   -0.6760   -2.6000 C   0  0  0  0  0  0  0  0  0  0  0  0
   -7.2270   -1.4910   -3.2650 C   0  0  0  0  0  0  0  0  0  0  0  0
   -6.6800   -2.0960   -4.3760 O   0  0  0  0  0  0  0  0  0  0  0  0
   -4.9530   -2.0070   -4.0530 S   0  0  0  0  0  0  0  0  0  0  0  0
   -4.6090   -3.0990   -3.0220 O   0  0  0  0  0  0  0  0  0  0  0  0
   -5.0930   -0.4700   -3.1270 C   0  0  2  0  0  0  0  0  0  0  0  0
   -4.4130   -0.4790   -1.8970 O   0  0  0  0  0  0  0  0  0  0  0  0
    2.4820    0.3100    0.7940 C   0  0  0  0  0  0  0  0  0  0  0  0
    3.4460    1.0650    0.5400 O   0  0  0  0  0  0  0  0  0  0  0  0
    2.6610   -1.0880    0.7500 N   0  0  0  0  0  0  0  0  0  0  0  0
    3.8580   -1.7850    0.4410 C   0  0  0  0  0  0  0  0  0  0  0  0
    3.7690   -3.1770    0.3850 C   0  0  0  0  0  0  0  0  0  0  0  0
    4.8640   -3.9390    0.0990 C   0  0  0  0  0  0  0  0  0  0  0  0
    6.0770   -3.3450   -0.1400 C   0  0  0  0  0  0  0  0  0  0  0  0
    7.2150   -4.1560   -0.4390 N   0  0  0  0  0  0  0  0  0  0  0  0
    7.1520   -5.3920   -0.4930 O   0  0  0  0  0  0  0  0  0  0  0  0
    8.4060   -3.5130   -0.6690 O   0  0  0  0  0  0  0  0  0  0  0  0
    6.1430   -2.0240   -0.0830 N   0  0  0  0  0  0  0  0  0  0  0  0
    5.0750   -1.2430    0.1980 C   0  0  0  0  0  0  0  0  0  0  0  0
  1  2  1  0
  2  3  2  0
  2  4  1  0
  4  5  2  0
  4  6  1  0
  6  7  1  0
  7  8  1  6
  7 23  1  0
  8  9  1  0
  9 10  1  0
 10 11  2  0
 10 12  1  0
 12 13  2  3
 13 14  1  0
 14 15  2  0
 14 22  1  0
 15 16  1  0
 16 17  2  0
 16 21  1  0
 17 18  1  0
 19 18  1  1
 19 20  2  0
 19 21  1  0
 21 22  1  1
 23 24  2  0
 23 25  1  0
 25 26  1  0
 26 27  2  0
 26 34  1  0
 27 28  1  0
 28 29  2  0
 29 30  1  0
 29 33  1  0
 30 31  2  0
 30 32  1  0
 33 34  2  0
M  CHG  2  30   1  32  -1
M  END
