
     RDKit          3D

 30 32  0  0  0  0  0  0  0  0999 V2000
   -0.7750   -5.0900    1.6240 C   0  0  0  0  0  0  0  0  0  0  0  0
   -1.0930   -3.8280    1.0910 O   0  0  0  0  0  0  0  0  0  0  0  0
   -0.1160   -2.8490    1.0160 C   0  0  0  0  0  0  0  0  0  0  0  0
    1.0420   -3.1770    1.4510 O   0  0  0  0  0  0  0  0  0  0  0  0
   -0.2830   -1.4950    0.4950 C   0  0  2  0  0  0  0  0  0  0  0  0
    0.9860   -0.7420    0.6890 C   0  0  0  0  0  0  0  0  0  0  0  0
    1.6830    0.0580   -0.1100 N   0  0  0  0  0  0  0  0  0  0  0  0
    2.7780    0.5060    0.5290 C   0  0  0  0  0  0  0  0  0  0  0  0
    3.8330    1.3950    0.0720 C   0  0  0  0  0  0  0  0  0  0  0  0
    4.8850    1.7360    0.8960 C   0  0  0  0  0  0  0  0  0  0  0  0
    5.9020    2.5640    0.5250 C   0  0  0  0  0  0  0  0  0  0  0  0
    5.8830    3.0960   -0.7470 C   0  0  0  0  0  0  0  0  0  0  0  0
    6.8940    3.9470   -1.1800 O   0  0  0  0  0  0  0  0  0  0  0  0
    4.8180    2.7470   -1.5730 C   0  0  0  0  0  0  0  0  0  0  0  0
    3.8330    1.9270   -1.1700 N   0  0  0  0  0  0  0  0  0  0  0  0
    2.7120   -0.0580    1.7470 N   0  0  0  0  0  0  0  0  0  0  0  0
    1.6440   -0.7930    1.8220 O   0  0  0  0  0  0  0  0  0  0  0  0
   -1.3720   -0.7170    1.2030 C   0  0  0  0  0  0  0  0  0  0  0  0
   -2.2530   -0.1920    0.1840 N   0  0  0  0  0  0  0  0  0  0  0  0
   -2.7100    1.1120    0.5740 C   0  0  0  0  0  0  0  0  0  0  0  0
   -3.6310    1.7570   -0.4060 C   0  0  1  0  0  0  0  0  0  0  0  0
   -4.7800    0.9510   -0.5770 O   0  0  0  0  0  0  0  0  0  0  0  0
   -4.2400    3.3530    0.3440 P   0  0  0  0  0  0  0  0  0  0  0  0
   -5.7800    3.8000   -0.3140 O   0  0  0  0  0  0  0  0  0  0  0  0
   -3.0750    4.6040    0.1980 O   0  0  0  0  0  0  0  0  0  0  0  0
   -1.5680   -0.2380   -1.0630 C   0  0  0  0  0  0  0  0  0  0  0  0
   -0.7320   -1.5100   -0.9120 C   0  0  1  0  0  0  0  0  0  0  0  0
    0.3920   -1.5480   -1.9170 C   0  0  0  0  0  0  0  0  0  0  0  0
   -1.6560   -2.6520   -1.2460 C   0  0  0  0  0  0  0  0  0  0  0  0
   -2.8180   -2.6160   -0.4610 O   0  0  0  0  0  0  0  0  0  0  0  0
  1  2  1  0
  2  3  1  0
  3  4  2  0
  5  3  1  1
  5  6  1  0
  5 18  1  0
  5 27  1  0
  6  7  2  0
  6 17  1  0
  7  8  1  0
  8  9  1  0
  8 16  2  0
  9 10  2  0
  9 15  1  0
 10 11  1  0
 11 12  2  0
 12 13  1  0
 12 14  1  0
 14 15  2  0
 16 17  1  0
 18 19  1  0
 19 20  1  0
 19 26  1  0
 20 21  1  0
 21 22  1  1
 21 23  1  0
 23 24  1  0
 23 25  1  0
 26 27  1  0
 27 28  1  6
 27 29  1  0
 29 30  1  0
M  END
