
     RDKit          3D

 31 33  0  0  0  0  0  0  0  0999 V2000
   -5.6290    1.5080    1.5790 C   0  0  0  0  0  0  0  0  0  0  0  0
   -4.5000    0.8220    0.8840 C   0  0  0  0  0  0  0  0  0  0  0  0
   -4.6060    0.3880   -0.4220 C   0  0  0  0  0  0  0  0  0  0  0  0
   -3.5720   -0.2480   -1.0770 C   0  0  0  0  0  0  0  0  0  0  0  0
   -3.7310   -0.6440   -2.3550 N   0  0  0  0  0  0  0  0  0  0  0  0
   -2.7430   -1.2640   -3.0320 C   0  0  0  0  0  0  0  0  0  0  0  0
   -2.8880   -1.6760   -4.3400 C   0  0  0  0  0  0  0  0  0  0  0  0
   -3.9810   -1.4590   -4.9010 O   0  0  0  0  0  0  0  0  0  0  0  0
   -1.8470   -2.2800   -4.9160 N   0  0  0  0  0  0  0  0  0  0  0  0
   -0.6770   -2.5030   -4.2910 C   0  0  0  0  0  0  0  0  0  0  0  0
    0.2720   -3.0780   -4.8850 O   0  0  0  0  0  0  0  0  0  0  0  0
   -0.4530   -2.1310   -3.0110 N   0  0  0  0  0  0  0  0  0  0  0  0
   -1.4720   -1.5140   -2.3750 C   0  0  0  0  0  0  0  0  0  0  0  0
   -1.3500   -1.0980   -1.0800 N   0  0  0  0  0  0  0  0  0  0  0  0
   -0.1010   -1.3470   -0.4480 C   0  0  0  0  0  0  0  0  0  0  0  0
    0.9000   -0.2210   -0.5720 C   0  0  2  0  0  0  0  0  0  0  0  0
    1.2260    0.0860   -1.8700 O   0  0  0  0  0  0  0  0  0  0  0  0
    2.1330   -0.6260    0.2450 C   0  0  2  0  0  0  0  0  0  0  0  0
    1.7150   -0.9190    1.5430 O   0  0  0  0  0  0  0  0  0  0  0  0
    3.0250    0.5910    0.3210 C   0  0  2  0  0  0  0  0  0  0  0  0
    3.4920    0.9620   -0.9260 O   0  0  0  0  0  0  0  0  0  0  0  0
    4.1900    0.3830    1.2530 C   0  0  0  0  0  0  0  0  0  0  0  0
    4.8900    1.5820    1.3380 O   0  0  0  0  0  0  0  0  0  0  0  0
    6.2260    1.4600    2.3650 P   0  0  2  0  0  0  0  0  0  0  0  0
    5.8810    0.5930    3.5530 O   0  0  0  0  0  0  0  0  0  0  0  0
    6.7400    2.9960    2.8450 O   0  0  0  0  0  0  0  0  0  0  0  0
    7.4770    0.7340    1.5000 O   0  0  0  0  0  0  0  0  0  0  0  0
   -2.3630   -0.4790   -0.4350 C   0  0  0  0  0  0  0  0  0  0  0  0
   -2.2520   -0.0470    0.8700 C   0  0  0  0  0  0  0  0  0  0  0  0
   -3.2900    0.5880    1.5190 C   0  0  0  0  0  0  0  0  0  0  0  0
   -3.1440    1.0390    2.9170 C   0  0  0  0  0  0  0  0  0  0  0  0
  1  2  1  0
  2  3  2  0
  2 30  1  0
  3  4  1  0
  4  5  1  0
  4 28  2  0
  5  6  2  0
  6  7  1  0
  6 13  1  0
  7  8  2  0
  7  9  1  0
  9 10  1  0
 10 11  2  0
 10 12  1  0
 12 13  2  0
 13 14  1  0
 14 15  1  0
 14 28  1  0
 15 16  1  0
 16 17  1  6
 16 18  1  0
 18 19  1  1
 18 20  1  0
 20 21  1  6
 20 22  1  0
 22 23  1  0
 23 24  1  0
 24 25  2  0
 24 26  1  1
 24 27  1  0
 28 29  1  0
 29 30  2  0
 30 31  1  0
M  END
