
     RDKit          3D

 31 33  0  0  0  0  0  0  0  0999 V2000
    8.3870    1.0970   -0.0470 O   0  0  0  0  0  0  0  0  0  0  0  0
    7.6650    0.0620   -0.0410 C   0  0  0  0  0  0  0  0  0  0  0  0
    8.2950   -1.1670   -0.0100 O   0  0  0  0  0  0  0  0  0  0  0  0
    6.2070    0.1770   -0.0660 C   0  0  0  0  0  0  0  0  0  0  0  0
    5.6210    1.4230   -0.0970 C   0  0  0  0  0  0  0  0  0  0  0  0
    4.2520    1.4990   -0.1190 C   0  0  0  0  0  0  0  0  0  0  0  0
    3.4800    0.3660   -0.1120 C   0  0  0  0  0  0  0  0  0  0  0  0
    2.0900    0.5020   -0.1390 N   0  0  0  0  0  0  0  0  0  0  0  0
    1.1040   -0.4980   -0.0850 C   0  0  0  0  0  0  0  0  0  0  0  0
    1.4050   -1.6910    0.0000 O   0  0  0  0  0  0  0  0  0  0  0  0
   -0.3740   -0.1430   -0.1290 C   0  0  2  0  0  0  0  0  0  0  0  0
   -0.5820    0.6860    1.1250 C   0  0  0  0  0  0  0  0  0  0  0  0
   -1.9460    1.2140    1.3380 C   0  0  0  0  0  0  0  0  0  0  0  0
   -2.5060    2.3930    0.0100 P   0  0  0  0  0  0  0  0  0  0  0  0
   -1.1400    3.2700   -0.5840 O   0  0  0  0  0  0  0  0  0  0  0  0
   -3.6600    3.4710    0.7330 O   0  0  0  0  0  0  0  0  0  0  0  0
   -1.0840   -1.4020   -0.0530 N   0  0  0  0  0  0  0  0  0  0  0  0
   -2.4900   -1.4650   -0.2170 C   0  0  0  0  0  0  0  0  0  0  0  0
   -3.1730   -0.8110   -1.0840 N   0  0  0  0  0  0  0  0  0  0  0  0
   -4.5650   -1.0860   -1.0030 C   0  0  0  0  0  0  0  0  0  0  0  0
   -5.6550   -0.6600   -1.6760 N   0  0  0  0  0  0  0  0  0  0  0  0
   -6.8660   -1.1290   -1.3420 C   0  0  0  0  0  0  0  0  0  0  0  0
   -7.9190   -0.7700   -1.9320 O   0  0  0  0  0  0  0  0  0  0  0  0
   -7.0270   -2.0100   -0.3570 O   0  0  0  0  0  0  0  0  0  0  0  0
   -5.9890   -2.4500    0.3240 C   0  0  0  0  0  0  0  0  0  0  0  0
   -6.1080   -3.2860    1.2640 O   0  0  0  0  0  0  0  0  0  0  0  0
   -4.7270   -2.0110    0.0320 C   0  0  0  0  0  0  0  0  0  0  0  0
   -3.4130   -2.3030    0.5890 C   0  0  0  0  0  0  0  0  0  0  0  0
   -3.0920   -3.0740    1.5280 O   0  0  0  0  0  0  0  0  0  0  0  0
    4.0870   -0.8550   -0.0820 C   0  0  0  0  0  0  0  0  0  0  0  0
    5.4700   -0.9740   -0.0580 C   0  0  0  0  0  0  0  0  0  0  0  0
  1  2  2  0
  2  3  1  0
  2  4  1  0
  4  5  2  0
  4 31  1  0
  5  6  1  0
  6  7  2  0
  7  8  1  0
  7 30  1  0
  8  9  1  0
  9 10  2  0
  9 11  1  0
 11 12  1  1
 11 17  1  0
 12 13  1  0
 13 14  1  0
 14 15  1  0
 14 16  1  0
 17 18  1  0
 18 19  2  0
 18 28  1  0
 19 20  1  0
 20 21  1  0
 20 27  2  0
 21 22  1  0
 22 23  2  0
 22 24  1  0
 24 25  1  0
 25 26  2  0
 25 27  1  0
 27 28  1  0
 28 29  2  0
 30 31  2  0
M  END
