
     RDKit          3D

 31 33  0  0  0  0  0  0  0  0999 V2000
   -6.1510   -1.3610   -0.6920 O   0  0  0  0  0  0  0  0  0  0  0  0
   -5.8710   -2.4870   -0.2360 C   0  0  0  0  0  0  0  0  0  0  0  0
   -4.5310   -2.8850    0.0650 C   0  0  0  0  0  0  0  0  0  0  0  0
   -3.4130   -2.2120   -0.0640 C   0  0  0  0  0  0  0  0  0  0  0  0
   -3.2740   -0.8590   -0.5610 C   0  0  0  0  0  0  0  0  0  0  0  0
   -2.1760   -0.2050   -0.6860 C   0  0  0  0  0  0  0  0  0  0  0  0
   -2.0370    1.1760   -1.1820 C   0  0  0  0  0  0  0  0  0  0  0  0
   -2.7540    2.2400   -1.0150 C   0  0  0  0  0  0  0  0  0  0  0  0
   -3.9710    2.3960   -0.2320 C   0  0  0  0  0  0  0  0  0  0  0  0
   -4.5920    3.5440   -0.1980 N   0  0  0  0  0  0  0  0  0  0  0  0
   -5.6960    3.4320    0.6000 O   0  0  0  0  0  0  0  0  0  0  0  0
   -5.4990    2.2730    1.4160 C   0  0  0  0  0  0  0  0  0  0  0  0
   -4.6750    1.5170    0.5590 O   0  0  0  0  0  0  0  0  0  0  0  0
   -0.7530    1.2250   -1.8730 N   0  0  0  0  0  0  0  0  0  0  0  0
   -0.1560   -0.0740   -1.7770 C   0  0  0  0  0  0  0  0  0  0  0  0
    0.6460   -0.6700   -2.4870 O   0  0  0  0  0  0  0  0  0  0  0  0
   -0.7630   -0.6260   -0.5060 C   0  0  1  0  0  0  0  0  0  0  0  0
   -0.0840   -0.0130    0.6480 C   0  0  0  0  0  0  0  0  0  0  0  0
    0.8900   -0.9940    1.0550 N   0  0  0  0  0  0  0  0  0  0  0  0
    1.8110   -0.8390    2.1540 C   0  0  0  0  0  0  0  0  0  0  0  0
    3.0710   -0.2110    1.6060 C   0  0  0  0  0  0  0  0  0  0  0  0
    4.0290    0.0280    2.3790 O   0  0  0  0  0  0  0  0  0  0  0  0
    3.1980    0.1150    0.2440 N   0  0  0  0  0  0  0  0  0  0  0  0
    4.3860    0.7040   -0.2980 C   0  0  0  0  0  0  0  0  0  0  0  0
    5.5420   -0.2480   -0.1130 C   0  0  0  0  0  0  0  0  0  0  0  0
    7.1160    0.4590   -0.8130 P   0  0  0  0  0  0  0  0  0  0  0  0
    6.7570    1.7330   -1.9060 O   0  0  0  0  0  0  0  0  0  0  0  0
    7.9400   -0.8010   -1.6570 O   0  0  0  0  0  0  0  0  0  0  0  0
    0.7320   -2.1010    0.1650 C   0  0  0  0  0  0  0  0  0  0  0  0
    1.5980   -3.0130    0.0030 O   0  0  0  0  0  0  0  0  0  0  0  0
   -0.5110   -1.9720   -0.4550 O   0  0  0  0  0  0  0  0  0  0  0  0
  1  2  2  0
  2  3  1  0
  3  4  2  3
  4  5  1  0
  5  6  2  3
  6  7  1  0
  6 17  1  0
  7  8  2  3
  7 14  1  0
  8  9  1  0
  9 10  2  0
  9 13  1  0
 10 11  1  0
 11 12  1  0
 12 13  1  0
 14 15  1  0
 15 16  2  0
 15 17  1  0
 17 18  1  1
 17 31  1  0
 18 19  1  0
 19 20  1  0
 19 29  1  0
 20 21  1  0
 21 22  2  0
 21 23  1  0
 23 24  1  0
 24 25  1  0
 25 26  1  0
 26 27  1  0
 26 28  1  0
 29 30  2  0
 29 31  1  0
M  END
