
     RDKit          3D

 31 33  0  0  0  0  0  0  0  0999 V2000
    9.3960    1.1680   -1.3850 N   0  0  0  0  0  0  0  0  0  0  0  0
    8.6310    0.4560   -0.4370 C   0  0  0  0  0  0  0  0  0  0  0  0
    9.2080   -0.3030    0.3830 O   0  0  0  0  0  0  0  0  0  0  0  0
    7.2180    0.5610   -0.3690 N   0  0  0  0  0  0  0  0  0  0  0  0
    6.4790   -0.1820    0.6110 C   0  0  2  0  0  0  0  0  0  0  0  0
    5.2690   -0.9050    0.0660 C   0  0  0  0  0  0  0  0  0  0  0  0
    4.4820    0.2690    0.3310 N   0  0  0  0  0  0  0  0  0  0  0  0
    3.2780    0.8130   -0.1770 C   0  0  0  0  0  0  0  0  0  0  0  0
    2.8600    1.9070    0.3050 O   0  0  0  0  0  0  0  0  0  0  0  0
    2.6020    0.1400   -1.1750 O   0  0  0  0  0  0  0  0  0  0  0  0
    1.4010    0.7030   -1.6670 C   0  0  0  0  0  0  0  0  0  0  0  0
    0.4610    0.8180   -0.5890 O   0  0  0  0  0  0  0  0  0  0  0  0
    0.0340   -0.3030    0.1140 C   0  0  0  0  0  0  0  0  0  0  0  0
    0.5170   -1.4020   -0.2510 O   0  0  0  0  0  0  0  0  0  0  0  0
   -0.9230   -0.2430    1.2250 C   0  0  2  0  0  0  0  0  0  0  0  0
   -1.2470   -1.6340    1.6910 C   0  0  0  0  0  0  0  0  0  0  0  0
   -2.1580   -2.1100    0.5980 C   0  0  0  0  0  0  0  0  0  0  0  0
   -3.0800   -0.9530    0.4800 N   0  0  0  0  0  0  0  0  0  0  0  0
   -4.4280   -1.1450    0.1790 C   0  0  0  0  0  0  0  0  0  0  0  0
   -4.8200   -2.3900    0.0510 O   0  0  0  0  0  0  0  0  0  0  0  0
   -5.5040   -0.1900   -0.0240 C   0  0  0  0  0  0  0  0  0  0  0  0
   -6.7460   -0.6090   -0.2900 C   0  0  0  0  0  0  0  0  0  0  0  0
   -7.8740    0.2880   -0.5040 C   0  0  1  0  0  0  0  0  0  0  0  0
   -8.4150    0.0290   -1.7990 O   0  0  0  0  0  0  0  0  0  0  0  0
   -9.2360   -0.0980    0.7240 P   0  0  0  0  0  0  0  0  0  0  0  0
  -10.6600    0.4080    0.4600 O   0  0  0  0  0  0  0  0  0  0  0  0
   -7.5170    1.6210   -0.4360 O   0  0  0  0  0  0  0  0  0  0  0  0
   -6.2580    2.0850   -0.1670 C   0  0  0  0  0  0  0  0  0  0  0  0
   -5.2320    1.2340    0.0440 C   0  0  0  0  0  0  0  0  0  0  0  0
   -2.3170    0.2210    0.7370 C   0  0  0  0  0  0  0  0  0  0  0  0
    5.4660    0.6510    1.3480 C   0  0  0  0  0  0  0  0  0  0  0  0
  1  2  1  0
  2  3  2  0
  2  4  1  0
  5  4  1  6
  5  6  1  0
  5 31  1  0
  6  7  1  0
  7  8  1  0
  7 31  1  0
  8  9  2  0
  8 10  1  0
 10 11  1  0
 11 12  1  0
 12 13  1  0
 13 14  2  0
 15 13  1  6
 15 16  1  0
 15 30  1  0
 16 17  1  0
 17 18  1  0
 18 19  1  0
 18 30  1  0
 19 20  2  0
 19 21  1  0
 21 22  2  0
 21 29  1  0
 22 23  1  0
 23 24  1  6
 23 25  1  0
 23 27  1  0
 25 26  2  0
 27 28  1  0
 28 29  2  0
M  END
