
     RDKit          3D

 27 28  0  0  0  0  0  0  0  0999 V2000
   -6.2190    0.3470   -1.1670 C   0  0  0  0  0  0  0  0  0  0  0  0
   -4.8290   -0.1810   -1.0570 C   0  0  0  0  0  0  0  0  0  0  0  0
   -3.7350    0.8230   -0.9980 C   0  0  1  0  0  0  0  0  0  0  0  0
   -3.7460    1.7810    0.1280 C   0  0  0  0  0  0  0  0  0  0  0  0
   -4.9820    2.6830    0.1720 C   0  0  0  0  0  0  0  0  0  0  0  0
   -2.4100    0.1230   -1.2460 C   0  0  2  0  0  0  0  0  0  0  0  0
   -2.5010   -0.5040   -2.5980 N   0  0  0  0  0  0  0  0  0  0  0  0
   -2.1390   -0.9960   -0.3340 C   0  0  0  0  0  0  0  0  0  0  0  0
   -2.4860   -2.2000   -0.6390 O   0  0  0  0  0  0  0  0  0  0  0  0
   -1.4940   -0.8110    0.8940 N   0  0  0  0  0  0  0  0  0  0  0  0
   -1.0230    0.4670    1.3690 C   0  0  0  0  0  0  0  0  0  0  0  0
    0.3860    0.2370    1.9420 C   0  0  0  0  0  0  0  0  0  0  0  0
    0.8960   -0.9730    1.3440 N   0  0  0  0  0  0  0  0  0  0  0  0
    1.9740   -0.9320    0.4370 C   0  0  0  0  0  0  0  0  0  0  0  0
    2.3870   -2.0030   -0.0620 O   0  0  0  0  0  0  0  0  0  0  0  0
    2.5860    0.3680    0.0980 C   0  0  0  0  0  0  0  0  0  0  0  0
    3.7380    0.2540   -0.8710 C   0  0  2  0  0  0  0  0  0  0  0  0
    4.8720   -0.5800   -0.3750 C   0  0  0  0  0  0  0  0  0  0  0  0
    6.0100    0.2320    0.1940 C   0  0  0  0  0  0  0  0  0  0  0  0
    6.4610    1.3400   -0.6980 C   0  0  0  0  0  0  0  0  0  0  0  0
    5.5590    1.4970   -1.8950 C   0  0  0  0  0  0  0  0  0  0  0  0
    4.1370    1.6140   -1.3430 C   0  0  0  0  0  0  0  0  0  0  0  0
    0.2570   -2.2390    1.7070 C   0  0  1  0  0  0  0  0  0  0  0  0
    0.7250   -2.6030    3.0660 C   0  0  0  0  0  0  0  0  0  0  0  0
    0.2610   -3.7990    3.6720 N   0  0  0  0  0  0  0  0  0  0  0  0
    1.5340   -1.8720    3.7080 O   0  0  0  0  0  0  0  0  0  0  0  0
   -1.2380   -1.9650    1.7880 C   0  0  0  0  0  0  0  0  0  0  0  0
  1  2  1  0
  3  2  1  1
  3  4  1  0
  3  6  1  0
  4  5  1  0
  6  7  1  6
  6  8  1  0
  8  9  2  0
  8 10  1  0
 10 11  1  0
 10 27  1  0
 11 12  1  0
 12 13  1  0
 13 14  1  0
 13 23  1  0
 14 15  2  0
 14 16  1  0
 17 16  1  1
 17 18  1  0
 17 22  1  0
 18 19  1  0
 19 20  1  0
 20 21  1  0
 21 22  1  0
 23 24  1  1
 23 27  1  0
 24 25  1  0
 24 26  2  0
M  CHG  1   7   1
M  END
