
     RDKit          3D

 27 29  0  0  0  0  0  0  0  0999 V2000
   -5.2510   -1.9400    1.9040 N   0  0  0  0  0  0  0  0  0  0  0  0
   -4.6070   -0.6290    1.7190 C   0  0  0  0  0  0  0  0  0  0  0  0
   -5.2050    0.1100    0.6190 C   0  0  0  0  0  0  0  0  0  0  0  0
   -4.5280    0.5150   -0.4190 C   0  0  0  0  0  0  0  0  0  0  0  0
   -3.1050    0.2880   -0.6020 C   0  0  0  0  0  0  0  0  0  0  0  0
   -2.1390    0.6570    0.3000 C   0  0  0  0  0  0  0  0  0  0  0  0
   -0.7930    0.3900    0.0910 C   0  0  0  0  0  0  0  0  0  0  0  0
   -0.3490   -0.2630   -1.0410 C   0  0  0  0  0  0  0  0  0  0  0  0
    1.0020   -0.5170   -1.2270 O   0  0  0  0  0  0  0  0  0  0  0  0
    1.5810   -1.1570   -2.3020 C   0  0  0  0  0  0  0  0  0  0  0  0
    3.0280   -1.2540   -2.1800 C   0  0  0  0  0  0  0  0  0  0  0  0
    3.6270   -1.8340   -3.1540 O   0  0  0  0  0  0  0  0  0  0  0  0
    3.7840   -0.7700   -1.1030 N   0  0  0  0  0  0  0  0  0  0  0  0
    3.1690   -0.1300    0.0070 C   0  0  0  0  0  0  0  0  0  0  0  0
    4.0800    0.3000    1.1230 C   0  0  0  0  0  0  0  0  0  0  0  0
    5.4850    0.3360    0.7650 N   0  0  0  0  0  0  0  0  0  0  0  0
    6.2290    0.4980    1.9800 C   0  0  0  0  0  0  0  0  0  0  0  0
    7.7040    0.6440    1.7900 C   0  0  0  0  0  0  0  0  0  0  0  0
    7.9910    1.7750    0.9900 O   0  0  0  0  0  0  0  0  0  0  0  0
    5.7590   -1.0090    0.2320 C   0  0  0  0  0  0  0  0  0  0  0  0
    5.2520   -0.9530   -1.1890 C   0  0  0  0  0  0  0  0  0  0  0  0
   -1.3090   -0.6370   -1.9550 C   0  0  0  0  0  0  0  0  0  0  0  0
   -2.6460   -0.3740   -1.7500 C   0  0  0  0  0  0  0  0  0  0  0  0
   -5.2430    1.2400   -1.4540 N   0  0  0  0  0  0  0  0  0  0  0  0
   -6.2880    2.1720   -1.1660 C   0  0  0  0  0  0  0  0  0  0  0  0
   -6.8350    1.9260    0.2320 C   0  0  0  0  0  0  0  0  0  0  0  0
   -6.6740    0.4670    0.6010 C   0  0  0  0  0  0  0  0  0  0  0  0
  1  2  1  0
  2  3  1  0
  3  4  2  0
  3 27  1  0
  4  5  1  0
  4 24  1  0
  5  6  2  0
  5 23  1  0
  6  7  1  0
  7  8  2  0
  8  9  1  0
  8 22  1  0
  9 10  1  0
 10 11  1  0
 11 12  2  0
 11 13  1  0
 13 14  1  0
 13 21  1  0
 14 15  1  0
 15 16  1  0
 16 17  1  0
 16 20  1  0
 17 18  1  0
 18 19  1  0
 20 21  1  0
 22 23  2  0
 24 25  1  0
 25 26  1  0
 26 27  1  0
M  CHG  1   1   1
M  END
