
     RDKit          3D

 21 22  0  0  0  0  0  0  0  0999 V2000
   -4.2570    1.9700    1.6860 O   0  0  0  0  0  0  0  0  0  0  0  0
   -3.3000    0.9880    1.9560 C   0  0  0  0  0  0  0  0  0  0  0  0
   -2.6220    0.4990    0.7100 C   0  0  1  0  0  0  0  0  0  0  0  0
   -1.6910   -0.4730    1.0900 O   0  0  0  0  0  0  0  0  0  0  0  0
   -0.7520   -0.7080    0.1030 C   0  0  2  0  0  0  0  0  0  0  0  0
    0.2470    0.2610    0.0790 O   0  0  0  0  0  0  0  0  0  0  0  0
    1.5090   -0.2200    0.3490 C   0  0  2  0  0  0  0  0  0  0  0  0
    2.0270    0.5240    1.5270 C   0  0  0  0  0  0  0  0  0  0  0  0
    3.3250    0.5140    1.7450 C   0  0  0  0  0  0  0  0  0  0  0  0
    4.1340   -0.1890    0.8650 O   0  0  0  0  0  0  0  0  0  0  0  0
    3.8540   -0.0650   -0.5170 C   0  0  2  0  0  0  0  0  0  0  0  0
    4.5790    1.1780   -1.0160 C   0  0  0  0  0  0  0  0  0  0  0  0
    5.9430    1.1040   -0.8380 O   0  0  0  0  0  0  0  0  0  0  0  0
    2.4030    0.0960   -0.8290 C   0  0  1  0  0  0  0  0  0  0  0  0
    2.0830   -0.7410   -1.9200 O   0  0  0  0  0  0  0  0  0  0  0  0
   -1.4240   -0.9130   -1.1990 C   0  0  1  0  0  0  0  0  0  0  0  0
   -0.8080   -1.8580   -2.0120 O   0  0  0  0  0  0  0  0  0  0  0  0
   -2.8850   -1.2350   -0.9840 C   0  0  1  0  0  0  0  0  0  0  0  0
   -3.0330   -2.3630   -0.1780 O   0  0  0  0  0  0  0  0  0  0  0  0
   -3.5920   -0.0660   -0.3100 C   0  0  2  0  0  0  0  0  0  0  0  0
   -3.8240    0.9170   -1.2640 O   0  0  0  0  0  0  0  0  0  0  0  0
  1  2  1  0
  3  2  1  1
  3  4  1  0
  3 20  1  0
  4  5  1  0
  5  6  1  6
  5 16  1  0
  7  6  1  6
  7  8  1  0
  7 14  1  0
  8  9  2  0
  9 10  1  0
 10 11  1  0
 11 12  1  1
 11 14  1  0
 12 13  1  0
 14 15  1  6
 16 17  1  1
 16 18  1  0
 18 19  1  1
 18 20  1  0
 20 21  1  6
M  END
