
     RDKit          3D

 27 29  0  0  0  0  0  0  0  0999 V2000
    8.1270   -1.8290    1.3390 N   0  0  0  0  0  0  0  0  0  0  0  0
    7.5730   -1.2570    0.1790 C   0  0  0  0  0  0  0  0  0  0  0  0
    8.1830   -1.3340   -0.9010 O   0  0  0  0  0  0  0  0  0  0  0  0
    6.2740   -0.5720    0.2560 C   0  0  0  0  0  0  0  0  0  0  0  0
    5.8320   -0.0380   -1.0000 N   0  0  0  0  0  0  0  0  0  0  0  0
    4.9950    1.1400   -0.8560 C   0  0  1  0  0  0  0  0  0  0  0  0
    3.5550    0.8260   -1.0920 C   0  0  0  0  0  0  0  0  0  0  0  0
    2.6310    0.8020   -0.1560 C   0  0  0  0  0  0  0  0  0  0  0  0
    1.2390    0.4900   -0.4330 C   0  0  0  0  0  0  0  0  0  0  0  0
    0.7880    0.2080   -1.6930 C   0  0  0  0  0  0  0  0  0  0  0  0
   -0.5280   -0.0910   -1.9700 C   0  0  0  0  0  0  0  0  0  0  0  0
   -1.4990   -0.1250   -0.9630 C   0  0  0  0  0  0  0  0  0  0  0  0
   -2.8330   -0.4460   -1.2790 N   0  0  0  0  0  0  0  0  0  0  0  0
   -3.9630   -0.3310   -0.4450 C   0  0  0  0  0  0  0  0  0  0  0  0
   -3.8360    0.0980    0.7060 O   0  0  0  0  0  0  0  0  0  0  0  0
   -5.2590   -0.7270   -0.9780 C   0  0  0  0  0  0  0  0  0  0  0  0
   -6.4110   -0.5820   -0.0620 C   0  0  0  0  0  0  0  0  0  0  0  0
   -6.5290   -0.1590    1.1760 C   0  0  0  0  0  0  0  0  0  0  0  0
   -7.9490   -0.2160    1.6480 C   0  0  0  0  0  0  0  0  0  0  0  0
   -8.5210   -1.2960    0.7270 C   0  0  0  0  0  0  0  0  0  0  0  0
   -7.7970   -0.9750   -0.5550 C   0  0  0  0  0  0  0  0  0  0  0  0
   -1.0570    0.1540    0.2950 C   0  0  0  0  0  0  0  0  0  0  0  0
    0.2740    0.4550    0.5630 C   0  0  0  0  0  0  0  0  0  0  0  0
    2.9310    1.0960    1.2890 C   0  0  0  0  0  0  0  0  0  0  0  0
    4.2780    1.5150    1.5020 N   0  0  0  0  0  0  0  0  0  0  0  0
    5.1780    1.8220    0.4360 C   0  0  0  0  0  0  0  0  0  0  0  0
    6.0800    2.6650    0.6750 O   0  0  0  0  0  0  0  0  0  0  0  0
  1  2  1  0
  2  3  2  0
  2  4  1  0
  4  5  1  0
  6  5  1  1
  6  7  1  0
  6 26  1  0
  7  8  2  0
  8  9  1  0
  8 24  1  0
  9 10  2  0
  9 23  1  0
 10 11  1  0
 11 12  2  0
 12 13  1  0
 12 22  1  0
 13 14  1  0
 14 15  2  0
 14 16  1  0
 16 17  1  0
 17 18  2  0
 17 21  1  0
 18 19  1  0
 19 20  1  0
 20 21  1  0
 22 23  2  0
 24 25  1  0
 25 26  1  0
 26 27  2  0
M  CHG  1   5   1
M  END
