
     RDKit          3D

 27 29  0  0  0  0  0  0  0  0999 V2000
    2.3800    3.3630    1.0790 C   0  0  0  0  0  0  0  0  0  0  0  0
    0.9860    2.9990    0.6980 C   0  0  0  0  0  0  0  0  0  0  0  0
   -0.0080    3.9370    0.8510 C   0  0  0  0  0  0  0  0  0  0  0  0
   -1.2970    3.6040    0.5000 C   0  0  0  0  0  0  0  0  0  0  0  0
   -2.2210    4.4480    0.6330 O   0  0  0  0  0  0  0  0  0  0  0  0
   -1.5410    2.3530    0.0110 N   0  0  0  0  0  0  0  0  0  0  0  0
   -0.5850    1.4490   -0.1370 C   0  0  0  0  0  0  0  0  0  0  0  0
   -0.8580    0.1010   -0.6660 C   0  0  0  0  0  0  0  0  0  0  0  0
   -2.2440   -0.1180   -0.9940 N   0  0  0  0  0  0  0  0  0  0  0  0
   -2.9910   -0.5780    0.1560 C   0  0  0  0  0  0  0  0  0  0  0  0
   -4.4270   -0.7600   -0.1440 C   0  0  0  0  0  0  0  0  0  0  0  0
   -4.9440   -0.5880   -1.4080 C   0  0  0  0  0  0  0  0  0  0  0  0
   -6.3060   -0.7660   -1.6580 C   0  0  0  0  0  0  0  0  0  0  0  0
   -7.1040   -1.1100   -0.6370 N   0  0  0  0  0  0  0  0  0  0  0  0
   -6.6610   -1.2900    0.6050 C   0  0  0  0  0  0  0  0  0  0  0  0
   -7.5560   -1.6440    1.5950 O   0  0  0  0  0  0  0  0  0  0  0  0
   -5.3000   -1.1140    0.8620 C   0  0  0  0  0  0  0  0  0  0  0  0
    0.7370    1.7410    0.2050 C   0  0  0  0  0  0  0  0  0  0  0  0
    1.7800    0.7570    0.0440 N   0  0  0  0  0  0  0  0  0  0  0  0
    2.5220    0.6340   -1.1400 C   0  0  0  0  0  0  0  0  0  0  0  0
    2.1850    1.4750   -2.0570 O   0  0  0  0  0  0  0  0  0  0  0  0
    3.5840   -0.3000   -1.4320 C   0  0  0  0  0  0  0  0  0  0  0  0
    4.0800   -1.2300   -0.6580 C   0  0  0  0  0  0  0  0  0  0  0  0
    3.7770   -1.6540    0.6970 C   0  0  0  0  0  0  0  0  0  0  0  0
    4.7730   -2.7600    1.0750 C   0  0  0  0  0  0  0  0  0  0  0  0
    5.9370   -2.4480    0.1610 C   0  0  0  0  0  0  0  0  0  0  0  0
    5.1990   -2.1240   -1.1220 C   0  0  0  0  0  0  0  0  0  0  0  0
  1  2  1  0
  2  3  2  0
  2 18  1  0
  3  4  1  0
  4  5  2  0
  4  6  1  0
  6  7  1  0
  7  8  1  0
  7 18  2  0
  8  9  1  0
  9 10  1  0
 10 11  1  0
 11 12  2  0
 11 17  1  0
 12 13  1  0
 13 14  2  0
 14 15  1  0
 15 16  1  0
 15 17  2  0
 18 19  1  0
 19 20  1  0
 20 21  2  0
 20 22  1  0
 22 23  2  3
 23 24  1  0
 23 27  1  0
 24 25  1  0
 25 26  1  0
 26 27  1  0
M  CHG  1   9   1
M  END
