
     RDKit          3D

 27 29  0  0  0  0  0  0  0  0999 V2000
   -4.1200   -2.1890    1.3610 C   0  0  0  0  0  0  0  0  0  0  0  0
   -4.7830   -1.3330    0.3610 C   0  0  0  0  0  0  0  0  0  0  0  0
   -6.0370   -1.2620    0.0880 N   0  0  0  0  0  0  0  0  0  0  0  0
   -6.2960   -0.3410   -0.9150 N   0  0  0  0  0  0  0  0  0  0  0  0
   -5.0340    0.2050   -1.2910 C   0  0  0  0  0  0  0  0  0  0  0  0
   -4.8900    1.2160   -2.3490 C   0  0  0  0  0  0  0  0  0  0  0  0
   -4.1290   -0.3670   -0.5470 C   0  0  0  0  0  0  0  0  0  0  0  0
   -2.7320   -0.1240   -0.5850 N   0  0  0  0  0  0  0  0  0  0  0  0
   -2.1580    1.1820   -0.3830 C   0  0  0  0  0  0  0  0  0  0  0  0
   -2.2690    1.7470    0.9680 C   0  0  2  0  0  0  0  0  0  0  0  0
   -1.6810    3.0300    1.1060 O   0  0  0  0  0  0  0  0  0  0  0  0
   -1.8520    0.9410    2.1160 C   0  0  0  0  0  0  0  0  0  0  0  0
   -0.4580    0.7610    2.3560 N   0  0  0  0  0  0  0  0  0  0  0  0
    0.4930    0.0790    1.5720 C   0  0  0  0  0  0  0  0  0  0  0  0
    0.1830   -0.4900    0.5200 O   0  0  0  0  0  0  0  0  0  0  0  0
    1.9080    0.0460    2.0260 C   0  0  0  0  0  0  0  0  0  0  0  0
    2.6960   -0.7160    1.0090 C   0  0  0  0  0  0  0  0  0  0  0  0
    3.6920   -0.1280    0.3810 C   0  0  0  0  0  0  0  0  0  0  0  0
    4.0090    1.2780    0.6960 C   0  0  0  0  0  0  0  0  0  0  0  0
    5.1550    1.7720   -0.1160 C   0  0  0  0  0  0  0  0  0  0  0  0
    5.1480    1.1950   -1.4020 O   0  0  0  0  0  0  0  0  0  0  0  0
    5.2070   -0.1840   -1.5450 C   0  0  0  0  0  0  0  0  0  0  0  0
    5.9270   -0.8510   -2.4940 C   0  0  0  0  0  0  0  0  0  0  0  0
    5.9280   -2.2270   -2.5630 C   0  0  0  0  0  0  0  0  0  0  0  0
    5.1820   -2.9340   -1.6490 C   0  0  0  0  0  0  0  0  0  0  0  0
    4.4390   -2.2640   -0.6710 C   0  0  0  0  0  0  0  0  0  0  0  0
    4.4400   -0.8920   -0.6060 C   0  0  0  0  0  0  0  0  0  0  0  0
  1  2  1  0
  2  3  2  0
  2  7  1  0
  3  4  1  0
  4  5  1  0
  5  6  1  0
  5  7  2  0
  7  8  1  0
  8  9  1  0
  9 10  1  0
 10 11  1  6
 10 12  1  0
 12 13  1  0
 13 14  1  0
 14 15  2  0
 14 16  1  0
 16 17  1  0
 17 18  2  3
 18 19  1  0
 18 27  1  0
 19 20  1  0
 20 21  1  0
 21 22  1  0
 22 23  2  0
 22 27  1  0
 23 24  1  0
 24 25  2  0
 25 26  1  0
 26 27  2  0
M  CHG  1   4   1
M  END
