
     RDKit          3D

 27 29  0  0  0  0  0  0  0  0999 V2000
   -5.3080    3.9440    2.4070 C   0  0  0  0  0  0  0  0  0  0  0  0
   -5.5720    2.7760    1.5940 N   0  0  0  0  0  0  0  0  0  0  0  0
   -4.4680    2.0460    1.0840 C   0  0  0  0  0  0  0  0  0  0  0  0
   -3.1860    2.4410    1.3570 C   0  0  0  0  0  0  0  0  0  0  0  0
   -2.0770    1.7390    0.8660 C   0  0  0  0  0  0  0  0  0  0  0  0
   -2.2370    0.6250    0.0910 C   0  0  0  0  0  0  0  0  0  0  0  0
   -1.2000   -0.1410   -0.4440 N   0  0  0  0  0  0  0  0  0  0  0  0
    0.1610    0.1210   -0.2630 C   0  0  0  0  0  0  0  0  0  0  0  0
    0.5890    1.0760    0.4010 O   0  0  0  0  0  0  0  0  0  0  0  0
    1.1700   -0.7310   -0.8590 N   0  0  0  0  0  0  0  0  0  0  0  0
    2.5950   -0.4630   -0.6740 C   0  0  2  0  0  0  0  0  0  0  0  0
    3.2790   -0.2110   -1.9960 C   0  0  0  0  0  0  0  0  0  0  0  0
    4.5540   -0.9850   -2.1540 C   0  0  0  0  0  0  0  0  0  0  0  0
    5.6910   -0.4470   -1.3540 C   0  0  0  0  0  0  0  0  0  0  0  0
    5.2410   -0.1230   -0.0140 N   0  0  2  0  0  0  0  0  0  0  0  0
    6.3850    0.2150    0.8350 C   0  0  0  0  0  0  0  0  0  0  0  0
    6.7570    1.6680    0.7120 C   0  0  0  0  0  0  0  0  0  0  0  0
    5.7070    2.4760    1.0840 O   0  0  0  0  0  0  0  0  0  0  0  0
    4.6120   -1.2640    0.5680 C   0  0  0  0  0  0  0  0  0  0  0  0
    3.2430   -1.5840    0.0850 C   0  0  0  0  0  0  0  0  0  0  0  0
   -3.5560    0.2250   -0.1850 C   0  0  0  0  0  0  0  0  0  0  0  0
   -3.7310   -0.8830   -0.9580 O   0  0  0  0  0  0  0  0  0  0  0  0
   -4.8850   -1.5090   -1.3790 C   0  0  0  0  0  0  0  0  0  0  0  0
   -5.7760   -2.0610   -0.3060 C   0  0  1  0  0  0  0  0  0  0  0  0
   -7.0340   -2.7330   -0.7880 C   0  0  0  0  0  0  0  0  0  0  0  0
   -5.9630   -3.5990   -0.2930 C   0  0  0  0  0  0  0  0  0  0  0  0
   -4.6440    0.9130    0.2950 C   0  0  0  0  0  0  0  0  0  0  0  0
  1  2  1  0
  2  3  1  0
  3  4  2  0
  3 27  1  0
  4  5  1  0
  5  6  2  0
  6  7  1  0
  6 21  1  0
  7  8  1  0
  8  9  2  0
  8 10  1  0
 11 10  1  6
 11 12  1  0
 11 20  1  0
 12 13  1  0
 13 14  1  0
 14 15  1  0
 15 16  1  1
 15 19  1  0
 16 17  1  0
 17 18  1  0
 19 20  1  0
 21 22  1  0
 21 27  2  0
 22 23  1  0
 24 23  1  6
 24 25  1  0
 24 26  1  0
 25 26  1  0
M  CHG  1  15   1
M  END
