
     RDKit          3D

 33 35  0  0  0  0  0  0  0  0999 V2000
   -1.0770    3.3540   -0.3040 C   0  0  0  0  0  0  0  0  0  0  0  0
   -1.9270    2.1270    0.0760 C   0  0  0  0  0  0  0  0  0  0  0  0
   -2.3960    1.4420   -1.1570 C   0  0  0  0  0  0  0  0  0  0  0  0
   -3.1900    0.2820   -1.0380 N   0  0  0  0  0  0  0  0  0  0  0  0
   -4.6370    0.3720   -1.3160 C   0  0  0  0  0  0  0  0  0  0  0  0
   -5.4540    0.5230   -0.1120 C   0  0  0  0  0  0  0  0  0  0  0  0
   -6.2710   -0.4900    0.2290 C   0  0  0  0  0  0  0  0  0  0  0  0
   -7.1220   -0.4470    1.3870 C   0  0  0  0  0  0  0  0  0  0  0  0
   -7.9420   -1.3940    1.7910 C   0  0  0  0  0  0  0  0  0  0  0  0
   -8.1080   -2.6370    1.1160 C   0  0  0  0  0  0  0  0  0  0  0  0
   -7.5370   -3.0100    0.0920 O   0  0  0  0  0  0  0  0  0  0  0  0
   -7.0620    0.7310    2.1560 O   0  0  0  0  0  0  0  0  0  0  0  0
   -6.2470    1.7920    1.8400 C   0  0  0  0  0  0  0  0  0  0  0  0
   -5.4720    1.6970    0.7490 C   0  0  0  0  0  0  0  0  0  0  0  0
   -2.7230   -1.0120   -0.8140 C   0  0  0  0  0  0  0  0  0  0  0  0
   -3.6290   -1.9640   -0.7240 O   0  0  0  0  0  0  0  0  0  0  0  0
   -1.3550   -1.4430   -0.6680 C   0  0  0  0  0  0  0  0  0  0  0  0
   -0.1800   -0.7570   -0.7130 C   0  0  0  0  0  0  0  0  0  0  0  0
    0.9180   -1.6190   -0.5190 C   0  0  0  0  0  0  0  0  0  0  0  0
    2.3500   -1.1910   -0.5090 C   0  0  2  0  0  0  0  0  0  0  0  0
    2.6190   -0.2780    0.6810 C   0  0  0  0  0  0  0  0  0  0  0  0
    2.6580   -0.5240   -1.7870 C   0  0  0  0  0  0  0  0  0  0  0  0
    3.9000   -0.2390   -2.1200 C   0  0  0  0  0  0  0  0  0  0  0  0
    5.0060   -0.5920   -1.2010 C   0  0  0  0  0  0  0  0  0  0  0  0
    5.7030    0.6050   -0.8250 O   0  0  0  0  0  0  0  0  0  0  0  0
    6.7850    0.4570    0.0450 C   0  0  0  0  0  0  0  0  0  0  0  0
    7.5120    1.5550    0.4580 C   0  0  0  0  0  0  0  0  0  0  0  0
    8.5890    1.4390    1.3180 C   0  0  0  0  0  0  0  0  0  0  0  0
    8.9820    0.2080    1.8010 C   0  0  0  0  0  0  0  0  0  0  0  0
    8.2580   -0.8920    1.3910 C   0  0  0  0  0  0  0  0  0  0  0  0
    7.1800   -0.7740    0.5290 C   0  0  0  0  0  0  0  0  0  0  0  0
    0.3620   -2.8480   -0.3550 C   0  0  0  0  0  0  0  0  0  0  0  0
   -0.9620   -2.7420   -0.4430 N   0  0  0  0  0  0  0  0  0  0  0  0
  1  2  1  0
  2  3  1  0
  3  4  1  0
  4  5  1  0
  4 15  1  0
  5  6  1  0
  6  7  2  0
  6 14  1  0
  7  8  1  0
  8  9  2  3
  8 12  1  0
  9 10  1  0
 10 11  2  0
 12 13  1  0
 13 14  2  0
 15 16  2  0
 15 17  1  0
 17 18  2  0
 17 33  1  0
 18 19  1  0
 19 20  1  0
 19 32  2  0
 20 21  1  1
 20 22  1  0
 22 23  2  3
 23 24  1  0
 24 25  1  0
 25 26  1  0
 26 27  2  0
 26 31  1  0
 27 28  1  0
 28 29  2  0
 29 30  1  0
 30 31  2  0
 32 33  1  0
M  END
