
     RDKit          3D

 33 34  0  0  0  0  0  0  0  0999 V2000
    0.2130   -4.0580   -1.3040 C   0  0  0  0  0  0  0  0  0  0  0  0
    1.6600   -3.6900   -1.3110 C   0  0  0  0  0  0  0  0  0  0  0  0
    2.1050   -2.4910   -1.0630 C   0  0  0  0  0  0  0  0  0  0  0  0
    3.5170   -2.1880   -1.0830 C   0  0  0  0  0  0  0  0  0  0  0  0
    4.4310   -3.1670   -1.3810 C   0  0  0  0  0  0  0  0  0  0  0  0
    5.8050   -2.9040   -1.4060 C   0  0  0  0  0  0  0  0  0  0  0  0
    6.2010   -1.6210   -1.1200 C   0  0  0  0  0  0  0  0  0  0  0  0
    5.2540   -0.6440   -0.8210 C   0  0  0  0  0  0  0  0  0  0  0  0
    5.6650    0.7200   -0.5160 C   0  0  0  0  0  0  0  0  0  0  0  0
    4.8040    1.5760   -0.2480 O   0  0  0  0  0  0  0  0  0  0  0  0
    6.9840    1.0330   -0.5290 O   0  0  0  0  0  0  0  0  0  0  0  0
    7.6070    2.2200   -0.2690 C   0  0  0  0  0  0  0  0  0  0  0  0
    7.5500    2.7730    1.1000 C   0  0  0  0  0  0  0  0  0  0  0  0
    6.2390    3.1150    1.6880 C   0  0  0  0  0  0  0  0  0  0  0  0
    3.9730   -0.9560   -0.8130 N   0  0  0  0  0  0  0  0  0  0  0  0
    1.1430   -1.4210   -0.7550 C   0  0  0  0  0  0  0  0  0  0  0  0
    1.3560   -0.0910   -0.4700 C   0  0  0  0  0  0  0  0  0  0  0  0
    0.1140    0.5180   -0.2460 C   0  0  0  0  0  0  0  0  0  0  0  0
   -0.8030   -0.4680   -0.4050 C   0  0  0  0  0  0  0  0  0  0  0  0
   -2.3110   -0.3520   -0.2740 C   0  0  0  0  0  0  0  0  0  0  0  0
   -2.7150   -0.5260    1.1060 N   0  0  1  0  0  0  0  0  0  0  0  0
   -3.6770    0.4680    1.5240 C   0  0  0  0  0  0  0  0  0  0  0  0
   -4.1810    1.2810    0.4120 C   0  0  0  0  0  0  0  0  0  0  0  0
   -4.0120    2.5770    0.3740 C   0  0  0  0  0  0  0  0  0  0  0  0
   -3.3260    3.3950    1.3790 C   0  0  0  0  0  0  0  0  0  0  0  0
   -4.3450    4.3930    1.9410 C   0  0  0  0  0  0  0  0  0  0  0  0
   -4.8720    0.6990   -0.6650 O   0  0  0  0  0  0  0  0  0  0  0  0
   -6.2250    0.3530   -0.6170 C   0  0  0  0  0  0  0  0  0  0  0  0
   -7.1050    1.5470   -0.3450 C   0  0  0  0  0  0  0  0  0  0  0  0
   -3.1130   -1.8550    1.4440 C   0  0  2  0  0  0  0  0  0  0  0  0
   -1.9580   -2.6640    1.9990 C   0  0  0  0  0  0  0  0  0  0  0  0
   -3.8370   -2.6010    0.3580 C   0  0  0  0  0  0  0  0  0  0  0  0
   -0.1750   -1.5640   -0.6950 O   0  0  0  0  0  0  0  0  0  0  0  0
  1  2  1  0
  2  3  2  3
  3  4  1  0
  3 16  1  0
  4  5  2  0
  4 15  1  0
  5  6  1  0
  6  7  2  0
  7  8  1  0
  8  9  1  0
  8 15  2  0
  9 10  2  0
  9 11  1  0
 11 12  1  0
 12 13  1  0
 13 14  1  0
 16 17  2  0
 16 33  1  0
 17 18  1  0
 18 19  2  0
 19 20  1  0
 19 33  1  0
 21 20  1  6
 21 22  1  0
 21 30  1  0
 22 23  1  0
 23 24  2  3
 23 27  1  0
 24 25  1  0
 25 26  1  0
 27 28  1  0
 28 29  1  0
 30 31  1  6
 30 32  1  0
M  CHG  1  21   1
M  END
