
     RDKit          3D

 33 35  0  0  0  0  0  0  0  0999 V2000
    9.9770    1.7100   -0.7210 C   0  0  0  0  0  0  0  0  0  0  0  0
    9.9480    0.4400   -0.3900 C   0  0  0  0  0  0  0  0  0  0  0  0
    8.9810   -0.2360    0.4960 C   0  0  0  0  0  0  0  0  0  0  0  0
    8.0320    0.6500    0.9820 O   0  0  0  0  0  0  0  0  0  0  0  0
    7.1230    1.2740    0.1820 C   0  0  0  0  0  0  0  0  0  0  0  0
    7.0790    1.0840   -1.0390 O   0  0  0  0  0  0  0  0  0  0  0  0
    6.1720    2.2090    0.8530 C   0  0  0  0  0  0  0  0  0  0  0  0
    5.0170    1.3960    1.2140 N   0  0  0  0  0  0  0  0  0  0  0  0
    3.8990    1.1990    0.4840 C   0  0  0  0  0  0  0  0  0  0  0  0
    3.0610    0.3500    1.1550 C   0  0  0  0  0  0  0  0  0  0  0  0
    1.6930   -0.1310    0.7410 C   0  0  0  0  0  0  0  0  0  0  0  0
    1.4030   -1.3970    0.8890 C   0  0  0  0  0  0  0  0  0  0  0  0
    2.4910   -2.1420    1.4450 O   0  0  0  0  0  0  0  0  0  0  0  0
    2.4790   -3.4730    1.7520 C   0  0  0  0  0  0  0  0  0  0  0  0
    0.1830   -2.0570    0.5730 C   0  0  0  0  0  0  0  0  0  0  0  0
    0.2690   -3.3600    0.8560 O   0  0  0  0  0  0  0  0  0  0  0  0
   -1.0840   -1.6260    0.0340 C   0  0  0  0  0  0  0  0  0  0  0  0
   -1.4300   -0.3730   -0.3950 C   0  0  0  0  0  0  0  0  0  0  0  0
   -2.7300   -0.0900   -0.8520 C   0  0  0  0  0  0  0  0  0  0  0  0
   -3.6840   -1.0600   -0.8810 C   0  0  0  0  0  0  0  0  0  0  0  0
   -5.0430   -0.8120   -1.3000 C   0  0  0  0  0  0  0  0  0  0  0  0
   -5.8200    0.1500   -0.8750 C   0  0  0  0  0  0  0  0  0  0  0  0
   -5.3460    1.1200    0.1350 C   0  0  0  0  0  0  0  0  0  0  0  0
   -5.2890    2.5410   -0.3910 C   0  0  0  0  0  0  0  0  0  0  0  0
   -7.1950    0.3330   -1.3550 C   0  0  0  0  0  0  0  0  0  0  0  0
   -8.0540    1.2780   -0.9790 C   0  0  0  0  0  0  0  0  0  0  0  0
   -9.3020    1.0640   -1.7230 C   0  0  0  0  0  0  0  0  0  0  0  0
   -9.0540   -0.1140   -2.5720 C   0  0  0  0  0  0  0  0  0  0  0  0
   -7.8240   -0.5260   -2.3440 C   0  0  0  0  0  0  0  0  0  0  0  0
   -3.3490   -2.3150   -0.4570 C   0  0  0  0  0  0  0  0  0  0  0  0
   -2.0840   -2.6270   -0.0030 C   0  0  0  0  0  0  0  0  0  0  0  0
    3.7020    0.0270    2.3310 C   0  0  0  0  0  0  0  0  0  0  0  0
    4.8810    0.6820    2.3250 N   0  0  0  0  0  0  0  0  0  0  0  0
  1  2  2  0
  2  3  1  0
  3  4  1  0
  4  5  1  0
  5  6  2  0
  5  7  1  0
  7  8  1  0
  8  9  1  0
  8 33  1  0
  9 10  2  0
 10 11  1  0
 10 32  1  0
 11 12  2  3
 12 13  1  0
 12 15  1  0
 13 14  1  0
 15 16  2  0
 15 17  1  0
 17 18  2  0
 17 31  1  0
 18 19  1  0
 19 20  2  0
 20 21  1  0
 20 30  1  0
 21 22  2  3
 22 23  1  0
 22 25  1  0
 23 24  1  0
 25 26  2  0
 25 29  1  0
 26 27  1  0
 27 28  1  0
 28 29  2  0
 30 31  2  0
 32 33  2  0
M  END
