
     RDKit          3D

 33 35  0  0  0  0  0  0  0  0999 V2000
   -5.2140   -6.5380   -0.3730 C   0  0  0  0  0  0  0  0  0  0  0  0
   -4.3200   -5.8130   -0.5750 C   0  0  0  0  0  0  0  0  0  0  0  0
   -3.1810   -4.8860   -0.8090 C   0  0  0  0  0  0  0  0  0  0  0  0
   -3.7370   -3.7940    0.1030 N   0  0  0  0  0  0  0  0  0  0  0  0
   -5.1530   -3.4980   -0.2570 C   0  0  0  0  0  0  0  0  0  0  0  0
   -3.0340   -2.5210   -0.2000 C   0  0  0  0  0  0  0  0  0  0  0  0
   -1.8630   -2.4320    0.7350 C   0  0  0  0  0  0  0  0  0  0  0  0
   -1.0470   -1.3380    0.6000 O   0  0  0  0  0  0  0  0  0  0  0  0
   -1.5650   -0.0760    0.9420 C   0  0  0  0  0  0  0  0  0  0  0  0
   -2.7840    0.0700    1.3090 C   0  0  0  0  0  0  0  0  0  0  0  0
   -3.4250    1.2900    1.6750 C   0  0  0  0  0  0  0  0  0  0  0  0
   -2.5450    2.3780    1.5970 C   0  0  0  0  0  0  0  0  0  0  0  0
   -3.0840    3.7280    2.0140 C   0  0  0  0  0  0  0  0  0  0  0  0
   -3.7920    3.9980    2.9200 O   0  0  0  0  0  0  0  0  0  0  0  0
   -2.6380    4.6930    1.0830 O   0  0  0  0  0  0  0  0  0  0  0  0
   -2.9240    6.0220    0.9970 C   0  0  0  0  0  0  0  0  0  0  0  0
   -4.4300    6.3230    1.0400 C   0  0  0  0  0  0  0  0  0  0  0  0
   -1.3230    2.2170    1.2270 C   0  0  0  0  0  0  0  0  0  0  0  0
   -0.6690    1.0070    0.8420 C   0  0  0  0  0  0  0  0  0  0  0  0
    0.5530    0.9420    0.3960 O   0  0  0  0  0  0  0  0  0  0  0  0
    1.7180    1.1800   -0.0010 C   0  0  0  0  0  0  0  0  0  0  0  0
    2.6620    0.2140   -0.5070 C   0  0  0  0  0  0  0  0  0  0  0  0
    2.3390   -0.9400   -1.2470 C   0  0  0  0  0  0  0  0  0  0  0  0
    3.3260   -1.8250   -1.8660 C   0  0  0  0  0  0  0  0  0  0  0  0
    4.6340   -1.4460   -1.6540 C   0  0  0  0  0  0  0  0  0  0  0  0
    4.9710   -0.2810   -0.9240 C   0  0  0  0  0  0  0  0  0  0  0  0
    3.9760    0.3180   -0.4980 N   0  0  0  0  0  0  0  0  0  0  0  0
    6.5630   -0.1950   -0.8890 C   0  0  0  0  0  0  0  0  0  0  0  0
    6.9160    0.5690    0.3400 C   0  0  0  0  0  0  0  0  0  0  0  0
    6.1970    1.9960   -0.0980 C   0  0  0  0  0  0  0  0  0  0  0  0
    5.8220    1.8170   -1.3460 C   0  0  0  0  0  0  0  0  0  0  0  0
    6.9640   -1.2240   -1.5150 C   0  0  0  0  0  0  0  0  0  0  0  0
    5.9090   -2.0920   -1.9690 C   0  0  0  0  0  0  0  0  0  0  0  0
  1  2  3  0
  2  3  1  0
  3  4  1  0
  4  5  1  0
  4  6  1  0
  6  7  1  0
  7  8  1  0
  8  9  1  0
  9 10  2  0
  9 19  1  0
 10 11  1  0
 11 12  2  0
 12 13  1  0
 12 18  1  0
 13 14  2  0
 13 15  1  0
 15 16  1  0
 16 17  1  0
 18 19  2  0
 19 20  1  0
 20 21  1  0
 21 22  1  0
 22 23  2  0
 22 27  1  0
 23 24  1  0
 24 25  2  0
 25 26  1  0
 25 33  1  0
 26 27  2  0
 26 28  1  0
 28 29  1  0
 28 32  2  0
 29 30  2  3
 30 31  1  0
 32 33  1  0
M  END
