
     RDKit          3D

 32 34  0  0  0  0  0  0  0  0999 V2000
   -7.9320   -0.2800    0.5120 O   0  0  0  0  0  0  0  0  0  0  0  0
   -6.6370   -0.7630    0.5390 C   0  0  0  0  0  0  0  0  0  0  0  0
   -5.6230    0.2680    0.9690 C   0  0  1  0  0  0  0  0  0  0  0  0
   -4.3770   -0.2020    0.5230 O   0  0  0  0  0  0  0  0  0  0  0  0
   -4.2640    0.2530   -0.8010 C   0  0  2  0  0  0  0  0  0  0  0  0
   -3.3270   -0.8610   -1.8440 S   0  0  0  0  0  0  0  0  0  0  0  0
   -1.5490   -0.5760   -1.7900 C   0  0  0  0  0  0  0  0  0  0  0  0
   -0.8230   -1.8670   -1.5140 C   0  0  1  0  0  0  0  0  0  0  0  0
    0.5490   -1.7050   -1.5190 O   0  0  0  0  0  0  0  0  0  0  0  0
    1.0310   -0.9870   -0.4400 C   0  0  2  0  0  0  0  0  0  0  0  0
    2.8420   -0.9020   -0.6290 S   0  0  0  0  0  0  0  0  0  0  0  0
    3.6270   -0.5190    0.9530 C   0  0  0  0  0  0  0  0  0  0  0  0
    5.1000   -0.3060    0.7320 C   0  0  1  0  0  0  0  0  0  0  0  0
    5.7240   -1.3390   -0.1630 C   0  0  0  0  0  0  0  0  0  0  0  0
    6.6270   -0.6830   -1.0740 N   0  0  0  0  0  0  0  0  0  0  0  0
    7.5280    0.2420   -0.4120 C   0  0  0  0  0  0  0  0  0  0  0  0
    6.7980    1.3690    0.2610 C   0  0  1  0  0  0  0  0  0  0  0  0
    7.1400    2.6190   -0.2290 O   0  0  0  0  0  0  0  0  0  0  0  0
    5.3140    1.0930    0.1680 C   0  0  2  0  0  0  0  0  0  0  0  0
    4.6300    2.0120    0.9520 O   0  0  0  0  0  0  0  0  0  0  0  0
    0.7590   -1.6570    0.8800 C   0  0  1  0  0  0  0  0  0  0  0  0
    1.2050   -0.8500    1.9070 O   0  0  0  0  0  0  0  0  0  0  0  0
   -0.7160   -1.9480    0.9980 C   0  0  1  0  0  0  0  0  0  0  0  0
   -1.4530   -0.8610    1.4350 O   0  0  0  0  0  0  0  0  0  0  0  0
   -1.2700   -2.5540   -0.2600 C   0  0  2  0  0  0  0  0  0  0  0  0
   -0.8040   -3.8760   -0.3220 O   0  0  0  0  0  0  0  0  0  0  0  0
   -3.7010    1.6440   -0.7200 C   0  0  1  0  0  0  0  0  0  0  0  0
   -3.5860    2.2710   -1.9470 O   0  0  0  0  0  0  0  0  0  0  0  0
   -4.6690    2.4440    0.1440 C   0  0  1  0  0  0  0  0  0  0  0  0
   -5.0910    3.6070   -0.4900 O   0  0  0  0  0  0  0  0  0  0  0  0
   -5.9250    1.6460    0.4540 C   0  0  2  0  0  0  0  0  0  0  0  0
   -6.5690    2.3370    1.4930 O   0  0  0  0  0  0  0  0  0  0  0  0
  1  2  1  0
  3  2  1  6
  3  4  1  0
  3 31  1  0
  4  5  1  0
  5  6  1  6
  5 27  1  0
  6  7  1  0
  8  7  1  1
  8  9  1  0
  8 25  1  0
  9 10  1  0
 10 11  1  6
 10 21  1  0
 11 12  1  0
 13 12  1  6
 13 14  1  0
 13 19  1  0
 14 15  1  0
 15 16  1  0
 16 17  1  0
 17 18  1  6
 17 19  1  0
 19 20  1  1
 21 22  1  1
 21 23  1  0
 23 24  1  6
 23 25  1  0
 25 26  1  6
 27 28  1  6
 27 29  1  0
 29 30  1  6
 29 31  1  0
 31 32  1  1
M  CHG  1  15   1
M  END
