
     RDKit          3D

 27 29  0  0  0  0  0  0  0  0999 V2000
   -6.2480   -1.4940    2.4390 N   0  0  0  0  0  0  0  0  0  0  0  0
   -5.5090   -0.9650    1.3690 C   0  0  0  0  0  0  0  0  0  0  0  0
   -6.1370   -0.3790    0.3230 N   0  0  0  0  0  0  0  0  0  0  0  0
   -5.4200    0.1230   -0.6920 C   0  0  0  0  0  0  0  0  0  0  0  0
   -4.0750    0.0600   -0.7040 N   0  0  0  0  0  0  0  0  0  0  0  0
   -3.3720   -0.5070    0.2990 C   0  0  0  0  0  0  0  0  0  0  0  0
   -4.1110   -1.0270    1.3520 C   0  0  0  0  0  0  0  0  0  0  0  0
   -3.2470   -1.5350    2.2270 N   0  0  0  0  0  0  0  0  0  0  0  0
   -1.9900   -1.3430    1.7440 C   0  0  0  0  0  0  0  0  0  0  0  0
   -2.0720   -0.7130    0.5630 N   0  0  0  0  0  0  0  0  0  0  0  0
   -0.9670   -0.3290   -0.2670 C   0  0  2  0  0  0  0  0  0  0  0  0
    0.1820   -0.0460    0.4460 O   0  0  0  0  0  0  0  0  0  0  0  0
    1.0040    0.4900   -0.5490 C   0  0  2  0  0  0  0  0  0  0  0  0
    2.2220    1.1600    0.0230 C   0  0  0  0  0  0  0  0  0  0  0  0
    3.0220    0.2950    0.7640 O   0  0  0  0  0  0  0  0  0  0  0  0
    4.3390    1.1790    1.3380 P   0  0  2  0  0  0  0  0  0  0  0  0
    4.1010    1.7020    2.7150 O   0  0  0  0  0  0  0  0  0  0  0  0
    4.5820    2.5250    0.3190 O   0  0  0  0  0  0  0  0  0  0  0  0
    5.7630    0.2840    1.3350 O   0  0  0  0  0  0  0  0  0  0  0  0
    5.6680   -1.0380    0.2840 P   0  0  2  0  0  0  0  0  0  0  0  0
    4.9120   -0.6190   -0.9760 O   0  0  0  0  0  0  0  0  0  0  0  0
    4.8250   -2.2680    1.0830 O   0  0  0  0  0  0  0  0  0  0  0  0
    7.2430   -1.5030   -0.0920 O   0  0  0  0  0  0  0  0  0  0  0  0
    0.0970    1.6050   -1.0840 C   0  0  1  0  0  0  0  0  0  0  0  0
    0.4310    1.9340   -2.3790 O   0  0  0  0  0  0  0  0  0  0  0  0
   -1.2720    0.9930   -0.9490 C   0  0  1  0  0  0  0  0  0  0  0  0
   -1.7880    0.7950   -2.2200 O   0  0  0  0  0  0  0  0  0  0  0  0
  1  2  1  0
  2  3  2  0
  2  7  1  0
  3  4  1  0
  4  5  2  0
  5  6  1  0
  6  7  2  0
  6 10  1  0
  7  8  1  0
  8  9  2  0
  9 10  1  0
 11 10  1  1
 11 12  1  0
 11 26  1  0
 12 13  1  0
 13 14  1  1
 13 24  1  0
 14 15  1  0
 15 16  1  0
 16 17  2  0
 16 18  1  6
 16 19  1  0
 19 20  1  0
 20 21  2  0
 20 22  1  1
 20 23  1  0
 24 25  1  6
 24 26  1  0
 26 27  1  6
M  END
