
     RDKit          3D

 27 28  0  0  0  0  0  0  0  0999 V2000
    3.9670   -3.7700   -0.0120 C   0  0  0  0  0  0  0  0  0  0  0  0
    3.6300   -2.5890   -0.8090 N   0  0  0  0  0  0  0  0  0  0  0  0
    3.8410   -1.2880   -0.3260 C   0  0  0  0  0  0  0  0  0  0  0  0
    4.3300   -1.1300    0.8160 O   0  0  0  0  0  0  0  0  0  0  0  0
    3.4990   -0.1050   -1.1350 C   0  0  0  0  0  0  0  0  0  0  0  0
    3.7450    1.2030   -0.4790 C   0  0  0  0  0  0  0  0  0  0  0  0
    2.9460    1.4430    0.7690 C   0  0  0  0  0  0  0  0  0  0  0  0
    1.5310    1.4500    0.5630 N   0  0  0  0  0  0  0  0  0  0  0  0
    0.6510    0.3450    0.6570 C   0  0  0  0  0  0  0  0  0  0  0  0
    1.0110   -0.8050    1.0100 O   0  0  0  0  0  0  0  0  0  0  0  0
   -0.7540    0.4870    0.3400 N   0  0  0  0  0  0  0  0  0  0  0  0
   -1.6490   -0.6130    0.4270 C   0  0  0  0  0  0  0  0  0  0  0  0
   -1.1380   -1.6920    0.8000 O   0  0  0  0  0  0  0  0  0  0  0  0
   -3.0440   -0.5070    0.1130 C   0  0  0  0  0  0  0  0  0  0  0  0
   -3.5720    0.6660   -0.2860 C   0  0  0  0  0  0  0  0  0  0  0  0
   -4.9820    0.8310   -0.6170 C   0  0  0  0  0  0  0  0  0  0  0  0
   -5.7970   -0.1770   -0.5350 C   0  0  0  0  0  0  0  0  0  0  0  0
   -5.3090   -1.3900   -0.1340 O   0  0  0  0  0  0  0  0  0  0  0  0
   -3.9540   -1.6290    0.2040 C   0  0  0  0  0  0  0  0  0  0  0  0
   -3.6150   -2.8400    0.5740 C   0  0  0  0  0  0  0  0  0  0  0  0
   -4.6120   -3.8290    0.6140 O   0  0  0  0  0  0  0  0  0  0  0  0
   -5.5760   -3.9120   -0.3040 O   0  0  0  0  0  0  0  0  0  0  0  0
    0.9480    2.7200    0.1960 C   0  0  0  0  0  0  0  0  0  0  0  0
    0.6050    3.1740   -1.0490 C   0  0  0  0  0  0  0  0  0  0  0  0
    0.0890    4.4480   -0.8560 C   0  0  0  0  0  0  0  0  0  0  0  0
    0.1560    4.6750    0.5000 C   0  0  0  0  0  0  0  0  0  0  0  0
    0.6740    3.6310    1.1190 O   0  0  0  0  0  0  0  0  0  0  0  0
  1  2  1  0
  2  3  1  0
  3  4  2  0
  3  5  1  0
  5  6  1  0
  6  7  1  0
  7  8  1  0
  8  9  1  0
  8 23  1  0
  9 10  2  0
  9 11  1  0
 11 12  1  0
 12 13  2  0
 12 14  1  0
 14 15  2  0
 14 19  1  0
 15 16  1  0
 16 17  2  0
 17 18  1  0
 18 19  1  0
 19 20  2  3
 20 21  1  0
 21 22  1  0
 23 24  2  0
 23 27  1  0
 24 25  1  0
 25 26  2  0
 26 27  1  0
M  END
