
     RDKit          3D

 27 29  0  0  0  0  0  0  0  0999 V2000
    5.0170    3.8210   -0.4440 C   0  0  0  0  0  0  0  0  0  0  0  0
    5.5050    2.8350    0.4060 O   0  0  0  0  0  0  0  0  0  0  0  0
    5.0800    1.5590    0.1070 C   0  0  0  0  0  0  0  0  0  0  0  0
    3.5970    1.4630    0.1780 C   0  0  0  0  0  0  0  0  0  0  0  0
    3.1410    0.1300   -0.1310 N   0  0  0  0  0  0  0  0  0  0  0  0
    1.7160   -0.1850   -0.1190 C   0  0  0  0  0  0  0  0  0  0  0  0
    0.9980    0.7700    0.1700 O   0  0  0  0  0  0  0  0  0  0  0  0
    1.3040   -1.5330   -0.4360 C   0  0  0  0  0  0  0  0  0  0  0  0
    0.0360   -1.9680   -0.4650 C   0  0  0  0  0  0  0  0  0  0  0  0
   -0.9640   -1.0510   -0.1680 N   0  0  0  0  0  0  0  0  0  0  0  0
   -2.3640   -1.0790   -0.0860 C   0  0  0  0  0  0  0  0  0  0  0  0
   -2.9900   -2.0950   -0.3070 O   0  0  0  0  0  0  0  0  0  0  0  0
   -3.1200    0.1500    0.2780 C   0  0  0  0  0  0  0  0  0  0  0  0
   -4.4310    0.2310   -0.0830 C   0  0  0  0  0  0  0  0  0  0  0  0
   -5.1980    1.3590    0.2390 C   0  0  0  0  0  0  0  0  0  0  0  0
   -4.6080    2.3980    0.9340 C   0  0  0  0  0  0  0  0  0  0  0  0
   -5.3660    3.5150    1.2540 O   0  0  0  0  0  0  0  0  0  0  0  0
   -6.0690    4.2140    0.3780 O   0  0  0  0  0  0  0  0  0  0  0  0
   -3.2840    2.2900    1.2860 C   0  0  0  0  0  0  0  0  0  0  0  0
   -2.5290    1.1610    0.9590 C   0  0  0  0  0  0  0  0  0  0  0  0
   -0.1910   -3.3890   -0.8120 C   0  0  0  0  0  0  0  0  0  0  0  0
   -1.3250   -4.1480   -0.9330 C   0  0  0  0  0  0  0  0  0  0  0  0
   -0.9490   -5.4530   -1.2880 C   0  0  0  0  0  0  0  0  0  0  0  0
    0.3710   -5.4600   -1.3750 N   0  0  0  0  0  0  0  0  0  0  0  0
    0.8730   -4.2530   -1.1000 C   0  0  0  0  0  0  0  0  0  0  0  0
    2.1500   -3.7350   -1.0500 O   0  0  0  0  0  0  0  0  0  0  0  0
    2.3140   -2.4640   -0.7370 O   0  0  0  0  0  0  0  0  0  0  0  0
  1  2  1  0
  2  3  1  0
  3  4  1  0
  4  5  1  0
  5  6  1  0
  6  7  2  0
  6  8  1  0
  8  9  2  0
  8 27  1  0
  9 10  1  0
  9 21  1  0
 10 11  1  0
 11 12  2  0
 11 13  1  0
 13 14  2  0
 13 20  1  0
 14 15  1  0
 15 16  2  0
 16 17  1  0
 16 19  1  0
 17 18  1  0
 19 20  2  0
 21 22  1  0
 21 25  2  0
 22 23  2  0
 23 24  1  0
 24 25  1  0
 25 26  1  0
 26 27  1  0
M  END
