
     RDKit          3D

 27 28  0  0  0  0  0  0  0  0999 V2000
    8.0620    1.4440   -2.2810 C   0  0  0  0  0  0  0  0  0  0  0  0
    7.0570    0.8530   -1.4740 O   0  0  0  0  0  0  0  0  0  0  0  0
    7.4320    0.0970   -0.3970 C   0  0  0  0  0  0  0  0  0  0  0  0
    8.6540   -0.0540   -0.1510 O   0  0  0  0  0  0  0  0  0  0  0  0
    6.4730   -0.5720    0.5220 C   0  0  0  0  0  0  0  0  0  0  0  0
    5.1570   -0.2830    0.0790 O   0  0  0  0  0  0  0  0  0  0  0  0
    4.0510   -0.7880    0.7610 C   0  0  0  0  0  0  0  0  0  0  0  0
    4.2530   -1.4960    1.7670 O   0  0  0  0  0  0  0  0  0  0  0  0
    2.7290   -0.5070    0.3300 N   0  0  0  0  0  0  0  0  0  0  0  0
    1.5830   -0.9920    0.9830 C   0  0  0  0  0  0  0  0  0  0  0  0
    1.4470   -1.7580    2.0620 N   0  0  0  0  0  0  0  0  0  0  0  0
    0.1290   -1.9600    2.3110 C   0  0  0  0  0  0  0  0  0  0  0  0
   -0.5930   -1.3130    1.3790 N   0  0  0  0  0  0  0  0  0  0  0  0
    0.2860   -0.7230    0.5700 C   0  0  0  0  0  0  0  0  0  0  0  0
   -0.0980    0.1100   -0.6170 C   0  0  0  0  0  0  0  0  0  0  0  0
   -1.4810    0.1850   -0.7590 O   0  0  0  0  0  0  0  0  0  0  0  0
   -2.3490    0.7000    0.1830 C   0  0  0  0  0  0  0  0  0  0  0  0
   -1.8870    1.1380    1.2480 O   0  0  0  0  0  0  0  0  0  0  0  0
   -3.7770    0.7040   -0.1270 C   0  0  0  0  0  0  0  0  0  0  0  0
   -4.5330    1.2160    0.8320 C   0  0  0  0  0  0  0  0  0  0  0  0
   -5.9540    1.4470    1.0270 C   0  0  0  0  0  0  0  0  0  0  0  0
   -7.0470    0.9140    0.5470 C   0  0  0  0  0  0  0  0  0  0  0  0
   -7.4440   -0.1330   -0.3820 C   0  0  0  0  0  0  0  0  0  0  0  0
   -6.5980   -0.3410   -1.5520 C   0  0  0  0  0  0  0  0  0  0  0  0
   -7.2970   -0.7200   -2.5530 O   0  0  0  0  0  0  0  0  0  0  0  0
   -5.2110   -0.2660   -1.9880 C   0  0  0  0  0  0  0  0  0  0  0  0
   -4.0990    0.1450   -1.4270 C   0  0  0  0  0  0  0  0  0  0  0  0
  1  2  1  0
  2  3  1  0
  3  4  2  0
  3  5  1  0
  5  6  1  0
  6  7  1  0
  7  8  2  0
  7  9  1  0
  9 10  1  0
 10 11  1  0
 10 14  2  0
 11 12  1  0
 12 13  2  0
 13 14  1  0
 14 15  1  0
 15 16  1  0
 16 17  1  0
 17 18  2  0
 17 19  1  0
 19 20  2  0
 19 27  1  0
 20 21  1  0
 21 22  2  0
 22 23  1  0
 23 24  1  0
 24 25  2  0
 24 26  1  0
 26 27  2  0
M  END
