
     RDKit          3D

 27 27  0  0  0  0  0  0  0  0999 V2000
    2.9550   -2.5230   -0.3060 C   0  0  0  0  0  0  0  0  0  0  0  0
    3.6090   -1.3820    0.0210 C   0  0  0  0  0  0  0  0  0  0  0  0
    5.0400   -1.4620    0.1340 C   0  0  0  0  0  0  0  0  0  0  0  0
    5.8440   -0.4810    0.4390 C   0  0  0  0  0  0  0  0  0  0  0  0
    7.2250   -0.7000    0.5140 O   0  0  0  0  0  0  0  0  0  0  0  0
    2.8170   -0.1810    0.2300 C   0  0  0  0  0  0  0  0  0  0  0  0
    3.3690    0.8900    0.5320 O   0  0  0  0  0  0  0  0  0  0  0  0
    1.4540   -0.1770    0.1060 O   0  0  0  0  0  0  0  0  0  0  0  0
    0.5650    0.8310    0.2600 C   0  0  0  0  0  0  0  0  0  0  0  0
    0.8980    2.1900    0.6100 C   0  0  0  0  0  0  0  0  0  0  0  0
   -0.0220    3.0990    0.7380 N   0  0  0  0  0  0  0  0  0  0  0  0
    0.3600    4.4420    1.0880 C   0  0  0  0  0  0  0  0  0  0  0  0
    1.2640    4.4960    2.2640 C   0  0  0  0  0  0  0  0  0  0  0  0
    1.6580    5.6050    2.6560 O   0  0  0  0  0  0  0  0  0  0  0  0
    1.6850    3.3620    2.9410 O   0  0  0  0  0  0  0  0  0  0  0  0
   -0.7400    0.5190    0.0670 C   0  0  0  0  0  0  0  0  0  0  0  0
   -1.1480   -0.8070   -0.2820 C   0  0  0  0  0  0  0  0  0  0  0  0
   -2.3640   -1.2060   -0.4880 C   0  0  0  0  0  0  0  0  0  0  0  0
   -2.5730   -2.6050   -0.8350 N   0  0  0  0  0  0  0  0  0  0  0  0
   -3.1420   -2.9500   -2.0860 C   0  0  0  0  0  0  0  0  0  0  0  0
   -3.3740   -4.3090   -2.4800 N   0  0  0  0  0  0  0  0  0  0  0  0
   -3.4520   -2.0210   -2.8750 O   0  0  0  0  0  0  0  0  0  0  0  0
   -3.5800   -0.4220   -0.4150 C   0  0  0  0  0  0  0  0  0  0  0  0
   -4.8820   -0.8390   -0.6000 C   0  0  0  0  0  0  0  0  0  0  0  0
   -5.6890    0.2580   -0.4320 C   0  0  0  0  0  0  0  0  0  0  0  0
   -4.8580    1.3140   -0.1490 C   0  0  0  0  0  0  0  0  0  0  0  0
   -3.6290    0.8570   -0.1520 O   0  0  0  0  0  0  0  0  0  0  0  0
  1  2  2  0
  2  3  1  0
  2  6  1  0
  3  4  2  3
  4  5  1  0
  6  7  2  0
  6  8  1  0
  8  9  1  0
  9 10  1  0
  9 16  2  3
 10 11  2  3
 11 12  1  0
 12 13  1  0
 13 14  2  0
 13 15  1  0
 16 17  1  0
 17 18  2  3
 18 19  1  0
 18 23  1  0
 19 20  1  0
 20 21  1  0
 20 22  2  0
 23 24  2  0
 23 27  1  0
 24 25  1  0
 25 26  2  0
 26 27  1  0
M  END
