
     RDKit          3D

 27 27  0  0  0  0  0  0  0  0999 V2000
    4.5020    3.1730   -1.3310 C   0  0  0  0  0  0  0  0  0  0  0  0
    3.9200    1.9240   -0.9870 O   0  0  0  0  0  0  0  0  0  0  0  0
    3.3510    1.6980    0.2660 C   0  0  0  0  0  0  0  0  0  0  0  0
    3.3830    2.6390    1.0470 O   0  0  0  0  0  0  0  0  0  0  0  0
    2.7740    0.3500    0.5130 C   0  0  0  0  0  0  0  0  0  0  0  0
    2.8390   -0.5770   -0.4680 C   0  0  0  0  0  0  0  0  0  0  0  0
    2.4020   -1.9410   -0.5800 C   0  0  0  0  0  0  0  0  0  0  0  0
    3.4340   -2.8820   -0.0710 O   0  0  0  0  0  0  0  0  0  0  0  0
    4.2870   -3.2160   -1.0710 O   0  0  0  0  0  0  0  0  0  0  0  0
    1.3330   -2.5600   -1.0300 C   0  0  0  0  0  0  0  0  0  0  0  0
    0.0780   -2.2840   -1.6290 C   0  0  0  0  0  0  0  0  0  0  0  0
   -1.1510   -1.9510   -1.3430 C   0  0  0  0  0  0  0  0  0  0  0  0
   -1.9490   -1.6580   -0.1610 C   0  0  0  0  0  0  0  0  0  0  0  0
   -2.8190   -2.5740    0.3200 C   0  0  0  0  0  0  0  0  0  0  0  0
   -3.0300   -3.9140   -0.2950 C   0  0  0  0  0  0  0  0  0  0  0  0
   -2.7090   -4.8610    0.6710 O   0  0  0  0  0  0  0  0  0  0  0  0
   -2.0020   -0.4390    0.5860 N   0  0  0  0  0  0  0  0  0  0  0  0
   -0.9670    0.5530    0.8160 C   0  0  0  0  0  0  0  0  0  0  0  0
   -1.1830    1.8990    0.1370 C   0  0  2  0  0  0  0  0  0  0  0  0
   -0.3770    2.9620    0.6530 N   0  0  0  0  0  0  0  0  0  0  0  0
   -2.6260    2.2530    0.1770 C   0  0  0  0  0  0  0  0  0  0  0  0
   -3.5250    1.5410   -0.3230 O   0  0  0  0  0  0  0  0  0  0  0  0
   -3.0240    3.4440    0.8040 O   0  0  0  0  0  0  0  0  0  0  0  0
   -4.3970    3.7770    0.8410 C   0  0  0  0  0  0  0  0  0  0  0  0
   -0.0740    0.1790    1.5560 N   0  0  0  0  0  0  0  0  0  0  0  0
    1.0100    0.0470    2.3140 C   0  0  0  0  0  0  0  0  0  0  0  0
    2.2430    0.1270    1.8540 C   0  0  0  0  0  0  0  0  0  0  0  0
  1  2  1  0
  2  3  1  0
  3  4  2  0
  3  5  1  0
  5  6  2  0
  5 27  1  0
  6  7  1  0
  7  8  1  0
  7 10  2  0
  8  9  1  0
 10 11  1  0
 11 12  2  0
 12 13  1  0
 13 14  2  3
 13 17  1  0
 14 15  1  0
 15 16  1  0
 17 18  1  0
 18 19  1  0
 18 25  2  0
 19 20  1  1
 19 21  1  0
 21 22  2  0
 21 23  1  0
 23 24  1  0
 25 26  1  0
 26 27  2  0
M  END
