
     RDKit          3D

 16 17  0  0  0  0  0  0  0  0999 V2000
    4.8830    0.1430    0.1960 C   0  0  0  0  0  0  0  0  0  0  0  0
    3.4120    0.4320    0.3650 C   0  0  0  0  0  0  0  0  0  0  0  0
    2.6030   -0.5380   -0.3640 N   0  0  0  0  0  0  0  0  0  0  0  0
    1.1870   -0.4890   -0.3670 C   0  0  0  0  0  0  0  0  0  0  0  0
    0.5530    0.3750    0.3170 N   0  0  0  0  0  0  0  0  0  0  0  0
   -0.8760    0.5060    0.3800 C   0  0  0  0  0  0  0  0  0  0  0  0
   -1.6010   -0.1830    1.2390 C   0  0  0  0  0  0  0  0  0  0  0  0
   -3.0470   -0.1600    1.4240 C   0  0  2  0  0  0  0  0  0  0  0  0
   -4.0120   -0.8120    0.5880 C   0  0  0  0  0  0  0  0  0  0  0  0
   -3.7080    0.6750    0.4880 N   0  0  0  0  0  0  0  0  0  0  0  0
   -3.0210    1.0190   -0.7000 C   0  0  0  0  0  0  0  0  0  0  0  0
   -1.6040    1.4360   -0.5240 C   0  0  0  0  0  0  0  0  0  0  0  0
    0.4570   -1.4710   -1.1900 C   0  0  2  0  0  0  0  0  0  0  0  0
    0.8010   -2.7500   -0.7240 F   0  0  0  0  0  0  0  0  0  0  0  0
    0.8710   -1.4580   -2.5110 F   0  0  0  0  0  0  0  0  0  0  0  0
   -0.8870   -1.3040   -1.1040 F   0  0  0  0  0  0  0  0  0  0  0  0
  1  2  1  0
  2  3  1  0
  3  4  1  0
  4  5  2  3
  4 13  1  0
  5  6  1  0
  6  7  2  0
  6 12  1  0
  7  8  1  0
  8  9  1  6
  8 10  1  0
  9 10  1  0
 10 11  1  0
 11 12  1  0
 13 14  1  1
 13 15  1  0
 13 16  1  0
M  CHG  1   5   1
M  END
