
     RDKit          3D

 16 17  0  0  0  0  0  0  0  0999 V2000
   -3.2530   -0.4650    0.6190 C   0  0  0  0  0  0  0  0  0  0  0  0
   -2.0970    0.2370   -0.1060 C   0  0  1  0  0  0  0  0  0  0  0  0
   -2.7460    1.1870   -1.0920 C   0  0  2  0  0  0  0  0  0  0  0  0
   -3.5320    0.4740   -1.9760 F   0  0  0  0  0  0  0  0  0  0  0  0
   -1.8110    1.8660   -1.8490 F   0  0  0  0  0  0  0  0  0  0  0  0
   -3.5190    2.1140   -0.4580 F   0  0  0  0  0  0  0  0  0  0  0  0
   -1.2380    0.9640    0.8830 C   0  0  0  0  0  0  0  0  0  0  0  0
   -0.0470    0.1610    1.3630 C   0  0  0  0  0  0  0  0  0  0  0  0
    0.7540   -0.1320    0.2040 N   0  0  0  0  0  0  0  0  0  0  0  0
    2.1610   -0.1830    0.2730 C   0  0  0  0  0  0  0  0  0  0  0  0
    2.9870    0.4290   -0.5400 N   0  0  0  0  0  0  0  0  0  0  0  0
    4.3460    0.1650   -0.1870 C   0  0  0  0  0  0  0  0  0  0  0  0
    4.2600   -0.6930    0.9550 N   0  0  0  0  0  0  0  0  0  0  0  0
    3.0190   -0.8960    1.2230 C   0  0  0  0  0  0  0  0  0  0  0  0
    0.0940   -0.3780   -1.0530 C   0  0  0  0  0  0  0  0  0  0  0  0
   -1.3190   -0.8480   -0.8040 C   0  0  0  0  0  0  0  0  0  0  0  0
  2  1  1  1
  2  3  1  0
  2  7  1  0
  2 16  1  0
  3  4  1  6
  3  5  1  0
  3  6  1  0
  7  8  1  0
  8  9  1  0
  9 10  1  0
  9 15  1  0
 10 11  2  0
 10 14  1  0
 11 12  1  0
 12 13  1  0
 13 14  2  0
 15 16  1  0
M  CHG  1  13   1
M  END
