
     RDKit          3D

 16 17  0  0  0  0  0  0  0  0999 V2000
    5.6870   -1.0870    0.3420 F   0  0  0  0  0  0  0  0  0  0  0  0
    4.3950   -0.7470    0.6920 C   0  0  1  0  0  0  0  0  0  0  0  0
    3.9990   -1.6000    1.6940 F   0  0  0  0  0  0  0  0  0  0  0  0
    4.3940    0.5490    1.1670 F   0  0  0  0  0  0  0  0  0  0  0  0
    3.5500   -0.8780   -0.5560 C   0  0  0  0  0  0  0  0  0  0  0  0
    2.1210   -0.5270   -0.2750 C   0  0  0  0  0  0  0  0  0  0  0  0
    1.5600    0.4490   -0.9140 C   0  0  0  0  0  0  0  0  0  0  0  0
    0.1980    0.9430   -0.7880 C   0  0  0  0  0  0  0  0  0  0  0  0
   -0.2720    1.9990   -1.5570 N   0  0  0  0  0  0  0  0  0  0  0  0
   -1.5340    2.2240   -1.2270 C   0  0  0  0  0  0  0  0  0  0  0  0
   -1.8570    1.3200   -0.2580 C   0  0  0  0  0  0  0  0  0  0  0  0
   -0.7640    0.5120    0.0190 N   0  0  0  0  0  0  0  0  0  0  0  0
   -1.0330   -0.4660    1.0380 C   0  0  0  0  0  0  0  0  0  0  0  0
   -2.2570   -1.2540    0.5100 C   0  0  0  0  0  0  0  0  0  0  0  0
   -3.3990   -0.3720    0.5860 N   0  0  0  0  0  0  0  0  0  0  0  0
   -3.0680    1.0270    0.5230 C   0  0  0  0  0  0  0  0  0  0  0  0
  2  1  1  6
  2  3  1  0
  2  4  1  0
  2  5  1  0
  5  6  1  0
  6  7  2  3
  7  8  1  0
  8  9  2  0
  8 12  1  0
  9 10  1  0
 10 11  2  0
 11 12  1  0
 11 16  1  0
 12 13  1  0
 13 14  1  0
 14 15  1  0
 15 16  1  0
M  CHG  1  15   1
M  END
