
     RDKit          3D

 27 28  0  0  0  0  0  0  0  0999 V2000
   -5.6810   -2.9430    1.6940 C   0  0  0  0  0  0  0  0  0  0  0  0
   -4.8830   -2.1010    1.0340 C   0  0  0  0  0  0  0  0  0  0  0  0
   -5.2800   -1.4450   -0.2000 C   0  0  0  0  0  0  0  0  0  0  0  0
   -4.0620   -0.5980   -0.5350 C   0  0  0  0  0  0  0  0  0  0  0  0
   -4.0460    0.2560   -1.7150 C   0  0  1  0  0  0  0  0  0  0  0  0
   -5.3270    0.8940   -1.7490 F   0  0  0  0  0  0  0  0  0  0  0  0
   -3.2460    1.3690   -1.6660 F   0  0  0  0  0  0  0  0  0  0  0  0
   -4.0310   -0.4040   -2.9260 F   0  0  0  0  0  0  0  0  0  0  0  0
   -3.1250   -0.7720    0.3630 C   0  0  0  0  0  0  0  0  0  0  0  0
   -1.7920   -0.2080    0.4950 C   0  0  2  0  0  0  0  0  0  0  0  0
   -1.6560    0.8590    1.5760 C   0  0  0  0  0  0  0  0  0  0  0  0
   -2.5300    2.0420    1.3770 C   0  0  0  0  0  0  0  0  0  0  0  0
   -2.2700    2.9090    2.4650 O   0  0  0  0  0  0  0  0  0  0  0  0
   -1.0240    0.0910   -0.6370 N   0  0  0  0  0  0  0  0  0  0  0  0
    0.4020   -0.3560   -0.4880 C   0  0  0  0  0  0  0  0  0  0  0  0
    1.0800    0.2000   -1.7160 C   0  0  2  0  0  0  0  0  0  0  0  0
    0.3950   -0.3850   -2.8120 O   0  0  0  0  0  0  0  0  0  0  0  0
    2.5050   -0.2130   -1.8590 C   0  0  0  0  0  0  0  0  0  0  0  0
    3.3470    0.2980   -0.8370 N   0  0  0  0  0  0  0  0  0  0  0  0
    3.9790    1.5670   -0.9790 C   0  0  0  0  0  0  0  0  0  0  0  0
    4.1280    2.1170   -2.1130 O   0  0  0  0  0  0  0  0  0  0  0  0
    4.4610    2.2280    0.2620 C   0  0  0  0  0  0  0  0  0  0  0  0
    5.3120    1.2770    1.0360 C   0  0  0  0  0  0  0  0  0  0  0  0
    5.1000   -0.1680    0.6700 C   0  0  0  0  0  0  0  0  0  0  0  0
    3.6120   -0.4470    0.3710 C   0  0  2  0  0  0  0  0  0  0  0  0
    3.4710   -1.9430    0.2000 C   0  0  0  0  0  0  0  0  0  0  0  0
   -3.6230   -1.6900    1.3240 O   0  0  0  0  0  0  0  0  0  0  0  0
  1  2  2  0
  2  3  1  0
  2 27  1  0
  3  4  1  0
  4  5  1  0
  4  9  2  0
  5  6  1  6
  5  7  1  0
  5  8  1  0
  9 10  1  0
  9 27  1  0
 10 11  1  6
 10 14  1  0
 11 12  1  0
 12 13  1  0
 14 15  1  0
 15 16  1  0
 16 17  1  6
 16 18  1  0
 18 19  1  0
 19 20  1  0
 19 25  1  0
 20 21  2  0
 20 22  1  0
 22 23  1  0
 23 24  1  0
 24 25  1  0
 25 26  1  6
M  CHG  1  14   1
M  END
