
     RDKit          3D

 26 26  0  0  0  0  0  0  0  0999 V2000
   -5.1120   -2.0550   -1.4390 C   0  0  0  0  0  0  0  0  0  0  0  0
   -4.6200   -1.8280   -0.0300 C   0  0  0  0  0  0  0  0  0  0  0  0
   -3.6010   -0.7170   -0.0270 N   0  0  0  0  0  0  0  0  0  0  0  0
   -4.1740    0.5510    0.1900 C   0  0  0  0  0  0  0  0  0  0  0  0
   -4.3650    0.9720    1.6190 C   0  0  2  0  0  0  0  0  0  0  0  0
   -4.9120    2.2560    1.6200 O   0  0  0  0  0  0  0  0  0  0  0  0
   -3.1150    0.9170    2.3970 C   0  0  2  0  0  0  0  0  0  0  0  0
   -2.5750   -0.3580    2.4300 F   0  0  0  0  0  0  0  0  0  0  0  0
   -3.4640    1.2560    3.7230 F   0  0  0  0  0  0  0  0  0  0  0  0
   -2.3140   -1.1040   -0.2060 C   0  0  0  0  0  0  0  0  0  0  0  0
   -2.1690   -2.4310   -0.3270 O   0  0  0  0  0  0  0  0  0  0  0  0
   -1.0130   -0.4700   -0.3070 C   0  0  0  0  0  0  0  0  0  0  0  0
   -0.8260    0.8330   -0.2330 C   0  0  0  0  0  0  0  0  0  0  0  0
    0.3860    1.4810   -0.3230 O   0  0  0  0  0  0  0  0  0  0  0  0
    1.2650    1.6690   -1.3570 C   0  0  0  0  0  0  0  0  0  0  0  0
    2.4270    2.5600   -1.0450 C   0  0  2  0  0  0  0  0  0  0  0  0
    3.4640    2.3680   -2.1280 C   0  0  0  0  0  0  0  0  0  0  0  0
    2.9360    2.5400    0.3280 C   0  0  0  0  0  0  0  0  0  0  0  0
    3.3470    1.6120    1.1360 C   0  0  0  0  0  0  0  0  0  0  0  0
    3.5290    0.1850    1.1580 C   0  0  0  0  0  0  0  0  0  0  0  0
    3.6240   -0.6510   -0.0350 C   0  0  1  0  0  0  0  0  0  0  0  0
    4.8880   -1.5640    0.0100 C   0  0  0  0  0  0  0  0  0  0  0  0
    4.8450   -2.3920    1.1060 O   0  0  0  0  0  0  0  0  0  0  0  0
    2.4690   -1.6280   -0.1670 C   0  0  0  0  0  0  0  0  0  0  0  0
    1.2360   -1.1960    0.4140 N   0  0  0  0  0  0  0  0  0  0  0  0
    0.1630   -1.3980   -0.5080 C   0  0  0  0  0  0  0  0  0  0  0  0
  1  2  1  0
  2  3  1  0
  3  4  1  0
  3 10  1  0
  4  5  1  0
  5  6  1  6
  5  7  1  0
  7  8  1  1
  7  9  1  0
 10 11  2  0
 10 12  1  0
 12 13  2  0
 12 26  1  0
 13 14  1  0
 14 15  1  0
 15 16  1  0
 16 17  1  6
 16 18  1  0
 18 19  2  0
 19 20  1  0
 20 21  1  0
 21 22  1  1
 21 24  1  0
 22 23  1  0
 24 25  1  0
 25 26  1  0
M  CHG  1  25   1
M  END
