
     RDKit          3D

 27 28  0  0  0  0  0  0  0  0999 V2000
    1.6980    2.7400   -2.9120 C   0  0  0  0  0  0  0  0  0  0  0  0
    0.4070    2.2830   -2.2480 C   0  0  0  0  0  0  0  0  0  0  0  0
    0.7560    1.1560   -1.3320 C   0  0  2  0  0  0  0  0  0  0  0  0
   -0.4300    0.5910   -0.5950 C   0  0  0  0  0  0  0  0  0  0  0  0
   -0.1590   -0.0850    0.6120 N   0  0  1  0  0  0  0  0  0  0  0  0
   -0.9030   -1.2730    0.8860 C   0  0  2  0  0  0  0  0  0  0  0  0
   -1.2590   -2.1300   -0.2930 C   0  0  0  0  0  0  0  0  0  0  0  0
   -0.0510   -2.6390   -1.0510 C   0  0  0  0  0  0  0  0  0  0  0  0
   -0.4660   -3.4280   -2.1440 O   0  0  0  0  0  0  0  0  0  0  0  0
   -2.1620   -1.0900    1.6780 C   0  0  1  0  0  0  0  0  0  0  0  0
   -1.9940   -0.5130    2.9780 N   0  0  0  0  0  0  0  0  0  0  0  0
   -3.2080   -0.4370    0.8570 C   0  0  0  0  0  0  0  0  0  0  0  0
   -4.1470   -1.0440    0.0420 C   0  0  0  0  0  0  0  0  0  0  0  0
   -4.9020   -0.0360   -0.5130 C   0  0  0  0  0  0  0  0  0  0  0  0
   -4.4010    1.1370   -0.0220 C   0  0  0  0  0  0  0  0  0  0  0  0
   -4.8290    2.5440   -0.2810 C   0  0  0  0  0  0  0  0  0  0  0  0
   -3.4110    0.8330    0.7740 O   0  0  0  0  0  0  0  0  0  0  0  0
    1.2370   -0.3610    0.8930 C   0  0  0  0  0  0  0  0  0  0  0  0
    2.2330    0.3690    0.0890 C   0  0  2  0  0  0  0  0  0  0  0  0
    3.5220    0.6700    0.8010 C   0  0  0  0  0  0  0  0  0  0  0  0
    4.1480   -0.6530    1.2190 C   0  0  1  0  0  0  0  0  0  0  0  0
    4.4010   -1.4420    0.1070 O   0  0  0  0  0  0  0  0  0  0  0  0
    5.3580   -0.4520    2.0910 C   0  0  2  0  0  0  0  0  0  0  0  0
    5.8520   -1.6890    2.4160 F   0  0  0  0  0  0  0  0  0  0  0  0
    4.9210    0.2270    3.2280 F   0  0  0  0  0  0  0  0  0  0  0  0
    6.2710    0.3310    1.4300 F   0  0  0  0  0  0  0  0  0  0  0  0
    1.6910    1.5690   -0.3620 O   0  0  0  0  0  0  0  0  0  0  0  0
  1  2  1  0
  3  2  1  1
  3  4  1  0
  3 27  1  0
  5  4  1  6
  5  6  1  0
  5 18  1  0
  6  7  1  6
  6 10  1  0
  7  8  1  0
  8  9  1  0
 10 11  1  1
 10 12  1  0
 12 13  2  0
 12 17  1  0
 13 14  1  0
 14 15  2  0
 15 16  1  0
 15 17  1  0
 18 19  1  0
 19 20  1  1
 19 27  1  0
 20 21  1  0
 21 22  1  6
 21 23  1  0
 23 24  1  1
 23 25  1  0
 23 26  1  0
M  CHG  1   5   1
M  END
