
     RDKit          3D

 28 28  0  0  0  0  0  0  0  0999 V2000
   -7.5140   -0.5340   -0.8260 C   0  0  0  0  0  0  0  0  0  0  0  0
   -6.4100   -0.7270    0.1190 C   0  0  2  0  0  0  0  0  0  0  0  0
   -6.8880    0.0890    1.4070 C   0  0  0  0  0  0  0  0  0  0  0  0
   -5.0420   -0.3100   -0.0970 C   0  0  0  0  0  0  0  0  0  0  0  0
   -4.2080   -0.7510   -1.2120 C   0  0  2  0  0  0  0  0  0  0  0  0
   -2.8420   -0.2730   -1.0030 N   0  0  0  0  0  0  0  0  0  0  0  0
   -2.1240    0.7950   -1.4680 C   0  0  0  0  0  0  0  0  0  0  0  0
   -2.5980    1.6170   -2.2680 O   0  0  0  0  0  0  0  0  0  0  0  0
   -0.6630    1.0000   -0.9690 C   0  0  0  0  0  0  0  0  0  0  0  0
   -0.3870   -0.1710   -0.2230 N   0  0  0  0  0  0  0  0  0  0  0  0
    0.0670   -0.2880    1.3290 P   0  0  0  0  0  0  0  0  0  0  0  0
   -1.0320   -1.2010    2.3320 O   0  0  0  0  0  0  0  0  0  0  0  0
    1.1480    0.6810    2.1400 O   0  0  0  0  0  0  0  0  0  0  0  0
    1.1630   -1.5070    1.2640 C   0  0  0  0  0  0  0  0  0  0  0  0
    2.5860   -1.3010    1.2780 N   0  0  0  0  0  0  0  0  0  0  0  0
    3.2570   -0.3580    0.4240 C   0  0  0  0  0  0  0  0  0  0  0  0
    2.5220    0.3120   -0.3000 O   0  0  0  0  0  0  0  0  0  0  0  0
    4.5920   -0.1800    0.3760 O   0  0  0  0  0  0  0  0  0  0  0  0
    5.3460    0.7260   -0.3820 C   0  0  0  0  0  0  0  0  0  0  0  0
    6.7720    0.3440   -0.1490 C   0  0  0  0  0  0  0  0  0  0  0  0
    7.7430    0.4920   -1.1210 C   0  0  0  0  0  0  0  0  0  0  0  0
    9.0380    0.0640   -0.9410 C   0  0  0  0  0  0  0  0  0  0  0  0
    9.4290   -0.5340    0.2260 C   0  0  0  0  0  0  0  0  0  0  0  0
    8.4680   -0.6870    1.2230 C   0  0  0  0  0  0  0  0  0  0  0  0
    7.1750   -0.2560    1.0280 C   0  0  0  0  0  0  0  0  0  0  0  0
   -4.5730   -0.1390   -2.5310 C   0  0  0  0  0  0  0  0  0  0  0  0
   -3.7880   -0.1940   -3.5080 O   0  0  0  0  0  0  0  0  0  0  0  0
   -5.8010    0.4970   -2.6650 O   0  0  0  0  0  0  0  0  0  0  0  0
  2  1  1  6
  2  3  1  0
  2  4  1  0
  5  4  1  1
  5  6  1  0
  5 26  1  0
  6  7  1  0
  7  8  2  0
  7  9  1  0
  9 10  1  0
 10 11  1  0
 11 12  1  0
 11 13  1  0
 11 14  1  0
 14 15  1  0
 15 16  1  0
 16 17  2  0
 16 18  1  0
 18 19  1  0
 19 20  1  0
 20 21  2  0
 20 25  1  0
 21 22  1  0
 22 23  2  0
 23 24  1  0
 24 25  2  0
 26 27  2  0
 26 28  1  0
M  END
