
     RDKit          3D

 26 27  0  0  0  0  0  0  0  0999 V2000
   -2.8040   -2.3860    0.6100 C   0  0  0  0  0  0  0  0  0  0  0  0
   -2.3280   -1.5750    1.6120 O   0  0  0  0  0  0  0  0  0  0  0  0
   -1.1720   -1.0300    1.3700 O   0  0  0  0  0  0  0  0  0  0  0  0
   -1.2580    0.3850    1.4200 C   0  0  1  0  0  0  0  0  0  0  0  0
   -0.4680    0.7900    2.6630 C   0  0  0  0  0  0  0  0  0  0  0  0
   -1.1360    0.1400    3.8050 N   0  0  0  0  0  0  0  0  0  0  0  0
   -0.7490    0.9820    0.2370 N   0  0  0  0  0  0  0  0  0  0  0  0
    0.6860    0.6710   -0.1240 C   0  0  0  0  0  0  0  0  0  0  0  0
    0.7550   -0.5060   -0.9640 C   0  0  0  0  0  0  0  0  0  0  0  0
   -0.3790   -1.0530   -1.2490 O   0  0  0  0  0  0  0  0  0  0  0  0
    1.9290   -1.0940   -1.4860 C   0  0  0  0  0  0  0  0  0  0  0  0
    3.1560   -0.7150   -1.3300 C   0  0  0  0  0  0  0  0  0  0  0  0
    3.7870    0.3790   -0.6160 C   0  0  0  0  0  0  0  0  0  0  0  0
    4.9580   -0.3430    0.6760 P   0  0  0  0  0  0  0  0  0  0  0  0
    3.9920   -0.9170    2.0100 O   0  0  0  0  0  0  0  0  0  0  0  0
    5.9830    0.9160    1.2850 O   0  0  0  0  0  0  0  0  0  0  0  0
    1.7430   -2.3180   -2.3340 C   0  0  0  0  0  0  0  0  0  0  0  0
    0.9440   -3.2120   -2.8920 C   0  0  0  0  0  0  0  0  0  0  0  0
    2.3500   -3.3980   -3.1520 C   0  0  0  0  0  0  0  0  0  0  0  0
   -1.3940    1.8100   -0.6420 C   0  0  0  0  0  0  0  0  0  0  0  0
   -0.6540    2.2030   -1.6530 O   0  0  0  0  0  0  0  0  0  0  0  0
   -2.7380    2.3250   -0.6550 C   0  0  0  0  0  0  0  0  0  0  0  0
   -3.8270    2.2050    0.1470 C   0  0  0  0  0  0  0  0  0  0  0  0
   -4.8910    2.9570   -0.3850 C   0  0  0  0  0  0  0  0  0  0  0  0
   -4.3740    3.5070   -1.5110 C   0  0  0  0  0  0  0  0  0  0  0  0
   -3.1540    3.1430   -1.6570 O   0  0  0  0  0  0  0  0  0  0  0  0
  1  2  1  0
  2  3  1  0
  3  4  1  0
  4  5  1  1
  4  7  1  0
  5  6  1  0
  7  8  1  0
  7 20  1  0
  8  9  1  0
  9 10  2  0
  9 11  1  0
 11 12  2  3
 11 17  1  0
 12 13  1  0
 13 14  1  0
 14 15  1  0
 14 16  1  0
 17 18  2  0
 17 19  1  0
 18 19  1  0
 20 21  2  0
 20 22  1  0
 22 23  2  0
 22 26  1  0
 23 24  1  0
 24 25  2  0
 25 26  1  0
M  END
