
     RDKit          3D

 30 31  0  0  0  0  0  0  0  0999 V2000
   -2.8340   -5.8400    0.4170 C   0  0  0  0  0  0  0  0  0  0  0  0
   -2.6170   -4.4260    0.6900 C   0  0  0  0  0  0  0  0  0  0  0  0
   -1.2800   -3.9410    0.3840 O   0  0  0  0  0  0  0  0  0  0  0  0
   -1.6430   -2.2130    0.0120 P   0  0  0  0  0  0  0  0  0  0  0  0
   -2.9710   -2.4090   -0.9960 O   0  0  0  0  0  0  0  0  0  0  0  0
   -3.5190   -1.4540   -1.7380 C   0  0  0  0  0  0  0  0  0  0  0  0
   -4.9810   -1.3360   -1.1000 C   0  0  0  0  0  0  0  0  0  0  0  0
   -0.5080   -1.1880   -0.0260 O   0  0  0  0  0  0  0  0  0  0  0  0
   -0.6680    0.2270   -0.1370 C   0  0  2  0  0  0  0  0  0  0  0  0
   -1.5250    0.5230    0.9380 O   0  0  0  0  0  0  0  0  0  0  0  0
   -1.0020    0.7140   -1.2860 O   0  0  0  0  0  0  0  0  0  0  0  0
   -1.5570    2.3590   -1.4260 P   0  0  0  0  0  0  0  0  0  0  0  0
   -3.4470    2.3370   -1.3920 C   0  0  0  0  0  0  0  0  0  0  0  0
   -1.1390    3.3200   -0.0210 O   0  0  0  0  0  0  0  0  0  0  0  0
   -1.5920    4.6070   -0.3140 C   0  0  0  0  0  0  0  0  0  0  0  0
   -1.5290    5.5670    0.8940 C   0  0  0  0  0  0  0  0  0  0  0  0
   -2.0390    6.7900    0.4660 O   0  0  0  0  0  0  0  0  0  0  0  0
    0.7730    0.5430    0.3480 C   0  0  0  0  0  0  0  0  0  0  0  0
    0.8310    1.2100    1.5480 C   0  0  0  0  0  0  0  0  0  0  0  0
    2.0860    1.2840    2.1370 C   0  0  0  0  0  0  0  0  0  0  0  0
    3.1780    0.7190    1.5370 C   0  0  0  0  0  0  0  0  0  0  0  0
    3.1370    0.0510    0.3380 C   0  0  0  0  0  0  0  0  0  0  0  0
    1.8490   -0.0340   -0.2980 C   0  0  0  0  0  0  0  0  0  0  0  0
    1.7030   -0.6450   -1.4840 O   0  0  0  0  0  0  0  0  0  0  0  0
    4.2690   -0.6190   -0.2920 C   0  0  1  0  0  0  0  0  0  0  0  0
    3.9940   -2.0490   -0.7220 C   0  0  0  0  0  0  0  0  0  0  0  0
    4.6580    0.0840   -1.5150 N   0  0  0  0  0  0  0  0  0  0  0  0
    5.5230   -0.6160    0.5770 C   0  0  0  0  0  0  0  0  0  0  0  0
    5.1980   -0.5210    2.0470 C   0  0  0  0  0  0  0  0  0  0  0  0
    4.4600    0.7330    2.1830 N   0  0  0  0  0  0  0  0  0  0  0  0
  1  2  1  0
  2  3  1  0
  3  4  1  0
  4  5  1  0
  4  8  1  0
  5  6  1  0
  6  7  1  0
  8  9  1  0
  9 10  1  1
  9 11  1  0
  9 18  1  0
 11 12  1  0
 12 13  1  0
 12 14  1  0
 14 15  1  0
 15 16  1  0
 16 17  1  0
 18 19  2  0
 18 23  1  0
 19 20  1  0
 20 21  2  0
 21 22  1  0
 21 30  1  0
 22 23  2  0
 22 25  1  0
 23 24  1  0
 25 26  1  6
 25 27  1  0
 25 28  1  0
 28 29  1  0
 29 30  1  0
M  END
