
     RDKit          3D

 30 30  0  0  0  0  0  0  0  0999 V2000
   -0.5030   -2.4750    1.6440 C   0  0  0  0  0  0  0  0  0  0  0  0
    0.7690   -2.3890    0.9380 C   0  0  0  0  0  0  0  0  0  0  0  0
    1.6160   -3.3240    1.2460 O   0  0  0  0  0  0  0  0  0  0  0  0
    1.2120   -1.4530   -0.0220 N   0  0  0  0  0  0  0  0  0  0  0  0
    2.5740   -1.6970   -0.5350 C   0  0  0  0  0  0  0  0  0  0  0  0
    3.6720   -1.1330    0.2510 C   0  0  0  0  0  0  0  0  0  0  0  0
    3.7640    0.3300    0.4720 C   0  0  1  0  0  0  0  0  0  0  0  0
    2.6320    0.9830    1.1780 C   0  0  0  0  0  0  0  0  0  0  0  0
    5.0000    0.5050    1.2360 O   0  0  0  0  0  0  0  0  0  0  0  0
    6.0680    0.4220    0.3340 C   0  0  0  0  0  0  0  0  0  0  0  0
    7.3000    0.0520    0.6510 C   0  0  0  0  0  0  0  0  0  0  0  0
    8.3720   -0.0210   -0.3060 C   0  0  0  0  0  0  0  0  0  0  0  0
    8.2120    0.3390   -1.8950 P   0  0  0  0  0  0  0  0  0  0  0  0
    5.5530    0.7970   -0.8920 O   0  0  0  0  0  0  0  0  0  0  0  0
    4.1850    1.1050   -0.7390 C   0  0  0  0  0  0  0  0  0  0  0  0
    3.5510    1.8590   -1.4850 O   0  0  0  0  0  0  0  0  0  0  0  0
    0.4470   -0.4040   -0.5440 C   0  0  0  0  0  0  0  0  0  0  0  0
    0.9450    0.2820   -1.4960 O   0  0  0  0  0  0  0  0  0  0  0  0
   -0.8720   -0.0360   -0.0830 C   0  0  0  0  0  0  0  0  0  0  0  0
   -1.5010    1.0600   -0.9870 C   0  0  1  0  0  0  0  0  0  0  0  0
   -1.6140    0.4730   -2.3460 C   0  0  0  0  0  0  0  0  0  0  0  0
   -2.5560    1.6240   -0.3540 N   0  0  0  0  0  0  0  0  0  0  0  0
   -3.7580    1.1840    0.0890 C   0  0  2  0  0  0  0  0  0  0  0  0
   -3.8570    0.1530    1.1860 C   0  0  0  0  0  0  0  0  0  0  0  0
   -5.3110   -0.1600    1.5170 C   0  0  1  0  0  0  0  0  0  0  0  0
   -6.0780    1.0260    1.9800 C   0  0  0  0  0  0  0  0  0  0  0  0
   -5.9620   -0.7090    0.4130 O   0  0  0  0  0  0  0  0  0  0  0  0
   -5.0020    0.7920   -1.2670 P   0  0  0  0  0  0  0  0  0  0  0  0
   -4.9660    2.0300   -2.4830 O   0  0  0  0  0  0  0  0  0  0  0  0
   -4.6790   -0.7060   -2.0200 O   0  0  0  0  0  0  0  0  0  0  0  0
  1  2  1  0
  2  3  2  0
  2  4  1  0
  4  5  1  0
  4 17  1  0
  5  6  1  0
  6  7  1  0
  7  8  1  1
  7  9  1  0
  7 15  1  0
  9 10  1  0
 10 11  2  3
 10 14  1  0
 11 12  1  0
 12 13  2  0
 14 15  1  0
 15 16  2  0
 17 18  2  0
 17 19  1  0
 19 20  1  0
 20 21  1  6
 20 22  1  0
 22 23  1  0
 23 24  1  6
 23 28  1  0
 24 25  1  0
 25 26  1  6
 25 27  1  0
 28 29  1  0
 28 30  1  0
M  END
