
     RDKit          3D

 30 31  0  0  0  0  0  0  0  0999 V2000
   -4.8550   -2.5550   -0.5570 C   0  0  0  0  0  0  0  0  0  0  0  0
   -3.7400   -1.5290   -0.7010 C   0  0  0  0  0  0  0  0  0  0  0  0
   -3.4780   -0.7980    0.5680 C   0  0  1  0  0  0  0  0  0  0  0  0
   -3.0820   -1.7080    1.5430 O   0  0  0  0  0  0  0  0  0  0  0  0
   -2.5570    0.3580    0.3730 C   0  0  0  0  0  0  0  0  0  0  0  0
   -1.2330   -0.0440   -0.1640 C   0  0  2  0  0  0  0  0  0  0  0  0
   -1.2780   -0.6630   -1.4150 O   0  0  0  0  0  0  0  0  0  0  0  0
   -0.4700   -0.9370    0.7890 C   0  0  0  0  0  0  0  0  0  0  0  0
    0.8770   -1.0020    0.4120 O   0  0  0  0  0  0  0  0  0  0  0  0
    1.5180   -0.2180   -0.5230 C   0  0  0  0  0  0  0  0  0  0  0  0
    2.8550   -0.6230   -1.0420 C   0  0  0  0  0  0  0  0  0  0  0  0
    3.7830   -0.6810    0.1530 C   0  0  0  0  0  0  0  0  0  0  0  0
    5.1910   -1.0850   -0.2390 C   0  0  1  0  0  0  0  0  0  0  0  0
    5.6740   -0.1690   -1.1210 O   0  0  0  0  0  0  0  0  0  0  0  0
    6.9910   -0.2270   -1.4310 C   0  0  0  0  0  0  0  0  0  0  0  0
    7.8850   -0.8940   -0.4570 C   0  0  0  0  0  0  0  0  0  0  0  0
    7.3670   -0.8570    0.9140 N   0  0  0  0  0  0  0  0  0  0  0  0
    5.9770   -1.1280    1.0410 C   0  0  0  0  0  0  0  0  0  0  0  0
    5.4610   -1.3820    2.1400 O   0  0  0  0  0  0  0  0  0  0  0  0
    0.9270    0.8810   -0.9390 N   0  0  0  0  0  0  0  0  0  0  0  0
   -0.3460    1.1630   -0.3740 C   0  0  0  0  0  0  0  0  0  0  0  0
   -0.7340    2.3840   -0.0530 C   0  0  0  0  0  0  0  0  0  0  0  0
    0.1410    3.5250   -0.2660 C   0  0  0  0  0  0  0  0  0  0  0  0
   -0.2200    4.7490    0.0440 C   0  0  0  0  0  0  0  0  0  0  0  0
   -1.4670    5.0020    0.5940 O   0  0  0  0  0  0  0  0  0  0  0  0
    0.6260    5.8130   -0.1670 O   0  0  0  0  0  0  0  0  0  0  0  0
   -5.0890   -0.0730    1.2420 P   0  0  0  0  0  0  0  0  0  0  0  0
   -6.0240   -1.4620    2.6560 P   0  0  0  0  0  0  0  0  0  0  0  0
   -6.2270    0.3580   -0.1470 C   0  0  0  0  0  0  0  0  0  0  0  0
   -6.5090    1.7240   -0.0780 O   0  0  0  0  0  0  0  0  0  0  0  0
  1  2  1  0
  2  3  1  0
  3  4  1  1
  3  5  1  0
  3 27  1  0
  5  6  1  0
  6  7  1  6
  6  8  1  0
  6 21  1  0
  8  9  1  0
  9 10  1  0
 10 11  1  0
 10 20  2  0
 11 12  1  0
 13 12  1  1
 13 14  1  0
 13 18  1  0
 14 15  1  0
 15 16  1  0
 16 17  1  0
 17 18  1  0
 18 19  2  0
 20 21  1  0
 21 22  2  3
 22 23  1  0
 23 24  2  3
 24 25  1  0
 24 26  1  0
 27 28  1  0
 27 29  1  0
 29 30  1  0
M  END
