
     RDKit          3D

 30 30  0  0  0  0  0  0  0  0999 V2000
   -4.3500    2.4700    1.8250 C   0  0  0  0  0  0  0  0  0  0  0  0
   -4.0330    1.3300    0.8910 C   0  0  0  0  0  0  0  0  0  0  0  0
   -2.9610    0.6190    1.3620 O   0  0  0  0  0  0  0  0  0  0  0  0
   -2.5680   -0.6990    0.3360 P   0  0  0  0  0  0  0  0  0  0  0  0
   -3.6380   -2.0160    0.4430 O   0  0  0  0  0  0  0  0  0  0  0  0
   -4.7390   -2.0050   -0.3570 C   0  0  1  0  0  0  0  0  0  0  0  0
   -4.5660   -3.0050   -1.3580 O   0  0  0  0  0  0  0  0  0  0  0  0
   -6.0180   -2.3240    0.3520 C   0  0  0  0  0  0  0  0  0  0  0  0
   -6.8300   -3.4300    0.0220 N   0  0  0  0  0  0  0  0  0  0  0  0
   -6.4270   -1.5930    1.2960 O   0  0  0  0  0  0  0  0  0  0  0  0
   -0.8170   -1.1430    0.3630 C   0  0  0  0  0  0  0  0  0  0  0  0
    0.0860   -0.2050    0.5240 C   0  0  0  0  0  0  0  0  0  0  0  0
    1.5060   -0.4900    0.5570 C   0  0  0  0  0  0  0  0  0  0  0  0
    2.3850    0.4750    0.7260 C   0  0  0  0  0  0  0  0  0  0  0  0
    3.8060    0.2110    0.7600 C   0  0  0  0  0  0  0  0  0  0  0  0
    4.6570    1.1940    0.9340 C   0  0  0  0  0  0  0  0  0  0  0  0
    6.0970    0.9760    0.9740 C   0  0  0  0  0  0  0  0  0  0  0  0
    7.0190    1.8870    1.1440 C   0  0  0  0  0  0  0  0  0  0  0  0
    8.3320    1.2200    1.1150 C   0  0  0  0  0  0  0  0  0  0  0  0
    8.0180   -0.2050    0.9050 C   0  0  0  0  0  0  0  0  0  0  0  0
    6.7130   -0.3490    0.8220 C   0  0  0  0  0  0  0  0  0  0  0  0
   -0.3380    1.1120    0.6680 O   0  0  0  0  0  0  0  0  0  0  0  0
   -0.7750    1.9060   -0.3970 C   0  0  0  0  0  0  0  0  0  0  0  0
    0.2830    2.1070   -1.4780 C   0  0  0  0  0  0  0  0  0  0  0  0
   -0.3160    2.9520   -2.5210 N   0  0  0  0  0  0  0  0  0  0  0  0
   -1.3990    2.2320   -2.9560 O   0  0  0  0  0  0  0  0  0  0  0  0
    0.5660    3.1270   -3.5400 O   0  0  0  0  0  0  0  0  0  0  0  0
   -0.1980   -2.8540    0.1800 P   0  0  0  0  0  0  0  0  0  0  0  0
   -0.7310   -3.4810   -1.4880 C   0  0  0  0  0  0  0  0  0  0  0  0
   -0.9410   -3.8230    1.4130 O   0  0  0  0  0  0  0  0  0  0  0  0
  1  2  1  0
  2  3  1  0
  3  4  1  0
  4  5  1  0
  4 11  1  0
  5  6  1  0
  6  7  1  6
  6  8  1  0
  8  9  1  0
  8 10  2  0
 11 12  2  3
 11 28  1  0
 12 13  1  0
 12 22  1  0
 13 14  2  3
 14 15  1  0
 15 16  2  3
 16 17  1  0
 17 18  2  0
 17 21  1  0
 18 19  1  0
 19 20  1  0
 20 21  2  0
 22 23  1  0
 23 24  1  0
 24 25  1  0
 25 26  1  0
 25 27  1  0
 28 29  1  0
 28 30  1  0
M  END
