
     RDKit          3D

 30 31  0  0  0  0  0  0  0  0999 V2000
   -5.7400    3.6180    0.3460 O   0  0  0  0  0  0  0  0  0  0  0  0
   -4.7540    2.9790   -0.1590 C   0  0  0  0  0  0  0  0  0  0  0  0
   -4.9400    2.4960   -1.4270 O   0  0  0  0  0  0  0  0  0  0  0  0
   -3.5650    2.8370    0.6560 C   0  0  0  0  0  0  0  0  0  0  0  0
   -2.4830    2.1480    0.1690 O   0  0  0  0  0  0  0  0  0  0  0  0
   -2.3440    0.8520   -0.2420 C   0  0  0  0  0  0  0  0  0  0  0  0
   -2.5900    0.3730   -1.4680 N   0  0  0  0  0  0  0  0  0  0  0  0
   -2.3610   -0.9250   -1.5550 N   0  0  0  0  0  0  0  0  0  0  0  0
   -1.9320   -1.3740   -0.3300 C   0  0  0  0  0  0  0  0  0  0  0  0
   -1.9160   -0.2760    0.5020 C   0  0  0  0  0  0  0  0  0  0  0  0
   -1.5510   -0.2890    1.8660 N   0  0  0  0  0  0  0  0  0  0  0  0
   -0.4420   -0.8910    2.5040 C   0  0  0  0  0  0  0  0  0  0  0  0
   -0.6620   -1.7390    3.4430 O   0  0  0  0  0  0  0  0  0  0  0  0
    0.9810   -0.6440    2.2020 C   0  0  0  0  0  0  0  0  0  0  0  0
    1.2080    0.3390    1.2840 O   0  0  0  0  0  0  0  0  0  0  0  0
    2.1030   -0.1280    0.3270 C   0  0  2  0  0  0  0  0  0  0  0  0
    3.4580    0.5460    0.4400 C   0  0  0  0  0  0  0  0  0  0  0  0
    3.3360    1.9010    0.2700 O   0  0  0  0  0  0  0  0  0  0  0  0
    4.5260    2.4640    0.3730 O   0  0  0  0  0  0  0  0  0  0  0  0
    5.4720    1.5460    0.2750 O   0  0  0  0  0  0  0  0  0  0  0  0
    6.2890    1.9410   -0.6620 O   0  0  0  0  0  0  0  0  0  0  0  0
    1.5590   -0.0190   -1.0460 C   0  0  0  0  0  0  0  0  0  0  0  0
    1.8440    1.0070   -1.7070 O   0  0  0  0  0  0  0  0  0  0  0  0
    0.7840   -0.9940   -1.5570 O   0  0  0  0  0  0  0  0  0  0  0  0
    1.0090   -2.3510   -1.7450 C   0  0  0  0  0  0  0  0  0  0  0  0
    0.8770   -3.1750   -0.5190 C   0  0  0  0  0  0  0  0  0  0  0  0
    1.9180   -3.8300   -0.1540 O   0  0  0  0  0  0  0  0  0  0  0  0
   -0.3400   -3.2750    0.2660 C   0  0  0  0  0  0  0  0  0  0  0  0
   -0.2240   -3.9560    1.3520 O   0  0  0  0  0  0  0  0  0  0  0  0
   -1.6090   -2.7200   -0.0250 N   0  0  0  0  0  0  0  0  0  0  0  0
  1  2  2  0
  2  3  1  0
  2  4  1  0
  4  5  1  0
  5  6  1  0
  6  7  1  0
  6 10  2  0
  7  8  1  0
  8  9  2  0
  9 10  1  0
  9 30  1  0
 10 11  1  0
 11 12  1  0
 12 13  2  0
 12 14  1  0
 14 15  1  0
 15 16  1  0
 16 17  1  6
 16 22  1  0
 17 18  1  0
 18 19  1  0
 19 20  1  0
 20 21  1  0
 22 23  2  0
 22 24  1  0
 24 25  1  0
 25 26  1  0
 26 27  2  0
 26 28  1  0
 28 29  2  0
 28 30  1  0
M  END
