
     RDKit          3D

 30 31  0  0  0  0  0  0  0  0999 V2000
    6.5320    2.2240   -1.9670 C   0  0  0  0  0  0  0  0  0  0  0  0
    6.0180    0.9870   -1.2920 C   0  0  0  0  0  0  0  0  0  0  0  0
    4.6760    1.0900   -0.9390 O   0  0  0  0  0  0  0  0  0  0  0  0
    4.0770   -0.3150   -0.1670 P   0  0  0  0  0  0  0  0  0  0  0  0
    2.7510   -1.0470   -1.2080 C   0  0  0  0  0  0  0  0  0  0  0  0
    1.4860   -0.2840   -1.3180 C   0  0  0  0  0  0  0  0  0  0  0  0
    0.7740   -0.0980   -0.0410 C   0  0  1  0  0  0  0  0  0  0  0  0
    1.4320    0.6600    1.0480 C   0  0  0  0  0  0  0  0  0  0  0  0
    1.7560    1.9930    0.6460 N   0  0  0  0  0  0  0  0  0  0  0  0
    2.3630    2.7540    1.5430 O   0  0  0  0  0  0  0  0  0  0  0  0
   -0.6840    0.3200   -0.1760 C   0  0  2  0  0  0  0  0  0  0  0  0
   -1.3910   -0.7560   -0.9250 N   0  0  0  0  0  0  0  0  0  0  0  0
   -3.0850   -0.2460   -1.0650 P   0  0  0  0  0  0  0  0  0  0  0  0
   -4.2260   -0.5740    0.0920 C   0  0  0  0  0  0  0  0  0  0  0  0
   -4.0270   -1.2940    1.3390 C   0  0  0  0  0  0  0  0  0  0  0  0
   -2.9440   -1.7940    1.7490 O   0  0  0  0  0  0  0  0  0  0  0  0
   -5.2690   -1.3080    1.9620 O   0  0  0  0  0  0  0  0  0  0  0  0
   -6.2190   -0.6490    1.1910 C   0  0  0  0  0  0  0  0  0  0  0  0
   -5.6550   -0.2000    0.0840 C   0  0  0  0  0  0  0  0  0  0  0  0
   -6.3940    0.5360   -0.9360 C   0  0  0  0  0  0  0  0  0  0  0  0
   -7.8290    0.7630   -0.6630 C   0  0  0  0  0  0  0  0  0  0  0  0
   -8.3640    0.2260    0.5930 C   0  0  0  0  0  0  0  0  0  0  0  0
   -7.6280   -0.4250    1.4510 C   0  0  0  0  0  0  0  0  0  0  0  0
   -8.2470   -0.8930    2.6200 O   0  0  0  0  0  0  0  0  0  0  0  0
   -0.8950    1.5970   -0.8650 C   0  0  0  0  0  0  0  0  0  0  0  0
   -1.5350    1.5940   -1.9630 O   0  0  0  0  0  0  0  0  0  0  0  0
   -0.4560    2.8070   -0.4130 O   0  0  0  0  0  0  0  0  0  0  0  0
    5.2920   -1.4680    0.1940 O   0  0  0  0  0  0  0  0  0  0  0  0
    4.8450   -2.3180    1.1810 C   0  0  0  0  0  0  0  0  0  0  0  0
    5.9770   -3.3160    1.4520 C   0  0  0  0  0  0  0  0  0  0  0  0
  1  2  1  0
  2  3  1  0
  3  4  1  0
  4  5  1  0
  4 28  1  0
  5  6  1  0
  7  6  1  6
  7  8  1  0
  7 11  1  0
  8  9  1  0
  9 10  1  0
 11 12  1  6
 11 25  1  0
 12 13  1  0
 13 14  2  3
 14 15  1  0
 14 19  1  0
 15 16  2  0
 15 17  1  0
 17 18  1  0
 18 19  2  0
 18 23  1  0
 19 20  1  0
 20 21  1  0
 21 22  1  0
 22 23  2  0
 23 24  1  0
 25 26  2  0
 25 27  1  0
 28 29  1  0
 29 30  1  0
M  END
