
     RDKit          3D

 11 11  0  0  0  0  0  0  0  0999 V2000
   -3.1810    0.7570    0.4790 O   0  0  0  0  0  0  0  0  0  0  0  0
   -2.3850    0.4450   -0.6180 C   0  0  0  0  0  0  0  0  0  0  0  0
   -1.0540   -0.1240   -0.1680 C   0  0  1  0  0  0  0  0  0  0  0  0
   -0.2090   -0.4560   -1.2930 N   0  0  0  0  0  0  0  0  0  0  0  0
    0.8520   -1.3200   -0.7720 C   0  0  0  0  0  0  0  0  0  0  0  0
    1.6630   -0.6400    0.2870 C   0  0  1  0  0  0  0  0  0  0  0  0
    3.0050   -0.5060   -0.0590 O   0  0  0  0  0  0  0  0  0  0  0  0
    1.1500    0.7230    0.6620 C   0  0  1  0  0  0  0  0  0  0  0  0
    1.5880    1.6820   -0.2480 O   0  0  0  0  0  0  0  0  0  0  0  0
   -0.3540    0.7570    0.8070 C   0  0  2  0  0  0  0  0  0  0  0  0
   -0.7250    0.4010    2.0950 O   0  0  0  0  0  0  0  0  0  0  0  0
  1  2  1  0
  3  2  1  6
  3  4  1  0
  3 10  1  0
  4  5  1  0
  5  6  1  0
  6  7  1  6
  6  8  1  0
  8  9  1  6
  8 10  1  0
 10 11  1  1
M  CHG  1   4   1
M  END
