
     RDKit          3D

 10 10  0  0  0  0  0  0  0  0999 V2000
   -2.1340   -1.4080   -1.0910 N   0  0  0  0  0  0  0  0  0  0  0  0
   -0.9390   -0.8900   -0.4900 C   0  0  1  0  0  0  0  0  0  0  0  0
   -0.2550    0.1620   -1.3450 C   0  0  0  0  0  0  0  0  0  0  0  0
    0.7030    0.7750   -0.3310 C   0  0  2  0  0  0  0  0  0  0  0  0
    1.6500   -0.1540    0.0870 O   0  0  0  0  0  0  0  0  0  0  0  0
    2.9260    0.4070   -0.0370 C   0  0  0  0  0  0  0  0  0  0  0  0
    3.8930   -0.4950    0.3730 O   0  0  0  0  0  0  0  0  0  0  0  0
   -0.2580    1.0230    0.8370 C   0  0  0  0  0  0  0  0  0  0  0  0
   -1.2720   -0.0860    0.7570 C   0  0  1  0  0  0  0  0  0  0  0  0
   -2.5620    0.3970    0.5900 O   0  0  0  0  0  0  0  0  0  0  0  0
  2  1  1  6
  2  3  1  0
  2  9  1  0
  3  4  1  0
  4  5  1  1
  4  8  1  0
  5  6  1  0
  6  7  1  0
  8  9  1  0
  9 10  1  6
M  CHG  1   1   1
M  END
