
     RDKit          3D

 10 10  0  0  0  0  0  0  0  0999 V2000
   -2.3990   -1.2120   -0.3340 N   0  0  0  0  0  0  0  0  0  0  0  0
   -1.4030   -0.1810   -0.4670 C   0  0  1  0  0  0  0  0  0  0  0  0
   -1.5870    0.8890    0.5670 C   0  0  0  0  0  0  0  0  0  0  0  0
   -0.5540    1.7780    0.6240 O   0  0  0  0  0  0  0  0  0  0  0  0
    0.6910    1.2420    0.7770 C   0  0  0  0  0  0  0  0  0  0  0  0
    0.9730    0.2700   -0.3590 C   0  0  1  0  0  0  0  0  0  0  0  0
    0.7930    0.9460   -1.5630 O   0  0  0  0  0  0  0  0  0  0  0  0
    2.3620   -0.3120   -0.2620 C   0  0  0  0  0  0  0  0  0  0  0  0
    2.5070   -0.9800    0.9520 O   0  0  0  0  0  0  0  0  0  0  0  0
   -0.0530   -0.8370   -0.2170 C   0  0  0  0  0  0  0  0  0  0  0  0
  2  1  1  1
  2  3  1  0
  2 10  1  0
  3  4  1  0
  4  5  1  0
  5  6  1  0
  6  7  1  6
  6  8  1  0
  6 10  1  0
  8  9  1  0
M  CHG  1   1   1
M  END
