
     RDKit          3D

 10 10  0  0  0  0  0  0  0  0999 V2000
    2.7680    0.2980    0.5170 N   0  0  0  0  0  0  0  0  0  0  0  0
    1.9420   -0.4410   -0.3870 C   0  0  0  0  0  0  0  0  0  0  0  0
    0.4760   -0.4230   -0.0190 C   0  0  2  0  0  0  0  0  0  0  0  0
   -0.1980   -1.1700   -0.9710 O   0  0  0  0  0  0  0  0  0  0  0  0
   -1.5520   -1.2920   -0.7240 C   0  0  1  0  0  0  0  0  0  0  0  0
   -1.8190   -2.1310    0.3660 O   0  0  0  0  0  0  0  0  0  0  0  0
   -2.2580    0.0010   -0.5110 C   0  0  0  0  0  0  0  0  0  0  0  0
   -1.5090    0.8590    0.4780 C   0  0  0  0  0  0  0  0  0  0  0  0
   -0.0850    0.9830   -0.0730 C   0  0  1  0  0  0  0  0  0  0  0  0
    0.6110    1.8650    0.7410 O   0  0  0  0  0  0  0  0  0  0  0  0
  1  2  1  0
  3  2  1  6
  3  4  1  0
  3  9  1  0
  4  5  1  0
  5  6  1  1
  5  7  1  0
  7  8  1  0
  8  9  1  0
  9 10  1  1
M  CHG  1   1   1
M  END
