
     RDKit          3D

 10 10  0  0  0  0  0  0  0  0999 V2000
    0.4770   -0.1570    1.6450 N   0  0  0  0  0  0  0  0  0  0  0  0
   -0.0440   -0.3630    0.3110 C   0  0  1  0  0  0  0  0  0  0  0  0
    0.9450   -1.0340   -0.5920 C   0  0  0  0  0  0  0  0  0  0  0  0
    2.1820   -0.2010   -0.7130 C   0  0  0  0  0  0  0  0  0  0  0  0
    1.9120    1.0570   -1.2380 O   0  0  0  0  0  0  0  0  0  0  0  0
   -1.3260   -1.1460    0.4440 C   0  0  0  0  0  0  0  0  0  0  0  0
   -2.3690   -0.2670    0.5070 O   0  0  0  0  0  0  0  0  0  0  0  0
   -1.9530    0.9910    0.1820 C   0  0  2  0  0  0  0  0  0  0  0  0
   -2.8260    1.5690   -0.7170 O   0  0  0  0  0  0  0  0  0  0  0  0
   -0.5340    0.9140   -0.3260 C   0  0  0  0  0  0  0  0  0  0  0  0
  2  1  1  1
  2  3  1  0
  2  6  1  0
  2 10  1  0
  3  4  1  0
  4  5  1  0
  6  7  1  0
  7  8  1  0
  8  9  1  6
  8 10  1  0
M  CHG  1   1   1
M  END
