
     RDKit          3D

 10 10  0  0  0  0  0  0  0  0999 V2000
    2.3180    0.4420    0.5400 N   0  0  0  0  0  0  0  0  0  0  0  0
    1.6880   -0.4500   -0.4040 C   0  0  0  0  0  0  0  0  0  0  0  0
    0.3080    0.0870   -0.7150 C   0  0  1  0  0  0  0  0  0  0  0  0
   -0.4290   -0.7840   -1.6980 C   0  0  0  0  0  0  0  0  0  0  0  0
   -1.2300   -1.6430   -1.0080 O   0  0  0  0  0  0  0  0  0  0  0  0
   -1.0840   -1.4450    0.3380 C   0  0  0  0  0  0  0  0  0  0  0  0
   -0.5960   -0.0280    0.5020 C   0  0  1  0  0  0  0  0  0  0  0  0
    0.0760    0.1220    1.6840 O   0  0  0  0  0  0  0  0  0  0  0  0
   -1.7090    0.9820    0.3400 C   0  0  0  0  0  0  0  0  0  0  0  0
   -1.1400    2.2540    0.3770 O   0  0  0  0  0  0  0  0  0  0  0  0
  1  2  1  0
  3  2  1  1
  3  4  1  0
  3  7  1  0
  4  5  1  0
  5  6  1  0
  6  7  1  0
  7  8  1  1
  7  9  1  0
  9 10  1  0
M  CHG  1   1   1
M  END
