
     RDKit          3D

 27 29  0  0  0  0  0  0  0  0999 V2000
    6.8230   -0.2490   -0.6710 N   0  0  0  0  0  0  0  0  0  0  0  0
    5.5490   -0.2480   -0.0610 C   0  0  0  0  0  0  0  0  0  0  0  0
    5.3760   -0.1990    1.2870 N   0  0  0  0  0  0  0  0  0  0  0  0
    4.1370   -0.2010    1.8220 C   0  0  0  0  0  0  0  0  0  0  0  0
    3.0270   -0.2500    1.0520 N   0  0  0  0  0  0  0  0  0  0  0  0
    3.1300   -0.2990   -0.2760 C   0  0  0  0  0  0  0  0  0  0  0  0
    4.4000   -0.2970   -0.8260 C   0  0  0  0  0  0  0  0  0  0  0  0
    4.2700   -0.3510   -2.1640 N   0  0  0  0  0  0  0  0  0  0  0  0
    2.9720   -0.3840   -2.4200 C   0  0  0  0  0  0  0  0  0  0  0  0
    2.2450   -0.3530   -1.2720 N   0  0  0  0  0  0  0  0  0  0  0  0
    0.8200   -0.3750   -1.2090 C   0  0  2  0  0  0  0  0  0  0  0  0
    0.2700    0.6700   -0.4770 O   0  0  0  0  0  0  0  0  0  0  0  0
   -1.0830    0.3310   -0.5020 C   0  0  2  0  0  0  0  0  0  0  0  0
   -1.9080    1.2480    0.3640 C   0  0  0  0  0  0  0  0  0  0  0  0
   -1.7800    2.5420   -0.0840 O   0  0  0  0  0  0  0  0  0  0  0  0
   -2.7180    3.5110    0.9280 P   0  0  0  0  0  0  0  0  0  0  0  0
   -3.8530    2.8500    1.8440 O   0  0  0  0  0  0  0  0  0  0  0  0
   -2.3170    5.1210    1.1010 O   0  0  0  0  0  0  0  0  0  0  0  0
   -3.6150    3.8420   -0.2640 O   0  0  0  0  0  0  0  0  0  0  0  0
   -1.0530   -1.0860    0.0530 C   0  0  1  0  0  0  0  0  0  0  0  0
   -2.1150   -1.7630   -0.4620 O   0  0  0  0  0  0  0  0  0  0  0  0
   -3.2210   -2.3610    0.5790 P   0  0  0  0  0  0  0  0  0  0  0  0
   -3.7150   -3.9950    0.4180 O   0  0  0  0  0  0  0  0  0  0  0  0
   -3.7730   -1.5540    1.8670 O   0  0  0  0  0  0  0  0  0  0  0  0
   -4.3970   -1.9700   -0.3160 O   0  0  0  0  0  0  0  0  0  0  0  0
    0.2720   -1.5870   -0.4880 C   0  0  1  0  0  0  0  0  0  0  0  0
    0.0460   -2.5690   -1.4610 O   0  0  0  0  0  0  0  0  0  0  0  0
  1  2  1  0
  2  3  2  0
  2  7  1  0
  3  4  1  0
  4  5  2  0
  5  6  1  0
  6  7  2  0
  6 10  1  0
  7  8  1  0
  8  9  2  0
  9 10  1  0
 11 10  1  1
 11 12  1  0
 11 26  1  0
 12 13  1  0
 13 14  1  1
 13 20  1  0
 14 15  1  0
 15 16  1  0
 16 17  1  0
 16 18  1  0
 16 19  1  0
 20 21  1  6
 20 26  1  0
 21 22  1  0
 22 23  1  0
 22 24  1  0
 22 25  1  0
 26 27  1  6
M  END
