
     RDKit          3D

 21 21  0  0  0  0  0  0  0  0999 V2000
    2.9080    0.0290   -1.2880 O   0  0  0  0  0  0  0  0  0  0  0  0
    3.0350    0.4960   -0.1500 C   0  0  0  0  0  0  0  0  0  0  0  0
    1.9070    0.7450    0.6090 O   0  0  0  0  0  0  0  0  0  0  0  0
    0.6360    0.4380    0.0080 C   0  0  0  0  0  0  0  0  0  0  0  0
    0.6960   -0.9230   -0.2590 O   0  0  0  0  0  0  0  0  0  0  0  0
   -0.3460   -1.4410   -0.8100 O   0  0  0  0  0  0  0  0  0  0  0  0
   -1.4870   -0.7900   -0.3560 C   0  0  0  0  0  0  0  0  0  0  0  0
   -2.6020   -1.3770   -0.9600 O   0  0  0  0  0  0  0  0  0  0  0  0
   -3.6540   -0.7360   -0.5060 O   0  0  0  0  0  0  0  0  0  0  0  0
   -4.6170   -1.6650   -0.1490 C   0  0  0  0  0  0  0  0  0  0  0  0
   -5.8380   -0.9390    0.3770 C   0  0  0  0  0  0  0  0  0  0  0  0
   -6.3500   -0.1000   -0.6010 O   0  0  0  0  0  0  0  0  0  0  0  0
   -7.3980    0.5380   -0.1810 O   0  0  0  0  0  0  0  0  0  0  0  0
   -7.2050    1.8540   -0.2580 O   0  0  0  0  0  0  0  0  0  0  0  0
    4.3230    0.7450    0.3040 O   0  0  0  0  0  0  0  0  0  0  0  0
    5.4640    0.4840   -0.4850 C   0  0  1  0  0  0  0  0  0  0  0  0
    6.3460    1.7330   -0.5900 C   0  0  0  0  0  0  0  0  0  0  0  0
    7.6390    1.2280   -0.3550 O   0  0  0  0  0  0  0  0  0  0  0  0
    7.4780    0.3120    0.6070 O   0  0  0  0  0  0  0  0  0  0  0  0
    6.3520   -0.4090    0.2850 C   0  0  0  0  0  0  0  0  0  0  0  0
    6.1300   -1.5950    0.5920 O   0  0  0  0  0  0  0  0  0  0  0  0
  1  2  2  0
  2  3  1  0
  2 15  1  0
  3  4  1  0
  4  5  1  0
  5  6  1  0
  6  7  1  0
  7  8  1  0
  8  9  1  0
  9 10  1  0
 10 11  1  0
 11 12  1  0
 12 13  1  0
 13 14  1  0
 16 15  1  1
 16 17  1  0
 16 20  1  0
 17 18  1  0
 18 19  1  0
 19 20  1  0
 20 21  2  0
M  END
