
     RDKit          3D

 19 20  0  0  0  0  0  0  0  0999 V2000
   -1.0030   -2.7460   -0.0920 N   0  0  0  0  0  0  0  0  0  0  0  0
   -2.0460   -1.8350    0.3170 C   0  0  0  0  0  0  0  0  0  0  0  0
   -1.5430   -0.4220    0.1330 C   0  0  2  0  0  0  0  0  0  0  0  0
   -2.6790    0.5120    0.4930 C   0  0  0  0  0  0  0  0  0  0  0  0
   -3.7320    0.2030   -0.3680 O   0  0  0  0  0  0  0  0  0  0  0  0
   -5.1200    1.1850   -0.0910 P   0  0  0  0  0  0  0  0  0  0  0  0
   -4.8670    2.7860   -0.7010 O   0  0  0  0  0  0  0  0  0  0  0  0
   -5.6090    1.1920    1.5660 O   0  0  0  0  0  0  0  0  0  0  0  0
   -1.2090   -0.1740   -1.2300 O   0  0  0  0  0  0  0  0  0  0  0  0
    0.1550   -0.2620   -1.2990 N   0  0  0  0  0  0  0  0  0  0  0  0
    0.6740   -0.2580   -0.1200 C   0  0  0  0  0  0  0  0  0  0  0  0
    2.1260   -0.3410    0.1300 C   0  0  1  0  0  0  0  0  0  0  0  0
    2.8750   -0.4270   -1.1500 C   0  0  0  0  0  0  0  0  0  0  0  0
    3.8990    0.6630   -1.3650 C   0  0  0  0  0  0  0  0  0  0  0  0
    4.7390    0.6880   -0.1870 N   0  0  0  0  0  0  0  0  0  0  0  0
    4.0750    0.7110    1.0660 C   0  0  0  0  0  0  0  0  0  0  0  0
    4.6790    0.6820    2.1600 O   0  0  0  0  0  0  0  0  0  0  0  0
    2.5960    0.7710    1.0370 C   0  0  0  0  0  0  0  0  0  0  0  0
   -0.3630   -0.1650    0.8210 O   0  0  0  0  0  0  0  0  0  0  0  0
  1  2  1  0
  3  2  1  6
  3  4  1  0
  3  9  1  0
  3 19  1  0
  4  5  1  0
  5  6  1  0
  6  7  1  0
  6  8  1  0
  9 10  1  0
 10 11  2  0
 12 11  1  6
 11 19  1  0
 12 13  1  0
 12 18  1  0
 13 14  1  0
 14 15  1  0
 15 16  1  0
 16 17  2  0
 16 18  1  0
M  END
