
     RDKit          3D

 20 21  0  0  0  0  0  0  0  0999 V2000
   -0.1080   -2.1030   -0.6890 O   0  0  0  0  0  0  0  0  0  0  0  0
   -0.7440   -2.2600    0.3680 C   0  0  0  0  0  0  0  0  0  0  0  0
   -1.2830   -1.1650    1.0600 N   0  0  0  0  0  0  0  0  0  0  0  0
   -1.1880    0.2180    0.6780 C   0  0  2  0  0  0  0  0  0  0  0  0
   -1.9500    0.9920    1.7780 C   0  0  0  0  0  0  0  0  0  0  0  0
   -3.2950    0.5170    1.6960 O   0  0  0  0  0  0  0  0  0  0  0  0
   -3.9380    0.8230    0.4870 C   0  0  0  0  0  0  0  0  0  0  0  0
   -5.1650    1.0690    0.4740 O   0  0  0  0  0  0  0  0  0  0  0  0
   -3.1190    0.8340   -0.6950 C   0  0  0  0  0  0  0  0  0  0  0  0
   -1.8290    0.5540   -0.5960 C   0  0  0  0  0  0  0  0  0  0  0  0
   -1.0910    0.6600   -1.8190 N   0  0  0  0  0  0  0  0  0  0  0  0
    0.3350    0.7970   -1.7610 C   0  0  0  0  0  0  0  0  0  0  0  0
    1.0110    0.8960   -2.8080 O   0  0  0  0  0  0  0  0  0  0  0  0
    0.9960    0.8210   -0.5080 N   0  0  0  0  0  0  0  0  0  0  0  0
    2.4280    0.9590   -0.4150 C   0  0  0  0  0  0  0  0  0  0  0  0
    3.1250   -0.3850   -0.4250 C   0  0  0  0  0  0  0  0  0  0  0  0
    4.5030   -0.2470   -0.3350 O   0  0  0  0  0  0  0  0  0  0  0  0
    5.1300   -1.3840   -0.3410 O   0  0  0  0  0  0  0  0  0  0  0  0
    0.2150    0.7040    0.6710 C   0  0  0  0  0  0  0  0  0  0  0  0
    0.7330    1.0320    1.7890 O   0  0  0  0  0  0  0  0  0  0  0  0
  1  2  2  0
  2  3  1  0
  4  3  1  1
  4  5  1  0
  4 10  1  0
  4 19  1  0
  5  6  1  0
  6  7  1  0
  7  8  2  0
  7  9  1  0
  9 10  2  0
 10 11  1  0
 11 12  1  0
 12 13  2  0
 12 14  1  0
 14 15  1  0
 14 19  1  0
 15 16  1  0
 16 17  1  0
 17 18  1  0
 19 20  2  0
M  END
