
     RDKit          3D

 21 22  0  0  0  0  0  0  0  0999 V2000
   -5.3410   -0.8330    2.7190 O   0  0  0  0  0  0  0  0  0  0  0  0
   -4.9220   -0.8650    1.5340 C   0  0  0  0  0  0  0  0  0  0  0  0
   -5.6460   -0.7790    0.3510 O   0  0  0  0  0  0  0  0  0  0  0  0
   -4.7490   -0.7830   -0.7590 C   0  0  0  0  0  0  0  0  0  0  0  0
   -3.3800   -0.5840   -0.1230 C   0  0  1  0  0  0  0  0  0  0  0  0
   -3.1100    0.7840   -0.1380 O   0  0  0  0  0  0  0  0  0  0  0  0
   -1.9800    0.9630   -0.7870 O   0  0  0  0  0  0  0  0  0  0  0  0
   -1.1180    0.0470   -0.4080 O   0  0  0  0  0  0  0  0  0  0  0  0
    0.1510    0.4440   -0.8200 C   0  0  2  0  0  0  0  0  0  0  0  0
    0.6390   -0.5830   -1.8120 C   0  0  0  0  0  0  0  0  0  0  0  0
    1.9840   -0.3530   -2.1960 O   0  0  0  0  0  0  0  0  0  0  0  0
    3.0860   -0.1740   -1.3810 C   0  0  0  0  0  0  0  0  0  0  0  0
    4.1760    0.0320   -1.9400 O   0  0  0  0  0  0  0  0  0  0  0  0
    3.1120   -0.2020    0.1010 C   0  0  2  0  0  0  0  0  0  0  0  0
    4.0480   -1.1240    0.5620 O   0  0  0  0  0  0  0  0  0  0  0  0
    4.9680   -0.5670    1.3010 O   0  0  0  0  0  0  0  0  0  0  0  0
    4.4090    0.3060    2.1220 O   0  0  0  0  0  0  0  0  0  0  0  0
    5.2770    0.6180    3.0640 O   0  0  0  0  0  0  0  0  0  0  0  0
    1.8520   -0.4890    0.6220 O   0  0  0  0  0  0  0  0  0  0  0  0
    1.0390    0.5910    0.3750 C   0  0  0  0  0  0  0  0  0  0  0  0
   -3.5640   -1.0020    1.2190 O   0  0  0  0  0  0  0  0  0  0  0  0
  1  2  2  0
  2  3  1  0
  2 21  1  0
  3  4  1  0
  4  5  1  0
  5  6  1  1
  5 21  1  0
  6  7  1  0
  7  8  1  0
  9  8  1  1
  9 10  1  0
  9 20  1  0
 10 11  1  0
 11 12  1  0
 12 13  2  0
 12 14  1  0
 14 15  1  6
 14 19  1  0
 15 16  1  0
 16 17  1  0
 17 18  1  0
 19 20  1  0
M  END
