
     RDKit          3D

 33 36  0  0  0  0  0  0  0  0999 V2000
   -0.9030    0.5160   -3.4490 C   0  0  0  0  0  0  0  0  0  0  0  0
    0.0770    0.0360   -2.4260 C   0  0  0  0  0  0  0  0  0  0  0  0
    1.4290    0.2290   -2.6300 C   0  0  0  0  0  0  0  0  0  0  0  0
    2.3100   -0.2390   -1.6410 C   0  0  0  0  0  0  0  0  0  0  0  0
    1.9000   -0.8700   -0.4960 C   0  0  0  0  0  0  0  0  0  0  0  0
    2.7460   -1.3740    0.5220 N   0  0  0  0  0  0  0  0  0  0  0  0
    4.1440   -1.5140    0.4750 C   0  0  0  0  0  0  0  0  0  0  0  0
    4.7710   -1.1800   -0.5540 O   0  0  0  0  0  0  0  0  0  0  0  0
    4.9090   -2.0290    1.5670 N   0  0  0  0  0  0  0  0  0  0  0  0
    6.3580   -2.1600    1.4860 C   0  0  0  0  0  0  0  0  0  0  0  0
    6.9950   -0.8060    1.2430 C   0  0  0  0  0  0  0  0  0  0  0  0
    7.7130   -0.6610    0.1430 C   0  0  0  0  0  0  0  0  0  0  0  0
    8.4100    0.5800   -0.2660 C   0  0  0  0  0  0  0  0  0  0  0  0
    7.7470    1.7480    0.4260 C   0  0  0  0  0  0  0  0  0  0  0  0
    7.6650    1.4660    1.9290 C   0  0  0  0  0  0  0  0  0  0  0  0
    6.8020    0.2910    2.2180 C   0  0  0  0  0  0  0  0  0  0  0  0
    0.5080   -1.0240   -0.3700 C   0  0  0  0  0  0  0  0  0  0  0  0
   -0.3910   -0.5920   -1.2920 C   0  0  0  0  0  0  0  0  0  0  0  0
   -1.7980   -0.7570   -1.1480 N   0  0  0  0  0  0  0  0  0  0  0  0
   -2.4790   -0.1610   -0.2000 C   0  0  0  0  0  0  0  0  0  0  0  0
   -1.8110    0.6790    0.7210 N   0  0  0  0  0  0  0  0  0  0  0  0
   -2.8930    0.8290    2.0490 S   0  0  1  0  0  0  0  0  0  0  0  0
   -2.6580   -0.2330    3.0560 O   0  0  0  0  0  0  0  0  0  0  0  0
   -2.9420    2.1950    2.6080 O   0  0  0  0  0  0  0  0  0  0  0  0
   -4.3710    0.4760    1.0960 C   0  0  0  0  0  0  0  0  0  0  0  0
   -5.5650    0.8660    1.4290 C   0  0  0  0  0  0  0  0  0  0  0  0
   -6.7750    0.6420    0.7540 N   0  0  0  0  0  0  0  0  0  0  0  0
   -7.4720    1.4150   -0.2650 C   0  0  0  0  0  0  0  0  0  0  0  0
   -8.9120    1.4640    0.2380 C   0  0  0  0  0  0  0  0  0  0  0  0
   -9.0700    0.1100    0.8790 C   0  0  0  0  0  0  0  0  0  0  0  0
   -7.6720   -0.5000    0.9770 C   0  0  0  0  0  0  0  0  0  0  0  0
   -3.8540   -0.2720    0.0000 N   0  0  0  0  0  0  0  0  0  0  0  0
   -4.7820   -1.0850   -0.8100 C   0  0  0  0  0  0  0  0  0  0  0  0
  1  2  1  0
  2  3  2  0
  2 18  1  0
  3  4  1  0
  4  5  2  0
  5  6  1  0
  5 17  1  0
  6  7  1  0
  7  8  2  0
  7  9  1  0
  9 10  1  0
 10 11  1  0
 11 12  2  0
 11 16  1  0
 12 13  1  0
 13 14  1  0
 14 15  1  0
 15 16  1  0
 17 18  2  0
 18 19  1  0
 19 20  2  3
 20 21  1  0
 20 32  1  0
 22 21  1  6
 22 23  2  0
 22 24  2  0
 22 25  1  0
 25 26  2  3
 25 32  1  0
 26 27  1  0
 27 28  1  0
 27 31  1  0
 28 29  1  0
 29 30  1  0
 30 31  1  0
 32 33  1  0
M  CHG  1  19   1
M  END
