
     RDKit          3D

 33 38  0  0  0  0  0  0  0  0999 V2000
    8.8310    1.8090   -1.1610 C   0  0  0  0  0  0  0  0  0  0  0  0
    7.6080    0.9800   -0.9640 C   0  0  0  0  0  0  0  0  0  0  0  0
    7.1780    0.3640    0.2180 C   0  0  0  0  0  0  0  0  0  0  0  0
    6.0030   -0.2990   -0.0480 C   0  0  0  0  0  0  0  0  0  0  0  0
    5.1900   -1.0790    0.8660 C   0  0  0  0  0  0  0  0  0  0  0  0
    5.5160   -1.2610    2.1850 N   0  0  0  0  0  0  0  0  0  0  0  0
    4.6070   -2.0200    2.7890 C   0  0  0  0  0  0  0  0  0  0  0  0
    3.6590   -2.3520    1.8680 C   0  0  0  0  0  0  0  0  0  0  0  0
    4.0480   -1.7580    0.6970 N   0  0  0  0  0  0  0  0  0  0  0  0
    3.3390   -1.8220   -0.5480 C   0  0  0  0  0  0  0  0  0  0  0  0
    2.3000   -0.7680   -0.7150 C   0  0  0  0  0  0  0  0  0  0  0  0
    2.6790    0.3050   -1.2250 O   0  0  0  0  0  0  0  0  0  0  0  0
    0.9660   -0.9750   -0.3170 N   0  0  0  0  0  0  0  0  0  0  0  0
   -0.0470   -0.0270   -0.4440 C   0  0  0  0  0  0  0  0  0  0  0  0
    0.0610    1.2620   -0.8320 C   0  0  0  0  0  0  0  0  0  0  0  0
   -1.0180    2.1350   -0.9390 C   0  0  0  0  0  0  0  0  0  0  0  0
   -2.2730    1.6460   -0.6270 C   0  0  0  0  0  0  0  0  0  0  0  0
   -3.3750    2.4720   -0.7170 C   0  0  0  0  0  0  0  0  0  0  0  0
   -3.1690    3.8620   -1.1470 C   0  0  0  0  0  0  0  0  0  0  0  0
   -4.6390    2.0120   -0.4120 C   0  0  0  0  0  0  0  0  0  0  0  0
   -4.8080    0.7030   -0.0100 C   0  0  0  0  0  0  0  0  0  0  0  0
   -3.7060   -0.1160    0.0790 C   0  0  0  0  0  0  0  0  0  0  0  0
   -2.4330    0.3400   -0.2260 C   0  0  0  0  0  0  0  0  0  0  0  0
   -1.3430   -0.4770   -0.1370 C   0  0  0  0  0  0  0  0  0  0  0  0
   -4.1790   -1.4130    0.5180 C   0  0  0  0  0  0  0  0  0  0  0  0
   -3.7700   -2.6040    0.8080 N   0  0  0  0  0  0  0  0  0  0  0  0
   -4.8640   -3.4370    1.1970 C   0  0  0  0  0  0  0  0  0  0  0  0
   -6.0450   -2.5760    1.1070 C   0  0  0  0  0  0  0  0  0  0  0  0
   -5.6130   -1.3740    0.7010 C   0  0  0  0  0  0  0  0  0  0  0  0
   -6.0550    0.0030    0.3620 C   0  0  1  0  0  0  0  0  0  0  0  0
   -6.7100    0.6750    1.5660 C   0  0  0  0  0  0  0  0  0  0  0  0
    5.7570   -0.0770   -1.3390 N   0  0  0  0  0  0  0  0  0  0  0  0
    6.7050    0.6720   -1.8550 O   0  0  0  0  0  0  0  0  0  0  0  0
  1  2  1  0
  2  3  2  0
  2 33  1  0
  3  4  1  0
  4  5  1  0
  4 32  2  0
  5  6  2  0
  5  9  1  0
  6  7  1  0
  7  8  2  0
  8  9  1  0
  9 10  1  0
 10 11  1  0
 11 12  2  0
 11 13  1  0
 13 14  1  0
 14 15  2  0
 14 24  1  0
 15 16  1  0
 16 17  2  0
 17 18  1  0
 17 23  1  0
 18 19  1  0
 18 20  2  0
 20 21  1  0
 21 22  2  0
 21 30  1  0
 22 23  1  0
 22 25  1  0
 23 24  2  0
 25 26  2  0
 25 29  1  0
 26 27  1  0
 27 28  1  0
 28 29  2  0
 29 30  1  0
 30 31  1  1
 32 33  1  0
M  END
