
     RDKit          3D

 18 17  0  0  0  0  0  0  0  0999 V2000
    0.8110   -2.5710   -1.0560 C   0  0  0  0  0  0  0  0  0  0  0  0
    1.9410   -1.6080   -1.3540 C   0  0  0  0  0  0  0  0  0  0  0  0
    1.7100   -0.4150   -0.5400 N   0  0  0  0  0  0  0  0  0  0  0  0
    0.5170    0.2670   -1.0160 C   0  0  0  0  0  0  0  0  0  0  0  0
    0.1200    1.4190   -0.1620 C   0  0  0  0  0  0  0  0  0  0  0  0
   -1.1410    2.0910   -0.6950 C   0  0  0  0  0  0  0  0  0  0  0  0
   -2.2980    1.1650   -0.7690 C   0  0  0  0  0  0  0  0  0  0  0  0
   -2.7390    0.5350    0.5020 C   0  0  0  0  0  0  0  0  0  0  0  0
   -3.8640   -0.3300    0.2140 N   0  0  1  0  0  0  0  0  0  0  0  0
   -3.5450   -1.7340    0.4670 C   0  0  0  0  0  0  0  0  0  0  0  0
   -4.2130   -2.6470   -0.5390 C   0  0  0  0  0  0  0  0  0  0  0  0
   -5.0670   -0.0240    0.9030 C   0  0  0  0  0  0  0  0  0  0  0  0
   -5.0400    1.2470    1.6920 C   0  0  0  0  0  0  0  0  0  0  0  0
    2.8680    0.4560   -0.5660 C   0  0  0  0  0  0  0  0  0  0  0  0
    4.0300   -0.1730    0.1590 C   0  0  0  0  0  0  0  0  0  0  0  0
    5.2400    0.7530    0.1340 C   0  0  2  0  0  0  0  0  0  0  0  0
    6.3400    0.0170    0.8840 C   0  0  0  0  0  0  0  0  0  0  0  0
    4.9960    2.0600    0.8280 C   0  0  0  0  0  0  0  0  0  0  0  0
  1  2  1  0
  2  3  1  0
  3  4  1  0
  3 14  1  0
  4  5  1  0
  5  6  1  0
  6  7  1  0
  7  8  1  0
  9  8  1  1
  9 10  1  0
  9 12  1  0
 10 11  1  0
 12 13  1  0
 14 15  1  0
 15 16  1  0
 16 17  1  1
 16 18  1  0
M  CHG  1   9   1
M  END
