
     RDKit          3D

 18 18  0  0  0  0  0  0  0  0999 V2000
   -4.3820   -2.3650   -0.1370 C   0  0  0  0  0  0  0  0  0  0  0  0
   -3.1710   -3.1410   -0.5770 C   0  0  0  0  0  0  0  0  0  0  0  0
   -1.8740   -2.6010    0.0110 C   0  0  0  0  0  0  0  0  0  0  0  0
   -1.7480   -1.1530   -0.4730 C   0  0  0  0  0  0  0  0  0  0  0  0
   -0.5630   -0.5410    0.0170 N   0  0  0  0  0  0  0  0  0  0  0  0
    0.6020   -1.0840   -0.5450 C   0  0  0  0  0  0  0  0  0  0  0  0
    1.9170   -0.5050   -0.1170 C   0  0  1  0  0  0  0  0  0  0  0  0
    2.2030   -0.6050    1.3450 C   0  0  0  0  0  0  0  0  0  0  0  0
    3.4580    0.2040    1.6200 C   0  0  0  0  0  0  0  0  0  0  0  0
    4.6190   -0.2250    0.7770 C   0  0  0  0  0  0  0  0  0  0  0  0
    4.2900   -0.4390   -0.6680 C   0  0  0  0  0  0  0  0  0  0  0  0
    3.0560   -1.2970   -0.8000 C   0  0  0  0  0  0  0  0  0  0  0  0
   -0.6030    0.9140   -0.1120 C   0  0  1  0  0  0  0  0  0  0  0  0
   -0.7670    1.2010   -1.5640 C   0  0  0  0  0  0  0  0  0  0  0  0
   -0.7800    2.6720   -1.8590 C   0  0  0  0  0  0  0  0  0  0  0  0
   -1.6200    1.4150    0.8360 C   0  0  0  0  0  0  0  0  0  0  0  0
   -1.8530    2.8050    0.9690 N   0  0  0  0  0  0  0  0  0  0  0  0
   -0.7850    3.5200    1.6320 C   0  0  0  0  0  0  0  0  0  0  0  0
  1  2  1  0
  2  3  1  0
  3  4  1  0
  4  5  1  0
  5  6  1  0
  5 13  1  0
  7  6  1  1
  7  8  1  0
  7 12  1  0
  8  9  1  0
  9 10  1  0
 10 11  1  0
 11 12  1  0
 13 14  1  6
 13 16  1  0
 14 15  1  0
 16 17  1  0
 17 18  1  0
M  CHG  1  17   1
M  END
