
     RDKit          3D

 14 14  0  0  0  0  0  0  0  0999 V2000
   -0.0990    2.9260    0.8620 C   0  0  0  0  0  0  0  0  0  0  0  0
   -0.6160    1.8420    0.3120 C   0  0  0  0  0  0  0  0  0  0  0  0
   -1.9710    1.8200    0.0070 O   0  0  0  0  0  0  0  0  0  0  0  0
   -2.7140    0.5930   -0.0590 C   0  0  0  0  0  0  0  0  0  0  0  0
   -1.8760   -0.3630   -0.8440 C   0  0  0  0  0  0  0  0  0  0  0  0
   -2.4220   -1.0650   -1.7160 O   0  0  0  0  0  0  0  0  0  0  0  0
   -0.4660   -0.4560   -0.5850 N   0  0  0  0  0  0  0  0  0  0  0  0
    0.1440   -1.6980   -0.9970 C   0  0  0  0  0  0  0  0  0  0  0  0
    0.1690   -2.7160    0.0860 C   0  0  0  0  0  0  0  0  0  0  0  0
   -0.2810   -2.5060    1.1940 O   0  0  0  0  0  0  0  0  0  0  0  0
    0.2030    0.6360    0.0020 C   0  0  0  0  0  0  0  0  0  0  0  0
    1.4710    0.6350    0.2900 C   0  0  0  0  0  0  0  0  0  0  0  0
    2.6040   -0.2620    0.1850 C   0  0  0  0  0  0  0  0  0  0  0  0
    3.2920   -0.5050    1.8790 Cl  0  0  0  0  0  0  0  0  0  0  0  0
  1  2  2  0
  2  3  1  0
  2 11  1  0
  3  4  1  0
  4  5  1  0
  5  6  2  0
  5  7  1  0
  7  8  1  0
  7 11  1  0
  8  9  1  0
  9 10  2  0
 11 12  2  3
 12 13  1  0
 13 14  1  0
M  END
