
     RDKit          3D

 13 13  0  0  0  0  0  0  0  0999 V2000
    3.4980   -0.1660    0.4910 C   0  0  0  0  0  0  0  0  0  0  0  0
    2.2460    0.5790    0.1820 C   0  0  0  0  0  0  0  0  0  0  0  0
    2.3890    1.7760   -0.1170 O   0  0  0  0  0  0  0  0  0  0  0  0
    0.9400   -0.0440    0.2250 C   0  0  0  0  0  0  0  0  0  0  0  0
   -0.1430    0.6630   -0.0700 C   0  0  0  0  0  0  0  0  0  0  0  0
    0.0380    2.0860   -0.4390 C   0  0  0  0  0  0  0  0  0  0  0  0
   -1.4810    0.1680   -0.0660 N   0  0  0  0  0  0  0  0  0  0  0  0
   -2.4820    1.2010    0.1080 C   0  0  0  0  0  0  0  0  0  0  0  0
   -2.0400   -1.1430   -0.1960 C   0  0  0  0  0  0  0  0  0  0  0  0
   -1.1430   -2.2540   -0.5450 C   0  0  0  0  0  0  0  0  0  0  0  0
    0.0370   -2.3950    0.1730 O   0  0  0  0  0  0  0  0  0  0  0  0
    0.9810   -1.4750    0.6170 C   0  0  0  0  0  0  0  0  0  0  0  0
    1.8940   -1.8590    1.3690 O   0  0  0  0  0  0  0  0  0  0  0  0
  1  2  1  0
  2  3  2  0
  2  4  1  0
  4  5  2  0
  4 12  1  0
  5  6  1  0
  5  7  1  0
  7  8  1  0
  7  9  1  0
  9 10  1  0
 10 11  1  0
 11 12  1  0
 12 13  2  0
M  END
