
     RDKit          3D

 18 17  0  0  0  0  0  0  0  0999 V2000
   -4.2980    2.9270   -0.8240 C   0  0  0  0  0  0  0  0  0  0  0  0
   -4.3180    2.1100    0.4200 C   0  0  0  0  0  0  0  0  0  0  0  0
   -3.0580    1.3110    0.6750 C   0  0  0  0  0  0  0  0  0  0  0  0
   -2.7770    0.3280   -0.4030 C   0  0  0  0  0  0  0  0  0  0  0  0
   -1.5590   -0.4570   -0.1720 N   0  0  0  0  0  0  0  0  0  0  0  0
   -0.4320    0.2700   -0.2690 C   0  0  0  0  0  0  0  0  0  0  0  0
    0.9440   -0.2790   -0.0360 C   0  0  2  0  0  0  0  0  0  0  0  0
    1.1490   -0.8230    1.3560 C   0  0  0  0  0  0  0  0  0  0  0  0
    1.9830    0.8670   -0.1550 C   0  0  0  0  0  0  0  0  0  0  0  0
    3.2700    0.3060    0.0810 N   0  0  0  0  0  0  0  0  0  0  0  0
    3.7780   -0.5800   -0.8820 C   0  0  0  0  0  0  0  0  0  0  0  0
    5.1770   -1.0300   -0.4630 C   0  0  0  0  0  0  0  0  0  0  0  0
    4.1980    1.1840    0.7200 C   0  0  0  0  0  0  0  0  0  0  0  0
    4.6460    2.3320   -0.1180 C   0  0  0  0  0  0  0  0  0  0  0  0
   -1.8750   -1.7610    0.0610 C   0  0  2  0  0  0  0  0  0  0  0  0
   -0.8640   -2.8440    0.1180 C   0  0  0  0  0  0  0  0  0  0  0  0
   -2.8700   -2.1900   -1.0530 C   0  0  0  0  0  0  0  0  0  0  0  0
   -2.7290   -1.9620    1.3500 C   0  0  0  0  0  0  0  0  0  0  0  0
  1  2  1  0
  2  3  1  0
  3  4  1  0
  4  5  1  0
  5  6  1  0
  5 15  1  0
  6  7  1  0
  7  8  1  1
  7  9  1  0
  9 10  1  0
 10 11  1  0
 10 13  1  0
 11 12  1  0
 13 14  1  0
 15 16  1  1
 15 17  1  0
 15 18  1  0
M  END
