
     RDKit          3D

 18 18  0  0  0  0  0  0  0  0999 V2000
    5.4960    1.6540   -0.8210 C   0  0  0  0  0  0  0  0  0  0  0  0
    4.7470    0.8290    0.1730 C   0  0  0  0  0  0  0  0  0  0  0  0
    3.2360    0.8610   -0.0560 C   0  0  0  0  0  0  0  0  0  0  0  0
    2.5500   -0.0070    0.9930 C   0  0  0  0  0  0  0  0  0  0  0  0
    1.1800    0.0060    0.8100 N   0  0  0  0  0  0  0  0  0  0  0  0
    0.5040    1.2100    1.0910 C   0  0  0  0  0  0  0  0  0  0  0  0
   -0.4330    1.5490   -0.0390 C   0  0  0  0  0  0  0  0  0  0  0  0
   -1.2360    0.3990   -0.3410 N   0  0  0  0  0  0  0  0  0  0  0  0
   -2.6370    0.7400   -0.4840 C   0  0  2  0  0  0  0  0  0  0  0  0
   -3.2550    1.2400    0.7660 C   0  0  0  0  0  0  0  0  0  0  0  0
   -4.7140    1.6010    0.6520 C   0  0  0  0  0  0  0  0  0  0  0  0
   -3.4730   -0.2740   -1.1610 C   0  0  0  0  0  0  0  0  0  0  0  0
   -2.9360   -0.4890   -2.5640 C   0  0  0  0  0  0  0  0  0  0  0  0
   -1.0380   -0.7240    0.5460 C   0  0  0  0  0  0  0  0  0  0  0  0
    0.4400   -1.0990    0.3920 C   0  0  1  0  0  0  0  0  0  0  0  0
    0.6400   -1.3560   -1.0820 C   0  0  0  0  0  0  0  0  0  0  0  0
    0.7660   -2.3810    1.1140 C   0  0  0  0  0  0  0  0  0  0  0  0
   -0.0150   -3.5540    0.6680 C   0  0  0  0  0  0  0  0  0  0  0  0
  1  2  1  0
  2  3  1  0
  3  4  1  0
  4  5  1  0
  5  6  1  0
  5 15  1  0
  6  7  1  0
  7  8  1  0
  8  9  1  0
  8 14  1  0
  9 10  1  1
  9 12  1  0
 10 11  1  0
 12 13  1  0
 14 15  1  0
 15 16  1  6
 15 17  1  0
 17 18  1  0
M  END
