
     RDKit          3D

 13 13  0  0  0  0  0  0  0  0999 V2000
    4.2830    2.9940   -2.5060 N   0  0  0  0  0  0  0  0  0  0  0  0
    3.5870    2.1750   -2.0540 C   0  0  0  0  0  0  0  0  0  0  0  0
    2.7180    1.1160   -1.4870 C   0  0  0  0  0  0  0  0  0  0  0  0
    1.3210    1.6870   -1.5540 C   0  0  0  0  0  0  0  0  0  0  0  0
    0.3170    0.8610   -1.0700 O   0  0  0  0  0  0  0  0  0  0  0  0
    0.2000    0.3520    0.1990 C   0  0  0  0  0  0  0  0  0  0  0  0
    1.0920    0.6530    1.0340 O   0  0  0  0  0  0  0  0  0  0  0  0
   -0.9000   -0.5150    0.6240 C   0  0  0  0  0  0  0  0  0  0  0  0
   -0.9670   -0.9780    1.8490 C   0  0  0  0  0  0  0  0  0  0  0  0
   -2.0430   -1.8560    2.3520 C   0  0  0  0  0  0  0  0  0  0  0  0
   -3.0180   -2.1590    1.4140 O   0  0  0  0  0  0  0  0  0  0  0  0
   -2.9550   -1.6770    0.1210 C   0  0  0  0  0  0  0  0  0  0  0  0
   -1.9720   -0.8990   -0.2890 C   0  0  0  0  0  0  0  0  0  0  0  0
  1  2  3  0
  2  3  1  0
  3  4  1  0
  4  5  1  0
  5  6  1  0
  6  7  2  0
  6  8  1  0
  8  9  2  0
  8 13  1  0
  9 10  1  0
 10 11  1  0
 11 12  1  0
 12 13  2  0
M  END
