
     RDKit          3D

 18 18  0  0  0  0  0  0  0  0999 V2000
   -2.0560    4.8500   -0.0210 C   0  0  0  0  0  0  0  0  0  0  0  0
   -2.3510    3.4110    0.2470 C   0  0  0  0  0  0  0  0  0  0  0  0
   -1.1130    2.5240    0.0380 C   0  0  0  0  0  0  0  0  0  0  0  0
   -1.5450    1.1500    0.3280 C   0  0  0  0  0  0  0  0  0  0  0  0
   -0.5170    0.1050    0.1930 N   0  0  0  0  0  0  0  0  0  0  0  0
    0.4500    0.1750    1.1910 C   0  0  0  0  0  0  0  0  0  0  0  0
    1.8860   -0.0240    0.8950 C   0  0  2  0  0  0  0  0  0  0  0  0
    2.4050    1.0430   -0.0950 C   0  0  0  0  0  0  0  0  0  0  0  0
    3.8420    1.3300    0.3130 C   0  0  0  0  0  0  0  0  0  0  0  0
    4.4610    0.0360    0.8100 C   0  0  0  0  0  0  0  0  0  0  0  0
    3.8910   -1.1580    0.1150 C   0  0  0  0  0  0  0  0  0  0  0  0
    2.3910   -1.3090    0.4070 C   0  0  0  0  0  0  0  0  0  0  0  0
   -1.1370   -1.0570   -0.2550 C   0  0  1  0  0  0  0  0  0  0  0  0
   -1.3730   -1.0650   -1.7330 C   0  0  0  0  0  0  0  0  0  0  0  0
   -2.2240   -0.0520   -2.3640 C   0  0  0  0  0  0  0  0  0  0  0  0
   -0.8800   -2.3940    0.2890 C   0  0  0  0  0  0  0  0  0  0  0  0
   -1.7320   -3.4130   -0.3770 N   0  0  0  0  0  0  0  0  0  0  0  0
   -2.0830   -4.4530    0.6110 C   0  0  0  0  0  0  0  0  0  0  0  0
  1  2  1  0
  2  3  1  0
  3  4  1  0
  4  5  1  0
  5  6  1  0
  5 13  1  0
  7  6  1  6
  7  8  1  0
  7 12  1  0
  8  9  1  0
  9 10  1  0
 10 11  1  0
 11 12  1  0
 13 14  1  6
 13 16  1  0
 14 15  1  0
 16 17  1  0
 17 18  1  0
M  CHG  1  17   1
M  END
