
     RDKit          3D

 13 13  0  0  0  0  0  0  0  0999 V2000
    3.3990   -0.7420   -0.5320 C   0  0  0  0  0  0  0  0  0  0  0  0
    2.3000    0.1960   -0.1440 C   0  0  0  0  0  0  0  0  0  0  0  0
    2.6360    1.3590    0.1000 O   0  0  0  0  0  0  0  0  0  0  0  0
    0.9330   -0.2400   -0.0630 C   0  0  0  0  0  0  0  0  0  0  0  0
    0.0100    0.6220    0.2700 C   0  0  0  0  0  0  0  0  0  0  0  0
    0.3900    2.0090    0.5520 C   0  0  0  0  0  0  0  0  0  0  0  0
   -1.3990    0.3180    0.3900 N   0  0  0  0  0  0  0  0  0  0  0  0
   -2.1030    1.3010    1.1890 C   0  0  0  0  0  0  0  0  0  0  0  0
   -2.2100   -0.7240   -0.1060 C   0  0  0  0  0  0  0  0  0  0  0  0
   -1.6540   -1.5990   -1.1540 C   0  0  0  0  0  0  0  0  0  0  0  0
   -0.4310   -2.1980   -0.9210 O   0  0  0  0  0  0  0  0  0  0  0  0
    0.7310   -1.6850   -0.3830 C   0  0  0  0  0  0  0  0  0  0  0  0
    1.6940   -2.4540   -0.1360 O   0  0  0  0  0  0  0  0  0  0  0  0
  1  2  1  0
  2  3  2  0
  2  4  1  0
  4  5  2  0
  4 12  1  0
  5  6  1  0
  5  7  1  0
  7  8  1  0
  7  9  1  0
  9 10  1  0
 10 11  1  0
 11 12  1  0
 12 13  2  0
M  END
