
     RDKit          3D

 18 17  0  0  0  0  0  0  0  0999 V2000
    4.8330    1.9990   -0.4710 C   0  0  0  0  0  0  0  0  0  0  0  0
    3.7420    2.3280    0.4750 C   0  0  0  0  0  0  0  0  0  0  0  0
    2.9270    1.1590    0.9720 C   0  0  0  0  0  0  0  0  0  0  0  0
    2.2930    0.4860   -0.2000 C   0  0  0  0  0  0  0  0  0  0  0  0
    1.4740   -0.6010    0.0190 N   0  0  0  0  0  0  0  0  0  0  0  0
    0.2590   -0.6040    0.6440 C   0  0  0  0  0  0  0  0  0  0  0  0
   -0.8390    0.0870   -0.1120 C   0  0  2  0  0  0  0  0  0  0  0  0
   -0.6430    1.5320   -0.3890 C   0  0  0  0  0  0  0  0  0  0  0  0
   -2.0980   -0.0740    0.7660 C   0  0  0  0  0  0  0  0  0  0  0  0
   -3.2290    0.5360    0.1750 N   0  0  0  0  0  0  0  0  0  0  0  0
   -3.7450   -0.0450   -0.9990 C   0  0  0  0  0  0  0  0  0  0  0  0
   -4.3840   -1.3890   -0.8380 C   0  0  0  0  0  0  0  0  0  0  0  0
   -4.1540    1.1270    1.0790 C   0  0  0  0  0  0  0  0  0  0  0  0
   -5.3210    1.7600    0.3910 C   0  0  0  0  0  0  0  0  0  0  0  0
    1.9630   -1.8240   -0.5440 C   0  0  1  0  0  0  0  0  0  0  0  0
    3.2680   -2.1830    0.1270 C   0  0  0  0  0  0  0  0  0  0  0  0
    1.0260   -2.9730   -0.4830 C   0  0  0  0  0  0  0  0  0  0  0  0
    2.2480   -1.5380   -2.0260 C   0  0  0  0  0  0  0  0  0  0  0  0
  1  2  1  0
  2  3  1  0
  3  4  1  0
  4  5  1  0
  5  6  1  0
  5 15  1  0
  6  7  1  0
  7  8  1  1
  7  9  1  0
  9 10  1  0
 10 11  1  0
 10 13  1  0
 11 12  1  0
 13 14  1  0
 15 16  1  1
 15 17  1  0
 15 18  1  0
M  END
