
     RDKit          3D

 14 14  0  0  0  0  0  0  0  0999 V2000
    2.8840   -0.6930    0.6690 C   0  0  0  0  0  0  0  0  0  0  0  0
    1.9110    0.1430    0.4250 C   0  0  0  0  0  0  0  0  0  0  0  0
    2.1490    1.5040    0.5070 O   0  0  0  0  0  0  0  0  0  0  0  0
    1.3280    2.5020   -0.0320 C   0  0  0  0  0  0  0  0  0  0  0  0
   -0.0750    2.0480   -0.0610 C   0  0  0  0  0  0  0  0  0  0  0  0
   -1.0160    2.8950    0.0250 O   0  0  0  0  0  0  0  0  0  0  0  0
   -0.4500    0.6480   -0.1850 N   0  0  0  0  0  0  0  0  0  0  0  0
   -1.8100    0.3870   -0.5850 C   0  0  0  0  0  0  0  0  0  0  0  0
   -2.7610    0.2710    0.5440 C   0  0  0  0  0  0  0  0  0  0  0  0
   -2.3940    0.3910    1.6930 O   0  0  0  0  0  0  0  0  0  0  0  0
    0.5410   -0.3310    0.0600 C   0  0  0  0  0  0  0  0  0  0  0  0
    0.3450   -1.6120   -0.0430 C   0  0  0  0  0  0  0  0  0  0  0  0
   -0.7840   -2.4430   -0.3540 C   0  0  0  0  0  0  0  0  0  0  0  0
   -0.4920   -3.3580   -1.8940 Cl  0  0  0  0  0  0  0  0  0  0  0  0
  1  2  2  0
  2  3  1  0
  2 11  1  0
  3  4  1  0
  4  5  1  0
  5  6  2  0
  5  7  1  0
  7  8  1  0
  7 11  1  0
  8  9  1  0
  9 10  2  0
 11 12  2  3
 12 13  1  0
 13 14  1  0
M  END
