
     RDKit          3D

 18 17  0  0  0  0  0  0  0  0999 V2000
    3.0160   -0.5660    2.1110 C   0  0  0  0  0  0  0  0  0  0  0  0
    2.9130    0.6580    1.2110 C   0  0  0  0  0  0  0  0  0  0  0  0
    3.0780    0.2700   -0.1310 N   0  0  0  0  0  0  0  0  0  0  0  0
    4.4000   -0.1590   -0.4810 C   0  0  0  0  0  0  0  0  0  0  0  0
    4.4660   -0.6660   -1.8960 C   0  0  0  0  0  0  0  0  0  0  0  0
    2.2340    0.7160   -1.1360 C   0  0  0  0  0  0  0  0  0  0  0  0
    0.8390    0.1730   -1.2360 C   0  0  0  0  0  0  0  0  0  0  0  0
   -0.0200    0.3660   -0.0750 C   0  0  0  0  0  0  0  0  0  0  0  0
   -1.3660   -0.0300   -0.0920 N   0  0  0  0  0  0  0  0  0  0  0  0
   -2.2000    0.6940   -0.9870 C   0  0  0  0  0  0  0  0  0  0  0  0
   -2.3860    2.1510   -0.6520 C   0  0  1  0  0  0  0  0  0  0  0  0
   -3.3030    2.8180   -1.6920 C   0  0  0  0  0  0  0  0  0  0  0  0
   -3.0380    2.4210    0.6730 C   0  0  0  0  0  0  0  0  0  0  0  0
   -1.8480   -1.1000    0.6360 C   0  0  1  0  0  0  0  0  0  0  0  0
   -1.5280   -0.8140    2.1180 C   0  0  0  0  0  0  0  0  0  0  0  0
   -3.4070   -1.1210    0.6650 C   0  0  0  0  0  0  0  0  0  0  0  0
   -1.4770   -2.4530    0.2190 C   0  0  0  0  0  0  0  0  0  0  0  0
   -0.1010   -2.9450    0.1790 C   0  0  0  0  0  0  0  0  0  0  0  0
  1  2  1  0
  2  3  1  0
  3  4  1  0
  3  6  1  0
  4  5  1  0
  6  7  1  0
  7  8  1  0
  8  9  1  0
  9 10  1  0
  9 14  1  0
 10 11  1  0
 11 12  1  6
 11 13  1  0
 14 15  1  1
 14 16  1  0
 14 17  1  0
 17 18  1  0
M  END
