
     RDKit          3D

 13 13  0  0  0  0  0  0  0  0999 V2000
   -2.5120   -1.6670    0.3200 C   0  0  0  0  0  0  0  0  0  0  0  0
   -1.2190   -0.9410    0.2600 C   0  0  0  0  0  0  0  0  0  0  0  0
   -1.2040    0.3680    0.2130 C   0  0  0  0  0  0  0  0  0  0  0  0
   -2.4170    1.2180    0.2180 C   0  0  0  0  0  0  0  0  0  0  0  0
   -3.6060    0.8320    0.2270 O   0  0  0  0  0  0  0  0  0  0  0  0
   -1.9680    2.5830    0.2090 C   0  0  0  0  0  0  0  0  0  0  0  0
   -0.6600    2.6130    0.1990 C   0  0  0  0  0  0  0  0  0  0  0  0
   -0.1160    1.2640    0.1980 N   0  0  0  0  0  0  0  0  0  0  0  0
    1.2900    1.0820    0.2230 C   0  0  0  0  0  0  0  0  0  0  0  0
    1.8620   -0.1440   -0.2800 C   0  0  0  0  0  0  0  0  0  0  0  0
    1.3940   -0.7100   -1.2970 O   0  0  0  0  0  0  0  0  0  0  0  0
    2.9650   -0.7970    0.3070 O   0  0  0  0  0  0  0  0  0  0  0  0
    3.4750   -2.0010   -0.2440 C   0  0  0  0  0  0  0  0  0  0  0  0
  1  2  1  0
  2  3  2  3
  3  4  1  0
  3  8  1  0
  4  5  2  0
  4  6  1  0
  6  7  2  0
  7  8  1  0
  8  9  1  0
  9 10  1  0
 10 11  2  0
 10 12  1  0
 12 13  1  0
M  END
