
     RDKit          3D

 13 13  0  0  0  0  0  0  0  0999 V2000
    4.0180    0.0210   -0.4960 C   0  0  0  0  0  0  0  0  0  0  0  0
    3.0340   -0.0770    0.5640 N   0  0  0  0  0  0  0  0  0  0  0  0
    1.6630   -0.2040    0.2140 C   0  0  0  0  0  0  0  0  0  0  0  0
    1.1090    0.9470   -0.1160 C   0  0  0  0  0  0  0  0  0  0  0  0
   -0.2850    1.1450   -0.5230 C   0  0  0  0  0  0  0  0  0  0  0  0
   -0.5720    2.1660   -1.1700 O   0  0  0  0  0  0  0  0  0  0  0  0
   -1.4240    0.2500   -0.2500 C   0  0  0  0  0  0  0  0  0  0  0  0
   -2.6840    0.6800   -0.5500 O   0  0  0  0  0  0  0  0  0  0  0  0
   -3.2740    1.8790   -0.1640 C   0  0  0  0  0  0  0  0  0  0  0  0
   -1.3700   -0.9670    0.2720 C   0  0  0  0  0  0  0  0  0  0  0  0
   -2.6910   -1.6330    0.4310 C   0  0  0  0  0  0  0  0  0  0  0  0
   -0.2250   -1.6450    0.6660 O   0  0  0  0  0  0  0  0  0  0  0  0
    1.1190   -1.5500    0.2780 C   0  0  0  0  0  0  0  0  0  0  0  0
  1  2  1  0
  2  3  1  0
  3  4  2  0
  3 13  1  0
  4  5  1  0
  5  6  2  0
  5  7  1  0
  7  8  1  0
  7 10  2  0
  8  9  1  0
 10 11  1  0
 10 12  1  0
 12 13  1  0
M  END
