
     RDKit          3D

 13 13  0  0  0  0  0  0  0  0999 V2000
    4.0910    0.3400   -0.2570 N   0  0  0  0  0  0  0  0  0  0  0  0
    3.5780    0.2110    0.7830 C   0  0  0  0  0  0  0  0  0  0  0  0
    2.9650    0.0620    2.0750 C   0  0  0  0  0  0  0  0  0  0  0  0
    1.6610    0.7280    2.2780 C   0  0  0  0  0  0  0  0  0  0  0  0
    0.5780    0.3690    1.5090 O   0  0  0  0  0  0  0  0  0  0  0  0
    0.3030    0.4600    0.1920 C   0  0  0  0  0  0  0  0  0  0  0  0
    1.1710    0.9780   -0.5480 O   0  0  0  0  0  0  0  0  0  0  0  0
   -0.9650   -0.0190   -0.4090 C   0  0  0  0  0  0  0  0  0  0  0  0
   -1.1570    0.1070   -1.6970 C   0  0  0  0  0  0  0  0  0  0  0  0
   -2.3810   -0.3420   -2.3540 C   0  0  0  0  0  0  0  0  0  0  0  0
   -3.2980   -0.9120   -1.4850 O   0  0  0  0  0  0  0  0  0  0  0  0
   -3.1430   -1.0630   -0.1490 C   0  0  0  0  0  0  0  0  0  0  0  0
   -2.0030   -0.6310    0.4030 C   0  0  0  0  0  0  0  0  0  0  0  0
  1  2  3  0
  2  3  1  0
  3  4  1  0
  4  5  1  0
  5  6  1  0
  6  7  2  0
  6  8  1  0
  8  9  2  0
  8 13  1  0
  9 10  1  0
 10 11  1  0
 11 12  1  0
 12 13  2  0
M  END
