
     RDKit          3D

 13 13  0  0  0  0  0  0  0  0999 V2000
    2.6320    1.4940    0.4670 C   0  0  0  0  0  0  0  0  0  0  0  0
    3.2920    0.1590    0.4630 C   0  0  0  0  0  0  0  0  0  0  0  0
    2.4600   -1.0290    0.3870 C   0  0  0  0  0  0  0  0  0  0  0  0
    3.1340   -2.1390    0.4090 O   0  0  0  0  0  0  0  0  0  0  0  0
    1.0430   -1.1490    0.2930 C   0  0  0  0  0  0  0  0  0  0  0  0
    0.3550   -2.3700    0.2290 C   0  0  0  0  0  0  0  0  0  0  0  0
   -0.9690   -2.1580    0.1460 N   0  0  0  0  0  0  0  0  0  0  0  0
   -1.2200   -0.8570    0.1500 C   0  0  0  0  0  0  0  0  0  0  0  0
   -2.5220   -0.2010    0.0760 C   0  0  0  0  0  0  0  0  0  0  0  0
   -3.5740   -0.8840   -0.0040 O   0  0  0  0  0  0  0  0  0  0  0  0
   -2.6680    1.1750    0.0890 O   0  0  0  0  0  0  0  0  0  0  0  0
   -3.9450    1.8080    0.0160 C   0  0  0  0  0  0  0  0  0  0  0  0
    0.0320   -0.2280    0.2420 C   0  0  0  0  0  0  0  0  0  0  0  0
  1  2  1  0
  2  3  1  0
  3  4  2  0
  3  5  1  0
  5  6  2  0
  5 13  1  0
  6  7  1  0
  7  8  1  0
  8  9  1  0
  8 13  2  0
  9 10  2  0
  9 11  1  0
 11 12  1  0
M  END
