
     RDKit          3D

 13 13  0  0  0  0  0  0  0  0999 V2000
    4.8680   -1.1100    0.2870 C   0  0  0  0  0  0  0  0  0  0  0  0
    4.5790    0.0930   -0.5620 C   0  0  0  0  0  0  0  0  0  0  0  0
    3.2170    0.1650   -0.9710 O   0  0  0  0  0  0  0  0  0  0  0  0
    2.1720    0.2430   -0.0830 C   0  0  0  0  0  0  0  0  0  0  0  0
    2.4340    0.2500    1.1440 O   0  0  0  0  0  0  0  0  0  0  0  0
    0.7590    0.3170   -0.5750 C   0  0  0  0  0  0  0  0  0  0  0  0
   -0.1060    0.3880    0.5350 O   0  0  0  0  0  0  0  0  0  0  0  0
   -1.4800    0.4650    0.3320 C   0  0  0  0  0  0  0  0  0  0  0  0
   -1.9580    0.7430   -0.8710 C   0  0  0  0  0  0  0  0  0  0  0  0
   -3.3670    0.8110   -1.0310 N   0  0  0  0  0  0  0  0  0  0  0  0
   -4.2380   -0.0720   -0.2820 C   0  0  0  0  0  0  0  0  0  0  0  0
   -3.5270   -0.6840    0.8770 C   0  0  0  0  0  0  0  0  0  0  0  0
   -2.4620    0.2460    1.4170 C   0  0  0  0  0  0  0  0  0  0  0  0
  1  2  1  0
  2  3  1  0
  3  4  1  0
  4  5  2  0
  4  6  1  0
  6  7  1  0
  7  8  1  0
  8  9  2  0
  8 13  1  0
  9 10  1  0
 10 11  1  0
 11 12  1  0
 12 13  1  0
M  END
