
     RDKit          3D

 17 18  0  0  0  0  0  0  0  0999 V2000
    4.4760    0.9240   -0.4210 O   0  0  0  0  0  0  0  0  0  0  0  0
    4.3820   -0.3180   -0.1990 C   0  0  0  0  0  0  0  0  0  0  0  0
    5.4970   -1.1510   -0.1890 O   0  0  0  0  0  0  0  0  0  0  0  0
    3.1030   -0.9000    0.0510 N   0  0  0  0  0  0  0  0  0  0  0  0
    1.9360   -0.1030    0.0530 C   0  0  0  0  0  0  0  0  0  0  0  0
    2.0330    1.1420   -0.1700 O   0  0  0  0  0  0  0  0  0  0  0  0
    0.5840   -0.6450    0.3050 C   0  0  0  0  0  0  0  0  0  0  0  0
   -0.4800    0.4200    0.2390 C   0  0  1  0  0  0  0  0  0  0  0  0
   -0.2700    1.4270    1.1800 O   0  0  0  0  0  0  0  0  0  0  0  0
   -0.5950    1.0690   -1.1130 C   0  0  0  0  0  0  0  0  0  0  0  0
   -1.9560    1.5430   -1.0630 N   0  0  0  0  0  0  0  0  0  0  0  0
   -2.6710    0.5140   -0.3450 C   0  0  0  0  0  0  0  0  0  0  0  0
   -1.8420   -0.1540    0.4160 C   0  0  0  0  0  0  0  0  0  0  0  0
   -2.5640   -1.2040    1.1460 C   0  0  0  0  0  0  0  0  0  0  0  0
   -2.0710   -2.0410    1.9750 O   0  0  0  0  0  0  0  0  0  0  0  0
   -3.8920   -1.1260    0.7730 O   0  0  0  0  0  0  0  0  0  0  0  0
   -4.0250   -0.0680   -0.1480 C   0  0  0  0  0  0  0  0  0  0  0  0
  1  2  2  0
  2  3  1  0
  2  4  1  0
  4  5  1  0
  5  6  2  0
  5  7  1  0
  7  8  1  0
  8  9  1  1
  8 10  1  0
  8 13  1  0
 10 11  1  0
 11 12  1  0
 12 13  2  0
 12 17  1  0
 13 14  1  0
 14 15  2  0
 14 16  1  0
 16 17  1  0
M  END
