
     RDKit          3D

 17 18  0  0  0  0  0  0  0  0999 V2000
   -1.8360   -1.4740    0.2490 C   0  0  0  0  0  0  0  0  0  0  0  0
   -1.4850   -0.0790    0.7070 C   0  0  2  0  0  0  0  0  0  0  0  0
   -1.1860   -0.1400    2.0680 O   0  0  0  0  0  0  0  0  0  0  0  0
   -2.6040    0.7250    0.5410 O   0  0  0  0  0  0  0  0  0  0  0  0
   -2.3030    1.7700   -0.2720 C   0  0  0  0  0  0  0  0  0  0  0  0
   -3.0680    2.7250   -0.6720 O   0  0  0  0  0  0  0  0  0  0  0  0
   -0.8760    1.6180   -0.6400 C   0  0  0  0  0  0  0  0  0  0  0  0
   -0.3750    0.5470   -0.0780 C   0  0  0  0  0  0  0  0  0  0  0  0
    1.0420    0.1780   -0.2610 C   0  0  1  0  0  0  0  0  0  0  0  0
    1.7540    0.3020    1.1110 C   0  0  0  0  0  0  0  0  0  0  0  0
    1.2320   -1.2290   -0.7340 C   0  0  0  0  0  0  0  0  0  0  0  0
    0.9930   -2.3370    0.0900 N   0  0  0  0  0  0  0  0  0  0  0  0
    1.6260   -1.4000   -1.9060 O   0  0  0  0  0  0  0  0  0  0  0  0
    1.7450    1.0780   -1.1260 N   0  0  0  0  0  0  0  0  0  0  0  0
    1.1760    2.2120   -1.7120 C   0  0  0  0  0  0  0  0  0  0  0  0
    1.8980    2.9680   -2.4610 O   0  0  0  0  0  0  0  0  0  0  0  0
   -0.1460    2.4910   -1.4710 O   0  0  0  0  0  0  0  0  0  0  0  0
  2  1  1  6
  2  3  1  0
  2  4  1  0
  2  8  1  0
  4  5  1  0
  5  6  2  0
  5  7  1  0
  7  8  2  0
  7 17  1  0
  8  9  1  0
  9 10  1  1
  9 11  1  0
  9 14  1  0
 11 12  1  0
 11 13  2  0
 14 15  1  0
 15 16  2  0
 15 17  1  0
M  END
