
     RDKit          3D

 18 19  0  0  0  0  0  0  0  0999 V2000
    5.3680    0.1020   -0.8680 N   0  0  0  0  0  0  0  0  0  0  0  0
    4.1050   -0.3470    0.2020 S   0  0  2  0  0  0  0  0  0  0  0  0
    4.7000   -1.0260    1.4000 O   0  0  0  0  0  0  0  0  0  0  0  0
    3.2030   -1.3170   -0.5030 O   0  0  0  0  0  0  0  0  0  0  0  0
    3.1510    1.0070    0.7630 C   0  0  2  0  0  0  0  0  0  0  0  0
    1.9750    0.4640    1.5440 C   0  0  0  0  0  0  0  0  0  0  0  0
    0.9950   -0.1210    0.6150 C   0  0  0  0  0  0  0  0  0  0  0  0
    0.8910    0.4400   -0.5710 C   0  0  0  0  0  0  0  0  0  0  0  0
   -0.1290    0.0860   -1.9640 S   0  0  0  0  0  0  0  0  0  0  0  0
   -1.4440   -1.0750   -1.6860 C   0  0  0  0  0  0  0  0  0  0  0  0
   -2.5330   -0.5620   -0.8160 C   0  0  0  0  0  0  0  0  0  0  0  0
   -2.6000   -0.8380    0.5240 C   0  0  0  0  0  0  0  0  0  0  0  0
   -3.6380   -0.3110    1.3000 C   0  0  0  0  0  0  0  0  0  0  0  0
   -4.5890    0.4800    0.7230 C   0  0  0  0  0  0  0  0  0  0  0  0
   -5.9260    1.1760    1.6430 Cl  0  0  0  0  0  0  0  0  0  0  0  0
   -4.5340    0.7640   -0.6230 C   0  0  0  0  0  0  0  0  0  0  0  0
   -3.5170    0.2500   -1.3900 C   0  0  0  0  0  0  0  0  0  0  0  0
    2.1590    1.7510   -0.6060 S   0  0  0  0  0  0  0  0  0  0  0  0
  2  1  1  6
  2  3  2  0
  2  4  2  0
  2  5  1  0
  5  6  1  1
  5 18  1  0
  6  7  1  0
  7  8  2  0
  8  9  1  0
  8 18  1  0
  9 10  1  0
 10 11  1  0
 11 12  2  0
 11 17  1  0
 12 13  1  0
 13 14  2  0
 14 15  1  0
 14 16  1  0
 16 17  2  0
M  END
