
     RDKit          3D

 27 29  0  0  0  0  0  0  0  0999 V2000
   -5.4680   -1.9470   -0.0070 C   0  0  0  0  0  0  0  0  0  0  0  0
   -4.7650   -1.8930   -1.3490 C   0  0  1  0  0  0  0  0  0  0  0  0
   -5.0500   -0.5920   -2.0680 C   0  0  0  0  0  0  0  0  0  0  0  0
   -4.7360    0.5930   -1.2120 C   0  0  0  0  0  0  0  0  0  0  0  0
   -3.4210    0.4450   -0.5640 C   0  0  0  0  0  0  0  0  0  0  0  0
   -2.8000    1.5300    0.0370 C   0  0  0  0  0  0  0  0  0  0  0  0
   -1.5660    1.4120    0.6510 C   0  0  0  0  0  0  0  0  0  0  0  0
   -0.9430    2.5980    1.2790 C   0  0  1  0  0  0  0  0  0  0  0  0
    0.3930    2.9350    0.6750 C   0  0  0  0  0  0  0  0  0  0  0  0
   -1.8510    3.8010    1.1410 C   0  0  0  0  0  0  0  0  0  0  0  0
   -0.7460    2.3520    2.6300 O   0  0  0  0  0  0  0  0  0  0  0  0
   -0.9050    0.2040    0.6860 C   0  0  0  0  0  0  0  0  0  0  0  0
    0.3280    0.1500    1.3150 O   0  0  0  0  0  0  0  0  0  0  0  0
    1.0620   -1.0820    1.3830 C   0  0  0  0  0  0  0  0  0  0  0  0
    2.3250   -0.7910    2.1160 C   0  0  0  0  0  0  0  0  0  0  0  0
    3.1810   -1.8400    2.2930 O   0  0  0  0  0  0  0  0  0  0  0  0
    3.6840   -2.4310    1.1670 C   0  0  0  0  0  0  0  0  0  0  0  0
    4.4870   -1.5460    0.2990 C   0  0  0  0  0  0  0  0  0  0  0  0
    5.7930   -1.2390    0.6190 C   0  0  0  0  0  0  0  0  0  0  0  0
    6.5620   -0.4100   -0.1920 C   0  0  0  0  0  0  0  0  0  0  0  0
    6.0250    0.1230   -1.3380 C   0  0  0  0  0  0  0  0  0  0  0  0
    6.7960    0.9650   -2.1670 N   0  0  0  0  0  0  0  0  0  0  0  0
    4.7170   -0.1700   -1.6780 C   0  0  0  0  0  0  0  0  0  0  0  0
    3.9660   -1.0070   -0.8460 C   0  0  0  0  0  0  0  0  0  0  0  0
   -1.5110   -0.8760    0.0930 C   0  0  0  0  0  0  0  0  0  0  0  0
   -2.7580   -0.7600   -0.5270 C   0  0  0  0  0  0  0  0  0  0  0  0
   -3.2930   -1.9990   -1.1240 C   0  0  0  0  0  0  0  0  0  0  0  0
  2  1  1  1
  2  3  1  0
  2 27  1  0
  3  4  1  0
  4  5  1  0
  5  6  2  0
  5 26  1  0
  6  7  1  0
  7  8  1  0
  7 12  2  0
  8  9  1  6
  8 10  1  0
  8 11  1  0
 12 13  1  0
 12 25  1  0
 13 14  1  0
 14 15  1  0
 15 16  1  0
 16 17  1  0
 17 18  1  0
 18 19  2  0
 18 24  1  0
 19 20  1  0
 20 21  2  0
 21 22  1  0
 21 23  1  0
 23 24  2  0
 25 26  2  0
 26 27  1  0
M  END
