
     RDKit          3D

 27 29  0  0  0  0  0  0  0  0999 V2000
   -4.0840   -4.1300    0.1990 C   0  0  0  0  0  0  0  0  0  0  0  0
   -4.1170   -3.1980    1.4120 C   0  0  0  0  0  0  0  0  0  0  0  0
   -3.8610   -1.7900    0.9870 C   0  0  0  0  0  0  0  0  0  0  0  0
   -4.8650   -0.9290    0.6110 C   0  0  0  0  0  0  0  0  0  0  0  0
   -4.6430    0.3660    0.2160 C   0  0  0  0  0  0  0  0  0  0  0  0
   -3.3340    0.8490    0.1900 C   0  0  0  0  0  0  0  0  0  0  0  0
   -3.1290    2.2320   -0.2650 C   0  0  0  0  0  0  0  0  0  0  0  0
   -4.3600    2.8040   -0.5820 O   0  0  0  0  0  0  0  0  0  0  0  0
   -4.2610    4.1020   -1.0280 C   0  0  0  0  0  0  0  0  0  0  0  0
   -2.3000    0.0290    0.5580 C   0  0  0  0  0  0  0  0  0  0  0  0
   -0.9340    0.5140    0.5740 C   0  0  0  0  0  0  0  0  0  0  0  0
   -0.4690    1.5530    1.3520 C   0  0  0  0  0  0  0  0  0  0  0  0
    0.8360    2.0020    1.3350 C   0  0  0  0  0  0  0  0  0  0  0  0
    1.7290    1.3690    0.4860 C   0  0  0  0  0  0  0  0  0  0  0  0
    1.3370    0.3270   -0.3170 C   0  0  0  0  0  0  0  0  0  0  0  0
    2.3150   -0.3230   -1.1770 C   0  0  0  0  0  0  0  0  0  0  0  0
    1.8740   -0.9260   -2.2250 O   0  0  0  0  0  0  0  0  0  0  0  0
    3.7500   -0.3420   -0.9420 C   0  0  0  0  0  0  0  0  0  0  0  0
    4.6360   -0.4150   -2.0240 C   0  0  0  0  0  0  0  0  0  0  0  0
    6.0030   -0.4620   -1.8530 C   0  0  0  0  0  0  0  0  0  0  0  0
    6.5730   -0.4380   -0.5990 C   0  0  0  0  0  0  0  0  0  0  0  0
    7.9590   -0.4870   -0.3720 N   0  0  0  0  0  0  0  0  0  0  0  0
    5.6950   -0.3650    0.4880 C   0  0  0  0  0  0  0  0  0  0  0  0
    6.2650   -0.3410    1.7640 O   0  0  0  0  0  0  0  0  0  0  0  0
    4.3310   -0.3200    0.3050 C   0  0  0  0  0  0  0  0  0  0  0  0
    0.0250   -0.0770   -0.2570 C   0  0  0  0  0  0  0  0  0  0  0  0
   -2.5810   -1.2890    0.9530 C   0  0  0  0  0  0  0  0  0  0  0  0
  1  2  1  0
  2  3  1  0
  3  4  2  0
  3 27  1  0
  4  5  1  0
  5  6  2  0
  6  7  1  0
  6 10  1  0
  7  8  1  0
  8  9  1  0
 10 11  1  0
 10 27  2  0
 11 12  2  0
 11 26  1  0
 12 13  1  0
 13 14  2  0
 14 15  1  0
 15 16  1  0
 15 26  2  0
 16 17  2  0
 16 18  1  0
 18 19  2  0
 18 25  1  0
 19 20  1  0
 20 21  2  0
 21 22  1  0
 21 23  1  0
 23 24  1  0
 23 25  2  0
M  END
