
     RDKit          3D

 27 29  0  0  0  0  0  0  0  0999 V2000
    4.7380   -3.1300   -1.3850 C   0  0  0  0  0  0  0  0  0  0  0  0
    3.9880   -2.0870   -1.1260 C   0  0  0  0  0  0  0  0  0  0  0  0
    4.3240   -1.2100   -0.0210 C   0  0  0  0  0  0  0  0  0  0  0  0
    5.4190   -1.3690    0.7960 C   0  0  0  0  0  0  0  0  0  0  0  0
    5.6630   -0.4700    1.8440 C   0  0  0  0  0  0  0  0  0  0  0  0
    4.8100    0.5770    2.0640 C   0  0  0  0  0  0  0  0  0  0  0  0
    5.0970    1.5110    3.1830 C   0  0  0  0  0  0  0  0  0  0  0  0
    3.7060    0.7610    1.2620 C   0  0  0  0  0  0  0  0  0  0  0  0
    3.4730   -0.1310    0.2310 C   0  0  0  0  0  0  0  0  0  0  0  0
    2.3710    0.0280   -0.5920 O   0  0  0  0  0  0  0  0  0  0  0  0
    1.4810    1.1060   -0.3750 C   0  0  0  0  0  0  0  0  0  0  0  0
    0.3740    1.0710   -1.3790 C   0  0  0  0  0  0  0  0  0  0  0  0
    0.3800    0.1510   -2.2300 O   0  0  0  0  0  0  0  0  0  0  0  0
   -0.6380    1.9880   -1.4130 O   0  0  0  0  0  0  0  0  0  0  0  0
   -1.6710    1.9240   -2.3760 C   0  0  0  0  0  0  0  0  0  0  0  0
   -2.4700    0.6380   -2.3040 C   0  0  0  0  0  0  0  0  0  0  0  0
   -3.1320    0.4520   -0.9890 C   0  0  0  0  0  0  0  0  0  0  0  0
   -3.0760    1.3940    0.0160 C   0  0  0  0  0  0  0  0  0  0  0  0
   -3.7030    1.2000    1.2300 C   0  0  0  0  0  0  0  0  0  0  0  0
   -3.6260    2.1890    2.2420 N   0  0  0  0  0  0  0  0  0  0  0  0
   -4.3970    0.0260    1.4180 C   0  0  0  0  0  0  0  0  0  0  0  0
   -4.4650   -0.9330    0.4200 C   0  0  0  0  0  0  0  0  0  0  0  0
   -5.1820   -2.0990    0.6700 C   0  0  0  0  0  0  0  0  0  0  0  0
   -5.2750   -3.0760   -0.2900 C   0  0  0  0  0  0  0  0  0  0  0  0
   -4.6390   -2.8540   -1.4910 C   0  0  0  0  0  0  0  0  0  0  0  0
   -3.9290   -1.7000   -1.7400 C   0  0  0  0  0  0  0  0  0  0  0  0
   -3.8250   -0.7110   -0.7880 C   0  0  0  0  0  0  0  0  0  0  0  0
  1  2  2  0
  2  3  1  0
  3  4  2  0
  3  9  1  0
  4  5  1  0
  5  6  2  0
  6  7  1  0
  6  8  1  0
  8  9  2  0
  9 10  1  0
 10 11  1  0
 11 12  1  0
 12 13  2  0
 12 14  1  0
 14 15  1  0
 15 16  1  0
 16 17  1  0
 17 18  2  0
 17 27  1  0
 18 19  1  0
 19 20  1  0
 19 21  2  0
 21 22  1  0
 22 23  2  0
 22 27  1  0
 23 24  1  0
 24 25  2  0
 25 26  1  0
 26 27  2  0
M  END
