
     RDKit          3D

 33 34  0  0  0  0  0  0  0  0999 V2000
    0.3420    1.4530   -3.9740 O   0  0  0  0  0  0  0  0  0  0  0  0
    0.3140    1.6920   -2.5820 C   0  0  0  0  0  0  0  0  0  0  0  0
   -1.0910    1.9340   -2.1380 C   0  0  0  0  0  0  0  0  0  0  0  0
   -1.7780    3.0310   -2.7160 O   0  0  0  0  0  0  0  0  0  0  0  0
   -1.7390    1.2050   -1.2440 C   0  0  0  0  0  0  0  0  0  0  0  0
   -1.0400    0.1450   -0.6860 O   0  0  0  0  0  0  0  0  0  0  0  0
   -0.8460   -0.3660    0.5750 C   0  0  0  0  0  0  0  0  0  0  0  0
   -0.5110   -1.7950    0.7320 C   0  0  2  0  0  0  0  0  0  0  0  0
    0.9280   -2.1220    0.4820 C   0  0  0  0  0  0  0  0  0  0  0  0
    1.9370   -1.5220    1.0890 O   0  0  0  0  0  0  0  0  0  0  0  0
    2.2320   -0.2260    0.8170 C   0  0  2  0  0  0  0  0  0  0  0  0
    3.5230   -0.1020    0.2400 O   0  0  0  0  0  0  0  0  0  0  0  0
    4.3240    0.1870    1.3310 C   0  0  1  0  0  0  0  0  0  0  0  0
    5.6500    0.7660    0.9140 C   0  0  0  0  0  0  0  0  0  0  0  0
    6.2920   -0.1820    0.1200 O   0  0  0  0  0  0  0  0  0  0  0  0
    3.4580    1.2120    2.0360 C   0  0  1  0  0  0  0  0  0  0  0  0
    3.9310    1.4190    3.4360 C   0  0  0  0  0  0  0  0  0  0  0  0
    3.0460    2.2570    4.1260 O   0  0  0  0  0  0  0  0  0  0  0  0
    3.5220    2.5590    1.3270 C   0  0  0  0  0  0  0  0  0  0  0  0
    2.5710    3.3830    1.9090 O   0  0  0  0  0  0  0  0  0  0  0  0
    2.2190    0.6250    1.9230 O   0  0  0  0  0  0  0  0  0  0  0  0
   -1.2020   -2.6990   -0.0870 O   0  0  0  0  0  0  0  0  0  0  0  0
   -2.2240   -2.1790   -0.8040 C   0  0  1  0  0  0  0  0  0  0  0  0
   -1.7790   -1.9060   -2.0820 O   0  0  0  0  0  0  0  0  0  0  0  0
   -3.4370   -3.0750   -0.9620 C   0  0  1  0  0  0  0  0  0  0  0  0
   -4.2860   -2.9950    0.2790 C   0  0  0  0  0  0  0  0  0  0  0  0
   -5.4310   -3.7760    0.2330 O   0  0  0  0  0  0  0  0  0  0  0  0
   -4.0840   -2.6810   -2.0980 O   0  0  0  0  0  0  0  0  0  0  0  0
   -4.7470   -1.4780   -2.0840 C   0  0  0  0  0  0  0  0  0  0  0  0
   -4.3140   -0.4990   -1.2720 O   0  0  0  0  0  0  0  0  0  0  0  0
   -4.2140    0.7730   -0.9530 C   0  0  0  0  0  0  0  0  0  0  0  0
   -3.1170    1.5720   -0.9240 C   0  0  0  0  0  0  0  0  0  0  0  0
   -3.3120    2.9320   -0.5380 O   0  0  0  0  0  0  0  0  0  0  0  0
  1  2  1  0
  2  3  1  0
  3  4  1  0
  3  5  2  3
  5  6  1  0
  5 32  1  0
  6  7  1  0
  7  8  1  0
  8  9  1  6
  8 22  1  0
  9 10  1  0
 11 10  1  1
 11 12  1  0
 11 21  1  0
 12 13  1  0
 13 14  1  6
 13 16  1  0
 14 15  1  0
 16 17  1  1
 16 19  1  0
 16 21  1  0
 17 18  1  0
 19 20  1  0
 22 23  1  0
 23 24  1  6
 23 25  1  0
 25 26  1  1
 25 28  1  0
 26 27  1  0
 28 29  1  0
 29 30  1  0
 30 31  1  0
 31 32  2  0
 32 33  1  0
M  END
