
     RDKit          3D

 32 32  0  0  0  0  0  0  0  0999 V2000
   -4.9930   -1.2940    2.0940 O   0  0  0  0  0  0  0  0  0  0  0  0
   -4.5970   -0.6910    0.8890 C   0  0  0  0  0  0  0  0  0  0  0  0
   -3.1160   -0.8000    0.6840 C   0  0  0  0  0  0  0  0  0  0  0  0
   -2.6230   -0.1850   -0.5870 C   0  0  2  0  0  0  0  0  0  0  0  0
   -1.2450   -0.3680   -0.7420 O   0  0  0  0  0  0  0  0  0  0  0  0
   -0.9870   -1.6930   -1.0760 C   0  0  0  0  0  0  0  0  0  0  0  0
    0.0360   -2.3600   -0.2050 C   0  0  1  0  0  0  0  0  0  0  0  0
   -0.1050   -2.0200    1.1260 O   0  0  0  0  0  0  0  0  0  0  0  0
   -0.2060   -3.8580   -0.3000 C   0  0  0  0  0  0  0  0  0  0  0  0
    0.7010   -4.5710    0.4700 O   0  0  0  0  0  0  0  0  0  0  0  0
    1.4480   -2.0010   -0.6360 C   0  0  0  0  0  0  0  0  0  0  0  0
    1.5030   -0.6880   -1.0980 O   0  0  0  0  0  0  0  0  0  0  0  0
    2.0670    0.1770   -0.1330 C   0  0  1  0  0  0  0  0  0  0  0  0
    3.5550    0.2970   -0.3950 C   0  0  0  0  0  0  0  0  0  0  0  0
    4.1450   -0.9550   -0.3100 O   0  0  0  0  0  0  0  0  0  0  0  0
    5.4990   -0.9230   -0.5430 C   0  0  2  0  0  0  0  0  0  0  0  0
    5.7900   -1.6770   -1.6940 O   0  0  0  0  0  0  0  0  0  0  0  0
    6.2910   -1.5320    0.5940 C   0  0  0  0  0  0  0  0  0  0  0  0
    7.6530   -1.4780    0.3120 O   0  0  0  0  0  0  0  0  0  0  0  0
    1.3840    1.5160   -0.3050 C   0  0  2  0  0  0  0  0  0  0  0  0
    2.3320    2.5360   -0.2450 O   0  0  0  0  0  0  0  0  0  0  0  0
    0.4330    1.6990    0.8600 C   0  0  0  0  0  0  0  0  0  0  0  0
   -0.5770    2.5680    0.6560 O   0  0  0  0  0  0  0  0  0  0  0  0
   -1.8950    2.8030    0.7990 C   0  0  0  0  0  0  0  0  0  0  0  0
   -2.2300    3.8910    1.8330 C   0  0  0  0  0  0  0  0  0  0  0  0
   -1.5960    5.0870    1.4160 O   0  0  0  0  0  0  0  0  0  0  0  0
   -2.9260    2.2310    0.1660 C   0  0  0  0  0  0  0  0  0  0  0  0
   -4.1820    2.7630    0.6090 O   0  0  0  0  0  0  0  0  0  0  0  0
   -3.0360    1.2230   -0.8460 C   0  0  2  0  0  0  0  0  0  0  0  0
   -4.4280    1.0990   -1.1970 O   0  0  0  0  0  0  0  0  0  0  0  0
   -2.4280    1.6220   -2.1910 C   0  0  0  0  0  0  0  0  0  0  0  0
   -2.9410    2.7870   -2.6880 O   0  0  0  0  0  0  0  0  0  0  0  0
  1  2  1  0
  2  3  1  0
  4  3  1  1
  4  5  1  0
  4 29  1  0
  5  6  1  0
  6  7  1  0
  7  8  1  1
  7  9  1  0
  7 11  1  0
  9 10  1  0
 11 12  1  0
 12 13  1  0
 13 14  1  6
 13 20  1  0
 14 15  1  0
 15 16  1  0
 16 17  1  6
 16 18  1  0
 18 19  1  0
 20 21  1  1
 20 22  1  0
 22 23  1  0
 23 24  1  0
 24 25  1  0
 24 27  2  0
 25 26  1  0
 27 28  1  0
 27 29  1  0
 29 30  1  6
 29 31  1  0
 31 32  1  0
M  END
