
     RDKit          3D

 32 33  0  0  0  0  0  0  0  0999 V2000
   -3.5930   -1.2690   -1.8280 O   0  0  0  0  0  0  0  0  0  0  0  0
   -4.0650   -0.6820   -0.8350 C   0  0  0  0  0  0  0  0  0  0  0  0
   -3.3120    0.0950   -0.0570 O   0  0  0  0  0  0  0  0  0  0  0  0
   -2.0000    0.4180   -0.0820 C   0  0  0  0  0  0  0  0  0  0  0  0
   -1.0130   -0.6190    0.3440 C   0  0  1  0  0  0  0  0  0  0  0  0
   -0.9470   -1.8740   -0.4050 C   0  0  1  0  0  0  0  0  0  0  0  0
   -0.6430   -1.6220   -1.7410 O   0  0  0  0  0  0  0  0  0  0  0  0
    0.1090   -2.7140    0.0270 O   0  0  0  0  0  0  0  0  0  0  0  0
    1.3320   -2.1190   -0.0910 C   0  0  0  0  0  0  0  0  0  0  0  0
    1.4130   -0.9700    0.8850 C   0  0  1  0  0  0  0  0  0  0  0  0
    1.2350   -1.5030    2.2590 C   0  0  0  0  0  0  0  0  0  0  0  0
    2.2330   -2.4440    2.5730 O   0  0  0  0  0  0  0  0  0  0  0  0
    2.7400   -0.2790    0.7920 C   0  0  0  0  0  0  0  0  0  0  0  0
    3.4260   -0.2680    1.8360 O   0  0  0  0  0  0  0  0  0  0  0  0
    3.1790    0.3020   -0.3510 O   0  0  0  0  0  0  0  0  0  0  0  0
    4.3940    0.9460   -0.5100 C   0  0  0  0  0  0  0  0  0  0  0  0
    5.5890    0.0720   -0.3780 C   0  0  2  0  0  0  0  0  0  0  0  0
    5.6990   -0.5210    0.8580 O   0  0  0  0  0  0  0  0  0  0  0  0
    6.8860    0.8210   -0.6290 C   0  0  0  0  0  0  0  0  0  0  0  0
    6.8700    1.4610   -1.8670 O   0  0  0  0  0  0  0  0  0  0  0  0
    8.0460    2.1340   -2.0830 C   0  0  0  0  0  0  0  0  0  0  0  0
    8.3270    3.1100   -1.1520 O   0  0  0  0  0  0  0  0  0  0  0  0
    0.3760    0.0390    0.5150 C   0  0  1  0  0  0  0  0  0  0  0  0
    0.7250    0.7180   -0.6490 O   0  0  0  0  0  0  0  0  0  0  0  0
   -5.5420   -0.8690   -0.5170 C   0  0  2  0  0  0  0  0  0  0  0  0
   -6.1110   -1.7080   -1.4360 O   0  0  0  0  0  0  0  0  0  0  0  0
   -6.1380    0.5180   -0.5240 C   0  0  2  0  0  0  0  0  0  0  0  0
   -6.0000    1.1590   -1.7450 O   0  0  0  0  0  0  0  0  0  0  0  0
   -5.6350    1.3510    0.6340 C   0  0  0  0  0  0  0  0  0  0  0  0
   -6.8050    2.2450    0.9000 C   0  0  0  0  0  0  0  0  0  0  0  0
   -7.9250    1.7040    0.3360 O   0  0  0  0  0  0  0  0  0  0  0  0
   -7.6240    0.4880   -0.2120 C   0  0  0  0  0  0  0  0  0  0  0  0
  1  2  2  0
  2  3  1  0
  2 25  1  0
  3  4  1  0
  5  4  1  6
  5  6  1  0
  5 23  1  0
  6  7  1  6
  6  8  1  0
  8  9  1  0
  9 10  1  0
 10 11  1  1
 10 13  1  0
 10 23  1  0
 11 12  1  0
 13 14  2  0
 13 15  1  0
 15 16  1  0
 16 17  1  0
 17 18  1  1
 17 19  1  0
 19 20  1  0
 20 21  1  0
 21 22  1  0
 23 24  1  6
 25 26  1  6
 25 27  1  0
 27 28  1  6
 27 29  1  0
 27 32  1  0
 29 30  1  0
 30 31  1  0
 31 32  1  0
M  END
