
     RDKit          3D

 32 34  0  0  0  0  0  0  0  0999 V2000
    5.9900   -2.5740    0.3880 C   0  0  0  0  0  0  0  0  0  0  0  0
    5.2430   -1.3820    0.5800 O   0  0  0  0  0  0  0  0  0  0  0  0
    3.8770   -1.3210    0.5220 C   0  0  0  0  0  0  0  0  0  0  0  0
    3.2110   -2.3390    0.2900 O   0  0  0  0  0  0  0  0  0  0  0  0
    3.1300   -0.0170    0.7360 C   0  0  1  0  0  0  0  0  0  0  0  0
    4.0620    0.8920    0.9550 O   0  0  0  0  0  0  0  0  0  0  0  0
    4.0900    2.1240    0.4420 C   0  0  2  0  0  0  0  0  0  0  0  0
    5.2810    2.7640    0.6110 O   0  0  0  0  0  0  0  0  0  0  0  0
    2.8890    2.9760    0.8870 C   0  0  0  0  0  0  0  0  0  0  0  0
    1.7970    2.3020    0.3520 O   0  0  0  0  0  0  0  0  0  0  0  0
    2.2140    1.6170   -0.7830 C   0  0  1  0  0  0  0  0  0  0  0  0
    3.6900    1.9830   -1.0300 C   0  0  0  0  0  0  0  0  0  0  0  0
    2.1650    0.1350   -0.4600 C   0  0  2  0  0  0  0  0  0  0  0  0
    0.7520   -0.1390    0.0440 C   0  0  1  0  0  0  0  0  0  0  0  0
    0.8080   -1.4390    0.6870 O   0  0  0  0  0  0  0  0  0  0  0  0
    0.4150    0.7650    1.0110 O   0  0  0  0  0  0  0  0  0  0  0  0
   -0.3230   -0.3190   -0.9400 C   0  0  2  0  0  0  0  0  0  0  0  0
   -0.0320   -1.4240   -1.8350 O   0  0  0  0  0  0  0  0  0  0  0  0
   -0.4430    0.8100   -2.0130 C   0  0  0  0  0  0  0  0  0  0  0  0
   -1.5930    0.3540   -2.7560 O   0  0  0  0  0  0  0  0  0  0  0  0
   -1.5670   -0.4030   -0.4800 O   0  0  0  0  0  0  0  0  0  0  0  0
   -2.2460   -1.2790    0.1840 C   0  0  2  0  0  0  0  0  0  0  0  0
   -1.8680   -1.5430    1.5980 C   0  0  0  0  0  0  0  0  0  0  0  0
   -2.3520   -2.5600   -0.4260 O   0  0  0  0  0  0  0  0  0  0  0  0
   -3.7560   -0.8900    0.2770 C   0  0  1  0  0  0  0  0  0  0  0  0
   -3.9350    0.4180    0.9570 C   0  0  0  0  0  0  0  0  0  0  0  0
   -5.4020    0.6710    1.1610 C   0  0  1  0  0  0  0  0  0  0  0  0
   -5.6340    2.0420    1.2850 O   0  0  0  0  0  0  0  0  0  0  0  0
   -6.2820    0.0660    0.1190 C   0  0  0  0  0  0  0  0  0  0  0  0
   -5.5960   -0.1640   -1.1240 O   0  0  0  0  0  0  0  0  0  0  0  0
   -4.4090   -0.8830   -1.0250 C   0  0  0  0  0  0  0  0  0  0  0  0
   -4.0070   -1.4620   -2.0660 O   0  0  0  0  0  0  0  0  0  0  0  0
  1  2  1  0
  2  3  1  0
  3  4  2  0
  5  3  1  6
  5  6  1  0
 13  5  1  1
  6  7  1  0
  7  8  1  6
  7  9  1  0
  7 12  1  0
  9 10  1  0
 11 10  1  1
 11 12  1  0
 11 13  1  0
 13 14  1  0
 14 15  1  1
 14 16  1  0
 14 17  1  0
 17 18  1  6
 17 19  1  0
 17 21  1  0
 19 20  1  0
 21 22  1  0
 22 23  1  1
 22 24  1  0
 22 25  1  0
 25 26  1  6
 25 31  1  0
 26 27  1  0
 27 28  1  6
 27 29  1  0
 29 30  1  0
 30 31  1  0
 31 32  2  0
M  END
