
     RDKit          3D

 32 33  0  0  0  0  0  0  0  0999 V2000
   -2.5730   -0.5680    3.8650 O   0  0  0  0  0  0  0  0  0  0  0  0
   -2.9960    0.3260    3.0930 C   0  0  0  0  0  0  0  0  0  0  0  0
   -3.8270    1.3170    3.5910 O   0  0  0  0  0  0  0  0  0  0  0  0
   -2.6530    0.3850    1.6590 C   0  0  1  0  0  0  0  0  0  0  0  0
   -1.8420   -0.6020    1.2240 O   0  0  0  0  0  0  0  0  0  0  0  0
   -2.1620   -0.9070   -0.0550 C   0  0  2  0  0  0  0  0  0  0  0  0
   -1.1550   -0.5580   -1.1230 C   0  0  2  0  0  0  0  0  0  0  0  0
   -1.7040   -1.0510   -2.3400 O   0  0  0  0  0  0  0  0  0  0  0  0
   -1.9580   -2.4010   -2.2800 C   0  0  0  0  0  0  0  0  0  0  0  0
   -0.9550   -3.2680   -1.6190 C   0  0  0  0  0  0  0  0  0  0  0  0
   -0.6080   -2.9930   -0.3310 O   0  0  0  0  0  0  0  0  0  0  0  0
    0.5390   -2.1540   -0.2140 C   0  0  0  0  0  0  0  0  0  0  0  0
    0.2430   -0.9210   -0.9880 C   0  0  1  0  0  0  0  0  0  0  0  0
    0.6810   -1.3030   -2.3170 O   0  0  0  0  0  0  0  0  0  0  0  0
    1.2640    0.2410   -0.7520 C   0  0  2  0  0  0  0  0  0  0  0  0
    1.1720    1.1230   -1.9610 C   0  0  0  0  0  0  0  0  0  0  0  0
    1.5120    0.4850   -3.1330 O   0  0  0  0  0  0  0  0  0  0  0  0
    2.5590   -0.5020   -0.8090 C   0  0  0  0  0  0  0  0  0  0  0  0
    3.8710    0.0530   -0.6500 C   0  0  0  0  0  0  0  0  0  0  0  0
    4.4060    1.1200   -1.5460 C   0  0  0  0  0  0  0  0  0  0  0  0
    5.7700    1.4110   -1.1680 O   0  0  0  0  0  0  0  0  0  0  0  0
    0.9930    0.9710    0.5130 C   0  0  1  0  0  0  0  0  0  0  0  0
    1.0760    0.1740    1.6530 O   0  0  0  0  0  0  0  0  0  0  0  0
    1.5590    2.3210    0.7090 C   0  0  2  0  0  0  0  0  0  0  0  0
    2.8520    2.4820    1.0560 O   0  0  0  0  0  0  0  0  0  0  0  0
    0.7500    2.9540    1.8750 C   0  0  0  0  0  0  0  0  0  0  0  0
    1.0290    2.3160    3.0660 O   0  0  0  0  0  0  0  0  0  0  0  0
   -3.3890   -0.2290   -0.3610 O   0  0  0  0  0  0  0  0  0  0  0  0
   -3.9040    0.1820    0.8350 C   0  0  1  0  0  0  0  0  0  0  0  0
   -4.6960   -0.9070    1.4940 C   0  0  0  0  0  0  0  0  0  0  0  0
   -4.7920   -2.0040    0.9110 O   0  0  0  0  0  0  0  0  0  0  0  0
   -5.3120   -0.7300    2.7080 O   0  0  0  0  0  0  0  0  0  0  0  0
  1  2  2  0
  2  3  1  0
  4  2  1  1
  4  5  1  0
  4 29  1  0
  6  5  1  1
  6  7  1  0
  6 28  1  0
  7  8  1  6
  7 13  1  0
  8  9  1  0
  9 10  1  0
 10 11  1  0
 11 12  1  0
 12 13  1  0
 13 14  1  6
 13 15  1  0
 15 16  1  6
 15 18  1  0
 15 22  1  0
 16 17  1  0
 18 19  1  0
 19 20  1  0
 20 21  1  0
 22 23  1  1
 22 24  1  0
 24 25  1  1
 24 26  1  0
 26 27  1  0
 28 29  1  0
 29 30  1  1
 30 31  2  0
 30 32  1  0
M  END
