
     RDKit          3D

 30 33  0  0  0  0  0  0  0  0999 V2000
   -5.5970   -0.2360   -1.9030 C   0  0  0  0  0  0  0  0  0  0  0  0
   -4.8970   -1.4070   -1.3370 C   0  0  0  0  0  0  0  0  0  0  0  0
   -5.3270   -2.6680   -1.5120 C   0  0  0  0  0  0  0  0  0  0  0  0
   -4.4190   -3.5820   -0.8280 C   0  0  0  0  0  0  0  0  0  0  0  0
   -3.4180   -2.6710   -0.2360 C   0  0  0  0  0  0  0  0  0  0  0  0
   -3.6930   -1.3900   -0.5330 C   0  0  0  0  0  0  0  0  0  0  0  0
   -2.8630   -0.3150   -0.0440 C   0  0  0  0  0  0  0  0  0  0  0  0
   -1.8550   -0.6340    0.7340 N   0  0  0  0  0  0  0  0  0  0  0  0
   -0.8540    0.1040    1.3900 C   0  0  0  0  0  0  0  0  0  0  0  0
    0.2780   -0.6390    1.9000 N   0  0  0  0  0  0  0  0  0  0  0  0
    1.1140   -1.3960    1.0740 C   0  0  0  0  0  0  0  0  0  0  0  0
    0.9260   -1.4690   -0.1480 O   0  0  0  0  0  0  0  0  0  0  0  0
    2.2600   -2.1230    1.7360 C   0  0  0  0  0  0  0  0  0  0  0  0
    3.0430   -2.8750    0.7110 C   0  0  0  0  0  0  0  0  0  0  0  0
    3.5920   -2.0960   -0.2770 O   0  0  0  0  0  0  0  0  0  0  0  0
    4.5370   -1.1090   -0.2200 C   0  0  0  0  0  0  0  0  0  0  0  0
    5.1860   -0.6910    0.9190 C   0  0  0  0  0  0  0  0  0  0  0  0
    6.1430    0.3290    0.9140 C   0  0  0  0  0  0  0  0  0  0  0  0
    6.4650    0.9530   -0.2630 C   0  0  0  0  0  0  0  0  0  0  0  0
    5.8390    0.5640   -1.4250 C   0  0  0  0  0  0  0  0  0  0  0  0
    6.2020    1.2530   -2.6910 C   0  0  0  0  0  0  0  0  0  0  0  0
    4.9050   -0.4350   -1.4010 C   0  0  0  0  0  0  0  0  0  0  0  0
   -0.8330    1.4110    1.5910 C   0  0  0  0  0  0  0  0  0  0  0  0
   -1.8480    2.4050    1.1780 C   0  0  0  0  0  0  0  0  0  0  0  0
   -1.7260    3.6320    1.7770 C   0  0  0  0  0  0  0  0  0  0  0  0
   -2.5670    4.6930    1.5220 C   0  0  0  0  0  0  0  0  0  0  0  0
   -3.5960    4.4900    0.5980 C   0  0  0  0  0  0  0  0  0  0  0  0
   -3.7450    3.2490   -0.0290 C   0  0  0  0  0  0  0  0  0  0  0  0
   -2.8740    2.2380    0.2720 C   0  0  0  0  0  0  0  0  0  0  0  0
   -3.1470    1.0320   -0.4420 N   0  0  0  0  0  0  0  0  0  0  0  0
  1  2  1  0
  2  3  2  0
  2  6  1  0
  3  4  1  0
  4  5  1  0
  5  6  2  0
  6  7  1  0
  7  8  2  0
  7 30  1  0
  8  9  1  0
  9 10  1  0
  9 23  2  0
 10 11  1  0
 11 12  2  0
 11 13  1  0
 13 14  1  0
 14 15  1  0
 15 16  1  0
 16 17  2  0
 16 22  1  0
 17 18  1  0
 18 19  2  0
 19 20  1  0
 20 21  1  0
 20 22  2  0
 23 24  1  0
 24 25  2  0
 24 29  1  0
 25 26  1  0
 26 27  2  0
 27 28  1  0
 28 29  2  0
 29 30  1  0
M  END
