
     RDKit          3D

 30 33  0  0  0  0  0  0  0  0999 V2000
    5.6530    3.3650    0.1620 C   0  0  0  0  0  0  0  0  0  0  0  0
    4.5650    2.3820   -0.2200 C   0  0  0  0  0  0  0  0  0  0  0  0
    3.8700    1.8830    1.0210 C   0  0  0  0  0  0  0  0  0  0  0  0
    2.7950    0.9190    0.7350 C   0  0  0  0  0  0  0  0  0  0  0  0
    3.0400   -0.4100    0.9610 C   0  0  0  0  0  0  0  0  0  0  0  0
    2.0880   -1.3520    0.7140 C   0  0  0  0  0  0  0  0  0  0  0  0
    2.2920   -2.7030    0.9280 C   0  0  0  0  0  0  0  0  0  0  0  0
    3.6200   -3.1120    1.4490 C   0  0  0  0  0  0  0  0  0  0  0  0
    1.3220   -3.6190    0.6720 C   0  0  0  0  0  0  0  0  0  0  0  0
    0.1060   -3.2470    0.1950 C   0  0  0  0  0  0  0  0  0  0  0  0
   -0.9780   -4.2270   -0.0950 C   0  0  0  0  0  0  0  0  0  0  0  0
   -0.1460   -1.9230   -0.0330 C   0  0  0  0  0  0  0  0  0  0  0  0
   -1.4010   -1.4560   -0.5340 N   0  0  0  0  0  0  0  0  0  0  0  0
   -1.7030   -1.3110   -1.9020 C   0  0  0  0  0  0  0  0  0  0  0  0
   -0.8100   -1.6120   -2.7340 O   0  0  0  0  0  0  0  0  0  0  0  0
   -3.0020   -0.8280   -2.4260 C   0  0  0  0  0  0  0  0  0  0  0  0
   -3.9390   -0.5180   -1.3700 N   0  0  0  0  0  0  0  0  0  0  0  0
   -4.8160   -1.3710   -0.8250 C   0  0  0  0  0  0  0  0  0  0  0  0
   -4.9650   -2.6010   -1.1520 O   0  0  0  0  0  0  0  0  0  0  0  0
   -5.4990   -0.7010    0.1170 N   0  0  0  0  0  0  0  0  0  0  0  0
   -5.0570    0.5660    0.1660 C   0  0  0  0  0  0  0  0  0  0  0  0
   -5.4060    1.6630    0.9390 C   0  0  0  0  0  0  0  0  0  0  0  0
   -4.7480    2.8540    0.7440 C   0  0  0  0  0  0  0  0  0  0  0  0
   -3.7540    2.9900   -0.1960 C   0  0  0  0  0  0  0  0  0  0  0  0
   -3.4070    1.9040   -0.9630 C   0  0  0  0  0  0  0  0  0  0  0  0
   -4.0640    0.6990   -0.7740 C   0  0  0  0  0  0  0  0  0  0  0  0
    0.8510   -0.9800    0.2300 C   0  0  0  0  0  0  0  0  0  0  0  0
    0.6310    0.3670    0.0110 C   0  0  0  0  0  0  0  0  0  0  0  0
    1.5760    1.3390    0.2520 C   0  0  0  0  0  0  0  0  0  0  0  0
    1.3220    2.7780    0.0130 C   0  0  0  0  0  0  0  0  0  0  0  0
  1  2  1  0
  2  3  1  0
  3  4  1  0
  4  5  2  0
  4 29  1  0
  5  6  1  0
  6  7  2  0
  6 27  1  0
  7  8  1  0
  7  9  1  0
  9 10  2  0
 10 11  1  0
 10 12  1  0
 12 13  1  0
 12 27  2  0
 13 14  1  0
 14 15  2  0
 14 16  1  0
 16 17  1  0
 17 18  1  0
 17 26  1  0
 18 19  2  0
 18 20  1  0
 20 21  1  0
 21 22  2  0
 21 26  1  0
 22 23  1  0
 23 24  2  0
 24 25  1  0
 25 26  2  0
 27 28  1  0
 28 29  2  0
 29 30  1  0
M  END
