
     RDKit          3D

 30 33  0  0  0  0  0  0  0  0999 V2000
   -7.9100    1.8180    2.2230 C   0  0  0  0  0  0  0  0  0  0  0  0
   -7.4700    0.5940    1.5140 C   0  0  0  0  0  0  0  0  0  0  0  0
   -6.2300    0.4960    1.1120 C   0  0  0  0  0  0  0  0  0  0  0  0
   -5.7480   -0.6820    0.4130 C   0  0  0  0  0  0  0  0  0  0  0  0
   -4.5070   -0.7430    0.0150 C   0  0  0  0  0  0  0  0  0  0  0  0
   -3.9930   -1.9500   -0.7060 C   0  0  0  0  0  0  0  0  0  0  0  0
   -3.5190    0.3840    0.2520 C   0  0  0  0  0  0  0  0  0  0  0  0
   -2.2260    0.1410   -0.3650 C   0  0  0  0  0  0  0  0  0  0  0  0
   -1.2130    1.0910   -0.4900 N   0  0  0  0  0  0  0  0  0  0  0  0
    0.0460    0.5710   -1.0380 C   0  0  0  0  0  0  0  0  0  0  0  0
    0.2530   -0.7220   -1.4000 C   0  0  0  0  0  0  0  0  0  0  0  0
    1.4640   -1.1480   -1.9250 C   0  0  0  0  0  0  0  0  0  0  0  0
    2.4950   -0.2590   -2.0940 C   0  0  0  0  0  0  0  0  0  0  0  0
    3.7290   -0.5890   -2.7320 C   0  0  0  0  0  0  0  0  0  0  0  0
    4.9010   -0.7860   -2.1990 C   0  0  0  0  0  0  0  0  0  0  0  0
    6.0450   -1.0990   -3.0280 O   0  0  0  0  0  0  0  0  0  0  0  0
    7.2060   -1.1400   -2.2930 C   0  0  0  0  0  0  0  0  0  0  0  0
    6.8160   -1.0530   -0.8840 C   0  0  0  0  0  0  0  0  0  0  0  0
    7.5230   -1.1620    0.2790 C   0  0  0  0  0  0  0  0  0  0  0  0
    6.8730   -1.0000    1.4760 C   0  0  0  0  0  0  0  0  0  0  0  0
    5.5250   -0.7320    1.5410 C   0  0  0  0  0  0  0  0  0  0  0  0
    4.7950   -0.6210    0.3510 C   0  0  0  0  0  0  0  0  0  0  0  0
    3.4580   -0.3620    0.4330 O   0  0  0  0  0  0  0  0  0  0  0  0
    2.7820   -0.1980    1.6610 C   0  0  0  0  0  0  0  0  0  0  0  0
    5.4540   -0.7830   -0.8510 C   0  0  0  0  0  0  0  0  0  0  0  0
    2.2510    1.0740   -1.7090 C   0  0  0  0  0  0  0  0  0  0  0  0
    1.0680    1.4200   -1.2120 N   0  0  0  0  0  0  0  0  0  0  0  0
   -3.9080    1.4420    0.8690 C   0  0  0  0  0  0  0  0  0  0  0  0
   -3.0410    2.6160    1.1730 C   0  0  0  0  0  0  0  0  0  0  0  0
   -5.2990    1.5270    1.3220 N   0  0  0  0  0  0  0  0  0  0  0  0
  1  2  1  0
  2  3  2  3
  3  4  1  0
  3 30  1  0
  4  5  2  0
  5  6  1  0
  5  7  1  0
  7  8  1  0
  7 28  2  0
  8  9  1  0
  9 10  1  0
 10 11  2  0
 10 27  1  0
 11 12  1  0
 12 13  2  0
 13 14  1  0
 13 26  1  0
 14 15  2  3
 15 16  1  0
 15 25  1  0
 16 17  1  0
 17 18  1  0
 18 19  2  0
 18 25  1  0
 19 20  1  0
 20 21  2  0
 21 22  1  0
 22 23  1  0
 22 25  2  0
 23 24  1  0
 26 27  2  0
 28 29  1  0
 28 30  1  0
M  END
