
     RDKit          3D

 13 13  0  0  0  0  0  0  0  0999 V2000
   -2.9470    1.2460    0.1930 N   0  0  0  0  0  0  0  0  0  0  0  0
   -2.3660   -0.0130   -0.0420 C   0  0  1  0  0  0  0  0  0  0  0  0
   -2.9580   -0.6150   -1.1580 O   0  0  0  0  0  0  0  0  0  0  0  0
   -0.9440    0.1490   -0.2700 N   0  0  0  0  0  0  0  0  0  0  0  0
    0.0420   -0.4860    0.5330 C   0  0  0  0  0  0  0  0  0  0  0  0
   -0.3560   -1.2150    1.4770 O   0  0  0  0  0  0  0  0  0  0  0  0
    1.4720   -0.2940    0.2650 C   0  0  0  0  0  0  0  0  0  0  0  0
    1.9670    0.4270   -0.6690 N   0  0  0  0  0  0  0  0  0  0  0  0
    3.3930    0.3830   -0.6340 C   0  0  0  0  0  0  0  0  0  0  0  0
    4.2420    0.9320   -1.3530 O   0  0  0  0  0  0  0  0  0  0  0  0
    3.7200   -0.5000    0.4990 C   0  0  0  0  0  0  0  0  0  0  0  0
    4.8790   -0.7980    0.8660 O   0  0  0  0  0  0  0  0  0  0  0  0
    2.4860   -0.8820    1.0080 O   0  0  0  0  0  0  0  0  0  0  0  0
  2  1  1  6
  2  3  1  0
  2  4  1  0
  4  5  1  0
  5  6  2  0
  5  7  1  0
  7  8  2  0
  7 13  1  0
  8  9  1  0
  9 10  2  0
  9 11  1  0
 11 12  2  0
 11 13  1  0
M  END
