
     RDKit          3D

 13 13  0  0  0  0  0  0  0  0999 V2000
    4.1990   -0.1510   -0.0350 N   0  0  0  0  0  0  0  0  0  0  0  0
    2.8960    0.3200   -0.2630 C   0  0  0  0  0  0  0  0  0  0  0  0
    2.6040    1.5380   -0.1430 O   0  0  0  0  0  0  0  0  0  0  0  0
    1.8550   -0.5870   -0.6450 N   0  0  0  0  0  0  0  0  0  0  0  0
    0.5810   -0.0870   -0.8630 O   0  0  0  0  0  0  0  0  0  0  0  0
   -0.3770   -0.0140    0.1270 C   0  0  0  0  0  0  0  0  0  0  0  0
   -0.0660   -0.4240    1.2740 O   0  0  0  0  0  0  0  0  0  0  0  0
   -1.7380    0.5190   -0.1000 C   0  0  2  0  0  0  0  0  0  0  0  0
   -2.5180    0.4810    1.0770 O   0  0  0  0  0  0  0  0  0  0  0  0
   -3.8350    0.3090    0.6630 C   0  0  0  0  0  0  0  0  0  0  0  0
   -3.8920   -0.1910   -0.5210 N   0  0  0  0  0  0  0  0  0  0  0  0
   -2.5430   -0.3920   -0.9890 C   0  0  0  0  0  0  0  0  0  0  0  0
   -2.1300   -1.1340   -1.9050 O   0  0  0  0  0  0  0  0  0  0  0  0
  1  2  1  0
  2  3  2  0
  2  4  1  0
  4  5  1  0
  5  6  1  0
  6  7  2  0
  8  6  1  1
  8  9  1  0
  8 12  1  0
  9 10  1  0
 10 11  2  0
 11 12  1  0
 12 13  2  0
M  END
