
     RDKit          3D

 26 28  0  0  0  0  0  0  0  0999 V2000
   -2.7510    3.0640   -1.6220 C   0  0  0  0  0  0  0  0  0  0  0  0
   -1.3240    3.2180   -1.2400 C   0  0  0  0  0  0  0  0  0  0  0  0
   -0.6980    2.3210   -0.5040 C   0  0  0  0  0  0  0  0  0  0  0  0
   -1.4290    1.1220   -0.0400 C   0  0  0  0  0  0  0  0  0  0  0  0
   -2.6870    0.8280   -0.2840 O   0  0  0  0  0  0  0  0  0  0  0  0
   -3.0460   -0.3040    0.2630 C   0  0  0  0  0  0  0  0  0  0  0  0
   -4.3390   -0.9760    0.2310 C   0  0  0  0  0  0  0  0  0  0  0  0
   -5.4060   -0.5180   -0.3930 C   0  0  0  0  0  0  0  0  0  0  0  0
   -6.5490   -1.4320   -0.2330 C   0  0  0  0  0  0  0  0  0  0  0  0
   -6.0000   -2.5280    0.5940 C   0  0  0  0  0  0  0  0  0  0  0  0
   -4.7390   -2.2310    0.8370 C   0  0  0  0  0  0  0  0  0  0  0  0
   -1.9480   -0.7580    0.8940 N   0  0  0  0  0  0  0  0  0  0  0  0
   -0.9270    0.1020    0.7260 C   0  0  0  0  0  0  0  0  0  0  0  0
    0.4280   -0.0140    1.2430 C   0  0  0  0  0  0  0  0  0  0  0  0
    1.3210    0.8410    1.0360 O   0  0  0  0  0  0  0  0  0  0  0  0
    0.7510   -1.1270    2.0050 O   0  0  0  0  0  0  0  0  0  0  0  0
    2.0660   -1.2330    2.4950 C   0  0  0  0  0  0  0  0  0  0  0  0
    3.0790   -1.3340    1.4410 C   0  0  0  0  0  0  0  0  0  0  0  0
    4.3020   -1.3370    1.8200 O   0  0  0  0  0  0  0  0  0  0  0  0
    2.8460   -1.4310    0.0550 N   0  0  0  0  0  0  0  0  0  0  0  0
    3.9300   -1.5210   -0.8770 C   0  0  0  0  0  0  0  0  0  0  0  0
    4.8630   -0.4120   -0.8920 C   0  0  0  0  0  0  0  0  0  0  0  0
    6.0970   -0.2040   -0.3340 C   0  0  0  0  0  0  0  0  0  0  0  0
    6.7160    0.9640   -0.5380 C   0  0  0  0  0  0  0  0  0  0  0  0
    6.1470    1.9370   -1.2810 C   0  0  0  0  0  0  0  0  0  0  0  0
    4.5540    1.0910   -1.7390 S   0  0  0  0  0  0  0  0  0  0  0  0
  1  2  1  0
  2  3  2  3
  3  4  1  0
  4  5  1  0
  4 13  2  0
  5  6  1  0
  6  7  1  0
  6 12  2  0
  7  8  2  0
  7 11  1  0
  8  9  1  0
  9 10  1  0
 10 11  2  0
 12 13  1  0
 13 14  1  0
 14 15  2  0
 14 16  1  0
 16 17  1  0
 17 18  1  0
 18 19  2  0
 18 20  1  0
 20 21  1  0
 21 22  1  0
 22 23  2  0
 22 26  1  0
 23 24  1  0
 24 25  2  0
 25 26  1  0
M  END
