
     RDKit          3D

 26 28  0  0  0  0  0  0  0  0999 V2000
    2.4850    3.6210    0.7740 C   0  0  0  0  0  0  0  0  0  0  0  0
    1.8950    2.3780    0.5470 O   0  0  0  0  0  0  0  0  0  0  0  0
    2.6500    1.2260    0.3070 C   0  0  0  0  0  0  0  0  0  0  0  0
    4.0110    1.3660    0.3020 C   0  0  0  0  0  0  0  0  0  0  0  0
    4.7790    0.2420    0.0670 C   0  0  0  0  0  0  0  0  0  0  0  0
    6.2740    0.3010    0.0430 C   0  0  0  0  0  0  0  0  0  0  0  0
    4.2090   -0.9880   -0.1580 C   0  0  0  0  0  0  0  0  0  0  0  0
    5.0110   -2.2160   -0.4140 C   0  0  0  0  0  0  0  0  0  0  0  0
    2.8150   -1.0670   -0.1400 C   0  0  0  0  0  0  0  0  0  0  0  0
    1.9960    0.0060    0.0860 C   0  0  0  0  0  0  0  0  0  0  0  0
    0.5950    0.0160    0.1210 N   0  0  0  0  0  0  0  0  0  0  0  0
   -0.2860   -1.0680   -0.0680 C   0  0  0  0  0  0  0  0  0  0  0  0
    0.2220   -2.1970   -0.2920 O   0  0  0  0  0  0  0  0  0  0  0  0
   -1.7400   -0.9840   -0.0210 C   0  0  0  0  0  0  0  0  0  0  0  0
   -2.5040    0.1620    0.0730 C   0  0  0  0  0  0  0  0  0  0  0  0
   -2.1100    1.4910    0.1180 O   0  0  0  0  0  0  0  0  0  0  0  0
   -1.9760    2.2460   -1.0940 C   0  0  0  0  0  0  0  0  0  0  0  0
   -3.8230   -0.2820    0.1160 C   0  0  0  0  0  0  0  0  0  0  0  0
   -4.9770    0.5920    0.2300 C   0  0  0  0  0  0  0  0  0  0  0  0
   -4.8910    2.0700    0.3270 C   0  0  0  0  0  0  0  0  0  0  0  0
   -6.1350    0.0470    0.2470 O   0  0  0  0  0  0  0  0  0  0  0  0
   -3.8460   -1.6610    0.0470 N   0  0  0  0  0  0  0  0  0  0  0  0
   -2.5870   -2.0760   -0.0370 C   0  0  0  0  0  0  0  0  0  0  0  0
   -2.6350   -3.8580   -0.1510 S   0  0  0  0  0  0  0  0  0  0  0  0
   -4.3980   -3.8930   -0.7330 C   0  0  0  0  0  0  0  0  0  0  0  0
   -4.8470   -2.6920    0.0630 C   0  0  0  0  0  0  0  0  0  0  0  0
  1  2  1  0
  2  3  1  0
  3  4  2  0
  3 10  1  0
  4  5  1  0
  5  6  1  0
  5  7  2  0
  7  8  1  0
  7  9  1  0
  9 10  2  0
 10 11  1  0
 11 12  1  0
 12 13  2  0
 12 14  1  0
 14 15  1  0
 14 23  2  0
 15 16  1  0
 15 18  2  0
 16 17  1  0
 18 19  1  0
 18 22  1  0
 19 20  1  0
 19 21  2  0
 22 23  1  0
 22 26  1  0
 23 24  1  0
 24 25  1  0
 25 26  1  0
M  END
