
     RDKit          3D

 26 28  0  0  0  0  0  0  0  0999 V2000
   -4.5870   -2.0550   -2.3170 C   0  0  0  0  0  0  0  0  0  0  0  0
   -3.7720   -2.8440   -1.3440 C   0  0  0  0  0  0  0  0  0  0  0  0
   -2.6280   -2.2050   -0.8570 O   0  0  0  0  0  0  0  0  0  0  0  0
   -2.6910   -1.0410   -0.1290 C   0  0  0  0  0  0  0  0  0  0  0  0
   -3.8990   -0.4650    0.1620 C   0  0  0  0  0  0  0  0  0  0  0  0
   -3.9830    0.7220    0.9050 C   0  0  0  0  0  0  0  0  0  0  0  0
   -2.8420    1.3330    1.3580 C   0  0  0  0  0  0  0  0  0  0  0  0
   -2.8870    2.5640    2.1310 C   0  0  0  0  0  0  0  0  0  0  0  0
   -1.6920    3.2530    2.6360 C   0  0  0  0  0  0  0  0  0  0  0  0
   -4.0110    3.0680    2.3810 O   0  0  0  0  0  0  0  0  0  0  0  0
   -1.6130    0.7350    1.0540 C   0  0  0  0  0  0  0  0  0  0  0  0
   -1.5240   -0.4280    0.3280 C   0  0  0  0  0  0  0  0  0  0  0  0
   -0.3010   -1.0050   -0.0060 N   0  0  0  0  0  0  0  0  0  0  0  0
    0.9630   -0.6410    0.5280 C   0  0  0  0  0  0  0  0  0  0  0  0
    1.1230   -0.3120    1.8490 C   0  0  0  0  0  0  0  0  0  0  0  0
    2.3560    0.0820    2.3810 C   0  0  0  0  0  0  0  0  0  0  0  0
    3.4470    0.1330    1.5260 C   0  0  0  0  0  0  0  0  0  0  0  0
    4.7810    0.4730    1.7190 C   0  0  0  0  0  0  0  0  0  0  0  0
    5.3670    0.3280    0.4880 C   0  0  0  0  0  0  0  0  0  0  0  0
    4.4740   -0.0750   -0.4280 N   0  0  0  0  0  0  0  0  0  0  0  0
    4.7340   -0.3920   -2.1080 S   0  0  2  0  0  0  0  0  0  0  0  0
    3.7610    0.6900   -3.1250 C   0  0  0  0  0  0  0  0  0  0  0  0
    4.3540   -1.8050   -2.4570 O   0  0  0  0  0  0  0  0  0  0  0  0
    6.1840   -0.1220   -2.3980 O   0  0  0  0  0  0  0  0  0  0  0  0
    3.2810   -0.2000    0.1980 C   0  0  0  0  0  0  0  0  0  0  0  0
    2.0610   -0.5860   -0.3180 C   0  0  0  0  0  0  0  0  0  0  0  0
  1  2  1  0
  2  3  1  0
  3  4  1  0
  4  5  2  0
  4 12  1  0
  5  6  1  0
  6  7  2  0
  7  8  1  0
  7 11  1  0
  8  9  1  0
  8 10  2  0
 11 12  2  0
 12 13  1  0
 13 14  1  0
 14 15  2  0
 14 26  1  0
 15 16  1  0
 16 17  2  0
 17 18  1  0
 17 25  1  0
 18 19  2  0
 19 20  1  0
 20 21  1  0
 20 25  1  0
 21 22  1  6
 21 23  2  0
 21 24  2  0
 25 26  2  0
M  END
