
     RDKit          3D

 26 28  0  0  0  0  0  0  0  0999 V2000
   -3.0570    2.2470    1.9220 C   0  0  0  0  0  0  0  0  0  0  0  0
   -2.7440    0.9390    1.3820 N   0  0  0  0  0  0  0  0  0  0  0  0
   -1.5780    0.7760    0.6550 N   0  0  0  0  0  0  0  0  0  0  0  0
   -1.5560    0.2760   -0.5560 C   0  0  0  0  0  0  0  0  0  0  0  0
   -0.2650    0.1530   -1.2240 C   0  0  0  0  0  0  0  0  0  0  0  0
    0.9080    0.5600   -0.5710 C   0  0  0  0  0  0  0  0  0  0  0  0
    2.1430    0.4620   -1.1580 C   0  0  0  0  0  0  0  0  0  0  0  0
    3.2590    0.8580   -0.5130 O   0  0  0  0  0  0  0  0  0  0  0  0
    4.5840    0.8500   -0.9060 C   0  0  1  0  0  0  0  0  0  0  0  0
    5.2390    2.2110   -0.8740 C   0  0  0  0  0  0  0  0  0  0  0  0
    6.7070    1.8640   -0.9990 C   0  0  0  0  0  0  0  0  0  0  0  0
    6.8500    0.4230   -0.5610 C   0  0  0  0  0  0  0  0  0  0  0  0
    5.4800    0.0480    0.0170 C   0  0  0  0  0  0  0  0  0  0  0  0
    2.1950   -0.0570   -2.4290 C   0  0  0  0  0  0  0  0  0  0  0  0
    1.0460   -0.4630   -3.0870 C   0  0  0  0  0  0  0  0  0  0  0  0
   -0.2030   -0.3630   -2.4900 C   0  0  0  0  0  0  0  0  0  0  0  0
   -1.3260   -0.7810   -3.1840 O   0  0  0  0  0  0  0  0  0  0  0  0
   -3.6670   -0.1160    1.6340 C   0  0  0  0  0  0  0  0  0  0  0  0
   -4.7160   -0.4110    0.7910 C   0  0  0  0  0  0  0  0  0  0  0  0
   -5.5920   -1.4390    1.0630 C   0  0  0  0  0  0  0  0  0  0  0  0
   -5.4590   -2.2270    2.2000 C   0  0  0  0  0  0  0  0  0  0  0  0
   -6.5780   -3.5330    2.5380 S   0  0  1  0  0  0  0  0  0  0  0  0
   -6.6780   -3.7170    4.0170 O   0  0  0  0  0  0  0  0  0  0  0  0
   -7.9540   -3.2440    2.0110 O   0  0  0  0  0  0  0  0  0  0  0  0
   -4.4100   -1.9330    3.0450 C   0  0  0  0  0  0  0  0  0  0  0  0
   -3.5350   -0.9010    2.7660 C   0  0  0  0  0  0  0  0  0  0  0  0
  1  2  1  0
  2  3  1  0
  2 18  1  0
  3  4  2  3
  4  5  1  0
  5  6  2  0
  5 16  1  0
  6  7  1  0
  7  8  1  0
  7 14  2  0
  9  8  1  1
  9 10  1  0
  9 13  1  0
 10 11  1  0
 11 12  1  0
 12 13  1  0
 14 15  1  0
 15 16  2  0
 16 17  1  0
 18 19  2  0
 18 26  1  0
 19 20  1  0
 20 21  2  0
 22 21  1  1
 21 25  1  0
 22 23  2  0
 22 24  2  0
 25 26  2  0
M  END
