
     RDKit          3D

 26 28  0  0  0  0  0  0  0  0999 V2000
   -1.1490   -0.3930   -3.2120 C   0  0  0  0  0  0  0  0  0  0  0  0
   -2.2590   -0.1650   -2.3680 O   0  0  0  0  0  0  0  0  0  0  0  0
   -2.1350   -0.0290   -0.9960 C   0  0  0  0  0  0  0  0  0  0  0  0
   -0.8460   -0.1230   -0.4290 C   0  0  0  0  0  0  0  0  0  0  0  0
   -0.6720    0.0040    0.9170 C   0  0  0  0  0  0  0  0  0  0  0  0
    0.5680   -0.0780    1.5500 N   0  0  0  0  0  0  0  0  0  0  0  0
    1.8590   -0.2940    0.9650 C   0  0  0  0  0  0  0  0  0  0  0  0
    1.8300   -0.4220   -0.2790 O   0  0  0  0  0  0  0  0  0  0  0  0
    3.0650   -0.3560    1.7490 C   0  0  0  0  0  0  0  0  0  0  0  0
    4.2790   -0.5270    1.5050 C   0  0  0  0  0  0  0  0  0  0  0  0
    5.0200   -0.7420    0.2950 C   0  0  0  0  0  0  0  0  0  0  0  0
    4.8330   -0.8580   -1.0190 C   0  0  0  0  0  0  0  0  0  0  0  0
    5.8750   -1.0690   -1.8580 C   0  0  0  0  0  0  0  0  0  0  0  0
    7.1230   -1.1590   -1.3160 C   0  0  0  0  0  0  0  0  0  0  0  0
    8.4370   -1.3840   -1.9880 C   0  0  0  0  0  0  0  0  0  0  0  0
    6.8280   -0.9450    0.3830 S   0  0  0  0  0  0  0  0  0  0  0  0
   -1.8200    0.2280    1.6780 C   0  0  0  0  0  0  0  0  0  0  0  0
   -1.6830    0.3600    3.0390 O   0  0  0  0  0  0  0  0  0  0  0  0
   -1.4640    1.6910    3.5320 C   0  0  0  0  0  0  0  0  0  0  0  0
   -3.0650    0.3200    1.1320 C   0  0  0  0  0  0  0  0  0  0  0  0
   -3.2460    0.1910   -0.2380 C   0  0  0  0  0  0  0  0  0  0  0  0
   -4.5990    0.2940   -0.7800 C   0  0  0  0  0  0  0  0  0  0  0  0
   -5.5070    1.1130   -0.0640 N   0  0  0  0  0  0  0  0  0  0  0  0
   -6.8500    0.5430   -0.2300 C   0  0  0  0  0  0  0  0  0  0  0  0
   -5.2600    1.2910    1.3220 C   0  0  0  0  0  0  0  0  0  0  0  0
   -4.2170    0.5420    1.8700 O   0  0  0  0  0  0  0  0  0  0  0  0
  1  2  1  0
  2  3  1  0
  3  4  2  0
  3 21  1  0
  4  5  1  0
  5  6  1  0
  5 17  2  0
  6  7  1  0
  7  8  2  0
  7  9  1  0
  9 10  2  3
 10 11  1  0
 11 12  2  0
 11 16  1  0
 12 13  1  0
 13 14  2  0
 14 15  1  0
 14 16  1  0
 17 18  1  0
 17 20  1  0
 18 19  1  0
 20 21  2  0
 20 26  1  0
 21 22  1  0
 22 23  1  0
 23 24  1  0
 23 25  1  0
 25 26  1  0
M  END
