
     RDKit          3D

 26 28  0  0  0  0  0  0  0  0999 V2000
   -1.0320    0.4690    2.6900 C   0  0  0  0  0  0  0  0  0  0  0  0
   -0.5870    1.5480    1.7700 C   0  0  0  0  0  0  0  0  0  0  0  0
    0.1700    1.1140    0.6220 N   0  0  0  0  0  0  0  0  0  0  0  0
   -0.3790    0.9480   -0.5720 C   0  0  0  0  0  0  0  0  0  0  0  0
   -2.0480    1.2630   -1.0190 S   0  0  0  0  0  0  0  0  0  0  0  0
   -3.0700   -0.1960   -0.9410 C   0  0  1  0  0  0  0  0  0  0  0  0
   -3.2990   -0.6090    0.4860 C   0  0  0  0  0  0  0  0  0  0  0  0
   -4.6320   -1.3750    0.5090 C   0  0  0  0  0  0  0  0  0  0  0  0
   -5.6900   -0.2620    0.4210 C   0  0  0  0  0  0  0  0  0  0  0  0
   -5.4810    0.5440   -0.8450 C   0  0  0  0  0  0  0  0  0  0  0  0
   -4.3790   -0.0260   -1.6970 C   0  0  0  0  0  0  0  0  0  0  0  0
    0.4580    0.5030   -1.5950 C   0  0  0  0  0  0  0  0  0  0  0  0
   -0.0740    0.2910   -2.9480 C   0  0  0  0  0  0  0  0  0  0  0  0
    0.6310   -0.0930   -3.8800 O   0  0  0  0  0  0  0  0  0  0  0  0
    1.7970    0.2370   -1.4100 C   0  0  0  0  0  0  0  0  0  0  0  0
    2.3450    0.4140   -0.1730 C   0  0  0  0  0  0  0  0  0  0  0  0
    3.7020    0.1830    0.1520 N   0  0  0  0  0  0  0  0  0  0  0  0
    4.6640   -0.2610   -0.7460 C   0  0  0  0  0  0  0  0  0  0  0  0
    4.4510   -0.5120   -1.9450 O   0  0  0  0  0  0  0  0  0  0  0  0
    6.0490   -0.4600   -0.2830 C   0  0  0  0  0  0  0  0  0  0  0  0
    6.5010   -0.2340    0.9930 C   0  0  0  0  0  0  0  0  0  0  0  0
    7.8390   -0.5450    0.9810 C   0  0  0  0  0  0  0  0  0  0  0  0
    8.1580   -0.9530   -0.3180 C   0  0  0  0  0  0  0  0  0  0  0  0
    7.0560   -0.8820   -1.0240 O   0  0  0  0  0  0  0  0  0  0  0  0
    1.4650    0.8610    0.8180 C   0  0  0  0  0  0  0  0  0  0  0  0
    1.9660    1.0290    1.9790 O   0  0  0  0  0  0  0  0  0  0  0  0
  1  2  1  0
  2  3  1  0
  3  4  1  0
  3 25  1  0
  4  5  1  0
  4 12  2  0
  6  5  1  1
  6  7  1  0
  6 11  1  0
  7  8  1  0
  8  9  1  0
  9 10  1  0
 10 11  1  0
 12 13  1  0
 12 15  1  0
 13 14  2  0
 15 16  2  0
 16 17  1  0
 16 25  1  0
 17 18  1  0
 18 19  2  0
 18 20  1  0
 20 21  2  0
 20 24  1  0
 21 22  1  0
 22 23  2  0
 23 24  1  0
 25 26  2  0
M  END
