
     RDKit          3D

 26 29  0  0  0  0  0  0  0  0999 V2000
    7.5610    2.1690   -0.0650 C   0  0  0  0  0  0  0  0  0  0  0  0
    6.3550    1.6330    0.3180 O   0  0  0  0  0  0  0  0  0  0  0  0
    5.4100    1.6720   -0.7230 C   0  0  0  0  0  0  0  0  0  0  0  0
    4.1140    1.0780   -0.2610 C   0  0  0  0  0  0  0  0  0  0  0  0
    3.0610    1.7130    0.3310 C   0  0  0  0  0  0  0  0  0  0  0  0
    2.0680    0.7470    0.5870 C   0  0  0  0  0  0  0  0  0  0  0  0
    2.5750   -0.4300    0.1310 C   0  0  0  0  0  0  0  0  0  0  0  0
    1.9270   -1.7540    0.1780 C   0  0  0  0  0  0  0  0  0  0  0  0
    2.7890   -2.8170    0.3820 C   0  0  0  0  0  0  0  0  0  0  0  0
    1.7980   -4.2230    0.3550 S   0  0  0  0  0  0  0  0  0  0  0  0
    0.3100   -3.3940    0.0780 C   0  0  0  0  0  0  0  0  0  0  0  0
   -0.9810   -3.8750   -0.0980 N   0  0  0  0  0  0  0  0  0  0  0  0
   -1.9930   -3.0470   -0.3460 C   0  0  0  0  0  0  0  0  0  0  0  0
   -3.1350   -3.5470   -0.4940 O   0  0  0  0  0  0  0  0  0  0  0  0
   -1.7190   -1.7590   -0.4180 N   0  0  0  0  0  0  0  0  0  0  0  0
   -2.8190   -0.8100   -0.6950 C   0  0  0  0  0  0  0  0  0  0  0  0
   -3.4430   -0.3490    0.6050 C   0  0  0  0  0  0  0  0  0  0  0  0
   -4.5380    0.5990    0.2680 C   0  0  0  0  0  0  0  0  0  0  0  0
   -5.8350    0.4770    0.5640 C   0  0  0  0  0  0  0  0  0  0  0  0
   -6.5680    1.6480    0.0400 C   0  0  0  0  0  0  0  0  0  0  0  0
   -5.5230    2.4720   -0.6030 C   0  0  0  0  0  0  0  0  0  0  0  0
   -4.3720    1.8550   -0.4620 C   0  0  0  0  0  0  0  0  0  0  0  0
   -0.4730   -1.2740   -0.2490 C   0  0  0  0  0  0  0  0  0  0  0  0
   -0.3840   -0.0020   -0.3620 O   0  0  0  0  0  0  0  0  0  0  0  0
    0.6240   -2.0890    0.0170 C   0  0  0  0  0  0  0  0  0  0  0  0
    3.7860   -0.1770   -0.3580 O   0  0  0  0  0  0  0  0  0  0  0  0
  1  2  1  0
  2  3  1  0
  3  4  1  0
  4  5  2  0
  4 26  1  0
  5  6  1  0
  6  7  2  0
  7  8  1  0
  7 26  1  0
  8  9  2  0
  8 25  1  0
  9 10  1  0
 10 11  1  0
 11 12  1  0
 11 25  2  0
 12 13  1  0
 13 14  2  0
 13 15  1  0
 15 16  1  0
 15 23  1  0
 16 17  1  0
 17 18  1  0
 18 19  2  0
 18 22  1  0
 19 20  1  0
 20 21  1  0
 21 22  2  0
 23 24  2  0
 23 25  1  0
M  END
