
     RDKit          3D

  7  7  0  0  0  0  0  0  0  0999 V2000
    2.2690   -0.3010   -0.6370 N   0  0  0  0  0  0  0  0  0  0  0  0
    0.9070   -0.1960   -0.2340 C   0  0  0  0  0  0  0  0  0  0  0  0
    0.1910    0.9830   -0.3230 C   0  0  0  0  0  0  0  0  0  0  0  0
   -1.1290    1.0640    0.0730 C   0  0  0  0  0  0  0  0  0  0  0  0
   -1.7640   -0.0480    0.5700 C   0  0  0  0  0  0  0  0  0  0  0  0
   -1.0380   -1.2190    0.6530 C   0  0  0  0  0  0  0  0  0  0  0  0
    0.2460   -1.2640    0.2590 N   0  0  0  0  0  0  0  0  0  0  0  0
  1  2  1  0
  2  3  2  0
  2  7  1  0
  3  4  1  0
  4  5  2  0
  5  6  1  0
  6  7  2  0
M  END
