
     RDKit          3D

  7  7  0  0  0  0  0  0  0  0999 V2000
   -2.3640   -0.0200    0.4530 N   0  0  0  0  0  0  0  0  0  0  0  0
   -1.4750    0.3280   -0.6410 C   0  0  0  0  0  0  0  0  0  0  0  0
   -0.0410    0.0770   -0.2840 C   0  0  0  0  0  0  0  0  0  0  0  0
    0.6910   -1.0720   -0.4670 C   0  0  0  0  0  0  0  0  0  0  0  0
    1.9530   -0.8160    0.0180 C   0  0  0  0  0  0  0  0  0  0  0  0
    1.9980    0.4780    0.4960 C   0  0  0  0  0  0  0  0  0  0  0  0
    0.7650    0.9740    0.2890 N   0  0  0  0  0  0  0  0  0  0  0  0
  1  2  1  0
  2  3  1  0
  3  4  2  0
  3  7  1  0
  4  5  1  0
  5  6  2  0
  6  7  1  0
M  END
