
     RDKit          3D

  9  9  0  0  0  0  0  0  0  0999 V2000
    2.4850   -0.1250   -0.1670 N   0  0  0  0  0  0  0  0  0  0  0  0
    1.0740   -0.1340   -0.1320 C   0  0  0  0  0  0  0  0  0  0  0  0
    0.4530    1.0420    0.0590 C   0  0  0  0  0  0  0  0  0  0  0  0
    1.3200    2.0580    0.1870 F   0  0  0  0  0  0  0  0  0  0  0  0
   -0.9840    1.3230    0.1380 C   0  0  0  0  0  0  0  0  0  0  0  0
   -2.0180    0.4980    0.2010 C   0  0  0  0  0  0  0  0  0  0  0  0
   -1.9430   -0.9220    0.2060 N   0  0  0  0  0  0  0  0  0  0  0  0
   -0.8490   -1.7390   -0.1650 N   0  0  0  0  0  0  0  0  0  0  0  0
    0.4000   -1.4070   -0.3040 C   0  0  0  0  0  0  0  0  0  0  0  0
  1  2  1  0
  2  3  2  0
  2  9  1  0
  3  4  1  0
  3  5  1  0
  5  6  2  0
  6  7  1  0
  7  8  1  0
  8  9  2  0
M  END
