
     RDKit          3D

  8  8  0  0  0  0  0  0  0  0999 V2000
    2.7800    0.0630    0.0460 N   0  0  0  0  0  0  0  0  0  0  0  0
    1.5200    0.6910    0.0250 C   0  0  0  0  0  0  0  0  0  0  0  0
    0.3730    0.0280    0.0020 C   0  0  0  0  0  0  0  0  0  0  0  0
    0.1900   -1.3800   -0.0060 N   0  0  0  0  0  0  0  0  0  0  0  0
   -1.2540   -1.6570   -0.0330 C   0  0  0  0  0  0  0  0  0  0  0  0
   -1.8680   -0.3260   -0.0400 C   0  0  0  0  0  0  0  0  0  0  0  0
   -0.9470    0.6400   -0.0200 C   0  0  0  0  0  0  0  0  0  0  0  0
   -1.2100    2.0380   -0.0200 N   0  0  0  0  0  0  0  0  0  0  0  0
  1  2  1  0
  2  3  2  3
  3  4  1  0
  3  7  1  0
  4  5  1  0
  5  6  1  0
  6  7  2  0
  7  8  1  0
M  END
