
     RDKit          3D

  8  8  0  0  0  0  0  0  0  0999 V2000
    2.3370   -0.9870   -0.5720 N   0  0  0  0  0  0  0  0  0  0  0  0
    1.5880    0.1680   -0.2850 C   0  0  0  0  0  0  0  0  0  0  0  0
    2.1920    1.3030   -0.2230 N   0  0  0  0  0  0  0  0  0  0  0  0
    0.1910    0.0280   -0.0770 N   0  0  0  0  0  0  0  0  0  0  0  0
   -0.8750    0.6080   -0.8780 C   0  0  0  0  0  0  0  0  0  0  0  0
   -2.0300    0.6050    0.0980 C   0  0  0  0  0  0  0  0  0  0  0  0
   -1.8480   -0.8110    0.6730 C   0  0  0  0  0  0  0  0  0  0  0  0
   -0.3830   -0.7540    1.0210 C   0  0  0  0  0  0  0  0  0  0  0  0
  1  2  1  0
  2  3  2  0
  2  4  1  0
  4  5  1  0
  4  8  1  0
  5  6  1  0
  6  7  1  0
  7  8  1  0
M  CHG  1   3   1
M  END
