
     RDKit          3D

  9  9  0  0  0  0  0  0  0  0999 V2000
   -2.0840   -0.3780    1.2120 N   0  0  0  0  0  0  0  0  0  0  0  0
   -2.1840   -0.7770   -0.1340 C   0  0  0  0  0  0  0  0  0  0  0  0
   -3.3650   -1.3550   -0.5350 F   0  0  0  0  0  0  0  0  0  0  0  0
   -1.2560   -0.6520   -1.0470 C   0  0  0  0  0  0  0  0  0  0  0  0
    0.0600   -0.0560   -0.7810 C   0  0  0  0  0  0  0  0  0  0  0  0
    1.0020    0.0700   -1.7100 C   0  0  0  0  0  0  0  0  0  0  0  0
    2.1490    0.6770   -1.1500 N   0  0  0  0  0  0  0  0  0  0  0  0
    1.9650    0.6310    0.3040 C   0  0  0  0  0  0  0  0  0  0  0  0
    0.5380    0.4650    0.4480 N   0  0  0  0  0  0  0  0  0  0  0  0
  1  2  1  0
  2  3  1  0
  2  4  2  3
  4  5  1  0
  5  6  2  0
  5  9  1  0
  6  7  1  0
  7  8  1  0
  8  9  1  0
M  END
