
     RDKit          3D

 31 31  0  0  0  0  0  0  0  0999 V2000
   -6.3130   -0.4640    2.1620 C   0  0  0  0  0  0  0  0  0  0  0  0
   -5.3330   -0.1240    1.3130 C   0  0  0  0  0  0  0  0  0  0  0  0
   -5.6450    0.1750   -0.0470 C   0  0  0  0  0  0  0  0  0  0  0  0
   -4.9620    0.5090   -1.0770 C   0  0  0  0  0  0  0  0  0  0  0  0
   -3.5810    0.7150   -1.3070 C   0  0  0  0  0  0  0  0  0  0  0  0
   -3.2090    1.4310   -2.4050 O   0  0  0  0  0  0  0  0  0  0  0  0
   -1.9360    1.5410   -2.4890 C   0  0  0  0  0  0  0  0  0  0  0  0
   -1.3630    0.8850   -1.4220 C   0  0  0  0  0  0  0  0  0  0  0  0
    0.0860    0.8930   -1.1350 C   0  0  0  0  0  0  0  0  0  0  0  0
    0.8440    1.4120   -1.9840 O   0  0  0  0  0  0  0  0  0  0  0  0
    0.6700    0.3590    0.0200 N   0  0  0  0  0  0  0  0  0  0  0  0
    2.1220    0.4330    0.1930 C   0  0  0  0  0  0  0  0  0  0  0  0
    2.7260   -0.7120    0.2030 C   0  0  0  0  0  0  0  0  0  0  0  0
    4.1300   -1.0030    0.3490 C   0  0  0  0  0  0  0  0  0  0  0  0
    4.5230   -2.2940    0.3440 C   0  0  0  0  0  0  0  0  0  0  0  0
    5.8700   -2.6250    0.4830 N   0  0  0  0  0  0  0  0  0  0  0  0
    6.4460   -2.9200    1.5470 O   0  0  0  0  0  0  0  0  0  0  0  0
    5.1330   -0.0930    0.4920 O   0  0  0  0  0  0  0  0  0  0  0  0
    6.0720    0.0880   -0.5790 C   0  0  0  0  0  0  0  0  0  0  0  0
    2.6880    1.7440    0.3870 C   0  0  0  0  0  0  0  0  0  0  0  0
    3.8900    2.0410    0.5450 O   0  0  0  0  0  0  0  0  0  0  0  0
    1.8150    2.9180    0.4170 N   0  0  0  0  0  0  0  0  0  0  0  0
    2.3380    4.2140    0.5890 C   0  0  0  0  0  0  0  0  0  0  0  0
    3.5750    4.3730    0.7200 O   0  0  0  0  0  0  0  0  0  0  0  0
    1.4490    5.2880    0.6080 O   0  0  0  0  0  0  0  0  0  0  0  0
   -2.4040    0.3610   -0.6840 C   0  0  0  0  0  0  0  0  0  0  0  0
   -2.2440   -0.3590    0.4330 O   0  0  0  0  0  0  0  0  0  0  0  0
   -2.2470   -1.6610    0.7960 C   0  0  0  0  0  0  0  0  0  0  0  0
   -1.4140   -2.6890    0.2100 C   0  0  0  0  0  0  0  0  0  0  0  0
   -0.5360   -2.6790   -0.7300 C   0  0  0  0  0  0  0  0  0  0  0  0
   -1.6130   -3.9840    0.8020 O   0  0  0  0  0  0  0  0  0  0  0  0
  1  2  2  0
  2  3  1  0
  3  4  2  3
  4  5  1  0
  5  6  1  0
  5 26  2  0
  6  7  1  0
  7  8  2  0
  8  9  1  0
  8 26  1  0
  9 10  2  0
  9 11  1  0
 11 12  1  0
 12 13  2  3
 12 20  1  0
 13 14  1  0
 14 15  2  3
 14 18  1  0
 15 16  1  0
 16 17  2  0
 18 19  1  0
 20 21  2  0
 20 22  1  0
 22 23  1  0
 23 24  2  0
 23 25  1  0
 26 27  1  0
 27 28  1  0
 28 29  1  0
 29 30  2  0
 29 31  1  0
M  END
