
     RDKit          3D

 30 32  0  0  0  0  0  0  0  0999 V2000
   -2.9700   -2.5880   -2.6030 C   0  0  0  0  0  0  0  0  0  0  0  0
   -2.9320   -1.1590   -2.6800 O   0  0  0  0  0  0  0  0  0  0  0  0
   -2.4390   -0.4570   -1.5610 C   0  0  0  0  0  0  0  0  0  0  0  0
   -3.2460    0.1980   -0.7500 C   0  0  0  0  0  0  0  0  0  0  0  0
   -4.6030    0.1750   -1.0330 O   0  0  0  0  0  0  0  0  0  0  0  0
   -5.1720    0.5870   -2.2400 C   0  0  0  0  0  0  0  0  0  0  0  0
   -2.8220    0.9600    0.4450 C   0  0  2  0  0  0  0  0  0  0  0  0
   -3.2590    2.2810    0.4120 O   0  0  0  0  0  0  0  0  0  0  0  0
   -4.1830    2.5860    1.3780 C   0  0  0  0  0  0  0  0  0  0  0  0
   -1.3660    0.9510    0.7140 C   0  0  2  0  0  0  0  0  0  0  0  0
   -1.1090    0.3460    2.1010 C   0  0  0  0  0  0  0  0  0  0  0  0
   -0.7570    2.3440    0.7680 C   0  0  0  0  0  0  0  0  0  0  0  0
    0.6060    2.2010    1.3420 C   0  0  0  0  0  0  0  0  0  0  0  0
    1.0240    2.9300    2.2840 O   0  0  0  0  0  0  0  0  0  0  0  0
    1.4520    1.1970    0.7910 N   0  0  0  0  0  0  0  0  0  0  0  0
    0.8830    0.1740   -0.0230 C   0  0  0  0  0  0  0  0  0  0  0  0
    1.6450   -0.7370   -0.5240 N   0  0  0  0  0  0  0  0  0  0  0  0
    3.0290   -0.7970   -0.3240 C   0  0  0  0  0  0  0  0  0  0  0  0
    3.5780   -1.7850    0.4810 C   0  0  0  0  0  0  0  0  0  0  0  0
    2.7020   -2.6910    1.0650 O   0  0  0  0  0  0  0  0  0  0  0  0
    3.1860   -3.7310    1.9020 C   0  0  0  0  0  0  0  0  0  0  0  0
    4.9460   -1.8280    0.6670 C   0  0  0  0  0  0  0  0  0  0  0  0
    5.7660   -0.8960    0.0580 C   0  0  0  0  0  0  0  0  0  0  0  0
    5.2080    0.0650   -0.7280 N   0  0  0  0  0  0  0  0  0  0  0  0
    6.0330    0.9850   -1.3270 O   0  0  0  0  0  0  0  0  0  0  0  0
    5.6980    2.2810   -1.3760 O   0  0  0  0  0  0  0  0  0  0  0  0
    3.8680    0.1230   -0.9220 C   0  0  0  0  0  0  0  0  0  0  0  0
    3.3390    1.0160   -1.6540 O   0  0  0  0  0  0  0  0  0  0  0  0
   -0.5590    0.1880   -0.2660 C   0  0  0  0  0  0  0  0  0  0  0  0
   -1.0220   -0.4560   -1.2980 C   0  0  0  0  0  0  0  0  0  0  0  0
  1  2  1  0
  2  3  1  0
  3  4  2  0
  3 30  1  0
  4  5  1  0
  4  7  1  0
  5  6  1  0
  7  8  1  6
  7 10  1  0
  8  9  1  0
 10 11  1  1
 10 12  1  0
 10 29  1  0
 12 13  1  0
 13 14  2  0
 13 15  1  0
 15 16  1  0
 16 17  2  3
 16 29  1  0
 17 18  1  0
 18 19  2  0
 18 27  1  0
 19 20  1  0
 19 22  1  0
 20 21  1  0
 22 23  2  0
 23 24  1  0
 24 25  1  0
 24 27  1  0
 25 26  1  0
 27 28  2  0
 29 30  2  0
M  END
