
     RDKit          3D

 43 48  0  0  0  0  0  0  0  0999 V2000
   -0.9550    5.1670   -2.7760 C   0  0  0  0  0  0  0  0  0  0  0  0
   -0.3450    4.0150   -2.0960 N   0  0  0  0  0  0  0  0  0  0  0  0
   -0.8760    3.5200   -0.9910 N   0  0  0  0  0  0  0  0  0  0  0  0
   -0.3710    2.4810   -0.3290 C   0  0  0  0  0  0  0  0  0  0  0  0
   -0.8800    1.9070    0.8910 C   0  0  0  0  0  0  0  0  0  0  0  0
   -2.2480    1.5280    1.0030 N   0  0  0  0  0  0  0  0  0  0  0  0
   -2.6300    0.2540    0.4380 C   0  0  0  0  0  0  0  0  0  0  0  0
   -3.8400   -0.1120    0.5340 O   0  0  0  0  0  0  0  0  0  0  0  0
   -1.7560   -0.6180   -0.2170 N   0  0  0  0  0  0  0  0  0  0  0  0
   -2.0110   -1.8770   -0.7930 C   0  0  0  0  0  0  0  0  0  0  0  0
   -1.1410   -2.4070   -1.7550 C   0  0  0  0  0  0  0  0  0  0  0  0
   -1.3810   -3.6440   -2.2900 C   0  0  0  0  0  0  0  0  0  0  0  0
   -2.4930   -4.3800   -1.8790 C   0  0  0  0  0  0  0  0  0  0  0  0
   -2.7480   -5.6300   -2.4090 C   0  0  0  0  0  0  0  0  0  0  0  0
   -3.8340   -6.3250   -1.9900 C   0  0  0  0  0  0  0  0  0  0  0  0
   -4.7060   -5.8310   -1.0470 C   0  0  0  0  0  0  0  0  0  0  0  0
   -4.4670   -4.5810   -0.5040 C   0  0  0  0  0  0  0  0  0  0  0  0
   -3.3580   -3.8780   -0.9360 C   0  0  0  0  0  0  0  0  0  0  0  0
   -3.0930   -2.6210   -0.4070 C   0  0  0  0  0  0  0  0  0  0  0  0
   -3.2970    2.2400    1.6980 C   0  0  1  0  0  0  0  0  0  0  0  0
   -2.9810    2.4830    3.1390 C   0  0  0  0  0  0  0  0  0  0  0  0
   -3.9120    3.5020    3.6960 C   0  0  0  0  0  0  0  0  0  0  0  0
   -3.7260    4.8230    3.1220 N   0  0  2  0  0  0  0  0  0  0  0  0
   -4.9560    5.5870    3.1700 C   0  0  0  0  0  0  0  0  0  0  0  0
   -3.1690    4.7370    1.7820 C   0  0  0  0  0  0  0  0  0  0  0  0
   -3.7090    3.5260    1.0500 C   0  0  0  0  0  0  0  0  0  0  0  0
    0.7560    1.9520   -0.8830 N   0  0  0  0  0  0  0  0  0  0  0  0
    1.3550    2.3790   -1.9800 C   0  0  0  0  0  0  0  0  0  0  0  0
    2.5360    1.8540   -2.5350 N   0  0  0  0  0  0  0  0  0  0  0  0
    3.2100    0.7420   -2.0000 C   0  0  0  0  0  0  0  0  0  0  0  0
    4.5750    0.5520   -2.2700 C   0  0  0  0  0  0  0  0  0  0  0  0
    5.2430   -0.5490   -1.7660 C   0  0  0  0  0  0  0  0  0  0  0  0
    4.5930   -1.4880   -0.9900 C   0  0  0  0  0  0  0  0  0  0  0  0
    5.2610   -2.6150   -0.4650 N   0  0  0  0  0  0  0  0  0  0  0  0
    6.6300   -2.9820   -0.7030 C   0  0  0  0  0  0  0  0  0  0  0  0
    7.3660   -2.9490    0.6240 C   0  0  0  0  0  0  0  0  0  0  0  0
    6.6370   -3.7330    1.6700 C   0  0  0  0  0  0  0  0  0  0  0  0
    5.5050   -4.4810    1.0510 C   0  0  0  0  0  0  0  0  0  0  0  0
    4.5180   -3.5220    0.4200 C   0  0  0  0  0  0  0  0  0  0  0  0
    3.2420   -1.3050   -0.7220 C   0  0  0  0  0  0  0  0  0  0  0  0
    2.5640   -0.1930   -1.2290 C   0  0  0  0  0  0  0  0  0  0  0  0
    0.7610    3.4820   -2.6220 C   0  0  0  0  0  0  0  0  0  0  0  0
    1.2610    3.9530   -3.6690 O   0  0  0  0  0  0  0  0  0  0  0  0
  1  2  1  0
  2  3  1  0
  2 42  1  0
  3  4  2  0
  4  5  1  0
  4 27  1  0
  5  6  1  0
  6  7  1  0
 20  6  1  6
  7  8  2  0
  7  9  1  0
  9 10  1  0
 10 11  2  0
 10 19  1  0
 11 12  1  0
 12 13  2  0
 13 14  1  0
 13 18  1  0
 14 15  2  0
 15 16  1  0
 16 17  2  0
 17 18  1  0
 18 19  2  0
 20 21  1  0
 20 26  1  0
 21 22  1  0
 22 23  1  0
 23 24  1  6
 23 25  1  0
 25 26  1  0
 27 28  2  0
 28 29  1  0
 28 42  1  0
 29 30  1  0
 30 31  2  0
 30 41  1  0
 31 32  1  0
 32 33  2  0
 33 34  1  0
 33 40  1  0
 34 35  1  0
 34 39  1  0
 35 36  1  0
 36 37  1  0
 37 38  1  0
 38 39  1  0
 40 41  2  0
 42 43  2  0
M  CHG  1  23   1
M  END
