
     RDKit          3D

 43 48  0  0  0  0  0  0  0  0999 V2000
   -4.2160    3.5880   -0.2140 C   0  0  0  0  0  0  0  0  0  0  0  0
   -5.5300    3.1910   -0.8470 C   0  0  2  0  0  0  0  0  0  0  0  0
   -5.3310    3.1590   -2.3470 C   0  0  0  0  0  0  0  0  0  0  0  0
   -6.5290    4.2880   -0.5520 C   0  0  0  0  0  0  0  0  0  0  0  0
   -5.9920    1.9390   -0.3110 N   0  0  0  0  0  0  0  0  0  0  0  0
   -7.1860    1.5640    0.0890 N   0  0  0  0  0  0  0  0  0  0  0  0
   -7.1800    0.2870    0.5250 C   0  0  0  0  0  0  0  0  0  0  0  0
   -5.9130   -0.2010    0.4050 C   0  0  0  0  0  0  0  0  0  0  0  0
   -5.3190   -1.4210    0.6780 C   0  0  0  0  0  0  0  0  0  0  0  0
   -6.0530   -2.5400    1.2680 C   0  0  0  0  0  0  0  0  0  0  0  0
   -5.4690   -3.7210    1.4310 C   0  0  0  0  0  0  0  0  0  0  0  0
   -6.3610   -4.7180    2.0330 C   0  0  0  0  0  0  0  0  0  0  0  0
   -7.4860   -3.9000    2.5830 C   0  0  0  0  0  0  0  0  0  0  0  0
   -7.4080   -2.6140    1.7900 C   0  0  0  0  0  0  0  0  0  0  0  0
   -4.0040   -1.5090    0.3980 N   0  0  0  0  0  0  0  0  0  0  0  0
   -3.2670   -0.5160   -0.1120 C   0  0  0  0  0  0  0  0  0  0  0  0
   -1.8250   -0.6970   -0.3990 C   0  0  0  0  0  0  0  0  0  0  0  0
   -1.0940    0.2570   -0.8860 C   0  0  0  0  0  0  0  0  0  0  0  0
    0.3310    0.2430   -1.2280 C   0  0  0  0  0  0  0  0  0  0  0  0
    0.9030   -1.0960   -1.3240 C   0  0  0  0  0  0  0  0  0  0  0  0
    0.3270   -2.1560   -1.9210 C   0  0  0  0  0  0  0  0  0  0  0  0
   -0.8360   -2.6430   -2.6520 C   0  0  0  0  0  0  0  0  0  0  0  0
   -0.6460   -3.9180   -2.9280 C   0  0  0  0  0  0  0  0  0  0  0  0
    0.6470   -4.3070   -2.3880 C   0  0  0  0  0  0  0  0  0  0  0  0
    1.2250   -3.2750   -1.7940 C   0  0  0  0  0  0  0  0  0  0  0  0
    2.3550   -2.7970   -1.0870 N   0  0  0  0  0  0  0  0  0  0  0  0
    2.1940   -1.5250   -0.7990 C   0  0  0  0  0  0  0  0  0  0  0  0
    3.1780   -0.7150   -0.0610 C   0  0  2  0  0  0  0  0  0  0  0  0
    2.7360   -0.1870    1.2540 C   0  0  0  0  0  0  0  0  0  0  0  0
    3.1220    1.2410    1.2350 C   0  0  0  0  0  0  0  0  0  0  0  0
    2.7790    2.1880    1.9940 O   0  0  0  0  0  0  0  0  0  0  0  0
    4.0450    1.4440    0.1140 N   0  0  0  0  0  0  0  0  0  0  0  0
    5.0180    2.4910    0.0280 C   0  0  0  0  0  0  0  0  0  0  0  0
    6.3240    2.3000    0.6640 C   0  0  0  0  0  0  0  0  0  0  0  0
    7.2190    1.2370    0.2250 C   0  0  0  0  0  0  0  0  0  0  0  0
    6.9490    0.5090   -0.7480 O   0  0  0  0  0  0  0  0  0  0  0  0
    8.4740    1.0040    0.9310 N   0  0  0  0  0  0  0  0  0  0  0  0
    9.3340   -0.0420    0.4810 C   0  0  0  0  0  0  0  0  0  0  0  0
   10.5660   -0.0780    1.3660 C   0  0  0  0  0  0  0  0  0  0  0  0
   11.2620    1.1890    1.2900 N   0  0  0  0  0  0  0  0  0  0  0  0
    3.7070    0.4580   -0.8730 C   0  0  0  0  0  0  0  0  0  0  0  0
   -3.8780    0.6530   -0.3630 N   0  0  0  0  0  0  0  0  0  0  0  0
   -5.1810    0.8550   -0.1240 C   0  0  0  0  0  0  0  0  0  0  0  0
  2  1  1  1
  2  3  1  0
  2  4  1  0
  2  5  1  0
  5  6  1  0
  5 43  1  0
  6  7  2  0
  7  8  1  0
  8  9  2  0
  8 43  1  0
  9 10  1  0
  9 15  1  0
 10 11  2  0
 10 14  1  0
 11 12  1  0
 12 13  1  0
 13 14  1  0
 15 16  2  0
 16 17  1  0
 16 42  1  0
 17 18  2  3
 18 19  1  0
 19 20  1  0
 20 21  2  0
 20 27  1  0
 21 22  1  0
 21 25  1  0
 22 23  2  0
 23 24  1  0
 24 25  2  0
 25 26  1  0
 26 27  2  0
 28 27  1  6
 28 29  1  0
 28 41  1  0
 29 30  1  0
 30 31  2  0
 30 32  1  0
 32 33  1  0
 32 41  1  0
 33 34  1  0
 34 35  1  0
 35 36  2  0
 35 37  1  0
 37 38  1  0
 38 39  1  0
 39 40  1  0
 42 43  2  0
M  CHG  1  40   1
M  END
