
     RDKit          3D

 43 48  0  0  0  0  0  0  0  0999 V2000
    5.7290   -5.8800   -1.9580 C   0  0  0  0  0  0  0  0  0  0  0  0
    5.4160   -4.5720   -1.3350 C   0  0  0  0  0  0  0  0  0  0  0  0
    4.5390   -3.7110   -1.9540 C   0  0  0  0  0  0  0  0  0  0  0  0
    4.2250   -2.4690   -1.3880 C   0  0  0  0  0  0  0  0  0  0  0  0
    4.7820   -2.0670   -0.1970 C   0  0  0  0  0  0  0  0  0  0  0  0
    4.4950   -0.7920    0.4590 C   0  0  0  0  0  0  0  0  0  0  0  0
    5.3610    0.0190    1.0010 N   0  0  0  0  0  0  0  0  0  0  0  0
    4.7930    1.1460    1.5390 N   0  0  0  0  0  0  0  0  0  0  0  0
    5.3400    2.3930    1.9010 C   0  0  0  0  0  0  0  0  0  0  0  0
    5.5470    3.4500    1.0450 C   0  0  0  0  0  0  0  0  0  0  0  0
    6.0970    4.5140    1.7600 C   0  0  0  0  0  0  0  0  0  0  0  0
    6.4810    5.8570    1.2290 C   0  0  0  0  0  0  0  0  0  0  0  0
    6.2010    4.0580    3.0280 N   0  0  0  0  0  0  0  0  0  0  0  0
    5.7480    2.7940    3.1020 N   0  0  0  0  0  0  0  0  0  0  0  0
    5.7420    2.0590    4.3540 C   0  0  0  0  0  0  0  0  0  0  0  0
    3.3740    0.8300    1.6980 C   0  0  0  0  0  0  0  0  0  0  0  0
    3.2280   -0.2150    0.6670 N   0  0  0  0  0  0  0  0  0  0  0  0
    1.9870   -0.4680    0.1080 N   0  0  0  0  0  0  0  0  0  0  0  0
    1.3950   -1.5710   -0.0460 C   0  0  0  0  0  0  0  0  0  0  0  0
    0.0710   -1.5570   -0.6750 C   0  0  0  0  0  0  0  0  0  0  0  0
   -0.5150   -0.3720   -1.0580 C   0  0  0  0  0  0  0  0  0  0  0  0
   -1.7840   -0.3900   -1.6590 C   0  0  0  0  0  0  0  0  0  0  0  0
   -2.4580   -1.5560   -1.8750 C   0  0  0  0  0  0  0  0  0  0  0  0
   -3.7360   -1.5720   -2.4560 N   0  0  0  0  0  0  0  0  0  0  0  0
   -4.6450   -0.5200   -2.6140 C   0  0  0  0  0  0  0  0  0  0  0  0
   -4.3470    0.6180   -2.1960 O   0  0  0  0  0  0  0  0  0  0  0  0
   -5.9800   -0.7280   -3.2820 C   0  0  0  0  0  0  0  0  0  0  0  0
   -6.6710    0.5220   -3.2730 N   0  0  0  0  0  0  0  0  0  0  0  0
   -7.0430    1.0700   -2.0090 C   0  0  0  0  0  0  0  0  0  0  0  0
   -7.6270    2.3120   -2.0040 C   0  0  0  0  0  0  0  0  0  0  0  0
   -8.0170    2.8840   -0.8190 C   0  0  0  0  0  0  0  0  0  0  0  0
   -7.8070    2.1780    0.3650 C   0  0  0  0  0  0  0  0  0  0  0  0
   -7.2280    0.9430    0.3830 C   0  0  0  0  0  0  0  0  0  0  0  0
   -6.8490    0.4010   -0.8340 C   0  0  0  0  0  0  0  0  0  0  0  0
   -7.0180    0.2120    1.6350 C   0  0  0  0  0  0  0  0  0  0  0  0
   -7.4720    0.8970    2.8550 C   0  0  0  0  0  0  0  0  0  0  0  0
   -8.0300    2.0780    2.8740 C   0  0  0  0  0  0  0  0  0  0  0  0
   -8.2230    2.7740    1.6290 C   0  0  0  0  0  0  0  0  0  0  0  0
   -8.7660    3.9230    1.6490 O   0  0  0  0  0  0  0  0  0  0  0  0
   -1.8630   -2.7450   -1.4860 C   0  0  0  0  0  0  0  0  0  0  0  0
   -0.6160   -2.7310   -0.8960 C   0  0  0  0  0  0  0  0  0  0  0  0
    5.6640   -2.9370    0.4200 C   0  0  0  0  0  0  0  0  0  0  0  0
    5.9810   -4.1720   -0.1350 C   0  0  0  0  0  0  0  0  0  0  0  0
  1  2  1  0
  2  3  2  0
  2 43  1  0
  3  4  1  0
  4  5  2  0
  5  6  1  0
  5 42  1  0
  6  7  2  0
  6 17  1  0
  7  8  1  0
  8  9  1  0
  8 16  1  0
  9 10  2  0
  9 14  1  0
 10 11  1  0
 11 12  1  0
 11 13  2  0
 13 14  1  0
 14 15  1  0
 16 17  1  0
 17 18  1  0
 18 19  2  3
 19 20  1  0
 20 21  2  0
 20 41  1  0
 21 22  1  0
 22 23  2  0
 23 24  1  0
 23 40  1  0
 24 25  1  0
 25 26  2  0
 25 27  1  0
 27 28  1  0
 28 29  1  0
 29 30  2  0
 29 34  1  0
 30 31  1  0
 31 32  2  0
 32 33  1  0
 32 38  1  0
 33 34  2  0
 33 35  1  0
 35 36  1  0
 36 37  2  0
 37 38  1  0
 38 39  2  0
 40 41  2  0
 42 43  2  0
M  CHG  1   7   1
M  END
