
     RDKit          3D

 43 48  0  0  0  0  0  0  0  0999 V2000
    7.1820   -2.7930    0.1880 C   0  0  0  0  0  0  0  0  0  0  0  0
    5.9570   -3.6440    0.0190 C   0  0  0  0  0  0  0  0  0  0  0  0
    5.5390   -3.7710   -1.4500 C   0  0  0  0  0  0  0  0  0  0  0  0
    5.0980   -2.4200   -1.8430 C   0  0  0  0  0  0  0  0  0  0  0  0
    5.8930   -1.5860   -2.5800 C   0  0  0  0  0  0  0  0  0  0  0  0
    5.5880   -0.2240   -2.6460 C   0  0  0  0  0  0  0  0  0  0  0  0
    4.5070    0.3100   -1.9770 C   0  0  0  0  0  0  0  0  0  0  0  0
    3.7270   -0.5880   -1.2260 C   0  0  0  0  0  0  0  0  0  0  0  0
    3.9910   -1.8880   -1.1820 C   0  0  0  0  0  0  0  0  0  0  0  0
    2.7920    0.3700   -0.4700 C   0  0  0  0  0  0  0  0  0  0  0  0
    1.7230   -0.1320   -0.0990 N   0  0  0  0  0  0  0  0  0  0  0  0
    0.5850    0.3910    0.5470 N   0  0  0  0  0  0  0  0  0  0  0  0
   -0.5120   -0.2290    1.0310 C   0  0  0  0  0  0  0  0  0  0  0  0
   -1.6620   -0.8230    0.5940 C   0  0  0  0  0  0  0  0  0  0  0  0
   -1.4490   -1.1160   -0.8700 O   0  0  0  0  0  0  0  0  0  0  0  0
   -2.8750   -1.2710    0.7760 N   0  0  0  0  0  0  0  0  0  0  0  0
   -3.3430   -0.7790    2.1360 C   0  0  0  0  0  0  0  0  0  0  0  0
   -4.3680    0.1440    2.2080 C   0  0  0  0  0  0  0  0  0  0  0  0
   -4.8730    0.3800    3.4710 C   0  0  0  0  0  0  0  0  0  0  0  0
   -4.3870   -0.2570    4.6000 C   0  0  0  0  0  0  0  0  0  0  0  0
   -3.3370   -1.1590    4.4750 C   0  0  0  0  0  0  0  0  0  0  0  0
   -2.8330   -1.4080    3.2220 C   0  0  0  0  0  0  0  0  0  0  0  0
   -3.8800   -1.8460   -0.0240 C   0  0  0  0  0  0  0  0  0  0  0  0
   -4.7920   -2.6820    0.4340 C   0  0  0  0  0  0  0  0  0  0  0  0
   -6.0030   -2.9540   -0.2090 C   0  0  0  0  0  0  0  0  0  0  0  0
   -6.3320   -2.3620   -1.3790 C   0  0  0  0  0  0  0  0  0  0  0  0
   -5.3470   -1.4630   -1.9250 C   0  0  0  0  0  0  0  0  0  0  0  0
   -4.1590   -1.2210   -1.2470 C   0  0  0  0  0  0  0  0  0  0  0  0
   -5.7690   -1.1080   -3.2100 N   0  0  0  0  0  0  0  0  0  0  0  0
   -7.0860   -1.7210   -3.4320 C   0  0  0  0  0  0  0  0  0  0  0  0
   -7.4910   -1.9440   -2.0890 N   0  0  0  0  0  0  0  0  0  0  0  0
    0.6090    1.8700    0.5800 C   0  0  0  0  0  0  0  0  0  0  0  0
    0.2480    2.7930   -0.1250 N   0  0  0  0  0  0  0  0  0  0  0  0
    0.6740    4.0460    0.5670 N   0  0  0  0  0  0  0  0  0  0  0  0
    0.3620    5.2940    0.0150 C   0  0  0  0  0  0  0  0  0  0  0  0
    1.5800    6.1970   -0.3210 C   0  0  0  0  0  0  0  0  0  0  0  0
    2.1020    6.7360    0.7890 C   0  0  0  0  0  0  0  0  0  0  0  0
    2.6870    7.3370    1.9860 N   0  0  0  0  0  0  0  0  0  0  0  0
    1.2830    3.6940    1.7120 C   0  0  0  0  0  0  0  0  0  0  0  0
    2.0650    4.3900    2.4970 O   0  0  0  0  0  0  0  0  0  0  0  0
    0.9090    2.2880    1.9930 C   0  0  0  0  0  0  0  0  0  0  0  0
    3.6000    1.6170   -0.3710 C   0  0  0  0  0  0  0  0  0  0  0  0
    3.9510    1.6690   -1.8870 C   0  0  0  0  0  0  0  0  0  0  0  0
  1  2  1  0
  2  3  1  0
  3  4  1  0
  4  5  2  0
  4  9  1  0
  5  6  1  0
  6  7  2  0
  7  8  1  0
  7 43  1  0
  8  9  2  0
  8 10  1  0
 10 11  2  3
 10 42  1  0
 11 12  1  0
 12 13  1  0
 12 32  1  0
 13 14  1  0
 14 15  2  0
 14 16  1  0
 16 17  1  0
 16 23  1  0
 17 18  2  0
 17 22  1  0
 18 19  1  0
 19 20  2  0
 20 21  1  0
 21 22  2  0
 23 24  2  0
 23 28  1  0
 24 25  1  0
 25 26  2  0
 26 27  1  0
 26 31  1  0
 27 28  2  0
 27 29  1  0
 29 30  1  0
 30 31  1  0
 32 33  2  0
 32 41  1  0
 33 34  1  0
 34 35  1  0
 34 39  1  0
 35 36  1  0
 36 37  1  0
 37 38  3  0
 39 40  2  0
 39 41  1  0
 42 43  1  0
M  CHG  1  31   1
M  END
