
     RDKit          3D

 19 19  0  0  0  0  0  0  0  0999 V2000
    4.1660   -1.3770    0.1490 C   0  0  0  0  0  0  0  0  0  0  0  0
    4.4000   -0.0950    0.1990 C   0  0  0  0  0  0  0  0  0  0  0  0
    5.7390    0.3340    0.6050 C   0  0  0  0  0  0  0  0  0  0  0  0
    6.0150    1.6200    0.6680 C   0  0  0  0  0  0  0  0  0  0  0  0
    7.2700    2.0230    1.0480 O   0  0  0  0  0  0  0  0  0  0  0  0
    3.3780    0.9230   -0.1130 C   0  0  0  0  0  0  0  0  0  0  0  0
    2.1390    0.4060   -0.4550 O   0  0  0  0  0  0  0  0  0  0  0  0
    1.2880   -0.3170    0.3580 C   0  0  0  0  0  0  0  0  0  0  0  0
    1.6430   -0.5370    1.5410 O   0  0  0  0  0  0  0  0  0  0  0  0
    0.0140   -0.8160   -0.1240 C   0  0  1  0  0  0  0  0  0  0  0  0
   -0.7740   -1.5840    0.9140 C   0  0  0  0  0  0  0  0  0  0  0  0
   -2.0980   -1.7650    0.1730 C   0  0  0  0  0  0  0  0  0  0  0  0
   -2.2180   -0.5520   -0.7220 C   0  0  1  0  0  0  0  0  0  0  0  0
   -2.1830   -0.9050   -2.0690 O   0  0  0  0  0  0  0  0  0  0  0  0
   -3.4920    0.1980   -0.4790 C   0  0  1  0  0  0  0  0  0  0  0  0
   -3.5650    1.3880   -1.3870 C   0  0  0  0  0  0  0  0  0  0  0  0
   -4.6390   -0.7290   -0.8550 C   0  0  0  0  0  0  0  0  0  0  0  0
   -3.6670    0.6510    0.9360 C   0  0  0  0  0  0  0  0  0  0  0  0
   -0.9870    0.2900   -0.4580 C   0  0  0  0  0  0  0  0  0  0  0  0
  1  2  2  0
  2  3  1  0
  2  6  1  0
  3  4  2  3
  4  5  1  0
  6  7  1  0
  7  8  1  0
  8  9  2  0
 10  8  1  1
 10 11  1  0
 10 19  1  0
 11 12  1  0
 12 13  1  0
 13 14  1  6
 13 15  1  0
 13 19  1  0
 15 16  1  6
 15 17  1  0
 15 18  1  0
M  END
