
     RDKit          3D

 19 19  0  0  0  0  0  0  0  0999 V2000
   -2.7680    1.8040   -2.2020 C   0  0  0  0  0  0  0  0  0  0  0  0
   -1.5110    1.5470   -1.3680 C   0  0  0  0  0  0  0  0  0  0  0  0
   -1.8300    0.4150   -0.3960 C   0  0  1  0  0  0  0  0  0  0  0  0
   -2.9860    0.9150    0.4450 C   0  0  0  0  0  0  0  0  0  0  0  0
   -2.2230   -0.7600   -1.2670 C   0  0  0  0  0  0  0  0  0  0  0  0
   -3.0420   -1.7890   -0.5640 C   0  0  0  0  0  0  0  0  0  0  0  0
   -3.0460   -1.4970    0.7700 O   0  0  0  0  0  0  0  0  0  0  0  0
   -1.9350   -1.8390    1.4700 C   0  0  0  0  0  0  0  0  0  0  0  0
   -0.6530   -1.2570    1.0710 C   0  0  1  0  0  0  0  0  0  0  0  0
    0.1790   -1.2510    2.2060 O   0  0  0  0  0  0  0  0  0  0  0  0
   -0.0110   -2.1270    0.1560 O   0  0  0  0  0  0  0  0  0  0  0  0
   -0.6310    0.0940    0.4720 C   0  0  2  0  0  0  0  0  0  0  0  0
   -0.6460    1.1230    1.5840 C   0  0  0  0  0  0  0  0  0  0  0  0
    0.5990    0.3510   -0.3600 C   0  0  0  0  0  0  0  0  0  0  0  0
    1.8920    0.0790    0.3380 C   0  0  0  0  0  0  0  0  0  0  0  0
    2.9620    0.3510   -0.5290 O   0  0  0  0  0  0  0  0  0  0  0  0
    4.1830    0.1060    0.0970 C   0  0  1  0  0  0  0  0  0  0  0  0
    4.9520   -1.0050   -0.5850 C   0  0  0  0  0  0  0  0  0  0  0  0
    4.9930    1.3570    0.1240 C   0  0  0  0  0  0  0  0  0  0  0  0
  1  2  1  0
  2  3  1  0
  3  4  1  1
  3  5  1  0
  3 12  1  0
  5  6  1  0
  6  7  1  0
  7  8  1  0
  8  9  1  0
  9 10  1  1
  9 11  1  0
  9 12  1  0
 12 13  1  1
 12 14  1  0
 14 15  1  0
 15 16  1  0
 16 17  1  0
 17 18  1  6
 17 19  1  0
M  END
