
     RDKit          3D

 19 19  0  0  0  0  0  0  0  0999 V2000
    3.4760    2.5460   -1.0410 C   0  0  0  0  0  0  0  0  0  0  0  0
    4.2970    1.5750   -0.5840 C   0  0  0  0  0  0  0  0  0  0  0  0
    5.5910    1.9450   -0.4020 O   0  0  0  0  0  0  0  0  0  0  0  0
    3.7330    0.2840   -0.3430 C   0  0  0  0  0  0  0  0  0  0  0  0
    2.2760    0.1910   -0.6200 C   0  0  0  0  0  0  0  0  0  0  0  0
    1.1010    0.1120   -0.8250 C   0  0  0  0  0  0  0  0  0  0  0  0
   -0.3700    0.0380   -1.0780 C   0  0  0  0  0  0  0  0  0  0  0  0
   -0.9510   -0.2920    0.0870 O   0  0  0  0  0  0  0  0  0  0  0  0
   -2.2930   -0.3970    0.2150 C   0  0  2  0  0  0  0  0  0  0  0  0
   -2.9500   -1.4160   -0.6160 C   0  0  0  0  0  0  0  0  0  0  0  0
   -2.8880   -1.3600   -2.0790 C   0  0  0  0  0  0  0  0  0  0  0  0
   -2.9950    0.9390    0.2510 C   0  0  0  0  0  0  0  0  0  0  0  0
   -4.3180    0.5900    0.8600 C   0  0  0  0  0  0  0  0  0  0  0  0
   -3.8880   -0.2650    2.0320 C   0  0  2  0  0  0  0  0  0  0  0  0
   -3.8440    0.4870    3.2080 O   0  0  0  0  0  0  0  0  0  0  0  0
   -2.5360   -0.8310    1.6770 C   0  0  0  0  0  0  0  0  0  0  0  0
    4.3370   -0.7800    0.0900 C   0  0  0  0  0  0  0  0  0  0  0  0
    5.7100   -1.0500    0.4680 C   0  0  0  0  0  0  0  0  0  0  0  0
    6.6350   -0.0540    0.3910 O   0  0  0  0  0  0  0  0  0  0  0  0
  1  2  2  0
  2  3  1  0
  2  4  1  0
  4  5  1  0
  4 17  2  3
  5  6  3  0
  6  7  1  0
  7  8  1  0
  8  9  1  0
  9 10  1  6
  9 12  1  0
  9 16  1  0
 10 11  1  0
 12 13  1  0
 13 14  1  0
 14 15  1  1
 14 16  1  0
 17 18  1  0
 18 19  1  0
M  END
