
     RDKit          3D

 13 13  0  0  0  0  0  0  0  0999 V2000
   -3.7970    0.1500   -1.0320 C   0  0  0  0  0  0  0  0  0  0  0  0
   -2.8270   -0.6850   -0.1550 C   0  0  2  0  0  0  0  0  0  0  0  0
   -3.7360   -1.1360    1.0140 C   0  0  0  0  0  0  0  0  0  0  0  0
   -1.8350    0.1230    0.2610 O   0  0  0  0  0  0  0  0  0  0  0  0
   -0.5060    0.2470    0.2250 C   0  0  0  0  0  0  0  0  0  0  0  0
    0.0900    1.3540    0.8610 C   0  0  0  0  0  0  0  0  0  0  0  0
    1.4430    1.5650    0.8770 C   0  0  0  0  0  0  0  0  0  0  0  0
    2.2760    0.6630    0.2480 C   0  0  0  0  0  0  0  0  0  0  0  0
    3.7570    0.8450    0.2350 C   0  0  0  0  0  0  0  0  0  0  0  0
    4.3550   -0.2370   -0.4860 N   0  0  0  0  0  0  0  0  0  0  0  0
    1.7040   -0.4230   -0.3760 C   0  0  0  0  0  0  0  0  0  0  0  0
    0.3200   -0.6470   -0.3980 C   0  0  0  0  0  0  0  0  0  0  0  0
   -0.2560   -2.0870   -1.2420 Cl  0  0  0  0  0  0  0  0  0  0  0  0
  2  1  1  6
  2  3  1  0
  2  4  1  0
  4  5  1  0
  5  6  2  0
  5 12  1  0
  6  7  1  0
  7  8  2  0
  8  9  1  0
  8 11  1  0
  9 10  1  0
 11 12  2  0
 12 13  1  0
M  CHG  1  10   1
M  END
