
     RDKit          3D

 23 24  0  0  0  0  0  0  0  0999 V2000
   -4.0420    4.5680   -2.0250 C   0  0  0  0  0  0  0  0  0  0  0  0
   -3.5380    3.2200   -1.4400 C   0  0  0  0  0  0  0  0  0  0  0  0
   -2.0840    3.2560   -1.3530 C   0  0  0  0  0  0  0  0  0  0  0  0
   -1.5650    4.3790   -1.7720 O   0  0  0  0  0  0  0  0  0  0  0  0
   -1.2160    2.2350   -0.8790 C   0  0  0  0  0  0  0  0  0  0  0  0
   -1.3940    1.0520   -0.4120 C   0  0  0  0  0  0  0  0  0  0  0  0
   -2.6990    0.4620   -0.2650 N   0  0  0  0  0  0  0  0  0  0  0  0
   -2.8110   -0.8630    0.2640 C   0  0  0  0  0  0  0  0  0  0  0  0
   -1.7770   -1.5820    0.6280 C   0  0  0  0  0  0  0  0  0  0  0  0
   -1.9050   -2.9310    1.1660 C   0  0  0  0  0  0  0  0  0  0  0  0
   -0.8610   -3.5920    1.5070 O   0  0  0  0  0  0  0  0  0  0  0  0
   -3.1500   -3.5870    1.3450 N   0  0  0  0  0  0  0  0  0  0  0  0
   -3.2080   -4.9390    1.8890 C   0  0  0  0  0  0  0  0  0  0  0  0
   -0.4540   -0.9770    0.4760 C   0  0  0  0  0  0  0  0  0  0  0  0
   -0.2310    0.2340    0.0000 C   0  0  0  0  0  0  0  0  0  0  0  0
    1.1300    0.6770   -0.0840 C   0  0  0  0  0  0  0  0  0  0  0  0
    1.6010    1.7520   -0.4870 O   0  0  0  0  0  0  0  0  0  0  0  0
    2.1350   -0.2180    0.3490 O   0  0  0  0  0  0  0  0  0  0  0  0
    3.5060    0.0890    0.3200 C   0  0  2  0  0  0  0  0  0  0  0  0
    4.3300   -0.8680   -0.4620 C   0  0  0  0  0  0  0  0  0  0  0  0
    5.6390   -1.0660    0.2920 C   0  0  0  0  0  0  0  0  0  0  0  0
    5.6310    0.0740    1.3010 C   0  0  0  0  0  0  0  0  0  0  0  0
    4.1450    0.0870    1.6850 C   0  0  0  0  0  0  0  0  0  0  0  0
  1  2  1  0
  2  3  1  0
  3  4  2  0
  3  5  1  0
  5  6  2  3
  6  7  1  0
  6 15  1  0
  7  8  1  0
  8  9  2  0
  9 10  1  0
  9 14  1  0
 10 11  2  0
 10 12  1  0
 12 13  1  0
 14 15  2  0
 15 16  1  0
 16 17  2  0
 16 18  1  0
 19 18  1  1
 19 20  1  0
 19 23  1  0
 20 21  1  0
 21 22  1  0
 22 23  1  0
M  END
