
     RDKit          3D

 23 24  0  0  0  0  0  0  0  0999 V2000
    4.4220    1.8420   -0.5330 O   0  0  0  0  0  0  0  0  0  0  0  0
    4.2510    0.5680   -0.5580 C   0  0  0  0  0  0  0  0  0  0  0  0
    2.9270    0.0380   -0.2680 C   0  0  0  0  0  0  0  0  0  0  0  0
    2.5960   -1.2250   -0.2550 C   0  0  0  0  0  0  0  0  0  0  0  0
    1.2480   -1.7380    0.0410 C   0  0  0  0  0  0  0  0  0  0  0  0
    1.0770   -2.9910    0.0180 O   0  0  0  0  0  0  0  0  0  0  0  0
    0.1470   -0.9330    0.3460 N   0  0  0  0  0  0  0  0  0  0  0  0
   -1.1750   -1.3290    0.6480 C   0  0  0  0  0  0  0  0  0  0  0  0
   -1.5010   -2.6170    0.9750 C   0  0  0  0  0  0  0  0  0  0  0  0
   -2.8250   -2.9880    1.2500 C   0  0  0  0  0  0  0  0  0  0  0  0
   -3.8430   -2.0400    1.1940 C   0  0  0  0  0  0  0  0  0  0  0  0
   -3.5410   -0.7380    0.8670 C   0  0  0  0  0  0  0  0  0  0  0  0
   -4.5940    0.2680    0.8030 C   0  0  0  0  0  0  0  0  0  0  0  0
   -5.8730    0.0250    1.0410 C   0  0  0  0  0  0  0  0  0  0  0  0
   -6.8490    0.9920    0.9730 O   0  0  0  0  0  0  0  0  0  0  0  0
   -6.6410    2.3290    0.6550 C   0  0  0  0  0  0  0  0  0  0  0  0
   -5.2270    2.5940    0.3920 C   0  0  0  0  0  0  0  0  0  0  0  0
   -4.3020    1.6650    0.4590 C   0  0  0  0  0  0  0  0  0  0  0  0
   -2.2270   -0.4040    0.6020 C   0  0  0  0  0  0  0  0  0  0  0  0
    5.3400   -0.2580   -0.8600 N   0  0  0  0  0  0  0  0  0  0  0  0
    6.6490    0.2230   -1.1590 C   0  0  0  0  0  0  0  0  0  0  0  0
    6.7860    1.0680   -2.3780 C   0  0  0  0  0  0  0  0  0  0  0  0
    6.0560    2.2190   -2.3820 O   0  0  0  0  0  0  0  0  0  0  0  0
  1  2  2  0
  2  3  1  0
  2 20  1  0
  3  4  2  3
  4  5  1  0
  5  6  2  0
  5  7  1  0
  7  8  1  0
  8  9  2  0
  8 19  1  0
  9 10  1  0
 10 11  2  0
 11 12  1  0
 12 13  1  0
 12 19  2  0
 13 14  2  0
 13 18  1  0
 14 15  1  0
 15 16  1  0
 16 17  1  0
 17 18  2  0
 20 21  1  0
 21 22  1  0
 22 23  1  0
M  END
