
     RDKit          3D

 22 23  0  0  0  0  0  0  0  0999 V2000
   -6.5030   -0.1120   -0.5220 C   0  0  0  0  0  0  0  0  0  0  0  0
   -5.0510    0.1170   -0.8400 C   0  0  0  0  0  0  0  0  0  0  0  0
   -4.6610    0.6480   -2.0550 C   0  0  0  0  0  0  0  0  0  0  0  0
   -3.3240    0.8510   -2.3310 C   0  0  0  0  0  0  0  0  0  0  0  0
   -2.3600    0.5200   -1.3800 C   0  0  0  0  0  0  0  0  0  0  0  0
   -2.7390   -0.0100   -0.1650 C   0  0  0  0  0  0  0  0  0  0  0  0
   -1.8790   -0.3610    0.8140 O   0  0  0  0  0  0  0  0  0  0  0  0
   -0.5290   -0.3310    0.9870 C   0  0  0  0  0  0  0  0  0  0  0  0
    0.1670    0.9830    0.9760 C   0  0  0  0  0  0  0  0  0  0  0  0
    1.6370    0.7220    1.1920 C   0  0  0  0  0  0  0  0  0  0  0  0
    2.4590    1.6570    1.2280 O   0  0  0  0  0  0  0  0  0  0  0  0
    2.0970   -0.5660    1.3550 O   0  0  0  0  0  0  0  0  0  0  0  0
    3.4410   -0.9400    1.5630 C   0  0  0  0  0  0  0  0  0  0  0  0
    4.3400   -0.5400    0.4700 C   0  0  0  0  0  0  0  0  0  0  0  0
    4.3790   -1.2660   -0.6800 C   0  0  0  0  0  0  0  0  0  0  0  0
    5.2100   -0.9380   -1.7410 C   0  0  0  0  0  0  0  0  0  0  0  0
    5.9870    0.1410   -1.5870 N   0  0  0  0  0  0  0  0  0  0  0  0
    5.9760    0.8850   -0.4630 C   0  0  0  0  0  0  0  0  0  0  0  0
    6.7190    1.8770   -0.3770 O   0  0  0  0  0  0  0  0  0  0  0  0
    5.1420    0.5610    0.6090 C   0  0  0  0  0  0  0  0  0  0  0  0
   -4.1100   -0.2110    0.1000 C   0  0  0  0  0  0  0  0  0  0  0  0
   -4.5060   -0.7610    1.3600 N   0  0  0  0  0  0  0  0  0  0  0  0
  1  2  1  0
  2  3  2  0
  2 21  1  0
  3  4  1  0
  4  5  2  0
  5  6  1  0
  6  7  1  0
  6 21  2  0
  7  8  1  0
  8  9  1  0
  9 10  1  0
 10 11  2  0
 10 12  1  0
 12 13  1  0
 13 14  1  0
 14 15  1  0
 14 20  2  0
 15 16  2  0
 16 17  1  0
 17 18  1  0
 18 19  2  0
 18 20  1  0
 21 22  1  0
M  END
