
     RDKit          3D

 23 24  0  0  0  0  0  0  0  0999 V2000
   -0.8830    3.2990   -4.1290 C   0  0  0  0  0  0  0  0  0  0  0  0
   -1.4560    2.8500   -2.8240 C   0  0  0  0  0  0  0  0  0  0  0  0
   -0.5390    2.0560   -2.0840 O   0  0  0  0  0  0  0  0  0  0  0  0
   -0.9720    1.5800   -0.8410 C   0  0  0  0  0  0  0  0  0  0  0  0
   -2.1250    1.8650   -0.4380 O   0  0  0  0  0  0  0  0  0  0  0  0
   -0.1230    0.7590    0.0050 C   0  0  0  0  0  0  0  0  0  0  0  0
   -0.5700    0.3430    1.1450 C   0  0  0  0  0  0  0  0  0  0  0  0
   -1.8840    0.6930    1.5580 N   0  0  0  0  0  0  0  0  0  0  0  0
   -2.9740   -0.1680    1.2700 C   0  0  0  0  0  0  0  0  0  0  0  0
   -2.7140   -1.3370    0.5860 C   0  0  0  0  0  0  0  0  0  0  0  0
   -3.7570   -2.1890    0.2950 C   0  0  0  0  0  0  0  0  0  0  0  0
   -5.0500   -1.8700    0.6870 C   0  0  0  0  0  0  0  0  0  0  0  0
   -5.2750   -0.6900    1.3720 C   0  0  0  0  0  0  0  0  0  0  0  0
   -6.5690   -0.3530    1.7740 O   0  0  0  0  0  0  0  0  0  0  0  0
   -4.2550    0.1720    1.6730 C   0  0  0  0  0  0  0  0  0  0  0  0
    1.2080    0.4210   -0.4420 C   0  0  0  0  0  0  0  0  0  0  0  0
    1.6120    0.8430   -1.5600 O   0  0  0  0  0  0  0  0  0  0  0  0
    2.1110   -0.3570    0.2780 N   0  0  0  0  0  0  0  0  0  0  0  0
    3.4360   -0.7200   -0.1180 C   0  0  2  0  0  0  0  0  0  0  0  0
    3.8090   -2.1210   -0.1140 C   0  0  0  0  0  0  0  0  0  0  0  0
    4.6690   -2.3490    1.0990 C   0  0  0  0  0  0  0  0  0  0  0  0
    5.4760   -1.0480    1.1390 C   0  0  0  0  0  0  0  0  0  0  0  0
    4.4090   -0.0210    0.8220 C   0  0  0  0  0  0  0  0  0  0  0  0
  1  2  1  0
  2  3  1  0
  3  4  1  0
  4  5  2  0
  4  6  1  0
  6  7  2  3
  6 16  1  0
  7  8  1  0
  8  9  1  0
  9 10  2  0
  9 15  1  0
 10 11  1  0
 11 12  2  0
 12 13  1  0
 13 14  1  0
 13 15  2  0
 16 17  2  0
 16 18  1  0
 19 18  1  1
 19 20  1  0
 19 23  1  0
 20 21  1  0
 21 22  1  0
 22 23  1  0
M  END
