
     RDKit          3D

 23 24  0  0  0  0  0  0  0  0999 V2000
    3.4470    2.9630    1.0540 C   0  0  0  0  0  0  0  0  0  0  0  0
    2.8660    1.7260    0.6550 O   0  0  0  0  0  0  0  0  0  0  0  0
    3.6970    0.6210    0.4670 C   0  0  0  0  0  0  0  0  0  0  0  0
    5.0590    0.7000    0.6560 C   0  0  0  0  0  0  0  0  0  0  0  0
    5.8540   -0.4060    0.4630 C   0  0  0  0  0  0  0  0  0  0  0  0
    5.2960   -1.5960    0.0800 C   0  0  0  0  0  0  0  0  0  0  0  0
    3.9440   -1.6620   -0.1050 C   0  0  0  0  0  0  0  0  0  0  0  0
    3.1090   -0.5800    0.0770 C   0  0  0  0  0  0  0  0  0  0  0  0
    1.7360   -0.6600   -0.1150 O   0  0  0  0  0  0  0  0  0  0  0  0
    1.2040   -1.9090   -0.5110 C   0  0  0  0  0  0  0  0  0  0  0  0
   -0.2960   -1.8100   -0.6710 C   0  0  0  0  0  0  0  0  0  0  0  0
   -0.8880   -2.8250   -1.0120 O   0  0  0  0  0  0  0  0  0  0  0  0
   -0.9760   -0.5950   -0.4340 N   0  0  0  0  0  0  0  0  0  0  0  0
   -2.3570   -0.3500   -0.5520 C   0  0  0  0  0  0  0  0  0  0  0  0
   -2.7240    0.8890   -0.2500 C   0  0  0  0  0  0  0  0  0  0  0  0
   -1.5940    1.7490    0.1440 C   0  0  0  0  0  0  0  0  0  0  0  0
   -4.0180    1.6210   -0.1840 C   0  0  0  0  0  0  0  0  0  0  0  0
   -5.2810    1.3010    0.0410 C   0  0  0  0  0  0  0  0  0  0  0  0
   -5.9020    0.0280    0.3260 N   0  0  0  0  0  0  0  0  0  0  0  0
   -5.5540   -1.3250    0.0120 C   0  0  0  0  0  0  0  0  0  0  0  0
   -6.3010   -2.1810    0.4990 O   0  0  0  0  0  0  0  0  0  0  0  0
   -4.4410   -1.8630   -0.8030 C   0  0  0  0  0  0  0  0  0  0  0  0
   -3.1880   -1.4660   -1.0170 C   0  0  0  0  0  0  0  0  0  0  0  0
  1  2  1  0
  2  3  1  0
  3  4  2  0
  3  8  1  0
  4  5  1  0
  5  6  2  0
  6  7  1  0
  7  8  2  0
  8  9  1  0
  9 10  1  0
 10 11  1  0
 11 12  2  0
 11 13  1  0
 13 14  1  0
 14 15  2  0
 14 23  1  0
 15 16  1  0
 15 17  1  0
 17 18  2  0
 18 19  1  0
 19 20  1  0
 20 21  2  0
 20 22  1  0
 22 23  2  0
M  END
