
     RDKit          3D

 29 32  0  0  0  0  0  0  0  0999 V2000
    7.2590    1.0280    3.0950 C   0  0  0  0  0  0  0  0  0  0  0  0
    7.6940   -0.0810    2.3340 O   0  0  0  0  0  0  0  0  0  0  0  0
    6.8850   -0.7320    1.4160 C   0  0  0  0  0  0  0  0  0  0  0  0
    7.4260   -1.8040    0.7340 C   0  0  0  0  0  0  0  0  0  0  0  0
    6.6640   -2.4870   -0.1910 C   0  0  0  0  0  0  0  0  0  0  0  0
    7.3400   -3.8500   -1.0640 Cl  0  0  0  0  0  0  0  0  0  0  0  0
    5.3360   -2.0820   -0.4300 C   0  0  0  0  0  0  0  0  0  0  0  0
    4.7890   -1.0220    0.2390 C   0  0  0  0  0  0  0  0  0  0  0  0
    3.4140   -0.6130   -0.0290 C   0  0  0  0  0  0  0  0  0  0  0  0
    2.8830    0.1700    0.8130 O   0  0  0  0  0  0  0  0  0  0  0  0
    2.6490   -1.0210   -1.1410 N   0  0  0  0  0  0  0  0  0  0  0  0
    1.3150   -0.6600   -1.4490 C   0  0  0  0  0  0  0  0  0  0  0  0
    0.8480   -1.0880   -2.6920 C   0  0  0  0  0  0  0  0  0  0  0  0
   -0.4360   -0.8010   -3.0930 C   0  0  0  0  0  0  0  0  0  0  0  0
   -1.2950   -0.0900   -2.2910 C   0  0  0  0  0  0  0  0  0  0  0  0
   -0.8490    0.3430   -1.0530 C   0  0  0  0  0  0  0  0  0  0  0  0
   -1.6730    1.0810   -0.1710 N   0  0  0  0  0  0  0  0  0  0  0  0
   -2.9910    1.4070   -0.5330 C   0  0  0  0  0  0  0  0  0  0  0  0
   -4.0010    0.9640    0.1840 C   0  0  0  0  0  0  0  0  0  0  0  0
   -3.9610    0.1360    1.3710 C   0  0  0  0  0  0  0  0  0  0  0  0
   -2.7260   -0.3990    2.0400 C   0  0  0  0  0  0  0  0  0  0  0  0
   -5.1830   -0.0540    1.7420 N   0  0  0  0  0  0  0  0  0  0  0  0
   -6.0970    0.6140    0.8570 C   0  0  0  0  0  0  0  0  0  0  0  0
   -5.4310    1.2360   -0.0900 C   0  0  0  0  0  0  0  0  0  0  0  0
   -6.3510    1.9380   -1.0290 C   0  0  0  0  0  0  0  0  0  0  0  0
   -7.6610    1.2110   -0.7900 C   0  0  0  0  0  0  0  0  0  0  0  0
   -7.5620    0.8350    0.6610 C   0  0  0  0  0  0  0  0  0  0  0  0
    0.4660    0.0390   -0.6630 C   0  0  0  0  0  0  0  0  0  0  0  0
    5.5810   -0.3620    1.1580 C   0  0  0  0  0  0  0  0  0  0  0  0
  1  2  1  0
  2  3  1  0
  3  4  2  0
  3 29  1  0
  4  5  1  0
  5  6  1  0
  5  7  2  0
  7  8  1  0
  8  9  1  0
  8 29  2  0
  9 10  2  0
  9 11  1  0
 11 12  1  0
 12 13  2  0
 12 28  1  0
 13 14  1  0
 14 15  2  0
 15 16  1  0
 16 17  1  0
 16 28  2  0
 17 18  1  0
 18 19  2  3
 19 20  1  0
 19 24  1  0
 20 21  1  0
 20 22  2  0
 22 23  1  0
 23 24  2  0
 23 27  1  0
 24 25  1  0
 25 26  1  0
 26 27  1  0
M  END
