
     RDKit          3D

 31 34  0  0  0  0  0  0  0  0999 V2000
   -2.9060   -3.5290    2.7570 C   0  0  0  0  0  0  0  0  0  0  0  0
   -3.5620   -2.3260    2.1620 C   0  0  0  0  0  0  0  0  0  0  0  0
   -2.6570   -1.4910    1.4690 O   0  0  0  0  0  0  0  0  0  0  0  0
   -3.1480   -0.3380    0.8710 C   0  0  0  0  0  0  0  0  0  0  0  0
   -4.4840   -0.0010    0.9410 C   0  0  0  0  0  0  0  0  0  0  0  0
   -4.9350    1.1500    0.3350 C   0  0  0  0  0  0  0  0  0  0  0  0
   -4.1000    1.9950   -0.3490 C   0  0  0  0  0  0  0  0  0  0  0  0
   -4.5750    3.2260   -0.9970 C   0  0  0  0  0  0  0  0  0  0  0  0
   -3.6780    4.1300   -1.7320 C   0  0  0  0  0  0  0  0  0  0  0  0
   -5.7980    3.5320   -0.9290 O   0  0  0  0  0  0  0  0  0  0  0  0
   -2.7500    1.6410   -0.4110 C   0  0  0  0  0  0  0  0  0  0  0  0
   -2.2590    0.5010    0.1800 C   0  0  0  0  0  0  0  0  0  0  0  0
   -0.9070    0.0850    0.1550 N   0  0  0  0  0  0  0  0  0  0  0  0
    0.1800    0.7400   -0.4640 C   0  0  0  0  0  0  0  0  0  0  0  0
   -0.0160    1.8120   -1.0770 O   0  0  0  0  0  0  0  0  0  0  0  0
    1.5490    0.2470   -0.4450 C   0  0  0  0  0  0  0  0  0  0  0  0
    2.4850    0.7490   -1.3240 C   0  0  0  0  0  0  0  0  0  0  0  0
    3.7880    0.3090   -1.3290 C   0  0  0  0  0  0  0  0  0  0  0  0
    4.7860    0.8590   -2.2840 C   0  0  0  0  0  0  0  0  0  0  0  0
    4.4240    1.8280   -3.1880 C   0  0  0  0  0  0  0  0  0  0  0  0
    5.9850    2.1280   -4.0820 S   0  0  0  0  0  0  0  0  0  0  0  0
    6.8740    0.8410   -3.0320 C   0  0  0  0  0  0  0  0  0  0  0  0
    6.0460    0.4920   -2.3540 N   0  0  0  0  0  0  0  0  0  0  0  0
    4.1000   -0.6620   -0.4020 C   0  0  0  0  0  0  0  0  0  0  0  0
    3.2110   -1.1990    0.4970 C   0  0  0  0  0  0  0  0  0  0  0  0
    3.6030   -2.2310    1.4600 C   0  0  0  0  0  0  0  0  0  0  0  0
    4.8280   -2.7720    1.5910 N   0  0  0  0  0  0  0  0  0  0  0  0
    4.7970   -3.6690    2.5640 N   0  0  0  0  0  0  0  0  0  0  0  0
    3.5650   -3.6760    3.0210 N   0  0  0  0  0  0  0  0  0  0  0  0
    2.8150   -2.7980    2.3540 N   0  0  0  0  0  0  0  0  0  0  0  0
    1.8970   -0.7170    0.4610 C   0  0  0  0  0  0  0  0  0  0  0  0
  1  2  1  0
  2  3  1  0
  3  4  1  0
  4  5  2  0
  4 12  1  0
  5  6  1  0
  6  7  2  0
  7  8  1  0
  7 11  1  0
  8  9  1  0
  8 10  2  0
 11 12  2  0
 12 13  1  0
 13 14  1  0
 14 15  2  0
 14 16  1  0
 16 17  2  0
 16 31  1  0
 17 18  1  0
 18 19  1  0
 18 24  2  0
 19 20  2  0
 19 23  1  0
 20 21  1  0
 21 22  1  0
 22 23  2  0
 24 25  1  0
 25 26  1  0
 25 31  2  0
 26 27  2  0
 26 30  1  0
 27 28  1  0
 28 29  2  0
 29 30  1  0
M  END
