
     RDKit          3D

 29 32  0  0  0  0  0  0  0  0999 V2000
   -5.9770    2.6880    0.2700 C   0  0  0  0  0  0  0  0  0  0  0  0
   -4.8620    2.2350   -0.5660 C   0  0  0  0  0  0  0  0  0  0  0  0
   -4.4430    2.9400   -1.5780 N   0  0  0  0  0  0  0  0  0  0  0  0
   -3.3750    2.3450   -2.2470 C   0  0  0  0  0  0  0  0  0  0  0  0
   -3.0970    1.1880   -1.6190 C   0  0  0  0  0  0  0  0  0  0  0  0
   -4.0180    1.0380   -0.5100 C   0  0  0  0  0  0  0  0  0  0  0  0
   -4.1790    0.0250    0.2940 C   0  0  0  0  0  0  0  0  0  0  0  0
   -5.2570   -0.1980    1.3440 C   0  0  0  0  0  0  0  0  0  0  0  0
   -5.5280   -1.6180    0.9210 N   0  0  0  0  0  0  0  0  0  0  0  0
   -4.1970   -2.1570    0.8520 C   0  0  0  0  0  0  0  0  0  0  0  0
   -3.8180   -3.8250    1.1870 Cl  0  0  0  0  0  0  0  0  0  0  0  0
   -3.3480   -1.1980    0.4880 C   0  0  0  0  0  0  0  0  0  0  0  0
   -1.8950   -1.2550    0.3340 C   0  0  0  0  0  0  0  0  0  0  0  0
   -1.2920   -0.1990    0.0300 O   0  0  0  0  0  0  0  0  0  0  0  0
   -1.0930   -2.3970    0.4960 N   0  0  0  0  0  0  0  0  0  0  0  0
    0.3140   -2.4910    0.3590 C   0  0  0  0  0  0  0  0  0  0  0  0
    0.8660   -3.7730    0.3250 C   0  0  0  0  0  0  0  0  0  0  0  0
    2.2060   -4.0080    0.2080 C   0  0  0  0  0  0  0  0  0  0  0  0
    3.0600   -2.9550    0.1180 C   0  0  0  0  0  0  0  0  0  0  0  0
    2.5700   -1.6720    0.1460 C   0  0  0  0  0  0  0  0  0  0  0  0
    3.3810   -0.5760    0.0590 O   0  0  0  0  0  0  0  0  0  0  0  0
    4.7630   -0.5700   -0.0650 C   0  0  0  0  0  0  0  0  0  0  0  0
    5.2230    0.8620   -0.1250 C   0  0  0  0  0  0  0  0  0  0  0  0
    5.5420    1.5390    1.0330 C   0  0  0  0  0  0  0  0  0  0  0  0
    5.9670    2.8660    0.9600 C   0  0  0  0  0  0  0  0  0  0  0  0
    6.0720    3.5100   -0.2590 C   0  0  0  0  0  0  0  0  0  0  0  0
    5.7500    2.8220   -1.4080 C   0  0  0  0  0  0  0  0  0  0  0  0
    5.3290    1.5100   -1.3460 C   0  0  0  0  0  0  0  0  0  0  0  0
    1.1920   -1.4470    0.2670 C   0  0  0  0  0  0  0  0  0  0  0  0
  1  2  1  0
  2  3  2  0
  2  6  1  0
  3  4  1  0
  4  5  2  0
  5  6  1  0
  6  7  2  3
  7  8  1  0
  7 12  1  0
  8  9  1  0
  9 10  1  0
 10 11  1  0
 10 12  2  0
 12 13  1  0
 13 14  2  0
 13 15  1  0
 15 16  1  0
 16 17  2  0
 16 29  1  0
 17 18  1  0
 18 19  2  0
 19 20  1  0
 20 21  1  0
 20 29  2  0
 21 22  1  0
 22 23  1  0
 23 24  2  0
 23 28  1  0
 24 25  1  0
 25 26  2  0
 26 27  1  0
 27 28  2  0
M  END
