
     RDKit          3D

 21 23  0  0  0  0  0  0  0  0999 V2000
    1.9680    4.0120   -0.0210 C   0  0  0  0  0  0  0  0  0  0  0  0
    0.5840    3.4230    0.0190 C   0  0  0  0  0  0  0  0  0  0  0  0
    0.4200    2.1260    0.1410 C   0  0  0  0  0  0  0  0  0  0  0  0
    1.4250    1.1360    0.2480 N   0  0  0  0  0  0  0  0  0  0  0  0
    0.8800   -0.0400    0.3540 C   0  0  0  0  0  0  0  0  0  0  0  0
    1.6320   -1.2350    0.4770 N   0  0  0  0  0  0  0  0  0  0  0  0
    2.8620   -1.4770   -0.1690 C   0  0  0  0  0  0  0  0  0  0  0  0
    3.5330   -2.6550    0.1020 C   0  0  0  0  0  0  0  0  0  0  0  0
    4.7370   -2.9700   -0.4910 C   0  0  0  0  0  0  0  0  0  0  0  0
    5.2660   -2.0930   -1.3610 N   0  0  0  0  0  0  0  0  0  0  0  0
    4.6690   -0.9480   -1.6620 C   0  0  0  0  0  0  0  0  0  0  0  0
    3.4410   -0.6200   -1.0600 C   0  0  0  0  0  0  0  0  0  0  0  0
   -0.5760    0.1130    0.3210 C   0  0  0  0  0  0  0  0  0  0  0  0
   -1.5990   -0.8060    0.3970 C   0  0  0  0  0  0  0  0  0  0  0  0
   -2.8960   -0.3340    0.3360 C   0  0  0  0  0  0  0  0  0  0  0  0
   -3.9710   -1.2410    0.4100 N   0  0  0  0  0  0  0  0  0  0  0  0
   -3.7190   -2.6780    0.5500 C   0  0  0  0  0  0  0  0  0  0  0  0
   -3.1910    1.0040    0.2050 C   0  0  0  0  0  0  0  0  0  0  0  0
   -4.5920    1.4660    0.1440 C   0  0  0  0  0  0  0  0  0  0  0  0
   -2.1690    1.8740    0.1340 N   0  0  0  0  0  0  0  0  0  0  0  0
   -0.8690    1.4590    0.1890 C   0  0  0  0  0  0  0  0  0  0  0  0
  1  2  1  0
  2  3  2  3
  3  4  1  0
  3 21  1  0
  4  5  2  0
  5  6  1  0
  5 13  1  0
  6  7  1  0
  7  8  2  0
  7 12  1  0
  8  9  1  0
  9 10  2  0
 10 11  1  0
 11 12  2  0
 13 14  2  0
 13 21  1  0
 14 15  1  0
 15 16  1  0
 15 18  2  0
 16 17  1  0
 18 19  1  0
 18 20  1  0
 20 21  2  0
M  END
