
     RDKit          3D

 20 22  0  0  0  0  0  0  0  0999 V2000
   -6.0090   -0.6130   -1.7820 C   0  0  0  0  0  0  0  0  0  0  0  0
   -4.7620   -0.6520   -0.9650 C   0  0  0  0  0  0  0  0  0  0  0  0
   -4.4710   -1.5780    0.0210 C   0  0  0  0  0  0  0  0  0  0  0  0
   -3.2140   -1.2660    0.5420 C   0  0  0  0  0  0  0  0  0  0  0  0
   -2.5080   -2.0030    1.6250 C   0  0  0  0  0  0  0  0  0  0  0  0
   -2.7930   -0.1810   -0.1350 N   0  0  0  0  0  0  0  0  0  0  0  0
   -1.5420    0.4570    0.0980 C   0  0  0  0  0  0  0  0  0  0  0  0
   -1.4190    1.6530    0.7740 C   0  0  0  0  0  0  0  0  0  0  0  0
   -0.2170    2.2870    1.0100 C   0  0  0  0  0  0  0  0  0  0  0  0
   -0.1240    3.5230    1.7120 N   0  0  0  0  0  0  0  0  0  0  0  0
    0.9190    1.6410    0.5170 C   0  0  0  0  0  0  0  0  0  0  0  0
    0.8020    0.4490   -0.1560 C   0  0  0  0  0  0  0  0  0  0  0  0
    2.0070   -0.2400   -0.6810 C   0  0  1  0  0  0  0  0  0  0  0  0
    2.7500    0.6460   -1.6500 C   0  0  0  0  0  0  0  0  0  0  0  0
    4.2380    0.6300   -1.3900 C   0  0  0  0  0  0  0  0  0  0  0  0
    4.7470   -0.7670   -1.1240 C   0  0  0  0  0  0  0  0  0  0  0  0
    4.0910   -1.3780    0.1080 C   0  0  0  0  0  0  0  0  0  0  0  0
    2.8670   -0.5940    0.5220 C   0  0  0  0  0  0  0  0  0  0  0  0
   -0.4040   -0.1120   -0.3500 N   0  0  0  0  0  0  0  0  0  0  0  0
   -3.6960    0.1790   -1.0150 N   0  0  0  0  0  0  0  0  0  0  0  0
  1  2  1  0
  2  3  1  0
  2 20  2  0
  3  4  2  0
  4  5  1  0
  4  6  1  0
  6  7  1  0
  6 20  1  0
  7  8  2  0
  7 19  1  0
  8  9  1  0
  9 10  1  0
  9 11  2  0
 11 12  1  0
 13 12  1  1
 12 19  2  0
 13 14  1  0
 13 18  1  0
 14 15  1  0
 15 16  1  0
 16 17  1  0
 17 18  1  0
M  END
