
     RDKit          3D

 21 23  0  0  0  0  0  0  0  0999 V2000
   -1.4810    1.0520    2.0010 C   0  0  0  0  0  0  0  0  0  0  0  0
   -2.8170    1.0430    1.4020 C   0  0  0  0  0  0  0  0  0  0  0  0
   -3.1200    0.4780    0.2760 C   0  0  0  0  0  0  0  0  0  0  0  0
   -4.5180    0.5580   -0.1900 C   0  0  0  0  0  0  0  0  0  0  0  0
   -5.1640   -0.2840   -0.9700 C   0  0  0  0  0  0  0  0  0  0  0  0
   -4.6530   -1.5240   -1.5780 C   0  0  0  0  0  0  0  0  0  0  0  0
   -3.4210   -1.9580   -1.7540 C   0  0  0  0  0  0  0  0  0  0  0  0
   -2.1910   -1.2730   -1.3660 C   0  0  0  0  0  0  0  0  0  0  0  0
   -1.0440   -1.7450   -1.9620 C   0  0  0  0  0  0  0  0  0  0  0  0
    0.1280   -1.1690   -1.6690 N   0  0  0  0  0  0  0  0  0  0  0  0
    0.2590   -0.1330   -0.8090 C   0  0  0  0  0  0  0  0  0  0  0  0
    1.5340    0.4310   -0.5440 N   0  0  0  0  0  0  0  0  0  0  0  0
    2.7030   -0.0960   -1.1910 C   0  0  0  0  0  0  0  0  0  0  0  0
    3.9780    0.5820   -0.8250 C   0  0  0  0  0  0  0  0  0  0  0  0
    4.2240    0.4690    0.6160 C   0  0  0  0  0  0  0  0  0  0  0  0
    4.9150   -0.5660    1.2060 C   0  0  0  0  0  0  0  0  0  0  0  0
    4.9310   -0.3120    2.5330 N   0  0  0  0  0  0  0  0  0  0  0  0
    4.2780    0.8350    2.7800 C   0  0  0  0  0  0  0  0  0  0  0  0
    3.8500    1.3050    1.6030 N   0  0  0  0  0  0  0  0  0  0  0  0
   -0.8660    0.3180   -0.2340 N   0  0  0  0  0  0  0  0  0  0  0  0
   -2.0750   -0.1970   -0.4680 C   0  0  0  0  0  0  0  0  0  0  0  0
  1  2  1  0
  2  3  2  3
  3  4  1  0
  3 21  1  0
  4  5  2  0
  5  6  1  0
  6  7  2  0
  7  8  1  0
  8  9  2  0
  8 21  1  0
  9 10  1  0
 10 11  2  0
 11 12  1  0
 11 20  1  0
 12 13  1  0
 13 14  1  0
 14 15  1  0
 15 16  2  0
 15 19  1  0
 16 17  1  0
 17 18  2  0
 18 19  1  0
 20 21  2  0
M  END
