
     RDKit          3D

 21 23  0  0  0  0  0  0  0  0999 V2000
   -4.5510    1.6540    0.6060 C   0  0  0  0  0  0  0  0  0  0  0  0
   -3.8720    0.3950    1.1290 C   0  0  0  0  0  0  0  0  0  0  0  0
   -2.5220    0.2290    0.5620 C   0  0  0  0  0  0  0  0  0  0  0  0
   -2.1950   -0.7900   -0.1900 C   0  0  0  0  0  0  0  0  0  0  0  0
   -3.2130   -1.7960   -0.4650 N   0  0  0  0  0  0  0  0  0  0  0  0
   -2.8220   -2.9750   -1.1710 C   0  0  0  0  0  0  0  0  0  0  0  0
   -1.5810   -3.1470   -1.5610 C   0  0  0  0  0  0  0  0  0  0  0  0
   -0.5870   -2.1350   -1.2820 C   0  0  0  0  0  0  0  0  0  0  0  0
   -0.8470   -0.9780   -0.6240 C   0  0  0  0  0  0  0  0  0  0  0  0
    0.2510   -0.0650   -0.3800 C   0  0  0  0  0  0  0  0  0  0  0  0
    1.5200   -0.5800   -0.1390 N   0  0  0  0  0  0  0  0  0  0  0  0
    2.4190    0.3860   -0.0560 C   0  0  0  0  0  0  0  0  0  0  0  0
    3.8590    0.1760    0.1940 C   0  0  0  0  0  0  0  0  0  0  0  0
    4.7300    1.2460    0.2650 C   0  0  0  0  0  0  0  0  0  0  0  0
    6.0560    0.9600    0.5020 C   0  0  0  0  0  0  0  0  0  0  0  0
    6.5140   -0.3250    0.6640 C   0  0  0  0  0  0  0  0  0  0  0  0
    5.6150   -1.3230    0.5840 N   0  0  0  0  0  0  0  0  0  0  0  0
    4.3390   -1.0460    0.3560 N   0  0  0  0  0  0  0  0  0  0  0  0
    1.7680    1.5180   -0.2390 N   0  0  0  0  0  0  0  0  0  0  0  0
    0.4330    1.2680   -0.4440 C   0  0  0  0  0  0  0  0  0  0  0  0
   -0.5470    2.3200   -0.7850 C   0  0  0  0  0  0  0  0  0  0  0  0
  1  2  1  0
  2  3  1  0
  3  4  2  3
  4  5  1  0
  4  9  1  0
  5  6  1  0
  6  7  2  0
  7  8  1  0
  8  9  2  0
  9 10  1  0
 10 11  1  0
 10 20  2  0
 11 12  1  0
 12 13  1  0
 12 19  2  0
 13 14  2  0
 13 18  1  0
 14 15  1  0
 15 16  2  0
 16 17  1  0
 17 18  2  0
 19 20  1  0
 20 21  1  0
M  END
