
     RDKit          3D

 12 12  0  0  0  0  0  0  0  0999 V2000
   -2.0800    1.1850   -0.2270 C   0  0  0  0  0  0  0  0  0  0  0  0
   -1.2620   -0.0070   -0.5750 C   0  0  2  0  0  0  0  0  0  0  0  0
   -1.2040   -0.0960   -1.9730 O   0  0  0  0  0  0  0  0  0  0  0  0
   -1.9170   -1.3070   -0.1080 C   0  0  0  0  0  0  0  0  0  0  0  0
   -2.0400   -1.3560    1.2680 O   0  0  0  0  0  0  0  0  0  0  0  0
    0.1580    0.0550   -0.0920 C   0  0  1  0  0  0  0  0  0  0  0  0
    0.9500    1.1390   -0.7600 C   0  0  0  0  0  0  0  0  0  0  0  0
    2.1320    1.3530   -0.0660 O   0  0  0  0  0  0  0  0  0  0  0  0
    2.5680    0.2200    0.6180 C   0  0  2  0  0  0  0  0  0  0  0  0
    2.9680   -0.7750   -0.3040 O   0  0  0  0  0  0  0  0  0  0  0  0
    1.5690   -0.3020    1.6000 C   0  0  0  0  0  0  0  0  0  0  0  0
    0.2930    0.1470    1.2690 O   0  0  0  0  0  0  0  0  0  0  0  0
  2  1  1  6
  2  3  1  0
  2  4  1  0
  2  6  1  0
  4  5  1  0
  6  7  1  6
  6 12  1  0
  7  8  1  0
  8  9  1  0
  9 10  1  6
  9 11  1  0
 11 12  1  0
M  END
