
     RDKit          3D

 13 13  0  0  0  0  0  0  0  0999 V2000
    4.6830   -0.9420   -0.5470 O   0  0  0  0  0  0  0  0  0  0  0  0
    3.7050   -0.0020   -0.1690 C   0  0  0  0  0  0  0  0  0  0  0  0
    2.4510   -0.7470    0.2470 C   0  0  0  0  0  0  0  0  0  0  0  0
    1.4800    0.1570    0.6220 O   0  0  0  0  0  0  0  0  0  0  0  0
    0.3110   -0.4880    1.0110 C   0  0  1  0  0  0  0  0  0  0  0  0
   -0.0070   -0.2470    2.3390 O   0  0  0  0  0  0  0  0  0  0  0  0
   -0.8010   -0.1220    0.0690 C   0  0  1  0  0  0  0  0  0  0  0  0
   -0.4760   -0.5050   -1.2110 O   0  0  0  0  0  0  0  0  0  0  0  0
   -2.1110   -0.7110    0.5480 C   0  0  0  0  0  0  0  0  0  0  0  0
   -3.1160    0.2230   -0.1100 C   0  0  0  0  0  0  0  0  0  0  0  0
   -2.2340    1.2520   -0.7650 C   0  0  1  0  0  0  0  0  0  0  0  0
   -2.7990    2.5000   -0.8480 O   0  0  0  0  0  0  0  0  0  0  0  0
   -1.0840    1.2340    0.0580 O   0  0  0  0  0  0  0  0  0  0  0  0
  1  2  1  0
  2  3  1  0
  3  4  1  0
  4  5  1  0
  5  6  1  1
  5  7  1  0
  7  8  1  6
  7  9  1  0
  7 13  1  0
  9 10  1  0
 10 11  1  0
 11 12  1  1
 11 13  1  0
M  END
