
     RDKit          3D

 26 29  0  0  0  0  0  0  0  0999 V2000
   -3.7300   -0.5990    2.3050 C   0  0  0  0  0  0  0  0  0  0  0  0
   -2.5080   -0.2200    1.4520 C   0  0  2  0  0  0  0  0  0  0  0  0
   -2.6750    1.1280    0.8970 C   0  0  0  0  0  0  0  0  0  0  0  0
   -2.7330    1.3130   -0.5830 C   0  0  1  0  0  0  0  0  0  0  0  0
   -1.4240    1.3720   -1.2200 C   0  0  0  0  0  0  0  0  0  0  0  0
   -0.3130    1.0070   -0.4950 C   0  0  0  0  0  0  0  0  0  0  0  0
    0.9650    1.0080   -1.0330 C   0  0  0  0  0  0  0  0  0  0  0  0
    1.1630    1.3830   -2.3390 C   0  0  0  0  0  0  0  0  0  0  0  0
    0.0590    1.7510   -3.0680 C   0  0  0  0  0  0  0  0  0  0  0  0
   -1.2310    1.7470   -2.5120 C   0  0  0  0  0  0  0  0  0  0  0  0
   -2.2120    2.1520   -3.3890 O   0  0  0  0  0  0  0  0  0  0  0  0
    2.5390    1.2980   -2.6420 O   0  0  0  0  0  0  0  0  0  0  0  0
    3.2240    1.3530   -1.4040 C   0  0  0  0  0  0  0  0  0  0  0  0
    2.2740    0.6710   -0.4850 C   0  0  1  0  0  0  0  0  0  0  0  0
    2.4480    0.9680    0.8970 N   0  0  0  0  0  0  0  0  0  0  0  0
    2.2600   -0.1510    1.7520 C   0  0  0  0  0  0  0  0  0  0  0  0
    1.5950   -0.1930    2.8400 O   0  0  0  0  0  0  0  0  0  0  0  0
    2.9600   -1.3580    1.2260 C   0  0  2  0  0  0  0  0  0  0  0  0
    4.4340   -1.1880    1.5140 C   0  0  0  0  0  0  0  0  0  0  0  0
    5.2080   -2.3990    0.9940 C   0  0  0  0  0  0  0  0  0  0  0  0
    6.5550   -2.2860    1.2350 O   0  0  0  0  0  0  0  0  0  0  0  0
    2.6160   -1.1270   -0.5530 S   0  0  0  0  0  0  0  0  0  0  0  0
   -3.7310    0.3590   -1.1340 C   0  0  0  0  0  0  0  0  0  0  0  0
   -3.2180   -1.0070   -1.4610 C   0  0  0  0  0  0  0  0  0  0  0  0
   -3.2510   -1.7780   -0.1280 C   0  0  0  0  0  0  0  0  0  0  0  0
   -2.2380   -1.2560    0.6150 O   0  0  0  0  0  0  0  0  0  0  0  0
  2  1  1  6
  2  3  1  0
  2 26  1  0
  3  4  1  0
  4  5  1  6
  4 23  1  0
  5  6  2  0
  5 10  1  0
  6  7  1  0
  7  8  2  0
  7 14  1  0
  8  9  1  0
  8 12  1  0
  9 10  2  0
 10 11  1  0
 12 13  1  0
 14 13  1  6
 14 15  1  0
 14 22  1  0
 15 16  1  0
 16 17  2  0
 16 18  1  0
 18 19  1  6
 18 22  1  0
 19 20  1  0
 20 21  1  0
 23 24  1  0
 24 25  1  0
 25 26  1  0
M  END
