
     RDKit          3D

 13 13  0  0  0  0  0  0  0  0999 V2000
    3.3640   -1.8210    0.3140 O   0  0  0  0  0  0  0  0  0  0  0  0
    3.0890   -0.6120   -0.2880 C   0  0  0  0  0  0  0  0  0  0  0  0
    1.8750    0.0640    0.2980 C   0  0  1  0  0  0  0  0  0  0  0  0
    1.7050    1.4300   -0.3080 C   0  0  0  0  0  0  0  0  0  0  0  0
    0.6500    1.5060   -1.1900 O   0  0  0  0  0  0  0  0  0  0  0  0
   -0.5570    1.0510   -0.7520 C   0  0  0  0  0  0  0  0  0  0  0  0
   -0.4310    0.0270    0.3200 C   0  0  1  0  0  0  0  0  0  0  0  0
   -0.4600    0.6000    1.5960 O   0  0  0  0  0  0  0  0  0  0  0  0
   -1.6210   -0.9020    0.2460 C   0  0  2  0  0  0  0  0  0  0  0  0
   -1.6580   -1.4930   -1.0180 O   0  0  0  0  0  0  0  0  0  0  0  0
   -2.8790   -0.1490    0.5290 C   0  0  0  0  0  0  0  0  0  0  0  0
   -3.1700    0.8630   -0.3600 O   0  0  0  0  0  0  0  0  0  0  0  0
    0.7370   -0.7170    0.1600 O   0  0  0  0  0  0  0  0  0  0  0  0
  1  2  1  0
  3  2  1  6
  3  4  1  0
  3 13  1  0
  4  5  1  0
  5  6  1  0
  6  7  1  0
  7  8  1  1
  7  9  1  0
  7 13  1  0
  9 10  1  6
  9 11  1  0
 11 12  1  0
M  END
