
     RDKit          3D

 13 13  0  0  0  0  0  0  0  0999 V2000
   -3.7880   -0.6160    0.4680 C   0  0  0  0  0  0  0  0  0  0  0  0
   -2.4000   -0.2950   -0.0970 C   0  0  0  0  0  0  0  0  0  0  0  0
   -1.5850    0.1400    0.9440 O   0  0  0  0  0  0  0  0  0  0  0  0
   -0.3300    0.4240    0.3890 C   0  0  1  0  0  0  0  0  0  0  0  0
   -0.5600    1.4170   -0.5590 O   0  0  0  0  0  0  0  0  0  0  0  0
    0.6490    0.8940    1.4190 C   0  0  0  0  0  0  0  0  0  0  0  0
    1.6930   -0.0070    1.4510 O   0  0  0  0  0  0  0  0  0  0  0  0
    1.7500   -0.6210    0.2140 C   0  0  2  0  0  0  0  0  0  0  0  0
    2.5660    0.1960   -0.7680 C   0  0  2  0  0  0  0  0  0  0  0  0
    3.8840    0.3430   -0.2860 O   0  0  0  0  0  0  0  0  0  0  0  0
    2.0430    1.4820   -0.8130 O   0  0  0  0  0  0  0  0  0  0  0  0
    0.3260   -0.7980   -0.1550 C   0  0  2  0  0  0  0  0  0  0  0  0
    0.1030   -1.0020   -1.5050 O   0  0  0  0  0  0  0  0  0  0  0  0
  1  2  1  0
  2  3  1  0
  3  4  1  0
  4  5  1  6
  4  6  1  0
  4 12  1  0
  6  7  1  0
  8  7  1  1
  8  9  1  0
  8 12  1  0
  9 10  1  1
  9 11  1  0
 12 13  1  6
M  END
