
     RDKit          3D

 16 15  0  0  0  0  0  0  0  0999 V2000
   -3.7790   -1.0980    1.5520 C   0  0  0  0  0  0  0  0  0  0  0  0
   -2.8530   -0.3660    0.9600 C   0  0  0  0  0  0  0  0  0  0  0  0
   -1.5000   -0.8610    0.9060 C   0  0  0  0  0  0  0  0  0  0  0  0
   -0.5270   -0.1390    0.3070 C   0  0  0  0  0  0  0  0  0  0  0  0
   -0.9160    1.0830   -0.2370 N   0  0  0  0  0  0  0  0  0  0  0  0
    0.8030   -0.6520    0.2690 C   0  0  0  0  0  0  0  0  0  0  0  0
    1.9290   -0.2350   -0.2060 C   0  0  0  0  0  0  0  0  0  0  0  0
    2.2100    0.9700   -0.8960 C   0  0  0  0  0  0  0  0  0  0  0  0
    1.3430    2.0170   -1.2390 N   0  0  0  0  0  0  0  0  0  0  0  0
    3.4420    1.1580   -1.2760 O   0  0  0  0  0  0  0  0  0  0  0  0
    3.1180   -1.1420   -0.0090 C   0  0  0  0  0  0  0  0  0  0  0  0
    2.9890   -2.2340    0.5880 O   0  0  0  0  0  0  0  0  0  0  0  0
    4.3630   -0.7890   -0.4770 O   0  0  0  0  0  0  0  0  0  0  0  0
    5.5140   -1.5810   -0.3310 C   0  0  0  0  0  0  0  0  0  0  0  0
   -3.3090    1.1930    0.2560 S   0  0  0  0  0  0  0  0  0  0  0  0
   -5.0680    1.5500    0.4740 C   0  0  0  0  0  0  0  0  0  0  0  0
  1  2  2  0
  2  3  1  0
  2 15  1  0
  3  4  2  3
  4  5  1  0
  4  6  1  0
  6  7  2  3
  7  8  1  0
  7 11  1  0
  8  9  1  0
  8 10  2  0
 11 12  2  0
 11 13  1  0
 13 14  1  0
 15 16  1  0
M  END
