
     RDKit          3D

 10 10  0  0  0  0  0  0  0  0999 V2000
    3.1250    0.4100    0.2460 C   0  0  0  0  0  0  0  0  0  0  0  0
    1.7090    0.5610    0.0120 N   0  0  0  0  0  0  0  0  0  0  0  0
    0.8260   -0.5030    0.3400 C   0  0  0  0  0  0  0  0  0  0  0  0
    1.2570   -1.5850    0.8370 O   0  0  0  0  0  0  0  0  0  0  0  0
   -0.6130   -0.3150    0.0880 C   0  0  0  0  0  0  0  0  0  0  0  0
   -1.6220   -1.2210    0.3370 C   0  0  0  0  0  0  0  0  0  0  0  0
   -2.8140   -0.6420   -0.0450 C   0  0  0  0  0  0  0  0  0  0  0  0
   -4.5570   -1.4210    0.0610 Br  0  0  0  0  0  0  0  0  0  0  0  0
   -2.5340    0.6180   -0.5280 C   0  0  0  0  0  0  0  0  0  0  0  0
   -1.2040    0.7710   -0.4290 N   0  0  0  0  0  0  0  0  0  0  0  0
  1  2  1  0
  2  3  1  0
  3  4  2  0
  3  5  1  0
  5  6  2  0
  5 10  1  0
  6  7  1  0
  7  8  1  0
  7  9  2  0
  9 10  1  0
M  END
