
     RDKit          3D

 27 30  0  0  0  0  0  0  0  0999 V2000
   -3.6520   -1.2170   -0.9960 C   0  0  0  0  0  0  0  0  0  0  0  0
   -3.4250    0.0590   -0.2830 C   0  0  2  0  0  0  0  0  0  0  0  0
   -2.0400    0.3010    0.2080 C   0  0  1  0  0  0  0  0  0  0  0  0
   -1.1730    0.3450   -0.8780 O   0  0  0  0  0  0  0  0  0  0  0  0
   -2.0310    1.6190    0.7340 O   0  0  0  0  0  0  0  0  0  0  0  0
   -1.5580   -0.5850    1.2950 C   0  0  1  0  0  0  0  0  0  0  0  0
   -1.2500   -1.9980    0.8690 C   0  0  0  0  0  0  0  0  0  0  0  0
   -0.3210   -1.9910   -0.2020 O   0  0  0  0  0  0  0  0  0  0  0  0
    0.8710   -1.3010   -0.0210 C   0  0  0  0  0  0  0  0  0  0  0  0
    2.0050   -1.5580   -0.7590 C   0  0  0  0  0  0  0  0  0  0  0  0
    3.1660   -0.8470   -0.5440 C   0  0  0  0  0  0  0  0  0  0  0  0
    3.1650    0.1280    0.4290 C   0  0  0  0  0  0  0  0  0  0  0  0
    4.3190    0.8840    0.6940 O   0  0  0  0  0  0  0  0  0  0  0  0
    5.4760    0.6580   -0.0240 C   0  0  0  0  0  0  0  0  0  0  0  0
    6.1110    1.4550   -0.8710 C   0  0  0  0  0  0  0  0  0  0  0  0
    7.3150    0.7690   -1.3970 C   0  0  1  0  0  0  0  0  0  0  0  0
    8.4240    1.4930   -0.9390 O   0  0  0  0  0  0  0  0  0  0  0  0
    7.2760   -0.5200   -0.7340 N   0  0  0  0  0  0  0  0  0  0  0  0
    6.2500   -0.5840    0.0320 C   0  0  0  0  0  0  0  0  0  0  0  0
    2.0340    0.3780    1.1600 C   0  0  0  0  0  0  0  0  0  0  0  0
    0.8610   -0.3140    0.9680 C   0  0  0  0  0  0  0  0  0  0  0  0
   -0.2890   -0.0500    1.7210 O   0  0  0  0  0  0  0  0  0  0  0  0
   -4.4730    0.2100    0.7990 C   0  0  0  0  0  0  0  0  0  0  0  0
   -5.7060    0.5720    0.0050 C   0  0  1  0  0  0  0  0  0  0  0  0
   -6.4690    1.5480    0.6590 O   0  0  0  0  0  0  0  0  0  0  0  0
   -5.1230    1.1270   -1.2710 C   0  0  0  0  0  0  0  0  0  0  0  0
   -3.7550    1.1140   -1.1340 O   0  0  0  0  0  0  0  0  0  0  0  0
  2  1  1  6
  2  3  1  0
  2 23  1  0
  2 27  1  0
  3  4  1  6
  3  5  1  0
  3  6  1  0
  6  7  1  6
  6 22  1  0
  7  8  1  0
  8  9  1  0
  9 10  2  0
  9 21  1  0
 10 11  1  0
 11 12  2  0
 12 13  1  0
 12 20  1  0
 13 14  1  0
 14 15  2  0
 14 19  1  0
 15 16  1  0
 16 17  1  1
 16 18  1  0
 18 19  2  0
 20 21  2  0
 21 22  1  0
 23 24  1  0
 24 25  1  1
 24 26  1  0
 26 27  1  0
M  END
