
     RDKit          3D

 16 16  0  0  0  0  0  0  0  0999 V2000
    5.0520   -0.9950   -0.4900 C   0  0  0  0  0  0  0  0  0  0  0  0
    3.7770   -0.4640    0.1700 C   0  0  0  0  0  0  0  0  0  0  0  0
    3.3930    0.8730   -0.4140 C   0  0  0  0  0  0  0  0  0  0  0  0
    2.1690    1.4680    0.1690 C   0  0  0  0  0  0  0  0  0  0  0  0
    0.9320    0.7080    0.0250 C   0  0  0  0  0  0  0  0  0  0  0  0
    0.8950   -0.3990   -0.6040 O   0  0  0  0  0  0  0  0  0  0  0  0
   -0.3230    1.0920    0.5440 N   0  0  0  0  0  0  0  0  0  0  0  0
   -1.5380    0.3330    0.3950 C   0  0  2  0  0  0  0  0  0  0  0  0
   -2.6160    1.1260    1.1130 C   0  0  0  0  0  0  0  0  0  0  0  0
   -3.9120    0.5470    1.0870 N   0  0  0  0  0  0  0  0  0  0  0  0
   -1.5430   -1.0290    0.8900 C   0  0  0  0  0  0  0  0  0  0  0  0
   -2.0990   -2.0580    0.0050 C   0  0  0  0  0  0  0  0  0  0  0  0
   -2.5970   -1.1760   -1.4420 S   0  0  2  0  0  0  0  0  0  0  0  0
   -4.1010   -1.0530   -1.5250 O   0  0  0  0  0  0  0  0  0  0  0  0
   -2.0370   -1.7880   -2.6930 O   0  0  0  0  0  0  0  0  0  0  0  0
   -1.8450    0.3850   -1.0830 C   0  0  0  0  0  0  0  0  0  0  0  0
  1  2  1  0
  2  3  1  0
  3  4  1  0
  4  5  1  0
  5  6  2  0
  5  7  1  0
  7  8  1  0
  8  9  1  1
  8 11  1  0
  8 16  1  0
  9 10  1  0
 11 12  1  0
 13 12  1  1
 13 14  2  0
 13 15  2  0
 13 16  1  0
M  CHG  1  10   1
M  END
