
     RDKit          3D

 16 16  0  0  0  0  0  0  0  0999 V2000
   -2.8030    2.3290   -0.0260 C   0  0  0  0  0  0  0  0  0  0  0  0
   -3.0340    0.9440    0.3080 N   0  0  0  0  0  0  0  0  0  0  0  0
   -1.8240    0.3900    0.8410 C   0  0  0  0  0  0  0  0  0  0  0  0
   -0.9870   -0.3180   -0.2200 C   0  0  1  0  0  0  0  0  0  0  0  0
    0.1480   -0.8060    0.4140 O   0  0  0  0  0  0  0  0  0  0  0  0
    1.4550   -0.4710    0.2110 C   0  0  0  0  0  0  0  0  0  0  0  0
    1.8460    0.4660   -0.7190 C   0  0  0  0  0  0  0  0  0  0  0  0
    3.1880    0.7930   -0.9100 C   0  0  0  0  0  0  0  0  0  0  0  0
    3.5770    1.7380   -1.8490 O   0  0  0  0  0  0  0  0  0  0  0  0
    4.1780    0.1850   -0.1680 C   0  0  0  0  0  0  0  0  0  0  0  0
    3.7920   -0.7530    0.7650 C   0  0  0  0  0  0  0  0  0  0  0  0
    2.4550   -1.0770    0.9520 C   0  0  0  0  0  0  0  0  0  0  0  0
    2.1230   -2.0290    1.9040 O   0  0  0  0  0  0  0  0  0  0  0  0
   -1.7300   -1.4840   -0.7640 C   0  0  0  0  0  0  0  0  0  0  0  0
   -2.1600   -2.5670    0.0420 N   0  0  0  0  0  0  0  0  0  0  0  0
   -2.0740   -1.5410   -2.3540 S   0  0  0  0  0  0  0  0  0  0  0  0
  1  2  1  0
  2  3  1  0
  4  3  1  1
  4  5  1  0
  4 14  1  0
  5  6  1  0
  6  7  2  0
  6 12  1  0
  7  8  1  0
  8  9  1  0
  8 10  2  0
 10 11  1  0
 11 12  2  0
 12 13  1  0
 14 15  1  0
 14 16  2  0
M  CHG  1   2   1
M  END
