
     RDKit          3D

 16 16  0  0  0  0  0  0  0  0999 V2000
   -5.3620    1.7730   -0.7050 N   0  0  0  0  0  0  0  0  0  0  0  0
   -4.0870    1.1560   -0.8170 C   0  0  0  0  0  0  0  0  0  0  0  0
   -3.1870    1.8180   -1.3790 O   0  0  0  0  0  0  0  0  0  0  0  0
   -3.8090   -0.1960   -0.3070 C   0  0  0  0  0  0  0  0  0  0  0  0
   -2.3440   -0.5570   -0.3610 C   0  0  0  0  0  0  0  0  0  0  0  0
   -1.5010    0.3460    0.4810 C   0  0  0  0  0  0  0  0  0  0  0  0
   -0.0710    0.0210    0.4470 N   0  0  0  0  0  0  0  0  0  0  0  0
    0.3780   -1.2080    0.9170 C   0  0  0  0  0  0  0  0  0  0  0  0
   -0.5760   -2.0110    1.3880 O   0  0  0  0  0  0  0  0  0  0  0  0
    1.6870   -1.7690    0.9860 C   0  0  0  0  0  0  0  0  0  0  0  0
    2.8690   -1.4520    0.6930 C   0  0  0  0  0  0  0  0  0  0  0  0
    3.5400   -0.2910    0.1030 C   0  0  0  0  0  0  0  0  0  0  0  0
    4.8430   -0.2640   -0.0800 C   0  0  0  0  0  0  0  0  0  0  0  0
    5.4220    0.9500   -0.6820 C   0  0  0  0  0  0  0  0  0  0  0  0
    3.8900    1.6230   -1.4550 S   0  0  0  0  0  0  0  0  0  0  0  0
    2.8560    0.8350   -0.2930 O   0  0  0  0  0  0  0  0  0  0  0  0
  1  2  1  0
  2  3  2  0
  2  4  1  0
  4  5  1  0
  5  6  1  0
  6  7  1  0
  7  8  1  0
  8  9  2  0
  8 10  1  0
 10 11  2  3
 11 12  1  0
 12 13  2  0
 12 16  1  0
 13 14  1  0
 14 15  1  0
 15 16  1  0
M  END
