
     RDKit          3D

 16 16  0  0  0  0  0  0  0  0999 V2000
    3.5790   -2.1230   -1.4630 N   0  0  0  0  0  0  0  0  0  0  0  0
    2.5670   -1.5720   -0.5790 C   0  0  0  0  0  0  0  0  0  0  0  0
    3.1950   -0.4190    0.1600 C   0  0  0  0  0  0  0  0  0  0  0  0
    2.3210    0.2310    1.0740 N   0  0  0  0  0  0  0  0  0  0  0  0
    1.0960    0.8630    0.7090 C   0  0  0  0  0  0  0  0  0  0  0  0
    0.8140    0.8140   -0.5250 O   0  0  0  0  0  0  0  0  0  0  0  0
    0.2540    1.5160    1.7380 C   0  0  0  0  0  0  0  0  0  0  0  0
   -0.9420    2.0410    1.2680 O   0  0  0  0  0  0  0  0  0  0  0  0
   -1.9310    1.2730    0.7010 C   0  0  0  0  0  0  0  0  0  0  0  0
   -1.8340   -0.0860    0.5610 C   0  0  0  0  0  0  0  0  0  0  0  0
   -2.8430   -0.8590   -0.0140 C   0  0  0  0  0  0  0  0  0  0  0  0
   -2.6670   -2.2220   -0.1180 O   0  0  0  0  0  0  0  0  0  0  0  0
   -3.9860   -0.2670   -0.4650 C   0  0  0  0  0  0  0  0  0  0  0  0
   -4.1160    1.0850   -0.3420 C   0  0  0  0  0  0  0  0  0  0  0  0
   -3.1170    1.8440    0.2270 C   0  0  0  0  0  0  0  0  0  0  0  0
   -3.3050    3.6050    0.3800 S   0  0  0  0  0  0  0  0  0  0  0  0
  1  2  1  0
  2  3  1  0
  3  4  1  0
  4  5  1  0
  5  6  2  0
  5  7  1  0
  7  8  1  0
  8  9  1  0
  9 10  2  0
  9 15  1  0
 10 11  1  0
 11 12  1  0
 11 13  2  0
 13 14  1  0
 14 15  2  0
 15 16  1  0
M  CHG  1   1   1
M  END
