
     RDKit          3D

 45 49  0  0  0  0  0  0  0  0999 V2000
   -0.1860    0.5080    5.0100 C   0  0  0  0  0  0  0  0  0  0  0  0
   -1.4300    0.1930    4.2200 C   0  0  0  0  0  0  0  0  0  0  0  0
   -1.1150   -0.4570    2.9230 C   0  0  0  0  0  0  0  0  0  0  0  0
   -1.0030   -1.8080    2.6890 C   0  0  0  0  0  0  0  0  0  0  0  0
   -0.6990   -1.9120    1.3290 C   0  0  0  0  0  0  0  0  0  0  0  0
   -0.6460   -0.6300    0.8290 C   0  0  0  0  0  0  0  0  0  0  0  0
   -0.3380   -0.2960   -0.6280 C   0  0  2  0  0  0  0  0  0  0  0  0
    1.0980    0.0490   -0.6950 C   0  0  0  0  0  0  0  0  0  0  0  0
    1.5950    1.2290   -0.9920 C   0  0  0  0  0  0  0  0  0  0  0  0
    3.3790    1.4650   -1.0280 S   0  0  0  0  0  0  0  0  0  0  0  0
    4.2410    0.0170   -0.3990 C   0  0  0  0  0  0  0  0  0  0  0  0
    5.7110    0.2010   -0.4530 C   0  0  0  0  0  0  0  0  0  0  0  0
    6.2080    1.2500   -0.9910 O   0  0  0  0  0  0  0  0  0  0  0  0
    6.6280   -0.7450    0.0760 N   0  0  0  0  0  0  0  0  0  0  0  0
    8.0570   -0.5490    0.0040 C   0  0  0  0  0  0  0  0  0  0  0  0
    8.8460   -1.8130    0.0930 C   0  0  0  0  0  0  0  0  0  0  0  0
    8.0620   -2.9660   -0.5060 C   0  0  1  0  0  0  0  0  0  0  0  0
    8.8210   -4.1450   -0.3370 O   0  0  0  0  0  0  0  0  0  0  0  0
    6.7610   -3.1760    0.1980 C   0  0  0  0  0  0  0  0  0  0  0  0
    6.1190   -1.9300    0.7210 C   0  0  0  0  0  0  0  0  0  0  0  0
    0.7260    2.3290   -1.3380 C   0  0  0  0  0  0  0  0  0  0  0  0
    1.1100    3.5500   -1.6010 C   0  0  0  0  0  0  0  0  0  0  0  0
    2.4530    4.0790   -1.5990 C   0  0  0  0  0  0  0  0  0  0  0  0
    3.3520    4.2170   -0.5570 C   0  0  0  0  0  0  0  0  0  0  0  0
    4.5030    4.7750   -1.0680 C   0  0  0  0  0  0  0  0  0  0  0  0
    4.2760    4.9600   -2.3990 C   0  0  0  0  0  0  0  0  0  0  0  0
    5.2930    5.5540   -3.3400 C   0  0  0  0  0  0  0  0  0  0  0  0
    3.0840    4.5470   -2.6610 O   0  0  0  0  0  0  0  0  0  0  0  0
   -0.7180    1.9930   -1.3180 C   0  0  0  0  0  0  0  0  0  0  0  0
   -1.1920    0.8110   -1.0040 C   0  0  0  0  0  0  0  0  0  0  0  0
   -2.6500    0.6300   -1.0730 C   0  0  0  0  0  0  0  0  0  0  0  0
   -3.3610    1.6100   -1.4170 O   0  0  0  0  0  0  0  0  0  0  0  0
   -3.3360   -0.5610   -0.7900 N   0  0  0  0  0  0  0  0  0  0  0  0
   -4.7790   -0.6870   -0.8800 C   0  0  1  0  0  0  0  0  0  0  0  0
   -5.2080   -1.6850   -1.9150 C   0  0  0  0  0  0  0  0  0  0  0  0
   -6.6140   -1.5670   -2.3520 C   0  0  0  0  0  0  0  0  0  0  0  0
   -7.4420   -0.5180   -1.6670 C   0  0  1  0  0  0  0  0  0  0  0  0
   -8.8320   -0.5770   -2.2890 C   0  0  0  0  0  0  0  0  0  0  0  0
   -7.6400   -0.7940   -0.1930 C   0  0  0  0  0  0  0  0  0  0  0  0
   -6.6180   -0.2690    0.6490 N   0  0  0  0  0  0  0  0  0  0  0  0
   -5.4070   -1.0250    0.4370 C   0  0  2  0  0  0  0  0  0  0  0  0
   -4.4380   -0.6920    1.5470 C   0  0  0  0  0  0  0  0  0  0  0  0
   -5.0340   -1.0170    2.8990 C   0  0  0  0  0  0  0  0  0  0  0  0
   -6.2030   -0.2980    3.1390 O   0  0  0  0  0  0  0  0  0  0  0  0
   -0.8950    0.1830    1.7940 O   0  0  0  0  0  0  0  0  0  0  0  0
  1  2  1  0
  2  3  1  0
  3  4  2  0
  3 45  1  0
  4  5  1  0
  5  6  2  0
  7  6  1  1
  6 45  1  0
  7  8  1  0
  7 30  1  0
  8  9  2  0
  9 10  1  0
  9 21  1  0
 10 11  1  0
 11 12  1  0
 12 13  2  0
 12 14  1  0
 14 15  1  0
 14 20  1  0
 15 16  1  0
 16 17  1  0
 17 18  1  1
 17 19  1  0
 19 20  1  0
 21 22  2  3
 21 29  1  0
 22 23  1  0
 23 24  2  0
 23 28  1  0
 24 25  1  0
 25 26  2  0
 26 27  1  0
 26 28  1  0
 29 30  2  0
 30 31  1  0
 31 32  2  0
 31 33  1  0
 34 33  1  1
 34 35  1  0
 34 41  1  0
 35 36  1  0
 36 37  1  0
 37 38  1  6
 37 39  1  0
 39 40  1  0
 40 41  1  0
 41 42  1  1
 42 43  1  0
 43 44  1  0
M  END
