
     RDKit          3D

 45 49  0  0  0  0  0  0  0  0999 V2000
   -5.3670   -3.2130    2.2130 C   0  0  0  0  0  0  0  0  0  0  0  0
   -5.1860   -2.6060    0.8790 C   0  0  0  0  0  0  0  0  0  0  0  0
   -5.7520   -1.2080    0.6980 C   0  0  1  0  0  0  0  0  0  0  0  0
   -7.1870   -1.1050    0.8810 C   0  0  2  0  0  0  0  0  0  0  0  0
   -7.8470   -1.9610   -0.0370 O   0  0  0  0  0  0  0  0  0  0  0  0
   -7.8250    0.1930    0.9520 C   0  0  0  0  0  0  0  0  0  0  0  0
   -8.6190    0.5660   -0.1600 C   0  0  0  0  0  0  0  0  0  0  0  0
   -8.5890   -0.2780   -1.3980 C   0  0  0  0  0  0  0  0  0  0  0  0
   -9.3570    1.7100   -0.1000 C   0  0  0  0  0  0  0  0  0  0  0  0
   -9.3860    2.5470    0.9860 C   0  0  0  0  0  0  0  0  0  0  0  0
  -10.2110    3.7920    0.9940 C   0  0  0  0  0  0  0  0  0  0  0  0
   -8.6130    2.1680    2.0480 C   0  0  0  0  0  0  0  0  0  0  0  0
   -7.8380    1.0060    2.0480 C   0  0  0  0  0  0  0  0  0  0  0  0
   -7.1570    0.6730    3.3600 C   0  0  0  0  0  0  0  0  0  0  0  0
   -4.6190   -0.1020    1.4210 S   0  0  1  0  0  0  0  0  0  0  0  0
   -4.8890    1.3160    1.2150 O   0  0  0  0  0  0  0  0  0  0  0  0
   -4.4110   -0.5020    2.8900 O   0  0  0  0  0  0  0  0  0  0  0  0
   -3.0200   -0.4460    0.7600 N   0  0  0  0  0  0  0  0  0  0  0  0
   -2.9470   -0.2610   -0.6440 C   0  0  0  0  0  0  0  0  0  0  0  0
   -1.5090   -0.6310   -1.0150 C   0  0  1  0  0  0  0  0  0  0  0  0
   -1.2240   -0.4750   -2.4030 N   0  0  0  0  0  0  0  0  0  0  0  0
    0.0440   -0.6050   -3.0450 C   0  0  0  0  0  0  0  0  0  0  0  0
    0.0110   -1.0510   -4.2240 O   0  0  0  0  0  0  0  0  0  0  0  0
    1.3750   -0.2870   -2.5060 C   0  0  0  0  0  0  0  0  0  0  0  0
    2.3400   -0.2310   -3.4850 C   0  0  0  0  0  0  0  0  0  0  0  0
    3.6320    0.0750   -3.0640 C   0  0  0  0  0  0  0  0  0  0  0  0
    3.9940    0.3200   -1.7630 C   0  0  0  0  0  0  0  0  0  0  0  0
    5.3310    0.6810   -1.3630 C   0  0  0  0  0  0  0  0  0  0  0  0
    5.5080    1.4930   -0.2360 C   0  0  0  0  0  0  0  0  0  0  0  0
    6.7830    1.8910    0.1730 C   0  0  0  0  0  0  0  0  0  0  0  0
    7.8850    1.4790   -0.5430 C   0  0  0  0  0  0  0  0  0  0  0  0
    7.7480    0.6780   -1.6630 C   0  0  0  0  0  0  0  0  0  0  0  0
    6.4510    0.3000   -2.0370 C   0  0  0  0  0  0  0  0  0  0  0  0
    9.0880    0.4120   -2.2460 C   0  0  0  0  0  0  0  0  0  0  0  0
   10.0010    0.7050   -1.0550 C   0  0  2  0  0  0  0  0  0  0  0  0
   10.1280   -0.4800   -0.1470 C   0  0  0  0  0  0  0  0  0  0  0  0
   11.0160   -0.2100    1.0260 C   0  0  2  0  0  0  0  0  0  0  0  0
   12.4270    0.1650    0.6810 C   0  0  0  0  0  0  0  0  0  0  0  0
   11.0560   -1.4210    1.9430 C   0  0  0  0  0  0  0  0  0  0  0  0
    9.2460    1.7040   -0.3860 O   0  0  0  0  0  0  0  0  0  0  0  0
    2.9840    0.2520   -0.8030 C   0  0  0  0  0  0  0  0  0  0  0  0
    1.7000   -0.0490   -1.1960 C   0  0  0  0  0  0  0  0  0  0  0  0
    0.8320   -0.0310   -0.0530 N   0  0  0  0  0  0  0  0  0  0  0  0
   -0.5970    0.0450   -0.0750 C   0  0  0  0  0  0  0  0  0  0  0  0
   -1.1330    0.7910    0.8250 O   0  0  0  0  0  0  0  0  0  0  0  0
  1  2  1  0
  3  2  1  1
  3  4  1  0
  3 15  1  0
  4  5  1  6
  4  6  1  0
  6  7  2  0
  6 13  1  0
  7  8  1  0
  7  9  1  0
  9 10  2  0
 10 11  1  0
 10 12  1  0
 12 13  2  0
 13 14  1  0
 15 16  2  0
 15 17  2  0
 15 18  1  6
 18 19  1  0
 20 19  1  6
 20 21  1  0
 20 44  1  0
 21 22  1  0
 22 23  2  0
 22 24  1  0
 24 25  2  0
 24 42  1  0
 25 26  1  0
 26 27  2  0
 27 28  1  0
 27 41  1  0
 28 29  2  0
 28 33  1  0
 29 30  1  0
 30 31  2  0
 31 32  1  0
 31 40  1  0
 32 33  2  0
 32 34  1  0
 34 35  1  0
 35 36  1  1
 35 40  1  0
 36 37  1  0
 37 38  1  6
 37 39  1  0
 41 42  2  0
 42 43  1  0
 43 44  1  0
 44 45  2  0
M  END
