
     RDKit          3D

 45 49  0  0  0  0  0  0  0  0999 V2000
   -6.7410   -3.3650    0.6410 C   0  0  0  0  0  0  0  0  0  0  0  0
   -5.3680   -2.9700    0.2810 C   0  0  0  0  0  0  0  0  0  0  0  0
   -4.6650   -3.3900   -0.7360 C   0  0  0  0  0  0  0  0  0  0  0  0
   -3.2840   -2.8580   -0.9380 C   0  0  0  0  0  0  0  0  0  0  0  0
   -2.5880   -3.2650   -1.8830 O   0  0  0  0  0  0  0  0  0  0  0  0
   -2.7570   -1.9100   -0.0860 N   0  0  0  0  0  0  0  0  0  0  0  0
   -1.4540   -1.3000   -0.1410 C   0  0  0  0  0  0  0  0  0  0  0  0
   -0.5210   -1.6160   -1.0890 C   0  0  0  0  0  0  0  0  0  0  0  0
    0.7440   -0.9770   -1.0860 C   0  0  0  0  0  0  0  0  0  0  0  0
    1.0580   -0.0360   -0.1380 C   0  0  0  0  0  0  0  0  0  0  0  0
    2.6670    0.7240   -0.1640 S   0  0  0  0  0  0  0  0  0  0  0  0
    3.7580   -0.1050    0.9620 C   0  0  0  0  0  0  0  0  0  0  0  0
    4.2160   -1.4480    0.6080 C   0  0  0  0  0  0  0  0  0  0  0  0
    4.8360   -2.0730    1.5340 O   0  0  0  0  0  0  0  0  0  0  0  0
    4.0610   -2.1200   -0.6110 N   0  0  0  0  0  0  0  0  0  0  0  0
    4.5810   -3.4670   -0.7890 C   0  0  0  0  0  0  0  0  0  0  0  0
    6.0580   -3.5740   -0.6110 C   0  0  2  0  0  0  0  0  0  0  0  0
    6.7530   -2.7750   -1.5230 O   0  0  0  0  0  0  0  0  0  0  0  0
    6.4540   -5.0420   -0.8200 C   0  0  0  0  0  0  0  0  0  0  0  0
    7.9530   -5.1390   -0.6380 C   0  0  0  0  0  0  0  0  0  0  0  0
    0.1200    0.3010    0.8400 C   0  0  0  0  0  0  0  0  0  0  0  0
    0.4350    1.2960    1.8430 C   0  0  0  0  0  0  0  0  0  0  0  0
    0.9800    0.8930    2.9270 O   0  0  0  0  0  0  0  0  0  0  0  0
    0.1880    2.6750    1.7200 N   0  0  0  0  0  0  0  0  0  0  0  0
   -0.4220    3.1680    0.5260 C   0  0  0  0  0  0  0  0  0  0  0  0
   -0.2000    4.6330    0.2490 C   0  0  2  0  0  0  0  0  0  0  0  0
   -1.3440    5.0790   -0.6580 C   0  0  0  0  0  0  0  0  0  0  0  0
   -0.9420    6.2630   -1.5060 C   0  0  0  0  0  0  0  0  0  0  0  0
    0.1330    7.0880   -0.8790 C   0  0  0  0  0  0  0  0  0  0  0  0
    1.3900    6.2690   -0.7810 C   0  0  2  0  0  0  0  0  0  0  0  0
    2.1480    6.3570   -1.9510 O   0  0  0  0  0  0  0  0  0  0  0  0
    1.1380    4.8370   -0.4430 C   0  0  0  0  0  0  0  0  0  0  0  0
   -0.1960    5.3770    1.4020 O   0  0  0  0  0  0  0  0  0  0  0  0
    0.7480    5.0000    2.3180 C   0  0  1  0  0  0  0  0  0  0  0  0
    0.2330    5.3840    3.7190 C   0  0  0  0  0  0  0  0  0  0  0  0
   -0.6190    4.1090    3.5920 C   0  0  0  0  0  0  0  0  0  0  0  0
    0.5370    3.5710    2.7680 C   0  0  1  0  0  0  0  0  0  0  0  0
   -1.0870   -0.3430    0.7940 C   0  0  0  0  0  0  0  0  0  0  0  0
   -2.0770    0.0160    1.8300 C   0  0  0  0  0  0  0  0  0  0  0  0
   -5.1400   -4.4460   -1.6070 C   0  0  0  0  0  0  0  0  0  0  0  0
   -6.0210   -5.4340   -1.2750 C   0  0  0  0  0  0  0  0  0  0  0  0
   -6.5210   -6.3500   -2.2130 C   0  0  0  0  0  0  0  0  0  0  0  0
   -6.1330   -6.2840   -3.5120 C   0  0  0  0  0  0  0  0  0  0  0  0
   -5.2520   -5.3140   -3.8910 C   0  0  0  0  0  0  0  0  0  0  0  0
   -4.7630   -4.4070   -2.9490 C   0  0  0  0  0  0  0  0  0  0  0  0
  1  2  1  0
  2  3  2  3
  3  4  1  0
  3 40  1  0
  4  5  2  0
  4  6  1  0
  6  7  1  0
  7  8  2  0
  7 38  1  0
  8  9  1  0
  9 10  2  0
 10 11  1  0
 10 21  1  0
 11 12  1  0
 12 13  1  0
 13 14  2  0
 13 15  1  0
 15 16  1  0
 16 17  1  0
 17 18  1  6
 17 19  1  0
 19 20  1  0
 21 22  1  0
 21 38  2  0
 22 23  2  0
 22 24  1  0
 24 25  1  0
 24 37  1  0
 26 25  1  1
 26 27  1  0
 26 32  1  0
 26 33  1  0
 27 28  1  0
 28 29  1  0
 29 30  1  0
 30 31  1  6
 30 32  1  0
 33 34  1  0
 34 35  1  1
 34 37  1  0
 35 36  1  0
 37 36  1  1
 38 39  1  0
 40 41  2  0
 40 45  1  0
 41 42  1  0
 42 43  2  0
 43 44  1  0
 44 45  2  0
M  END
