
     RDKit          3D

 45 49  0  0  0  0  0  0  0  0999 V2000
    3.8000   -0.5120    3.1670 C   0  0  0  0  0  0  0  0  0  0  0  0
    4.9680   -0.4260    2.2510 C   0  0  0  0  0  0  0  0  0  0  0  0
    6.2450   -0.3670    2.7530 C   0  0  0  0  0  0  0  0  0  0  0  0
    7.3800   -0.2940    1.9430 C   0  0  0  0  0  0  0  0  0  0  0  0
    7.2460   -0.2790    0.5810 C   0  0  0  0  0  0  0  0  0  0  0  0
    8.4070   -0.2110   -0.3500 C   0  0  1  0  0  0  0  0  0  0  0  0
    8.2150   -1.1930   -1.3610 O   0  0  0  0  0  0  0  0  0  0  0  0
    8.4740    1.1040   -1.0590 C   0  0  2  0  0  0  0  0  0  0  0  0
    9.6700    1.1130   -2.0040 C   0  0  0  0  0  0  0  0  0  0  0  0
   10.9500    0.9770   -1.2540 C   0  0  0  0  0  0  0  0  0  0  0  0
   11.1260    1.8990   -0.0970 C   0  0  0  0  0  0  0  0  0  0  0  0
    9.8830    2.2070    0.6800 C   0  0  0  0  0  0  0  0  0  0  0  0
    8.6340    2.3050   -0.1770 C   0  0  1  0  0  0  0  0  0  0  0  0
    8.8270    3.4060   -1.0440 O   0  0  0  0  0  0  0  0  0  0  0  0
    5.9380   -0.3390    0.0670 C   0  0  0  0  0  0  0  0  0  0  0  0
    4.8220   -0.4110    0.8560 C   0  0  0  0  0  0  0  0  0  0  0  0
    3.4820   -0.4810    0.3720 N   0  0  0  0  0  0  0  0  0  0  0  0
    3.1160   -0.5060   -0.9850 C   0  0  0  0  0  0  0  0  0  0  0  0
    4.0620   -0.4550   -1.8760 O   0  0  0  0  0  0  0  0  0  0  0  0
    1.7650   -0.5880   -1.5600 C   0  0  0  0  0  0  0  0  0  0  0  0
    0.7160   -0.6270   -0.5890 N   0  0  0  0  0  0  0  0  0  0  0  0
   -0.6260   -0.7730   -1.0340 C   0  0  0  0  0  0  0  0  0  0  0  0
   -0.7810   -0.8660   -2.2990 O   0  0  0  0  0  0  0  0  0  0  0  0
   -1.7780   -0.8140   -0.1400 C   0  0  0  0  0  0  0  0  0  0  0  0
   -1.7400   -0.6930    1.2830 C   0  0  0  0  0  0  0  0  0  0  0  0
   -0.6460   -0.5340    1.9040 O   0  0  0  0  0  0  0  0  0  0  0  0
   -2.9620   -1.0480   -0.7690 C   0  0  0  0  0  0  0  0  0  0  0  0
   -4.2220   -1.1350   -0.1320 C   0  0  0  0  0  0  0  0  0  0  0  0
   -5.3830   -1.3830   -0.6800 C   0  0  0  0  0  0  0  0  0  0  0  0
   -6.6100   -1.4440    0.0960 N   0  0  0  0  0  0  0  0  0  0  0  0
   -7.6040   -1.7370   -0.6090 C   0  0  0  0  0  0  0  0  0  0  0  0
   -9.3230   -1.9360   -0.0930 S   0  0  0  0  0  0  0  0  0  0  0  0
   -9.4330   -1.2400    1.6060 C   0  0  0  0  0  0  0  0  0  0  0  0
   -9.3310    0.2720    1.3920 C   0  0  1  0  0  0  0  0  0  0  0  0
  -10.4950    0.6700    0.4990 C   0  0  0  0  0  0  0  0  0  0  0  0
  -11.6910    0.9090    1.3980 C   0  0  0  0  0  0  0  0  0  0  0  0
  -11.4340    2.1280    2.2630 C   0  0  0  0  0  0  0  0  0  0  0  0
   -9.9440    2.2320    2.5420 C   0  0  0  0  0  0  0  0  0  0  0  0
   -9.3140    1.0190    2.5060 O   0  0  0  0  0  0  0  0  0  0  0  0
   -7.1770   -1.9190   -1.9880 C   0  0  0  0  0  0  0  0  0  0  0  0
   -7.8130   -2.2390   -3.1580 C   0  0  0  0  0  0  0  0  0  0  0  0
   -7.1630   -2.3560   -4.3830 C   0  0  0  0  0  0  0  0  0  0  0  0
   -5.7980   -2.1310   -4.3820 C   0  0  0  0  0  0  0  0  0  0  0  0
   -5.1270   -1.8070   -3.2280 C   0  0  0  0  0  0  0  0  0  0  0  0
   -5.7930   -1.6950   -2.0200 C   0  0  0  0  0  0  0  0  0  0  0  0
  1  2  1  0
  2  3  2  0
  2 16  1  0
  3  4  1  0
  4  5  2  0
  5  6  1  0
  5 15  1  0
  6  7  1  6
  6  8  1  0
  8  9  1  6
  8 13  1  0
  9 10  1  0
 10 11  1  0
 11 12  1  0
 12 13  1  0
 13 14  1  6
 15 16  2  0
 16 17  1  0
 17 18  1  0
 18 19  2  0
 18 20  1  0
 20 21  1  0
 21 22  1  0
 22 23  2  0
 22 24  1  0
 24 25  1  0
 24 27  2  3
 25 26  2  0
 27 28  1  0
 28 29  2  3
 29 30  1  0
 29 45  1  0
 30 31  2  0
 31 32  1  0
 31 40  1  0
 32 33  1  0
 34 33  1  1
 34 35  1  0
 34 39  1  0
 35 36  1  0
 36 37  1  0
 37 38  1  0
 38 39  1  0
 40 41  2  0
 40 45  1  0
 41 42  1  0
 42 43  2  0
 43 44  1  0
 44 45  2  0
M  END
