
     RDKit          3D

 13 14  0  0  0  0  0  0  0  0999 V2000
    0.6450   -0.5780    1.9100 O   0  0  0  0  0  0  0  0  0  0  0  0
    0.5230   -0.2550    0.7210 C   0  0  0  0  0  0  0  0  0  0  0  0
   -0.7460   -0.1320    0.0690 N   0  0  0  0  0  0  0  0  0  0  0  0
   -1.9500   -0.3880    0.8000 C   0  0  1  0  0  0  0  0  0  0  0  0
   -2.8420    0.8480    0.6410 C   0  0  0  0  0  0  0  0  0  0  0  0
   -3.5200    0.5980   -0.5840 N   0  0  0  0  0  0  0  0  0  0  0  0
   -3.2900   -0.6340   -0.9930 O   0  0  0  0  0  0  0  0  0  0  0  0
   -2.7960   -1.3950    0.0250 C   0  0  0  0  0  0  0  0  0  0  0  0
    1.6600   -0.0060    0.0010 O   0  0  0  0  0  0  0  0  0  0  0  0
    2.9630   -0.0720    0.4520 C   0  0  2  0  0  0  0  0  0  0  0  0
    3.7320    1.1830    0.0390 C   0  0  0  0  0  0  0  0  0  0  0  0
    4.8660    0.3660   -0.0040 O   0  0  0  0  0  0  0  0  0  0  0  0
    4.0090   -0.6570   -0.4390 C   0  0  0  0  0  0  0  0  0  0  0  0
  1  2  2  0
  2  3  1  0
  2  9  1  0
  4  3  1  6
  4  5  1  0
  4  8  1  0
  5  6  1  0
  6  7  1  0
  7  8  1  0
 10  9  1  6
 10 11  1  0
 10 13  1  0
 11 12  1  0
 12 13  1  0
M  CHG  1   6   1
M  END
