
     RDKit          3D

 12 12  0  0  0  0  0  0  0  0999 V2000
   -2.8250    0.0990    0.5920 C   0  0  0  0  0  0  0  0  0  0  0  0
   -1.6740   -0.7500    0.6310 N   0  0  0  0  0  0  0  0  0  0  0  0
   -0.9160   -0.5760   -0.6140 C   0  0  1  0  0  0  0  0  0  0  0  0
   -0.1900    0.7230   -0.5970 C   0  0  0  0  0  0  0  0  0  0  0  0
    1.2070    0.6150   -0.1300 C   0  0  0  0  0  0  0  0  0  0  0  0
    1.7760    1.6010    0.5510 C   0  0  0  0  0  0  0  0  0  0  0  0
    3.0870    1.4890    0.9840 O   0  0  0  0  0  0  0  0  0  0  0  0
    1.9640   -0.5940   -0.4250 C   0  0  0  0  0  0  0  0  0  0  0  0
    3.2370   -0.5500   -0.3400 N   0  0  0  0  0  0  0  0  0  0  0  0
    1.3180   -1.7530   -0.7860 O   0  0  0  0  0  0  0  0  0  0  0  0
   -0.0660   -1.7420   -0.8620 C   0  0  0  0  0  0  0  0  0  0  0  0
   -0.6300   -2.8250   -1.1690 O   0  0  0  0  0  0  0  0  0  0  0  0
  1  2  1  0
  3  2  1  1
  3  4  1  0
  3 11  1  0
  4  5  1  0
  5  6  2  3
  5  8  1  0
  6  7  1  0
  8  9  2  0
  8 10  1  0
 10 11  1  0
 11 12  2  0
M  CHG  1   2   1
M  END
