
     RDKit          3D

 26 28  0  0  0  0  0  0  0  0999 V2000
   -3.7280   -0.9510    2.1140 C   0  0  0  0  0  0  0  0  0  0  0  0
   -2.7650   -0.9470    0.9390 C   0  0  2  0  0  0  0  0  0  0  0  0
   -1.6110   -0.0490    1.2010 C   0  0  0  0  0  0  0  0  0  0  0  0
   -1.0780    0.7180    0.0490 C   0  0  1  0  0  0  0  0  0  0  0  0
    0.3880    1.0410    0.3160 C   0  0  2  0  0  0  0  0  0  0  0  0
    0.4290    1.8540    1.5840 C   0  0  0  0  0  0  0  0  0  0  0  0
   -0.3180    3.1360    1.5570 C   0  0  0  0  0  0  0  0  0  0  0  0
   -0.1340    3.7200    2.8370 O   0  0  0  0  0  0  0  0  0  0  0  0
    0.9760    1.8400   -0.8250 C   0  0  0  0  0  0  0  0  0  0  0  0
    2.3740    2.2300   -0.4780 C   0  0  0  0  0  0  0  0  0  0  0  0
    3.2500    1.0640   -0.1270 C   0  0  1  0  0  0  0  0  0  0  0  0
    4.0220    1.3270    1.0250 O   0  0  0  0  0  0  0  0  0  0  0  0
    2.5530   -0.2350   -0.0070 C   0  0  2  0  0  0  0  0  0  0  0  0
    3.3920   -1.1200    0.9330 C   0  0  0  0  0  0  0  0  0  0  0  0
    3.2500   -2.5810    0.5740 C   0  0  0  0  0  0  0  0  0  0  0  0
    3.8440   -2.8880   -0.6380 O   0  0  0  0  0  0  0  0  0  0  0  0
    3.9680   -1.7290   -1.3610 C   0  0  0  0  0  0  0  0  0  0  0  0
    2.6460   -0.9450   -1.3670 C   0  0  0  0  0  0  0  0  0  0  0  0
    1.1730   -0.2090    0.5200 C   0  0  0  0  0  0  0  0  0  0  0  0
   -1.2100    0.0510   -1.2870 C   0  0  2  0  0  0  0  0  0  0  0  0
   -1.3290    1.0740   -2.2600 O   0  0  0  0  0  0  0  0  0  0  0  0
   -2.4280   -0.8050   -1.4440 C   0  0  2  0  0  0  0  0  0  0  0  0
   -2.0990   -2.2770   -1.3770 C   0  0  0  0  0  0  0  0  0  0  0  0
   -3.1610   -0.5400   -2.7470 C   0  0  0  0  0  0  0  0  0  0  0  0
   -3.4480   -0.5290   -0.3310 C   0  0  1  0  0  0  0  0  0  0  0  0
   -4.5740   -1.2860   -0.5810 O   0  0  0  0  0  0  0  0  0  0  0  0
  2  1  1  1
  2  3  1  0
  2 25  1  0
  4  3  1  1
  4  5  1  0
  4 20  1  0
  5  6  1  1
  5  9  1  0
  5 19  1  0
  6  7  1  0
  7  8  1  0
  9 10  1  0
 10 11  1  0
 11 12  1  1
 11 13  1  0
 13 14  1  1
 13 18  1  0
 13 19  1  0
 14 15  1  0
 15 16  1  0
 16 17  1  0
 17 18  1  0
 20 21  1  6
 20 22  1  0
 22 23  1  6
 22 24  1  0
 22 25  1  0
 25 26  1  6
M  END
