
     RDKit          3D

 26 29  0  0  0  0  0  0  0  0999 V2000
   -4.9710   -2.8900    0.6520 C   0  0  0  0  0  0  0  0  0  0  0  0
   -4.5150   -1.4460    0.6020 C   0  0  1  0  0  0  0  0  0  0  0  0
   -3.0510   -1.3300    0.2450 C   0  0  0  0  0  0  0  0  0  0  0  0
   -2.7000    0.1330    0.3320 C   0  0  1  0  0  0  0  0  0  0  0  0
   -3.1100    0.5860    1.5820 O   0  0  0  0  0  0  0  0  0  0  0  0
   -1.2880    0.4620    0.0460 C   0  0  1  0  0  0  0  0  0  0  0  0
   -0.8600    0.0220   -1.2060 O   0  0  0  0  0  0  0  0  0  0  0  0
   -1.1250    1.9670    0.0740 C   0  0  0  0  0  0  0  0  0  0  0  0
    0.1660    2.3310   -0.6170 C   0  0  0  0  0  0  0  0  0  0  0  0
    1.2430    1.3370   -0.3280 C   0  0  1  0  0  0  0  0  0  0  0  0
    2.5480    2.1130   -0.2120 C   0  0  0  0  0  0  0  0  0  0  0  0
    3.5860    1.4060    0.5850 C   0  0  0  0  0  0  0  0  0  0  0  0
    3.4360   -0.0750    0.4190 C   0  0  1  0  0  0  0  0  0  0  0  0
    3.7290   -0.5140   -0.9770 C   0  0  0  0  0  0  0  0  0  0  0  0
    5.0710   -1.1460   -0.9300 C   0  0  0  0  0  0  0  0  0  0  0  0
    5.4400   -1.2310    0.3350 C   0  0  0  0  0  0  0  0  0  0  0  0
    6.7560   -1.8220    0.7760 C   0  0  0  0  0  0  0  0  0  0  0  0
    7.4540   -0.8330    1.4570 O   0  0  0  0  0  0  0  0  0  0  0  0
    4.4650   -0.7120    1.1520 O   0  0  0  0  0  0  0  0  0  0  0  0
    2.1070   -0.5610    0.9340 C   0  0  0  0  0  0  0  0  0  0  0  0
    1.0420    0.5240    0.8990 C   0  0  2  0  0  0  0  0  0  0  0  0
   -0.3050   -0.0870    1.0470 C   0  0  0  0  0  0  0  0  0  0  0  0
   -3.5700    0.8710   -0.6960 C   0  0  0  0  0  0  0  0  0  0  0  0
   -4.5740   -0.1010   -1.2910 C   0  0  2  0  0  0  0  0  0  0  0  0
   -5.4920    0.7040   -2.1710 C   0  0  0  0  0  0  0  0  0  0  0  0
   -5.2630   -0.7990   -0.3370 O   0  0  0  0  0  0  0  0  0  0  0  0
  2  1  1  6
  2  3  1  0
  2 26  1  0
  3  4  1  0
  4  5  1  1
  4  6  1  0
  4 23  1  0
  6  7  1  6
  6  8  1  0
  6 22  1  0
  8  9  1  0
 10  9  1  1
 10 11  1  0
 10 21  1  0
 11 12  1  0
 13 12  1  6
 13 14  1  0
 13 19  1  0
 13 20  1  0
 14 15  1  0
 15 16  2  0
 16 17  1  0
 16 19  1  0
 17 18  1  0
 21 20  1  6
 21 22  1  0
 23 24  1  0
 24 25  1  1
 24 26  1  0
M  END
