
     RDKit          3D

 26 28  0  0  0  0  0  0  0  0999 V2000
   -5.2240   -1.9340   -0.8810 C   0  0  0  0  0  0  0  0  0  0  0  0
   -3.7670   -1.5770   -1.1640 C   0  0  1  0  0  0  0  0  0  0  0  0
   -3.5320   -1.5440   -2.5370 O   0  0  0  0  0  0  0  0  0  0  0  0
   -3.4220   -0.2390   -0.5180 C   0  0  1  0  0  0  0  0  0  0  0  0
   -3.9430   -0.2740    0.8690 C   0  0  0  0  0  0  0  0  0  0  0  0
   -2.8940   -0.8790    1.7670 C   0  0  0  0  0  0  0  0  0  0  0  0
   -1.6790   -0.0160    1.6320 C   0  0  2  0  0  0  0  0  0  0  0  0
   -1.9570    1.2340    2.1830 O   0  0  0  0  0  0  0  0  0  0  0  0
   -1.1900    0.0760    0.1990 C   0  0  2  0  0  0  0  0  0  0  0  0
   -0.2360   -1.0610   -0.0760 C   0  0  0  0  0  0  0  0  0  0  0  0
    0.4580   -1.6060    1.1380 C   0  0  0  0  0  0  0  0  0  0  0  0
    1.5570   -2.5400    0.5920 C   0  0  0  0  0  0  0  0  0  0  0  0
    2.4090   -1.7530   -0.1820 O   0  0  0  0  0  0  0  0  0  0  0  0
    3.5760   -1.5580    0.5370 C   0  0  1  0  0  0  0  0  0  0  0  0
    4.5290   -2.6870    0.1370 C   0  0  0  0  0  0  0  0  0  0  0  0
    4.7490   -2.5920   -1.2350 O   0  0  0  0  0  0  0  0  0  0  0  0
    4.1740   -0.2140    0.2740 C   0  0  0  0  0  0  0  0  0  0  0  0
    3.3120    0.5980   -0.6320 C   0  0  0  0  0  0  0  0  0  0  0  0
    2.4650    1.6120    0.1390 C   0  0  0  0  0  0  0  0  0  0  0  0
    1.5910    2.3060   -0.8190 C   0  0  2  0  0  0  0  0  0  0  0  0
    1.1910    3.6670   -0.2540 C   0  0  0  0  0  0  0  0  0  0  0  0
   -0.0890    4.0300   -0.9670 C   0  0  0  0  0  0  0  0  0  0  0  0
   -0.3620    2.8830   -1.8970 C   0  0  0  0  0  0  0  0  0  0  0  0
    0.2520    1.7070   -1.1020 C   0  0  2  0  0  0  0  0  0  0  0  0
   -0.5280    1.4360    0.1090 C   0  0  0  0  0  0  0  0  0  0  0  0
   -2.1460    0.0220   -0.7430 O   0  0  0  0  0  0  0  0  0  0  0  0
  2  1  1  6
  2  3  1  0
  2  4  1  0
  4  5  1  1
  4 26  1  0
  5  6  1  0
  6  7  1  0
  7  8  1  6
  7  9  1  0
  9 10  1  6
  9 25  1  0
  9 26  1  0
 10 11  1  0
 11 12  1  0
 12 13  1  0
 13 14  1  0
 14 15  1  6
 14 17  1  0
 15 16  1  0
 17 18  1  0
 18 19  1  0
 20 19  1  1
 20 21  1  0
 20 24  1  0
 21 22  1  0
 22 23  1  0
 24 23  1  6
 24 25  1  0
M  END
