
     RDKit          3D

 25 28  0  0  0  0  0  0  0  0999 V2000
   -3.0930   -0.9450   -2.3360 C   0  0  0  0  0  0  0  0  0  0  0  0
   -2.9420    0.3290   -1.5410 C   0  0  1  0  0  0  0  0  0  0  0  0
   -3.1280    1.4690   -2.5570 C   0  0  0  0  0  0  0  0  0  0  0  0
   -3.9280    0.4010   -0.4470 C   0  0  0  0  0  0  0  0  0  0  0  0
   -3.3950    0.2400    0.9230 C   0  0  2  0  0  0  0  0  0  0  0  0
   -3.3660    1.5680    1.6210 C   0  0  0  0  0  0  0  0  0  0  0  0
   -3.4910    2.6390    1.0190 O   0  0  0  0  0  0  0  0  0  0  0  0
   -3.1860    1.5100    2.9970 O   0  0  0  0  0  0  0  0  0  0  0  0
   -2.4800    0.3310    3.4320 C   0  0  0  0  0  0  0  0  0  0  0  0
   -1.4370    0.1030    2.3260 C   0  0  0  0  0  0  0  0  0  0  0  0
   -2.1410   -0.4940    1.0910 C   0  0  2  0  0  0  0  0  0  0  0  0
   -1.1690   -0.5180   -0.0650 C   0  0  2  0  0  0  0  0  0  0  0  0
   -1.4370   -1.7620   -0.7320 O   0  0  0  0  0  0  0  0  0  0  0  0
    0.2010   -0.6720    0.4500 C   0  0  0  0  0  0  0  0  0  0  0  0
    1.3670   -0.7240   -0.4480 C   0  0  1  0  0  0  0  0  0  0  0  0
    1.5960    0.4970   -1.2370 C   0  0  0  0  0  0  0  0  0  0  0  0
    2.9720    1.0710   -1.2730 C   0  0  0  0  0  0  0  0  0  0  0  0
    4.1110    0.1830   -0.9730 C   0  0  1  0  0  0  0  0  0  0  0  0
    4.9620    0.7070    0.1860 C   0  0  0  0  0  0  0  0  0  0  0  0
    4.4540    0.0940    1.4460 C   0  0  0  0  0  0  0  0  0  0  0  0
    2.9790   -0.2290    1.4410 C   0  0  0  0  0  0  0  0  0  0  0  0
    2.6100   -1.1550    0.3430 C   0  0  1  0  0  0  0  0  0  0  0  0
    2.3200   -2.4120    0.8710 O   0  0  0  0  0  0  0  0  0  0  0  0
    3.7120   -1.2590   -0.7150 C   0  0  0  0  0  0  0  0  0  0  0  0
   -1.4790    0.5210   -1.0600 C   0  0  0  0  0  0  0  0  0  0  0  0
  2  1  1  6
  2  3  1  0
  2  4  1  0
  2 25  1  0
  5  4  1  6
  5  6  1  0
  5 11  1  0
  6  7  2  0
  6  8  1  0
  8  9  1  0
  9 10  1  0
 11 10  1  1
 11 12  1  0
 12 13  1  6
 12 14  1  0
 12 25  1  0
 15 14  1  1
 15 16  1  0
 15 22  1  0
 16 17  1  0
 18 17  1  1
 18 19  1  0
 18 24  1  0
 19 20  1  0
 20 21  1  0
 21 22  1  0
 22 23  1  1
 22 24  1  0
M  END
