
     RDKit          3D

 26 29  0  0  0  0  0  0  0  0999 V2000
    5.3110   -1.7030   -0.7140 C   0  0  0  0  0  0  0  0  0  0  0  0
    3.8480   -2.0410   -0.6030 C   0  0  0  0  0  0  0  0  0  0  0  0
    3.0060   -0.7760   -0.4000 C   0  0  2  0  0  0  0  0  0  0  0  0
    3.4240   -0.1640    0.7620 O   0  0  0  0  0  0  0  0  0  0  0  0
    2.6530   -0.5900    1.8290 C   0  0  0  0  0  0  0  0  0  0  0  0
    1.2750    0.0420    1.7420 C   0  0  0  0  0  0  0  0  0  0  0  0
    0.6880   -0.1300    0.3290 C   0  0  1  0  0  0  0  0  0  0  0  0
   -0.6810   -0.6340    0.4040 C   0  0  0  0  0  0  0  0  0  0  0  0
   -1.7710    0.2300   -0.1260 C   0  0  2  0  0  0  0  0  0  0  0  0
   -2.8000   -0.5790   -0.9260 C   0  0  2  0  0  0  0  0  0  0  0  0
   -3.7850    0.3130   -1.3840 O   0  0  0  0  0  0  0  0  0  0  0  0
   -3.4780   -1.5810   -0.0690 C   0  0  0  0  0  0  0  0  0  0  0  0
   -3.4500   -2.8740   -0.2760 C   0  0  0  0  0  0  0  0  0  0  0  0
   -4.2300   -3.5890    0.7670 C   0  0  0  0  0  0  0  0  0  0  0  0
   -4.7230   -2.5070    1.6240 C   0  0  0  0  0  0  0  0  0  0  0  0
   -4.2810   -1.3640    1.1270 C   0  0  0  0  0  0  0  0  0  0  0  0
   -1.2880    1.3250   -1.0430 C   0  0  0  0  0  0  0  0  0  0  0  0
   -0.0010    1.9280   -0.5400 C   0  0  2  0  0  0  0  0  0  0  0  0
   -0.3390    2.7730    0.6630 C   0  0  0  0  0  0  0  0  0  0  0  0
    0.7880    3.7310    0.9220 C   0  0  0  0  0  0  0  0  0  0  0  0
    0.8010    4.7080   -0.0700 O   0  0  0  0  0  0  0  0  0  0  0  0
    0.2080    4.3190   -1.2430 C   0  0  0  0  0  0  0  0  0  0  0  0
    0.4790    2.8890   -1.6290 C   0  0  0  0  0  0  0  0  0  0  0  0
    0.9490    0.9980   -0.3560 O   0  0  0  0  0  0  0  0  0  0  0  0
    1.5760   -1.2210   -0.3010 C   0  0  1  0  0  0  0  0  0  0  0  0
    1.0750   -1.5690   -1.5560 O   0  0  0  0  0  0  0  0  0  0  0  0
  1  2  1  0
  3  2  1  1
  3  4  1  0
  3 25  1  0
  4  5  1  0
  5  6  1  0
  7  6  1  1
  7  8  1  0
  7 24  1  0
  7 25  1  0
  9  8  1  6
  9 10  1  0
  9 17  1  0
 10 11  1  1
 10 12  1  0
 12 13  2  0
 12 16  1  0
 13 14  1  0
 14 15  1  0
 15 16  2  0
 18 17  1  6
 18 19  1  0
 18 23  1  0
 18 24  1  0
 19 20  1  0
 20 21  1  0
 21 22  1  0
 22 23  1  0
 25 26  1  6
M  END
