
     RDKit          3D

 20 23  0  0  0  0  0  0  0  0999 V2000
   -4.3600    0.3880   -0.6690 C   0  0  0  0  0  0  0  0  0  0  0  0
   -3.2250    0.0470    0.3320 C   0  0  1  0  0  0  0  0  0  0  0  0
   -3.7490    0.4020    1.6620 C   0  0  0  0  0  0  0  0  0  0  0  0
   -2.9410   -1.4460    0.1400 C   0  0  0  0  0  0  0  0  0  0  0  0
   -1.4850   -1.5280   -0.3690 C   0  0  0  0  0  0  0  0  0  0  0  0
   -0.8110   -0.3080    0.2110 C   0  0  2  0  0  0  0  0  0  0  0  0
   -0.8040   -0.5180    1.6750 C   0  0  0  0  0  0  0  0  0  0  0  0
   -2.0140    0.6090   -0.1730 C   0  0  2  0  0  0  0  0  0  0  0  0
   -1.3900    1.8620    0.1400 C   0  0  0  0  0  0  0  0  0  0  0  0
   -0.2600    1.7030   -0.7040 O   0  0  0  0  0  0  0  0  0  0  0  0
    0.2450    0.3820   -0.4440 C   0  0  2  0  0  0  0  0  0  0  0  0
    0.3900   -0.1370   -1.8940 C   0  0  0  0  0  0  0  0  0  0  0  0
    1.0810   -1.4350   -2.0090 C   0  0  0  0  0  0  0  0  0  0  0  0
    2.3450   -1.4750   -1.1870 C   0  0  0  0  0  0  0  0  0  0  0  0
    2.6940   -0.0600   -0.8560 C   0  0  2  0  0  0  0  0  0  0  0  0
    4.0180   -0.1460   -0.1330 C   0  0  0  0  0  0  0  0  0  0  0  0
    4.2430    1.1650    0.5640 C   0  0  0  0  0  0  0  0  0  0  0  0
    3.3330    1.1260    1.7400 C   0  0  0  0  0  0  0  0  0  0  0  0
    2.0210    0.3680    1.4360 C   0  0  0  0  0  0  0  0  0  0  0  0
    1.6120    0.5970    0.0280 C   0  0  2  0  0  0  0  0  0  0  0  0
  2  1  1  6
  2  3  1  0
  2  4  1  0
  2  8  1  0
  4  5  1  0
  5  6  1  0
  6  7  1  1
  6  8  1  0
  6 11  1  0
  8  9  1  1
  9 10  1  0
 10 11  1  0
 11 12  1  6
 11 20  1  0
 12 13  1  0
 13 14  1  0
 15 14  1  1
 15 16  1  0
 15 20  1  0
 16 17  1  0
 17 18  1  0
 18 19  1  0
 20 19  1  1
M  END
