
     RDKit          3D

 21 24  0  0  0  0  0  0  0  0999 V2000
    1.5420    3.3820    0.6050 C   0  0  0  0  0  0  0  0  0  0  0  0
    0.6150    2.2630    0.1730 C   0  0  0  0  0  0  0  0  0  0  0  0
   -0.5850    2.2180    0.6710 C   0  0  0  0  0  0  0  0  0  0  0  0
   -1.5290    1.1640    0.2940 C   0  0  0  0  0  0  0  0  0  0  0  0
   -0.9660   -0.0230   -0.4160 C   0  0  2  0  0  0  0  0  0  0  0  0
   -1.7330   -1.2340   -0.0910 C   0  0  2  0  0  0  0  0  0  0  0  0
   -3.1940   -1.0140   -0.5440 C   0  0  0  0  0  0  0  0  0  0  0  0
   -3.9900   -1.8350    0.4100 C   0  0  0  0  0  0  0  0  0  0  0  0
   -3.1440   -2.3830    1.3320 O   0  0  0  0  0  0  0  0  0  0  0  0
   -1.9320   -1.6470    1.3020 C   0  0  0  0  0  0  0  0  0  0  0  0
    0.5170   -0.1170   -0.5080 C   0  0  1  0  0  0  0  0  0  0  0  0
    1.2210   -0.7500    0.6170 C   0  0  1  0  0  0  0  0  0  0  0  0
    2.7200   -0.9000    0.4690 C   0  0  0  0  0  0  0  0  0  0  0  0
    3.0450   -1.4680    1.8410 C   0  0  0  0  0  0  0  0  0  0  0  0
    2.1360   -1.0090    2.7110 C   0  0  0  0  0  0  0  0  0  0  0  0
    1.1590   -0.1130    1.9650 C   0  0  0  0  0  0  0  0  0  0  0  0
    0.9230   -0.9490   -1.7250 C   0  0  0  0  0  0  0  0  0  0  0  0
    0.3510   -0.4260   -2.9920 C   0  0  0  0  0  0  0  0  0  0  0  0
    0.2480    0.9240   -3.0640 O   0  0  0  0  0  0  0  0  0  0  0  0
    0.9610    1.6950   -2.2210 C   0  0  0  0  0  0  0  0  0  0  0  0
    1.1330    1.2520   -0.8050 C   0  0  1  0  0  0  0  0  0  0  0  0
  1  2  1  0
  2  3  2  0
  2 21  1  0
  3  4  1  0
  5  4  1  1
  5  6  1  0
  5 11  1  0
  6  7  1  1
  6 10  1  0
  7  8  1  0
  8  9  1  0
  9 10  1  0
 11 12  1  0
 11 17  1  6
 11 21  1  0
 12 13  1  6
 12 16  1  0
 13 14  1  0
 14 15  2  0
 15 16  1  0
 17 18  1  0
 18 19  1  0
 19 20  1  0
 21 20  1  6
M  END
