
     RDKit          3D

 20 22  0  0  0  0  0  0  0  0999 V2000
    4.4090    1.6440    2.6340 N   0  0  0  0  0  0  0  0  0  0  0  0
    3.8910    0.9050    1.8830 C   0  0  0  0  0  0  0  0  0  0  0  0
    3.2420   -0.0020    0.9750 C   0  0  0  0  0  0  0  0  0  0  0  0
    3.4520   -1.3520    0.8030 C   0  0  0  0  0  0  0  0  0  0  0  0
    2.6140   -1.7680   -0.1570 N   0  0  0  0  0  0  0  0  0  0  0  0
    1.8630   -0.7800   -0.6320 N   0  0  0  0  0  0  0  0  0  0  0  0
    2.2350    0.3140    0.0530 C   0  0  0  0  0  0  0  0  0  0  0  0
    1.5700    1.5300   -0.2330 N   0  0  0  0  0  0  0  0  0  0  0  0
    0.6360    1.6680   -1.0920 C   0  0  0  0  0  0  0  0  0  0  0  0
   -0.0610    3.3090   -1.2940 Cl  0  0  0  0  0  0  0  0  0  0  0  0
    0.1200    0.5550   -1.8640 C   0  0  2  0  0  0  0  0  0  0  0  0
   -1.3760    0.3310   -1.7050 C   0  0  0  0  0  0  0  0  0  0  0  0
   -1.8050    0.0360   -0.3440 C   0  0  0  0  0  0  0  0  0  0  0  0
   -2.2110    1.0360    0.4970 C   0  0  0  0  0  0  0  0  0  0  0  0
   -2.6190    0.7540    1.8110 C   0  0  0  0  0  0  0  0  0  0  0  0
   -2.5980   -0.5540    2.2290 C   0  0  0  0  0  0  0  0  0  0  0  0
   -2.1940   -1.5870    1.4080 C   0  0  0  0  0  0  0  0  0  0  0  0
   -1.8020   -1.2570    0.1210 C   0  0  0  0  0  0  0  0  0  0  0  0
    0.8730   -0.6800   -1.6320 C   0  0  0  0  0  0  0  0  0  0  0  0
    0.6600   -1.7280   -2.3380 O   0  0  0  0  0  0  0  0  0  0  0  0
  1  2  3  0
  2  3  1  0
  3  4  1  0
  3  7  2  0
  4  5  2  0
  5  6  1  0
  6  7  1  0
  6 19  1  0
  7  8  1  0
  8  9  2  0
  9 10  1  0
  9 11  1  0
 11 12  1  1
 11 19  1  0
 12 13  1  0
 13 14  2  0
 13 18  1  0
 14 15  1  0
 15 16  2  0
 16 17  1  0
 17 18  2  0
 19 20  2  0
M  END
