
     RDKit          3D

 21 24  0  0  0  0  0  0  0  0999 V2000
    2.4950    2.7610    0.7710 C   0  0  0  0  0  0  0  0  0  0  0  0
    2.4550    1.3230    0.1920 C   0  0  1  0  0  0  0  0  0  0  0  0
    3.5210    0.5950    0.9690 C   0  0  0  0  0  0  0  0  0  0  0  0
    3.5400   -0.8580    0.9390 C   0  0  0  0  0  0  0  0  0  0  0  0
    2.2640   -1.5770    0.5530 C   0  0  0  0  0  0  0  0  0  0  0  0
    1.6330   -1.0940   -0.7000 C   0  0  0  0  0  0  0  0  0  0  0  0
    0.5140   -0.1130   -0.6060 C   0  0  1  0  0  0  0  0  0  0  0  0
    0.5600    0.6120   -1.9780 C   0  0  0  0  0  0  0  0  0  0  0  0
   -0.8670   -0.5080   -0.4700 C   0  0  1  0  0  0  0  0  0  0  0  0
   -1.1890   -1.2780   -1.6280 O   0  0  0  0  0  0  0  0  0  0  0  0
   -0.9560   -2.6090   -1.3130 C   0  0  0  0  0  0  0  0  0  0  0  0
   -0.5020   -2.6170    0.0310 O   0  0  0  0  0  0  0  0  0  0  0  0
   -1.2960   -1.6080    0.4720 C   0  0  2  0  0  0  0  0  0  0  0  0
   -2.7100   -2.1100    0.1760 C   0  0  0  0  0  0  0  0  0  0  0  0
   -1.3440   -1.0320    1.7580 C   0  0  0  0  0  0  0  0  0  0  0  0
   -2.0140    0.3090    1.4170 C   0  0  0  0  0  0  0  0  0  0  0  0
   -1.7820    0.5440   -0.0870 C   0  0  1  0  0  0  0  0  0  0  0  0
   -1.7240    1.9680   -0.3300 C   0  0  0  0  0  0  0  0  0  0  0  0
   -3.0820    2.0600   -1.0050 C   0  0  0  0  0  0  0  0  0  0  0  0
   -3.0640    0.5380   -0.9110 C   0  0  0  0  0  0  0  0  0  0  0  0
    1.0580    0.8530    0.4560 C   0  0  0  0  0  0  0  0  0  0  0  0
  2  1  1  1
  2  3  1  0
  2 21  1  0
  3  4  1  0
  4  5  1  0
  5  6  1  0
  6  7  1  0
  7  8  1  6
  7  9  1  0
  7 21  1  0
  9 10  1  6
  9 13  1  0
  9 17  1  0
 10 11  1  0
 11 12  1  0
 12 13  1  0
 13 14  1  6
 13 15  1  0
 15 16  1  0
 17 16  1  1
 17 18  1  0
 17 20  1  0
 18 19  1  0
 19 20  1  0
M  END
