
     RDKit          3D

 20 23  0  0  0  0  0  0  0  0999 V2000
   -3.0510   -1.4170    0.0510 C   0  0  0  0  0  0  0  0  0  0  0  0
   -1.8410   -0.9230    0.8050 C   0  0  2  0  0  0  0  0  0  0  0  0
   -2.4170   -0.2590    2.0720 C   0  0  0  0  0  0  0  0  0  0  0  0
   -1.5880    0.9610    2.2290 C   0  0  0  0  0  0  0  0  0  0  0  0
   -0.6780    0.9830    1.2310 O   0  0  0  0  0  0  0  0  0  0  0  0
   -1.1410    0.2230    0.1630 C   0  0  2  0  0  0  0  0  0  0  0  0
   -2.2660    1.1110   -0.4130 C   0  0  0  0  0  0  0  0  0  0  0  0
   -1.5180    2.4300   -0.6690 C   0  0  0  0  0  0  0  0  0  0  0  0
   -0.7450    2.1570   -1.9550 C   0  0  0  0  0  0  0  0  0  0  0  0
   -0.3250    0.7710   -2.1300 C   0  0  0  0  0  0  0  0  0  0  0  0
   -0.0990   -0.0630   -0.8520 C   0  0  2  0  0  0  0  0  0  0  0  0
   -0.1830   -1.5100   -1.3530 C   0  0  0  0  0  0  0  0  0  0  0  0
    1.1510   -2.2130   -1.3650 C   0  0  0  0  0  0  0  0  0  0  0  0
    1.7180   -2.2170    0.0250 C   0  0  0  0  0  0  0  0  0  0  0  0
    1.9590   -0.8190    0.4510 C   0  0  1  0  0  0  0  0  0  0  0  0
    1.7170   -0.5990    1.9010 C   0  0  0  0  0  0  0  0  0  0  0  0
    3.4210   -0.3890    0.2110 C   0  0  0  0  0  0  0  0  0  0  0  0
    3.2710    1.1130    0.3470 C   0  0  0  0  0  0  0  0  0  0  0  0
    1.8170    1.4460   -0.0330 C   0  0  0  0  0  0  0  0  0  0  0  0
    1.3120    0.1530   -0.4860 C   0  0  2  0  0  0  0  0  0  0  0  0
  2  1  1  6
  2  3  1  0
  2  6  1  0
  3  4  1  0
  4  5  1  0
  5  6  1  0
  6  7  1  6
  6 11  1  0
  7  8  1  0
  8  9  1  0
  9 10  1  0
 11 10  1  6
 11 12  1  0
 11 20  1  0
 12 13  1  0
 13 14  1  0
 14 15  1  0
 15 16  1  1
 15 17  1  0
 15 20  1  0
 17 18  1  0
 18 19  1  0
 20 19  1  1
M  END
