
     RDKit          3D

 21 23  0  0  0  0  0  0  0  0999 V2000
   -3.7150    2.5060   -0.2370 C   0  0  0  0  0  0  0  0  0  0  0  0
   -4.0090    1.0390    0.0040 C   0  0  0  0  0  0  0  0  0  0  0  0
   -2.9230    0.4600    0.9250 C   0  0  1  0  0  0  0  0  0  0  0  0
   -3.1780   -0.9990    1.1910 C   0  0  0  0  0  0  0  0  0  0  0  0
   -2.0120   -1.4520    1.7790 O   0  0  0  0  0  0  0  0  0  0  0  0
   -0.9750   -1.6130    0.8520 C   0  0  2  0  0  0  0  0  0  0  0  0
   -1.2930   -2.8600    0.1070 C   0  0  0  0  0  0  0  0  0  0  0  0
    0.2240   -1.9240    1.7630 C   0  0  0  0  0  0  0  0  0  0  0  0
    1.2860   -2.2430    0.9880 O   0  0  0  0  0  0  0  0  0  0  0  0
    1.5410   -1.3680   -0.0660 C   0  0  2  0  0  0  0  0  0  0  0  0
    3.0320   -1.1010   -0.0200 C   0  0  0  0  0  0  0  0  0  0  0  0
    3.2270    0.1760    0.7430 C   0  0  1  0  0  0  0  0  0  0  0  0
    4.7390    0.3920    0.8880 C   0  0  0  0  0  0  0  0  0  0  0  0
    2.6910    1.2890   -0.0730 C   0  0  0  0  0  0  0  0  0  0  0  0
    1.3570    0.9300   -0.7770 C   0  0  1  0  0  0  0  0  0  0  0  0
    0.6960    2.2620   -0.9430 C   0  0  0  0  0  0  0  0  0  0  0  0
    1.7450    0.5200   -2.1740 C   0  0  0  0  0  0  0  0  0  0  0  0
    0.7240   -0.0750    0.0620 C   0  0  1  0  0  0  0  0  0  0  0  0
   -0.7240   -0.4040   -0.0120 C   0  0  1  0  0  0  0  0  0  0  0  0
   -1.0710   -0.7950   -1.4480 C   0  0  0  0  0  0  0  0  0  0  0  0
   -1.5470    0.7510    0.4390 C   0  0  0  0  0  0  0  0  0  0  0  0
  1  2  1  0
  3  2  1  6
  3  4  1  0
  3 21  1  0
  4  5  1  0
  5  6  1  0
  6  7  1  6
  6  8  1  0
  6 19  1  0
  8  9  1  0
  9 10  1  0
 10 11  1  1
 10 18  1  0
 11 12  1  0
 12 13  1  6
 12 14  1  0
 14 15  1  0
 15 16  1  6
 15 17  1  0
 18 15  1  6
 18 19  1  0
 19 20  1  6
 19 21  1  0
M  END
