
     RDKit          3D

 21 24  0  0  0  0  0  0  0  0999 V2000
    4.0730    2.6680   -0.5400 C   0  0  0  0  0  0  0  0  0  0  0  0
    3.8010    1.4330    0.1320 O   0  0  0  0  0  0  0  0  0  0  0  0
    3.3530    0.3160   -0.5530 C   0  0  0  0  0  0  0  0  0  0  0  0
    3.1970    0.4410   -1.7930 O   0  0  0  0  0  0  0  0  0  0  0  0
    3.0610   -0.9650    0.0810 C   0  0  2  0  0  0  0  0  0  0  0  0
    2.5900   -2.0230   -0.8630 C   0  0  0  0  0  0  0  0  0  0  0  0
    1.2970   -2.5170   -0.2540 C   0  0  1  0  0  0  0  0  0  0  0  0
    1.5410   -2.3320    1.2270 C   0  0  0  0  0  0  0  0  0  0  0  0
    2.0700   -0.8980    1.2000 C   0  0  2  0  0  0  0  0  0  0  0  0
    0.9030   -0.0130    0.9650 C   0  0  0  0  0  0  0  0  0  0  0  0
    0.0840   -0.3040   -0.2330 C   0  0  2  0  0  0  0  0  0  0  0  0
   -1.3780    0.1440   -0.0780 C   0  0  2  0  0  0  0  0  0  0  0  0
   -2.1120   -0.1900   -1.3840 C   0  0  0  0  0  0  0  0  0  0  0  0
   -1.8840    1.0780   -2.2240 C   0  0  0  0  0  0  0  0  0  0  0  0
   -2.2860    2.1210   -1.1730 C   0  0  0  0  0  0  0  0  0  0  0  0
   -1.4970    1.6270    0.0220 C   0  0  1  0  0  0  0  0  0  0  0  0
   -2.2930    1.9380    1.2590 C   0  0  0  0  0  0  0  0  0  0  0  0
   -2.4150    0.6610    2.0450 C   0  0  0  0  0  0  0  0  0  0  0  0
   -2.0710   -0.4720    1.0800 C   0  0  1  0  0  0  0  0  0  0  0  0
   -3.3720   -1.1550    0.7560 C   0  0  0  0  0  0  0  0  0  0  0  0
    0.1780   -1.6850   -0.7750 C   0  0  0  0  0  0  0  0  0  0  0  0
  1  2  1  0
  2  3  1  0
  3  4  2  0
  5  3  1  6
  5  6  1  0
  5  9  1  0
  7  6  1  6
  7  8  1  0
  7 21  1  0
  8  9  1  0
  9 10  1  6
 11 10  1  1
 11 12  1  0
 11 21  1  0
 12 13  1  6
 12 16  1  0
 12 19  1  0
 13 14  1  0
 14 15  1  0
 16 15  1  6
 16 17  1  0
 17 18  1  0
 18 19  1  0
 19 20  1  6
M  END
