
     RDKit          3D

 24 27  0  0  0  0  0  0  0  0999 V2000
   -6.8660   -0.6310    0.2330 C   0  0  0  0  0  0  0  0  0  0  0  0
   -5.5480    0.1310    0.2060 C   0  0  1  0  0  0  0  0  0  0  0  0
   -5.6790    1.4030    1.0200 C   0  0  0  0  0  0  0  0  0  0  0  0
   -4.4720   -0.7720    0.7020 C   0  0  0  0  0  0  0  0  0  0  0  0
   -3.2360   -0.2320   -0.0370 C   0  0  0  0  0  0  0  0  0  0  0  0
   -1.8940   -0.3130    0.1520 C   0  0  0  0  0  0  0  0  0  0  0  0
   -1.0760    0.2930   -0.7110 C   0  0  0  0  0  0  0  0  0  0  0  0
    0.3890    0.3770   -0.7620 C   0  0  0  0  0  0  0  0  0  0  0  0
    0.9180    1.0000   -1.6660 O   0  0  0  0  0  0  0  0  0  0  0  0
    1.1230   -0.2700    0.2430 N   0  0  0  0  0  0  0  0  0  0  0  0
    2.5470   -0.2450    0.2780 C   0  0  0  0  0  0  0  0  0  0  0  0
    3.3210   -0.8750    1.2590 C   0  0  0  0  0  0  0  0  0  0  0  0
    4.6520   -0.6520    0.9940 C   0  0  0  0  0  0  0  0  0  0  0  0
    5.8360   -1.0310    1.6200 C   0  0  0  0  0  0  0  0  0  0  0  0
    7.0650   -0.6620    1.1320 C   0  0  0  0  0  0  0  0  0  0  0  0
    7.1190    0.1130   -0.0230 C   0  0  0  0  0  0  0  0  0  0  0  0
    8.4320    0.5100   -0.5500 C   0  0  0  0  0  0  0  0  0  0  0  0
    9.4720    0.1630    0.0220 O   0  0  0  0  0  0  0  0  0  0  0  0
    5.9470    0.4750   -0.6240 C   0  0  0  0  0  0  0  0  0  0  0  0
    4.7030    0.1150   -0.1500 C   0  0  0  0  0  0  0  0  0  0  0  0
    3.4300    0.3350   -0.5430 N   0  0  0  0  0  0  0  0  0  0  0  0
   -2.1640    1.0190   -1.8520 S   0  0  0  0  0  0  0  0  0  0  0  0
   -3.6860    0.4680   -1.1070 C   0  0  0  0  0  0  0  0  0  0  0  0
   -5.1690    0.4890   -1.2110 C   0  0  0  0  0  0  0  0  0  0  0  0
  2  1  1  6
  2  3  1  0
  2  4  1  0
  2 24  1  0
  4  5  1  0
  5  6  1  0
  5 23  2  0
  6  7  2  0
  7  8  1  0
  7 22  1  0
  8  9  2  0
  8 10  1  0
 10 11  1  0
 11 12  2  0
 11 21  1  0
 12 13  1  0
 13 14  2  0
 13 20  1  0
 14 15  1  0
 15 16  2  0
 16 17  1  0
 16 19  1  0
 17 18  2  0
 19 20  2  0
 20 21  1  0
 22 23  1  0
 23 24  1  0
M  END
