
     RDKit          3D

 20 20  0  0  0  0  0  0  0  0999 V2000
   -5.0710   -0.5500   -0.2310 N   0  0  0  0  0  0  0  0  0  0  0  0
   -4.0300    0.8360   -0.1790 S   0  0  1  0  0  0  0  0  0  0  0  0
   -4.2040    1.6520   -1.4400 O   0  0  0  0  0  0  0  0  0  0  0  0
   -4.3320    1.7080    0.9970 O   0  0  0  0  0  0  0  0  0  0  0  0
   -2.3660    0.2970   -0.0460 C   0  0  0  0  0  0  0  0  0  0  0  0
   -1.5940    0.0540   -1.1650 C   0  0  0  0  0  0  0  0  0  0  0  0
   -2.1780    0.2500   -2.3740 F   0  0  0  0  0  0  0  0  0  0  0  0
   -0.2860   -0.3700   -1.0420 C   0  0  0  0  0  0  0  0  0  0  0  0
    0.4690   -0.6080   -2.1540 F   0  0  0  0  0  0  0  0  0  0  0  0
    0.3150   -0.5720    0.1840 C   0  0  0  0  0  0  0  0  0  0  0  0
    1.9760   -1.1100    0.3390 S   0  0  2  0  0  0  0  0  0  0  0  0
    2.3840   -1.9090   -0.8570 O   0  0  0  0  0  0  0  0  0  0  0  0
    2.0880   -1.8930    1.5920 O   0  0  0  0  0  0  0  0  0  0  0  0
    3.0120    0.3580    0.3960 C   0  0  0  0  0  0  0  0  0  0  0  0
    4.4700   -0.0270    0.5290 C   0  0  0  0  0  0  0  0  0  0  0  0
    5.2000    1.1520    0.5660 O   0  0  0  0  0  0  0  0  0  0  0  0
   -0.4540   -0.3300    1.3030 C   0  0  0  0  0  0  0  0  0  0  0  0
    0.0970   -0.5150    2.5460 F   0  0  0  0  0  0  0  0  0  0  0  0
   -1.7600    0.0940    1.1750 C   0  0  0  0  0  0  0  0  0  0  0  0
   -2.5230    0.3340    2.2820 F   0  0  0  0  0  0  0  0  0  0  0  0
  2  1  1  6
  2  3  2  0
  2  4  2  0
  2  5  1  0
  5  6  2  0
  5 19  1  0
  6  7  1  0
  6  8  1  0
  8  9  1  0
  8 10  2  0
 10 11  1  0
 10 17  1  0
 11 12  2  0
 11 13  2  0
 11 14  1  1
 14 15  1  0
 15 16  1  0
 17 18  1  0
 17 19  2  0
 19 20  1  0
M  END
