
     RDKit          3D

 19 19  0  0  0  0  0  0  0  0999 V2000
    2.8660   -2.3770    0.9130 O   0  0  0  0  0  0  0  0  0  0  0  0
    3.2260   -0.9460    0.7410 S   0  0  2  0  0  0  0  0  0  0  0  0
    4.6820   -0.6700    0.8760 O   0  0  0  0  0  0  0  0  0  0  0  0
    2.2650    0.1080    1.8470 C   0  0  0  0  0  0  0  0  0  0  0  0
    1.8270    1.1770    0.8360 C   0  0  0  0  0  0  0  0  0  0  0  0
    1.2880    0.2890   -0.2750 C   0  0  1  0  0  0  0  0  0  0  0  0
    0.4990    0.9370   -1.2130 N   0  0  0  0  0  0  0  0  0  0  0  0
   -1.0520    0.2390   -1.3620 S   0  0  2  0  0  0  0  0  0  0  0  0
   -0.9230   -1.1860   -1.8600 O   0  0  0  0  0  0  0  0  0  0  0  0
   -1.7580    0.9880   -2.4930 O   0  0  0  0  0  0  0  0  0  0  0  0
   -2.0170    0.2580    0.0670 C   0  0  0  0  0  0  0  0  0  0  0  0
   -2.3640   -0.8180    0.7010 C   0  0  0  0  0  0  0  0  0  0  0  0
   -2.0400   -2.1910    0.3620 C   0  0  1  0  0  0  0  0  0  0  0  0
   -0.7230   -2.5430    0.3040 F   0  0  0  0  0  0  0  0  0  0  0  0
   -2.6160   -3.0250    1.3680 F   0  0  0  0  0  0  0  0  0  0  0  0
   -2.7090   -2.6180   -0.7990 F   0  0  0  0  0  0  0  0  0  0  0  0
   -2.6130    1.5720    0.5600 C   0  0  0  0  0  0  0  0  0  0  0  0
   -3.3500    2.1850   -0.4340 O   0  0  0  0  0  0  0  0  0  0  0  0
    2.5870   -0.2950   -0.8180 C   0  0  0  0  0  0  0  0  0  0  0  0
  1  2  2  0
  2  3  2  0
  2  4  1  1
  2 19  1  0
  4  5  1  0
  5  6  1  0
  6  7  1  6
  6 19  1  0
  8  7  1  1
  8  9  2  0
  8 10  2  0
  8 11  1  0
 11 12  2  3
 11 17  1  0
 12 13  1  0
 13 14  1  6
 13 15  1  0
 13 16  1  0
 17 18  1  0
M  END
