
     RDKit          3D

 19 19  0  0  0  0  0  0  0  0999 V2000
   -2.9160   -0.1140    2.6200 N   0  0  0  0  0  0  0  0  0  0  0  0
   -3.4810   -0.0970    1.3270 C   0  0  0  0  0  0  0  0  0  0  0  0
   -4.7250   -0.2640    1.2360 O   0  0  0  0  0  0  0  0  0  0  0  0
   -2.7130    0.1010    0.0830 C   0  0  2  0  0  0  0  0  0  0  0  0
   -1.3470    0.2760    0.2900 O   0  0  0  0  0  0  0  0  0  0  0  0
   -0.3980   -0.5650   -0.2740 C   0  0  0  0  0  0  0  0  0  0  0  0
   -0.8380   -1.4990   -0.9840 O   0  0  0  0  0  0  0  0  0  0  0  0
    1.0250   -0.3500   -0.0350 C   0  0  0  0  0  0  0  0  0  0  0  0
    1.4470    0.6480    0.7210 C   0  0  0  0  0  0  0  0  0  0  0  0
    3.1780    0.9450    1.0390 S   0  0  0  0  0  0  0  0  0  0  0  0
    4.2400    0.3170   -0.2530 C   0  0  0  0  0  0  0  0  0  0  0  0
    3.5070   -0.2910   -1.4110 C   0  0  0  0  0  0  0  0  0  0  0  0
    2.2560   -1.3810   -0.7220 S   0  0  1  0  0  0  0  0  0  0  0  0
    2.9540   -2.1590    0.3750 O   0  0  0  0  0  0  0  0  0  0  0  0
    1.7190   -2.3180   -1.7360 O   0  0  0  0  0  0  0  0  0  0  0  0
   -3.2420    1.2880   -0.7210 C   0  0  1  0  0  0  0  0  0  0  0  0
   -3.1660    2.4560    0.0020 F   0  0  0  0  0  0  0  0  0  0  0  0
   -2.3760    1.4300   -1.7980 F   0  0  0  0  0  0  0  0  0  0  0  0
   -4.4850    1.0480   -1.2300 F   0  0  0  0  0  0  0  0  0  0  0  0
  1  2  1  0
  2  3  2  0
  2  4  1  0
  4  5  1  1
  4 16  1  0
  5  6  1  0
  6  7  2  0
  6  8  1  0
  8  9  2  0
  8 13  1  0
  9 10  1  0
 10 11  1  0
 11 12  1  0
 13 12  1  6
 13 14  2  0
 13 15  2  0
 16 17  1  1
 16 18  1  0
 16 19  1  0
M  END
