
     RDKit          3D

 19 19  0  0  0  0  0  0  0  0999 V2000
    5.2500   -0.2770    0.4210 N   0  0  0  0  0  0  0  0  0  0  0  0
    3.8380   -0.3770    0.4270 C   0  0  0  0  0  0  0  0  0  0  0  0
    3.2060   -0.5470    1.5240 O   0  0  0  0  0  0  0  0  0  0  0  0
    3.1340   -0.2790   -0.8700 C   0  0  0  0  0  0  0  0  0  0  0  0
    1.7470   -0.3900   -0.7610 O   0  0  0  0  0  0  0  0  0  0  0  0
    0.9640    0.4890   -0.0090 C   0  0  0  0  0  0  0  0  0  0  0  0
    1.5830    1.4080    0.5820 O   0  0  0  0  0  0  0  0  0  0  0  0
   -0.4800    0.3490    0.0870 C   0  0  0  0  0  0  0  0  0  0  0  0
   -1.2810   -0.5380   -0.4540 C   0  0  0  0  0  0  0  0  0  0  0  0
   -2.6630   -0.4060   -0.1680 C   0  0  0  0  0  0  0  0  0  0  0  0
   -3.6990   -1.3630   -0.7290 C   0  0  1  0  0  0  0  0  0  0  0  0
   -3.4710   -2.6440   -0.3310 F   0  0  0  0  0  0  0  0  0  0  0  0
   -4.9650   -0.9820   -0.3720 F   0  0  0  0  0  0  0  0  0  0  0  0
   -3.6120   -1.3370   -2.1210 F   0  0  0  0  0  0  0  0  0  0  0  0
   -3.0210    0.5910    0.6130 C   0  0  0  0  0  0  0  0  0  0  0  0
   -4.6620    1.0430    1.1700 S   0  0  0  0  0  0  0  0  0  0  0  0
   -1.5210    1.4080    1.0070 S   0  0  1  0  0  0  0  0  0  0  0  0
   -1.2420    1.3390    2.4710 O   0  0  0  0  0  0  0  0  0  0  0  0
   -1.5000    2.8090    0.4840 O   0  0  0  0  0  0  0  0  0  0  0  0
  1  2  1  0
  2  3  2  0
  2  4  1  0
  4  5  1  0
  5  6  1  0
  6  7  2  0
  6  8  1  0
  8  9  2  0
 17  8  1  6
  9 10  1  0
 10 11  1  0
 10 15  2  0
 11 12  1  1
 11 13  1  0
 11 14  1  0
 15 16  1  0
 15 17  1  0
 17 18  2  0
 17 19  2  0
M  END
