
     RDKit          3D

 19 19  0  0  0  0  0  0  0  0999 V2000
   -4.0440   -0.8070   -1.7530 N   0  0  0  0  0  0  0  0  0  0  0  0
   -2.9430   -0.5600   -0.8770 C   0  0  2  0  0  0  0  0  0  0  0  0
   -3.1870   -1.0130    0.5090 C   0  0  0  0  0  0  0  0  0  0  0  0
   -2.3860   -0.9070    1.4420 O   0  0  0  0  0  0  0  0  0  0  0  0
   -4.4270   -1.6060    0.7690 O   0  0  0  0  0  0  0  0  0  0  0  0
   -2.4000    1.1920   -0.9230 S   0  0  0  0  0  0  0  0  0  0  0  0
   -0.6460    1.0120   -0.5070 C   0  0  0  0  0  0  0  0  0  0  0  0
    0.1310    2.1760    0.0440 C   0  0  0  0  0  0  0  0  0  0  0  0
   -0.4550    2.5620    1.2490 F   0  0  0  0  0  0  0  0  0  0  0  0
   -0.1740   -0.1700   -0.7390 C   0  0  0  0  0  0  0  0  0  0  0  0
    1.2130   -0.6690   -0.5150 C   0  0  0  0  0  0  0  0  0  0  0  0
    1.5410   -1.8560   -0.7910 O   0  0  0  0  0  0  0  0  0  0  0  0
    2.2150    0.1150   -0.0020 O   0  0  0  0  0  0  0  0  0  0  0  0
    3.5280   -0.3780    0.2040 C   0  0  0  0  0  0  0  0  0  0  0  0
    4.4040    0.7120    0.7770 C   0  0  2  0  0  0  0  0  0  0  0  0
    4.4100    1.7470   -0.1470 F   0  0  0  0  0  0  0  0  0  0  0  0
    5.6640    0.2160    0.9840 F   0  0  0  0  0  0  0  0  0  0  0  0
    3.7980    1.1270    1.9640 F   0  0  0  0  0  0  0  0  0  0  0  0
   -1.3930   -1.3160   -1.4290 S   0  0  0  0  0  0  0  0  0  0  0  0
  2  1  1  6
  2  3  1  0
  2  6  1  0
  2 19  1  0
  3  4  2  0
  3  5  1  0
  6  7  1  0
  7  8  1  0
  7 10  2  0
  8  9  1  0
 10 11  1  0
 10 19  1  0
 11 12  2  0
 11 13  1  0
 13 14  1  0
 14 15  1  0
 15 16  1  6
 15 17  1  0
 15 18  1  0
M  END
