
     RDKit          3D

 19 19  0  0  0  0  0  0  0  0999 V2000
   -0.4090    2.0930   -2.5340 C   0  0  0  0  0  0  0  0  0  0  0  0
   -1.1730    1.0460   -1.7730 C   0  0  0  0  0  0  0  0  0  0  0  0
   -1.0720    0.7240   -0.4930 C   0  0  0  0  0  0  0  0  0  0  0  0
    0.1070    1.6160    0.5130 S   0  0  2  0  0  0  0  0  0  0  0  0
   -0.2610    1.5480    1.9660 O   0  0  0  0  0  0  0  0  0  0  0  0
    0.0570    3.0850    0.1110 O   0  0  0  0  0  0  0  0  0  0  0  0
    1.7000    0.9890    0.3000 N   0  0  0  0  0  0  0  0  0  0  0  0
    2.0750   -0.2940    0.7660 C   0  0  0  0  0  0  0  0  0  0  0  0
    1.2180   -0.9790    1.3550 O   0  0  0  0  0  0  0  0  0  0  0  0
    3.4470   -0.8380    0.5730 C   0  0  0  0  0  0  0  0  0  0  0  0
    3.4980   -2.1040    1.1340 O   0  0  0  0  0  0  0  0  0  0  0  0
   -1.8890   -0.3450   -0.0420 C   0  0  0  0  0  0  0  0  0  0  0  0
   -1.9580   -0.8370    1.2130 C   0  0  0  0  0  0  0  0  0  0  0  0
   -2.8440   -1.9600    1.5930 C   0  0  2  0  0  0  0  0  0  0  0  0
   -3.3800   -2.4870    0.4260 F   0  0  0  0  0  0  0  0  0  0  0  0
   -3.8560   -1.5900    2.4420 F   0  0  0  0  0  0  0  0  0  0  0  0
   -2.1290   -2.9660    2.2470 F   0  0  0  0  0  0  0  0  0  0  0  0
   -2.7050   -0.9370   -1.0100 O   0  0  0  0  0  0  0  0  0  0  0  0
   -2.4260   -0.0290   -2.4530 S   0  0  0  0  0  0  0  0  0  0  0  0
  1  2  1  0
  2  3  2  0
  2 19  1  0
  3  4  1  0
  3 12  1  0
  4  5  2  0
  4  6  2  0
  4  7  1  1
  7  8  1  0
  8  9  2  0
  8 10  1  0
 10 11  1  0
 12 13  2  3
 12 18  1  0
 13 14  1  0
 14 15  1  6
 14 16  1  0
 14 17  1  0
 18 19  1  0
M  END
