
     RDKit          3D

 20 19  0  0  0  0  0  0  0  0999 V2000
    1.9030   -2.0820    3.8420 C   0  0  0  0  0  0  0  0  0  0  0  0
    0.9900   -1.7770    2.7880 O   0  0  0  0  0  0  0  0  0  0  0  0
    1.4350   -1.0990    1.6430 C   0  0  0  0  0  0  0  0  0  0  0  0
    2.6390   -0.8070    1.6410 O   0  0  0  0  0  0  0  0  0  0  0  0
    0.5290   -0.7760    0.5550 C   0  0  0  0  0  0  0  0  0  0  0  0
   -0.8560   -1.1560    0.7250 N   0  0  0  0  0  0  0  0  0  0  0  0
    0.8570   -0.2640   -0.5920 C   0  0  0  0  0  0  0  0  0  0  0  0
   -0.4160    0.0770   -1.7910 S   0  0  0  0  0  0  0  0  0  0  0  0
   -1.6820    1.1830   -1.2990 C   0  0  0  0  0  0  0  0  0  0  0  0
   -2.7500    1.2870   -2.0870 C   0  0  0  0  0  0  0  0  0  0  0  0
   -2.8540    0.4940   -3.3270 C   0  0  0  0  0  0  0  0  0  0  0  0
   -2.9680    1.2870   -4.4550 F   0  0  0  0  0  0  0  0  0  0  0  0
   -1.6620    2.0310   -0.0480 C   0  0  1  0  0  0  0  0  0  0  0  0
   -2.5260    3.1070   -0.2850 F   0  0  0  0  0  0  0  0  0  0  0  0
   -2.2040    1.3880    1.0260 F   0  0  0  0  0  0  0  0  0  0  0  0
   -0.4330    2.5160    0.2490 F   0  0  0  0  0  0  0  0  0  0  0  0
    2.5420   -0.0520   -1.0060 S   0  0  1  0  0  0  0  0  0  0  0  0
    3.4070   -1.1860   -0.5820 O   0  0  0  0  0  0  0  0  0  0  0  0
    2.5590   -0.0200   -2.5700 O   0  0  0  0  0  0  0  0  0  0  0  0
    3.1680    1.3840   -0.4520 O   0  0  0  0  0  0  0  0  0  0  0  0
  1  2  1  0
  2  3  1  0
  3  4  2  0
  3  5  1  0
  5  6  1  0
  5  7  2  3
  7  8  1  0
  7 17  1  0
  8  9  1  0
  9 10  2  3
  9 13  1  0
 10 11  1  0
 11 12  1  0
 13 14  1  6
 13 15  1  0
 13 16  1  0
 17 18  2  0
 17 19  2  0
 17 20  1  1
M  END
