
     RDKit          3D

 19 19  0  0  0  0  0  0  0  0999 V2000
    0.4200    2.7710   -1.3400 N   0  0  0  0  0  0  0  0  0  0  0  0
   -0.2600    2.2730   -0.2120 C   0  0  0  0  0  0  0  0  0  0  0  0
   -0.9230    3.1340    0.4640 O   0  0  0  0  0  0  0  0  0  0  0  0
   -0.2280    0.8530    0.1900 C   0  0  1  0  0  0  0  0  0  0  0  0
    1.1400    0.3620    0.4830 C   0  0  0  0  0  0  0  0  0  0  0  0
    1.3580   -0.0640    1.6210 O   0  0  0  0  0  0  0  0  0  0  0  0
    2.1600    0.3620   -0.4430 O   0  0  0  0  0  0  0  0  0  0  0  0
    3.4690   -0.0830   -0.2490 C   0  0  0  0  0  0  0  0  0  0  0  0
    3.6380   -1.5190    0.0920 C   0  0  1  0  0  0  0  0  0  0  0  0
    5.0130   -1.7730    0.2400 F   0  0  0  0  0  0  0  0  0  0  0  0
    3.0740   -1.8980    1.2880 F   0  0  0  0  0  0  0  0  0  0  0  0
    3.2110   -2.3690   -0.9120 F   0  0  0  0  0  0  0  0  0  0  0  0
   -1.3370    0.6240    1.6080 S   0  0  0  0  0  0  0  0  0  0  0  0
   -2.9290    0.4750    0.7470 C   0  0  0  0  0  0  0  0  0  0  0  0
   -2.7040   -0.5000   -0.3890 C   0  0  2  0  0  0  0  0  0  0  0  0
   -2.8690   -1.8620    0.1780 C   0  0  0  0  0  0  0  0  0  0  0  0
   -1.8820   -2.6350    0.1020 O   0  0  0  0  0  0  0  0  0  0  0  0
   -4.0170   -2.3310    0.7740 O   0  0  0  0  0  0  0  0  0  0  0  0
   -1.0670   -0.2070   -1.0370 S   0  0  0  0  0  0  0  0  0  0  0  0
  1  2  1  0
  2  3  2  0
  4  2  1  6
  4  5  1  0
  4 13  1  0
  4 19  1  0
  5  6  2  0
  5  7  1  0
  7  8  1  0
  8  9  1  0
  9 10  1  1
  9 11  1  0
  9 12  1  0
 13 14  1  0
 14 15  1  0
 15 16  1  1
 15 19  1  0
 16 17  2  0
 16 18  1  0
M  END
