
     RDKit          3D

 13 13  0  0  0  0  0  0  0  0999 V2000
    3.6500    0.1720    1.4410 C   0  0  0  0  0  0  0  0  0  0  0  0
    3.0290    0.0570    0.2890 C   0  0  0  0  0  0  0  0  0  0  0  0
    3.7330   -0.2230   -1.0030 C   0  0  0  0  0  0  0  0  0  0  0  0
    2.6550   -0.2630   -1.9950 C   0  0  0  0  0  0  0  0  0  0  0  0
    1.4790   -0.0510   -1.4550 C   0  0  0  0  0  0  0  0  0  0  0  0
    1.6110    0.1630   -0.0090 C   0  0  0  0  0  0  0  0  0  0  0  0
    0.6070    0.4010    0.8110 C   0  0  0  0  0  0  0  0  0  0  0  0
    0.8510    0.5930    2.1930 N   0  0  0  0  0  0  0  0  0  0  0  0
   -0.7330    0.4730    0.3510 N   0  0  0  0  0  0  0  0  0  0  0  0
   -1.4610   -0.7410    0.1490 C   0  0  0  0  0  0  0  0  0  0  0  0
   -2.8720   -0.5070   -0.3420 C   0  0  0  0  0  0  0  0  0  0  0  0
   -3.6120    0.2580    0.5690 O   0  0  0  0  0  0  0  0  0  0  0  0
   -4.8870    0.4200    0.0360 C   0  0  0  0  0  0  0  0  0  0  0  0
  1  2  2  0
  2  3  1  0
  2  6  1  0
  3  4  1  0
  4  5  2  0
  5  6  1  0
  6  7  2  3
  7  8  1  0
  7  9  1  0
  9 10  1  0
 10 11  1  0
 11 12  1  0
 12 13  1  0
M  END
