
     RDKit          3D

 12 13  0  0  0  0  0  0  0  0999 V2000
    3.4360    0.1700   -0.0880 N   0  0  0  0  0  0  0  0  0  0  0  0
    2.0550   -0.1030   -0.1940 C   0  0  0  0  0  0  0  0  0  0  0  0
    1.6240   -1.3820   -0.4120 C   0  0  0  0  0  0  0  0  0  0  0  0
    0.2740   -1.6810   -0.5210 C   0  0  0  0  0  0  0  0  0  0  0  0
   -0.6690   -0.6770   -0.4090 C   0  0  0  0  0  0  0  0  0  0  0  0
   -2.0270   -0.9330   -0.5110 C   0  0  0  0  0  0  0  0  0  0  0  0
   -2.4390   -2.1050   -0.7120 O   0  0  0  0  0  0  0  0  0  0  0  0
   -2.9060    0.0820   -0.3940 N   0  0  0  0  0  0  0  0  0  0  0  0
   -2.5260    1.3500   -0.1790 C   0  0  0  0  0  0  0  0  0  0  0  0
   -1.1600    1.6220   -0.0740 C   0  0  0  0  0  0  0  0  0  0  0  0
   -0.2360    0.6150   -0.1880 C   0  0  0  0  0  0  0  0  0  0  0  0
    1.1170    0.9010   -0.0810 C   0  0  0  0  0  0  0  0  0  0  0  0
  1  2  1  0
  2  3  2  0
  2 12  1  0
  3  4  1  0
  4  5  2  0
  5  6  1  0
  5 11  1  0
  6  7  2  0
  6  8  1  0
  8  9  1  0
  9 10  2  0
 10 11  1  0
 11 12  2  0
M  END
