
     RDKit          3D

 11 12  0  0  0  0  0  0  0  0999 V2000
    2.6090    0.5390    0.1360 C   0  0  0  0  0  0  0  0  0  0  0  0
    1.3690   -0.2870    0.0260 C   0  0  0  0  0  0  0  0  0  0  0  0
    1.2910   -1.6670   -0.0820 C   0  0  0  0  0  0  0  0  0  0  0  0
   -0.0300   -2.0590   -0.1620 C   0  0  0  0  0  0  0  0  0  0  0  0
   -0.7560   -0.8850   -0.1000 C   0  0  0  0  0  0  0  0  0  0  0  0
   -2.1180   -0.6570   -0.1350 C   0  0  0  0  0  0  0  0  0  0  0  0
   -2.6070    0.6280   -0.0560 C   0  0  0  0  0  0  0  0  0  0  0  0
   -1.7520    1.6400    0.0540 N   0  0  0  0  0  0  0  0  0  0  0  0
   -0.4150    1.4070    0.0870 C   0  0  0  0  0  0  0  0  0  0  0  0
    0.3890    2.3780    0.1910 O   0  0  0  0  0  0  0  0  0  0  0  0
    0.1010    0.1630    0.0120 N   0  0  0  0  0  0  0  0  0  0  0  0
  1  2  1  0
  2  3  2  0
  2 11  1  0
  3  4  1  0
  4  5  2  0
  5  6  1  0
  5 11  1  0
  6  7  2  0
  7  8  1  0
  8  9  1  0
  9 10  2  0
  9 11  1  0
M  END
