
     RDKit          3D

 13 14  0  0  0  0  0  0  0  0999 V2000
    3.7530   -0.0470    0.7120 C   0  0  0  0  0  0  0  0  0  0  0  0
    2.2780    0.2100    0.5400 C   0  0  0  0  0  0  0  0  0  0  0  0
    1.7420    1.4620    0.5840 C   0  0  0  0  0  0  0  0  0  0  0  0
    0.3950    1.7290    0.4300 C   0  0  0  0  0  0  0  0  0  0  0  0
   -0.0530    2.9050    0.4780 O   0  0  0  0  0  0  0  0  0  0  0  0
   -0.4280    0.6360    0.2210 C   0  0  0  0  0  0  0  0  0  0  0  0
   -1.7780    0.8520    0.0620 C   0  0  0  0  0  0  0  0  0  0  0  0
   -2.6290   -0.2180   -0.1490 C   0  0  0  0  0  0  0  0  0  0  0  0
   -4.0310   -0.0080   -0.3150 N   0  0  0  0  0  0  0  0  0  0  0  0
   -2.1250   -1.5000   -0.1990 C   0  0  0  0  0  0  0  0  0  0  0  0
   -0.7660   -1.6780   -0.0350 C   0  0  0  0  0  0  0  0  0  0  0  0
    0.1140   -0.6380    0.1760 C   0  0  0  0  0  0  0  0  0  0  0  0
    1.4470   -0.8290    0.3350 N   0  0  0  0  0  0  0  0  0  0  0  0
  1  2  1  0
  2  3  2  0
  2 13  1  0
  3  4  1  0
  4  5  2  0
  4  6  1  0
  6  7  2  0
  6 12  1  0
  7  8  1  0
  8  9  1  0
  8 10  2  0
 10 11  1  0
 11 12  2  0
 12 13  1  0
M  END
