
     RDKit          3D

 13 13  0  0  0  0  0  0  0  0999 V2000
   -2.1040   -2.6540   -0.1890 C   0  0  0  0  0  0  0  0  0  0  0  0
   -1.0480   -1.6390   -0.3160 C   0  0  0  0  0  0  0  0  0  0  0  0
   -1.2910   -0.3240   -0.4200 C   0  0  0  0  0  0  0  0  0  0  0  0
   -2.6940    0.1310   -0.4060 C   0  0  0  0  0  0  0  0  0  0  0  0
   -2.7770    1.5940   -0.5290 C   0  0  0  0  0  0  0  0  0  0  0  0
   -1.7320    2.3710   -0.6350 C   0  0  0  0  0  0  0  0  0  0  0  0
   -0.3620    1.8810   -0.6440 C   0  0  0  0  0  0  0  0  0  0  0  0
   -0.1600    0.5790   -0.5400 C   0  0  0  0  0  0  0  0  0  0  0  0
    1.1680    0.0600   -0.5450 N   0  0  0  0  0  0  0  0  0  0  0  0
    2.2170    0.5580    0.2860 C   0  0  0  0  0  0  0  0  0  0  0  0
    3.4970   -0.1690    0.0710 C   0  0  0  0  0  0  0  0  0  0  0  0
    4.6760    0.1560    0.7900 N   0  0  0  0  0  0  0  0  0  0  0  0
    3.4760   -1.1000   -0.7930 O   0  0  0  0  0  0  0  0  0  0  0  0
  1  2  1  0
  2  3  2  3
  3  4  1  0
  3  8  1  0
  4  5  1  0
  5  6  2  0
  6  7  1  0
  7  8  2  0
  8  9  1  0
  9 10  1  0
 10 11  1  0
 11 12  1  0
 11 13  2  0
M  END
