
     RDKit          3D

 36 38  0  0  0  0  0  0  0  0999 V2000
   -3.0030    3.0050    2.5970 C   0  0  0  0  0  0  0  0  0  0  0  0
   -3.7270    1.7420    2.4570 C   0  0  0  0  0  0  0  0  0  0  0  0
   -4.9980    1.7480    2.6110 O   0  0  0  0  0  0  0  0  0  0  0  0
   -3.1250    0.4740    2.1560 N   0  0  0  0  0  0  0  0  0  0  0  0
   -3.9470   -0.6720    2.0480 C   0  0  0  0  0  0  0  0  0  0  0  0
   -4.4950   -1.0840    0.7720 C   0  0  0  0  0  0  0  0  0  0  0  0
   -5.2220   -2.1800    0.8450 O   0  0  0  0  0  0  0  0  0  0  0  0
   -4.3960   -0.5450   -0.4850 N   0  0  0  0  0  0  0  0  0  0  0  0
   -3.7170    0.6310   -0.9350 C   0  0  0  0  0  0  0  0  0  0  0  0
   -4.7730    1.5710   -1.5420 C   0  0  0  0  0  0  0  0  0  0  0  0
   -6.0220    0.9300   -1.5700 O   0  0  0  0  0  0  0  0  0  0  0  0
   -5.9550   -0.2480   -2.2790 C   0  0  0  0  0  0  0  0  0  0  0  0
   -5.0860   -1.2750   -1.5950 C   0  0  0  0  0  0  0  0  0  0  0  0
   -1.7350    0.4170    1.9750 C   0  0  0  0  0  0  0  0  0  0  0  0
   -1.0790    1.4810    2.1480 O   0  0  0  0  0  0  0  0  0  0  0  0
   -1.0220   -0.7490    1.6090 C   0  0  0  0  0  0  0  0  0  0  0  0
   -1.7900   -2.3660    1.1990 S   0  0  0  0  0  0  0  0  0  0  0  0
   -0.1040   -3.1430    0.8290 C   0  0  0  0  0  0  0  0  0  0  0  0
   -0.1210   -4.6150    0.3980 C   0  0  0  0  0  0  0  0  0  0  0  0
    0.5760   -2.2500    1.0340 N   0  0  0  0  0  0  0  0  0  0  0  0
    0.3150   -1.0140    1.4190 C   0  0  0  0  0  0  0  0  0  0  0  0
    1.3450   -0.0170    1.6380 N   0  0  0  0  0  0  0  0  0  0  0  0
    2.7560   -0.3030    1.4220 C   0  0  0  0  0  0  0  0  0  0  0  0
    3.0160   -0.7650    0.0600 C   0  0  2  0  0  0  0  0  0  0  0  0
    4.5310   -1.0970   -0.1110 C   0  0  0  0  0  0  0  0  0  0  0  0
    4.9590   -2.1680    0.8360 C   0  0  0  0  0  0  0  0  0  0  0  0
    4.2610   -3.3560    0.6540 O   0  0  0  0  0  0  0  0  0  0  0  0
    2.6750    0.0910   -1.0710 C   0  0  0  0  0  0  0  0  0  0  0  0
    3.3300    1.3860   -1.2910 C   0  0  0  0  0  0  0  0  0  0  0  0
    4.1270    1.5790   -2.3880 C   0  0  0  0  0  0  0  0  0  0  0  0
    4.6760    2.9320   -2.4180 C   0  0  2  0  0  0  0  0  0  0  0  0
    6.4700    2.8180   -2.3370 S   0  0  0  0  0  0  0  0  0  0  0  0
    6.8750    1.6950   -3.3130 O   0  0  0  0  0  0  0  0  0  0  0  0
    4.1000    3.5600   -1.2330 C   0  0  0  0  0  0  0  0  0  0  0  0
    3.3340    2.6470   -0.6030 C   0  0  0  0  0  0  0  0  0  0  0  0
    2.4270    3.0920    0.8590 Cl  0  0  0  0  0  0  0  0  0  0  0  0
  1  2  1  0
  2  3  2  0
  2  4  1  0
  4  5  1  0
  4 14  1  0
  5  6  1  0
  6  7  2  0
  6  8  1  0
  8  9  1  0
  8 13  1  0
  9 10  1  0
 10 11  1  0
 11 12  1  0
 12 13  1  0
 14 15  2  0
 14 16  1  0
 16 17  1  0
 16 21  2  0
 17 18  1  0
 18 19  1  0
 18 20  2  0
 20 21  1  0
 21 22  1  0
 22 23  1  0
 24 23  1  1
 24 25  1  0
 24 28  1  0
 25 26  1  0
 26 27  1  0
 28 29  1  0
 29 30  2  0
 29 35  1  0
 30 31  1  0
 31 32  1  1
 31 34  1  0
 32 33  2  0
 34 35  2  0
 35 36  1  0
M  END
