
     RDKit          3D

 36 39  0  0  0  0  0  0  0  0999 V2000
   -4.5430    3.7490    1.7920 C   0  0  0  0  0  0  0  0  0  0  0  0
   -5.0840    3.7150    0.3780 C   0  0  0  0  0  0  0  0  0  0  0  0
   -4.2760    2.8380   -0.5240 C   0  0  1  0  0  0  0  0  0  0  0  0
   -2.8450    3.2420   -0.6670 C   0  0  0  0  0  0  0  0  0  0  0  0
   -2.1310    2.0260   -1.3500 C   0  0  0  0  0  0  0  0  0  0  0  0
   -1.9020    1.0590   -0.3330 N   0  0  0  0  0  0  0  0  0  0  0  0
   -0.8220    0.2690   -0.0900 C   0  0  0  0  0  0  0  0  0  0  0  0
   -0.9540   -0.1580    1.2310 O   0  0  0  0  0  0  0  0  0  0  0  0
    0.3730   -0.2990   -0.5920 C   0  0  0  0  0  0  0  0  0  0  0  0
    1.2740   -1.1700    0.7480 Cl  0  0  0  0  0  0  0  0  0  0  0  0
    0.9540   -0.4090   -1.7590 C   0  0  0  0  0  0  0  0  0  0  0  0
    0.3930    0.0840   -3.0280 C   0  0  0  0  0  0  0  0  0  0  0  0
   -0.7350    0.5710   -3.2810 O   0  0  0  0  0  0  0  0  0  0  0  0
    1.3970   -0.1000   -4.0070 N   0  0  0  0  0  0  0  0  0  0  0  0
    2.5230   -0.6810   -3.3800 C   0  0  0  0  0  0  0  0  0  0  0  0
    3.7250   -1.0140   -4.2120 C   0  0  0  0  0  0  0  0  0  0  0  0
    2.3430   -0.8870   -2.0940 C   0  0  0  0  0  0  0  0  0  0  0  0
    3.2950   -1.3950   -1.1280 C   0  0  0  0  0  0  0  0  0  0  0  0
    3.0630   -1.6090    0.0900 O   0  0  0  0  0  0  0  0  0  0  0  0
    4.6620   -1.7220   -1.4570 N   0  0  0  0  0  0  0  0  0  0  0  0
    5.5510   -2.2340   -0.4110 C   0  0  0  0  0  0  0  0  0  0  0  0
    5.5850   -1.1630    0.6090 C   0  0  0  0  0  0  0  0  0  0  0  0
    5.1330   -0.0300    0.8440 N   0  0  0  0  0  0  0  0  0  0  0  0
    5.3960    0.6650    1.9220 C   0  0  0  0  0  0  0  0  0  0  0  0
    6.2110    0.1200    2.8400 C   0  0  0  0  0  0  0  0  0  0  0  0
    6.6980    0.6470    4.1540 C   0  0  0  0  0  0  0  0  0  0  0  0
    6.5970   -1.4260    2.1220 S   0  0  0  0  0  0  0  0  0  0  0  0
   -3.1070    0.8730    0.5430 C   0  0  2  0  0  0  0  0  0  0  0  0
   -3.3580   -0.5740    0.7800 C   0  0  0  0  0  0  0  0  0  0  0  0
   -4.2580   -0.8040    1.6580 O   0  0  0  0  0  0  0  0  0  0  0  0
   -2.7410   -1.6200    0.1700 O   0  0  0  0  0  0  0  0  0  0  0  0
   -3.0740   -2.9490    0.4880 C   0  0  0  0  0  0  0  0  0  0  0  0
   -2.8310   -3.3210    1.9210 C   0  0  0  0  0  0  0  0  0  0  0  0
   -3.2590   -5.0070    2.2860 S   0  0  0  0  0  0  0  0  0  0  0  0
   -3.0290   -5.9530    1.1440 O   0  0  0  0  0  0  0  0  0  0  0  0
   -4.3240    1.3830   -0.1750 C   0  0  0  0  0  0  0  0  0  0  0  0
  1  2  1  0
  3  2  1  1
  3  4  1  0
  3 36  1  0
  4  5  1  0
  5  6  1  0
  6  7  1  0
  6 28  1  0
  7  8  2  0
  7  9  1  0
  9 10  1  0
  9 11  2  0
 11 12  1  0
 11 17  1  0
 12 13  2  0
 12 14  1  0
 14 15  1  0
 15 16  1  0
 15 17  2  0
 17 18  1  0
 18 19  2  0
 18 20  1  0
 20 21  1  0
 21 22  1  0
 22 23  2  0
 22 27  1  0
 23 24  1  0
 24 25  2  0
 25 26  1  0
 25 27  1  0
 28 29  1  6
 28 36  1  0
 29 30  2  0
 29 31  1  0
 31 32  1  0
 32 33  1  0
 33 34  1  0
 34 35  2  0
 19 10  1  0
M  END
