
     RDKit          3D

 36 38  0  0  0  0  0  0  0  0999 V2000
    3.1830   -1.0210   -1.9820 C   0  0  0  0  0  0  0  0  0  0  0  0
    3.2520   -1.8240   -0.7100 C   0  0  1  0  0  0  0  0  0  0  0  0
    3.3320   -0.9670    0.5260 C   0  0  0  0  0  0  0  0  0  0  0  0
    4.5320   -0.1020    0.5320 C   0  0  0  0  0  0  0  0  0  0  0  0
    5.6230   -0.7290    0.8440 O   0  0  0  0  0  0  0  0  0  0  0  0
    4.5740    1.2740    0.2420 N   0  0  0  0  0  0  0  0  0  0  0  0
    3.3970    1.9980   -0.1170 C   0  0  0  0  0  0  0  0  0  0  0  0
    3.7400    2.7370   -1.4250 C   0  0  0  0  0  0  0  0  0  0  0  0
    4.8330    3.5440   -1.2050 O   0  0  0  0  0  0  0  0  0  0  0  0
    5.9800    2.8320   -0.9030 C   0  0  0  0  0  0  0  0  0  0  0  0
    5.8370    1.9670    0.3150 C   0  0  1  0  0  0  0  0  0  0  0  0
    5.9390    2.8410    1.5450 C   0  0  0  0  0  0  0  0  0  0  0  0
    2.1290   -2.7910   -0.6900 C   0  0  0  0  0  0  0  0  0  0  0  0
    1.3390   -2.8170   -1.6610 O   0  0  0  0  0  0  0  0  0  0  0  0
    1.9010   -3.6680    0.3340 O   0  0  0  0  0  0  0  0  0  0  0  0
    0.9090   -4.6150    0.4790 C   0  0  0  0  0  0  0  0  0  0  0  0
   -0.4820   -4.1490    0.5490 C   0  0  0  0  0  0  0  0  0  0  0  0
   -1.3750   -5.0250    0.5950 O   0  0  0  0  0  0  0  0  0  0  0  0
   -0.8500   -2.7880    0.5690 N   0  0  0  0  0  0  0  0  0  0  0  0
   -2.1650   -2.2790    0.6180 C   0  0  0  0  0  0  0  0  0  0  0  0
   -3.3520   -3.1640    0.6530 C   0  0  0  0  0  0  0  0  0  0  0  0
   -3.7330   -3.7600   -0.6590 C   0  0  0  0  0  0  0  0  0  0  0  0
   -4.9380   -4.6780   -0.4450 C   0  0  0  0  0  0  0  0  0  0  0  0
   -6.3200   -3.7960    0.2060 Cl  0  0  0  0  0  0  0  0  0  0  0  0
   -2.3740   -0.9890    0.6500 C   0  0  0  0  0  0  0  0  0  0  0  0
   -4.0270   -0.2130    0.7140 S   0  0  0  0  0  0  0  0  0  0  0  0
   -3.4170    1.4540    0.7310 C   0  0  0  0  0  0  0  0  0  0  0  0
   -4.2130    2.6060    0.7730 N   0  0  0  0  0  0  0  0  0  0  0  0
   -5.5560    2.5290    1.2890 C   0  0  0  0  0  0  0  0  0  0  0  0
   -6.4780    2.4910    0.0650 C   0  0  0  0  0  0  0  0  0  0  0  0
   -6.2490    4.0700   -0.7980 S   0  0  0  0  0  0  0  0  0  0  0  0
   -4.5000    4.4660   -0.8230 C   0  0  0  0  0  0  0  0  0  0  0  0
   -3.7200    3.8830    0.3090 C   0  0  0  0  0  0  0  0  0  0  0  0
   -2.1570    1.4060    0.6950 N   0  0  0  0  0  0  0  0  0  0  0  0
   -1.5240    0.1790    0.6520 C   0  0  0  0  0  0  0  0  0  0  0  0
   -0.2390    0.1050    0.6150 O   0  0  0  0  0  0  0  0  0  0  0  0
  2  1  1  6
  2  3  1  0
  2 13  1  0
  3  4  1  0
  4  5  2  0
  4  6  1  0
  6  7  1  0
  6 11  1  0
  7  8  1  0
  8  9  1  0
  9 10  1  0
 10 11  1  0
 11 12  1  1
 13 14  2  0
 13 15  1  0
 15 16  1  0
 16 17  1  0
 17 18  2  0
 17 19  1  0
 19 20  1  0
 20 21  1  0
 20 25  2  3
 21 22  1  0
 22 23  1  0
 23 24  1  0
 25 26  1  0
 25 35  1  0
 26 27  1  0
 27 28  1  0
 27 34  2  0
 28 29  1  0
 28 33  1  0
 29 30  1  0
 30 31  1  0
 31 32  1  0
 32 33  1  0
 34 35  1  0
 35 36  2  0
M  END
