
     RDKit          3D

 36 38  0  0  0  0  0  0  0  0999 V2000
   -5.5400   -2.0240   -2.9230 C   0  0  0  0  0  0  0  0  0  0  0  0
   -5.7910   -1.2340   -1.7110 N   0  0  0  0  0  0  0  0  0  0  0  0
   -4.8820   -0.2330   -1.3220 C   0  0  0  0  0  0  0  0  0  0  0  0
   -3.8580   -0.0570   -2.0780 O   0  0  0  0  0  0  0  0  0  0  0  0
   -5.0380    0.6020   -0.1180 C   0  0  2  0  0  0  0  0  0  0  0  0
   -3.5940    0.5500    0.9520 S   0  0  0  0  0  0  0  0  0  0  0  0
   -2.1880    1.3810    0.2240 C   0  0  1  0  0  0  0  0  0  0  0  0
   -2.2470    2.8730    0.1820 C   0  0  0  0  0  0  0  0  0  0  0  0
   -3.5990    3.4840   -0.7610 Cl  0  0  0  0  0  0  0  0  0  0  0  0
   -0.9150    0.8460    0.7550 C   0  0  0  0  0  0  0  0  0  0  0  0
   -0.2760    1.5010    1.5900 O   0  0  0  0  0  0  0  0  0  0  0  0
   -0.4320   -0.4260    0.2900 N   0  0  0  0  0  0  0  0  0  0  0  0
    0.8740   -0.8750    0.6410 C   0  0  0  0  0  0  0  0  0  0  0  0
    1.5280   -0.2610    1.4830 O   0  0  0  0  0  0  0  0  0  0  0  0
    1.3630   -2.0870   -0.0830 C   0  0  0  0  0  0  0  0  0  0  0  0
    2.8170   -2.0020    0.0840 O   0  0  0  0  0  0  0  0  0  0  0  0
    3.3600   -0.7680   -0.3780 C   0  0  0  0  0  0  0  0  0  0  0  0
    2.5570    0.0590   -0.8420 O   0  0  0  0  0  0  0  0  0  0  0  0
    4.7380   -0.5050   -0.3030 C   0  0  0  0  0  0  0  0  0  0  0  0
    6.0820   -1.5390    0.2090 S   0  0  0  0  0  0  0  0  0  0  0  0
    7.3920   -0.2070   -0.0310 C   0  0  0  0  0  0  0  0  0  0  0  0
    8.7760   -0.4780    0.2320 C   0  0  0  0  0  0  0  0  0  0  0  0
    9.2230   -1.7280    0.5780 C   0  0  0  0  0  0  0  0  0  0  0  0
   10.5880   -1.9380    0.8330 C   0  0  0  0  0  0  0  0  0  0  0  0
   11.4520   -0.8830    0.7290 C   0  0  0  0  0  0  0  0  0  0  0  0
   11.0120    0.4060    0.3750 C   0  0  0  0  0  0  0  0  0  0  0  0
    9.6760    0.5510    0.1400 C   0  0  0  0  0  0  0  0  0  0  0  0
    6.6670    0.7050   -0.4200 N   0  0  0  0  0  0  0  0  0  0  0  0
    5.4040    0.7020   -0.5940 C   0  0  0  0  0  0  0  0  0  0  0  0
    4.6090    1.8980   -1.0600 C   0  0  0  0  0  0  0  0  0  0  0  0
   -6.2720    0.3400    0.5340 N   0  0  0  0  0  0  0  0  0  0  0  0
   -6.9510    1.5500    0.9750 C   0  0  0  0  0  0  0  0  0  0  0  0
   -8.4070    1.1780    1.1690 C   0  0  0  0  0  0  0  0  0  0  0  0
   -8.6180   -0.1980    1.0140 O   0  0  0  0  0  0  0  0  0  0  0  0
   -7.7780   -0.9560    1.8190 C   0  0  0  0  0  0  0  0  0  0  0  0
   -6.3060   -0.7150    1.4910 C   0  0  0  0  0  0  0  0  0  0  0  0
  1  2  1  0
  2  3  1  0
  3  4  2  0
  3  5  1  0
  5  6  1  1
  5 31  1  0
  6  7  1  0
  7  8  1  1
  7 10  1  0
  8  9  1  0
 10 11  2  0
 10 12  1  0
 12 13  1  0
 13 14  2  0
 13 15  1  0
 15 16  1  0
 16 17  1  0
 17 18  2  0
 17 19  1  0
 19 20  1  0
 19 29  2  0
 20 21  1  0
 21 22  1  0
 21 28  2  0
 22 23  2  0
 22 27  1  0
 23 24  1  0
 24 25  2  0
 25 26  1  0
 26 27  2  0
 28 29  1  0
 29 30  1  0
 31 32  1  0
 31 36  1  0
 32 33  1  0
 33 34  1  0
 34 35  1  0
 35 36  1  0
M  END
