
     RDKit          3D

 33 36  0  0  0  0  0  0  0  0999 V2000
   -2.5080   -0.5160   -2.8620 C   0  0  0  0  0  0  0  0  0  0  0  0
   -3.6660    0.2410   -2.3780 C   0  0  0  0  0  0  0  0  0  0  0  0
   -4.8710    0.3920   -2.9840 N   0  0  0  0  0  0  0  0  0  0  0  0
   -5.6640    1.1410   -2.2560 N   0  0  0  0  0  0  0  0  0  0  0  0
   -7.0180    1.4820   -2.6420 C   0  0  0  0  0  0  0  0  0  0  0  0
   -5.0040    1.5010   -1.1560 C   0  0  0  0  0  0  0  0  0  0  0  0
   -5.5770    2.3580   -0.0830 C   0  0  0  0  0  0  0  0  0  0  0  0
   -3.7260    0.9430   -1.2030 C   0  0  0  0  0  0  0  0  0  0  0  0
   -2.7420    1.1440   -0.1450 C   0  0  0  0  0  0  0  0  0  0  0  0
   -2.5550   -0.0420    0.7720 C   0  0  0  0  0  0  0  0  0  0  0  0
   -1.5930    0.2990    1.7220 O   0  0  0  0  0  0  0  0  0  0  0  0
   -1.0800   -0.4090    2.7470 C   0  0  0  0  0  0  0  0  0  0  0  0
    0.0550   -1.1410    2.6900 C   0  0  0  0  0  0  0  0  0  0  0  0
    0.8260   -1.2290    1.4740 C   0  0  0  0  0  0  0  0  0  0  0  0
    0.3790   -1.9220    0.3860 C   0  0  0  0  0  0  0  0  0  0  0  0
    1.1720   -1.9470   -0.7690 C   0  0  0  0  0  0  0  0  0  0  0  0
    2.3800   -1.2940   -0.8330 C   0  0  0  0  0  0  0  0  0  0  0  0
    2.8280   -0.5950    0.2680 C   0  0  0  0  0  0  0  0  0  0  0  0
    2.0380   -0.5760    1.4050 C   0  0  0  0  0  0  0  0  0  0  0  0
    4.0470   -0.0570   -0.0930 C   0  0  0  0  0  0  0  0  0  0  0  0
    4.8430    0.7760    0.8510 C   0  0  0  0  0  0  0  0  0  0  0  0
    6.0790    1.2330    0.2670 N   0  0  0  0  0  0  0  0  0  0  0  0
    6.8850    0.0840   -0.1090 C   0  0  0  0  0  0  0  0  0  0  0  0
    5.8360    2.1220   -0.8540 C   0  0  0  0  0  0  0  0  0  0  0  0
    4.3260   -0.4140   -1.3590 N   0  0  0  0  0  0  0  0  0  0  0  0
    3.3220   -1.1540   -1.7910 N   0  0  0  0  0  0  0  0  0  0  0  0
    3.2010   -1.7640   -3.1230 C   0  0  0  0  0  0  0  0  0  0  0  0
    0.5240   -1.8560    3.8190 C   0  0  0  0  0  0  0  0  0  0  0  0
   -0.1760   -1.8170    5.0040 C   0  0  0  0  0  0  0  0  0  0  0  0
   -1.3250   -1.0810    5.0750 C   0  0  0  0  0  0  0  0  0  0  0  0
   -2.0050   -1.0520    6.2570 F   0  0  0  0  0  0  0  0  0  0  0  0
   -1.7730   -0.3890    3.9710 C   0  0  0  0  0  0  0  0  0  0  0  0
   -2.9170    0.3330    4.0710 F   0  0  0  0  0  0  0  0  0  0  0  0
  1  2  1  0
  2  3  2  0
  2  8  1  0
  3  4  1  0
  4  5  1  0
  4  6  1  0
  6  7  1  0
  6  8  2  0
  8  9  1  0
  9 10  1  0
 10 11  1  0
 11 12  1  0
 12 13  1  0
 12 32  2  0
 13 14  1  0
 13 28  2  0
 14 15  2  0
 14 19  1  0
 15 16  1  0
 16 17  2  0
 17 18  1  0
 17 26  1  0
 18 19  2  0
 18 20  1  0
 20 21  1  0
 20 25  2  0
 21 22  1  0
 22 23  1  0
 22 24  1  0
 25 26  1  0
 26 27  1  0
 28 29  1  0
 29 30  2  0
 30 31  1  0
 30 32  1  0
 32 33  1  0
M  END
