
     RDKit          3D

 36 38  0  0  0  0  0  0  0  0999 V2000
   -9.4730   -0.0960   -2.8370 C   0  0  0  0  0  0  0  0  0  0  0  0
   -8.6630   -0.3850   -1.8220 C   0  0  0  0  0  0  0  0  0  0  0  0
   -8.5610   -1.7710   -1.3050 C   0  0  0  0  0  0  0  0  0  0  0  0
   -7.2600   -2.3290   -1.3820 N   0  0  0  0  0  0  0  0  0  0  0  0
   -6.2980   -1.9450   -0.6680 C   0  0  0  0  0  0  0  0  0  0  0  0
   -6.3140   -0.6590    0.5700 S   0  0  0  0  0  0  0  0  0  0  0  0
   -4.5200   -0.3830    0.7540 C   0  0  0  0  0  0  0  0  0  0  0  0
   -4.0100    0.8240    0.8550 C   0  0  0  0  0  0  0  0  0  0  0  0
   -4.8320    2.0660    0.8300 C   0  0  0  0  0  0  0  0  0  0  0  0
   -4.4200    3.1560   -0.4930 Cl  0  0  0  0  0  0  0  0  0  0  0  0
   -3.9110   -1.7120    0.7460 C   0  0  2  0  0  0  0  0  0  0  0  0
   -2.4340   -1.7340    0.6670 C   0  0  0  0  0  0  0  0  0  0  0  0
   -1.8420   -1.0580    1.8120 N   0  0  0  0  0  0  0  0  0  0  0  0
   -0.4030   -0.9620    1.9300 C   0  0  0  0  0  0  0  0  0  0  0  0
    0.2380   -1.4830    1.0170 O   0  0  0  0  0  0  0  0  0  0  0  0
    0.1550   -0.2880    3.0660 C   0  0  0  0  0  0  0  0  0  0  0  0
    1.5980   -0.2390    3.3100 C   0  0  0  0  0  0  0  0  0  0  0  0
    2.4660    0.3300    2.3400 N   0  0  0  0  0  0  0  0  0  0  0  0
    2.6890    1.7490    2.2420 C   0  0  0  0  0  0  0  0  0  0  0  0
    2.0370    2.4790    3.0280 O   0  0  0  0  0  0  0  0  0  0  0  0
    3.6250    2.2920    1.2800 C   0  0  0  0  0  0  0  0  0  0  0  0
    3.7870    3.5370    1.2310 O   0  0  0  0  0  0  0  0  0  0  0  0
    4.3590    1.4140    0.3900 N   0  0  0  0  0  0  0  0  0  0  0  0
    4.1630    0.0170    0.4620 C   0  0  0  0  0  0  0  0  0  0  0  0
    4.8260   -0.7880   -0.3420 C   0  0  0  0  0  0  0  0  0  0  0  0
    5.7780   -0.2960   -1.3280 C   0  0  0  0  0  0  0  0  0  0  0  0
    5.8500   -0.8610   -2.5920 C   0  0  0  0  0  0  0  0  0  0  0  0
    6.8330   -0.1890   -3.2800 C   0  0  0  0  0  0  0  0  0  0  0  0
    7.3350    0.7700   -2.4150 C   0  0  0  0  0  0  0  0  0  0  0  0
    8.4100    1.7240   -2.7360 C   0  0  0  0  0  0  0  0  0  0  0  0
    9.0300    1.7020   -4.0700 C   0  0  0  0  0  0  0  0  0  0  0  0
    8.8120    2.5610   -1.8930 O   0  0  0  0  0  0  0  0  0  0  0  0
    6.6650    0.6380   -1.3010 O   0  0  0  0  0  0  0  0  0  0  0  0
    3.2060   -0.4890    1.4530 C   0  0  0  0  0  0  0  0  0  0  0  0
    3.0960   -1.7560    1.4540 O   0  0  0  0  0  0  0  0  0  0  0  0
   -4.6290   -2.5840   -0.6840 S   0  0  0  0  0  0  0  0  0  0  0  0
  1  2  2  0
  2  3  1  0
  3  4  1  0
  4  5  2  3
  5  6  1  0
  5 36  1  0
  6  7  1  0
  7  8  2  3
  7 11  1  0
  8  9  1  0
  9 10  1  0
 11 12  1  6
 11 36  1  0
 12 13  1  0
 13 14  1  0
 14 15  2  0
 14 16  1  0
 16 17  1  0
 17 18  1  0
 18 19  1  0
 18 34  1  0
 19 20  2  0
 19 21  1  0
 21 22  2  0
 21 23  1  0
 23 24  1  0
 24 25  2  3
 24 34  1  0
 25 26  1  0
 26 27  2  0
 26 33  1  0
 27 28  1  0
 28 29  2  0
 29 30  1  0
 29 33  1  0
 30 31  1  0
 30 32  2  0
 34 35  2  0
M  END
