
     RDKit          3D

 36 38  0  0  0  0  0  0  0  0999 V2000
    8.3330    3.5930   -0.2700 C   0  0  0  0  0  0  0  0  0  0  0  0
    6.8170    3.7540   -0.2090 C   0  0  2  0  0  0  0  0  0  0  0  0
    6.5200    5.1880    0.1960 C   0  0  0  0  0  0  0  0  0  0  0  0
    6.3690    2.9000    0.8010 O   0  0  0  0  0  0  0  0  0  0  0  0
    5.4830    1.8390    0.4510 C   0  0  0  0  0  0  0  0  0  0  0  0
    4.9030    0.9620    0.9080 N   0  0  0  0  0  0  0  0  0  0  0  0
    4.1190    0.0730    0.4000 C   0  0  0  0  0  0  0  0  0  0  0  0
    3.2800   -1.2470    1.3460 S   0  0  0  0  0  0  0  0  0  0  0  0
    2.3160   -2.2630    0.2460 C   0  0  0  0  0  0  0  0  0  0  0  0
    1.2100   -1.4770   -0.3450 C   0  0  0  0  0  0  0  0  0  0  0  0
    1.1350   -0.2540   -0.0760 O   0  0  0  0  0  0  0  0  0  0  0  0
    0.2840   -2.1110   -1.1790 N   0  0  0  0  0  0  0  0  0  0  0  0
    0.4120   -3.5450   -1.4460 C   0  0  0  0  0  0  0  0  0  0  0  0
   -0.9450   -4.0510   -1.8170 C   0  0  0  0  0  0  0  0  0  0  0  0
   -1.0600   -5.3040   -2.2990 C   0  0  0  0  0  0  0  0  0  0  0  0
   -2.3270   -5.8910   -2.6870 C   0  0  0  0  0  0  0  0  0  0  0  0
   -2.3780   -7.0880   -3.1450 O   0  0  0  0  0  0  0  0  0  0  0  0
   -3.5760   -5.1300   -2.5690 C   0  0  0  0  0  0  0  0  0  0  0  0
   -3.3560   -3.7820   -2.0390 C   0  0  0  0  0  0  0  0  0  0  0  0
   -2.1870   -3.3280   -1.7140 C   0  0  0  0  0  0  0  0  0  0  0  0
   -2.1100   -1.9070   -1.1700 C   0  0  1  0  0  0  0  0  0  0  0  0
   -3.2130   -1.1450   -1.8520 C   0  0  0  0  0  0  0  0  0  0  0  0
   -2.1180   -1.8880    0.2880 C   0  0  0  0  0  0  0  0  0  0  0  0
   -2.0000   -0.6950    1.0420 N   0  0  0  0  0  0  0  0  0  0  0  0
   -2.9030    0.3790    1.0770 C   0  0  0  0  0  0  0  0  0  0  0  0
   -3.9570    0.4010    0.4380 O   0  0  0  0  0  0  0  0  0  0  0  0
   -2.6170    1.4790    1.8600 O   0  0  0  0  0  0  0  0  0  0  0  0
   -3.4750    2.5830    1.9060 C   0  0  1  0  0  0  0  0  0  0  0  0
   -4.8420    2.1380    2.3270 C   0  0  0  0  0  0  0  0  0  0  0  0
   -2.9920    3.4760    3.1100 C   0  0  0  0  0  0  0  0  0  0  0  0
   -3.0700    2.7700    4.2850 O   0  0  0  0  0  0  0  0  0  0  0  0
   -3.4260    3.5070    0.7400 C   0  0  0  0  0  0  0  0  0  0  0  0
   -3.8200    2.8240   -0.8210 Cl  0  0  0  0  0  0  0  0  0  0  0  0
   -0.8000   -1.3560   -1.7630 C   0  0  0  0  0  0  0  0  0  0  0  0
    3.9390    0.1980   -0.9810 N   0  0  0  0  0  0  0  0  0  0  0  0
    4.9820    1.6560   -1.3550 S   0  0  0  0  0  0  0  0  0  0  0  0
  2  1  1  1
  2  3  1  0
  2  4  1  0
  4  5  1  0
  5  6  2  0
  5 36  1  0
  6  7  1  0
  7  8  1  0
  7 35  2  0
  8  9  1  0
  9 10  1  0
 10 11  2  0
 10 12  1  0
 12 13  1  0
 12 34  1  0
 13 14  1  0
 14 15  2  0
 14 20  1  0
 15 16  1  0
 16 17  2  0
 16 18  1  0
 18 19  1  0
 19 20  2  0
 20 21  1  0
 21 22  1  6
 21 23  1  0
 21 34  1  0
 23 24  1  0
 24 25  1  0
 25 26  2  0
 25 27  1  0
 27 28  1  0
 28 29  1  1
 28 30  1  0
 28 32  1  0
 30 31  1  0
 32 33  1  0
 35 36  1  0
M  END
