
     RDKit          3D

 37 40  0  0  0  0  0  0  0  0999 V2000
   11.4830   -1.2630   -0.7500 C   0  0  0  0  0  0  0  0  0  0  0  0
   10.7950   -0.0870   -0.4230 O   0  0  0  0  0  0  0  0  0  0  0  0
    9.4300   -0.3740   -0.1970 C   0  0  0  0  0  0  0  0  0  0  0  0
    8.7820    0.9490    0.1460 C   0  0  0  0  0  0  0  0  0  0  0  0
    7.4010    0.8300    0.4030 O   0  0  0  0  0  0  0  0  0  0  0  0
    6.8630    0.0550    1.3970 C   0  0  0  0  0  0  0  0  0  0  0  0
    7.5980   -0.6000    2.1420 O   0  0  0  0  0  0  0  0  0  0  0  0
    5.3910    0.0340    1.5420 C   0  0  0  0  0  0  0  0  0  0  0  0
    4.6650   -0.6770    2.4740 C   0  0  0  0  0  0  0  0  0  0  0  0
    3.3350   -0.4040    2.2470 C   0  0  0  0  0  0  0  0  0  0  0  0
    3.2300    0.4670    1.1840 C   0  0  0  0  0  0  0  0  0  0  0  0
    1.9920    1.0020    0.6280 C   0  0  0  0  0  0  0  0  0  0  0  0
    1.9710    1.8710   -0.4400 C   0  0  0  0  0  0  0  0  0  0  0  0
    0.8170    2.3800   -0.9720 C   0  0  0  0  0  0  0  0  0  0  0  0
   -0.3750    2.0020   -0.4080 C   0  0  0  0  0  0  0  0  0  0  0  0
   -0.4340    1.1320    0.6660 C   0  0  0  0  0  0  0  0  0  0  0  0
   -1.9890    0.6850    1.3430 S   0  0  0  0  0  0  0  0  0  0  0  0
   -2.7260   -0.8180    0.7740 C   0  0  0  0  0  0  0  0  0  0  0  0
   -3.1900   -0.8950   -0.6320 C   0  0  1  0  0  0  0  0  0  0  0  0
   -4.1960    0.1520   -0.8930 C   0  0  0  0  0  0  0  0  0  0  0  0
   -4.0060    1.0260   -1.8010 O   0  0  0  0  0  0  0  0  0  0  0  0
   -5.3830    0.1890   -0.1320 N   0  0  0  0  0  0  0  0  0  0  0  0
   -6.3880    1.2130   -0.3730 C   0  0  2  0  0  0  0  0  0  0  0  0
   -6.5430    2.0280    0.9100 C   0  0  0  0  0  0  0  0  0  0  0  0
   -7.9440    2.6070    0.6880 C   0  0  1  0  0  0  0  0  0  0  0  0
   -7.7810    3.7770   -0.2410 C   0  0  0  0  0  0  0  0  0  0  0  0
   -8.6420    1.5360    0.0680 O   0  0  0  0  0  0  0  0  0  0  0  0
   -7.7460    0.6520   -0.5210 C   0  0  0  0  0  0  0  0  0  0  0  0
   -8.0530   -0.4310   -1.0780 O   0  0  0  0  0  0  0  0  0  0  0  0
   -2.1450   -0.9260   -1.6880 C   0  0  0  0  0  0  0  0  0  0  0  0
   -1.0940   -1.9770   -1.3630 C   0  0  0  0  0  0  0  0  0  0  0  0
   -1.7180   -3.3400   -1.2780 C   0  0  0  0  0  0  0  0  0  0  0  0
   -3.0300   -3.4130   -0.5920 C   0  0  1  0  0  0  0  0  0  0  0  0
   -2.8770   -3.8210    0.7540 O   0  0  0  0  0  0  0  0  0  0  0  0
   -3.9450   -2.2520   -0.7450 C   0  0  0  0  0  0  0  0  0  0  0  0
    0.7750    0.6490    1.1610 C   0  0  0  0  0  0  0  0  0  0  0  0
    4.4940    0.6990    0.7970 N   0  0  0  0  0  0  0  0  0  0  0  0
  1  2  1  0
  2  3  1  0
  3  4  1  0
  4  5  1  0
  5  6  1  0
  6  7  2  0
  6  8  1  0
  8  9  2  0
  8 37  1  0
  9 10  1  0
 10 11  2  0
 11 12  1  0
 11 37  1  0
 12 13  2  0
 12 36  1  0
 13 14  1  0
 14 15  2  0
 15 16  1  0
 16 17  1  0
 16 36  2  0
 17 18  1  0
 19 18  1  1
 19 20  1  0
 19 30  1  0
 19 35  1  0
 20 21  2  0
 20 22  1  0
 23 22  1  1
 23 24  1  0
 23 28  1  0
 24 25  1  0
 25 26  1  6
 25 27  1  0
 27 28  1  0
 28 29  2  0
 30 31  1  0
 31 32  1  0
 32 33  1  0
 33 34  1  1
 33 35  1  0
M  END
