
     RDKit          3D

 38 42  0  0  0  0  0  0  0  0999 V2000
   -4.9760   -5.4400   -1.4200 C   0  0  0  0  0  0  0  0  0  0  0  0
   -5.4970   -4.1620   -1.1850 O   0  0  0  0  0  0  0  0  0  0  0  0
   -4.6830   -3.1480   -0.7290 C   0  0  0  0  0  0  0  0  0  0  0  0
   -3.3490   -3.2870   -0.4760 C   0  0  0  0  0  0  0  0  0  0  0  0
   -2.5740   -2.2360   -0.0180 C   0  0  0  0  0  0  0  0  0  0  0  0
   -3.1270   -1.0110    0.1990 C   0  0  0  0  0  0  0  0  0  0  0  0
   -2.2840    0.0760    0.6850 C   0  0  0  0  0  0  0  0  0  0  0  0
   -0.8710   -0.0550    0.3930 N   0  0  0  0  0  0  0  0  0  0  0  0
   -0.3240    0.4450   -0.7360 C   0  0  0  0  0  0  0  0  0  0  0  0
    1.0190    0.3590   -1.0250 C   0  0  0  0  0  0  0  0  0  0  0  0
    1.8970   -0.2680   -0.1360 C   0  0  0  0  0  0  0  0  0  0  0  0
    3.2450   -0.3590   -0.3750 C   0  0  0  0  0  0  0  0  0  0  0  0
    4.0760   -0.9790    0.5530 C   0  0  0  0  0  0  0  0  0  0  0  0
    3.5240   -1.4980    1.7040 C   0  0  0  0  0  0  0  0  0  0  0  0
    2.1690   -1.3920    1.9220 C   0  0  0  0  0  0  0  0  0  0  0  0
    1.3160   -0.7800    1.0230 C   0  0  0  0  0  0  0  0  0  0  0  0
   -0.0370   -0.6610    1.2530 C   0  0  0  0  0  0  0  0  0  0  0  0
   -0.5160   -1.1370    2.3120 O   0  0  0  0  0  0  0  0  0  0  0  0
    4.6220   -2.1170    2.4810 C   0  0  0  0  0  0  0  0  0  0  0  0
    5.7480   -1.3030    2.0700 N   0  0  0  0  0  0  0  0  0  0  0  0
    5.5390   -1.2090    0.6630 C   0  0  2  0  0  0  0  0  0  0  0  0
    6.3510   -0.2400   -0.0370 C   0  0  0  0  0  0  0  0  0  0  0  0
    6.3790    1.0880    0.3040 C   0  0  0  0  0  0  0  0  0  0  0  0
    5.5870    1.5600    1.3490 N   0  0  0  0  0  0  0  0  0  0  0  0
    7.2010    1.9920   -0.3860 C   0  0  0  0  0  0  0  0  0  0  0  0
    7.9950    1.5580   -1.4220 C   0  0  0  0  0  0  0  0  0  0  0  0
    8.8780    2.5260   -2.1530 C   0  0  0  0  0  0  0  0  0  0  0  0
    7.9560    0.2530   -1.7450 N   0  0  0  0  0  0  0  0  0  0  0  0
    7.1590   -0.6260   -1.0760 C   0  0  0  0  0  0  0  0  0  0  0  0
    7.2040   -1.8350   -1.4690 O   0  0  0  0  0  0  0  0  0  0  0  0
   -4.5000   -0.8200   -0.0490 C   0  0  0  0  0  0  0  0  0  0  0  0
   -5.0220    0.5360    0.2080 C   0  0  0  0  0  0  0  0  0  0  0  0
   -6.4100    0.7560   -0.0120 N   0  0  0  0  0  0  0  0  0  0  0  0
   -6.6580    1.6560   -1.1310 C   0  0  0  0  0  0  0  0  0  0  0  0
   -7.2810    2.9670   -0.6970 C   0  0  0  0  0  0  0  0  0  0  0  0
   -6.4000    3.7100    0.2900 C   0  0  0  0  0  0  0  0  0  0  0  0
   -5.0980    4.0210   -0.2420 N   0  0  0  0  0  0  0  0  0  0  0  0
   -5.2440   -1.8800   -0.5040 C   0  0  0  0  0  0  0  0  0  0  0  0
  1  2  1  0
  2  3  1  0
  3  4  2  0
  3 38  1  0
  4  5  1  0
  5  6  2  0
  6  7  1  0
  6 31  1  0
  7  8  1  0
  8  9  1  0
  8 17  1  0
  9 10  2  0
 10 11  1  0
 11 12  2  0
 11 16  1  0
 12 13  1  0
 13 14  2  0
 13 21  1  0
 14 15  1  0
 14 19  1  0
 15 16  2  0
 16 17  1  0
 17 18  2  0
 19 20  1  0
 20 21  1  0
 21 22  1  1
 22 23  2  0
 22 29  1  0
 23 24  1  0
 23 25  1  0
 25 26  2  0
 26 27  1  0
 26 28  1  0
 28 29  1  0
 29 30  2  0
 31 32  1  0
 31 38  2  0
 32 33  1  0
 33 34  1  0
 34 35  1  0
 35 36  1  0
 36 37  1  0
M  CHG  3  20   1  33   1  37   1
M  END
