
     RDKit          3D

 38 41  0  0  0  0  0  0  0  0999 V2000
   -3.9670   -0.1930   -2.2830 N   0  0  0  0  0  0  0  0  0  0  0  0
   -3.4490    0.4900   -1.1080 C   0  0  0  0  0  0  0  0  0  0  0  0
   -2.3010    0.9760   -1.2270 O   0  0  0  0  0  0  0  0  0  0  0  0
   -4.2790    0.5580    0.0900 C   0  0  1  0  0  0  0  0  0  0  0  0
   -5.6450    0.1850   -0.2790 O   0  0  0  0  0  0  0  0  0  0  0  0
   -6.6600    1.1230   -0.0980 C   0  0  0  0  0  0  0  0  0  0  0  0
   -6.3260    2.2370    0.3750 O   0  0  0  0  0  0  0  0  0  0  0  0
   -8.0460    0.8120   -0.4470 C   0  0  0  0  0  0  0  0  0  0  0  0
   -8.9990    1.7830   -0.2420 C   0  0  0  0  0  0  0  0  0  0  0  0
  -10.3340    1.5240   -0.5650 C   0  0  0  0  0  0  0  0  0  0  0  0
  -10.7010    0.2960   -1.0900 C   0  0  0  0  0  0  0  0  0  0  0  0
   -9.7420   -0.6880   -1.2980 C   0  0  0  0  0  0  0  0  0  0  0  0
  -10.1170   -1.9160   -1.8240 O   0  0  0  0  0  0  0  0  0  0  0  0
   -8.4290   -0.3960   -0.9670 C   0  0  0  0  0  0  0  0  0  0  0  0
   -3.8770   -0.3610    1.1650 C   0  0  0  0  0  0  0  0  0  0  0  0
   -4.9420   -0.9820    1.8750 C   0  0  0  0  0  0  0  0  0  0  0  0
   -4.6820   -1.8050    2.9480 C   0  0  0  0  0  0  0  0  0  0  0  0
   -3.3790   -2.0180    3.3230 C   0  0  0  0  0  0  0  0  0  0  0  0
   -2.3470   -1.4230    2.6420 C   0  0  0  0  0  0  0  0  0  0  0  0
   -2.5990   -0.5790    1.5410 C   0  0  0  0  0  0  0  0  0  0  0  0
   -1.4970   -0.0100    0.8830 O   0  0  0  0  0  0  0  0  0  0  0  0
   -0.1950   -0.2830    1.3820 C   0  0  0  0  0  0  0  0  0  0  0  0
    0.8530    0.3610    0.5250 C   0  0  0  0  0  0  0  0  0  0  0  0
    0.8740   -0.2480   -0.8520 C   0  0  0  0  0  0  0  0  0  0  0  0
    1.9120    0.4310   -1.6930 C   0  0  0  0  0  0  0  0  0  0  0  0
    3.2590    0.2330   -1.1390 C   0  0  0  0  0  0  0  0  0  0  0  0
    3.5410   -0.4880   -0.1540 O   0  0  0  0  0  0  0  0  0  0  0  0
    4.3960    0.9010   -1.7420 N   0  0  0  0  0  0  0  0  0  0  0  0
    5.6900    0.7280   -1.2350 N   0  0  0  0  0  0  0  0  0  0  0  0
    6.3000   -0.5390   -1.1100 C   0  0  0  0  0  0  0  0  0  0  0  0
    5.6620   -1.5550   -1.4650 O   0  0  0  0  0  0  0  0  0  0  0  0
    7.6670   -0.6830   -0.5720 C   0  0  1  0  0  0  0  0  0  0  0  0
    8.6040    0.4130   -0.9460 C   0  0  2  0  0  0  0  0  0  0  0  0
   10.0170    0.0620   -1.2880 C   0  0  0  0  0  0  0  0  0  0  0  0
   10.9640    1.0520   -0.6410 C   0  0  0  0  0  0  0  0  0  0  0  0
   10.7120    0.8830    1.1690 S   0  0  0  0  0  0  0  0  0  0  0  0
    9.2960   -0.2550    1.3680 C   0  0  0  0  0  0  0  0  0  0  0  0
    8.2060    0.2490    0.4500 C   0  0  2  0  0  0  0  0  0  0  0  0
  1  2  1  0
  2  3  2  0
  2  4  1  0
  4  5  1  6
  4 15  1  0
  5  6  1  0
  6  7  2  0
  6  8  1  0
  8  9  2  0
  8 14  1  0
  9 10  1  0
 10 11  2  0
 11 12  1  0
 12 13  1  0
 12 14  2  0
 15 16  2  0
 15 20  1  0
 16 17  1  0
 17 18  2  0
 18 19  1  0
 19 20  2  0
 20 21  1  0
 21 22  1  0
 22 23  1  0
 23 24  1  0
 24 25  1  0
 25 26  1  0
 26 27  2  0
 26 28  1  0
 28 29  1  0
 29 30  1  0
 30 31  2  0
 32 30  1  6
 32 33  1  0
 32 38  1  0
 33 34  1  1
 33 38  1  0
 34 35  1  0
 35 36  1  0
 36 37  1  0
 38 37  1  1
M  END
