
     RDKit          3D

 38 41  0  0  0  0  0  0  0  0999 V2000
   -4.7480    4.4810    0.1740 C   0  0  0  0  0  0  0  0  0  0  0  0
   -3.9200    3.2000    0.0950 C   0  0  0  0  0  0  0  0  0  0  0  0
   -2.5770    3.5600   -0.0280 O   0  0  0  0  0  0  0  0  0  0  0  0
   -1.5990    2.5480   -0.1220 C   0  0  0  0  0  0  0  0  0  0  0  0
   -1.9610    1.2060   -0.0930 C   0  0  0  0  0  0  0  0  0  0  0  0
   -1.0740    0.1610   -0.1800 C   0  0  0  0  0  0  0  0  0  0  0  0
   -1.4360   -1.2490   -0.1390 C   0  0  0  0  0  0  0  0  0  0  0  0
   -2.9270   -1.5670   -0.2870 C   0  0  2  0  0  0  0  0  0  0  0  0
   -3.4190   -1.0850   -1.6210 C   0  0  0  0  0  0  0  0  0  0  0  0
   -4.7810   -1.2280   -1.9340 N   0  0  0  0  0  0  0  0  0  0  0  0
   -3.6730   -1.1170    0.9020 C   0  0  0  0  0  0  0  0  0  0  0  0
   -4.0730   -2.3790    1.6990 C   0  0  0  0  0  0  0  0  0  0  0  0
   -2.9890   -3.3510    1.2780 C   0  0  0  0  0  0  0  0  0  0  0  0
   -2.9900   -3.0730   -0.2320 C   0  0  1  0  0  0  0  0  0  0  0  0
   -4.1590   -3.6970   -0.7400 N   0  0  0  0  0  0  0  0  0  0  0  0
   -1.7530   -3.7130   -0.8510 C   0  0  0  0  0  0  0  0  0  0  0  0
   -1.8590   -5.2330   -0.7880 C   0  0  0  0  0  0  0  0  0  0  0  0
    0.2490    0.5080   -0.3020 C   0  0  0  0  0  0  0  0  0  0  0  0
    1.3230   -0.4740   -0.4010 C   0  0  0  0  0  0  0  0  0  0  0  0
    1.1840   -1.4400   -1.1730 O   0  0  0  0  0  0  0  0  0  0  0  0
    2.5140   -0.3780    0.3330 N   0  0  0  0  0  0  0  0  0  0  0  0
    3.6210   -1.2610    0.3190 C   0  0  0  0  0  0  0  0  0  0  0  0
    3.6690   -2.4950   -0.2400 C   0  0  0  0  0  0  0  0  0  0  0  0
    4.8440   -3.2560   -0.2070 C   0  0  0  0  0  0  0  0  0  0  0  0
    5.9960   -2.7960    0.3870 C   0  0  0  0  0  0  0  0  0  0  0  0
    7.2330   -3.2870    0.5630 N   0  0  0  0  0  0  0  0  0  0  0  0
    7.9960   -2.4000    1.2260 C   0  0  0  0  0  0  0  0  0  0  0  0
    9.2360   -2.5560    1.5580 N   0  0  0  0  0  0  0  0  0  0  0  0
    7.2020   -1.3390    1.4620 N   0  0  0  0  0  0  0  0  0  0  0  0
    5.9620   -1.5450    0.9590 C   0  0  0  0  0  0  0  0  0  0  0  0
    4.8050   -0.8080    0.9210 C   0  0  0  0  0  0  0  0  0  0  0  0
    0.6290    1.8610   -0.3330 C   0  0  0  0  0  0  0  0  0  0  0  0
   -0.2700    2.8640   -0.2450 C   0  0  0  0  0  0  0  0  0  0  0  0
    0.1120    4.2110   -0.2750 O   0  0  0  0  0  0  0  0  0  0  0  0
    1.4600    4.6000   -0.3930 C   0  0  0  0  0  0  0  0  0  0  0  0
    1.6200    6.0980   -0.3990 C   0  0  2  0  0  0  0  0  0  0  0  0
    3.0730    6.5040   -0.5260 C   0  0  0  0  0  0  0  0  0  0  0  0
    1.0900    6.6460    0.9320 C   0  0  0  0  0  0  0  0  0  0  0  0
  1  2  1  0
  2  3  1  0
  3  4  1  0
  4  5  2  0
  4 33  1  0
  5  6  1  0
  6  7  1  0
  6 18  2  0
  8  7  1  1
  8  9  1  0
  8 11  1  0
  8 14  1  0
  9 10  1  0
 11 12  1  0
 12 13  1  0
 13 14  1  0
 14 15  1  6
 14 16  1  0
 16 17  1  0
 18 19  1  0
 18 32  1  0
 19 20  2  0
 19 21  1  0
 21 22  1  0
 22 23  2  0
 22 31  1  0
 23 24  1  0
 24 25  2  0
 25 26  1  0
 25 30  1  0
 26 27  1  0
 27 28  2  0
 27 29  1  0
 29 30  1  0
 30 31  2  0
 32 33  2  0
 33 34  1  0
 34 35  1  0
 35 36  1  0
 36 37  1  1
 36 38  1  0
M  CHG  3  10   1  15   1  28   1
M  END
