
     RDKit          3D

 38 41  0  0  0  0  0  0  0  0999 V2000
   -2.9950   -2.1200    4.6880 C   0  0  0  0  0  0  0  0  0  0  0  0
   -2.5810   -1.4510    3.5130 O   0  0  0  0  0  0  0  0  0  0  0  0
   -3.1840   -1.7680    2.3040 C   0  0  0  0  0  0  0  0  0  0  0  0
   -4.1620   -2.7070    2.2380 C   0  0  0  0  0  0  0  0  0  0  0  0
   -4.7540   -3.0130    1.0410 C   0  0  0  0  0  0  0  0  0  0  0  0
   -4.3710   -2.3790   -0.1120 C   0  0  0  0  0  0  0  0  0  0  0  0
   -3.3690   -1.4160   -0.0450 C   0  0  0  0  0  0  0  0  0  0  0  0
   -2.7430   -1.0730    1.1270 C   0  0  0  0  0  0  0  0  0  0  0  0
   -1.6820   -0.1290    1.3450 C   0  0  1  0  0  0  0  0  0  0  0  0
   -0.6060   -0.7490    2.1730 N   0  0  0  0  0  0  0  0  0  0  0  0
   -1.0330    0.7200    0.3660 C   0  0  1  0  0  0  0  0  0  0  0  0
   -0.3540    0.1170   -0.7370 N   0  0  0  0  0  0  0  0  0  0  0  0
    1.0880    0.3090   -0.6710 C   0  0  0  0  0  0  0  0  0  0  0  0
    1.8360   -0.9670   -0.8600 C   0  0  0  0  0  0  0  0  0  0  0  0
    3.3200   -0.7590   -0.7720 C   0  0  0  0  0  0  0  0  0  0  0  0
    3.7240    0.3900   -0.5230 O   0  0  0  0  0  0  0  0  0  0  0  0
    4.2410   -1.7870   -0.9560 N   0  0  0  0  0  0  0  0  0  0  0  0
    5.6380   -1.7550   -0.9040 C   0  0  0  0  0  0  0  0  0  0  0  0
    6.3490   -0.6210   -0.6190 C   0  0  0  0  0  0  0  0  0  0  0  0
    7.7570   -0.6300   -0.5710 C   0  0  0  0  0  0  0  0  0  0  0  0
    8.4590    0.5670   -0.2660 C   0  0  0  0  0  0  0  0  0  0  0  0
    9.0270    1.5720   -0.0200 N   0  0  0  0  0  0  0  0  0  0  0  0
    8.4590   -1.7840   -0.8100 C   0  0  0  0  0  0  0  0  0  0  0  0
    9.9530   -1.8090   -0.7630 C   0  0  0  0  0  0  0  0  0  0  0  0
    7.7460   -2.8860   -1.0870 N   0  0  0  0  0  0  0  0  0  0  0  0
    6.4060   -2.9020   -1.1390 C   0  0  0  0  0  0  0  0  0  0  0  0
    5.7810   -3.9500   -1.4000 O   0  0  0  0  0  0  0  0  0  0  0  0
   -1.7930    1.9750   -0.0010 C   0  0  0  0  0  0  0  0  0  0  0  0
   -1.2190    2.9230   -0.8220 C   0  0  0  0  0  0  0  0  0  0  0  0
   -1.9270    4.0790   -1.1600 C   0  0  0  0  0  0  0  0  0  0  0  0
   -3.1830    4.2980   -0.6940 C   0  0  0  0  0  0  0  0  0  0  0  0
   -3.9350    5.5090   -1.0520 C   0  0  0  0  0  0  0  0  0  0  0  0
   -3.4870    6.5920   -0.1800 N   0  0  0  0  0  0  0  0  0  0  0  0
   -3.7760    3.3570    0.1340 C   0  0  0  0  0  0  0  0  0  0  0  0
   -3.0690    2.2310    0.4540 C   0  0  0  0  0  0  0  0  0  0  0  0
   -3.2050   -0.9110   -1.4440 C   0  0  0  0  0  0  0  0  0  0  0  0
   -4.4940   -1.2930   -2.1740 C   0  0  0  0  0  0  0  0  0  0  0  0
   -4.8750   -2.5670   -1.5130 C   0  0  0  0  0  0  0  0  0  0  0  0
  1  2  1  0
  2  3  1  0
  3  4  2  0
  3  8  1  0
  4  5  1  0
  5  6  2  0
  6  7  1  0
  6 38  1  0
  7  8  2  0
  7 36  1  0
  8  9  1  0
  9 10  1  6
  9 11  1  0
 11 12  1  6
 11 28  1  0
 12 13  1  0
 13 14  1  0
 14 15  1  0
 15 16  2  0
 15 17  1  0
 17 18  1  0
 18 19  2  0
 18 26  1  0
 19 20  1  0
 20 21  1  0
 20 23  2  0
 21 22  3  0
 23 24  1  0
 23 25  1  0
 25 26  1  0
 26 27  2  0
 28 29  2  0
 28 35  1  0
 29 30  1  0
 30 31  2  0
 31 32  1  0
 31 34  1  0
 32 33  1  0
 34 35  2  0
 36 37  1  0
 37 38  1  0
M  CHG  3  10   1  12   1  33   1
M  END
