
     RDKit          3D

 34 37  0  0  0  0  0  0  0  0999 V2000
   -7.4390   -0.3390   -0.1140 C   0  0  0  0  0  0  0  0  0  0  0  0
   -6.4090    0.0540   -0.4860 N   0  0  0  0  0  0  0  0  0  0  0  0
   -5.1370    0.3120   -0.5860 C   0  0  1  0  0  0  0  0  0  0  0  0
   -5.1170    1.6040   -1.4480 N   0  0  0  0  0  0  0  0  0  0  0  0
   -4.1900    0.6910    0.4770 C   0  0  0  0  0  0  0  0  0  0  0  0
   -4.4090    1.7630    1.2630 C   0  0  0  0  0  0  0  0  0  0  0  0
   -3.3780    2.3310    2.0120 C   0  0  0  0  0  0  0  0  0  0  0  0
   -2.1290    1.7300    1.8940 C   0  0  0  0  0  0  0  0  0  0  0  0
   -1.2370    2.2560    2.5740 O   0  0  0  0  0  0  0  0  0  0  0  0
   -1.9060    0.6540    1.1050 N   0  0  0  0  0  0  0  0  0  0  0  0
   -0.5090    0.1960    0.8820 C   0  0  2  0  0  0  0  0  0  0  0  0
    0.4570    1.3080    1.2300 C   0  0  0  0  0  0  0  0  0  0  0  0
    1.8320    1.2590    0.5210 C   0  0  0  0  0  0  0  0  0  0  0  0
    1.7570    0.0800   -0.3440 N   0  0  0  0  0  0  0  0  0  0  0  0
    2.6100   -0.9720   -0.2810 C   0  0  0  0  0  0  0  0  0  0  0  0
    2.2850   -2.1600   -0.6970 O   0  0  0  0  0  0  0  0  0  0  0  0
    3.9720   -0.9300    0.2400 C   0  0  0  0  0  0  0  0  0  0  0  0
    4.7820   -0.0300   -0.5260 C   0  0  0  0  0  0  0  0  0  0  0  0
    6.1230   -0.2260   -0.5680 C   0  0  0  0  0  0  0  0  0  0  0  0
    7.1670    0.6520   -1.6990 S   0  0  0  0  0  0  0  0  0  0  0  0
    7.9410    2.0740   -0.9870 C   0  0  1  0  0  0  0  0  0  0  0  0
    7.0810    3.0850   -0.6870 F   0  0  0  0  0  0  0  0  0  0  0  0
    8.6560    1.6720    0.1440 F   0  0  0  0  0  0  0  0  0  0  0  0
    9.1810    2.6430   -2.1740 Cl  0  0  0  0  0  0  0  0  0  0  0  0
    6.6930   -1.2980    0.1520 C   0  0  0  0  0  0  0  0  0  0  0  0
    5.9560   -2.1480    0.8900 C   0  0  0  0  0  0  0  0  0  0  0  0
    4.5900   -1.9290    0.9110 C   0  0  0  0  0  0  0  0  0  0  0  0
    3.8300   -2.7820    1.7970 N   0  0  0  0  0  0  0  0  0  0  0  0
    0.7080    0.3310   -1.3440 C   0  0  0  0  0  0  0  0  0  0  0  0
   -0.5170   -0.2110   -0.5760 C   0  0  0  0  0  0  0  0  0  0  0  0
   -2.8870    0.0610    0.3680 C   0  0  0  0  0  0  0  0  0  0  0  0
   -2.9740   -1.1980   -0.2350 C   0  0  2  0  0  0  0  0  0  0  0  0
   -2.7890   -2.0740   -1.3150 C   0  0  0  0  0  0  0  0  0  0  0  0
   -3.9250   -2.3600   -0.2210 C   0  0  0  0  0  0  0  0  0  0  0  0
  1  2  2  0
  2  3  1  0
  3  4  1  6
  3  5  1  0
  5  6  1  0
  5 31  2  0
  6  7  2  0
  7  8  1  0
  8  9  2  0
  8 10  1  0
 11 10  1  6
 10 31  1  0
 11 12  1  0
 11 30  1  0
 12 13  1  0
 13 14  1  0
 14 15  1  0
 14 29  1  0
 15 16  2  0
 15 17  1  0
 17 18  2  0
 17 27  1  0
 18 19  1  0
 19 20  1  0
 19 25  2  0
 20 21  1  0
 21 22  1  1
 21 23  1  0
 21 24  1  0
 25 26  1  0
 26 27  2  0
 27 28  1  0
 29 30  1  0
 32 31  1  6
 32 33  1  0
 32 34  1  0
 33 34  1  0
M  CHG  1   4   1
M  END
