
     RDKit          3D

 35 38  0  0  0  0  0  0  0  0999 V2000
    5.6070    2.0000    0.0230 C   0  0  0  0  0  0  0  0  0  0  0  0
    4.4730    1.2010    0.7060 C   0  0  0  0  0  0  0  0  0  0  0  0
    3.8440    0.4210   -0.3500 C   0  0  1  0  0  0  0  0  0  0  0  0
    5.0090   -0.4540   -0.8950 C   0  0  0  0  0  0  0  0  0  0  0  0
    4.3580   -1.6390   -1.4670 C   0  0  0  0  0  0  0  0  0  0  0  0
    2.8780   -1.4730   -1.1630 C   0  0  0  0  0  0  0  0  0  0  0  0
    2.8240   -0.6530    0.0770 C   0  0  2  0  0  0  0  0  0  0  0  0
    1.5800    0.0040    0.4800 C   0  0  1  0  0  0  0  0  0  0  0  0
    2.0550    0.7550    1.6180 O   0  0  0  0  0  0  0  0  0  0  0  0
    1.2320    1.1610   -0.4700 C   0  0  0  0  0  0  0  0  0  0  0  0
   -0.0050    1.8980   -0.1000 C   0  0  1  0  0  0  0  0  0  0  0  0
   -0.3730    1.7190    1.3230 C   0  0  0  0  0  0  0  0  0  0  0  0
   -0.3550    0.3470    1.8610 C   0  0  0  0  0  0  0  0  0  0  0  0
    0.4250   -0.7150    1.0670 C   0  0  2  0  0  0  0  0  0  0  0  0
    1.0340   -1.5710    2.2120 C   0  0  0  0  0  0  0  0  0  0  0  0
   -0.3760   -1.6560    0.2660 C   0  0  1  0  0  0  0  0  0  0  0  0
   -0.1570   -1.1830   -1.0690 O   0  0  0  0  0  0  0  0  0  0  0  0
    0.1110   -3.0810    0.2540 C   0  0  0  0  0  0  0  0  0  0  0  0
   -0.7510   -4.1480    0.7960 C   0  0  0  0  0  0  0  0  0  0  0  0
   -1.9820   -4.2340   -0.0460 C   0  0  0  0  0  0  0  0  0  0  0  0
   -2.2310   -2.8970   -0.6490 C   0  0  0  0  0  0  0  0  0  0  0  0
   -1.8690   -1.7150    0.2940 C   0  0  1  0  0  0  0  0  0  0  0  0
   -2.5700   -2.0180    1.5540 C   0  0  0  0  0  0  0  0  0  0  0  0
   -2.5300   -0.5710   -0.4010 C   0  0  0  0  0  0  0  0  0  0  0  0
   -3.8690   -0.6870   -1.0110 C   0  0  1  0  0  0  0  0  0  0  0  0
   -5.0310   -0.7960   -0.0700 C   0  0  0  0  0  0  0  0  0  0  0  0
   -4.0650    0.7290   -1.6580 C   0  0  0  0  0  0  0  0  0  0  0  0
   -3.6180    1.6260   -0.7060 O   0  0  0  0  0  0  0  0  0  0  0  0
   -3.1380    2.8830   -0.7840 C   0  0  0  0  0  0  0  0  0  0  0  0
   -3.6830    3.7600   -0.0160 O   0  0  0  0  0  0  0  0  0  0  0  0
   -2.0630    3.4010   -1.6370 C   0  0  0  0  0  0  0  0  0  0  0  0
   -1.0150    4.1850   -0.8930 C   0  0  1  0  0  0  0  0  0  0  0  0
   -1.5800    5.0620    0.1990 C   0  0  0  0  0  0  0  0  0  0  0  0
    0.0860    3.3880   -0.3380 C   0  0  0  0  0  0  0  0  0  0  0  0
    1.1330    3.9160   -0.0450 O   0  0  0  0  0  0  0  0  0  0  0  0
  1  2  1  0
  3  2  1  1
  3  4  1  0
  3  7  1  0
  4  5  1  0
  5  6  1  0
  7  6  1  6
  7  8  1  0
  8  9  1  1
  8 10  1  0
  8 14  1  0
 10 11  1  0
 11 12  1  1
 11 34  1  0
 12 13  1  0
 13 14  1  0
 14 15  1  1
 14 16  1  0
 16 17  1  6
 16 18  1  0
 16 22  1  0
 18 19  1  0
 19 20  1  0
 20 21  1  0
 21 22  1  0
 22 23  1  1
 22 24  1  0
 24 25  1  0
 25 26  1  1
 25 27  1  0
 27 28  1  0
 28 29  1  0
 29 30  2  0
 29 31  1  0
 31 32  1  0
 32 33  1  1
 32 34  1  0
 34 35  2  0
M  END
