
     RDKit          3D

 34 37  0  0  0  0  0  0  0  0999 V2000
    4.0070   -3.0050   -1.3230 C   0  0  0  0  0  0  0  0  0  0  0  0
    3.5390   -1.6990   -0.7010 C   0  0  2  0  0  0  0  0  0  0  0  0
    4.6850   -1.0420    0.0690 C   0  0  0  0  0  0  0  0  0  0  0  0
    5.7940   -0.7160   -0.8300 N   0  0  0  0  0  0  0  0  0  0  0  0
    7.0450   -0.7510   -0.1530 C   0  0  0  0  0  0  0  0  0  0  0  0
    7.4260    0.6070    0.4290 C   0  0  0  0  0  0  0  0  0  0  0  0
    6.6950    1.7040    0.3370 C   0  0  0  0  0  0  0  0  0  0  0  0
    7.1190    2.8890    0.8950 C   0  0  0  0  0  0  0  0  0  0  0  0
    8.7200    2.3880    1.6230 S   0  0  0  0  0  0  0  0  0  0  0  0
    8.6460    0.6640    1.1050 C   0  0  0  0  0  0  0  0  0  0  0  0
    2.5410   -1.9700    0.2280 O   0  0  0  0  0  0  0  0  0  0  0  0
    1.2560   -1.4800    0.1650 C   0  0  0  0  0  0  0  0  0  0  0  0
    0.8080   -0.6630   -0.8230 C   0  0  0  0  0  0  0  0  0  0  0  0
   -0.5210   -0.1900   -0.8350 C   0  0  0  0  0  0  0  0  0  0  0  0
   -1.4090   -0.5180    0.1190 C   0  0  0  0  0  0  0  0  0  0  0  0
   -2.7460   -0.0710    0.1850 N   0  0  0  0  0  0  0  0  0  0  0  0
   -3.3030    0.9880   -0.5210 C   0  0  0  0  0  0  0  0  0  0  0  0
   -2.4970    1.6590   -1.2780 O   0  0  0  0  0  0  0  0  0  0  0  0
   -4.6560    1.4580   -0.5600 C   0  0  0  0  0  0  0  0  0  0  0  0
   -4.8580    2.6060   -1.1820 N   0  0  0  0  0  0  0  0  0  0  0  0
   -6.0780    3.2600   -1.3340 N   0  0  0  0  0  0  0  0  0  0  0  0
   -7.0700    3.5150   -0.3380 C   0  0  0  0  0  0  0  0  0  0  0  0
   -7.3530    2.4480    0.5770 N   0  0  0  0  0  0  0  0  0  0  0  0
   -6.9120    1.0840    0.5250 C   0  0  0  0  0  0  0  0  0  0  0  0
   -7.8360    0.1820    0.9970 C   0  0  0  0  0  0  0  0  0  0  0  0
   -7.5610   -1.1770    0.8860 C   0  0  0  0  0  0  0  0  0  0  0  0
   -8.4390   -2.0860    1.3380 F   0  0  0  0  0  0  0  0  0  0  0  0
   -6.3680   -1.6190    0.3020 C   0  0  0  0  0  0  0  0  0  0  0  0
   -6.1620   -2.9510    0.2260 F   0  0  0  0  0  0  0  0  0  0  0  0
   -5.4470   -0.7110   -0.1690 C   0  0  0  0  0  0  0  0  0  0  0  0
   -5.7340    0.6140   -0.0440 C   0  0  0  0  0  0  0  0  0  0  0  0
   -0.9530   -1.3610    1.1410 C   0  0  0  0  0  0  0  0  0  0  0  0
    0.3310   -1.8270    1.1670 C   0  0  0  0  0  0  0  0  0  0  0  0
    0.9200   -2.8840    2.4390 Cl  0  0  0  0  0  0  0  0  0  0  0  0
  2  1  1  1
  2  3  1  0
  2 11  1  0
  3  4  1  0
  4  5  1  0
  5  6  1  0
  6  7  1  0
  6 10  2  0
  7  8  2  0
  8  9  1  0
  9 10  1  0
 11 12  1  0
 12 13  2  0
 12 33  1  0
 13 14  1  0
 14 15  2  0
 15 16  1  0
 15 32  1  0
 16 17  1  0
 17 18  2  0
 17 19  1  0
 19 20  2  0
 19 31  1  0
 20 21  1  0
 21 22  1  0
 22 23  1  0
 23 24  1  0
 24 25  2  0
 24 31  1  0
 25 26  1  0
 26 27  1  0
 26 28  2  0
 28 29  1  0
 28 30  1  0
 30 31  2  0
 32 33  2  0
 33 34  1  0
M  CHG  1   4   1
M  END
