
     RDKit          3D

 28 32  0  0  0  0  0  0  0  0999 V2000
   -3.3980   -3.1470    0.4630 C   0  0  0  0  0  0  0  0  0  0  0  0
   -2.1820   -3.2790   -0.4110 C   0  0  2  0  0  0  0  0  0  0  0  0
   -2.4380   -3.7600   -1.7990 C   0  0  0  0  0  0  0  0  0  0  0  0
   -1.3780   -4.4270    0.2500 C   0  0  0  0  0  0  0  0  0  0  0  0
   -1.2660   -2.1110   -0.3120 C   0  0  0  0  0  0  0  0  0  0  0  0
    0.0430   -2.0760    0.0690 N   0  0  0  0  0  0  0  0  0  0  0  0
    0.5140   -0.8400    0.0190 N   0  0  0  0  0  0  0  0  0  0  0  0
    1.8600   -0.4660    0.3590 C   0  0  1  0  0  0  0  0  0  0  0  0
    2.7730   -0.3100   -0.8190 C   0  0  0  0  0  0  0  0  0  0  0  0
    4.1950   -0.2300   -0.2530 C   0  0  0  0  0  0  0  0  0  0  0  0
    4.2600    0.7490    0.8530 C   0  0  0  0  0  0  0  0  0  0  0  0
    3.2270    1.1920    1.5410 C   0  0  0  0  0  0  0  0  0  0  0  0
    3.7220    2.1490    2.5460 C   0  0  0  0  0  0  0  0  0  0  0  0
    5.0000    2.2700    2.4590 N   0  0  0  0  0  0  0  0  0  0  0  0
    5.4890    1.4140    1.3960 C   0  0  0  0  0  0  0  0  0  0  0  0
    1.9340    0.7020    1.2110 N   0  0  0  0  0  0  0  0  0  0  0  0
   -0.4520   -0.0150   -0.3910 C   0  0  0  0  0  0  0  0  0  0  0  0
   -1.5820   -0.8150   -0.6020 C   0  0  0  0  0  0  0  0  0  0  0  0
   -2.8870   -0.3500   -1.0520 C   0  0  0  0  0  0  0  0  0  0  0  0
   -3.5780   -1.2400   -1.5980 O   0  0  0  0  0  0  0  0  0  0  0  0
   -3.4410    0.9620   -0.9400 N   0  0  0  0  0  0  0  0  0  0  0  0
   -2.7270    2.1750   -0.7300 C   0  0  0  0  0  0  0  0  0  0  0  0
   -3.5980    3.2460   -0.7020 C   0  0  0  0  0  0  0  0  0  0  0  0
   -3.0880    4.5120   -0.5070 C   0  0  0  0  0  0  0  0  0  0  0  0
   -1.7330    4.7060   -0.3440 C   0  0  0  0  0  0  0  0  0  0  0  0
   -0.8730    3.6080   -0.3770 C   0  0  0  0  0  0  0  0  0  0  0  0
   -1.3680    2.3370   -0.5700 C   0  0  0  0  0  0  0  0  0  0  0  0
   -0.3150    1.3900   -0.5650 N   0  0  0  0  0  0  0  0  0  0  0  0
  2  1  1  1
  2  3  1  0
  2  4  1  0
  2  5  1  0
  5  6  2  0
  5 18  1  0
  6  7  1  0
  8  7  1  6
  7 17  1  0
  8  9  1  0
  8 16  1  0
  9 10  1  0
 10 11  1  0
 11 12  2  0
 11 15  1  0
 12 13  1  0
 12 16  1  0
 13 14  2  0
 14 15  1  0
 17 18  2  0
 17 28  1  0
 18 19  1  0
 19 20  2  0
 19 21  1  0
 21 22  1  0
 22 23  2  0
 22 27  1  0
 23 24  1  0
 24 25  2  0
 25 26  1  0
 26 27  2  0
 27 28  1  0
M  CHG  1  14   1
M  END
