
     RDKit          3D

 29 33  0  0  0  0  0  0  0  0999 V2000
   -4.3010   -3.5600   -1.5170 C   0  0  0  0  0  0  0  0  0  0  0  0
   -4.2980   -3.3110   -0.0310 C   0  0  0  0  0  0  0  0  0  0  0  0
   -3.1620   -2.3490    0.2460 C   0  0  0  0  0  0  0  0  0  0  0  0
   -3.3940   -1.1820    0.7940 C   0  0  0  0  0  0  0  0  0  0  0  0
   -2.3960   -0.1490    1.1200 C   0  0  2  0  0  0  0  0  0  0  0  0
   -2.7640    1.1530    0.5560 C   0  0  0  0  0  0  0  0  0  0  0  0
   -2.9160    2.2440    1.3510 C   0  0  0  0  0  0  0  0  0  0  0  0
   -3.2630    3.4840    0.8330 C   0  0  0  0  0  0  0  0  0  0  0  0
   -3.4100    4.5570    1.6300 F   0  0  0  0  0  0  0  0  0  0  0  0
   -3.4680    3.6490   -0.5220 C   0  0  0  0  0  0  0  0  0  0  0  0
   -3.3150    2.5390   -1.3450 C   0  0  0  0  0  0  0  0  0  0  0  0
   -2.9650    1.3000   -0.7980 C   0  0  0  0  0  0  0  0  0  0  0  0
   -2.8080    0.1800   -1.6030 O   0  0  0  0  0  0  0  0  0  0  0  0
   -1.0200   -0.5620    0.7530 C   0  0  0  0  0  0  0  0  0  0  0  0
    0.1940    0.0710    0.8720 C   0  0  0  0  0  0  0  0  0  0  0  0
    1.1910   -0.7400    0.3800 C   0  0  0  0  0  0  0  0  0  0  0  0
    2.6120   -0.4160    0.3330 C   0  0  0  0  0  0  0  0  0  0  0  0
    3.6290   -1.1580   -0.1300 N   0  0  0  0  0  0  0  0  0  0  0  0
    4.8150   -0.5060   -0.0010 C   0  0  0  0  0  0  0  0  0  0  0  0
    6.1150   -0.8150   -0.3120 C   0  0  0  0  0  0  0  0  0  0  0  0
    7.0980    0.0480   -0.0620 N   0  0  0  0  0  0  0  0  0  0  0  0
    6.7910    1.2290    0.5010 C   0  0  0  0  0  0  0  0  0  0  0  0
    5.4880    1.5450    0.8150 C   0  0  0  0  0  0  0  0  0  0  0  0
    5.1190    2.8570    1.4430 C   0  0  0  0  0  0  0  0  0  0  0  0
    4.4860    0.6840    0.5690 N   0  0  0  0  0  0  0  0  0  0  0  0
    3.1790    0.7240    0.7610 N   0  0  0  0  0  0  0  0  0  0  0  0
    0.5660   -1.8500   -0.0280 N   0  0  0  0  0  0  0  0  0  0  0  0
   -0.7730   -1.7860    0.1790 C   0  0  0  0  0  0  0  0  0  0  0  0
   -1.8320   -2.7020   -0.0860 N   0  0  0  0  0  0  0  0  0  0  0  0
  1  2  1  0
  2  3  1  0
  3  4  2  0
  3 29  1  0
  4  5  1  0
  5  6  1  6
  5 14  1  0
  6  7  2  0
  6 12  1  0
  7  8  1  0
  8  9  1  0
  8 10  2  0
 10 11  1  0
 11 12  2  0
 12 13  1  0
 14 15  1  0
 14 28  2  0
 15 16  2  0
 16 17  1  0
 16 27  1  0
 17 18  1  0
 17 26  2  0
 18 19  2  0
 19 20  1  0
 19 25  1  0
 20 21  2  0
 21 22  1  0
 22 23  2  0
 23 24  1  0
 23 25  1  0
 25 26  1  0
 27 28  1  0
 28 29  1  0
M  CHG  1  21   1
M  END
