
     RDKit          3D

 29 32  0  0  0  0  0  0  0  0999 V2000
   -5.1170    4.1260    0.4650 C   0  0  0  0  0  0  0  0  0  0  0  0
   -4.0560    3.1140    0.5480 C   0  0  0  0  0  0  0  0  0  0  0  0
   -4.0280    2.0510   -0.2320 C   0  0  0  0  0  0  0  0  0  0  0  0
   -2.9490    1.0330   -0.1390 C   0  0  0  0  0  0  0  0  0  0  0  0
   -1.8100    1.2510    1.1460 Cl  0  0  0  0  0  0  0  0  0  0  0  0
   -2.9800    0.0130   -0.9330 C   0  0  0  0  0  0  0  0  0  0  0  0
   -2.0840   -1.0880   -1.0660 C   0  0  0  0  0  0  0  0  0  0  0  0
   -2.3100   -2.1350   -1.9000 C   0  0  0  0  0  0  0  0  0  0  0  0
   -1.2460   -3.1750   -1.8770 C   0  0  0  0  0  0  0  0  0  0  0  0
   -0.9240   -3.5680   -0.4330 C   0  0  2  0  0  0  0  0  0  0  0  0
   -2.2110   -4.0840    0.1700 C   0  0  0  0  0  0  0  0  0  0  0  0
   -0.4400   -2.3550    0.3580 C   0  0  0  0  0  0  0  0  0  0  0  0
   -0.7780   -1.1070   -0.4210 C   0  0  0  0  0  0  0  0  0  0  0  0
    0.1020   -0.1280   -0.5930 C   0  0  0  0  0  0  0  0  0  0  0  0
   -0.0370    0.9670   -1.3440 N   0  0  0  0  0  0  0  0  0  0  0  0
    1.0380    1.7540   -1.2640 C   0  0  0  0  0  0  0  0  0  0  0  0
    1.3260    2.9900   -1.8770 N   0  0  0  0  0  0  0  0  0  0  0  0
    0.3770    3.6160   -2.7640 C   0  0  0  0  0  0  0  0  0  0  0  0
    1.8920    1.0730   -0.3940 C   0  0  0  0  0  0  0  0  0  0  0  0
    3.0850    1.0930    0.2250 N   0  0  0  0  0  0  0  0  0  0  0  0
    3.2530    0.0040    0.9900 C   0  0  0  0  0  0  0  0  0  0  0  0
    4.3930   -0.3630    1.8220 C   0  0  0  0  0  0  0  0  0  0  0  0
    4.4270   -1.5260    2.5600 C   0  0  0  0  0  0  0  0  0  0  0  0
    5.5380   -1.8460    3.3470 C   0  0  0  0  0  0  0  0  0  0  0  0
    6.6040   -1.0220    3.4020 N   0  0  0  0  0  0  0  0  0  0  0  0
    6.5870    0.1170    2.6880 C   0  0  0  0  0  0  0  0  0  0  0  0
    5.4960    0.4610    1.8970 C   0  0  0  0  0  0  0  0  0  0  0  0
    2.1320   -0.7150    0.8420 N   0  0  0  0  0  0  0  0  0  0  0  0
    1.3010   -0.0800    0.0080 N   0  0  0  0  0  0  0  0  0  0  0  0
  1  2  1  0
  2  3  2  3
  3  4  1  0
  4  5  1  0
  4  6  2  3
  6  7  1  0
  7  8  2  0
  7 13  1  0
  8  9  1  0
  9 10  1  0
 10 11  1  1
 10 12  1  0
 12 13  1  0
 13 14  2  3
 14 15  1  0
 14 29  1  0
 15 16  2  0
 16 17  1  0
 16 19  1  0
 17 18  1  0
 19 20  2  0
 19 29  1  0
 20 21  1  0
 21 22  1  0
 21 28  2  0
 22 23  2  0
 22 27  1  0
 23 24  1  0
 24 25  2  0
 25 26  1  0
 26 27  2  0
 28 29  1  0
M  END
