
     RDKit          3D

 29 33  0  0  0  0  0  0  0  0999 V2000
    5.4760   -1.6120   -2.4540 Cl  0  0  0  0  0  0  0  0  0  0  0  0
    4.0460   -0.7210   -3.0050 C   0  0  0  0  0  0  0  0  0  0  0  0
    3.6180    0.3430   -2.3470 C   0  0  0  0  0  0  0  0  0  0  0  0
    4.3140    0.7650   -1.1950 N   0  0  0  0  0  0  0  0  0  0  0  0
    5.7230    1.0570   -1.2270 C   0  0  0  0  0  0  0  0  0  0  0  0
    6.3760    1.4420   -0.1480 C   0  0  0  0  0  0  0  0  0  0  0  0
    5.6550    1.5670    1.0680 N   0  0  0  0  0  0  0  0  0  0  0  0
    4.2430    1.2850    1.1450 C   0  0  0  0  0  0  0  0  0  0  0  0
    3.5280    1.4030    2.3090 C   0  0  0  0  0  0  0  0  0  0  0  0
    2.1530    1.1150    2.3100 C   0  0  0  0  0  0  0  0  0  0  0  0
    1.4680    0.7170    1.1960 C   0  0  0  0  0  0  0  0  0  0  0  0
    0.0310    0.4440    1.1750 C   0  0  2  0  0  0  0  0  0  0  0  0
   -0.5800    0.3140    2.5420 C   0  0  0  0  0  0  0  0  0  0  0  0
   -0.2730   -1.1170    2.8430 C   0  0  0  0  0  0  0  0  0  0  0  0
   -0.1320   -1.7460    1.7330 N   0  0  0  0  0  0  0  0  0  0  0  0
   -0.3140   -0.8720    0.6200 N   0  0  0  0  0  0  0  0  0  0  0  0
   -0.7240   -1.2500   -0.6770 C   0  0  0  0  0  0  0  0  0  0  0  0
    0.1460   -1.7840   -1.5530 N   0  0  0  0  0  0  0  0  0  0  0  0
   -0.4580   -2.0600   -2.7060 C   0  0  0  0  0  0  0  0  0  0  0  0
   -1.7520   -1.6880   -2.5540 C   0  0  0  0  0  0  0  0  0  0  0  0
   -1.9120   -1.1830   -1.2850 N   0  0  0  0  0  0  0  0  0  0  0  0
   -3.1530   -0.7000   -0.7890 C   0  0  1  0  0  0  0  0  0  0  0  0
   -3.6960   -1.4260    0.4210 C   0  0  0  0  0  0  0  0  0  0  0  0
   -5.2180   -1.1940    0.4370 C   0  0  0  0  0  0  0  0  0  0  0  0
   -5.4480    0.2790    0.5380 C   0  0  0  0  0  0  0  0  0  0  0  0
   -4.7330    1.1060   -0.4820 C   0  0  0  0  0  0  0  0  0  0  0  0
   -3.2240    0.7690   -0.4850 C   0  0  0  0  0  0  0  0  0  0  0  0
    2.2120    0.6020    0.0220 C   0  0  0  0  0  0  0  0  0  0  0  0
    3.5740    0.8840    0.0130 C   0  0  0  0  0  0  0  0  0  0  0  0
  1  2  1  0
  2  3  2  3
  3  4  1  0
  4  5  1  0
  4 29  1  0
  5  6  2  0
  6  7  1  0
  7  8  1  0
  8  9  2  0
  8 29  1  0
  9 10  1  0
 10 11  2  0
 12 11  1  1
 11 28  1  0
 12 13  1  0
 12 16  1  0
 13 14  1  0
 14 15  2  0
 15 16  1  0
 16 17  1  0
 17 18  2  0
 17 21  1  0
 18 19  1  0
 19 20  2  0
 20 21  1  0
 22 21  1  1
 22 23  1  0
 22 27  1  0
 23 24  1  0
 24 25  1  0
 25 26  1  0
 26 27  1  0
 28 29  2  0
M  END
