
     RDKit          3D

 12 12  0  0  0  0  0  0  0  0999 V2000
    3.4920    0.6450    0.0460 C   0  0  0  0  0  0  0  0  0  0  0  0
    2.2130    0.0150   -0.3940 C   0  0  0  0  0  0  0  0  0  0  0  0
    1.1720    0.1510    0.4990 O   0  0  0  0  0  0  0  0  0  0  0  0
    0.0590   -0.4620   -0.0100 C   0  0  1  0  0  0  0  0  0  0  0  0
   -0.5550   -1.4850    0.9040 C   0  0  1  0  0  0  0  0  0  0  0  0
    0.2510   -1.7830    1.9970 O   0  0  0  0  0  0  0  0  0  0  0  0
   -1.7890   -1.0060    1.3140 O   0  0  0  0  0  0  0  0  0  0  0  0
   -1.7980    0.3620    1.1420 C   0  0  0  0  0  0  0  0  0  0  0  0
   -1.0960    0.5010   -0.2070 C   0  0  1  0  0  0  0  0  0  0  0  0
   -0.6910    1.7820   -0.4690 O   0  0  0  0  0  0  0  0  0  0  0  0
   -1.9910   -0.0820   -1.2560 C   0  0  0  0  0  0  0  0  0  0  0  0
   -3.1270    0.7190   -1.3420 O   0  0  0  0  0  0  0  0  0  0  0  0
  1  2  1  0
  2  3  1  0
  4  3  1  1
  4  5  1  0
  4  9  1  0
  5  6  1  1
  5  7  1  0
  7  8  1  0
  8  9  1  0
  9 10  1  6
  9 11  1  0
 11 12  1  0
M  END
