
     RDKit          3D

 12 12  0  0  0  0  0  0  0  0999 V2000
    1.0740    0.5620    2.0400 C   0  0  0  0  0  0  0  0  0  0  0  0
    0.4350    0.2230    0.7250 C   0  0  2  0  0  0  0  0  0  0  0  0
   -0.6740   -0.5890    0.9920 O   0  0  0  0  0  0  0  0  0  0  0  0
   -1.4580   -0.7630   -0.1300 C   0  0  1  0  0  0  0  0  0  0  0  0
   -2.2350   -1.9220    0.0940 O   0  0  0  0  0  0  0  0  0  0  0  0
   -2.4090    0.4150   -0.2180 C   0  0  0  0  0  0  0  0  0  0  0  0
   -3.2450    0.3300   -1.3220 O   0  0  0  0  0  0  0  0  0  0  0  0
   -0.6150   -0.9130   -1.3550 C   0  0  0  0  0  0  0  0  0  0  0  0
    0.6780   -1.3030   -1.1200 O   0  0  0  0  0  0  0  0  0  0  0  0
    1.3490   -0.5630   -0.1850 C   0  0  1  0  0  0  0  0  0  0  0  0
    2.3900    0.3480   -0.8280 C   0  0  0  0  0  0  0  0  0  0  0  0
    3.0360    1.0740    0.1810 O   0  0  0  0  0  0  0  0  0  0  0  0
  2  1  1  1
  2  3  1  0
  2 10  1  0
  3  4  1  0
  4  5  1  1
  4  6  1  0
  4  8  1  0
  6  7  1  0
  8  9  1  0
  9 10  1  0
 10 11  1  6
 11 12  1  0
M  END
