
     RDKit          3D

 12 12  0  0  0  0  0  0  0  0999 V2000
    3.5390   -0.1400    0.0680 C   0  0  0  0  0  0  0  0  0  0  0  0
    2.2770   -0.5220    0.4850 O   0  0  0  0  0  0  0  0  0  0  0  0
    1.3550    0.5000    0.4880 C   0  0  2  0  0  0  0  0  0  0  0  0
    0.7920    0.6670    1.7680 O   0  0  0  0  0  0  0  0  0  0  0  0
    0.1950    0.0740   -0.4120 C   0  0  2  0  0  0  0  0  0  0  0  0
   -0.8790    1.0950   -0.4990 C   0  0  0  0  0  0  0  0  0  0  0  0
   -2.2340    0.6620   -0.1020 C   0  0  1  0  0  0  0  0  0  0  0  0
   -3.1930    1.3840   -0.8530 O   0  0  0  0  0  0  0  0  0  0  0  0
   -2.5400   -0.6500   -0.2170 O   0  0  0  0  0  0  0  0  0  0  0  0
   -1.6100   -1.4600   -0.7920 C   0  0  0  0  0  0  0  0  0  0  0  0
   -0.3150   -1.2910    0.0050 C   0  0  2  0  0  0  0  0  0  0  0  0
   -0.6390   -1.3070    1.3650 O   0  0  0  0  0  0  0  0  0  0  0  0
  1  2  1  0
  2  3  1  0
  3  4  1  1
  3  5  1  0
  5  6  1  1
  5 11  1  0
  6  7  1  0
  7  8  1  6
  7  9  1  0
  9 10  1  0
 10 11  1  0
 11 12  1  1
M  END
