
     RDKit          3D

 12 12  0  0  0  0  0  0  0  0999 V2000
    3.2570   -0.8420   -0.5360 C   0  0  0  0  0  0  0  0  0  0  0  0
    2.1940   -0.2820   -1.2340 O   0  0  0  0  0  0  0  0  0  0  0  0
    1.0760   -0.2540   -0.4070 C   0  0  2  0  0  0  0  0  0  0  0  0
    0.1070   -1.0170   -0.9580 O   0  0  0  0  0  0  0  0  0  0  0  0
   -1.1770   -0.8260   -0.6420 C   0  0  1  0  0  0  0  0  0  0  0  0
   -1.6370   -1.7220    0.4950 C   0  0  0  0  0  0  0  0  0  0  0  0
   -1.5910    0.5810   -0.3140 C   0  0  1  0  0  0  0  0  0  0  0  0
   -2.8720    0.6310    0.1740 O   0  0  0  0  0  0  0  0  0  0  0  0
   -0.5750    1.1870    0.6250 C   0  0  1  0  0  0  0  0  0  0  0  0
   -0.3570    0.3400    1.7190 O   0  0  0  0  0  0  0  0  0  0  0  0
    0.7310    1.1860   -0.1680 C   0  0  2  0  0  0  0  0  0  0  0  0
    0.6070    1.8780   -1.3660 O   0  0  0  0  0  0  0  0  0  0  0  0
  1  2  1  0
  3  2  1  6
  3  4  1  0
  3 11  1  0
  4  5  1  0
  5  6  1  1
  5  7  1  0
  7  8  1  1
  7  9  1  0
  9 10  1  1
  9 11  1  0
 11 12  1  6
M  END
