
     RDKit          3D

 12 12  0  0  0  0  0  0  0  0999 V2000
   -0.8920   -2.0970    0.6220 C   0  0  0  0  0  0  0  0  0  0  0  0
   -0.4210   -0.6430    0.7150 C   0  0  1  0  0  0  0  0  0  0  0  0
    0.9340   -0.6490    0.6950 O   0  0  0  0  0  0  0  0  0  0  0  0
    1.5790    0.4780    0.3580 C   0  0  1  0  0  0  0  0  0  0  0  0
    2.9730    0.0640   -0.1460 C   0  0  0  0  0  0  0  0  0  0  0  0
    3.6780   -0.6040    0.8290 O   0  0  0  0  0  0  0  0  0  0  0  0
    1.0520    1.3130   -0.5500 O   0  0  0  0  0  0  0  0  0  0  0  0
   -0.2570    1.3280   -0.8110 C   0  0  0  0  0  0  0  0  0  0  0  0
   -1.0560    0.1360   -0.3840 C   0  0  1  0  0  0  0  0  0  0  0  0
   -1.2760   -0.7220   -1.4650 O   0  0  0  0  0  0  0  0  0  0  0  0
   -2.4300    0.6270    0.0780 C   0  0  0  0  0  0  0  0  0  0  0  0
   -3.0430    1.3000   -0.9880 O   0  0  0  0  0  0  0  0  0  0  0  0
  2  1  1  6
  2  3  1  0
  2  9  1  0
  3  4  1  0
  4  5  1  6
  4  7  1  0
  5  6  1  0
  7  8  1  0
  8  9  1  0
  9 10  1  6
  9 11  1  0
 11 12  1  0
M  END
