
     RDKit          3D

 12 12  0  0  0  0  0  0  0  0999 V2000
    2.8210    0.5170    0.3550 C   0  0  0  0  0  0  0  0  0  0  0  0
    1.9540   -0.5510    0.3090 O   0  0  0  0  0  0  0  0  0  0  0  0
    1.2360   -0.6420   -0.8770 C   0  0  1  0  0  0  0  0  0  0  0  0
    1.5070   -1.8430   -1.5470 O   0  0  0  0  0  0  0  0  0  0  0  0
   -0.2310   -0.6300   -0.5420 C   0  0  1  0  0  0  0  0  0  0  0  0
   -0.6280   -1.7780    0.3480 C   0  0  0  0  0  0  0  0  0  0  0  0
   -1.0710   -1.2420    1.5530 O   0  0  0  0  0  0  0  0  0  0  0  0
   -1.7400   -0.0700    1.1440 C   0  0  1  0  0  0  0  0  0  0  0  0
   -1.9340    0.7560    2.2300 O   0  0  0  0  0  0  0  0  0  0  0  0
   -0.6770    0.5530    0.2540 C   0  0  2  0  0  0  0  0  0  0  0  0
   -1.2550    1.6540   -0.6040 C   0  0  0  0  0  0  0  0  0  0  0  0
   -2.3650    1.1990   -1.3140 O   0  0  0  0  0  0  0  0  0  0  0  0
  1  2  1  0
  2  3  1  0
  3  4  1  1
  3  5  1  0
  5  6  1  1
  5 10  1  0
  6  7  1  0
  7  8  1  0
  8  9  1  1
  8 10  1  0
 10 11  1  6
 11 12  1  0
M  END
