
     RDKit          3D

 12 12  0  0  0  0  0  0  0  0999 V2000
    2.8720   -0.5110   -0.8470 C   0  0  0  0  0  0  0  0  0  0  0  0
    1.6610    0.0840   -0.5530 O   0  0  0  0  0  0  0  0  0  0  0  0
    1.2370   -0.3230    0.6820 C   0  0  1  0  0  0  0  0  0  0  0  0
    1.1490    0.7780    1.5660 O   0  0  0  0  0  0  0  0  0  0  0  0
    0.4780    1.7650    0.8470 C   0  0  0  0  0  0  0  0  0  0  0  0
   -0.9140    1.4100    0.4790 C   0  0  1  0  0  0  0  0  0  0  0  0
   -1.1770    1.9860   -0.7870 O   0  0  0  0  0  0  0  0  0  0  0  0
   -1.2530   -0.0270    0.5090 C   0  0  1  0  0  0  0  0  0  0  0  0
   -2.0230   -0.3530   -0.7790 C   0  0  0  0  0  0  0  0  0  0  0  0
   -2.3670   -1.7030   -0.7990 O   0  0  0  0  0  0  0  0  0  0  0  0
   -0.1220   -0.9690    0.6810 C   0  0  2  0  0  0  0  0  0  0  0  0
   -0.2180   -1.7000    1.8890 O   0  0  0  0  0  0  0  0  0  0  0  0
  1  2  1  0
  3  2  1  6
  3  4  1  0
  3 11  1  0
  4  5  1  0
  5  6  1  0
  6  7  1  6
  6  8  1  0
  8  9  1  6
  8 11  1  0
  9 10  1  0
 11 12  1  1
M  END
