
     RDKit          3D

 16 16  0  0  0  0  0  0  0  0999 V2000
   -3.0660    2.4380   -0.5830 C   0  0  0  0  0  0  0  0  0  0  0  0
   -1.6450    2.1480   -1.3640 P   0  0  0  0  0  0  0  0  0  0  0  0
   -0.3220    1.0950   -0.5850 C   0  0  1  0  0  0  0  0  0  0  0  0
   -0.6810    0.8420    0.7230 O   0  0  0  0  0  0  0  0  0  0  0  0
   -0.2430   -0.2260   -1.3530 C   0  0  1  0  0  0  0  0  0  0  0  0
   -1.5220   -0.9010   -1.3390 N   0  0  0  0  0  0  0  0  0  0  0  0
    0.0860    0.0090   -2.6870 O   0  0  0  0  0  0  0  0  0  0  0  0
    0.1320   -1.1850   -3.2710 F   0  0  0  0  0  0  0  0  0  0  0  0
    0.7750   -1.0190   -0.8310 O   0  0  0  0  0  0  0  0  0  0  0  0
    0.5860   -1.3050    0.4350 O   0  0  0  0  0  0  0  0  0  0  0  0
    1.8170   -1.6480    0.9290 N   0  0  0  0  0  0  0  0  0  0  0  0
    1.7030   -2.2540    2.1320 O   0  0  0  0  0  0  0  0  0  0  0  0
    2.6020   -1.7240    2.9320 O   0  0  0  0  0  0  0  0  0  0  0  0
    2.1400   -0.6850    3.5980 O   0  0  0  0  0  0  0  0  0  0  0  0
    2.1940    0.4140    2.8460 O   0  0  0  0  0  0  0  0  0  0  0  0
    2.6600   -0.0670    1.2340 P   0  0  0  0  0  0  0  0  0  0  0  0
  1  2  2  0
  2  3  1  0
  3  4  1  1
  3  5  1  0
  5  6  1  6
  5  7  1  0
  5  9  1  0
  7  8  1  0
  9 10  1  0
 10 11  1  0
 11 12  1  0
 11 16  1  0
 12 13  1  0
 13 14  1  0
 14 15  1  0
 15 16  1  0
M  END
