
     RDKit          3D

 16 16  0  0  0  0  0  0  0  0999 V2000
   -2.7910    0.7190   -0.8900 C   0  0  0  0  0  0  0  0  0  0  0  0
   -1.4420    0.6920   -0.3030 N   0  0  0  0  0  0  0  0  0  0  0  0
   -1.4900    0.5230    1.1210 C   0  0  0  0  0  0  0  0  0  0  0  0
   -0.5870   -0.1390   -0.9670 N   0  0  0  0  0  0  0  0  0  0  0  0
   -0.7720   -1.4320   -0.8330 O   0  0  0  0  0  0  0  0  0  0  0  0
   -0.3640   -1.9600    0.2820 O   0  0  0  0  0  0  0  0  0  0  0  0
   -0.6690   -3.2480    0.2590 O   0  0  0  0  0  0  0  0  0  0  0  0
    1.0290    0.4300   -1.2510 P   0  0  0  0  0  0  0  0  0  0  0  0
    1.1510    2.1400   -0.8470 O   0  0  0  0  0  0  0  0  0  0  0  0
    2.1230    2.1560    0.0750 O   0  0  0  0  0  0  0  0  0  0  0  0
    1.7730    1.4720    1.1110 O   0  0  0  0  0  0  0  0  0  0  0  0
    2.1220    0.2390    1.1330 O   0  0  0  0  0  0  0  0  0  0  0  0
    2.2990   -0.3510   -0.1040 C   0  0  1  0  0  0  0  0  0  0  0  0
    2.1910   -1.7060   -0.0880 F   0  0  0  0  0  0  0  0  0  0  0  0
    4.0060    0.1760   -0.6930 P   0  0  0  0  0  0  0  0  0  0  0  0
    5.1330    0.2690    0.4000 O   0  0  0  0  0  0  0  0  0  0  0  0
  1  2  1  0
  2  3  1  0
  2  4  1  0
  4  5  1  0
  4  8  1  0
  5  6  1  0
  6  7  1  0
  8  9  1  0
  8 13  1  0
  9 10  1  0
 10 11  1  0
 11 12  1  0
 12 13  1  0
 13 14  1  1
 13 15  1  0
 15 16  2  0
M  END
