
     RDKit          3D

 16 17  0  0  0  0  0  0  0  0999 V2000
   -1.6100    2.3270    0.0550 O   0  0  0  0  0  0  0  0  0  0  0  0
   -0.5540    1.7410    0.5300 O   0  0  0  0  0  0  0  0  0  0  0  0
    0.0050    0.9210   -0.4410 C   0  0  2  0  0  0  0  0  0  0  0  0
    0.3920    1.5970   -1.5820 O   0  0  0  0  0  0  0  0  0  0  0  0
   -0.8660   -0.1690   -0.8290 N   0  0  0  0  0  0  0  0  0  0  0  0
   -0.0020   -1.3080   -1.0040 C   0  0  1  0  0  0  0  0  0  0  0  0
   -0.1490   -1.7800   -2.3080 F   0  0  0  0  0  0  0  0  0  0  0  0
    1.3150   -0.8460   -0.8990 O   0  0  0  0  0  0  0  0  0  0  0  0
    1.2110    0.1650    0.0810 C   0  0  1  0  0  0  0  0  0  0  0  0
    2.3470    0.9370    0.1650 O   0  0  0  0  0  0  0  0  0  0  0  0
    2.6990    1.4180   -0.9930 O   0  0  0  0  0  0  0  0  0  0  0  0
    0.8230   -0.7020    1.6770 P   0  0  0  0  0  0  0  0  0  0  0  0
    1.2280    0.2410    3.0510 O   0  0  0  0  0  0  0  0  0  0  0  0
   -1.3640   -1.1190    1.6060 P   0  0  0  0  0  0  0  0  0  0  0  0
   -1.9170   -0.3800    0.0400 N   0  0  0  0  0  0  0  0  0  0  0  0
   -2.8980   -1.0840   -0.5230 O   0  0  0  0  0  0  0  0  0  0  0  0
  1  2  1  0
  2  3  1  0
  3  4  1  6
  3  5  1  0
  3  9  1  0
  5  6  1  0
  5 15  1  0
  6  7  1  6
  6  8  1  0
  8  9  1  0
  9 10  1  1
  9 12  1  0
 10 11  1  0
 12 13  1  0
 12 14  1  0
 14 15  1  0
 15 16  1  0
M  END
