
     RDKit          3D

 10 10  0  0  0  0  0  0  0  0999 V2000
    3.4730    0.4650   -0.0340 C   0  0  0  0  0  0  0  0  0  0  0  0
    2.2080   -0.3290    0.1900 C   0  0  0  0  0  0  0  0  0  0  0  0
    0.9700    0.5220   -0.1210 C   0  0  0  0  0  0  0  0  0  0  0  0
   -0.2220   -0.3490    0.1310 C   0  0  1  0  0  0  0  0  0  0  0  0
   -0.1190   -1.5470   -0.7920 C   0  0  0  0  0  0  0  0  0  0  0  0
   -0.1450   -0.8080    1.5830 C   0  0  0  0  0  0  0  0  0  0  0  0
   -1.5340    0.3210   -0.1530 C   0  0  2  0  0  0  0  0  0  0  0  0
   -2.6890   -0.5230    0.0910 N   0  0  0  0  0  0  0  0  0  0  0  0
   -1.6100    1.2910   -1.2690 C   0  0  0  0  0  0  0  0  0  0  0  0
   -1.7390    1.7620    0.1320 C   0  0  0  0  0  0  0  0  0  0  0  0
  1  2  1  0
  2  3  1  0
  3  4  1  0
  4  5  1  6
  4  6  1  0
  4  7  1  0
  7  8  1  6
  7  9  1  0
  7 10  1  0
  9 10  1  0
M  CHG  1   8   1
M  END
