
     RDKit          3D

 10 10  0  0  0  0  0  0  0  0999 V2000
   -4.2430   -0.0450    0.5100 N   0  0  0  0  0  0  0  0  0  0  0  0
   -3.3820    0.9240   -0.1210 C   0  0  0  0  0  0  0  0  0  0  0  0
   -2.0610    0.3140   -0.5430 C   0  0  0  0  0  0  0  0  0  0  0  0
   -1.3070   -0.2500    0.6420 C   0  0  0  0  0  0  0  0  0  0  0  0
   -0.0020   -0.8580    0.2620 C   0  0  0  0  0  0  0  0  0  0  0  0
    0.9470    0.1140   -0.3940 C   0  0  0  0  0  0  0  0  0  0  0  0
    2.1940   -0.6120   -0.7180 C   0  0  0  0  0  0  0  0  0  0  0  0
    3.3400   -0.2390   -0.2110 C   0  0  0  0  0  0  0  0  0  0  0  0
    4.8460   -0.3810   -0.0340 C   0  0  0  0  0  0  0  0  0  0  0  0
    4.1190    0.7210    0.6800 C   0  0  0  0  0  0  0  0  0  0  0  0
  1  2  1  0
  2  3  1  0
  3  4  1  0
  4  5  1  0
  5  6  1  0
  6  7  1  0
  7  8  2  3
  8  9  1  0
  8 10  1  0
  9 10  1  0
M  CHG  1   1   1
M  END
