
     RDKit          3D

 10 10  0  0  0  0  0  0  0  0999 V2000
    4.2290   -0.1090   -0.2180 C   0  0  0  0  0  0  0  0  0  0  0  0
    3.0330   -0.6400   -0.2650 C   0  0  0  0  0  0  0  0  0  0  0  0
    1.9750   -0.1320    0.6060 C   0  0  0  0  0  0  0  0  0  0  0  0
    0.7760    0.4070   -0.1110 C   0  0  1  0  0  0  0  0  0  0  0  0
    0.0790   -0.5780   -0.9780 C   0  0  0  0  0  0  0  0  0  0  0  0
   -1.2540    0.0050   -1.4030 C   0  0  0  0  0  0  0  0  0  0  0  0
   -2.1610    0.3060   -0.2570 C   0  0  1  0  0  0  0  0  0  0  0  0
   -3.3890   -0.4590   -0.2740 N   0  0  0  0  0  0  0  0  0  0  0  0
   -1.4170    0.1570    1.0510 C   0  0  0  0  0  0  0  0  0  0  0  0
   -0.1540    1.0020    0.9310 C   0  0  0  0  0  0  0  0  0  0  0  0
  1  2  2  0
  2  3  1  0
  4  3  1  1
  4  5  1  0
  4 10  1  0
  5  6  1  0
  6  7  1  0
  7  8  1  1
  7  9  1  0
  9 10  1  0
M  CHG  1   8   1
M  END
