
     RDKit          3D

 11 12  0  0  0  0  0  0  0  0999 V2000
   -3.9610    0.6480   -0.0120 O   0  0  0  0  0  0  0  0  0  0  0  0
   -2.6000    0.3650    0.1260 C   0  0  0  0  0  0  0  0  0  0  0  0
   -1.7460    1.3680   -0.0050 C   0  0  0  0  0  0  0  0  0  0  0  0
   -0.2870    1.3570    0.0890 C   0  0  0  0  0  0  0  0  0  0  0  0
    0.5820    0.3600    0.1460 C   0  0  0  0  0  0  0  0  0  0  0  0
    1.9970    0.7960    0.2370 C   0  0  1  0  0  0  0  0  0  0  0  0
    3.0660   -0.1900    0.5810 C   0  0  0  0  0  0  0  0  0  0  0  0
    2.9860    0.4180   -0.7930 C   0  0  0  0  0  0  0  0  0  0  0  0
    0.2730   -1.0830    0.1270 C   0  0  0  0  0  0  0  0  0  0  0  0
   -1.0610   -1.3860   -0.5050 C   0  0  0  0  0  0  0  0  0  0  0  0
   -2.2170   -1.0400    0.4110 C   0  0  0  0  0  0  0  0  0  0  0  0
  1  2  1  0
  2  3  2  0
  2 11  1  0
  3  4  1  0
  4  5  2  0
  6  5  1  6
  5  9  1  0
  6  7  1  0
  6  8  1  0
  7  8  1  0
  9 10  1  0
 10 11  1  0
M  END
