
     RDKit          3D

  8  7  0  0  0  0  0  0  0  0999 V2000
   -2.4580    0.9660    0.7380 O   0  0  0  0  0  0  0  0  0  0  0  0
   -1.8930    0.0690    0.0300 C   0  0  0  0  0  0  0  0  0  0  0  0
   -2.6480   -1.0800   -0.2310 O   0  0  0  0  0  0  0  0  0  0  0  0
   -0.5100    0.2210   -0.4960 C   0  0  0  0  0  0  0  0  0  0  0  0
    0.4670   -0.1690    0.6260 C   0  0  0  0  0  0  0  0  0  0  0  0
    1.8220    0.0040    0.0470 C   0  0  0  0  0  0  0  0  0  0  0  0
    2.3080   -0.8540   -0.7630 O   0  0  0  0  0  0  0  0  0  0  0  0
    2.5890    1.1080    0.3860 O   0  0  0  0  0  0  0  0  0  0  0  0
  1  2  2  0
  2  3  1  0
  2  4  1  0
  4  5  1  0
  5  6  1  0
  6  7  2  0
  6  8  1  0
M  END
