
     RDKit          3D

 29 32  0  0  0  0  0  0  0  0999 V2000
    7.1440   -1.2050   -0.2950 C   0  0  0  0  0  0  0  0  0  0  0  0
    6.2650   -0.2450   -0.0920 C   0  0  0  0  0  0  0  0  0  0  0  0
    5.0080   -0.2760   -0.5800 O   0  0  0  0  0  0  0  0  0  0  0  0
    4.3560    0.7740   -0.2420 C   0  0  0  0  0  0  0  0  0  0  0  0
    2.9390    1.0500   -0.6200 C   0  0  0  0  0  0  0  0  0  0  0  0
    2.3930   -0.0730   -1.3960 N   0  0  0  0  0  0  0  0  0  0  0  0
    1.0320    0.2470   -1.7450 C   0  0  0  0  0  0  0  0  0  0  0  0
    0.0890    0.0790   -0.5550 C   0  0  0  0  0  0  0  0  0  0  0  0
    0.1130   -1.3240   -0.2050 N   0  0  0  0  0  0  0  0  0  0  0  0
   -0.8990   -1.9110    0.5980 C   0  0  0  0  0  0  0  0  0  0  0  0
   -0.8940   -3.1280    0.9120 O   0  0  0  0  0  0  0  0  0  0  0  0
   -2.0170   -1.1190    1.1070 C   0  0  0  0  0  0  0  0  0  0  0  0
   -2.0840   -0.4320    2.3000 C   0  0  0  0  0  0  0  0  0  0  0  0
   -3.2970    0.1600    2.3660 N   0  0  0  0  0  0  0  0  0  0  0  0
   -4.0220   -0.1150    1.2660 C   0  0  0  0  0  0  0  0  0  0  0  0
   -5.3100    0.2500    0.8580 C   0  0  0  0  0  0  0  0  0  0  0  0
   -5.8230   -0.1790   -0.3480 C   0  0  0  0  0  0  0  0  0  0  0  0
   -7.1230    0.1710   -0.7980 N   0  0  0  0  0  0  0  0  0  0  0  0
   -7.9880    1.0110   -0.0310 C   0  0  0  0  0  0  0  0  0  0  0  0
   -7.4220    2.3940    0.2210 C   0  0  0  0  0  0  0  0  0  0  0  0
   -4.9950   -0.9800   -1.1140 C   0  0  0  0  0  0  0  0  0  0  0  0
   -3.7250   -1.3500   -0.7300 C   0  0  0  0  0  0  0  0  0  0  0  0
   -3.2400   -0.9110    0.4680 C   0  0  0  0  0  0  0  0  0  0  0  0
    1.2070   -2.1280   -0.7000 C   0  0  0  0  0  0  0  0  0  0  0  0
    2.4630   -1.2850   -0.6380 C   0  0  0  0  0  0  0  0  0  0  0  0
    5.1500    1.5350    0.4780 N   0  0  0  0  0  0  0  0  0  0  0  0
    6.3670    0.9210    0.5930 C   0  0  0  0  0  0  0  0  0  0  0  0
    7.3860    1.4120    1.2460 C   0  0  0  0  0  0  0  0  0  0  0  0
    8.7250    0.8690    1.4440 C   0  0  0  0  0  0  0  0  0  0  0  0
  1  2  2  0
  2  3  1  0
  2 27  1  0
  3  4  1  0
  4  5  1  0
  4 26  2  0
  5  6  1  0
  6  7  1  0
  6 25  1  0
  7  8  1  0
  8  9  1  0
  9 10  1  0
  9 24  1  0
 10 11  2  0
 10 12  1  0
 12 13  2  0
 12 23  1  0
 13 14  1  0
 14 15  1  0
 15 16  2  0
 15 23  1  0
 16 17  1  0
 17 18  1  0
 17 21  2  0
 18 19  1  0
 19 20  1  0
 21 22  1  0
 22 23  2  0
 24 25  1  0
 26 27  1  0
 27 28  2  3
 28 29  1  0
M  END
