
     RDKit          3D

 31 34  0  0  0  0  0  0  0  0999 V2000
    7.0010    1.1490   -2.0480 C   0  0  0  0  0  0  0  0  0  0  0  0
    5.7700    1.7320   -1.6590 O   0  0  0  0  0  0  0  0  0  0  0  0
    4.8300    1.0040   -0.9200 C   0  0  0  0  0  0  0  0  0  0  0  0
    5.0730   -0.2930   -0.5500 C   0  0  0  0  0  0  0  0  0  0  0  0
    4.1440   -1.0010    0.1740 C   0  0  0  0  0  0  0  0  0  0  0  0
    2.9220   -0.4230    0.5570 C   0  0  0  0  0  0  0  0  0  0  0  0
    2.6600    0.9160    0.1850 C   0  0  0  0  0  0  0  0  0  0  0  0
    3.6530    1.5880   -0.5580 C   0  0  0  0  0  0  0  0  0  0  0  0
    1.5710    1.5230    0.5080 O   0  0  0  0  0  0  0  0  0  0  0  0
    0.2290    1.7160    0.6340 C   0  0  0  0  0  0  0  0  0  0  0  0
   -0.5190    2.4830   -0.2360 C   0  0  0  0  0  0  0  0  0  0  0  0
   -1.9040    2.6780   -0.0960 C   0  0  0  0  0  0  0  0  0  0  0  0
   -2.6020    2.0980    0.9410 C   0  0  0  0  0  0  0  0  0  0  0  0
   -1.8750    1.3260    1.8220 C   0  0  0  0  0  0  0  0  0  0  0  0
   -0.4780    1.1490    1.6540 C   0  0  0  0  0  0  0  0  0  0  0  0
   -4.0900    2.3130    1.0770 C   0  0  0  0  0  0  0  0  0  0  0  0
   -4.9090    1.4690    0.0830 C   0  0  0  0  0  0  0  0  0  0  0  0
   -4.6920    0.0330    0.2990 C   0  0  0  0  0  0  0  0  0  0  0  0
   -4.1440   -0.7640   -0.6010 C   0  0  0  0  0  0  0  0  0  0  0  0
   -3.7030   -0.2500   -1.9190 C   0  0  0  0  0  0  0  0  0  0  0  0
   -2.7320   -1.1870   -2.4800 N   0  0  0  0  0  0  0  0  0  0  0  0
   -1.4210   -0.7700   -1.9960 C   0  0  0  0  0  0  0  0  0  0  0  0
   -1.1270   -1.5380   -0.7010 C   0  0  0  0  0  0  0  0  0  0  0  0
    0.3580   -1.5200   -0.5370 C   0  0  0  0  0  0  0  0  0  0  0  0
    0.7910   -1.7410    0.8370 N   0  0  0  0  0  0  0  0  0  0  0  0
    1.9960   -1.2790    1.3210 C   0  0  0  0  0  0  0  0  0  0  0  0
    2.3230   -1.6550    2.6390 C   0  0  0  0  0  0  0  0  0  0  0  0
    1.5380   -2.4270    3.4490 C   0  0  0  0  0  0  0  0  0  0  0  0
    0.3490   -2.8590    2.9260 C   0  0  0  0  0  0  0  0  0  0  0  0
    0.0050   -2.4970    1.6140 C   0  0  0  0  0  0  0  0  0  0  0  0
   -1.1110   -2.9650    1.2670 O   0  0  0  0  0  0  0  0  0  0  0  0
  1  2  1  0
  2  3  1  0
  3  4  2  0
  3  8  1  0
  4  5  1  0
  5  6  2  0
  6  7  1  0
  6 26  1  0
  7  8  2  0
  7  9  1  0
  9 10  1  0
 10 11  2  0
 10 15  1  0
 11 12  1  0
 12 13  2  0
 13 14  1  0
 13 16  1  0
 14 15  2  0
 16 17  1  0
 17 18  1  0
 18 19  2  0
 19 20  1  0
 20 21  1  0
 21 22  1  0
 22 23  1  0
 23 24  1  0
 24 25  1  0
 25 26  1  0
 25 30  1  0
 26 27  2  0
 27 28  1  0
 28 29  2  0
 29 30  1  0
 30 31  2  0
M  CHG  1  21   1
M  END
