
     RDKit          3D

 31 34  0  0  0  0  0  0  0  0999 V2000
   -2.7860    1.4630    3.8120 C   0  0  0  0  0  0  0  0  0  0  0  0
   -2.8760    0.7840    2.4260 C   0  0  0  0  0  0  0  0  0  0  0  0
   -4.0090    0.1340    2.2520 C   0  0  0  0  0  0  0  0  0  0  0  0
   -4.5920   -0.6250    1.2000 C   0  0  0  0  0  0  0  0  0  0  0  0
   -4.3560   -0.8440   -0.0650 C   0  0  0  0  0  0  0  0  0  0  0  0
   -3.3400   -0.3960   -0.9820 C   0  0  0  0  0  0  0  0  0  0  0  0
   -3.6070    0.7840   -1.8770 C   0  0  0  0  0  0  0  0  0  0  0  0
   -2.1490   -0.9780   -1.2010 C   0  0  0  0  0  0  0  0  0  0  0  0
   -1.6730   -2.2030   -0.5300 C   0  0  1  0  0  0  0  0  0  0  0  0
   -2.0280   -3.2610   -1.4070 O   0  0  0  0  0  0  0  0  0  0  0  0
   -0.2500   -2.2340   -0.1970 C   0  0  0  0  0  0  0  0  0  0  0  0
    0.5970   -2.4470   -1.0930 O   0  0  0  0  0  0  0  0  0  0  0  0
    0.2320   -2.0310    1.1310 N   0  0  0  0  0  0  0  0  0  0  0  0
   -0.2620   -0.9910    1.9920 C   0  0  0  0  0  0  0  0  0  0  0  0
   -0.6430    0.2630    1.3330 C   0  0  0  0  0  0  0  0  0  0  0  0
    0.3090    0.7560    0.3010 C   0  0  0  0  0  0  0  0  0  0  0  0
   -0.0180    1.7700   -0.5710 C   0  0  0  0  0  0  0  0  0  0  0  0
    0.9550    2.1540   -1.4840 C   0  0  0  0  0  0  0  0  0  0  0  0
    0.9410    3.0860   -2.4890 C   0  0  0  0  0  0  0  0  0  0  0  0
    2.1540    3.0400   -3.1220 C   0  0  0  0  0  0  0  0  0  0  0  0
    2.9810    2.0730   -2.5370 C   0  0  0  0  0  0  0  0  0  0  0  0
    2.2560    1.5110   -1.5130 C   0  0  0  0  0  0  0  0  0  0  0  0
    2.4770    0.5030   -0.5860 C   0  0  0  0  0  0  0  0  0  0  0  0
    3.7500   -0.2010   -0.5000 C   0  0  0  0  0  0  0  0  0  0  0  0
    4.9700    0.2810   -0.8660 C   0  0  0  0  0  0  0  0  0  0  0  0
    6.1510   -0.4630   -0.6600 C   0  0  0  0  0  0  0  0  0  0  0  0
    6.0760   -1.6940   -0.0790 C   0  0  0  0  0  0  0  0  0  0  0  0
    4.8470   -2.1680    0.2860 C   0  0  0  0  0  0  0  0  0  0  0  0
    3.7490   -1.4430    0.0780 N   0  0  0  0  0  0  0  0  0  0  0  0
    1.4920    0.1950    0.2510 O   0  0  0  0  0  0  0  0  0  0  0  0
   -1.7500    0.9630    1.5580 C   0  0  0  0  0  0  0  0  0  0  0  0
  1  2  1  0
  2  3  2  0
  2 31  1  0
  3  4  1  0
  4  5  2  0
  5  6  1  0
  6  7  1  0
  6  8  2  0
  8  9  1  0
  9 10  1  6
  9 11  1  0
 11 12  2  0
 11 13  1  0
 13 14  1  0
 14 15  1  0
 15 16  1  0
 15 31  2  0
 16 17  2  0
 16 30  1  0
 17 18  1  0
 18 19  2  0
 18 22  1  0
 19 20  1  0
 20 21  2  0
 21 22  1  0
 22 23  2  0
 23 24  1  0
 23 30  1  0
 24 25  2  0
 24 29  1  0
 25 26  1  0
 26 27  2  0
 27 28  1  0
 28 29  2  0
M  CHG  1  29   1
M  END
