
     RDKit          3D

 31 35  0  0  0  0  0  0  0  0999 V2000
    4.3060   -2.0050   -2.7150 C   0  0  0  0  0  0  0  0  0  0  0  0
    2.9870   -1.4990   -2.4270 N   0  0  0  0  0  0  0  0  0  0  0  0
    2.4910   -1.9330   -1.1650 C   0  0  0  0  0  0  0  0  0  0  0  0
    2.6720   -3.1390   -0.9150 O   0  0  0  0  0  0  0  0  0  0  0  0
    1.8080   -1.0460   -0.2040 C   0  0  0  0  0  0  0  0  0  0  0  0
    1.4200   -1.6870    0.9180 C   0  0  0  0  0  0  0  0  0  0  0  0
    0.7230   -1.1350    2.0550 C   0  0  0  0  0  0  0  0  0  0  0  0
   -0.5740   -0.8740    2.2050 C   0  0  0  0  0  0  0  0  0  0  0  0
   -1.6490   -1.0660    1.3000 C   0  0  2  0  0  0  0  0  0  0  0  0
   -1.5820   -2.4240    0.5790 C   0  0  0  0  0  0  0  0  0  0  0  0
   -2.9720   -2.3240   -0.0740 C   0  0  0  0  0  0  0  0  0  0  0  0
   -2.9020   -0.9120   -0.6060 C   0  0  0  0  0  0  0  0  0  0  0  0
   -2.0470   -0.1720    0.2490 C   0  0  0  0  0  0  0  0  0  0  0  0
   -1.7930    1.1290   -0.0120 C   0  0  0  0  0  0  0  0  0  0  0  0
   -2.4020    1.6710   -1.1320 N   0  0  0  0  0  0  0  0  0  0  0  0
   -3.2110    0.9830   -1.9460 C   0  0  0  0  0  0  0  0  0  0  0  0
   -3.4880   -0.3490   -1.7020 C   0  0  0  0  0  0  0  0  0  0  0  0
   -4.3050   -0.8160   -2.6320 C   0  0  0  0  0  0  0  0  0  0  0  0
   -4.6040    0.2770   -3.5750 C   0  0  0  0  0  0  0  0  0  0  0  0
   -3.8400    1.4130   -3.0380 C   0  0  0  0  0  0  0  0  0  0  0  0
   -0.9700    2.1220    0.6900 C   0  0  0  0  0  0  0  0  0  0  0  0
   -0.3850    1.8130    1.8790 O   0  0  0  0  0  0  0  0  0  0  0  0
    0.9080    2.1020    2.3140 C   0  0  0  0  0  0  0  0  0  0  0  0
    1.0250    2.5300    3.6180 C   0  0  0  0  0  0  0  0  0  0  0  0
    2.2530    2.8570    4.1850 C   0  0  0  0  0  0  0  0  0  0  0  0
    3.3710    2.7430    3.4040 C   0  0  0  0  0  0  0  0  0  0  0  0
    3.2320    2.3180    2.1190 C   0  0  0  0  0  0  0  0  0  0  0  0
    2.0230    1.9770    1.5040 C   0  0  0  0  0  0  0  0  0  0  0  0
    2.0510    1.5420    0.1520 N   0  0  0  0  0  0  0  0  0  0  0  0
    1.6380    0.3680   -0.5080 C   0  0  0  0  0  0  0  0  0  0  0  0
    0.9760    0.5820   -1.6030 O   0  0  0  0  0  0  0  0  0  0  0  0
  1  2  1  0
  2  3  1  0
  3  4  2  0
  3  5  1  0
  5  6  2  0
  5 30  1  0
  6  7  1  0
  7  8  2  0
  8  9  1  0
  9 10  1  6
  9 13  1  0
 10 11  1  0
 11 12  1  0
 12 13  2  0
 12 17  1  0
 13 14  1  0
 14 15  2  0
 14 21  1  0
 15 16  1  0
 16 17  1  0
 16 20  2  0
 17 18  2  0
 18 19  1  0
 19 20  1  0
 21 22  1  0
 22 23  1  0
 23 24  2  0
 23 28  1  0
 24 25  1  0
 25 26  2  0
 26 27  1  0
 27 28  2  0
 28 29  1  0
 29 30  1  0
 30 31  2  0
M  CHG  1   2   1
M  END
