
     RDKit          3D

 31 35  0  0  0  0  0  0  0  0999 V2000
    2.9600    2.8110   -1.3890 C   0  0  0  0  0  0  0  0  0  0  0  0
    2.7050    1.3940   -1.9080 C   0  0  0  0  0  0  0  0  0  0  0  0
    2.5810    0.5240   -0.7810 N   0  0  0  0  0  0  0  0  0  0  0  0
    1.3480    0.3150   -0.2640 C   0  0  0  0  0  0  0  0  0  0  0  0
    0.4220    0.9100   -0.8370 O   0  0  0  0  0  0  0  0  0  0  0  0
    1.1590   -0.5050    0.8180 C   0  0  0  0  0  0  0  0  0  0  0  0
   -0.1080   -0.6970    1.3150 C   0  0  0  0  0  0  0  0  0  0  0  0
   -1.3170   -0.0460    0.7870 C   0  0  1  0  0  0  0  0  0  0  0  0
   -1.2900    1.3280    0.7130 O   0  0  0  0  0  0  0  0  0  0  0  0
   -2.3460    1.9530    0.1540 C   0  0  2  0  0  0  0  0  0  0  0  0
   -2.0270    3.4590    0.0710 C   0  0  0  0  0  0  0  0  0  0  0  0
   -3.6700    1.8170    0.8150 C   0  0  0  0  0  0  0  0  0  0  0  0
   -4.5980    1.4210   -0.2610 N   0  0  0  0  0  0  0  0  0  0  0  0
   -4.7250    0.0120   -0.1730 C   0  0  0  0  0  0  0  0  0  0  0  0
   -3.4850   -0.7630   -0.5230 C   0  0  0  0  0  0  0  0  0  0  0  0
   -3.9320   -1.6770   -1.4680 C   0  0  0  0  0  0  0  0  0  0  0  0
   -3.1380   -2.6290   -2.0590 C   0  0  0  0  0  0  0  0  0  0  0  0
   -1.8210   -2.6670   -1.6810 C   0  0  0  0  0  0  0  0  0  0  0  0
   -1.0000   -3.6080   -2.2530 O   0  0  0  0  0  0  0  0  0  0  0  0
   -1.3620   -1.7480   -0.7290 C   0  0  0  0  0  0  0  0  0  0  0  0
   -2.1440   -0.8020   -0.1410 C   0  0  0  0  0  0  0  0  0  0  0  0
   -0.1980   -1.5620    2.4200 C   0  0  0  0  0  0  0  0  0  0  0  0
    0.8580   -2.1930    3.0010 C   0  0  0  0  0  0  0  0  0  0  0  0
    2.1100   -1.9750    2.4760 C   0  0  0  0  0  0  0  0  0  0  0  0
    2.2800   -1.1460    1.4000 C   0  0  0  0  0  0  0  0  0  0  0  0
    3.5190   -0.9100    0.8470 C   0  0  0  0  0  0  0  0  0  0  0  0
    4.6460   -1.5070    1.3790 C   0  0  0  0  0  0  0  0  0  0  0  0
    5.9240   -1.2870    0.8440 C   0  0  0  0  0  0  0  0  0  0  0  0
    6.0560   -0.4620   -0.2280 C   0  0  0  0  0  0  0  0  0  0  0  0
    4.9190    0.1480   -0.7740 C   0  0  0  0  0  0  0  0  0  0  0  0
    3.6630   -0.0600   -0.2600 C   0  0  0  0  0  0  0  0  0  0  0  0
  1  2  1  0
  2  3  1  0
  3  4  1  0
  3 31  1  0
  4  5  2  0
  4  6  1  0
  6  7  2  0
  6 25  1  0
  8  7  1  6
  7 22  1  0
  8  9  1  0
  8 21  1  0
  9 10  1  0
 10 11  1  1
 10 12  1  0
 12 13  1  0
 13 14  1  0
 14 15  1  0
 15 16  2  0
 15 21  1  0
 16 17  1  0
 17 18  2  0
 18 19  1  0
 18 20  1  0
 20 21  2  0
 22 23  2  0
 23 24  1  0
 24 25  2  0
 25 26  1  0
 26 27  2  0
 26 31  1  0
 27 28  1  0
 28 29  2  0
 29 30  1  0
 30 31  2  0
M  CHG  1  13   1
M  END
