
     RDKit          3D

 31 36  0  0  0  0  0  0  0  0999 V2000
   -5.6940    1.7220   -1.2050 C   0  0  0  0  0  0  0  0  0  0  0  0
   -6.1840    1.6840    0.2290 C   0  0  0  0  0  0  0  0  0  0  0  0
   -5.0420    1.2590    1.0990 C   0  0  2  0  0  0  0  0  0  0  0  0
   -3.8930    2.1630    1.0240 N   0  0  0  0  0  0  0  0  0  0  0  0
   -2.9170    1.3380    1.7660 C   0  0  0  0  0  0  0  0  0  0  0  0
   -3.0550    0.0490    1.0560 C   0  0  0  0  0  0  0  0  0  0  0  0
   -2.1920   -0.9610    0.8020 C   0  0  0  0  0  0  0  0  0  0  0  0
   -0.7850   -0.9580    1.1520 C   0  0  0  0  0  0  0  0  0  0  0  0
   -0.3820   -1.7610    2.0790 O   0  0  0  0  0  0  0  0  0  0  0  0
    0.2530   -0.1430    0.5670 C   0  0  0  0  0  0  0  0  0  0  0  0
   -0.0310    0.9740   -0.1750 C   0  0  0  0  0  0  0  0  0  0  0  0
    1.0310    1.7060   -0.7130 C   0  0  0  0  0  0  0  0  0  0  0  0
    2.3530    1.3480   -0.5280 C   0  0  0  0  0  0  0  0  0  0  0  0
    2.6390    0.2070    0.2280 C   0  0  0  0  0  0  0  0  0  0  0  0
    1.5850   -0.4940    0.7460 C   0  0  0  0  0  0  0  0  0  0  0  0
    3.8760   -0.3170    0.5270 O   0  0  0  0  0  0  0  0  0  0  0  0
    5.1210   -0.2200   -0.1130 C   0  0  1  0  0  0  0  0  0  0  0  0
    6.2140   -0.1360    0.9350 C   0  0  0  0  0  0  0  0  0  0  0  0
    7.3510   -0.8960    0.3110 C   0  0  0  0  0  0  0  0  0  0  0  0
    6.7960   -1.8750   -0.6720 C   0  0  0  0  0  0  0  0  0  0  0  0
    5.3340   -1.5890   -0.7850 C   0  0  0  0  0  0  0  0  0  0  0  0
    5.2220    0.7940   -1.1920 C   0  0  0  0  0  0  0  0  0  0  0  0
    4.7010    2.1540   -0.8790 C   0  0  0  0  0  0  0  0  0  0  0  0
    3.2820    2.1750   -1.1220 O   0  0  0  0  0  0  0  0  0  0  0  0
   -2.6740   -2.0940    0.1290 C   0  0  0  0  0  0  0  0  0  0  0  0
   -3.9940   -2.1860   -0.2690 C   0  0  0  0  0  0  0  0  0  0  0  0
   -4.8520   -1.1390    0.0030 C   0  0  0  0  0  0  0  0  0  0  0  0
   -4.4090   -0.0160    0.6610 C   0  0  0  0  0  0  0  0  0  0  0  0
   -6.0430   -1.3860   -0.4330 N   0  0  0  0  0  0  0  0  0  0  0  0
   -6.0850   -2.6820   -1.0640 C   0  0  0  0  0  0  0  0  0  0  0  0
   -4.6640   -3.1420   -0.9010 C   0  0  0  0  0  0  0  0  0  0  0  0
  1  2  1  0
  3  2  1  6
  3  4  1  0
  3 28  1  0
  4  5  1  0
  5  6  1  0
  6  7  1  0
  6 28  2  0
  7  8  1  0
  7 25  2  0
  8  9  2  0
  8 10  1  0
 10 11  2  0
 10 15  1  0
 11 12  1  0
 12 13  2  0
 13 14  1  0
 13 24  1  0
 14 15  2  0
 14 16  1  0
 16 17  1  0
 17 18  1  1
 17 21  1  0
 17 22  1  0
 18 19  1  0
 19 20  1  0
 20 21  1  0
 22 23  1  0
 23 24  1  0
 25 26  1  0
 26 27  1  0
 26 31  2  0
 27 28  1  0
 27 29  2  0
 29 30  1  0
 30 31  1  0
M  CHG  1   4   1
M  END
