
     RDKit          3D

 31 35  0  0  0  0  0  0  0  0999 V2000
   -4.9550   -3.5260    0.4120 C   0  0  0  0  0  0  0  0  0  0  0  0
   -5.2510   -2.0850    0.3040 C   0  0  0  0  0  0  0  0  0  0  0  0
   -6.5270   -1.6410    0.5120 C   0  0  0  0  0  0  0  0  0  0  0  0
   -6.8390   -0.2790    0.4160 C   0  0  0  0  0  0  0  0  0  0  0  0
   -8.2430    0.1780    0.6480 C   0  0  0  0  0  0  0  0  0  0  0  0
   -5.8430    0.6130    0.1100 C   0  0  0  0  0  0  0  0  0  0  0  0
   -6.1360    1.9560    0.0130 C   0  0  0  0  0  0  0  0  0  0  0  0
   -7.3200    2.3360    0.2090 O   0  0  0  0  0  0  0  0  0  0  0  0
   -5.1620    2.8360   -0.2870 N   0  0  0  0  0  0  0  0  0  0  0  0
   -3.9130    2.3910   -0.4890 C   0  0  0  0  0  0  0  0  0  0  0  0
   -2.9190    3.3000   -0.7970 C   0  0  0  0  0  0  0  0  0  0  0  0
   -1.6090    2.9330   -1.0200 C   0  0  0  0  0  0  0  0  0  0  0  0
   -1.2810    1.5910   -0.9300 C   0  0  0  0  0  0  0  0  0  0  0  0
    0.0100    1.1550   -1.1420 O   0  0  0  0  0  0  0  0  0  0  0  0
    0.8710    1.0840   -0.0610 C   0  0  0  0  0  0  0  0  0  0  0  0
    0.4290    1.4210    1.0630 O   0  0  0  0  0  0  0  0  0  0  0  0
    2.2470    0.6420   -0.1620 C   0  0  0  0  0  0  0  0  0  0  0  0
    2.8170    0.2500   -1.3680 C   0  0  0  0  0  0  0  0  0  0  0  0
    4.1410   -0.1670   -1.4220 C   0  0  0  0  0  0  0  0  0  0  0  0
    4.9400   -0.2140   -0.3070 C   0  0  0  0  0  0  0  0  0  0  0  0
    6.3430   -0.6670   -0.4260 C   0  0  1  0  0  0  0  0  0  0  0  0
    7.3340    0.3460    0.0880 C   0  0  0  0  0  0  0  0  0  0  0  0
    8.5430   -0.5250    0.3760 C   0  0  0  0  0  0  0  0  0  0  0  0
    8.0920   -1.8790    0.4370 N   0  0  0  0  0  0  0  0  0  0  0  0
    6.6420   -1.8640    0.4570 C   0  0  0  0  0  0  0  0  0  0  0  0
    4.3860    0.1720    0.8930 C   0  0  0  0  0  0  0  0  0  0  0  0
    3.0610    0.5900    0.9490 C   0  0  0  0  0  0  0  0  0  0  0  0
   -2.2560    0.6630   -0.6240 C   0  0  0  0  0  0  0  0  0  0  0  0
   -3.5650    1.0500   -0.4030 C   0  0  0  0  0  0  0  0  0  0  0  0
   -4.5420    0.1330   -0.0980 C   0  0  0  0  0  0  0  0  0  0  0  0
   -4.2250   -1.2000   -0.0070 C   0  0  0  0  0  0  0  0  0  0  0  0
  1  2  1  0
  2  3  2  0
  2 31  1  0
  3  4  1  0
  4  5  1  0
  4  6  2  0
  6  7  1  0
  6 30  1  0
  7  8  2  0
  7  9  1  0
  9 10  1  0
 10 11  2  0
 10 29  1  0
 11 12  1  0
 12 13  2  0
 13 14  1  0
 13 28  1  0
 14 15  1  0
 15 16  2  0
 15 17  1  0
 17 18  2  0
 17 27  1  0
 18 19  1  0
 19 20  2  0
 21 20  1  1
 20 26  1  0
 21 22  1  0
 21 25  1  0
 22 23  1  0
 23 24  1  0
 24 25  1  0
 26 27  2  0
 28 29  2  0
 29 30  1  0
 30 31  2  0
M  CHG  1  24   1
M  END
