
     RDKit          3D

 31 33  0  0  0  0  0  0  0  0999 V2000
    9.3080    0.3510    2.5620 C   0  0  0  0  0  0  0  0  0  0  0  0
    7.9260    0.4350    2.2860 O   0  0  0  0  0  0  0  0  0  0  0  0
    7.5190    0.3060    0.9600 C   0  0  0  0  0  0  0  0  0  0  0  0
    8.4060    0.1190    0.0670 O   0  0  0  0  0  0  0  0  0  0  0  0
    6.1350    0.3750    0.5600 C   0  0  0  0  0  0  0  0  0  0  0  0
    5.1570    0.5770    1.5010 C   0  0  0  0  0  0  0  0  0  0  0  0
    3.8360    0.6390    1.0940 C   0  0  0  0  0  0  0  0  0  0  0  0
    3.5010    0.5020   -0.2360 C   0  0  0  0  0  0  0  0  0  0  0  0
    2.1500    0.5710   -0.6120 C   0  0  0  0  0  0  0  0  0  0  0  0
    1.2720    0.7570    0.2670 O   0  0  0  0  0  0  0  0  0  0  0  0
    1.8390    0.4370   -1.8950 N   0  0  0  0  0  0  0  0  0  0  0  0
    0.4370    0.4900   -2.3290 C   0  0  0  0  0  0  0  0  0  0  0  0
   -0.0950   -0.9020   -2.3370 C   0  0  0  0  0  0  0  0  0  0  0  0
   -0.1440   -1.7200   -0.7390 S   0  0  0  0  0  0  0  0  0  0  0  0
   -1.4780   -0.9660    0.2760 C   0  0  0  0  0  0  0  0  0  0  0  0
   -2.7660   -1.3070   -0.3510 C   0  0  0  0  0  0  0  0  0  0  0  0
   -2.6350   -2.0240   -1.4220 O   0  0  0  0  0  0  0  0  0  0  0  0
   -4.1030   -0.9700    0.0440 C   0  0  0  0  0  0  0  0  0  0  0  0
   -5.1470   -1.6330   -0.6390 C   0  0  0  0  0  0  0  0  0  0  0  0
   -6.4570   -1.3940   -0.3200 C   0  0  0  0  0  0  0  0  0  0  0  0
   -6.7520   -0.4840    0.6920 C   0  0  0  0  0  0  0  0  0  0  0  0
   -8.1440   -0.2160    1.0460 C   0  0  0  0  0  0  0  0  0  0  0  0
   -5.7520    0.1660    1.3620 C   0  0  0  0  0  0  0  0  0  0  0  0
   -6.0740    1.1170    2.4150 C   0  0  0  0  0  0  0  0  0  0  0  0
   -4.4070   -0.0700    1.0450 C   0  0  0  0  0  0  0  0  0  0  0  0
   -3.3480    0.6650    1.7810 C   0  0  0  0  0  0  0  0  0  0  0  0
    2.8160    0.2390   -2.8120 C   0  0  0  0  0  0  0  0  0  0  0  0
    2.4820    0.1190   -4.0010 O   0  0  0  0  0  0  0  0  0  0  0  0
    4.1100    0.1720   -2.4640 N   0  0  0  0  0  0  0  0  0  0  0  0
    4.4780    0.3000   -1.1820 C   0  0  0  0  0  0  0  0  0  0  0  0
    5.7880    0.2380   -0.7780 C   0  0  0  0  0  0  0  0  0  0  0  0
  1  2  1  0
  2  3  1  0
  3  4  2  0
  3  5  1  0
  5  6  2  0
  5 31  1  0
  6  7  1  0
  7  8  2  0
  8  9  1  0
  8 30  1  0
  9 10  2  0
  9 11  1  0
 11 12  1  0
 11 27  1  0
 12 13  1  0
 13 14  1  0
 14 15  1  0
 15 16  1  0
 16 17  2  0
 16 18  1  0
 18 19  2  0
 18 25  1  0
 19 20  1  0
 20 21  2  0
 21 22  1  0
 21 23  1  0
 23 24  1  0
 23 25  2  0
 25 26  1  0
 27 28  2  0
 27 29  1  0
 29 30  1  0
 30 31  2  0
M  END
