
     RDKit          3D

 31 33  0  0  0  0  0  0  0  0999 V2000
    4.9540    0.4300    2.6250 C   0  0  0  0  0  0  0  0  0  0  0  0
    4.7390    0.0480    1.1850 C   0  0  0  0  0  0  0  0  0  0  0  0
    3.2410    0.0260    0.8480 C   0  0  0  0  0  0  0  0  0  0  0  0
    3.0300   -0.3520   -0.5730 C   0  0  0  0  0  0  0  0  0  0  0  0
    1.6620   -0.4110   -1.0190 N   0  0  0  0  0  0  0  0  0  0  0  0
    1.0950    0.7540   -1.6530 C   0  0  0  0  0  0  0  0  0  0  0  0
    1.4850    2.0610   -1.0200 C   0  0  0  0  0  0  0  0  0  0  0  0
    0.8490    3.3700   -2.1170 S   0  0  0  0  0  0  0  0  0  0  0  0
   -0.2010    4.5260   -1.1950 C   0  0  0  0  0  0  0  0  0  0  0  0
   -1.1800    3.7930   -0.3040 C   0  0  0  0  0  0  0  0  0  0  0  0
   -1.8870    2.7810   -1.1020 C   0  0  0  0  0  0  0  0  0  0  0  0
   -2.4530    1.6840   -0.5990 C   0  0  0  0  0  0  0  0  0  0  0  0
   -2.3740    1.4820    0.7440 O   0  0  0  0  0  0  0  0  0  0  0  0
   -1.4050    0.9860    1.5570 C   0  0  0  0  0  0  0  0  0  0  0  0
   -1.1510    1.6280    2.6290 O   0  0  0  0  0  0  0  0  0  0  0  0
   -0.5850   -0.2360    1.3550 C   0  0  1  0  0  0  0  0  0  0  0  0
   -0.3100   -0.9090    2.7000 C   0  0  0  0  0  0  0  0  0  0  0  0
   -1.1370   -1.1720    0.4110 N   0  0  0  0  0  0  0  0  0  0  0  0
   -0.4750   -1.7940   -0.5780 C   0  0  0  0  0  0  0  0  0  0  0  0
   -1.3570   -2.6410   -1.2790 C   0  0  0  0  0  0  0  0  0  0  0  0
   -1.0440   -3.5190   -2.4310 C   0  0  0  0  0  0  0  0  0  0  0  0
   -0.6780   -4.6970   -2.1850 O   0  0  0  0  0  0  0  0  0  0  0  0
   -1.1340   -3.1110   -3.7320 O   0  0  0  0  0  0  0  0  0  0  0  0
   -2.5730   -2.4980   -0.6670 C   0  0  0  0  0  0  0  0  0  0  0  0
   -3.7780   -3.1010   -0.9500 C   0  0  0  0  0  0  0  0  0  0  0  0
   -4.9210   -2.8300   -0.2020 C   0  0  0  0  0  0  0  0  0  0  0  0
   -4.7830   -1.9310    0.8330 C   0  0  0  0  0  0  0  0  0  0  0  0
   -3.5710   -1.3380    1.1030 C   0  0  0  0  0  0  0  0  0  0  0  0
   -2.4240   -1.6060    0.3550 C   0  0  0  0  0  0  0  0  0  0  0  0
    0.9460   -1.6250   -0.8660 C   0  0  0  0  0  0  0  0  0  0  0  0
    1.6260   -2.7150   -0.9960 O   0  0  0  0  0  0  0  0  0  0  0  0
  1  2  1  0
  2  3  1  0
  3  4  1  0
  4  5  1  0
  5  6  1  0
  5 30  1  0
  6  7  1  0
  7  8  1  0
  8  9  1  0
  9 10  1  0
 10 11  1  0
 11 12  2  0
 12 13  1  0
 13 14  1  0
 14 15  2  0
 14 16  1  0
 16 17  1  1
 16 18  1  0
 18 19  1  0
 18 29  1  0
 19 20  2  0
 19 30  1  0
 20 21  1  0
 20 24  1  0
 21 22  2  0
 21 23  1  0
 24 25  2  0
 24 29  1  0
 25 26  1  0
 26 27  2  0
 27 28  1  0
 28 29  2  0
 30 31  2  0
M  END
