
     RDKit          3D

 31 33  0  0  0  0  0  0  0  0999 V2000
   -2.5390    4.0210   -2.5360 C   0  0  0  0  0  0  0  0  0  0  0  0
   -2.3130    2.5510   -2.2640 C   0  0  0  0  0  0  0  0  0  0  0  0
   -0.9100    2.1620   -2.2750 C   0  0  0  0  0  0  0  0  0  0  0  0
   -0.2440    1.5710   -1.2380 C   0  0  0  0  0  0  0  0  0  0  0  0
   -0.7980    1.2700   -0.0740 O   0  0  0  0  0  0  0  0  0  0  0  0
   -0.9500    1.2480    1.2350 C   0  0  0  0  0  0  0  0  0  0  0  0
   -0.5550    1.9020    2.3150 C   0  0  0  0  0  0  0  0  0  0  0  0
   -1.1450    1.2960    3.5110 C   0  0  0  0  0  0  0  0  0  0  0  0
   -1.9480    0.1920    3.0300 C   0  0  0  0  0  0  0  0  0  0  0  0
   -1.8440    0.1550    1.7220 C   0  0  0  0  0  0  0  0  0  0  0  0
   -2.4620   -0.7580    0.8840 O   0  0  0  0  0  0  0  0  0  0  0  0
   -3.2080   -0.5700   -0.2620 C   0  0  0  0  0  0  0  0  0  0  0  0
   -3.6030   -1.8970   -0.8640 C   0  0  0  0  0  0  0  0  0  0  0  0
   -4.8160   -2.0550   -1.1550 O   0  0  0  0  0  0  0  0  0  0  0  0
   -2.6900   -2.9400   -1.1090 N   0  0  0  0  0  0  0  0  0  0  0  0
   -1.4140   -3.0820   -0.4080 C   0  0  0  0  0  0  0  0  0  0  0  0
   -0.4090   -2.2190   -1.0770 C   0  0  0  0  0  0  0  0  0  0  0  0
    0.9140   -2.0920   -0.4060 C   0  0  1  0  0  0  0  0  0  0  0  0
    0.9220   -1.7750    1.0390 C   0  0  0  0  0  0  0  0  0  0  0  0
    1.4660   -3.5540   -0.4350 C   0  0  0  0  0  0  0  0  0  0  0  0
    1.7740   -1.2200   -1.2620 C   0  0  0  0  0  0  0  0  0  0  0  0
    2.4080   -1.9720   -2.1340 O   0  0  0  0  0  0  0  0  0  0  0  0
    1.9890    0.1610   -1.2760 N   0  0  0  0  0  0  0  0  0  0  0  0
    3.4320    0.5210   -1.0490 C   0  0  0  0  0  0  0  0  0  0  0  0
    3.7420    0.6940    0.3680 C   0  0  0  0  0  0  0  0  0  0  0  0
    3.7330    1.6710    1.2710 C   0  0  0  0  0  0  0  0  0  0  0  0
    4.0990    1.4480    2.5330 C   0  0  0  0  0  0  0  0  0  0  0  0
    4.4950    0.2070    2.9390 C   0  0  0  0  0  0  0  0  0  0  0  0
    4.3410   -0.7650    1.3830 S   0  0  0  0  0  0  0  0  0  0  0  0
    1.1780    1.2820   -1.4910 C   0  0  0  0  0  0  0  0  0  0  0  0
    1.7440    2.3570   -2.0380 O   0  0  0  0  0  0  0  0  0  0  0  0
  1  2  1  0
  2  3  1  0
  3  4  2  3
  4  5  1  0
  4 30  1  0
  5  6  1  0
  6  7  2  0
  6 10  1  0
  7  8  1  0
  8  9  1  0
  9 10  2  0
 10 11  1  0
 11 12  1  0
 12 13  1  0
 13 14  2  0
 13 15  1  0
 15 16  1  0
 16 17  1  0
 17 18  1  0
 18 19  1  1
 18 20  1  0
 18 21  1  0
 21 22  2  0
 21 23  1  0
 23 24  1  0
 23 30  1  0
 24 25  1  0
 25 26  2  0
 25 29  1  0
 26 27  1  0
 27 28  2  0
 28 29  1  0
 30 31  2  0
M  END
