
     RDKit          3D

 18 20  0  0  0  0  0  0  0  0999 V2000
    3.0170    2.6760    0.1100 O   0  0  0  0  0  0  0  0  0  0  0  0
    2.0220    1.8980    0.1150 C   0  0  0  0  0  0  0  0  0  0  0  0
    0.7630    2.2600   -0.1880 N   0  0  0  0  0  0  0  0  0  0  0  0
    0.0190    1.1450   -0.0610 C   0  0  0  0  0  0  0  0  0  0  0  0
   -1.3250    0.9040   -0.2400 C   0  0  0  0  0  0  0  0  0  0  0  0
   -1.9280   -0.3230   -0.0630 C   0  0  0  0  0  0  0  0  0  0  0  0
   -3.3180   -0.5460   -0.2550 N   0  0  0  0  0  0  0  0  0  0  0  0
   -4.2240   -0.3980    0.7400 C   0  0  0  0  0  0  0  0  0  0  0  0
   -5.4900   -0.6850    0.2420 C   0  0  0  0  0  0  0  0  0  0  0  0
   -5.2780   -1.0010   -1.0630 N   0  0  0  0  0  0  0  0  0  0  0  0
   -3.9690   -0.9080   -1.3290 N   0  0  0  0  0  0  0  0  0  0  0  0
   -1.0920   -1.3710    0.3230 C   0  0  0  0  0  0  0  0  0  0  0  0
    0.2610   -1.1730    0.5140 C   0  0  0  0  0  0  0  0  0  0  0  0
    0.8220    0.0920    0.3210 C   0  0  0  0  0  0  0  0  0  0  0  0
    2.0560    0.5890    0.4220 N   0  0  0  0  0  0  0  0  0  0  0  0
    3.2490   -0.1440    0.7990 C   0  0  0  0  0  0  0  0  0  0  0  0
    3.9430   -0.7350   -0.4050 C   0  0  0  0  0  0  0  0  0  0  0  0
    4.3260    0.2630   -1.2980 O   0  0  0  0  0  0  0  0  0  0  0  0
  1  2  2  0
  2  3  1  0
  2 15  1  0
  3  4  1  0
  4  5  2  0
  4 14  1  0
  5  6  1  0
  6  7  1  0
  6 12  2  0
  7  8  1  0
  7 11  1  0
  8  9  2  0
  9 10  1  0
 10 11  2  0
 12 13  1  0
 13 14  2  0
 14 15  1  0
 15 16  1  0
 16 17  1  0
 17 18  1  0
M  END
