
     RDKit          3D

 18 20  0  0  0  0  0  0  0  0999 V2000
    5.2190   -0.0610    0.3550 C   0  0  0  0  0  0  0  0  0  0  0  0
    3.8200    0.3770    0.0110 C   0  0  0  0  0  0  0  0  0  0  0  0
    3.0600   -0.1810   -0.9410 N   0  0  0  0  0  0  0  0  0  0  0  0
    1.8780    0.4580   -0.9720 C   0  0  0  0  0  0  0  0  0  0  0  0
    0.7720    0.1370   -1.8850 C   0  0  0  0  0  0  0  0  0  0  0  0
   -0.1390   -0.8380   -1.3510 N   0  0  0  0  0  0  0  0  0  0  0  0
   -0.1190   -2.1510   -1.4490 N   0  0  0  0  0  0  0  0  0  0  0  0
   -1.1410   -2.7160   -0.8160 C   0  0  0  0  0  0  0  0  0  0  0  0
   -1.8730   -1.6840   -0.2700 C   0  0  0  0  0  0  0  0  0  0  0  0
   -3.0040   -1.6130    0.4750 N   0  0  0  0  0  0  0  0  0  0  0  0
   -3.5080   -0.4310    0.8810 C   0  0  0  0  0  0  0  0  0  0  0  0
   -4.5620   -0.4130    1.5720 O   0  0  0  0  0  0  0  0  0  0  0  0
   -2.8620    0.7230    0.5320 C   0  0  0  0  0  0  0  0  0  0  0  0
   -3.4120    2.0410    0.9770 C   0  0  0  0  0  0  0  0  0  0  0  0
   -1.7380    0.6610   -0.2080 N   0  0  0  0  0  0  0  0  0  0  0  0
   -1.2220   -0.5320   -0.6220 C   0  0  0  0  0  0  0  0  0  0  0  0
    1.9430    1.4310    0.0000 C   0  0  0  0  0  0  0  0  0  0  0  0
    3.1270    1.3390    0.5580 O   0  0  0  0  0  0  0  0  0  0  0  0
  1  2  1  0
  2  3  2  0
  2 18  1  0
  3  4  1  0
  4  5  1  0
  4 17  2  0
  5  6  1  0
  6  7  1  0
  6 16  1  0
  7  8  2  0
  8  9  1  0
  9 10  1  0
  9 16  2  0
 10 11  1  0
 11 12  2  0
 11 13  1  0
 13 14  1  0
 13 15  2  0
 15 16  1  0
 17 18  1  0
M  END
