
     RDKit          3D

 18 20  0  0  0  0  0  0  0  0999 V2000
   -0.1940   -2.4830   -0.8490 O   0  0  0  0  0  0  0  0  0  0  0  0
    0.1090   -1.3310   -0.4470 C   0  0  0  0  0  0  0  0  0  0  0  0
   -0.9630   -0.4300   -0.0180 C   0  0  0  0  0  0  0  0  0  0  0  0
   -2.3310   -1.0310   -0.1200 C   0  0  0  0  0  0  0  0  0  0  0  0
   -3.3020   -0.0410    0.3330 N   0  0  0  0  0  0  0  0  0  0  0  0
   -3.7420    0.1200    1.6010 C   0  0  0  0  0  0  0  0  0  0  0  0
   -4.6190    1.1380    1.5510 N   0  0  0  0  0  0  0  0  0  0  0  0
   -4.7420    1.6090    0.3340 N   0  0  0  0  0  0  0  0  0  0  0  0
   -3.9200    0.8760   -0.4380 C   0  0  0  0  0  0  0  0  0  0  0  0
   -3.7170    0.9830   -1.6940 O   0  0  0  0  0  0  0  0  0  0  0  0
    1.4660   -0.9690   -0.4320 N   0  0  0  0  0  0  0  0  0  0  0  0
    2.6510   -1.7160   -0.8150 C   0  0  0  0  0  0  0  0  0  0  0  0
    3.6220   -1.2770    0.2500 C   0  0  0  0  0  0  0  0  0  0  0  0
    3.2830    0.1560    0.4120 C   0  0  0  0  0  0  0  0  0  0  0  0
    3.7470    1.4100    0.8170 C   0  0  0  0  0  0  0  0  0  0  0  0
    2.7540    2.3010    0.6530 N   0  0  0  0  0  0  0  0  0  0  0  0
    1.6770    1.6460    0.1570 C   0  0  0  0  0  0  0  0  0  0  0  0
    1.9800    0.3080   -0.0020 C   0  0  0  0  0  0  0  0  0  0  0  0
  1  2  2  0
  2  3  1  0
  2 11  1  0
  3  4  1  0
  4  5  1  0
  5  6  1  0
  5  9  1  0
  6  7  2  0
  7  8  1  0
  8  9  1  0
  9 10  2  0
 11 12  1  0
 11 18  1  0
 12 13  1  0
 13 14  1  0
 14 15  2  0
 14 18  1  0
 15 16  1  0
 16 17  1  0
 17 18  2  0
M  END
