
     RDKit          3D

 18 20  0  0  0  0  0  0  0  0999 V2000
    0.2490   -0.4970   -0.6190 O   0  0  0  0  0  0  0  0  0  0  0  0
    0.5810    0.2510    0.3320 C   0  0  0  0  0  0  0  0  0  0  0  0
    2.0150    0.5260    0.6070 C   0  0  0  0  0  0  0  0  0  0  0  0
    2.8570   -0.2120   -0.3990 C   0  0  0  0  0  0  0  0  0  0  0  0
    4.2610    0.0090   -0.1940 N   0  0  0  0  0  0  0  0  0  0  0  0
    5.0860   -0.7340    0.5880 C   0  0  0  0  0  0  0  0  0  0  0  0
    6.3560   -0.2100    0.5270 C   0  0  0  0  0  0  0  0  0  0  0  0
    6.2660    0.8490   -0.3000 N   0  0  0  0  0  0  0  0  0  0  0  0
    5.0250    0.9690   -0.7200 N   0  0  0  0  0  0  0  0  0  0  0  0
   -0.4680    0.8040    1.1110 N   0  0  0  0  0  0  0  0  0  0  0  0
   -1.8350    0.4950    0.7880 C   0  0  0  0  0  0  0  0  0  0  0  0
   -2.2380   -0.2980   -0.2190 N   0  0  0  0  0  0  0  0  0  0  0  0
   -3.5670   -0.3560   -0.2170 C   0  0  0  0  0  0  0  0  0  0  0  0
   -4.0030    0.4300    0.8270 C   0  0  0  0  0  0  0  0  0  0  0  0
   -2.9130    0.9100    1.3880 O   0  0  0  0  0  0  0  0  0  0  0  0
   -5.3250    0.4140    0.8830 C   0  0  0  0  0  0  0  0  0  0  0  0
   -5.8150   -0.4450   -0.2030 C   0  0  0  0  0  0  0  0  0  0  0  0
   -4.5880   -0.9040   -0.8700 C   0  0  0  0  0  0  0  0  0  0  0  0
  1  2  2  0
  2  3  1  0
  2 10  1  0
  3  4  1  0
  4  5  1  0
  5  6  1  0
  5  9  1  0
  6  7  2  0
  7  8  1  0
  8  9  2  0
 10 11  1  0
 11 12  2  0
 11 15  1  0
 12 13  1  0
 13 14  1  0
 13 18  2  0
 14 15  1  0
 14 16  2  0
 16 17  1  0
 17 18  1  0
M  END
