
     RDKit          3D

 24 27  0  0  0  0  0  0  0  0999 V2000
   -1.7570    3.6300   -0.7670 C   0  0  0  0  0  0  0  0  0  0  0  0
   -1.1660    2.4130   -0.3930 O   0  0  0  0  0  0  0  0  0  0  0  0
   -1.9820    1.3780    0.0390 C   0  0  0  0  0  0  0  0  0  0  0  0
   -3.3690    1.5670    0.0930 C   0  0  0  0  0  0  0  0  0  0  0  0
   -4.2500    0.5980    0.5070 C   0  0  0  0  0  0  0  0  0  0  0  0
   -3.7780   -0.6360    0.8970 C   0  0  0  0  0  0  0  0  0  0  0  0
   -2.4220   -0.8230    0.8450 C   0  0  0  0  0  0  0  0  0  0  0  0
   -1.5060    0.1520    0.4260 C   0  0  0  0  0  0  0  0  0  0  0  0
   -0.0980   -0.1680    0.4160 C   0  0  0  0  0  0  0  0  0  0  0  0
    0.1910   -1.3610    0.8070 O   0  0  0  0  0  0  0  0  0  0  0  0
    0.9520    0.6710    0.0320 N   0  0  0  0  0  0  0  0  0  0  0  0
    2.3210    0.1990    0.0790 C   0  0  0  0  0  0  0  0  0  0  0  0
    3.3670    0.5680   -0.1410 N   0  0  0  0  0  0  0  0  0  0  0  0
    4.5380   -0.0690   -0.0190 C   0  0  0  0  0  0  0  0  0  0  0  0
    4.4440   -1.3220    0.4260 C   0  0  0  0  0  0  0  0  0  0  0  0
    2.6840   -1.5580    0.6610 S   0  0  0  0  0  0  0  0  0  0  0  0
    5.7910   -1.9810    0.5350 C   0  0  0  0  0  0  0  0  0  0  0  0
    6.5330   -1.1560   -0.5240 C   0  0  1  0  0  0  0  0  0  0  0  0
    6.0360   -1.5890   -1.8640 C   0  0  0  0  0  0  0  0  0  0  0  0
    5.9810    0.2210   -0.2390 C   0  0  0  0  0  0  0  0  0  0  0  0
   -4.6680   -1.6010    1.3110 O   0  0  0  0  0  0  0  0  0  0  0  0
   -6.0320   -1.6310    0.9330 C   0  0  0  0  0  0  0  0  0  0  0  0
   -6.4070   -0.4380    0.0850 C   0  0  0  0  0  0  0  0  0  0  0  0
   -5.7160    0.8240    0.5550 C   0  0  0  0  0  0  0  0  0  0  0  0
  1  2  1  0
  2  3  1  0
  3  4  2  0
  3  8  1  0
  4  5  1  0
  5  6  2  0
  5 24  1  0
  6  7  1  0
  6 21  1  0
  7  8  2  0
  8  9  1  0
  9 10  2  0
  9 11  1  0
 11 12  1  0
 12 13  2  0
 12 16  1  0
 13 14  1  0
 14 15  2  0
 14 20  1  0
 15 16  1  0
 15 17  1  0
 17 18  1  0
 18 19  1  6
 18 20  1  0
 21 22  1  0
 22 23  1  0
 23 24  1  0
M  END
