
     RDKit          3D

 25 28  0  0  0  0  0  0  0  0999 V2000
    6.1920    1.3370    1.0620 C   0  0  0  0  0  0  0  0  0  0  0  0
    6.2970    0.4410   -0.1530 C   0  0  0  0  0  0  0  0  0  0  0  0
    6.0560    1.0920   -1.3290 O   0  0  0  0  0  0  0  0  0  0  0  0
    4.8160    1.6660   -1.4520 C   0  0  0  0  0  0  0  0  0  0  0  0
    3.7810    0.6320   -1.3650 C   0  0  0  0  0  0  0  0  0  0  0  0
    3.7800   -0.6920   -1.6310 C   0  0  0  0  0  0  0  0  0  0  0  0
    2.6750   -1.4060   -1.4530 C   0  0  0  0  0  0  0  0  0  0  0  0
    1.5490   -0.7630   -0.9970 C   0  0  0  0  0  0  0  0  0  0  0  0
    0.2430   -1.4170   -0.7480 C   0  0  0  0  0  0  0  0  0  0  0  0
    0.1180   -2.7410   -0.9780 N   0  0  0  0  0  0  0  0  0  0  0  0
   -0.9800   -3.4340   -0.7980 C   0  0  0  0  0  0  0  0  0  0  0  0
   -1.0260   -4.6710   -1.0330 O   0  0  0  0  0  0  0  0  0  0  0  0
   -2.0820   -2.8280   -0.3560 N   0  0  0  0  0  0  0  0  0  0  0  0
   -2.0350   -1.5050   -0.1040 C   0  0  0  0  0  0  0  0  0  0  0  0
   -3.1990   -0.9380    0.3480 C   0  0  0  0  0  0  0  0  0  0  0  0
   -3.2070    0.4180    0.6230 C   0  0  0  0  0  0  0  0  0  0  0  0
   -2.0550    1.1490    0.4350 C   0  0  0  0  0  0  0  0  0  0  0  0
   -0.8690    0.5600   -0.0280 C   0  0  0  0  0  0  0  0  0  0  0  0
   -0.8550   -0.7700   -0.2990 C   0  0  0  0  0  0  0  0  0  0  0  0
   -4.5940    0.7170    1.0860 C   0  0  1  0  0  0  0  0  0  0  0  0
   -4.5450    1.7640    2.1540 C   0  0  0  0  0  0  0  0  0  0  0  0
   -5.4730    1.1890   -0.0480 C   0  0  0  0  0  0  0  0  0  0  0  0
   -5.0280   -0.5090    1.5880 O   0  0  0  0  0  0  0  0  0  0  0  0
   -4.5710   -1.4300    0.6480 C   0  0  0  0  0  0  0  0  0  0  0  0
    2.0870    0.8540   -0.8280 S   0  0  0  0  0  0  0  0  0  0  0  0
  1  2  1  0
  2  3  1  0
  3  4  1  0
  4  5  1  0
  5  6  2  0
  5 25  1  0
  6  7  1  0
  7  8  2  0
  8  9  1  0
  8 25  1  0
  9 10  2  0
  9 19  1  0
 10 11  1  0
 11 12  2  0
 11 13  1  0
 13 14  1  0
 14 15  2  0
 14 19  1  0
 15 16  1  0
 15 24  1  0
 16 17  2  0
 16 20  1  0
 17 18  1  0
 18 19  2  0
 20 21  1  1
 20 22  1  0
 20 23  1  0
 23 24  1  0
M  END
