
     RDKit          3D

 25 27  0  0  0  0  0  0  0  0999 V2000
   -6.2830    3.1640   -0.5880 C   0  0  0  0  0  0  0  0  0  0  0  0
   -5.2320    2.5960   -0.0330 C   0  0  0  0  0  0  0  0  0  0  0  0
   -3.9040    3.1630   -0.1240 C   0  0  0  0  0  0  0  0  0  0  0  0
   -2.8480    2.4120   -0.1040 C   0  0  0  0  0  0  0  0  0  0  0  0
   -2.8960    0.9640    0.0050 C   0  0  0  0  0  0  0  0  0  0  0  0
   -1.7650    0.2850    0.0860 C   0  0  0  0  0  0  0  0  0  0  0  0
   -0.1560    1.3080    0.0840 S   0  0  0  0  0  0  0  0  0  0  0  0
    0.8820   -0.2180    0.2530 C   0  0  0  0  0  0  0  0  0  0  0  0
    2.3220    0.0030    0.3090 N   0  0  0  0  0  0  0  0  0  0  0  0
    3.1260   -1.1260    0.4370 C   0  0  0  0  0  0  0  0  0  0  0  0
    2.5960   -2.2820    0.5010 O   0  0  0  0  0  0  0  0  0  0  0  0
    4.5740   -1.0570    0.5050 C   0  0  0  0  0  0  0  0  0  0  0  0
    5.3140    0.0380    0.4560 C   0  0  0  0  0  0  0  0  0  0  0  0
    4.9550    1.3530    0.3350 O   0  0  0  0  0  0  0  0  0  0  0  0
    5.4770    2.1090   -0.7480 C   0  0  0  0  0  0  0  0  0  0  0  0
    6.7630   -0.3710    0.5630 C   0  0  0  0  0  0  0  0  0  0  0  0
    6.6330   -1.5850    1.2420 O   0  0  0  0  0  0  0  0  0  0  0  0
    5.5400   -2.1880    0.6320 C   0  0  0  0  0  0  0  0  0  0  0  0
    0.0690   -1.0290    0.2710 N   0  0  0  0  0  0  0  0  0  0  0  0
   -1.2840   -0.9300    0.1930 C   0  0  0  0  0  0  0  0  0  0  0  0
   -1.9410   -2.0760   -0.0050 C   0  0  0  0  0  0  0  0  0  0  0  0
   -1.1490   -3.3800    0.2130 C   0  0  0  0  0  0  0  0  0  0  0  0
   -3.2560   -2.3670   -0.5520 C   0  0  0  0  0  0  0  0  0  0  0  0
   -4.2200    0.3570    0.1710 C   0  0  0  0  0  0  0  0  0  0  0  0
   -5.2880    1.3200    0.7470 C   0  0  0  0  0  0  0  0  0  0  0  0
  1  2  2  0
  2  3  1  0
  2 25  1  0
  3  4  2  0
  4  5  1  0
  5  6  2  3
  5 24  1  0
  6  7  1  0
  6 20  1  0
  7  8  1  0
  8  9  1  0
  8 19  2  0
  9 10  1  0
 10 11  2  0
 10 12  1  0
 12 13  2  0
 12 18  1  0
 13 14  1  0
 13 16  1  0
 14 15  1  0
 16 17  1  0
 17 18  1  0
 19 20  1  0
 20 21  2  3
 21 22  1  0
 21 23  1  0
 24 25  1  0
M  END
