
     RDKit          3D

  7  7  0  0  0  0  0  0  0  0999 V2000
    0.7320    1.9320    0.0040 O   0  0  0  0  0  0  0  0  0  0  0  0
    0.5710    0.5570   -0.0390 C   0  0  0  0  0  0  0  0  0  0  0  0
    1.5700   -0.3910   -0.0120 C   0  0  0  0  0  0  0  0  0  0  0  0
    0.9530   -1.5870   -0.0730 N   0  0  0  0  0  0  0  0  0  0  0  0
   -0.3530   -1.4550   -0.1350 N   0  0  0  0  0  0  0  0  0  0  0  0
   -0.6290   -0.1180   -0.1160 C   0  0  0  0  0  0  0  0  0  0  0  0
   -1.9040    0.4340   -0.1660 O   0  0  0  0  0  0  0  0  0  0  0  0
  1  2  1  0
  2  3  1  0
  2  6  2  0
  3  4  2  0
  4  5  1  0
  5  6  1  0
  6  7  1  0
M  END
