
     RDKit          3D

  7  7  0  0  0  0  0  0  0  0999 V2000
   -1.0890    2.2530   -0.7730 O   0  0  0  0  0  0  0  0  0  0  0  0
   -0.6010    1.1770   -0.3760 C   0  0  0  0  0  0  0  0  0  0  0  0
   -1.3990   -0.0530   -0.2060 C   0  0  0  0  0  0  0  0  0  0  0  0
   -0.7320   -0.8350    0.7400 O   0  0  0  0  0  0  0  0  0  0  0  0
    0.5210   -1.2160    0.3490 C   0  0  0  0  0  0  0  0  0  0  0  0
    1.3820   -0.1610   -0.1040 N   0  0  0  0  0  0  0  0  0  0  0  0
    0.7750    1.1000   -0.0660 N   0  0  0  0  0  0  0  0  0  0  0  0
  1  2  2  0
  2  3  1  0
  2  7  1  0
  3  4  1  0
  4  5  1  0
  5  6  1  0
  6  7  1  0
M  END
