
     RDKit          3D

 14 15  0  0  0  0  0  0  0  0999 V2000
   -3.8950   -1.3160    0.8180 C   0  0  0  0  0  0  0  0  0  0  0  0
   -2.5070   -1.2580    0.6780 O   0  0  0  0  0  0  0  0  0  0  0  0
   -1.9500   -0.1360    0.0410 C   0  0  0  0  0  0  0  0  0  0  0  0
   -2.7190    0.8060   -0.4470 C   0  0  0  0  0  0  0  0  0  0  0  0
   -2.3040    1.9550   -1.0930 O   0  0  0  0  0  0  0  0  0  0  0  0
   -0.5040   -0.0880   -0.0390 C   0  0  0  0  0  0  0  0  0  0  0  0
    0.3840   -1.0500    0.4550 C   0  0  0  0  0  0  0  0  0  0  0  0
    1.6390   -0.6060    0.1650 C   0  0  0  0  0  0  0  0  0  0  0  0
    2.8860   -1.1530    0.4180 C   0  0  0  0  0  0  0  0  0  0  0  0
    4.0270   -0.5200    0.0280 C   0  0  0  0  0  0  0  0  0  0  0  0
    3.9110    0.6940   -0.6330 C   0  0  0  0  0  0  0  0  0  0  0  0
    2.6780    1.2580   -0.8970 C   0  0  0  0  0  0  0  0  0  0  0  0
    1.5440    0.5960   -0.4910 C   0  0  0  0  0  0  0  0  0  0  0  0
    0.2120    0.8880   -0.6020 N   0  0  0  0  0  0  0  0  0  0  0  0
  1  2  1  0
  2  3  1  0
  3  4  2  3
  3  6  1  0
  4  5  1  0
  6  7  2  0
  6 14  1  0
  7  8  1  0
  8  9  2  0
  8 13  1  0
  9 10  1  0
 10 11  2  0
 11 12  1  0
 12 13  2  0
 13 14  1  0
M  END
