
     RDKit          3D

 14 15  0  0  0  0  0  0  0  0999 V2000
    5.1600   -0.3290    0.1630 O   0  0  0  0  0  0  0  0  0  0  0  0
    3.8150   -0.0190    0.1310 C   0  0  0  0  0  0  0  0  0  0  0  0
    2.9760   -0.5670   -0.8170 C   0  0  0  0  0  0  0  0  0  0  0  0
    1.6280   -0.2880   -0.8910 C   0  0  0  0  0  0  0  0  0  0  0  0
    1.1080    0.5840    0.0380 C   0  0  0  0  0  0  0  0  0  0  0  0
   -0.2770    0.8980    0.0040 N   0  0  0  0  0  0  0  0  0  0  0  0
   -1.1570    0.2550   -0.9490 C   0  0  2  0  0  0  0  0  0  0  0  0
   -2.5500    0.8360   -0.7760 C   0  0  0  0  0  0  0  0  0  0  0  0
   -3.0470    0.6200    0.6140 C   0  0  0  0  0  0  0  0  0  0  0  0
   -2.6110   -0.5950    1.1260 O   0  0  0  0  0  0  0  0  0  0  0  0
   -2.5780   -1.5130    0.0820 C   0  0  0  0  0  0  0  0  0  0  0  0
   -1.2650   -1.2400   -0.6610 C   0  0  0  0  0  0  0  0  0  0  0  0
    1.9340    1.1530    1.0070 C   0  0  0  0  0  0  0  0  0  0  0  0
    3.2790    0.8540    1.0540 C   0  0  0  0  0  0  0  0  0  0  0  0
  1  2  1  0
  2  3  2  0
  2 14  1  0
  3  4  1  0
  4  5  2  0
  5  6  1  0
  5 13  1  0
  7  6  1  1
  7  8  1  0
  7 12  1  0
  8  9  1  0
  9 10  1  0
 10 11  1  0
 11 12  1  0
 13 14  2  0
M  END
