
     RDKit          3D

 14 14  0  0  0  0  0  0  0  0999 V2000
    4.4620   -1.3860   -0.5750 C   0  0  0  0  0  0  0  0  0  0  0  0
    3.4660   -0.3870   -0.9930 C   0  0  0  0  0  0  0  0  0  0  0  0
    2.1830   -0.4120   -0.4870 C   0  0  0  0  0  0  0  0  0  0  0  0
    1.2600    0.5650   -0.9150 C   0  0  0  0  0  0  0  0  0  0  0  0
    0.0250    0.8540   -0.6770 C   0  0  0  0  0  0  0  0  0  0  0  0
   -0.6370    2.0340   -1.3640 C   0  0  0  0  0  0  0  0  0  0  0  0
   -0.0880    2.8110   -2.1880 O   0  0  0  0  0  0  0  0  0  0  0  0
   -1.9530    2.0560   -0.8850 N   0  0  0  0  0  0  0  0  0  0  0  0
   -2.1470    0.9980    0.0290 C   0  0  0  0  0  0  0  0  0  0  0  0
   -3.4410    0.7570    0.7160 C   0  0  0  0  0  0  0  0  0  0  0  0
   -1.0200    0.2800    0.1730 C   0  0  0  0  0  0  0  0  0  0  0  0
   -0.9080   -0.8700    1.0290 C   0  0  0  0  0  0  0  0  0  0  0  0
   -2.0300   -1.4170    1.8570 C   0  0  0  0  0  0  0  0  0  0  0  0
    0.1450   -1.5340    1.1700 O   0  0  0  0  0  0  0  0  0  0  0  0
  1  2  1  0
  2  3  2  3
  3  4  1  0
  4  5  2  3
  5  6  1  0
  5 11  1  0
  6  7  2  0
  6  8  1  0
  8  9  1  0
  9 10  1  0
  9 11  2  0
 11 12  1  0
 12 13  1  0
 12 14  2  0
M  END
