
     RDKit          3D

 14 15  0  0  0  0  0  0  0  0999 V2000
    4.9600    0.5160    0.8170 O   0  0  0  0  0  0  0  0  0  0  0  0
    3.6990    0.3220    0.2800 C   0  0  0  0  0  0  0  0  0  0  0  0
    3.4960    0.0360   -1.0440 C   0  0  0  0  0  0  0  0  0  0  0  0
    2.2470   -0.1540   -1.5710 C   0  0  0  0  0  0  0  0  0  0  0  0
    1.1460   -0.0570   -0.7460 C   0  0  0  0  0  0  0  0  0  0  0  0
   -0.1610   -0.2520   -1.2750 N   0  0  0  0  0  0  0  0  0  0  0  0
   -1.2970   -0.1540   -0.4360 C   0  0  0  0  0  0  0  0  0  0  0  0
   -1.7850   -1.1710    0.2530 C   0  0  0  0  0  0  0  0  0  0  0  0
   -2.9770   -1.0790    1.1370 C   0  0  0  0  0  0  0  0  0  0  0  0
   -3.5870    0.2790    1.0100 C   0  0  0  0  0  0  0  0  0  0  0  0
   -3.3790    0.8340   -0.2450 O   0  0  0  0  0  0  0  0  0  0  0  0
   -2.0030    1.1530   -0.3020 C   0  0  0  0  0  0  0  0  0  0  0  0
    1.3100    0.2330    0.6090 C   0  0  0  0  0  0  0  0  0  0  0  0
    2.5740    0.4140    1.0840 C   0  0  0  0  0  0  0  0  0  0  0  0
  1  2  1  0
  2  3  2  0
  2 14  1  0
  3  4  1  0
  4  5  2  0
  5  6  1  0
  5 13  1  0
  6  7  1  0
  7  8  2  0
  7 12  1  0
  8  9  1  0
  9 10  1  0
 10 11  1  0
 11 12  1  0
 13 14  2  0
M  END
