
     RDKit          3D

 14 15  0  0  0  0  0  0  0  0999 V2000
   -3.3090   -1.0430   -0.1450 C   0  0  0  0  0  0  0  0  0  0  0  0
   -2.0080   -0.3180   -0.0450 C   0  0  0  0  0  0  0  0  0  0  0  0
   -0.8900   -1.0180    0.0020 C   0  0  0  0  0  0  0  0  0  0  0  0
    0.4910   -0.5330    0.0990 C   0  0  0  0  0  0  0  0  0  0  0  0
    1.4170   -1.5550    0.0960 C   0  0  0  0  0  0  0  0  0  0  0  0
    2.7790   -1.2900    0.1840 C   0  0  0  0  0  0  0  0  0  0  0  0
    3.6830   -2.3440    0.1770 O   0  0  0  0  0  0  0  0  0  0  0  0
    3.1870    0.0380    0.2760 C   0  0  0  0  0  0  0  0  0  0  0  0
    2.2840    1.0770    0.2820 C   0  0  0  0  0  0  0  0  0  0  0  0
    0.9380    0.7870    0.1930 C   0  0  0  0  0  0  0  0  0  0  0  0
    0.1230    1.9560    0.2100 N   0  0  0  0  0  0  0  0  0  0  0  0
   -1.1800    2.1640   -0.3890 C   0  0  0  0  0  0  0  0  0  0  0  0
   -2.1740    1.1280   -0.0120 C   0  0  0  0  0  0  0  0  0  0  0  0
   -3.3150    1.5590    0.3890 O   0  0  0  0  0  0  0  0  0  0  0  0
  1  2  1  0
  2  3  2  0
  2 13  1  0
  3  4  1  0
  4  5  2  0
  4 10  1  0
  5  6  1  0
  6  7  1  0
  6  8  2  0
  8  9  1  0
  9 10  2  0
 10 11  1  0
 11 12  1  0
 12 13  1  0
 13 14  2  0
M  END
