
     RDKit          3D

 18 20  0  0  0  0  0  0  0  0999 V2000
   -3.7720   -1.6270   -0.3070 N   0  0  0  0  0  0  0  0  0  0  0  0
   -3.2060   -0.5700    0.5250 C   0  0  1  0  0  0  0  0  0  0  0  0
   -1.7470   -0.6110    0.3700 C   0  0  0  0  0  0  0  0  0  0  0  0
   -1.0310    0.3960   -0.1230 C   0  0  0  0  0  0  0  0  0  0  0  0
    0.3700    0.3000   -0.2480 N   0  0  0  0  0  0  0  0  0  0  0  0
    0.9040   -0.8680    0.1630 N   0  0  0  0  0  0  0  0  0  0  0  0
    2.2040   -1.1510    0.1250 C   0  0  0  0  0  0  0  0  0  0  0  0
    2.9420   -2.2260    0.4760 N   0  0  0  0  0  0  0  0  0  0  0  0
    4.1980   -1.9230    0.2050 N   0  0  0  0  0  0  0  0  0  0  0  0
    4.3180   -0.6900   -0.3100 C   0  0  0  0  0  0  0  0  0  0  0  0
    3.0410   -0.1590   -0.3750 C   0  0  0  0  0  0  0  0  0  0  0  0
    2.5660    1.0490   -0.8100 C   0  0  0  0  0  0  0  0  0  0  0  0
    3.4230    2.0130   -1.3020 O   0  0  0  0  0  0  0  0  0  0  0  0
    1.1720    1.2400   -0.7240 C   0  0  0  0  0  0  0  0  0  0  0  0
    0.7550    2.3460   -1.1240 O   0  0  0  0  0  0  0  0  0  0  0  0
   -1.7690    1.5720   -0.5140 C   0  0  0  0  0  0  0  0  0  0  0  0
   -3.1020    1.6920   -0.4070 C   0  0  0  0  0  0  0  0  0  0  0  0
   -3.8040    0.6270    0.1080 O   0  0  0  0  0  0  0  0  0  0  0  0
  2  1  1  6
  2  3  1  0
  2 18  1  0
  3  4  2  0
  4  5  1  0
  4 16  1  0
  5  6  1  0
  5 14  1  0
  6  7  2  0
  7  8  1  0
  7 11  1  0
  8  9  1  0
  9 10  2  0
 10 11  1  0
 11 12  2  0
 12 13  1  0
 12 14  1  0
 14 15  2  0
 16 17  2  0
 17 18  1  0
M  END
