
     RDKit          3D

 20 22  0  0  0  0  0  0  0  0999 V2000
    0.9780   -1.6420   -1.0970 N   0  0  0  0  0  0  0  0  0  0  0  0
    0.0860   -0.5710   -0.7230 C   0  0  0  0  0  0  0  0  0  0  0  0
    0.4880    0.4360   -0.0110 N   0  0  0  0  0  0  0  0  0  0  0  0
    1.8660    0.4360    0.3900 C   0  0  0  0  0  0  0  0  0  0  0  0
    2.0600    0.6520    1.6040 O   0  0  0  0  0  0  0  0  0  0  0  0
    2.9150    0.2160   -0.4900 N   0  0  0  0  0  0  0  0  0  0  0  0
    4.3270    0.2120   -0.1320 C   0  0  0  0  0  0  0  0  0  0  0  0
    4.7980    0.6820    1.0120 C   0  0  0  0  0  0  0  0  0  0  0  0
    6.1420    0.6190    1.2700 C   0  0  0  0  0  0  0  0  0  0  0  0
    6.8230   -0.1660   -0.2150 S   0  0  0  0  0  0  0  0  0  0  0  0
    5.2200   -0.3340   -1.0450 C   0  0  0  0  0  0  0  0  0  0  0  0
   -1.2780   -0.5830   -1.1280 N   0  0  0  0  0  0  0  0  0  0  0  0
   -2.3060   -0.0250   -0.3170 C   0  0  0  0  0  0  0  0  0  0  0  0
   -2.2310    0.5860    0.9120 C   0  0  0  0  0  0  0  0  0  0  0  0
   -3.4600    0.9770    1.3360 N   0  0  0  0  0  0  0  0  0  0  0  0
   -4.3390    0.6220    0.3860 C   0  0  0  0  0  0  0  0  0  0  0  0
   -3.6570    0.0010   -0.6480 C   0  0  0  0  0  0  0  0  0  0  0  0
   -4.5060   -0.3590   -1.6010 C   0  0  0  0  0  0  0  0  0  0  0  0
   -5.8570    0.0610   -1.1540 C   0  0  0  0  0  0  0  0  0  0  0  0
   -5.6000    0.6720    0.1280 N   0  0  0  0  0  0  0  0  0  0  0  0
  1  2  1  0
  2  3  2  3
  2 12  1  0
  3  4  1  0
  4  5  2  0
  4  6  1  0
  6  7  1  0
  7  8  1  0
  7 11  2  0
  8  9  2  0
  9 10  1  0
 10 11  1  0
 12 13  1  0
 13 14  2  0
 13 17  1  0
 14 15  1  0
 15 16  1  0
 16 17  1  0
 16 20  2  0
 17 18  2  0
 18 19  1  0
 19 20  1  0
M  END
