
     RDKit          3D

 20 22  0  0  0  0  0  0  0  0999 V2000
    1.9300    0.6840    3.0470 N   0  0  0  0  0  0  0  0  0  0  0  0
    1.7840    0.5670    1.6390 C   0  0  0  0  0  0  0  0  0  0  0  0
    0.4850    0.6570    1.0710 N   0  0  0  0  0  0  0  0  0  0  0  0
   -0.1980   -0.3860    0.7090 C   0  0  0  0  0  0  0  0  0  0  0  0
   -1.5200   -0.2480    0.1340 C   0  0  0  0  0  0  0  0  0  0  0  0
   -2.1080    1.0030   -0.0530 C   0  0  0  0  0  0  0  0  0  0  0  0
   -3.3760    1.0630   -0.6100 C   0  0  0  0  0  0  0  0  0  0  0  0
   -4.4530    2.4390   -1.0060 S   0  0  0  0  0  0  0  0  0  0  0  0
   -5.8430    1.4380   -1.6770 C   0  0  0  0  0  0  0  0  0  0  0  0
   -5.3370    0.1830   -1.5260 C   0  0  0  0  0  0  0  0  0  0  0  0
   -4.1250   -0.0040   -1.0020 C   0  0  0  0  0  0  0  0  0  0  0  0
   -3.5040   -1.2220   -0.7980 N   0  0  0  0  0  0  0  0  0  0  0  0
   -2.2980   -1.3070   -0.2710 C   0  0  0  0  0  0  0  0  0  0  0  0
   -1.7030   -2.6000   -0.0830 N   0  0  0  0  0  0  0  0  0  0  0  0
    2.8620    0.3750    0.8700 C   0  0  0  0  0  0  0  0  0  0  0  0
    2.9210    0.2350   -0.5340 N   0  0  0  0  0  0  0  0  0  0  0  0
    4.1240    0.0640   -0.9310 C   0  0  0  0  0  0  0  0  0  0  0  0
    4.4640   -0.1000   -2.2730 O   0  0  0  0  0  0  0  0  0  0  0  0
    5.0740    0.0670    0.2080 C   0  0  0  0  0  0  0  0  0  0  0  0
    4.1980    0.2710    1.3420 N   0  0  0  0  0  0  0  0  0  0  0  0
  1  2  1  0
  2  3  1  0
  2 15  2  3
  3  4  2  3
  4  5  1  0
  5  6  2  0
  5 13  1  0
  6  7  1  0
  7  8  1  0
  7 11  2  0
  8  9  1  0
  9 10  2  0
 10 11  1  0
 11 12  1  0
 12 13  2  0
 13 14  1  0
 15 16  1  0
 15 20  1  0
 16 17  2  0
 17 18  1  0
 17 19  1  0
 19 20  1  0
M  END
