
     RDKit          3D

 20 21  0  0  0  0  0  0  0  0999 V2000
   -1.1720   -3.2530    0.5300 N   0  0  0  0  0  0  0  0  0  0  0  0
   -0.9500   -1.9820    0.5630 C   0  0  0  0  0  0  0  0  0  0  0  0
    0.3830   -1.4820    0.5180 N   0  0  0  0  0  0  0  0  0  0  0  0
    1.1990   -1.9700   -0.3510 C   0  0  0  0  0  0  0  0  0  0  0  0
    2.5230   -1.4630   -0.3850 N   0  0  0  0  0  0  0  0  0  0  0  0
    2.7240   -0.0660   -0.3490 C   0  0  0  0  0  0  0  0  0  0  0  0
    1.7700    0.8950   -0.3710 C   0  0  0  0  0  0  0  0  0  0  0  0
    2.1200    2.2500   -0.3220 C   0  0  0  0  0  0  0  0  0  0  0  0
    3.3910    2.6120   -0.2540 N   0  0  0  0  0  0  0  0  0  0  0  0
    4.3760    1.7150   -0.2300 C   0  0  0  0  0  0  0  0  0  0  0  0
    5.6810    2.1830   -0.1580 O   0  0  0  0  0  0  0  0  0  0  0  0
    4.0500    0.3780   -0.2760 C   0  0  0  0  0  0  0  0  0  0  0  0
   -2.0940   -1.0780    0.6470 C   0  0  0  0  0  0  0  0  0  0  0  0
   -3.2830   -1.6270    0.6830 C   0  0  0  0  0  0  0  0  0  0  0  0
   -4.6270   -1.0590    0.7650 C   0  0  0  0  0  0  0  0  0  0  0  0
   -5.0370    0.1190    0.3740 C   0  0  0  0  0  0  0  0  0  0  0  0
   -4.0900    1.4240   -0.3900 S   0  0  0  0  0  0  0  0  0  0  0  0
   -2.4440    1.3620    0.3330 C   0  0  0  0  0  0  0  0  0  0  0  0
   -1.8700    2.6290    0.5010 N   0  0  0  0  0  0  0  0  0  0  0  0
   -1.8060    0.3090    0.6810 N   0  0  0  0  0  0  0  0  0  0  0  0
  1  2  2  0
  2  3  1  0
  2 13  1  0
  3  4  2  3
  4  5  1  0
  5  6  1  0
  6  7  2  0
  6 12  1  0
  7  8  1  0
  8  9  2  0
  9 10  1  0
 10 11  1  0
 10 12  2  0
 13 14  2  0
 13 20  1  0
 14 15  1  0
 15 16  2  0
 16 17  1  0
 17 18  1  0
 18 19  1  0
 18 20  2  0
M  END
