
     RDKit          3D

 20 22  0  0  0  0  0  0  0  0999 V2000
   -6.4160   -1.1050   -0.9170 N   0  0  0  0  0  0  0  0  0  0  0  0
   -5.6120   -0.8300    0.0400 C   0  0  0  0  0  0  0  0  0  0  0  0
   -6.0980   -0.2040    1.2110 N   0  0  0  0  0  0  0  0  0  0  0  0
   -4.1820   -1.1610   -0.0700 C   0  0  0  0  0  0  0  0  0  0  0  0
   -3.3630    0.0550    0.0340 N   0  0  0  0  0  0  0  0  0  0  0  0
   -1.9600   -0.0000   -0.0420 C   0  0  0  0  0  0  0  0  0  0  0  0
   -1.3980   -1.1180   -0.2030 O   0  0  0  0  0  0  0  0  0  0  0  0
   -1.1130    1.1320    0.0510 N   0  0  0  0  0  0  0  0  0  0  0  0
    0.2990    0.9970   -0.0350 C   0  0  0  0  0  0  0  0  0  0  0  0
    1.0250   -0.1480   -0.2070 N   0  0  0  0  0  0  0  0  0  0  0  0
    2.3090    0.1810   -0.2310 C   0  0  0  0  0  0  0  0  0  0  0  0
    2.4370    1.5500   -0.0750 C   0  0  0  0  0  0  0  0  0  0  0  0
    3.7320    2.0270   -0.0820 C   0  0  0  0  0  0  0  0  0  0  0  0
    4.8440    1.2350   -0.2310 C   0  0  0  0  0  0  0  0  0  0  0  0
    4.6980   -0.1580   -0.3900 C   0  0  0  0  0  0  0  0  0  0  0  0
    5.7120   -1.0440   -0.5450 C   0  0  0  0  0  0  0  0  0  0  0  0
    5.3960   -2.3640   -0.6870 C   0  0  0  0  0  0  0  0  0  0  0  0
    3.5450   -2.3580   -0.5940 S   0  0  0  0  0  0  0  0  0  0  0  0
    3.4370   -0.6130   -0.3820 C   0  0  0  0  0  0  0  0  0  0  0  0
    1.1920    2.0010    0.0410 N   0  0  0  0  0  0  0  0  0  0  0  0
  1  2  2  0
  2  3  1  0
  2  4  1  0
  4  5  1  0
  5  6  1  0
  6  7  2  0
  6  8  1  0
  8  9  1  0
  9 10  2  0
  9 20  1  0
 10 11  1  0
 11 12  2  0
 11 19  1  0
 12 13  1  0
 12 20  1  0
 13 14  2  0
 14 15  1  0
 15 16  1  0
 15 19  2  0
 16 17  2  0
 17 18  1  0
 18 19  1  0
M  END
