
     RDKit          3D

 20 22  0  0  0  0  0  0  0  0999 V2000
    0.1560   -2.8280   -0.2150 N   0  0  0  0  0  0  0  0  0  0  0  0
    0.9880   -1.6730    0.0570 C   0  0  0  0  0  0  0  0  0  0  0  0
    2.2820   -2.0320    0.9790 S   0  0  0  0  0  0  0  0  0  0  0  0
    0.6630   -0.3760   -0.4610 C   0  0  0  0  0  0  0  0  0  0  0  0
    1.3850    0.6820   -0.2160 C   0  0  0  0  0  0  0  0  0  0  0  0
    2.5800    0.8280    0.5700 C   0  0  0  0  0  0  0  0  0  0  0  0
    2.8180    0.6110    1.8480 N   0  0  0  0  0  0  0  0  0  0  0  0
    4.1060    0.8640    2.0910 N   0  0  0  0  0  0  0  0  0  0  0  0
    4.7010    1.2440    0.9770 N   0  0  0  0  0  0  0  0  0  0  0  0
    3.7840    1.2330    0.0150 C   0  0  0  0  0  0  0  0  0  0  0  0
    4.0360    1.5880   -1.3510 N   0  0  0  0  0  0  0  0  0  0  0  0
   -0.5380   -0.1830   -1.3320 C   0  0  0  0  0  0  0  0  0  0  0  0
   -1.7900   -0.5020   -0.7040 N   0  0  0  0  0  0  0  0  0  0  0  0
   -2.5320   -1.6110   -0.7360 C   0  0  0  0  0  0  0  0  0  0  0  0
   -3.7070   -1.4500    0.0070 C   0  0  0  0  0  0  0  0  0  0  0  0
   -3.6600   -0.1800    0.5070 C   0  0  0  0  0  0  0  0  0  0  0  0
   -4.3330    0.6730    1.2470 O   0  0  0  0  0  0  0  0  0  0  0  0
   -3.6550    1.7890    1.3180 C   0  0  0  0  0  0  0  0  0  0  0  0
   -2.4840    1.6720    0.5950 C   0  0  0  0  0  0  0  0  0  0  0  0
   -2.4880    0.3960    0.0690 C   0  0  0  0  0  0  0  0  0  0  0  0
  1  2  1  0
  2  3  2  0
  2  4  1  0
  4  5  2  3
  4 12  1  0
  5  6  1  0
  6  7  1  0
  6 10  2  0
  7  8  1  0
  8  9  2  0
  9 10  1  0
 10 11  1  0
 12 13  1  0
 13 14  1  0
 13 20  1  0
 14 15  2  0
 15 16  1  0
 16 17  1  0
 16 20  2  0
 17 18  1  0
 18 19  2  0
 19 20  1  0
M  END
