
     RDKit          3D

 20 22  0  0  0  0  0  0  0  0999 V2000
    6.0190    0.2140   -1.3840 N   0  0  0  0  0  0  0  0  0  0  0  0
    4.6110    0.3540   -1.4620 C   0  0  0  0  0  0  0  0  0  0  0  0
    4.0900    0.8020   -2.5240 O   0  0  0  0  0  0  0  0  0  0  0  0
    3.7250    0.0170   -0.4020 N   0  0  0  0  0  0  0  0  0  0  0  0
    2.3120    0.1760   -0.5280 C   0  0  0  0  0  0  0  0  0  0  0  0
    1.7600    0.6550   -1.6650 N   0  0  0  0  0  0  0  0  0  0  0  0
    0.4240    0.7850   -1.7310 C   0  0  0  0  0  0  0  0  0  0  0  0
   -0.3650    0.4500   -0.6950 N   0  0  0  0  0  0  0  0  0  0  0  0
    0.1230   -0.0320    0.4590 C   0  0  0  0  0  0  0  0  0  0  0  0
   -0.6930   -0.3970    1.5630 N   0  0  0  0  0  0  0  0  0  0  0  0
   -2.1140   -0.2690    1.5350 C   0  0  1  0  0  0  0  0  0  0  0  0
   -2.4560    1.1890    1.3700 C   0  0  0  0  0  0  0  0  0  0  0  0
   -3.7970    1.0940    0.7090 C   0  0  0  0  0  0  0  0  0  0  0  0
   -3.6590   -0.1070   -0.2000 C   0  0  0  0  0  0  0  0  0  0  0  0
   -4.3320   -0.4890   -1.3610 C   0  0  0  0  0  0  0  0  0  0  0  0
   -3.5560   -2.0010   -1.7680 S   0  0  0  0  0  0  0  0  0  0  0  0
   -2.4640   -2.0740   -0.5040 C   0  0  0  0  0  0  0  0  0  0  0  0
   -2.7050   -0.8770    0.2740 C   0  0  0  0  0  0  0  0  0  0  0  0
    1.5030   -0.1650    0.5250 C   0  0  0  0  0  0  0  0  0  0  0  0
    2.1130   -0.6680    1.7100 N   0  0  0  0  0  0  0  0  0  0  0  0
  1  2  1  0
  2  3  2  0
  2  4  1  0
  4  5  1  0
  5  6  2  0
  5 19  1  0
  6  7  1  0
  7  8  2  0
  8  9  1  0
  9 10  1  0
  9 19  2  0
 11 10  1  6
 11 12  1  0
 11 18  1  0
 12 13  1  0
 13 14  1  0
 14 15  2  0
 14 18  1  0
 15 16  1  0
 16 17  1  0
 17 18  2  0
 19 20  1  0
M  END
