
     RDKit          3D

 11 10  0  0  0  0  0  0  0  0999 V2000
   -3.8230    0.3230    0.6360 C   0  0  0  0  0  0  0  0  0  0  0  0
   -3.0230    1.3550   -0.5940 S   0  0  0  0  0  0  0  0  0  0  0  0
   -1.9610    0.3200   -1.6560 C   0  0  0  0  0  0  0  0  0  0  0  0
   -0.8430   -0.2470   -0.8750 C   0  0  0  0  0  0  0  0  0  0  0  0
   -0.9690   -1.4150   -0.4200 O   0  0  0  0  0  0  0  0  0  0  0  0
    0.3310    0.4580   -0.6250 O   0  0  0  0  0  0  0  0  0  0  0  0
    1.3400   -0.1730    0.1310 C   0  0  2  0  0  0  0  0  0  0  0  0
    1.5900    0.5860    1.4290 C   0  0  0  0  0  0  0  0  0  0  0  0
    2.6180   -0.2650   -0.5740 C   0  0  0  0  0  0  0  0  0  0  0  0
    3.7820   -0.8320   -0.0210 N   0  0  0  0  0  0  0  0  0  0  0  0
    2.6840    0.1920   -1.7570 O   0  0  0  0  0  0  0  0  0  0  0  0
  1  2  1  0
  2  3  1  0
  3  4  1  0
  4  5  2  0
  4  6  1  0
  6  7  1  0
  7  8  1  1
  7  9  1  0
  9 10  1  0
  9 11  2  0
M  END
