
     RDKit          3D

 11 10  0  0  0  0  0  0  0  0999 V2000
   -2.0010    1.1210   -1.0360 C   0  0  0  0  0  0  0  0  0  0  0  0
   -0.8080    0.3000   -0.5430 C   0  0  2  0  0  0  0  0  0  0  0  0
    0.1240    0.0620   -1.6190 C   0  0  0  0  0  0  0  0  0  0  0  0
    0.8820   -0.1120   -2.4950 N   0  0  0  0  0  0  0  0  0  0  0  0
   -1.3480   -1.0650   -0.1190 C   0  0  0  0  0  0  0  0  0  0  0  0
   -2.2930   -0.9030    0.9070 O   0  0  0  0  0  0  0  0  0  0  0  0
   -0.0660    1.0380    0.9040 S   0  0  0  0  0  0  0  0  0  0  0  0
    1.3230    0.0630    1.4750 C   0  0  0  0  0  0  0  0  0  0  0  0
    2.5100    0.2090    0.6140 C   0  0  0  0  0  0  0  0  0  0  0  0
    2.5540    1.0400   -0.2930 O   0  0  0  0  0  0  0  0  0  0  0  0
    3.6080   -0.6270    0.8470 O   0  0  0  0  0  0  0  0  0  0  0  0
  2  1  1  6
  2  3  1  0
  2  5  1  0
  2  7  1  0
  3  4  3  0
  5  6  1  0
  7  8  1  0
  8  9  1  0
  9 10  2  0
  9 11  1  0
M  END
