
     RDKit          3D

 11 10  0  0  0  0  0  0  0  0999 V2000
    2.1690   -1.0850   -0.2840 C   0  0  0  0  0  0  0  0  0  0  0  0
    1.6440    0.3110   -0.3230 C   0  0  1  0  0  0  0  0  0  0  0  0
    0.3870    0.5940    0.4120 C   0  0  0  0  0  0  0  0  0  0  0  0
   -0.7590   -0.1220   -0.0200 N   0  0  0  0  0  0  0  0  0  0  0  0
   -0.8180   -1.5080    0.2750 C   0  0  0  0  0  0  0  0  0  0  0  0
   -1.9650    0.6110    0.1840 C   0  0  0  0  0  0  0  0  0  0  0  0
   -3.1910    0.0020   -0.4630 C   0  0  0  0  0  0  0  0  0  0  0  0
   -4.2890    0.8280   -0.1700 O   0  0  0  0  0  0  0  0  0  0  0  0
    2.9550    1.4330    0.2020 S   0  0  0  0  0  0  0  0  0  0  0  0
    3.4330    0.9710    1.5680 O   0  0  0  0  0  0  0  0  0  0  0  0
    4.2410    1.2000   -0.9140 O   0  0  0  0  0  0  0  0  0  0  0  0
  2  1  1  1
  2  3  1  0
  2  9  1  0
  3  4  1  0
  4  5  1  0
  4  6  1  0
  6  7  1  0
  7  8  1  0
  9 10  2  0
  9 11  1  6
M  END
