
     RDKit          3D

 19 21  0  0  0  0  0  0  0  0999 V2000
   -5.8400   -0.5560    0.9200 N   0  0  0  0  0  0  0  0  0  0  0  0
   -5.0520   -0.5420   -0.5860 S   0  0  2  0  0  0  0  0  0  0  0  0
   -5.5660    0.5520   -1.5010 O   0  0  0  0  0  0  0  0  0  0  0  0
   -5.3920   -1.8500   -1.2870 O   0  0  0  0  0  0  0  0  0  0  0  0
   -3.3170   -0.3830   -0.4330 C   0  0  0  0  0  0  0  0  0  0  0  0
   -2.4920   -1.4780   -0.3270 C   0  0  0  0  0  0  0  0  0  0  0  0
   -1.1300   -1.3500   -0.2060 C   0  0  0  0  0  0  0  0  0  0  0  0
   -0.5230   -0.1060   -0.1870 C   0  0  0  0  0  0  0  0  0  0  0  0
    0.9220    0.0440   -0.0590 C   0  0  0  0  0  0  0  0  0  0  0  0
    1.8230   -0.9810    0.0520 C   0  0  0  0  0  0  0  0  0  0  0  0
    3.0610   -0.3880    0.1480 C   0  0  0  0  0  0  0  0  0  0  0  0
    4.3250   -0.9370    0.2780 C   0  0  0  0  0  0  0  0  0  0  0  0
    5.4210   -0.1150    0.3550 C   0  0  0  0  0  0  0  0  0  0  0  0
    5.2640    1.2500    0.3020 C   0  0  0  0  0  0  0  0  0  0  0  0
    4.0180    1.8280    0.1720 C   0  0  0  0  0  0  0  0  0  0  0  0
    2.9110    0.9870    0.0950 C   0  0  0  0  0  0  0  0  0  0  0  0
    1.5790    1.1960   -0.0320 N   0  0  0  0  0  0  0  0  0  0  0  0
   -1.3470    0.9940   -0.2930 C   0  0  0  0  0  0  0  0  0  0  0  0
   -2.7190    0.8590   -0.4140 C   0  0  0  0  0  0  0  0  0  0  0  0
  2  1  1  1
  2  3  2  0
  2  4  2  0
  2  5  1  0
  5  6  2  0
  5 19  1  0
  6  7  1  0
  7  8  2  0
  8  9  1  0
  8 18  1  0
  9 10  2  0
  9 17  1  0
 10 11  1  0
 11 12  2  0
 11 16  1  0
 12 13  1  0
 13 14  2  0
 14 15  1  0
 15 16  2  0
 16 17  1  0
 18 19  2  0
M  END
