
     RDKit          3D

 11 10  0  0  0  0  0  0  0  0999 V2000
   -2.8050   -1.4630    0.5570 C   0  0  0  0  0  0  0  0  0  0  0  0
   -2.0480   -0.3600   -0.1670 C   0  0  0  0  0  0  0  0  0  0  0  0
   -0.9140   -0.1080    0.5170 O   0  0  0  0  0  0  0  0  0  0  0  0
   -0.0620    0.8440    0.0680 C   0  0  2  0  0  0  0  0  0  0  0  0
    1.1810    0.1850   -0.4380 C   0  0  0  0  0  0  0  0  0  0  0  0
    2.1160    0.9200   -0.9080 O   0  0  0  0  0  0  0  0  0  0  0  0
    1.2960   -1.1730   -0.3910 O   0  0  0  0  0  0  0  0  0  0  0  0
    2.4470   -1.8140   -0.8560 C   0  0  0  0  0  0  0  0  0  0  0  0
    0.3390    1.8920    0.9710 C   0  0  0  0  0  0  0  0  0  0  0  0
    1.2230    2.8890    0.5240 N   0  0  0  0  0  0  0  0  0  0  0  0
   -0.1590    2.0180    2.5010 S   0  0  0  0  0  0  0  0  0  0  0  0
  1  2  1  0
  2  3  1  0
  4  3  1  1
  4  5  1  0
  4  9  1  0
  5  6  2  0
  5  7  1  0
  7  8  1  0
  9 10  1  0
  9 11  2  0
M  END
