
     RDKit          3D

 37 38  0  0  0  0  0  0  0  0999 V2000
   10.4670    0.1660   -1.3510 C   0  0  0  0  0  0  0  0  0  0  0  0
    9.9580   -0.7260   -0.2110 C   0  0  0  0  0  0  0  0  0  0  0  0
    8.5920   -1.1580   -0.5190 C   0  0  0  0  0  0  0  0  0  0  0  0
    7.5440   -0.9210    0.2200 C   0  0  0  0  0  0  0  0  0  0  0  0
    6.3560   -1.4220   -0.2650 F   0  0  0  0  0  0  0  0  0  0  0  0
    7.5340   -0.2040    1.4690 C   0  0  0  0  0  0  0  0  0  0  0  0
    6.6280    0.0840    2.2390 N   0  0  0  0  0  0  0  0  0  0  0  0
    5.2920   -0.0080    2.4760 C   0  0  0  0  0  0  0  0  0  0  0  0
    4.8980    0.2540    3.6810 O   0  0  0  0  0  0  0  0  0  0  0  0
    4.2660   -0.3770    1.4870 C   0  0  0  0  0  0  0  0  0  0  0  0
    2.8780   -0.0390    2.0440 C   0  0  0  0  0  0  0  0  0  0  0  0
    1.8500   -0.4180    1.0450 C   0  0  0  0  0  0  0  0  0  0  0  0
    1.8210   -1.5510    0.6200 O   0  0  0  0  0  0  0  0  0  0  0  0
    0.8840    0.5970    0.5870 C   0  0  2  0  0  0  0  0  0  0  0  0
    0.1420    1.1110    1.8030 C   0  0  0  0  0  0  0  0  0  0  0  0
   -1.0400    1.9380    1.3030 C   0  0  0  0  0  0  0  0  0  0  0  0
   -2.0570    0.9280    0.8260 C   0  0  1  0  0  0  0  0  0  0  0  0
   -3.1500    1.6880    0.1370 C   0  0  0  0  0  0  0  0  0  0  0  0
   -2.7790    2.4580   -0.9950 N   0  0  0  0  0  0  0  0  0  0  0  0
   -3.3010    3.7840   -1.0620 C   0  0  2  0  0  0  0  0  0  0  0  0
   -4.0210    4.2720    0.1520 C   0  0  0  0  0  0  0  0  0  0  0  0
   -4.2660    3.9410   -2.2360 C   0  0  0  0  0  0  0  0  0  0  0  0
   -4.8090    5.3620   -2.2870 C   0  0  0  0  0  0  0  0  0  0  0  0
   -1.4100   -0.0810    0.0910 N   0  0  0  0  0  0  0  0  0  0  0  0
   -2.0420   -1.3520   -0.1020 C   0  0  0  0  0  0  0  0  0  0  0  0
   -1.4010   -2.1910   -0.8190 O   0  0  0  0  0  0  0  0  0  0  0  0
   -3.2740   -1.7030    0.4370 N   0  0  0  0  0  0  0  0  0  0  0  0
   -3.9100   -2.9460    0.2560 C   0  0  0  0  0  0  0  0  0  0  0  0
   -3.4710   -3.9900   -0.5070 C   0  0  0  0  0  0  0  0  0  0  0  0
   -4.1640   -5.1970   -0.6340 C   0  0  0  0  0  0  0  0  0  0  0  0
   -3.6820   -6.2010   -1.4020 F   0  0  0  0  0  0  0  0  0  0  0  0
   -5.3540   -5.3920    0.0240 C   0  0  0  0  0  0  0  0  0  0  0  0
   -6.1140   -6.6800   -0.0960 C   0  0  0  0  0  0  0  0  0  0  0  0
   -5.8250   -4.3590    0.8000 C   0  0  0  0  0  0  0  0  0  0  0  0
   -5.1300   -3.1770    0.9140 C   0  0  0  0  0  0  0  0  0  0  0  0
   -5.6040   -2.1560    1.6820 F   0  0  0  0  0  0  0  0  0  0  0  0
   -0.0820    0.0930   -0.4630 C   0  0  0  0  0  0  0  0  0  0  0  0
  1  2  1  0
  2  3  1  0
  3  4  2  3
  4  5  1  0
  4  6  1  0
  6  7  2  3
  7  8  1  0
  8  9  2  0
  8 10  1  0
 10 11  1  0
 11 12  1  0
 12 13  2  0
 14 12  1  1
 14 15  1  0
 14 37  1  0
 15 16  1  0
 16 17  1  0
 17 18  1  6
 17 24  1  0
 18 19  1  0
 19 20  1  0
 20 21  1  1
 20 22  1  0
 22 23  1  0
 24 25  1  0
 24 37  1  0
 25 26  2  0
 25 27  1  0
 27 28  1  0
 28 29  2  0
 28 35  1  0
 29 30  1  0
 30 31  1  0
 30 32  2  0
 32 33  1  0
 32 34  1  0
 34 35  2  0
 35 36  1  0
M  CHG  1  19   1
M  END
