
     RDKit          3D

 37 38  0  0  0  0  0  0  0  0999 V2000
    4.0210   -0.5970    3.7650 C   0  0  0  0  0  0  0  0  0  0  0  0
    3.0890   -1.6770    3.2920 C   0  0  0  0  0  0  0  0  0  0  0  0
    3.1020   -1.8140    1.7990 C   0  0  0  0  0  0  0  0  0  0  0  0
    2.7190   -0.5280    1.1620 N   0  0  0  0  0  0  0  0  0  0  0  0
    3.6680    0.4150    0.9120 C   0  0  0  0  0  0  0  0  0  0  0  0
    4.3280    0.0800   -0.8150 C   0  0  0  0  0  0  0  0  0  0  0  0
    5.1940    1.2030   -0.5980 C   0  0  0  0  0  0  0  0  0  0  0  0
    6.4090    1.3170   -1.1990 C   0  0  0  0  0  0  0  0  0  0  0  0
    6.9750    0.3180   -2.0990 C   0  0  0  0  0  0  0  0  0  0  0  0
    7.1570    2.4870   -0.9600 C   0  0  0  0  0  0  0  0  0  0  0  0
    7.7990    3.4730   -0.7400 N   0  0  0  0  0  0  0  0  0  0  0  0
    3.5580   -0.8360   -0.9440 C   0  0  0  0  0  0  0  0  0  0  0  0
    3.6110   -1.5890   -2.3040 C   0  0  0  0  0  0  0  0  0  0  0  0
    4.3980   -1.1260   -3.2570 F   0  0  0  0  0  0  0  0  0  0  0  0
    2.8470   -2.6000   -2.5070 C   0  0  0  0  0  0  0  0  0  0  0  0
    1.9770   -3.0810   -1.6060 F   0  0  0  0  0  0  0  0  0  0  0  0
    1.2810   -0.4000    0.8930 C   0  0  0  0  0  0  0  0  0  0  0  0
    0.5800   -1.4250    1.1310 O   0  0  0  0  0  0  0  0  0  0  0  0
    0.7120    0.8230    0.4030 C   0  0  0  0  0  0  0  0  0  0  0  0
   -0.4790    0.7370   -0.4500 C   0  0  0  0  0  0  0  0  0  0  0  0
   -1.7190    0.1540    0.0520 C   0  0  0  0  0  0  0  0  0  0  0  0
   -1.7450   -0.6370    1.0190 O   0  0  0  0  0  0  0  0  0  0  0  0
   -2.9760    0.4450   -0.5230 N   0  0  0  0  0  0  0  0  0  0  0  0
   -3.1280    1.3990   -1.6420 C   0  0  0  0  0  0  0  0  0  0  0  0
   -4.0690    2.4880   -1.1890 C   0  0  1  0  0  0  0  0  0  0  0  0
   -4.7840    3.0280   -2.4140 C   0  0  0  0  0  0  0  0  0  0  0  0
   -5.5340    4.2230   -2.0690 N   0  0  0  0  0  0  0  0  0  0  0  0
   -4.9730    2.1740   -0.2640 O   0  0  0  0  0  0  0  0  0  0  0  0
   -4.8950    1.1310    0.5830 C   0  0  0  0  0  0  0  0  0  0  0  0
   -4.2650   -0.0530   -0.1220 C   0  0  2  0  0  0  0  0  0  0  0  0
   -4.3430   -1.3330    0.5290 C   0  0  0  0  0  0  0  0  0  0  0  0
   -5.1990   -1.5030    1.5990 C   0  0  0  0  0  0  0  0  0  0  0  0
   -5.3560   -2.7190    2.2640 C   0  0  0  0  0  0  0  0  0  0  0  0
   -4.6150   -3.7920    1.8240 C   0  0  0  0  0  0  0  0  0  0  0  0
   -4.7900   -4.9790    2.4850 F   0  0  0  0  0  0  0  0  0  0  0  0
   -3.7620   -3.6690    0.7790 C   0  0  0  0  0  0  0  0  0  0  0  0
   -3.6150   -2.4610    0.1290 C   0  0  0  0  0  0  0  0  0  0  0  0
  1  2  1  0
  2  3  1  0
  3  4  1  0
  4  5  1  0
  4 17  1  0
  5  6  1  0
  6  7  1  0
  6 12  2  3
  7  8  2  3
  8  9  1  0
  8 10  1  0
 10 11  3  0
 12 13  1  0
 13 14  1  0
 13 15  2  3
 15 16  1  0
 17 18  2  0
 17 19  1  0
 19 20  1  0
 20 21  1  0
 21 22  2  0
 21 23  1  0
 23 24  1  0
 23 30  1  0
 24 25  1  0
 25 26  1  6
 25 28  1  0
 26 27  1  0
 28 29  1  0
 29 30  1  0
 30 31  1  1
 31 32  2  0
 31 37  1  0
 32 33  1  0
 33 34  2  0
 34 35  1  0
 34 36  1  0
 36 37  2  0
M  CHG  1  27   1
M  END
