
     RDKit          3D

 36 41  0  0  0  0  0  0  0  0999 V2000
   -3.9880    3.7470   -4.9440 N   0  0  0  0  0  0  0  0  0  0  0  0
   -3.0160    3.2040   -4.7050 C   0  0  0  0  0  0  0  0  0  0  0  0
   -1.8050    2.5210   -4.3840 C   0  0  0  0  0  0  0  0  0  0  0  0
   -0.6260    2.4090   -5.0670 C   0  0  0  0  0  0  0  0  0  0  0  0
    0.1820    1.7090   -4.2900 N   0  0  0  0  0  0  0  0  0  0  0  0
   -0.3670    1.3500   -3.1500 N   0  0  0  0  0  0  0  0  0  0  0  0
    0.0970    0.6490   -2.0560 C   0  0  0  0  0  0  0  0  0  0  0  0
   -0.7210    0.4270   -0.9660 C   0  0  0  0  0  0  0  0  0  0  0  0
   -2.0080    0.9300   -1.0210 C   0  0  0  0  0  0  0  0  0  0  0  0
   -2.3910    1.6250   -2.1390 N   0  0  0  0  0  0  0  0  0  0  0  0
   -1.6080    1.8400   -3.1780 C   0  0  0  0  0  0  0  0  0  0  0  0
   -3.0930    0.7930   -0.1100 N   0  0  0  0  0  0  0  0  0  0  0  0
   -2.9650    1.0520    1.3710 C   0  0  0  0  0  0  0  0  0  0  0  0
   -3.0680   -0.4990    1.6340 C   0  0  2  0  0  0  0  0  0  0  0  0
   -4.5210   -0.5480    1.1640 C   0  0  0  0  0  0  0  0  0  0  0  0
   -4.5000    0.3350   -0.1030 C   0  0  1  0  0  0  0  0  0  0  0  0
   -5.4380    1.4850   -0.0850 C   0  0  0  0  0  0  0  0  0  0  0  0
   -5.2480    2.2870   -1.2360 O   0  0  0  0  0  0  0  0  0  0  0  0
   -2.6960   -0.9060    2.8180 O   0  0  0  0  0  0  0  0  0  0  0  0
   -2.2470   -2.1440    3.0380 C   0  0  0  0  0  0  0  0  0  0  0  0
   -0.9030   -2.6740    2.6970 C   0  0  0  0  0  0  0  0  0  0  0  0
    0.3090   -2.6520    2.8940 C   0  0  0  0  0  0  0  0  0  0  0  0
    1.7730   -2.8730    2.8860 C   0  0  0  0  0  0  0  0  0  0  0  0
    2.5990   -2.2740    1.9970 O   0  0  0  0  0  0  0  0  0  0  0  0
    2.7910   -1.5110    0.9180 C   0  0  0  0  0  0  0  0  0  0  0  0
    1.8920   -1.2380   -0.1440 C   0  0  0  0  0  0  0  0  0  0  0  0
    2.3100   -0.3670   -1.1740 C   0  0  0  0  0  0  0  0  0  0  0  0
    3.5660    0.1830   -1.1430 C   0  0  0  0  0  0  0  0  0  0  0  0
    4.4920   -0.0690   -0.1140 C   0  0  0  0  0  0  0  0  0  0  0  0
    4.0660   -0.9020    0.8720 C   0  0  0  0  0  0  0  0  0  0  0  0
    5.0330   -1.1390    1.9190 N   0  0  0  0  0  0  0  0  0  0  0  0
    6.3180   -0.5520    1.9150 C   0  0  0  0  0  0  0  0  0  0  0  0
    7.2550   -1.0000    2.6080 O   0  0  0  0  0  0  0  0  0  0  0  0
    6.5890    0.6490    1.0600 C   0  0  0  0  0  0  0  0  0  0  0  0
    5.8360    0.5570   -0.2280 C   0  0  0  0  0  0  0  0  0  0  0  0
    1.4760    0.2060   -2.2240 N   0  0  0  0  0  0  0  0  0  0  0  0
  1  2  3  0
  2  3  1  0
  3  4  1  0
  3 11  2  0
  4  5  2  0
  5  6  1  0
  6  7  1  0
  6 11  1  0
  7  8  2  0
  7 36  1  0
  8  9  1  0
  9 10  2  0
  9 12  1  0
 10 11  1  0
 12 13  1  0
 12 16  1  0
 13 14  1  0
 14 15  1  1
 14 19  1  0
 15 16  1  0
 16 17  1  1
 17 18  1  0
 19 20  1  0
 20 21  1  0
 21 22  2  0
 22 23  1  0
 23 24  1  0
 24 25  1  0
 25 26  2  0
 25 30  1  0
 26 27  1  0
 27 28  2  0
 27 36  1  0
 28 29  1  0
 29 30  2  0
 29 35  1  0
 30 31  1  0
 31 32  1  0
 32 33  2  0
 32 34  1  0
 34 35  1  0
M  END
