
     RDKit          3D

 25 26  0  0  0  0  0  0  0  0999 V2000
   -7.3850   -2.2420    0.5000 C   0  0  0  0  0  0  0  0  0  0  0  0
   -7.8970   -1.0330   -0.0340 O   0  0  0  0  0  0  0  0  0  0  0  0
   -7.0670    0.0720   -0.1820 C   0  0  0  0  0  0  0  0  0  0  0  0
   -7.5400    1.2380   -0.6920 C   0  0  0  0  0  0  0  0  0  0  0  0
   -6.6940    2.3090   -0.8230 C   0  0  0  0  0  0  0  0  0  0  0  0
   -5.4040    2.1750   -0.4400 N   0  0  0  0  0  0  0  0  0  0  0  0
   -4.9240    1.0270    0.0650 C   0  0  0  0  0  0  0  0  0  0  0  0
   -3.4770    0.9540    0.4690 C   0  0  0  0  0  0  0  0  0  0  0  0
   -2.7130    0.4990   -0.7280 C   0  0  0  0  0  0  0  0  0  0  0  0
   -1.2950    0.3720   -0.5350 N   0  0  0  0  0  0  0  0  0  0  0  0
   -0.7870   -0.5190    0.4220 C   0  0  0  0  0  0  0  0  0  0  0  0
   -1.6310   -1.1930    1.0920 O   0  0  0  0  0  0  0  0  0  0  0  0
    0.6120   -0.7610    0.7380 C   0  0  0  0  0  0  0  0  0  0  0  0
    1.5740   -0.0070   -0.0100 N   0  0  0  0  0  0  0  0  0  0  0  0
    2.9830   -0.2000    0.2540 C   0  0  0  0  0  0  0  0  0  0  0  0
    3.3060   -1.0230    1.1320 O   0  0  0  0  0  0  0  0  0  0  0  0
    3.9780    0.5030   -0.4390 N   0  0  0  0  0  0  0  0  0  0  0  0
    5.3680    0.4180   -0.2880 C   0  0  0  0  0  0  0  0  0  0  0  0
    6.1760    1.2070   -1.0810 C   0  0  0  0  0  0  0  0  0  0  0  0
    7.5230    1.1820   -0.9950 N   0  0  0  0  0  0  0  0  0  0  0  0
    8.1420    0.3790   -0.1250 C   0  0  0  0  0  0  0  0  0  0  0  0
    7.4070   -0.4240    0.6850 C   0  0  0  0  0  0  0  0  0  0  0  0
    8.0800   -1.3160    1.6510 C   0  0  0  0  0  0  0  0  0  0  0  0
    6.0190   -0.3980    0.5960 C   0  0  0  0  0  0  0  0  0  0  0  0
   -5.7590   -0.0150    0.1910 N   0  0  0  0  0  0  0  0  0  0  0  0
  1  2  1  0
  2  3  1  0
  3  4  2  0
  3 25  1  0
  4  5  1  0
  5  6  2  0
  6  7  1  0
  7  8  1  0
  7 25  2  0
  8  9  1  0
  9 10  1  0
 10 11  1  0
 11 12  2  0
 11 13  1  0
 13 14  1  0
 14 15  1  0
 15 16  2  0
 15 17  1  0
 17 18  1  0
 18 19  2  0
 18 24  1  0
 19 20  1  0
 20 21  2  0
 21 22  1  0
 22 23  1  0
 22 24  2  0
M  END
