
     RDKit          3D

 25 26  0  0  0  0  0  0  0  0999 V2000
   -3.3210    3.6450   -0.6520 C   0  0  0  0  0  0  0  0  0  0  0  0
   -3.5490    2.4340   -0.0030 O   0  0  0  0  0  0  0  0  0  0  0  0
   -3.3680    1.1810   -0.5180 C   0  0  0  0  0  0  0  0  0  0  0  0
   -4.4300    0.5760   -1.1710 C   0  0  0  0  0  0  0  0  0  0  0  0
   -5.7150    1.3070   -1.2850 C   0  0  0  0  0  0  0  0  0  0  0  0
   -4.2860   -0.6570   -1.6900 N   0  0  0  0  0  0  0  0  0  0  0  0
   -3.0880   -1.3130   -1.5720 C   0  0  0  0  0  0  0  0  0  0  0  0
   -2.9170   -2.6560   -2.1370 C   0  0  0  0  0  0  0  0  0  0  0  0
   -2.0540   -0.7310   -0.9390 N   0  0  0  0  0  0  0  0  0  0  0  0
   -0.8180   -1.4370   -0.8260 C   0  0  0  0  0  0  0  0  0  0  0  0
   -0.6940   -2.2810    0.4220 C   0  0  0  0  0  0  0  0  0  0  0  0
    0.6610   -2.9480    0.3750 C   0  0  0  0  0  0  0  0  0  0  0  0
    1.7640   -2.0100    0.3330 N   0  0  0  0  0  0  0  0  0  0  0  0
    2.0400   -1.0490    1.3310 C   0  0  0  0  0  0  0  0  0  0  0  0
    1.2300   -1.0510    2.3220 O   0  0  0  0  0  0  0  0  0  0  0  0
    3.1270   -0.1090    1.3080 C   0  0  0  0  0  0  0  0  0  0  0  0
    3.9990   -0.0380    0.3400 C   0  0  0  0  0  0  0  0  0  0  0  0
    5.1200    0.9410    0.3280 C   0  0  2  0  0  0  0  0  0  0  0  0
    6.3620    0.1460    0.5050 C   0  0  0  0  0  0  0  0  0  0  0  0
    6.8970    0.5230    1.5940 N   0  0  0  0  0  0  0  0  0  0  0  0
    6.1620    1.5110    2.2180 N   0  0  0  0  0  0  0  0  0  0  0  0
    5.1100    1.8010    1.5280 C   0  0  0  0  0  0  0  0  0  0  0  0
    4.1250    2.7620    1.8470 N   0  0  0  0  0  0  0  0  0  0  0  0
   -2.1680    0.4920   -0.4150 C   0  0  0  0  0  0  0  0  0  0  0  0
   -1.2110    1.0430    0.1760 O   0  0  0  0  0  0  0  0  0  0  0  0
  1  2  1  0
  2  3  1  0
  3  4  2  0
  3 24  1  0
  4  5  1  0
  4  6  1  0
  6  7  2  0
  7  8  1  0
  7  9  1  0
  9 10  1  0
  9 24  1  0
 10 11  1  0
 11 12  1  0
 12 13  1  0
 13 14  1  0
 14 15  2  0
 14 16  1  0
 16 17  2  3
 18 17  1  1
 18 19  1  0
 18 22  1  0
 19 20  2  0
 20 21  1  0
 21 22  2  0
 22 23  1  0
 24 25  2  0
M  END
