
     RDKit          3D

 25 26  0  0  0  0  0  0  0  0999 V2000
    4.8930   -1.6780   -1.0400 C   0  0  0  0  0  0  0  0  0  0  0  0
    4.8470   -0.2080   -0.6890 C   0  0  0  0  0  0  0  0  0  0  0  0
    3.8590   -0.0720    0.3920 N   0  0  0  0  0  0  0  0  0  0  0  0
    2.5030   -0.4520    0.2110 C   0  0  0  0  0  0  0  0  0  0  0  0
    2.1390   -0.9150   -0.8990 O   0  0  0  0  0  0  0  0  0  0  0  0
    1.5580   -0.3130    1.2720 N   0  0  0  0  0  0  0  0  0  0  0  0
    0.2110   -0.6800    1.1190 C   0  0  0  0  0  0  0  0  0  0  0  0
   -0.3050   -1.9190    1.3840 C   0  0  0  0  0  0  0  0  0  0  0  0
    0.4360   -3.1070    1.8780 C   0  0  0  0  0  0  0  0  0  0  0  0
    1.2580   -3.7780    0.8260 C   0  0  0  0  0  0  0  0  0  0  0  0
   -1.6130   -1.8890    1.1200 N   0  0  0  0  0  0  0  0  0  0  0  0
   -1.9660   -0.6480    0.6860 N   0  0  0  0  0  0  0  0  0  0  0  0
   -3.3480   -0.4190    0.3540 C   0  0  0  0  0  0  0  0  0  0  0  0
   -3.6590   -0.7440   -1.0650 C   0  0  0  0  0  0  0  0  0  0  0  0
   -3.4200   -2.0530   -1.3560 O   0  0  0  0  0  0  0  0  0  0  0  0
   -4.1420   -3.0050   -0.7030 C   0  0  0  0  0  0  0  0  0  0  0  0
   -0.8760    0.1130    0.6740 C   0  0  0  0  0  0  0  0  0  0  0  0
   -0.6570    1.4630    0.3460 N   0  0  0  0  0  0  0  0  0  0  0  0
   -1.4750    2.4540   -0.1860 C   0  0  0  0  0  0  0  0  0  0  0  0
   -2.6390    2.2050   -0.5010 O   0  0  0  0  0  0  0  0  0  0  0  0
   -0.9500    3.8370   -0.3840 C   0  0  0  0  0  0  0  0  0  0  0  0
   -1.6400    4.8470   -0.8790 C   0  0  0  0  0  0  0  0  0  0  0  0
   -0.7720    6.0480   -0.9160 C   0  0  0  0  0  0  0  0  0  0  0  0
    0.4910    5.5340   -0.3660 C   0  0  0  0  0  0  0  0  0  0  0  0
    0.3590    4.2720   -0.0720 N   0  0  0  0  0  0  0  0  0  0  0  0
  1  2  1  0
  2  3  1  0
  3  4  1  0
  4  5  2  0
  4  6  1  0
  6  7  1  0
  7  8  1  0
  7 17  2  0
  8  9  1  0
  8 11  2  0
  9 10  1  0
 11 12  1  0
 12 13  1  0
 12 17  1  0
 13 14  1  0
 14 15  1  0
 15 16  1  0
 17 18  1  0
 18 19  1  0
 19 20  2  0
 19 21  1  0
 21 22  2  0
 21 25  1  0
 22 23  1  0
 23 24  1  0
 24 25  2  0
M  END
