
     RDKit          3D

 25 26  0  0  0  0  0  0  0  0999 V2000
    7.3800    0.8770   -0.5550 C   0  0  0  0  0  0  0  0  0  0  0  0
    6.1950    1.6690   -1.0390 C   0  0  0  0  0  0  0  0  0  0  0  0
    5.4300    0.9320   -2.1040 C   0  0  0  0  0  0  0  0  0  0  0  0
    4.9140   -0.3280   -1.6700 N   0  0  0  0  0  0  0  0  0  0  0  0
    4.0060   -0.4220   -0.5930 C   0  0  0  0  0  0  0  0  0  0  0  0
    3.6630    0.6510   -0.0210 O   0  0  0  0  0  0  0  0  0  0  0  0
    3.4700   -1.5920   -0.1210 O   0  0  0  0  0  0  0  0  0  0  0  0
    2.5730   -1.6850    0.9430 C   0  0  0  0  0  0  0  0  0  0  0  0
    1.2850   -0.9190    0.7110 C   0  0  0  0  0  0  0  0  0  0  0  0
    0.4340   -1.1280    1.9590 C   0  0  0  0  0  0  0  0  0  0  0  0
   -0.8270   -0.4590    1.8890 N   0  0  0  0  0  0  0  0  0  0  0  0
   -1.7630   -0.7580    0.8660 C   0  0  0  0  0  0  0  0  0  0  0  0
   -1.5920   -1.6750   -0.1310 N   0  0  0  0  0  0  0  0  0  0  0  0
   -2.6580   -1.7020   -0.9130 N   0  0  0  0  0  0  0  0  0  0  0  0
   -3.2210   -2.2690   -2.0000 C   0  0  0  0  0  0  0  0  0  0  0  0
   -2.6410   -3.3240   -2.8770 C   0  0  0  0  0  0  0  0  0  0  0  0
   -4.4110   -1.7030   -2.1470 N   0  0  0  0  0  0  0  0  0  0  0  0
   -4.6300   -0.7980   -1.1980 N   0  0  0  0  0  0  0  0  0  0  0  0
   -3.5340   -0.8020   -0.4310 C   0  0  0  0  0  0  0  0  0  0  0  0
   -3.0070   -0.1850    0.6910 C   0  0  0  0  0  0  0  0  0  0  0  0
   -3.5440    0.7480    1.4500 C   0  0  0  0  0  0  0  0  0  0  0  0
   -4.8690    1.3030    1.1950 C   0  0  0  0  0  0  0  0  0  0  0  0
   -5.4060    2.2360    1.9550 C   0  0  0  0  0  0  0  0  0  0  0  0
   -6.7490    2.8110    1.7120 C   0  0  0  0  0  0  0  0  0  0  0  0
   -6.6550    4.2010    1.4970 O   0  0  0  0  0  0  0  0  0  0  0  0
  1  2  1  0
  2  3  1  0
  3  4  1  0
  4  5  1  0
  5  6  2  0
  5  7  1  0
  7  8  1  0
  8  9  1  0
  9 10  1  0
 10 11  1  0
 11 12  1  0
 12 13  2  0
 12 20  1  0
 13 14  1  0
 14 15  1  0
 14 19  1  0
 15 16  1  0
 15 17  2  0
 17 18  1  0
 18 19  2  0
 19 20  1  0
 20 21  2  3
 21 22  1  0
 22 23  2  3
 23 24  1  0
 24 25  1  0
M  END
