
     RDKit          3D

 25 26  0  0  0  0  0  0  0  0999 V2000
   -3.7380   -3.6540    1.1490 C   0  0  0  0  0  0  0  0  0  0  0  0
   -2.8440   -3.8950    0.0180 N   0  0  0  0  0  0  0  0  0  0  0  0
   -1.6910   -3.0870   -0.0700 C   0  0  0  0  0  0  0  0  0  0  0  0
   -0.3300   -3.6590   -0.1340 C   0  0  0  0  0  0  0  0  0  0  0  0
   -1.8390   -1.7450   -0.0950 C   0  0  0  0  0  0  0  0  0  0  0  0
   -0.6620   -0.9560   -0.1830 C   0  0  0  0  0  0  0  0  0  0  0  0
   -0.5340    0.3630   -0.2220 C   0  0  0  0  0  0  0  0  0  0  0  0
   -1.6810    1.2010   -0.1740 C   0  0  0  0  0  0  0  0  0  0  0  0
   -2.8440    0.6400   -0.0480 O   0  0  0  0  0  0  0  0  0  0  0  0
   -1.7720    2.6010   -0.2480 N   0  0  0  0  0  0  0  0  0  0  0  0
   -3.1010    3.2560   -0.1670 C   0  0  0  0  0  0  0  0  0  0  0  0
   -2.9040    4.7240   -0.2710 C   0  0  0  0  0  0  0  0  0  0  0  0
   -1.9430    5.5930   -0.4090 C   0  0  0  0  0  0  0  0  0  0  0  0
   -2.8590    6.6460   -0.3880 N   0  0  0  0  0  0  0  0  0  0  0  0
   -3.8270    5.8300   -0.2530 C   0  0  0  0  0  0  0  0  0  0  0  0
    0.8660    0.8040   -0.3170 C   0  0  0  0  0  0  0  0  0  0  0  0
    1.8880   -0.0910   -0.5380 N   0  0  0  0  0  0  0  0  0  0  0  0
    3.0560    0.5090   -0.5430 N   0  0  0  0  0  0  0  0  0  0  0  0
    4.3430   -0.1520   -0.7520 C   0  0  0  0  0  0  0  0  0  0  0  0
    4.9390   -0.6070    0.5610 C   0  0  0  0  0  0  0  0  0  0  0  0
    4.1400   -1.5150    1.2420 O   0  0  0  0  0  0  0  0  0  0  0  0
    3.8980   -2.6890    0.5630 C   0  0  0  0  0  0  0  0  0  0  0  0
    2.8060    1.7960   -0.3250 C   0  0  0  0  0  0  0  0  0  0  0  0
    3.6790    2.6920   -0.2610 O   0  0  0  0  0  0  0  0  0  0  0  0
    1.4560    1.9840   -0.1840 N   0  0  0  0  0  0  0  0  0  0  0  0
  1  2  1  0
  2  3  1  0
  3  4  1  0
  3  5  2  3
  5  6  1  0
  6  7  2  3
  7  8  1  0
  7 16  1  0
  8  9  2  0
  8 10  1  0
 10 11  1  0
 11 12  1  0
 12 13  2  0
 12 15  1  0
 13 14  1  0
 14 15  2  0
 16 17  2  0
 16 25  1  0
 17 18  1  0
 18 19  1  0
 18 23  1  0
 19 20  1  0
 20 21  1  0
 21 22  1  0
 23 24  2  0
 23 25  1  0
M  END
