
     RDKit          3D

 23 23  0  0  0  0  0  0  0  0999 V2000
    0.6130   -2.7740   -2.3300 O   0  0  0  0  0  0  0  0  0  0  0  0
    0.4120   -1.6060   -1.8510 C   0  0  0  0  0  0  0  0  0  0  0  0
   -0.5210   -0.7200   -2.5740 C   0  0  0  0  0  0  0  0  0  0  0  0
   -1.8490   -1.1110   -2.4500 O   0  0  0  0  0  0  0  0  0  0  0  0
   -2.3090   -1.1350   -1.1610 C   0  0  2  0  0  0  0  0  0  0  0  0
   -3.5000   -1.8970   -1.1590 O   0  0  0  0  0  0  0  0  0  0  0  0
   -2.6840    0.2230   -0.6170 C   0  0  1  0  0  0  0  0  0  0  0  0
   -3.8860    0.5870   -1.2550 O   0  0  0  0  0  0  0  0  0  0  0  0
   -2.9860    0.0590    0.8610 C   0  0  0  0  0  0  0  0  0  0  0  0
   -2.0610    0.8900    1.7240 C   0  0  1  0  0  0  0  0  0  0  0  0
   -2.7220    1.3440    2.8730 O   0  0  0  0  0  0  0  0  0  0  0  0
   -0.8550    0.1080    2.1690 C   0  0  2  0  0  0  0  0  0  0  0  0
   -0.9070   -0.1780    3.5490 O   0  0  0  0  0  0  0  0  0  0  0  0
    0.3870    0.9270    1.8850 C   0  0  0  0  0  0  0  0  0  0  0  0
    1.4790    0.0880    1.2500 C   0  0  2  0  0  0  0  0  0  0  0  0
    2.7000    0.5910    1.6680 O   0  0  0  0  0  0  0  0  0  0  0  0
    1.3470    0.0180   -0.2440 C   0  0  1  0  0  0  0  0  0  0  0  0
    2.5100    0.5840   -0.9850 C   0  0  1  0  0  0  0  0  0  0  0  0
    2.7730    1.8660   -0.5390 O   0  0  0  0  0  0  0  0  0  0  0  0
    3.7370   -0.2870   -0.9490 C   0  0  1  0  0  0  0  0  0  0  0  0
    3.5120   -1.5670   -1.3860 O   0  0  0  0  0  0  0  0  0  0  0  0
    4.7010    0.2840   -1.7850 O   0  0  0  0  0  0  0  0  0  0  0  0
    1.0870   -1.2880   -0.7060 O   0  0  0  0  0  0  0  0  0  0  0  0
  1  2  2  0
  2  3  1  0
  2 23  1  0
  3  4  1  0
  4  5  1  0
  5  6  1  6
  5  7  1  0
  7  8  1  6
  7  9  1  0
  9 10  1  0
 10 11  1  1
 10 12  1  0
 12 13  1  1
 12 14  1  0
 14 15  1  0
 15 16  1  6
 15 17  1  0
 17 18  1  0
 17 23  1  1
 18 19  1  1
 18 20  1  0
 20 21  1  6
 20 22  1  0
M  END
