
     RDKit          3D

 23 23  0  0  0  0  0  0  0  0999 V2000
    5.3230    0.4170    0.8140 C   0  0  0  0  0  0  0  0  0  0  0  0
    4.4070    0.3610   -0.4170 C   0  0  2  0  0  0  0  0  0  0  0  0
    5.2540    0.6740   -1.5070 O   0  0  0  0  0  0  0  0  0  0  0  0
    3.3920    1.4300   -0.3020 C   0  0  2  0  0  0  0  0  0  0  0  0
    3.6520    2.2600    0.8150 O   0  0  0  0  0  0  0  0  0  0  0  0
    2.0920    1.0120   -0.1910 O   0  0  0  0  0  0  0  0  0  0  0  0
    2.0070   -0.2810    0.3120 C   0  0  1  0  0  0  0  0  0  0  0  0
    0.5690   -0.5900    0.6350 C   0  0  2  0  0  0  0  0  0  0  0  0
    0.4400   -1.8810    1.1440 O   0  0  0  0  0  0  0  0  0  0  0  0
   -0.2530   -0.4650   -0.6140 C   0  0  0  0  0  0  0  0  0  0  0  0
   -1.6160   -0.7030   -0.4110 O   0  0  0  0  0  0  0  0  0  0  0  0
   -2.4280    0.0120    0.4330 C   0  0  0  0  0  0  0  0  0  0  0  0
   -1.9260    0.9510    1.0760 O   0  0  0  0  0  0  0  0  0  0  0  0
   -3.8730   -0.2700    0.6230 C   0  0  2  0  0  0  0  0  0  0  0  0
   -4.0820   -1.6930    1.1460 C   0  0  0  0  0  0  0  0  0  0  0  0
   -5.4360   -1.9080    1.3050 O   0  0  0  0  0  0  0  0  0  0  0  0
   -4.6370   -0.1850   -0.6820 C   0  0  0  0  0  0  0  0  0  0  0  0
   -4.5320    1.1870   -1.3070 C   0  0  2  0  0  0  0  0  0  0  0  0
   -5.0470    2.1700   -0.4580 O   0  0  0  0  0  0  0  0  0  0  0  0
   -5.2940    1.1730   -2.4720 O   0  0  0  0  0  0  0  0  0  0  0  0
    2.5150   -1.1180   -0.6790 O   0  0  0  0  0  0  0  0  0  0  0  0
    3.9000   -1.0130   -0.6260 C   0  0  1  0  0  0  0  0  0  0  0  0
    4.4580   -1.6240   -1.7550 O   0  0  0  0  0  0  0  0  0  0  0  0
  2  1  1  1
  2  3  1  0
  2  4  1  0
  2 22  1  0
  4  5  1  1
  4  6  1  0
  7  6  1  6
  7  8  1  0
  7 21  1  0
  8  9  1  6
  8 10  1  0
 10 11  1  0
 11 12  1  0
 12 13  2  0
 12 14  1  0
 14 15  1  6
 14 17  1  0
 15 16  1  0
 17 18  1  0
 18 19  1  1
 18 20  1  0
 21 22  1  0
 22 23  1  6
M  END
