
     RDKit          3D

 24 24  0  0  0  0  0  0  0  0999 V2000
    1.1550    0.0550   -3.2750 O   0  0  0  0  0  0  0  0  0  0  0  0
    1.4840   -0.8850   -2.3000 C   0  0  0  0  0  0  0  0  0  0  0  0
    2.0330   -0.2290   -1.0640 C   0  0  2  0  0  0  0  0  0  0  0  0
    1.1580    0.6610   -0.4610 O   0  0  0  0  0  0  0  0  0  0  0  0
    0.9650    0.3010    0.8420 C   0  0  1  0  0  0  0  0  0  0  0  0
    1.7750    1.2470    1.5620 O   0  0  0  0  0  0  0  0  0  0  0  0
   -0.3920    0.3200    1.3920 C   0  0  1  0  0  0  0  0  0  0  0  0
   -0.9100    1.7680    1.2620 C   0  0  0  0  0  0  0  0  0  0  0  0
   -0.8870    2.0580   -0.0770 O   0  0  0  0  0  0  0  0  0  0  0  0
   -1.3190    3.3240   -0.4030 C   0  0  2  0  0  0  0  0  0  0  0  0
   -2.3380    3.2960   -1.3240 O   0  0  0  0  0  0  0  0  0  0  0  0
   -0.2610    4.1090   -0.9200 O   0  0  0  0  0  0  0  0  0  0  0  0
   -1.4440   -0.5780    0.9680 C   0  0  1  0  0  0  0  0  0  0  0  0
   -2.5910   -0.2210    1.7450 O   0  0  0  0  0  0  0  0  0  0  0  0
   -1.9230   -0.3490   -0.4570 C   0  0  0  0  0  0  0  0  0  0  0  0
   -2.7120   -1.4810   -0.7680 O   0  0  0  0  0  0  0  0  0  0  0  0
   -1.8590   -2.5580   -0.9970 C   0  0  0  0  0  0  0  0  0  0  0  0
   -0.8260   -2.6430   -0.0630 O   0  0  0  0  0  0  0  0  0  0  0  0
   -1.2910   -2.0400    1.1120 C   0  0  1  0  0  0  0  0  0  0  0  0
   -0.5710   -2.5180    2.3280 C   0  0  0  0  0  0  0  0  0  0  0  0
   -1.0820   -1.8840    3.4360 O   0  0  0  0  0  0  0  0  0  0  0  0
    3.3200    0.5120   -1.4130 C   0  0  1  0  0  0  0  0  0  0  0  0
    3.9100    1.0330   -0.2640 O   0  0  0  0  0  0  0  0  0  0  0  0
    4.2140   -0.3730   -2.0090 O   0  0  0  0  0  0  0  0  0  0  0  0
  1  2  1  0
  3  2  1  6
  3  4  1  0
  3 22  1  0
  4  5  1  0
  5  6  1  1
  5  7  1  0
  7  8  1  6
  7 13  1  0
  8  9  1  0
  9 10  1  0
 10 11  1  6
 10 12  1  0
 13 14  1  1
 13 15  1  0
 13 19  1  0
 15 16  1  0
 16 17  1  0
 17 18  1  0
 18 19  1  0
 19 20  1  1
 20 21  1  0
 22 23  1  1
 22 24  1  0
M  END
