
     RDKit          3D

 23 23  0  0  0  0  0  0  0  0999 V2000
    2.9970   -1.3630   -1.0240 C   0  0  0  0  0  0  0  0  0  0  0  0
    2.1470   -0.1720   -0.9150 C   0  0  2  0  0  0  0  0  0  0  0  0
    1.5790    0.1990   -2.1330 O   0  0  0  0  0  0  0  0  0  0  0  0
    3.0400    0.9140   -0.6350 O   0  0  0  0  0  0  0  0  0  0  0  0
    1.0570   -0.1810    0.1390 C   0  0  1  0  0  0  0  0  0  0  0  0
    1.5130   -0.5690    1.5000 C   0  0  0  0  0  0  0  0  0  0  0  0
    2.5740    0.3350    2.0740 C   0  0  0  0  0  0  0  0  0  0  0  0
    2.1970    1.6520    2.1920 O   0  0  0  0  0  0  0  0  0  0  0  0
    0.6460    1.1480    0.1810 O   0  0  0  0  0  0  0  0  0  0  0  0
   -0.6330    1.4360    0.4660 C   0  0  1  0  0  0  0  0  0  0  0  0
   -0.7270    2.8660    1.0130 C   0  0  0  0  0  0  0  0  0  0  0  0
   -2.0770    3.1670    1.3090 O   0  0  0  0  0  0  0  0  0  0  0  0
   -1.4460    1.4730   -0.6980 O   0  0  0  0  0  0  0  0  0  0  0  0
   -1.9810    0.1960   -0.8130 C   0  0  2  0  0  0  0  0  0  0  0  0
   -2.0240   -0.2060   -2.2460 C   0  0  0  0  0  0  0  0  0  0  0  0
   -2.8410    0.7390   -2.9110 O   0  0  0  0  0  0  0  0  0  0  0  0
   -3.4470    0.2190   -0.3380 C   0  0  0  0  0  0  0  0  0  0  0  0
   -3.9890   -1.0590   -0.4510 O   0  0  0  0  0  0  0  0  0  0  0  0
   -1.3260   -0.6230    0.0450 O   0  0  0  0  0  0  0  0  0  0  0  0
   -0.0890   -1.0850   -0.3020 C   0  0  2  0  0  0  0  0  0  0  0  0
    0.0280   -2.4240    0.3510 C   0  0  0  0  0  0  0  0  0  0  0  0
    0.9850   -3.2070    0.2330 O   0  0  0  0  0  0  0  0  0  0  0  0
   -1.0110   -2.9000    1.1890 O   0  0  0  0  0  0  0  0  0  0  0  0
  2  1  1  6
  2  3  1  0
  2  4  1  0
  2  5  1  0
  5  6  1  1
  5  9  1  0
  5 20  1  0
  6  7  1  0
  7  8  1  0
  9 10  1  0
 10 11  1  6
 10 13  1  0
 11 12  1  0
 13 14  1  0
 14 15  1  6
 14 17  1  0
 14 19  1  0
 15 16  1  0
 17 18  1  0
 19 20  1  0
 20 21  1  1
 21 22  2  0
 21 23  1  0
M  END
