
     RDKit          3D

 23 23  0  0  0  0  0  0  0  0999 V2000
   -4.3760    1.0340   -0.5990 O   0  0  0  0  0  0  0  0  0  0  0  0
   -3.3850    1.1890    0.1900 C   0  0  0  0  0  0  0  0  0  0  0  0
   -3.5750    1.8940    1.3490 O   0  0  0  0  0  0  0  0  0  0  0  0
   -2.1800    0.6220   -0.1980 O   0  0  0  0  0  0  0  0  0  0  0  0
   -2.0000   -0.0980   -1.3880 C   0  0  1  0  0  0  0  0  0  0  0  0
   -1.0230    0.5600   -2.3380 C   0  0  0  0  0  0  0  0  0  0  0  0
   -0.7750    2.0120   -1.9980 C   0  0  1  0  0  0  0  0  0  0  0  0
   -1.9530    2.7280   -1.8530 O   0  0  0  0  0  0  0  0  0  0  0  0
    0.1000    2.1220   -0.7700 C   0  0  0  0  0  0  0  0  0  0  0  0
    0.8910    0.9670   -0.7380 O   0  0  0  0  0  0  0  0  0  0  0  0
    1.9990    1.1820    0.0590 C   0  0  2  0  0  0  0  0  0  0  0  0
    3.0920    1.3650   -0.7830 O   0  0  0  0  0  0  0  0  0  0  0  0
    2.2020   -0.0560    0.9190 C   0  0  1  0  0  0  0  0  0  0  0  0
    3.4130   -0.0760    1.5610 O   0  0  0  0  0  0  0  0  0  0  0  0
    4.2110   -1.1650    1.2320 C   0  0  0  0  0  0  0  0  0  0  0  0
    4.4800   -1.1660   -0.1310 O   0  0  0  0  0  0  0  0  0  0  0  0
    1.0620   -0.1610    1.9100 C   0  0  0  0  0  0  0  0  0  0  0  0
   -0.1670   -0.2910    1.2650 O   0  0  0  0  0  0  0  0  0  0  0  0
   -0.4040   -1.6270    1.0720 C   0  0  0  0  0  0  0  0  0  0  0  0
   -1.6580   -1.9230    0.2990 C   0  0  2  0  0  0  0  0  0  0  0  0
   -2.7240   -1.3690    1.0010 O   0  0  0  0  0  0  0  0  0  0  0  0
   -1.8420   -3.3240    0.3490 O   0  0  0  0  0  0  0  0  0  0  0  0
   -1.6030   -1.5320   -1.1300 C   0  0  0  0  0  0  0  0  0  0  0  0
  1  2  2  0
  2  3  1  0
  2  4  1  0
  5  4  1  1
  5  6  1  0
  5 23  1  0
  6  7  1  0
  7  8  1  1
  7  9  1  0
  9 10  1  0
 10 11  1  0
 11 12  1  6
 11 13  1  0
 13 14  1  1
 13 17  1  0
 14 15  1  0
 15 16  1  0
 17 18  1  0
 18 19  1  0
 19 20  1  0
 20 21  1  1
 20 22  1  0
 20 23  1  0
M  END
