
     RDKit          3D

 29 33  0  0  0  0  0  0  0  0999 V2000
   -7.0950   -1.1410    1.8600 C   0  0  0  0  0  0  0  0  0  0  0  0
   -7.1460    0.0600    0.9520 C   0  0  1  0  0  0  0  0  0  0  0  0
   -6.4780    1.2840    1.4740 C   0  0  0  0  0  0  0  0  0  0  0  0
   -6.9040   -0.2710   -0.4790 C   0  0  0  0  0  0  0  0  0  0  0  0
   -5.7050   -0.8870   -0.8640 N   0  0  0  0  0  0  0  0  0  0  0  0
   -4.3700   -0.4660   -0.6530 C   0  0  0  0  0  0  0  0  0  0  0  0
   -3.7670   -0.2770    0.5620 C   0  0  0  0  0  0  0  0  0  0  0  0
   -2.4590    0.1670    0.6360 C   0  0  0  0  0  0  0  0  0  0  0  0
   -1.7220    0.4310   -0.4930 C   0  0  0  0  0  0  0  0  0  0  0  0
   -2.3060    0.2470   -1.7360 C   0  0  0  0  0  0  0  0  0  0  0  0
   -3.5950   -0.1900   -1.7830 C   0  0  0  0  0  0  0  0  0  0  0  0
   -1.5540    0.5150   -2.8520 O   0  0  0  0  0  0  0  0  0  0  0  0
   -0.2500    0.9600   -2.9380 C   0  0  0  0  0  0  0  0  0  0  0  0
    0.3860    1.1610   -1.6050 C   0  0  0  0  0  0  0  0  0  0  0  0
    1.6800    1.5990   -1.5020 C   0  0  0  0  0  0  0  0  0  0  0  0
    2.2740    1.7870   -0.2860 C   0  0  0  0  0  0  0  0  0  0  0  0
    3.6080    2.2400   -0.2500 O   0  0  0  0  0  0  0  0  0  0  0  0
    4.5870    1.2570   -0.2490 C   0  0  0  0  0  0  0  0  0  0  0  0
    5.0120    0.7820    0.9740 C   0  0  0  0  0  0  0  0  0  0  0  0
    5.9900   -0.2020    1.0280 C   0  0  0  0  0  0  0  0  0  0  0  0
    6.5380   -0.7070   -0.1300 C   0  0  0  0  0  0  0  0  0  0  0  0
    7.5890   -1.7650   -0.0450 C   0  0  1  0  0  0  0  0  0  0  0  0
    8.4370   -1.8510    1.1950 C   0  0  0  0  0  0  0  0  0  0  0  0
    7.3830   -2.8610    0.9700 C   0  0  0  0  0  0  0  0  0  0  0  0
    6.1250   -0.2430   -1.3620 C   0  0  0  0  0  0  0  0  0  0  0  0
    5.1530    0.7330   -1.3870 C   0  0  0  0  0  0  0  0  0  0  0  0
    1.5730    1.5350    0.8670 C   0  0  0  0  0  0  0  0  0  0  0  0
    0.2620    1.0900    0.8010 C   0  0  0  0  0  0  0  0  0  0  0  0
   -0.3190    0.9070   -0.4330 C   0  0  0  0  0  0  0  0  0  0  0  0
  2  1  1  1
  2  3  1  0
  2  4  1  0
  4  5  1  0
  5  6  1  0
  6  7  2  0
  6 11  1  0
  7  8  1  0
  8  9  2  0
  9 10  1  0
  9 29  1  0
 10 11  2  0
 10 12  1  0
 12 13  1  0
 13 14  1  0
 14 15  2  0
 14 29  1  0
 15 16  1  0
 16 17  1  0
 16 27  2  0
 17 18  1  0
 18 19  2  0
 18 26  1  0
 19 20  1  0
 20 21  2  0
 22 21  1  1
 21 25  1  0
 22 23  1  0
 22 24  1  0
 23 24  1  0
 25 26  2  0
 27 28  1  0
 28 29  2  0
M  END
