
     RDKit          3D

 29 33  0  0  0  0  0  0  0  0999 V2000
   -3.7980   -4.1090    0.7760 C   0  0  0  0  0  0  0  0  0  0  0  0
   -3.3690   -2.7550    1.0260 N   0  0  0  0  0  0  0  0  0  0  0  0
   -3.9260   -1.6050    0.4350 C   0  0  0  0  0  0  0  0  0  0  0  0
   -5.0360   -1.7910   -0.3720 C   0  0  0  0  0  0  0  0  0  0  0  0
   -5.6510   -0.7040   -0.9540 C   0  0  0  0  0  0  0  0  0  0  0  0
   -5.1600    0.5710   -0.7420 C   0  0  0  0  0  0  0  0  0  0  0  0
   -4.0600    0.7060    0.0600 C   0  0  0  0  0  0  0  0  0  0  0  0
   -3.3960   -0.3650    0.6860 C   0  0  0  0  0  0  0  0  0  0  0  0
   -2.2660   -0.0990    1.5900 C   0  0  0  0  0  0  0  0  0  0  0  0
   -0.9020   -0.1350    1.1650 C   0  0  0  0  0  0  0  0  0  0  0  0
   -0.0830    0.9960    1.3600 C   0  0  0  0  0  0  0  0  0  0  0  0
    1.2340    1.0630    1.0180 C   0  0  0  0  0  0  0  0  0  0  0  0
    1.8700   -0.0240    0.4270 C   0  0  0  0  0  0  0  0  0  0  0  0
    3.1680   -0.0160    0.0590 O   0  0  0  0  0  0  0  0  0  0  0  0
    4.0330    0.9850   -0.2630 C   0  0  0  0  0  0  0  0  0  0  0  0
    3.6230    2.2710   -0.4940 C   0  0  0  0  0  0  0  0  0  0  0  0
    4.5670    3.2460   -0.8450 C   0  0  0  0  0  0  0  0  0  0  0  0
    5.8690    2.9040   -0.9570 C   0  0  0  0  0  0  0  0  0  0  0  0
    6.2900    1.6180   -0.7260 C   0  0  0  0  0  0  0  0  0  0  0  0
    5.3980    0.6140   -0.3700 C   0  0  0  0  0  0  0  0  0  0  0  0
    5.9400   -0.6240    0.1260 C   0  0  2  0  0  0  0  0  0  0  0  0
    6.6680   -1.4980   -0.9540 C   0  0  0  0  0  0  0  0  0  0  0  0
    5.6190   -2.0230    0.0610 C   0  0  0  0  0  0  0  0  0  0  0  0
    1.0860   -1.1610    0.2150 C   0  0  0  0  0  0  0  0  0  0  0  0
    1.6170   -2.2980   -0.3880 O   0  0  0  0  0  0  0  0  0  0  0  0
   -0.2700   -1.1800    0.5920 C   0  0  0  0  0  0  0  0  0  0  0  0
   -3.7020    2.1610    0.0690 C   0  0  0  0  0  0  0  0  0  0  0  0
   -5.0260    2.8360   -0.1760 C   0  0  0  0  0  0  0  0  0  0  0  0
   -5.6460    1.9170   -1.2350 C   0  0  0  0  0  0  0  0  0  0  0  0
  1  2  1  0
  2  3  1  0
  3  4  2  0
  3  8  1  0
  4  5  1  0
  5  6  2  0
  6  7  1  0
  6 29  1  0
  7  8  2  0
  7 27  1  0
  8  9  1  0
  9 10  1  0
 10 11  2  0
 10 26  1  0
 11 12  1  0
 12 13  2  0
 13 14  1  0
 13 24  1  0
 14 15  1  0
 15 16  2  0
 15 20  1  0
 16 17  1  0
 17 18  2  0
 18 19  1  0
 19 20  2  0
 21 20  1  6
 21 22  1  0
 21 23  1  0
 22 23  1  0
 24 25  1  0
 24 26  2  0
 27 28  1  0
 28 29  1  0
M  END
