
     RDKit          3D

 29 32  0  0  0  0  0  0  0  0999 V2000
    5.5330    4.3630    2.4350 C   0  0  0  0  0  0  0  0  0  0  0  0
    5.0100    3.2070    1.8390 O   0  0  0  0  0  0  0  0  0  0  0  0
    3.6210    2.9990    1.6890 C   0  0  0  0  0  0  0  0  0  0  0  0
    2.9050    3.9090    2.1220 O   0  0  0  0  0  0  0  0  0  0  0  0
    3.1770    1.7730    1.0610 C   0  0  0  0  0  0  0  0  0  0  0  0
    1.7920    1.4630    0.8630 C   0  0  0  0  0  0  0  0  0  0  0  0
    0.7870    2.1970    1.2750 C   0  0  0  0  0  0  0  0  0  0  0  0
   -0.6040    1.7600    1.0020 C   0  0  0  0  0  0  0  0  0  0  0  0
   -1.7540    2.4380    1.3790 C   0  0  0  0  0  0  0  0  0  0  0  0
   -2.8170    1.7110    0.9400 C   0  0  0  0  0  0  0  0  0  0  0  0
   -2.3220    0.5970    0.2990 C   0  0  0  0  0  0  0  0  0  0  0  0
   -0.9600    0.6480    0.3500 N   0  0  0  0  0  0  0  0  0  0  0  0
   -3.2390   -0.3690   -0.2960 C   0  0  0  0  0  0  0  0  0  0  0  0
   -2.7740   -1.5140   -0.9320 C   0  0  0  0  0  0  0  0  0  0  0  0
   -3.6330   -2.4430   -1.4840 C   0  0  0  0  0  0  0  0  0  0  0  0
   -4.9980   -2.2600   -1.4190 C   0  0  0  0  0  0  0  0  0  0  0  0
   -5.9320   -3.2660   -2.0160 C   0  0  0  0  0  0  0  0  0  0  0  0
   -5.4670   -1.1360   -0.7950 C   0  0  0  0  0  0  0  0  0  0  0  0
   -4.5900   -0.1810   -0.2280 C   0  0  0  0  0  0  0  0  0  0  0  0
   -5.1720    1.0080    0.4090 C   0  0  0  0  0  0  0  0  0  0  0  0
   -4.2630    1.9570    1.0740 C   0  0  0  0  0  0  0  0  0  0  0  0
    4.1120    0.9280    0.5980 C   0  0  0  0  0  0  0  0  0  0  0  0
    3.8460   -0.3230   -0.0410 C   0  0  0  0  0  0  0  0  0  0  0  0
    4.4460   -0.6110   -1.2530 C   0  0  0  0  0  0  0  0  0  0  0  0
    4.2910   -1.7920   -1.9320 C   0  0  0  0  0  0  0  0  0  0  0  0
    3.4900   -2.7650   -1.3890 C   0  0  0  0  0  0  0  0  0  0  0  0
    3.3190   -4.0460   -2.1220 C   0  0  0  0  0  0  0  0  0  0  0  0
    2.8770   -2.5220   -0.1910 C   0  0  0  0  0  0  0  0  0  0  0  0
    3.0490   -1.3100    0.4860 C   0  0  0  0  0  0  0  0  0  0  0  0
  1  2  1  0
  2  3  1  0
  3  4  2  0
  3  5  1  0
  5  6  1  0
  5 22  2  3
  6  7  2  3
  7  8  1  0
  8  9  2  0
  8 12  1  0
  9 10  1  0
 10 11  2  0
 10 21  1  0
 11 12  1  0
 11 13  1  0
 13 14  2  0
 13 19  1  0
 14 15  1  0
 15 16  2  0
 16 17  1  0
 16 18  1  0
 18 19  2  0
 19 20  1  0
 20 21  1  0
 22 23  1  0
 23 24  2  0
 23 29  1  0
 24 25  1  0
 25 26  2  0
 26 27  1  0
 26 28  1  0
 28 29  2  0
M  END
