
     RDKit          3D

 29 33  0  0  0  0  0  0  0  0999 V2000
    8.1190    2.4870   -0.5790 C   0  0  0  0  0  0  0  0  0  0  0  0
    7.1740    1.3260   -0.4350 C   0  0  0  0  0  0  0  0  0  0  0  0
    5.8100    1.5120   -0.5200 C   0  0  0  0  0  0  0  0  0  0  0  0
    4.9310    0.4580   -0.3900 C   0  0  0  0  0  0  0  0  0  0  0  0
    5.3750   -0.8280   -0.1690 C   0  0  0  0  0  0  0  0  0  0  0  0
    4.4530   -1.9670   -0.0190 C   0  0  0  0  0  0  0  0  0  0  0  0
    4.8940   -3.1380   -0.1690 O   0  0  0  0  0  0  0  0  0  0  0  0
    3.0450   -1.7670    0.2980 C   0  0  0  0  0  0  0  0  0  0  0  0
    2.0060   -2.2770   -0.4480 C   0  0  0  0  0  0  0  0  0  0  0  0
    0.6770   -2.0430   -0.0700 C   0  0  0  0  0  0  0  0  0  0  0  0
    0.4490   -1.2930    1.0630 C   0  0  0  0  0  0  0  0  0  0  0  0
    1.4730   -0.8030    1.7800 N   0  0  0  0  0  0  0  0  0  0  0  0
    2.7500   -1.0240    1.4220 C   0  0  0  0  0  0  0  0  0  0  0  0
    3.6940   -0.5410    2.1310 O   0  0  0  0  0  0  0  0  0  0  0  0
   -1.0040   -1.1420    1.3170 C   0  0  0  0  0  0  0  0  0  0  0  0
   -1.6090   -1.5530    0.0160 C   0  0  0  0  0  0  0  0  0  0  0  0
   -2.7980   -1.1780   -0.4470 C   0  0  0  0  0  0  0  0  0  0  0  0
   -3.6560   -0.2910    0.3080 C   0  0  0  0  0  0  0  0  0  0  0  0
   -4.8250    0.0660   -0.1660 C   0  0  0  0  0  0  0  0  0  0  0  0
   -5.5310   -0.2690   -1.4220 C   0  0  0  0  0  0  0  0  0  0  0  0
   -6.2390    1.0310   -1.7230 C   0  0  0  0  0  0  0  0  0  0  0  0
   -6.5670    1.5260   -0.3480 C   0  0  0  0  0  0  0  0  0  0  0  0
   -5.7590    0.9730    0.5340 C   0  0  0  0  0  0  0  0  0  0  0  0
   -6.0860    1.4650    1.8580 C   0  0  0  0  0  0  0  0  0  0  0  0
   -7.0890    2.3120    1.7810 C   0  0  0  0  0  0  0  0  0  0  0  0
   -7.4880    2.4280    0.3660 C   0  0  0  0  0  0  0  0  0  0  0  0
   -0.6290   -2.4410   -0.6340 C   0  0  0  0  0  0  0  0  0  0  0  0
    6.7420   -1.0050   -0.0850 C   0  0  0  0  0  0  0  0  0  0  0  0
    7.6290    0.0440   -0.2140 C   0  0  0  0  0  0  0  0  0  0  0  0
  1  2  1  0
  2  3  2  0
  2 29  1  0
  3  4  1  0
  4  5  2  0
  5  6  1  0
  5 28  1  0
  6  7  2  0
  6  8  1  0
  8  9  2  0
  8 13  1  0
  9 10  1  0
 10 11  2  0
 10 27  1  0
 11 12  1  0
 11 15  1  0
 12 13  1  0
 13 14  2  0
 15 16  1  0
 16 17  2  3
 16 27  1  0
 17 18  1  0
 18 19  2  3
 19 20  1  0
 19 23  1  0
 20 21  1  0
 21 22  1  0
 22 23  2  0
 22 26  1  0
 23 24  1  0
 24 25  2  0
 25 26  1  0
 28 29  2  0
M  END
