
     RDKit          3D

 28 28  0  0  0  0  0  0  0  0999 V2000
   -3.5410   -1.4140    1.8770 C   0  0  0  0  0  0  0  0  0  0  0  0
   -2.9380   -2.7020    1.4490 C   0  0  2  0  0  0  0  0  0  0  0  0
   -2.4530   -3.4330    2.7300 C   0  0  0  0  0  0  0  0  0  0  0  0
   -1.8480   -2.6650    0.4390 C   0  0  0  0  0  0  0  0  0  0  0  0
   -2.2070   -2.1380   -0.8780 C   0  0  2  0  0  0  0  0  0  0  0  0
   -1.0770   -2.1500   -1.7980 N   0  0  0  0  0  0  0  0  0  0  0  0
    0.3840   -1.5000   -1.4060 P   0  0  0  0  0  0  0  0  0  0  0  0
    1.0700   -1.9330   -2.7380 O   0  0  0  0  0  0  0  0  0  0  0  0
    0.8220    0.0910   -1.9220 O   0  0  0  0  0  0  0  0  0  0  0  0
    1.5060   -2.3340   -0.3800 C   0  0  0  0  0  0  0  0  0  0  0  0
    2.8160   -1.7210   -0.4770 N   0  0  0  0  0  0  0  0  0  0  0  0
    2.9360   -0.3680   -0.0610 C   0  0  0  0  0  0  0  0  0  0  0  0
    2.0070    0.3270    0.3800 O   0  0  0  0  0  0  0  0  0  0  0  0
    4.1890    0.2430   -0.1510 O   0  0  0  0  0  0  0  0  0  0  0  0
    4.3800    1.5780    0.2420 C   0  0  0  0  0  0  0  0  0  0  0  0
    5.8100    1.9070    0.0190 C   0  0  0  0  0  0  0  0  0  0  0  0
    6.7290    1.7010    1.0260 C   0  0  0  0  0  0  0  0  0  0  0  0
    8.0730    1.9960    0.8560 C   0  0  0  0  0  0  0  0  0  0  0  0
    8.4970    2.5090   -0.3530 C   0  0  0  0  0  0  0  0  0  0  0  0
    7.5810    2.7110   -1.3460 C   0  0  0  0  0  0  0  0  0  0  0  0
    6.2440    2.4200   -1.1830 C   0  0  0  0  0  0  0  0  0  0  0  0
   -2.7300   -0.7790   -0.8860 C   0  0  0  0  0  0  0  0  0  0  0  0
   -2.0390    0.2760   -0.8830 O   0  0  0  0  0  0  0  0  0  0  0  0
   -4.1420   -0.5680   -0.9080 N   0  0  0  0  0  0  0  0  0  0  0  0
   -4.6740    0.7430   -0.9310 C   0  0  0  0  0  0  0  0  0  0  0  0
   -4.3240    1.6190    0.2220 C   0  0  0  0  0  0  0  0  0  0  0  0
   -5.0010    2.9790   -0.0040 C   0  0  0  0  0  0  0  0  0  0  0  0
   -4.6180    3.7910    1.1630 N   0  0  0  0  0  0  0  0  0  0  0  0
  2  1  1  1
  2  3  1  0
  2  4  1  0
  5  4  1  1
  5  6  1  0
  5 22  1  0
  6  7  1  0
  7  8  1  0
  7  9  1  0
  7 10  1  0
 10 11  1  0
 11 12  1  0
 12 13  2  0
 12 14  1  0
 14 15  1  0
 15 16  1  0
 16 17  2  0
 16 21  1  0
 17 18  1  0
 18 19  2  0
 19 20  1  0
 20 21  2  0
 22 23  2  0
 22 24  1  0
 24 25  1  0
 25 26  1  0
 26 27  1  0
 27 28  1  0
M  CHG  1  28   1
M  END
