
     RDKit          3D

 24 23  0  0  0  0  0  0  0  0999 V2000
   -2.0220    0.1360   -2.0720 C   0  0  0  0  0  0  0  0  0  0  0  0
   -3.3690   -0.3710   -1.7530 C   0  0  0  0  0  0  0  0  0  0  0  0
   -3.9090   -0.2500   -0.5460 C   0  0  0  0  0  0  0  0  0  0  0  0
   -5.2940   -0.8260   -0.3770 C   0  0  0  0  0  0  0  0  0  0  0  0
   -5.3530   -1.9120    0.6550 C   0  0  0  0  0  0  0  0  0  0  0  0
   -3.1010    0.4930    0.7830 S   0  0  1  0  0  0  0  0  0  0  0  0
   -4.1910    0.8180    1.8580 O   0  0  0  0  0  0  0  0  0  0  0  0
   -1.9110   -0.5350    1.5140 C   0  0  0  0  0  0  0  0  0  0  0  0
   -2.2110   -1.2000    2.5280 O   0  0  0  0  0  0  0  0  0  0  0  0
   -0.6190   -0.6530    1.0210 O   0  0  0  0  0  0  0  0  0  0  0  0
    0.3190   -1.4870    1.6610 C   0  0  0  0  0  0  0  0  0  0  0  0
    0.0260   -2.1270    2.6860 O   0  0  0  0  0  0  0  0  0  0  0  0
    1.6920   -1.6090    1.1050 C   0  0  0  0  0  0  0  0  0  0  0  0
    2.3900   -0.2740    1.3380 C   0  0  0  0  0  0  0  0  0  0  0  0
    3.8090   -0.3230    0.7960 C   0  0  0  0  0  0  0  0  0  0  0  0
    3.8370   -0.7010   -1.0050 P   0  0  0  0  0  0  0  0  0  0  0  0
    5.1170    0.1360   -1.7970 O   0  0  0  0  0  0  0  0  0  0  0  0
    6.2380    0.2840   -0.9820 C   0  0  0  0  0  0  0  0  0  0  0  0
    7.2960    1.0170   -1.7920 C   0  0  0  0  0  0  0  0  0  0  0  0
    4.2310   -2.8710   -1.2780 P   0  0  0  0  0  0  0  0  0  0  0  0
    3.9360   -3.8260   -0.0750 O   0  0  0  0  0  0  0  0  0  0  0  0
   -2.6410    1.9800    0.5500 C   0  0  0  0  0  0  0  0  0  0  0  0
   -1.4940    2.4650    1.2790 C   0  0  0  0  0  0  0  0  0  0  0  0
   -3.4570    2.7910   -0.3410 C   0  0  0  0  0  0  0  0  0  0  0  0
  1  2  1  0
  2  3  2  3
  3  4  1  0
  6  3  1  6
  4  5  1  0
  6  7  2  0
  6  8  1  0
  6 22  2  0
  8  9  2  0
  8 10  1  0
 10 11  1  0
 11 12  2  0
 11 13  1  0
 13 14  1  0
 14 15  1  0
 15 16  1  0
 16 17  1  0
 16 20  1  0
 17 18  1  0
 18 19  1  0
 20 21  2  0
 22 23  1  0
 22 24  1  0
M  END
