
     RDKit          3D

 24 24  0  0  0  0  0  0  0  0999 V2000
    4.6490    4.4310    0.0070 C   0  0  0  0  0  0  0  0  0  0  0  0
    3.5620    3.4870    0.5130 C   0  0  0  0  0  0  0  0  0  0  0  0
    2.3990    3.8030   -0.1920 O   0  0  0  0  0  0  0  0  0  0  0  0
    1.1480    2.7470    0.3630 P   0  0  0  0  0  0  0  0  0  0  0  0
    1.6560    1.7330    1.6390 O   0  0  0  0  0  0  0  0  0  0  0  0
    0.2280    1.9280   -0.9820 C   0  0  0  0  0  0  0  0  0  0  0  0
   -0.0810    0.4810   -0.6270 C   0  0  2  0  0  0  0  0  0  0  0  0
   -0.9140    0.4120    0.6280 C   0  0  0  0  0  0  0  0  0  0  0  0
   -2.5290    1.3170    0.4150 P   0  0  0  0  0  0  0  0  0  0  0  0
   -3.2190    1.5150    1.9970 O   0  0  0  0  0  0  0  0  0  0  0  0
   -4.5870    1.4080    1.8910 C   0  0  0  0  0  0  0  0  0  0  0  0
   -3.6140    0.4140   -0.6160 O   0  0  0  0  0  0  0  0  0  0  0  0
   -4.1410    1.3360   -1.5290 C   0  0  0  0  0  0  0  0  0  0  0  0
   -5.1090    0.6720   -2.4920 C   0  0  0  0  0  0  0  0  0  0  0  0
    1.1710   -0.2530   -0.4280 C   0  0  0  0  0  0  0  0  0  0  0  0
    2.2590    0.3490   -0.4750 O   0  0  0  0  0  0  0  0  0  0  0  0
    1.1650   -1.6790   -0.1740 C   0  0  0  0  0  0  0  0  0  0  0  0
   -0.2720   -2.6900   -0.1330 S   0  0  0  0  0  0  0  0  0  0  0  0
    0.5310   -4.2240    0.1800 C   0  0  0  0  0  0  0  0  0  0  0  0
   -0.1070   -5.5810    0.3430 C   0  0  0  0  0  0  0  0  0  0  0  0
    1.8540   -3.8690    0.2350 C   0  0  0  0  0  0  0  0  0  0  0  0
    2.8890   -4.9600    0.4970 C   0  0  0  0  0  0  0  0  0  0  0  0
    2.1790   -2.5780    0.0560 C   0  0  0  0  0  0  0  0  0  0  0  0
    3.5380   -2.1420    0.1020 O   0  0  0  0  0  0  0  0  0  0  0  0
  1  2  1  0
  2  3  1  0
  3  4  1  0
  4  5  1  0
  4  6  1  0
  7  6  1  1
  7  8  1  0
  7 15  1  0
  8  9  1  0
  9 10  1  0
  9 12  1  0
 10 11  1  0
 12 13  1  0
 13 14  1  0
 15 16  2  0
 15 17  1  0
 17 18  1  0
 17 23  2  0
 18 19  1  0
 19 20  1  0
 19 21  2  0
 21 22  1  0
 21 23  1  0
 23 24  1  0
M  END
