
     RDKit          3D

 21 22  0  0  0  0  0  0  0  0999 V2000
    0.7170   -1.1320    0.4330 O   0  0  0  0  0  0  0  0  0  0  0  0
    0.9520   -0.2520   -0.5060 C   0  0  0  0  0  0  0  0  0  0  0  0
   -0.1800   -0.0930   -1.2940 N   0  0  0  0  0  0  0  0  0  0  0  0
   -1.4050   -0.7040   -0.8370 C   0  0  0  0  0  0  0  0  0  0  0  0
   -1.9220   -1.2140   -1.8780 N   0  0  0  0  0  0  0  0  0  0  0  0
   -3.1120   -1.9170   -1.8090 C   0  0  0  0  0  0  0  0  0  0  0  0
   -3.5490   -2.4000   -2.8700 O   0  0  0  0  0  0  0  0  0  0  0  0
   -3.8070   -2.1060   -0.6510 O   0  0  0  0  0  0  0  0  0  0  0  0
   -3.1350   -1.7530    0.5530 C   0  0  0  0  0  0  0  0  0  0  0  0
   -2.2720   -0.5220    0.3140 C   0  0  1  0  0  0  0  0  0  0  0  0
   -1.7830   -0.1300    1.5220 O   0  0  0  0  0  0  0  0  0  0  0  0
   -3.3450    0.5790   -0.0210 C   0  0  0  0  0  0  0  0  0  0  0  0
   -4.2530    0.4850    1.0340 O   0  0  0  0  0  0  0  0  0  0  0  0
   -5.2300    1.3280    0.9390 O   0  0  0  0  0  0  0  0  0  0  0  0
   -5.0520    2.2500    0.0190 O   0  0  0  0  0  0  0  0  0  0  0  0
    2.1430    0.3840   -0.6680 N   0  0  0  0  0  0  0  0  0  0  0  0
    3.2010    0.0200    0.2570 C   0  0  1  0  0  0  0  0  0  0  0  0
    4.4930   -0.2650   -0.4610 C   0  0  0  0  0  0  0  0  0  0  0  0
    5.4610    0.6050    0.3010 C   0  0  0  0  0  0  0  0  0  0  0  0
    4.8120    0.9090    1.5150 O   0  0  0  0  0  0  0  0  0  0  0  0
    3.5620    1.2920    1.0430 C   0  0  0  0  0  0  0  0  0  0  0  0
  1  2  2  0
  2  3  1  0
  2 16  1  0
  3  4  1  0
  4  5  2  0
  4 10  1  0
  5  6  1  0
  6  7  2  0
  6  8  1  0
  8  9  1  0
  9 10  1  0
 10 11  1  1
 10 12  1  0
 12 13  1  0
 13 14  1  0
 14 15  1  0
 17 16  1  6
 17 18  1  0
 17 21  1  0
 18 19  1  0
 19 20  1  0
 20 21  1  0
M  END
