
     RDKit          3D

 24 24  0  0  0  0  0  0  0  0999 V2000
   -4.6540   -2.9250    1.7620 C   0  0  0  0  0  0  0  0  0  0  0  0
   -3.6910   -2.0790    0.9670 C   0  0  0  0  0  0  0  0  0  0  0  0
   -3.1440   -1.1330    1.8100 O   0  0  0  0  0  0  0  0  0  0  0  0
   -2.0220   -0.0840    1.0550 P   0  0  0  0  0  0  0  0  0  0  0  0
   -2.7740    1.3080    0.1490 C   0  0  0  0  0  0  0  0  0  0  0  0
   -4.2140    1.5680    0.5460 C   0  0  0  0  0  0  0  0  0  0  0  0
   -4.7580    2.7340   -0.2510 C   0  0  0  0  0  0  0  0  0  0  0  0
   -6.5190    3.0460    0.2400 P   0  0  0  0  0  0  0  0  0  0  0  0
   -7.4910    3.6630   -0.8110 O   0  0  0  0  0  0  0  0  0  0  0  0
   -0.9390   -1.0230    0.0750 O   0  0  0  0  0  0  0  0  0  0  0  0
   -0.9710   -0.4740   -1.2050 C   0  0  0  0  0  0  0  0  0  0  0  0
    0.1000   -1.3400   -2.3290 S   0  0  2  0  0  0  0  0  0  0  0  0
   -0.0150   -0.6540   -3.6640 O   0  0  0  0  0  0  0  0  0  0  0  0
   -0.3170   -2.7690   -2.4550 O   0  0  0  0  0  0  0  0  0  0  0  0
    1.7710   -1.2620   -1.7350 C   0  0  0  0  0  0  0  0  0  0  0  0
    2.0570   -0.2970   -0.8990 C   0  0  0  0  0  0  0  0  0  0  0  0
    3.3970   -0.1570   -0.3630 C   0  0  0  0  0  0  0  0  0  0  0  0
    4.4280   -1.0060   -0.6890 C   0  0  0  0  0  0  0  0  0  0  0  0
    5.6870   -0.8440   -0.1610 C   0  0  0  0  0  0  0  0  0  0  0  0
    5.9090    0.1940    0.7100 C   0  0  0  0  0  0  0  0  0  0  0  0
    7.2370    0.4280    1.3160 C   0  0  0  0  0  0  0  0  0  0  0  0
    4.8880    1.0700    1.0600 C   0  0  0  0  0  0  0  0  0  0  0  0
    5.1360    2.1070    1.9400 O   0  0  0  0  0  0  0  0  0  0  0  0
    3.6510    0.8920    0.5280 C   0  0  0  0  0  0  0  0  0  0  0  0
  1  2  1  0
  2  3  1  0
  3  4  1  0
  4  5  1  0
  4 10  1  0
  5  6  1  0
  6  7  1  0
  7  8  1  0
  8  9  2  0
 10 11  1  0
 12 11  1  1
 12 13  2  0
 12 14  2  0
 12 15  1  0
 15 16  2  3
 16 17  1  0
 17 18  2  0
 17 24  1  0
 18 19  1  0
 19 20  2  0
 20 21  1  0
 20 22  1  0
 22 23  1  0
 22 24  2  0
M  END
