
     RDKit          3D

 29 31  0  0  0  0  0  0  0  0999 V2000
   -6.3330    0.7790    2.0040 C   0  0  0  0  0  0  0  0  0  0  0  0
   -5.5930    0.0410    1.1960 C   0  0  0  0  0  0  0  0  0  0  0  0
   -4.2870    0.3670    0.8050 N   0  0  0  0  0  0  0  0  0  0  0  0
   -4.0910    1.3510   -0.0090 C   0  0  0  0  0  0  0  0  0  0  0  0
   -5.2540    2.1450   -0.5350 C   0  0  0  0  0  0  0  0  0  0  0  0
   -2.7890    1.6300   -0.3620 O   0  0  0  0  0  0  0  0  0  0  0  0
   -1.8760    0.5650   -0.4630 C   0  0  0  0  0  0  0  0  0  0  0  0
   -0.6090    0.8150   -0.8030 N   0  0  0  0  0  0  0  0  0  0  0  0
    0.3210   -0.1930   -0.9140 C   0  0  0  0  0  0  0  0  0  0  0  0
    1.6570    0.1340   -1.2400 N   0  0  0  0  0  0  0  0  0  0  0  0
    2.7240    0.3300   -0.3400 C   0  0  2  0  0  0  0  0  0  0  0  0
    3.1180   -0.9100    0.3880 C   0  0  0  0  0  0  0  0  0  0  0  0
    4.3500   -0.5350    1.2040 C   0  0  0  0  0  0  0  0  0  0  0  0
    4.0330    0.1490    2.4780 C   0  0  0  0  0  0  0  0  0  0  0  0
    2.6020    0.3880    2.7840 C   0  0  0  0  0  0  0  0  0  0  0  0
    1.7940    0.9710    1.6820 C   0  0  0  0  0  0  0  0  0  0  0  0
    2.5060    1.3710    0.5690 O   0  0  0  0  0  0  0  0  0  0  0  0
    1.9870    0.3110   -3.0250 P   0  0  0  0  0  0  0  0  0  0  0  0
    1.3700    1.9450   -3.6400 C   0  0  0  0  0  0  0  0  0  0  0  0
    3.6900    0.1460   -3.3310 O   0  0  0  0  0  0  0  0  0  0  0  0
    3.9180   -1.1190   -3.5790 O   0  0  0  0  0  0  0  0  0  0  0  0
   -0.0550   -1.4840   -0.6720 C   0  0  0  0  0  0  0  0  0  0  0  0
    0.5460   -2.7240   -0.6830 C   0  0  0  0  0  0  0  0  0  0  0  0
   -0.4070   -3.6900   -0.3380 C   0  0  0  0  0  0  0  0  0  0  0  0
   -1.5150   -3.0450   -0.1350 O   0  0  0  0  0  0  0  0  0  0  0  0
   -1.3710   -1.7440   -0.3180 C   0  0  0  0  0  0  0  0  0  0  0  0
   -2.2280   -0.7010   -0.2280 N   0  0  0  0  0  0  0  0  0  0  0  0
   -6.1460   -1.1340    0.7030 O   0  0  0  0  0  0  0  0  0  0  0  0
   -6.6180   -2.1120    1.4800 F   0  0  0  0  0  0  0  0  0  0  0  0
  1  2  2  0
  2  3  1  0
  2 28  1  0
  3  4  2  3
  4  5  1  0
  4  6  1  0
  6  7  1  0
  7  8  2  0
  7 27  1  0
  8  9  1  0
  9 10  1  0
  9 22  2  0
 11 10  1  1
 10 18  1  0
 11 12  1  0
 11 17  1  0
 12 13  1  0
 13 14  1  0
 14 15  1  0
 15 16  1  0
 16 17  1  0
 18 19  1  0
 18 20  1  0
 20 21  1  0
 22 23  1  0
 22 26  1  0
 23 24  2  0
 24 25  1  0
 25 26  1  0
 26 27  2  0
 28 29  1  0
M  END
