
     RDKit          3D

 28 30  0  0  0  0  0  0  0  0999 V2000
   -4.7970    3.6720   -0.8490 C   0  0  0  0  0  0  0  0  0  0  0  0
   -5.5770    2.0080   -1.0430 P   0  0  0  0  0  0  0  0  0  0  0  0
   -4.6270    0.6710   -0.6440 C   0  0  0  0  0  0  0  0  0  0  0  0
   -5.1620   -0.6820   -0.7610 C   0  0  0  0  0  0  0  0  0  0  0  0
   -4.2090   -1.7510   -0.3280 C   0  0  1  0  0  0  0  0  0  0  0  0
   -4.6060   -3.0910   -0.8970 C   0  0  0  0  0  0  0  0  0  0  0  0
   -3.5580   -3.9510   -0.9350 O   0  0  0  0  0  0  0  0  0  0  0  0
   -2.5110   -3.5000   -1.7490 C   0  0  0  0  0  0  0  0  0  0  0  0
   -2.0740   -2.2010   -1.3400 N   0  0  0  0  0  0  0  0  0  0  0  0
   -2.8260   -1.4200   -0.7070 C   0  0  0  0  0  0  0  0  0  0  0  0
   -2.3060   -0.1300   -0.2730 N   0  0  0  0  0  0  0  0  0  0  0  0
   -0.9670    0.0910    0.0610 C   0  0  0  0  0  0  0  0  0  0  0  0
   -0.0020   -0.7660    0.0060 C   0  0  0  0  0  0  0  0  0  0  0  0
    1.3330   -0.2750    0.4120 C   0  0  0  0  0  0  0  0  0  0  0  0
    2.3610   -1.0970    0.3510 C   0  0  0  0  0  0  0  0  0  0  0  0
    2.2840   -2.3780   -0.0470 F   0  0  0  0  0  0  0  0  0  0  0  0
    3.5780   -0.5290    0.5690 N   0  0  0  0  0  0  0  0  0  0  0  0
    3.7120    0.7140    0.8300 C   0  0  0  0  0  0  0  0  0  0  0  0
    5.0490    0.8390    0.9210 N   0  0  0  0  0  0  0  0  0  0  0  0
    6.2870    0.9610    1.0050 C   0  0  0  0  0  0  0  0  0  0  0  0
    6.2000    2.2930    0.8290 O   0  0  0  0  0  0  0  0  0  0  0  0
    7.5440    0.3470    1.1830 C   0  0  0  0  0  0  0  0  0  0  0  0
    8.6200    1.4000    1.1980 C   0  0  0  0  0  0  0  0  0  0  0  0
    8.5130    2.4190    1.8480 O   0  0  0  0  0  0  0  0  0  0  0  0
    2.6310    1.6760    1.0020 C   0  0  0  0  0  0  0  0  0  0  0  0
    1.4420    1.0290    0.8380 O   0  0  0  0  0  0  0  0  0  0  0  0
   -3.2640    0.9380   -0.2430 C   0  0  0  0  0  0  0  0  0  0  0  0
   -2.8580    2.0610    0.1340 O   0  0  0  0  0  0  0  0  0  0  0  0
  1  2  1  0
  2  3  2  3
  3  4  1  0
  3 27  1  0
  5  4  1  6
  5  6  1  0
  5 10  1  0
  6  7  1  0
  7  8  1  0
  8  9  1  0
  9 10  2  0
 10 11  1  0
 11 12  1  0
 11 27  1  0
 12 13  2  3
 13 14  1  0
 14 15  2  0
 14 26  1  0
 15 16  1  0
 15 17  1  0
 17 18  2  0
 18 19  1  0
 18 25  1  0
 19 20  1  0
 20 21  2  0
 20 22  1  0
 22 23  1  0
 23 24  2  0
 25 26  1  0
 27 28  2  0
M  END
