
     RDKit          3D

 29 31  0  0  0  0  0  0  0  0999 V2000
   -4.3880    0.4610    1.0020 C   0  0  0  0  0  0  0  0  0  0  0  0
   -3.3130   -0.2710    0.7900 C   0  0  0  0  0  0  0  0  0  0  0  0
   -2.0180    0.3500    0.4300 C   0  0  2  0  0  0  0  0  0  0  0  0
   -2.2180    1.5150   -0.3830 N   0  0  0  0  0  0  0  0  0  0  0  0
   -2.6590    1.5290   -1.7470 C   0  0  0  0  0  0  0  0  0  0  0  0
   -4.1480    1.6160   -1.9340 C   0  0  0  0  0  0  0  0  0  0  0  0
   -1.9450    2.7820    0.2040 C   0  0  0  0  0  0  0  0  0  0  0  0
   -2.0810    3.8840   -0.4120 O   0  0  0  0  0  0  0  0  0  0  0  0
   -1.5060    2.8810    1.5130 O   0  0  0  0  0  0  0  0  0  0  0  0
   -1.0550   -0.6420   -0.0640 C   0  0  2  0  0  0  0  0  0  0  0  0
   -0.4320   -1.2270    1.0550 F   0  0  0  0  0  0  0  0  0  0  0  0
    0.0850   -0.0370   -0.8280 C   0  0  0  0  0  0  0  0  0  0  0  0
    0.4110   -0.2380   -2.0560 N   0  0  0  0  0  0  0  0  0  0  0  0
    1.5380    0.5300   -2.3580 O   0  0  0  0  0  0  0  0  0  0  0  0
    1.5920    1.5870   -1.3830 C   0  0  2  0  0  0  0  0  0  0  0  0
    2.8900    1.8930   -1.0260 O   0  0  0  0  0  0  0  0  0  0  0  0
    3.0170    1.7790    0.3380 C   0  0  2  0  0  0  0  0  0  0  0  0
    4.0110    0.6790    0.6270 C   0  0  0  0  0  0  0  0  0  0  0  0
    5.2160    1.0540    0.0350 O   0  0  0  0  0  0  0  0  0  0  0  0
    6.2100    0.0940    0.2470 C   0  0  0  0  0  0  0  0  0  0  0  0
    7.4880    0.5510   -0.4130 C   0  0  0  0  0  0  0  0  0  0  0  0
    1.6410    1.4640    0.9020 C   0  0  0  0  0  0  0  0  0  0  0  0
    1.0010    0.8820   -0.2610 N   0  0  0  0  0  0  0  0  0  0  0  0
   -1.5760   -1.7870   -0.8630 C   0  0  0  0  0  0  0  0  0  0  0  0
   -2.2390   -2.7930   -0.1110 N   0  0  0  0  0  0  0  0  0  0  0  0
   -1.4700   -3.8640    0.3880 C   0  0  0  0  0  0  0  0  0  0  0  0
   -2.3750   -4.8080    1.1470 C   0  0  0  0  0  0  0  0  0  0  0  0
   -3.4220   -2.0740    0.9680 P   0  0  0  0  0  0  0  0  0  0  0  0
   -3.2710   -2.5810    2.6170 O   0  0  0  0  0  0  0  0  0  0  0  0
  1  2  2  0
  2  3  1  0
  2 28  1  0
  3  4  1  6
  3 10  1  0
  4  5  1  0
  4  7  1  0
  5  6  1  0
  7  8  2  0
  7  9  1  0
 10 11  1  1
 10 12  1  0
 10 24  1  0
 12 13  2  0
 12 23  1  0
 13 14  1  0
 15 14  1  6
 15 16  1  0
 15 23  1  0
 16 17  1  0
 17 18  1  6
 17 22  1  0
 18 19  1  0
 19 20  1  0
 20 21  1  0
 22 23  1  0
 24 25  1  0
 25 26  1  0
 25 28  1  0
 26 27  1  0
 28 29  1  0
M  END
