
     RDKit          3D

 29 30  0  0  0  0  0  0  0  0999 V2000
    6.7140    1.8980    0.2930 C   0  0  0  0  0  0  0  0  0  0  0  0
    5.4050    1.4340    0.5180 O   0  0  0  0  0  0  0  0  0  0  0  0
    4.9640    0.2710   -0.0640 C   0  0  0  0  0  0  0  0  0  0  0  0
    5.7790   -0.3480   -0.7980 O   0  0  0  0  0  0  0  0  0  0  0  0
    3.5660   -0.2770    0.1460 C   0  0  0  0  0  0  0  0  0  0  0  0
    3.3470   -1.4200   -0.4920 C   0  0  0  0  0  0  0  0  0  0  0  0
    4.3900   -1.9740   -1.2580 F   0  0  0  0  0  0  0  0  0  0  0  0
    2.1860   -2.2710   -0.5230 C   0  0  0  0  0  0  0  0  0  0  0  0
    2.2270   -3.4380    0.0670 O   0  0  0  0  0  0  0  0  0  0  0  0
    0.8580   -2.0850   -1.1320 C   0  0  0  0  0  0  0  0  0  0  0  0
   -0.1860   -2.2880   -0.2580 O   0  0  0  0  0  0  0  0  0  0  0  0
   -0.6120   -1.8580    0.9540 C   0  0  0  0  0  0  0  0  0  0  0  0
   -0.4870   -2.3690    2.2600 C   0  0  0  0  0  0  0  0  0  0  0  0
   -1.1320   -1.4830    3.0730 C   0  0  0  0  0  0  0  0  0  0  0  0
   -1.6270   -0.4840    2.3130 C   0  0  0  0  0  0  0  0  0  0  0  0
   -1.3100   -0.7100    1.0030 N   0  0  0  0  0  0  0  0  0  0  0  0
   -1.6600    0.1260   -0.1430 C   0  0  1  0  0  0  0  0  0  0  0  0
   -2.4190   -0.6370   -1.1910 C   0  0  0  0  0  0  0  0  0  0  0  0
   -3.7160   -1.2030   -0.6380 C   0  0  0  0  0  0  0  0  0  0  0  0
   -4.3750   -1.9100   -1.6940 N   0  0  0  0  0  0  0  0  0  0  0  0
   -3.0500    1.3040    0.4080 P   0  0  0  0  0  0  0  0  0  0  0  0
   -3.9000    1.9840   -1.1050 C   0  0  0  0  0  0  0  0  0  0  0  0
   -2.4130    2.7010    1.3850 C   0  0  0  0  0  0  0  0  0  0  0  0
   -0.5300    0.8790   -0.7000 C   0  0  0  0  0  0  0  0  0  0  0  0
   -0.5330    0.9870   -1.9900 O   0  0  0  0  0  0  0  0  0  0  0  0
    0.5620    1.5130   -0.0850 N   0  0  0  0  0  0  0  0  0  0  0  0
    1.5060    1.1760    0.8960 C   0  0  0  0  0  0  0  0  0  0  0  0
    1.1580    1.7310    2.0580 O   0  0  0  0  0  0  0  0  0  0  0  0
    2.6910    0.4420    1.0050 N   0  0  0  0  0  0  0  0  0  0  0  0
  1  2  1  0
  2  3  1  0
  3  4  2  0
  3  5  1  0
  5  6  2  0
  5 29  1  0
  6  7  1  0
  6  8  1  0
  8  9  2  0
  8 10  1  0
 10 11  1  0
 11 12  1  0
 12 13  2  0
 12 16  1  0
 13 14  1  0
 14 15  2  0
 15 16  1  0
 16 17  1  0
 17 18  1  6
 17 21  1  0
 17 24  1  0
 18 19  1  0
 19 20  1  0
 21 22  1  0
 21 23  1  0
 24 25  2  0
 24 26  1  0
 26 27  1  0
 27 28  2  0
 27 29  1  0
M  END
