
     RDKit          3D

 28 29  0  0  0  0  0  0  0  0999 V2000
   -3.4020   -4.2180   -1.9830 C   0  0  0  0  0  0  0  0  0  0  0  0
   -2.8480   -2.8320   -2.1800 C   0  0  0  0  0  0  0  0  0  0  0  0
   -2.3270   -2.3000   -1.0120 O   0  0  0  0  0  0  0  0  0  0  0  0
   -1.7470   -1.0040   -0.9510 C   0  0  0  0  0  0  0  0  0  0  0  0
   -1.7550   -0.3420   -2.1360 C   0  0  0  0  0  0  0  0  0  0  0  0
   -1.2080    0.8980   -2.0920 C   0  0  0  0  0  0  0  0  0  0  0  0
   -0.6580    1.5020   -0.9210 C   0  0  0  0  0  0  0  0  0  0  0  0
   -0.6610    0.8110    0.2780 C   0  0  0  0  0  0  0  0  0  0  0  0
   -0.1540    1.3960    1.5520 N   0  0  0  0  0  0  0  0  0  0  0  0
   -0.9790    2.1450    2.4770 C   0  0  2  0  0  0  0  0  0  0  0  0
   -1.5030    3.3940    1.8480 C   0  0  0  0  0  0  0  0  0  0  0  0
   -0.4030    2.2750    3.6870 F   0  0  0  0  0  0  0  0  0  0  0  0
   -1.2220   -0.4860    0.2620 C   0  0  0  0  0  0  0  0  0  0  0  0
   -1.3970   -1.5230    1.2350 N   0  0  0  0  0  0  0  0  0  0  0  0
   -0.5600   -2.1280    2.2120 C   0  0  0  0  0  0  0  0  0  0  0  0
   -0.9860   -2.2990    3.3930 O   0  0  0  0  0  0  0  0  0  0  0  0
    0.8320   -2.6100    1.9960 C   0  0  0  0  0  0  0  0  0  0  0  0
    1.7950   -1.5690    2.3300 N   0  0  0  0  0  0  0  0  0  0  0  0
    2.8720   -1.1680    1.5460 C   0  0  0  0  0  0  0  0  0  0  0  0
    3.9580   -0.8300    2.0840 O   0  0  0  0  0  0  0  0  0  0  0  0
    2.8850   -1.0870    0.0470 C   0  0  0  0  0  0  0  0  0  0  0  0
    3.6310    0.5740   -0.3380 P   0  0  0  0  0  0  0  0  0  0  0  0
    5.2710    0.3520   -0.9250 O   0  0  0  0  0  0  0  0  0  0  0  0
    2.5750    1.3260   -1.6180 C   0  0  0  0  0  0  0  0  0  0  0  0
    2.3790    2.7610   -1.5390 C   0  0  0  0  0  0  0  0  0  0  0  0
    3.2450    3.6100   -1.9270 O   0  0  0  0  0  0  0  0  0  0  0  0
    1.1640    3.2630   -1.0030 N   0  0  0  0  0  0  0  0  0  0  0  0
   -0.1750    2.8620   -1.3410 C   0  0  0  0  0  0  0  0  0  0  0  0
  1  2  1  0
  2  3  1  0
  3  4  1  0
  4  5  2  0
  4 13  1  0
  5  6  1  0
  6  7  2  0
  7  8  1  0
  7 28  1  0
  8  9  1  0
  8 13  2  0
  9 10  1  0
 10 11  1  6
 10 12  1  0
 13 14  1  0
 14 15  1  0
 15 16  2  0
 15 17  1  0
 17 18  1  0
 18 19  1  0
 19 20  2  0
 19 21  1  0
 21 22  1  0
 22 23  1  0
 22 24  1  0
 24 25  1  0
 25 26  2  0
 25 27  1  0
 27 28  1  0
M  END
