
     RDKit          3D

 29 29  0  0  0  0  0  0  0  0999 V2000
    0.2190    3.6990   -1.6130 C   0  0  0  0  0  0  0  0  0  0  0  0
    0.5360    2.3830   -2.2970 C   0  0  0  0  0  0  0  0  0  0  0  0
    0.3260    1.3370   -1.3210 N   0  0  0  0  0  0  0  0  0  0  0  0
   -0.9620    0.7560   -1.2330 C   0  0  0  0  0  0  0  0  0  0  0  0
   -1.6180    0.8310   -0.0990 C   0  0  0  0  0  0  0  0  0  0  0  0
   -2.9850    0.2410    0.0720 C   0  0  1  0  0  0  0  0  0  0  0  0
   -3.6010    0.7520    1.3670 C   0  0  0  0  0  0  0  0  0  0  0  0
   -3.8600    0.6220   -1.0540 C   0  0  0  0  0  0  0  0  0  0  0  0
   -3.4370    1.4360   -1.9360 O   0  0  0  0  0  0  0  0  0  0  0  0
   -5.1640    0.0910   -1.1560 N   0  0  0  0  0  0  0  0  0  0  0  0
   -5.9050    0.5320   -2.2160 F   0  0  0  0  0  0  0  0  0  0  0  0
   -5.7890   -0.8640   -0.3000 C   0  0  0  0  0  0  0  0  0  0  0  0
   -5.5880   -2.1950   -0.7300 O   0  0  0  0  0  0  0  0  0  0  0  0
   -2.8590   -1.6040    0.1320 P   0  0  0  0  0  0  0  0  0  0  0  0
   -2.0890   -2.2740   -1.3940 C   0  0  0  0  0  0  0  0  0  0  0  0
   -2.1240   -2.1720    1.5740 O   0  0  0  0  0  0  0  0  0  0  0  0
   -3.0910   -2.8150    2.3430 C   0  0  0  0  0  0  0  0  0  0  0  0
    1.3450    0.8770   -0.4610 C   0  0  0  0  0  0  0  0  0  0  0  0
    1.1710   -0.0330    0.3910 O   0  0  0  0  0  0  0  0  0  0  0  0
    2.6470    1.4140   -0.5000 O   0  0  0  0  0  0  0  0  0  0  0  0
    3.6370    0.9330    0.3700 C   0  0  0  0  0  0  0  0  0  0  0  0
    3.7270    1.5920    1.5890 C   0  0  0  0  0  0  0  0  0  0  0  0
    4.6760    1.1780    2.4970 C   0  0  0  0  0  0  0  0  0  0  0  0
    5.4700    0.1500    2.1520 N   0  0  0  0  0  0  0  0  0  0  0  0
    5.4070   -0.5000    0.9920 C   0  0  0  0  0  0  0  0  0  0  0  0
    6.2770   -1.5480    0.7390 O   0  0  0  0  0  0  0  0  0  0  0  0
    7.2170   -1.9170    1.7060 C   0  0  0  0  0  0  0  0  0  0  0  0
    4.4570   -0.1010    0.0560 C   0  0  0  0  0  0  0  0  0  0  0  0
    4.3530   -0.7880   -1.2330 C   0  0  0  0  0  0  0  0  0  0  0  0
  1  2  1  0
  2  3  1  0
  3  4  1  0
  3 18  1  0
  4  5  2  3
  5  6  1  0
  6  7  1  1
  6  8  1  0
  6 14  1  0
  8  9  2  0
  8 10  1  0
 10 11  1  0
 10 12  1  0
 12 13  1  0
 14 15  1  0
 14 16  1  0
 16 17  1  0
 18 19  2  0
 18 20  1  0
 20 21  1  0
 21 22  2  0
 21 28  1  0
 22 23  1  0
 23 24  2  0
 24 25  1  0
 25 26  1  0
 25 28  2  0
 26 27  1  0
 28 29  1  0
M  END
