
     RDKit          3D

 35 36  0  0  0  0  0  0  0  0999 V2000
    3.1520   -2.9420   -0.8960 C   0  0  0  0  0  0  0  0  0  0  0  0
    2.7600   -2.1240    0.3480 C   0  0  1  0  0  0  0  0  0  0  0  0
    3.8870   -1.3810    0.7210 O   0  0  0  0  0  0  0  0  0  0  0  0
    4.5310   -1.6030    1.9370 C   0  0  0  0  0  0  0  0  0  0  0  0
    4.0730   -2.4900    2.6920 O   0  0  0  0  0  0  0  0  0  0  0  0
    5.6420   -0.8940    2.3400 O   0  0  0  0  0  0  0  0  0  0  0  0
    1.5990   -1.3110   -0.0390 C   0  0  0  0  0  0  0  0  0  0  0  0
    0.5540   -1.9450   -0.3590 O   0  0  0  0  0  0  0  0  0  0  0  0
    1.5540    0.1000   -0.0840 N   0  0  0  0  0  0  0  0  0  0  0  0
    2.7420    0.8600    0.2740 C   0  0  0  0  0  0  0  0  0  0  0  0
    2.4960    2.3680    0.1020 C   0  0  0  0  0  0  0  0  0  0  0  0
    1.2760    2.6730    0.9200 C   0  0  1  0  0  0  0  0  0  0  0  0
    1.0160    4.0260    1.0800 O   0  0  0  0  0  0  0  0  0  0  0  0
    1.0480    4.6360    2.3220 C   0  0  0  0  0  0  0  0  0  0  0  0
    1.3260    3.8990    3.3010 O   0  0  0  0  0  0  0  0  0  0  0  0
    0.0850    2.0200    0.3080 C   0  0  0  0  0  0  0  0  0  0  0  0
    0.3360    0.7890   -0.4870 C   0  0  1  0  0  0  0  0  0  0  0  0
    0.4440    1.1760   -1.9470 C   0  0  0  0  0  0  0  0  0  0  0  0
   -0.5670    0.4730   -2.8200 C   0  0  0  0  0  0  0  0  0  0  0  0
   -1.9870    0.6650   -2.4070 C   0  0  0  0  0  0  0  0  0  0  0  0
   -2.5650   -0.6070   -2.2060 O   0  0  0  0  0  0  0  0  0  0  0  0
   -3.8020   -0.6950   -2.6390 O   0  0  0  0  0  0  0  0  0  0  0  0
   -4.8170   -1.3900   -2.0070 C   0  0  0  0  0  0  0  0  0  0  0  0
   -5.6740   -1.9490   -2.7740 O   0  0  0  0  0  0  0  0  0  0  0  0
   -4.9660   -1.5220   -0.6170 N   0  0  0  0  0  0  0  0  0  0  0  0
   -3.8850   -1.5070    0.3480 C   0  0  2  0  0  0  0  0  0  0  0  0
   -2.7560   -2.1430   -0.1290 F   0  0  0  0  0  0  0  0  0  0  0  0
   -4.3570   -2.2420    1.5760 C   0  0  0  0  0  0  0  0  0  0  0  0
   -5.5020   -2.7350    1.6350 O   0  0  0  0  0  0  0  0  0  0  0  0
   -3.5270   -2.3900    2.6770 O   0  0  0  0  0  0  0  0  0  0  0  0
   -3.6150   -0.1000    0.7450 C   0  0  0  0  0  0  0  0  0  0  0  0
   -4.6230    0.6520    0.7710 O   0  0  0  0  0  0  0  0  0  0  0  0
   -2.3350    0.2410    1.0370 O   0  0  0  0  0  0  0  0  0  0  0  0
   -1.1970   -0.3260    0.7570 O   0  0  0  0  0  0  0  0  0  0  0  0
   -0.7040   -0.1350   -0.4130 O   0  0  0  0  0  0  0  0  0  0  0  0
  2  1  1  6
  2  3  1  0
  2  7  1  0
  3  4  1  0
  4  5  2  0
  4  6  1  0
  7  8  2  0
  7  9  1  0
  9 10  1  0
  9 17  1  0
 10 11  1  0
 11 12  1  0
 12 13  1  6
 12 16  1  0
 13 14  1  0
 14 15  2  0
 17 16  1  1
 17 18  1  0
 17 35  1  0
 18 19  1  0
 19 20  1  0
 20 21  1  0
 21 22  1  0
 22 23  1  0
 23 24  2  0
 23 25  1  0
 25 26  1  0
 26 27  1  6
 26 28  1  0
 26 31  1  0
 28 29  2  0
 28 30  1  0
 31 32  2  0
 31 33  1  0
 33 34  1  0
 34 35  1  0
M  END
