
     RDKit          3D

 36 38  0  0  0  0  0  0  0  0999 V2000
    5.3610    2.8900    2.3600 C   0  0  0  0  0  0  0  0  0  0  0  0
    4.2760    2.7560    1.4640 O   0  0  0  0  0  0  0  0  0  0  0  0
    3.1010    2.5750    2.2270 C   0  0  0  0  0  0  0  0  0  0  0  0
    1.9590    2.4330    1.2670 C   0  0  0  0  0  0  0  0  0  0  0  0
    2.1300    1.2740    0.3660 N   0  0  0  0  0  0  0  0  0  0  0  0
    2.8000    1.3350   -0.7890 C   0  0  0  0  0  0  0  0  0  0  0  0
    3.3530    2.4180   -1.2280 O   0  0  0  0  0  0  0  0  0  0  0  0
    2.7710    0.1020   -1.3390 N   0  0  0  0  0  0  0  0  0  0  0  0
    2.0970   -0.7790   -0.5280 C   0  0  0  0  0  0  0  0  0  0  0  0
    2.0750   -2.0920   -0.6930 N   0  0  0  0  0  0  0  0  0  0  0  0
    1.7020   -0.0030    0.5030 N   0  0  0  0  0  0  0  0  0  0  0  0
    0.7280   -0.2460    1.5710 C   0  0  0  0  0  0  0  0  0  0  0  0
    1.0040    0.0980    2.7680 O   0  0  0  0  0  0  0  0  0  0  0  0
   -0.5760   -0.8560    1.4130 N   0  0  0  0  0  0  0  0  0  0  0  0
   -1.4670   -0.7460    2.5940 C   0  0  0  0  0  0  0  0  0  0  0  0
   -1.2760   -1.9660    3.4970 C   0  0  0  0  0  0  0  0  0  0  0  0
    0.0470   -2.0180    3.9150 O   0  0  0  0  0  0  0  0  0  0  0  0
   -1.0430   -1.5540    0.2850 C   0  0  0  0  0  0  0  0  0  0  0  0
   -1.8370   -0.9590   -0.8030 C   0  0  2  0  0  0  0  0  0  0  0  0
   -2.4810    0.3450   -0.5930 C   0  0  0  0  0  0  0  0  0  0  0  0
   -3.2730    0.7670   -1.8050 C   0  0  0  0  0  0  0  0  0  0  0  0
   -4.2950   -0.2020   -2.0970 O   0  0  0  0  0  0  0  0  0  0  0  0
   -5.1240    0.0260   -3.1860 C   0  0  0  0  0  0  0  0  0  0  0  0
   -4.9670    1.0640   -3.8880 O   0  0  0  0  0  0  0  0  0  0  0  0
   -6.1450   -0.8580   -3.5460 O   0  0  0  0  0  0  0  0  0  0  0  0
   -2.9080   -1.9570   -1.1520 O   0  0  0  0  0  0  0  0  0  0  0  0
   -2.1150   -3.0160   -1.6530 C   0  0  0  0  0  0  0  0  0  0  0  0
   -2.4960   -4.2080   -1.6430 O   0  0  0  0  0  0  0  0  0  0  0  0
   -0.8940   -2.4780   -2.1320 O   0  0  0  0  0  0  0  0  0  0  0  0
   -1.1700   -1.0790   -2.1390 C   0  0  2  0  0  0  0  0  0  0  0  0
   -0.0500   -0.2090   -2.5070 C   0  0  0  0  0  0  0  0  0  0  0  0
   -0.1630    0.9580   -1.9450 O   0  0  0  0  0  0  0  0  0  0  0  0
    0.8900   -0.6800   -3.3270 O   0  0  0  0  0  0  0  0  0  0  0  0
    2.1790   -0.4980   -3.6840 O   0  0  0  0  0  0  0  0  0  0  0  0
    3.1590   -0.0290   -2.7430 C   0  0  0  0  0  0  0  0  0  0  0  0
    4.2560    0.2370   -3.1920 O   0  0  0  0  0  0  0  0  0  0  0  0
  1  2  1  0
  2  3  1  0
  3  4  1  0
  4  5  1  0
  5  6  1  0
  5 11  1  0
  6  7  2  0
  6  8  1  0
  8  9  1  0
  8 35  1  0
  9 10  2  0
  9 11  1  0
 11 12  1  0
 12 13  2  0
 12 14  1  0
 14 15  1  0
 14 18  1  0
 15 16  1  0
 16 17  1  0
 18 19  1  0
 19 20  1  1
 19 26  1  0
 19 30  1  0
 20 21  1  0
 21 22  1  0
 22 23  1  0
 23 24  2  0
 23 25  1  0
 26 27  1  0
 27 28  2  0
 27 29  1  0
 30 29  1  1
 30 31  1  0
 31 32  2  0
 31 33  1  0
 33 34  1  0
 34 35  1  0
 35 36  2  0
M  END
