
     RDKit          3D

 36 38  0  0  0  0  0  0  0  0999 V2000
    3.8690   -1.5040    1.4500 O   0  0  0  0  0  0  0  0  0  0  0  0
    3.6310   -0.6450    0.5450 C   0  0  0  0  0  0  0  0  0  0  0  0
    4.6970    0.0040   -0.1290 N   0  0  0  0  0  0  0  0  0  0  0  0
    6.0710   -0.3020    0.2040 C   0  0  0  0  0  0  0  0  0  0  0  0
    7.0020    0.5030   -0.6360 C   0  0  0  0  0  0  0  0  0  0  0  0
    6.5590    1.3250   -1.5050 O   0  0  0  0  0  0  0  0  0  0  0  0
    8.3660    0.3940   -0.5100 O   0  0  0  0  0  0  0  0  0  0  0  0
    9.2510    1.1590   -1.3070 C   0  0  0  0  0  0  0  0  0  0  0  0
   10.6630    0.7690   -0.8860 C   0  0  0  0  0  0  0  0  0  0  0  0
   10.7980    1.0710    0.4740 O   0  0  0  0  0  0  0  0  0  0  0  0
    2.2650   -0.3820    0.2570 N   0  0  0  0  0  0  0  0  0  0  0  0
    1.2230   -1.0540    0.9540 C   0  0  0  0  0  0  0  0  0  0  0  0
    1.4310   -1.9640    1.9100 N   0  0  0  0  0  0  0  0  0  0  0  0
    0.2880   -2.3610    2.3170 O   0  0  0  0  0  0  0  0  0  0  0  0
   -0.7120   -1.7620    1.6810 C   0  0  0  0  0  0  0  0  0  0  0  0
   -0.1440   -0.9070    0.7900 C   0  0  0  0  0  0  0  0  0  0  0  0
   -0.8630   -0.0240   -0.1400 C   0  0  0  0  0  0  0  0  0  0  0  0
   -1.3600    1.1470    0.4710 O   0  0  0  0  0  0  0  0  0  0  0  0
   -2.6760    1.4540    0.6850 C   0  0  0  0  0  0  0  0  0  0  0  0
   -3.0370    2.0760    1.7160 O   0  0  0  0  0  0  0  0  0  0  0  0
   -3.7900    1.0880   -0.2650 C   0  0  2  0  0  0  0  0  0  0  0  0
   -4.3920    2.3620   -0.8160 C   0  0  0  0  0  0  0  0  0  0  0  0
   -5.5100    2.1400   -1.7840 C   0  0  0  0  0  0  0  0  0  0  0  0
   -6.5880    1.4590   -1.2610 O   0  0  0  0  0  0  0  0  0  0  0  0
   -7.5170    1.3070   -2.1640 O   0  0  0  0  0  0  0  0  0  0  0  0
   -7.4350    0.1680   -2.7800 O   0  0  0  0  0  0  0  0  0  0  0  0
   -4.8710    0.3250    0.4930 C   0  0  0  0  0  0  0  0  0  0  0  0
   -5.4590   -0.6700   -0.2380 O   0  0  0  0  0  0  0  0  0  0  0  0
   -5.3120   -1.9420    0.2450 C   0  0  2  0  0  0  0  0  0  0  0  0
   -6.4900   -2.3020    0.8960 O   0  0  0  0  0  0  0  0  0  0  0  0
   -7.0220   -3.3700    0.3800 O   0  0  0  0  0  0  0  0  0  0  0  0
   -4.2060   -2.0480    1.2540 C   0  0  0  0  0  0  0  0  0  0  0  0
   -2.9610   -1.8220    0.8480 N   0  0  0  0  0  0  0  0  0  0  0  0
   -2.1410   -1.9640    1.8820 C   0  0  0  0  0  0  0  0  0  0  0  0
   -2.9410   -2.2800    2.9120 N   0  0  0  0  0  0  0  0  0  0  0  0
   -4.1730   -2.3280    2.5260 O   0  0  0  0  0  0  0  0  0  0  0  0
  1  2  2  0
  2  3  1  0
  2 11  1  0
  3  4  1  0
  4  5  1  0
  5  6  2  0
  5  7  1  0
  7  8  1  0
  8  9  1  0
  9 10  1  0
 11 12  1  0
 12 13  2  0
 12 16  1  0
 13 14  1  0
 14 15  1  0
 15 16  2  0
 15 34  1  0
 16 17  1  0
 17 18  1  0
 18 19  1  0
 19 20  2  0
 19 21  1  0
 21 22  1  1
 21 27  1  0
 22 23  1  0
 23 24  1  0
 24 25  1  0
 25 26  1  0
 27 28  1  0
 28 29  1  0
 29 30  1  1
 29 32  1  0
 30 31  1  0
 32 33  2  0
 32 36  1  0
 33 34  1  0
 34 35  2  0
 35 36  1  0
M  END
