
     RDKit          3D

 35 36  0  0  0  0  0  0  0  0999 V2000
   -5.5290    3.4150   -1.1850 C   0  0  0  0  0  0  0  0  0  0  0  0
   -4.6670    2.3290   -0.8860 O   0  0  0  0  0  0  0  0  0  0  0  0
   -3.2960    2.4790   -0.7560 C   0  0  0  0  0  0  0  0  0  0  0  0
   -2.8470    3.6430   -0.9180 O   0  0  0  0  0  0  0  0  0  0  0  0
   -2.3650    1.3460   -0.4410 C   0  0  1  0  0  0  0  0  0  0  0  0
   -1.6350    1.7380    0.7680 C   0  0  0  0  0  0  0  0  0  0  0  0
   -1.6710    1.1380    1.8740 O   0  0  0  0  0  0  0  0  0  0  0  0
   -0.8100    2.8590    0.7760 O   0  0  0  0  0  0  0  0  0  0  0  0
   -3.1530    0.2420   -0.3260 O   0  0  0  0  0  0  0  0  0  0  0  0
   -4.0370    0.1130    0.6780 C   0  0  0  0  0  0  0  0  0  0  0  0
   -4.1700   -1.3590    1.1040 C   0  0  0  0  0  0  0  0  0  0  0  0
   -2.9630   -1.8400    1.7870 C   0  0  0  0  0  0  0  0  0  0  0  0
   -2.9080   -1.8710    3.0240 O   0  0  0  0  0  0  0  0  0  0  0  0
   -1.9040   -2.2520    1.0280 O   0  0  0  0  0  0  0  0  0  0  0  0
   -1.9820   -3.0110   -0.0980 O   0  0  0  0  0  0  0  0  0  0  0  0
   -0.9710   -3.2180   -0.9950 C   0  0  0  0  0  0  0  0  0  0  0  0
   -0.4380   -4.3270   -1.2790 O   0  0  0  0  0  0  0  0  0  0  0  0
   -0.4400   -2.1030   -1.6980 N   0  0  0  0  0  0  0  0  0  0  0  0
   -1.2650   -1.0180   -2.2200 C   0  0  0  0  0  0  0  0  0  0  0  0
   -0.7060    0.3230   -1.8050 C   0  0  2  0  0  0  0  0  0  0  0  0
    0.4130    0.2100   -0.7980 C   0  0  0  0  0  0  0  0  0  0  0  0
    1.5060   -0.6480   -1.3860 C   0  0  1  0  0  0  0  0  0  0  0  0
    2.1440    0.1080   -2.3800 F   0  0  0  0  0  0  0  0  0  0  0  0
    2.4420   -0.9560   -0.3260 N   0  0  0  0  0  0  0  0  0  0  0  0
    3.1660    0.0060    0.3930 C   0  0  0  0  0  0  0  0  0  0  0  0
    3.0160    1.2310    0.1260 O   0  0  0  0  0  0  0  0  0  0  0  0
    4.1150   -0.3610    1.4690 C   0  0  2  0  0  0  0  0  0  0  0  0
    4.6560    0.9020    2.1580 C   0  0  0  0  0  0  0  0  0  0  0  0
    3.5490    1.5840    2.6950 O   0  0  0  0  0  0  0  0  0  0  0  0
    3.9610    2.6770    3.2980 O   0  0  0  0  0  0  0  0  0  0  0  0
    5.2700   -1.1250    0.8550 C   0  0  0  0  0  0  0  0  0  0  0  0
    4.8510   -2.2820    0.2250 O   0  0  0  0  0  0  0  0  0  0  0  0
    5.8670   -2.9090   -0.2890 O   0  0  0  0  0  0  0  0  0  0  0  0
    0.9940   -1.9430   -1.9610 C   0  0  0  0  0  0  0  0  0  0  0  0
   -1.6470    1.2150   -1.5790 O   0  0  0  0  0  0  0  0  0  0  0  0
  1  2  1  0
  2  3  1  0
  3  4  2  0
  5  3  1  6
  5  6  1  0
  5  9  1  0
  5 35  1  0
  6  7  2  0
  6  8  1  0
  9 10  1  0
 10 11  1  0
 11 12  1  0
 12 13  2  0
 12 14  1  0
 14 15  1  0
 15 16  1  0
 16 17  2  0
 16 18  1  0
 18 19  1  0
 18 34  1  0
 19 20  1  0
 20 21  1  1
 20 35  1  0
 21 22  1  0
 22 23  1  6
 22 24  1  0
 22 34  1  0
 24 25  1  0
 25 26  2  0
 25 27  1  0
 27 28  1  6
 27 31  1  0
 28 29  1  0
 29 30  1  0
 31 32  1  0
 32 33  1  0
M  END
