
     RDKit          3D

 27 27  0  0  0  0  0  0  0  0999 V2000
   -5.0660    0.8320    0.4000 C   0  0  0  0  0  0  0  0  0  0  0  0
   -4.1740    1.4760   -0.5530 C   0  0  1  0  0  0  0  0  0  0  0  0
   -3.7140    2.8450   -0.0700 C   0  0  0  0  0  0  0  0  0  0  0  0
   -2.9520    0.6970   -1.0690 C   0  0  0  0  0  0  0  0  0  0  0  0
   -2.1890    0.2160    0.0800 C   0  0  2  0  0  0  0  0  0  0  0  0
   -0.8630   -0.2620    0.0220 N   0  0  0  0  0  0  0  0  0  0  0  0
    0.3150    0.8770    0.5340 P   0  0  0  0  0  0  0  0  0  0  0  0
    1.6740    0.2270    1.2520 O   0  0  0  0  0  0  0  0  0  0  0  0
   -0.2110    2.3900    0.9670 O   0  0  0  0  0  0  0  0  0  0  0  0
    1.0370    1.2420   -0.8860 C   0  0  0  0  0  0  0  0  0  0  0  0
    2.4940    0.9490   -0.9850 N   0  0  0  0  0  0  0  0  0  0  0  0
    3.3750    1.7740   -0.1550 C   0  0  0  0  0  0  0  0  0  0  0  0
    2.9510    2.7610    0.5230 O   0  0  0  0  0  0  0  0  0  0  0  0
    4.6570    1.4810   -0.0800 O   0  0  0  0  0  0  0  0  0  0  0  0
    5.8130    1.8560    0.4710 C   0  0  0  0  0  0  0  0  0  0  0  0
    6.6690    0.6640    0.1410 C   0  0  0  0  0  0  0  0  0  0  0  0
    7.6910    0.6820   -0.7100 C   0  0  0  0  0  0  0  0  0  0  0  0
    8.3850   -0.4970   -1.0550 C   0  0  0  0  0  0  0  0  0  0  0  0
    7.9400   -1.6470   -0.4600 C   0  0  0  0  0  0  0  0  0  0  0  0
    6.8810   -1.7100    0.4350 C   0  0  0  0  0  0  0  0  0  0  0  0
    6.2420   -0.5110    0.7310 C   0  0  0  0  0  0  0  0  0  0  0  0
   -2.8240   -1.2010    0.4900 C   0  0  0  0  0  0  0  0  0  0  0  0
   -2.9680   -1.4430    1.6580 O   0  0  0  0  0  0  0  0  0  0  0  0
   -3.1130   -2.0270   -0.5970 N   0  0  0  0  0  0  0  0  0  0  0  0
   -3.6560   -3.3680   -0.4110 C   0  0  0  0  0  0  0  0  0  0  0  0
   -5.0490   -3.3350    0.1230 C   0  0  0  0  0  0  0  0  0  0  0  0
   -5.9080   -2.6230   -0.8300 N   0  0  0  0  0  0  0  0  0  0  0  0
  2  1  1  1
  2  3  1  0
  2  4  1  0
  5  4  1  6
  5  6  1  0
  5 22  1  0
  6  7  1  0
  7  8  1  0
  7  9  1  0
  7 10  1  0
 10 11  1  0
 11 12  1  0
 12 13  2  0
 12 14  1  0
 14 15  1  0
 15 16  1  0
 16 17  2  0
 16 21  1  0
 17 18  1  0
 18 19  2  0
 19 20  1  0
 20 21  2  0
 22 23  2  0
 22 24  1  0
 24 25  1  0
 25 26  1  0
 26 27  1  0
M  CHG  1  27   1
M  END
