
     RDKit          3D

 28 29  0  0  0  0  0  0  0  0999 V2000
    1.9990    4.5280    0.4930 C   0  0  0  0  0  0  0  0  0  0  0  0
    2.9230    3.4390    0.8120 C   0  0  0  0  0  0  0  0  0  0  0  0
    2.5660    2.1430    0.9430 C   0  0  0  0  0  0  0  0  0  0  0  0
    1.2230    1.7130    0.7760 C   0  0  0  0  0  0  0  0  0  0  0  0
    0.3780    2.6890    0.4650 O   0  0  0  0  0  0  0  0  0  0  0  0
    0.5830    0.4730    0.8630 N   0  0  0  0  0  0  0  0  0  0  0  0
    1.0820   -0.7740    1.2680 C   0  0  0  0  0  0  0  0  0  0  0  0
    2.1840   -1.2240    1.7390 C   0  0  0  0  0  0  0  0  0  0  0  0
    3.3170   -0.5810    2.0220 F   0  0  0  0  0  0  0  0  0  0  0  0
    2.2980   -2.6370    2.0350 O   0  0  0  0  0  0  0  0  0  0  0  0
    2.8080   -3.4540    1.0570 C   0  0  0  0  0  0  0  0  0  0  0  0
    2.9670   -4.9360    1.2470 C   0  0  0  0  0  0  0  0  0  0  0  0
    3.1720   -3.0020   -0.0560 O   0  0  0  0  0  0  0  0  0  0  0  0
   -0.8870    0.5100    0.5160 C   0  0  0  0  0  0  0  0  0  0  0  0
   -1.0890    0.3400   -0.9380 C   0  0  1  0  0  0  0  0  0  0  0  0
   -0.2810    1.5710   -1.9660 Cl  0  0  0  0  0  0  0  0  0  0  0  0
   -1.2050   -0.9900   -1.5340 C   0  0  2  0  0  0  0  0  0  0  0  0
   -1.5400   -1.9760   -0.6240 F   0  0  0  0  0  0  0  0  0  0  0  0
   -0.3020   -1.4040   -2.5150 O   0  0  0  0  0  0  0  0  0  0  0  0
    0.8830   -1.7610   -1.9750 C   0  0  0  0  0  0  0  0  0  0  0  0
   -2.4300   -0.6140   -2.1610 O   0  0  0  0  0  0  0  0  0  0  0  0
   -2.5760    0.3640   -1.2970 C   0  0  1  0  0  0  0  0  0  0  0  0
   -3.7020    0.1230    0.1620 P   0  0  0  0  0  0  0  0  0  0  0  0
   -5.0250   -1.0810   -0.3370 C   0  0  0  0  0  0  0  0  0  0  0  0
   -4.3710    1.7460    0.2770 O   0  0  0  0  0  0  0  0  0  0  0  0
   -4.6650    2.1200   -0.9240 O   0  0  0  0  0  0  0  0  0  0  0  0
   -3.1890    2.0130   -1.8750 P   0  0  0  0  0  0  0  0  0  0  0  0
   -2.1080    3.2870   -1.5260 O   0  0  0  0  0  0  0  0  0  0  0  0
  1  2  1  0
  2  3  2  3
  3  4  1  0
  4  5  2  0
  4  6  1  0
  6  7  1  0
  6 14  1  0
  7  8  2  3
  8  9  1  0
  8 10  1  0
 10 11  1  0
 11 12  1  0
 11 13  2  0
 14 15  1  0
 15 16  1  6
 15 17  1  0
 15 22  1  0
 17 18  1  1
 17 19  1  0
 17 21  1  0
 19 20  1  0
 22 21  1  6
 22 23  1  0
 22 27  1  0
 23 24  1  0
 23 25  1  0
 25 26  1  0
 26 27  1  0
 27 28  1  0
M  END
