
     RDKit          3D

 13 13  0  0  0  0  0  0  0  0999 V2000
   -4.2070   -1.1570   -0.3990 O   0  0  0  0  0  0  0  0  0  0  0  0
   -3.5600   -1.3340    0.6760 C   0  0  0  0  0  0  0  0  0  0  0  0
   -2.4240   -0.5900    0.8880 O   0  0  0  0  0  0  0  0  0  0  0  0
   -2.0160    0.3410   -0.0910 C   0  0  0  0  0  0  0  0  0  0  0  0
   -0.4820    1.2330    0.3750 P   0  0  0  0  0  0  0  0  0  0  0  0
   -0.2490    2.9180   -0.9600 S   0  0  0  0  0  0  0  0  0  0  0  0
    0.5530    4.1600   -0.0670 O   0  0  0  0  0  0  0  0  0  0  0  0
    1.0070    0.1720    0.3970 C   0  0  1  0  0  0  0  0  0  0  0  0
    0.7690   -1.2100    0.4990 O   0  0  0  0  0  0  0  0  0  0  0  0
    1.9060   -1.3690   -0.3280 C   0  0  2  0  0  0  0  0  0  0  0  0
    3.0780   -1.2240    0.4140 O   0  0  0  0  0  0  0  0  0  0  0  0
    3.9410   -2.1560    0.1220 O   0  0  0  0  0  0  0  0  0  0  0  0
    1.5630   -0.1100   -0.8720 O   0  0  0  0  0  0  0  0  0  0  0  0
  1  2  2  0
  2  3  1  0
  3  4  1  0
  4  5  1  0
  5  6  1  0
  8  5  1  6
  6  7  1  0
  8  9  1  0
  8 13  1  0
  9 10  1  0
 10 11  1  1
 10 13  1  0
 11 12  1  0
M  END
