
     RDKit          3D

 13 12  0  0  0  0  0  0  0  0999 V2000
   -3.7340   -0.6700   -0.0510 C   0  0  0  0  0  0  0  0  0  0  0  0
   -2.5450   -1.0640    0.7250 C   0  0  0  0  0  0  0  0  0  0  0  0
   -2.6830   -1.9040    1.6010 O   0  0  0  0  0  0  0  0  0  0  0  0
   -1.2360   -0.4380    0.4210 C   0  0  0  0  0  0  0  0  0  0  0  0
   -1.3840    0.4600   -0.6020 O   0  0  0  0  0  0  0  0  0  0  0  0
    0.0670    1.2540   -1.0480 P   0  0  0  0  0  0  0  0  0  0  0  0
   -0.1960    3.1030   -0.8440 C   0  0  0  0  0  0  0  0  0  0  0  0
    1.4040    0.8220   -0.0550 O   0  0  0  0  0  0  0  0  0  0  0  0
    2.3430    0.2370   -0.7480 O   0  0  0  0  0  0  0  0  0  0  0  0
    2.7300   -0.9900   -0.1990 C   0  0  1  0  0  0  0  0  0  0  0  0
    2.5380   -2.0320   -1.0960 O   0  0  0  0  0  0  0  0  0  0  0  0
    4.0970   -0.9410    0.1030 O   0  0  0  0  0  0  0  0  0  0  0  0
    4.2280   -1.1070    1.3980 O   0  0  0  0  0  0  0  0  0  0  0  0
  1  2  1  0
  2  3  2  0
  2  4  1  0
  4  5  1  0
  5  6  1  0
  6  7  1  0
  6  8  1  0
  8  9  1  0
  9 10  1  0
 10 11  1  6
 10 12  1  0
 12 13  1  0
M  END
