
     RDKit          3D

 28 31  0  0  0  0  0  0  0  0999 V2000
   -4.4460    3.3080   -0.2800 C   0  0  0  0  0  0  0  0  0  0  0  0
   -4.6820    2.5340    0.7630 C   0  0  0  0  0  0  0  0  0  0  0  0
   -4.3580    1.0950    0.7150 C   0  0  0  0  0  0  0  0  0  0  0  0
   -3.4360    0.7460    1.6990 O   0  0  0  0  0  0  0  0  0  0  0  0
   -3.0300   -0.9140    1.6800 P   0  0  0  0  0  0  0  0  0  0  0  0
   -3.7570   -1.8690    3.0690 C   0  0  0  0  0  0  0  0  0  0  0  0
   -1.3250   -1.1910    1.5970 O   0  0  0  0  0  0  0  0  0  0  0  0
   -0.8410   -0.9890    0.2980 C   0  0  2  0  0  0  0  0  0  0  0  0
   -1.5260   -1.9250   -0.6010 C   0  0  0  0  0  0  0  0  0  0  0  0
   -0.9530   -2.4460   -1.6430 C   0  0  0  0  0  0  0  0  0  0  0  0
    0.7990   -1.9340   -1.9240 P   0  0  0  0  0  0  0  0  0  0  0  0
    1.7820   -3.5010   -2.1910 C   0  0  0  0  0  0  0  0  0  0  0  0
    1.0000   -1.4500    0.2650 P   0  0  0  0  0  0  0  0  0  0  0  0
    1.9350    0.0750    0.5310 C   0  0  1  0  0  0  0  0  0  0  0  0
    2.2000    0.2830    1.9260 O   0  0  0  0  0  0  0  0  0  0  0  0
    3.3090   -0.2790    2.2330 O   0  0  0  0  0  0  0  0  0  0  0  0
    4.3140    0.3640    1.6020 O   0  0  0  0  0  0  0  0  0  0  0  0
    3.6770    0.1050   -0.0290 P   0  0  0  0  0  0  0  0  0  0  0  0
    3.9370    1.6340   -0.9440 C   0  0  0  0  0  0  0  0  0  0  0  0
    5.2330    1.9600   -1.4580 C   0  0  0  0  0  0  0  0  0  0  0  0
    6.2360    1.1280   -1.2530 C   0  0  0  0  0  0  0  0  0  0  0  0
    7.4870    1.3600   -1.7020 F   0  0  0  0  0  0  0  0  0  0  0  0
    6.0610   -0.0440   -0.5580 F   0  0  0  0  0  0  0  0  0  0  0  0
    2.9420    2.4530   -1.1430 C   0  0  0  0  0  0  0  0  0  0  0  0
    1.6680    2.1830   -0.6530 N   0  0  0  0  0  0  0  0  0  0  0  0
    1.2010    1.2550    0.0130 C   0  0  0  0  0  0  0  0  0  0  0  0
   -0.1750    1.1860    0.3850 O   0  0  0  0  0  0  0  0  0  0  0  0
   -1.0110    0.3050   -0.0920 O   0  0  0  0  0  0  0  0  0  0  0  0
  1  2  2  0
  2  3  1  0
  3  4  1  0
  4  5  1  0
  5  6  1  0
  5  7  1  0
  8  7  1  1
  8  9  1  0
  8 13  1  0
  8 28  1  0
  9 10  2  0
 10 11  1  0
 11 12  1  0
 11 13  1  0
 13 14  1  0
 14 15  1  1
 14 18  1  0
 14 26  1  0
 15 16  1  0
 16 17  1  0
 17 18  1  0
 18 19  1  0
 19 20  1  0
 19 24  2  0
 20 21  2  3
 21 22  1  0
 21 23  1  0
 24 25  1  0
 25 26  2  0
 26 27  1  0
 27 28  1  0
M  END
