
     RDKit          3D

 28 29  0  0  0  0  0  0  0  0999 V2000
    6.0570    0.9610    0.9780 C   0  0  0  0  0  0  0  0  0  0  0  0
    5.7140    2.2900    0.4320 C   0  0  0  0  0  0  0  0  0  0  0  0
    6.5580    3.2220    0.3700 O   0  0  0  0  0  0  0  0  0  0  0  0
    4.3530    2.5620   -0.0610 C   0  0  0  0  0  0  0  0  0  0  0  0
    3.4450    1.6000   -0.0070 C   0  0  0  0  0  0  0  0  0  0  0  0
    2.1090    1.8370   -0.4820 C   0  0  0  0  0  0  0  0  0  0  0  0
    1.1430    0.9020   -0.4520 C   0  0  0  0  0  0  0  0  0  0  0  0
    1.4140   -0.4470    0.0820 C   0  0  0  0  0  0  0  0  0  0  0  0
    0.2760   -1.2500    0.3140 N   0  0  0  0  0  0  0  0  0  0  0  0
    0.6500   -2.6480    0.2430 C   0  0  2  0  0  0  0  0  0  0  0  0
    1.9840   -2.8000    0.5850 F   0  0  0  0  0  0  0  0  0  0  0  0
    0.3960   -3.2820   -1.0810 C   0  0  0  0  0  0  0  0  0  0  0  0
    0.3480   -2.2640   -2.0840 O   0  0  0  0  0  0  0  0  0  0  0  0
   -0.5700   -1.2470   -1.8770 C   0  0  0  0  0  0  0  0  0  0  0  0
   -1.0990   -0.6210   -2.8200 O   0  0  0  0  0  0  0  0  0  0  0  0
   -0.8920   -0.9410   -0.4350 C   0  0  1  0  0  0  0  0  0  0  0  0
   -1.9760   -1.7170   -0.1180 O   0  0  0  0  0  0  0  0  0  0  0  0
   -3.3270   -1.2620   -1.0770 P   0  0  0  0  0  0  0  0  0  0  0  0
   -4.4100   -0.2050   -0.2660 O   0  0  0  0  0  0  0  0  0  0  0  0
   -5.0950    0.5480   -1.0900 O   0  0  0  0  0  0  0  0  0  0  0  0
   -5.2700    1.8320   -0.5660 C   0  0  0  0  0  0  0  0  0  0  0  0
   -5.9940    2.6420   -1.4280 O   0  0  0  0  0  0  0  0  0  0  0  0
   -1.2250    0.5130   -0.3770 C   0  0  1  0  0  0  0  0  0  0  0  0
   -1.6020    1.0590    0.9180 C   0  0  0  0  0  0  0  0  0  0  0  0
   -2.0560    0.3350    2.2890 P   0  0  0  0  0  0  0  0  0  0  0  0
   -2.2650   -1.4030    2.7320 C   0  0  0  0  0  0  0  0  0  0  0  0
   -2.4360   -1.4840    4.1250 F   0  0  0  0  0  0  0  0  0  0  0  0
   -0.1220    1.2000   -0.9280 O   0  0  0  0  0  0  0  0  0  0  0  0
  1  2  1  0
  2  3  2  0
  2  4  1  0
  4  5  2  3
  5  6  1  0
  6  7  2  3
  7  8  1  0
  7 28  1  0
  8  9  1  0
  9 10  1  0
  9 16  1  0
 10 11  1  6
 10 12  1  0
 12 13  1  0
 13 14  1  0
 14 15  2  0
 14 16  1  0
 16 17  1  1
 16 23  1  0
 17 18  1  0
 18 19  1  0
 19 20  1  0
 20 21  1  0
 21 22  1  0
 23 24  1  1
 23 28  1  0
 24 25  2  3
 25 26  1  0
 26 27  1  0
M  END
