
     RDKit          3D

 26 26  0  0  0  0  0  0  0  0999 V2000
   -5.3080   -1.8610    0.9010 C   0  0  0  0  0  0  0  0  0  0  0  0
   -3.9730   -1.5460    1.5510 C   0  0  1  0  0  0  0  0  0  0  0  0
   -3.7510   -2.7800    2.4960 C   0  0  0  0  0  0  0  0  0  0  0  0
   -2.8430   -1.5390    0.5790 C   0  0  0  0  0  0  0  0  0  0  0  0
   -2.8480   -0.6390   -0.5640 C   0  0  2  0  0  0  0  0  0  0  0  0
   -1.7410   -0.7900   -1.4760 N   0  0  0  0  0  0  0  0  0  0  0  0
   -0.1670   -0.5000   -0.9360 P   0  0  0  0  0  0  0  0  0  0  0  0
    0.1550    0.3650    0.4480 O   0  0  0  0  0  0  0  0  0  0  0  0
   -0.1460   -1.7930   -0.1270 O   0  0  0  0  0  0  0  0  0  0  0  0
    1.1630   -0.8250   -2.0240 C   0  0  0  0  0  0  0  0  0  0  0  0
    2.1650    0.2150   -2.1540 N   0  0  0  0  0  0  0  0  0  0  0  0
    2.9600    0.6860   -1.0570 C   0  0  0  0  0  0  0  0  0  0  0  0
    2.7320    0.1290    0.0460 O   0  0  0  0  0  0  0  0  0  0  0  0
    3.9070    1.6850   -1.2250 O   0  0  0  0  0  0  0  0  0  0  0  0
    4.6720    2.1260   -0.1310 C   0  0  0  0  0  0  0  0  0  0  0  0
    5.4370    0.9890    0.4030 C   0  0  0  0  0  0  0  0  0  0  0  0
    5.0950    0.4190    1.6020 C   0  0  0  0  0  0  0  0  0  0  0  0
    5.8420   -0.6570    2.0680 C   0  0  0  0  0  0  0  0  0  0  0  0
    6.9070   -1.1630    1.3670 C   0  0  0  0  0  0  0  0  0  0  0  0
    7.2210   -0.5620    0.1660 C   0  0  0  0  0  0  0  0  0  0  0  0
    6.5030    0.5000   -0.3190 C   0  0  0  0  0  0  0  0  0  0  0  0
   -3.2610    0.7490   -0.5030 C   0  0  0  0  0  0  0  0  0  0  0  0
   -3.3970    1.3470   -1.6610 O   0  0  0  0  0  0  0  0  0  0  0  0
   -3.5230    1.5220    0.6140 N   0  0  0  0  0  0  0  0  0  0  0  0
   -3.9500    2.9250    0.5190 C   0  0  0  0  0  0  0  0  0  0  0  0
   -2.9810    3.7400   -0.1550 N   0  0  0  0  0  0  0  0  0  0  0  0
  2  1  1  6
  2  3  1  0
  2  4  1  0
  5  4  1  1
  5  6  1  0
  5 22  1  0
  6  7  1  0
  7  8  1  0
  7  9  1  0
  7 10  1  0
 10 11  1  0
 11 12  1  0
 12 13  2  0
 12 14  1  0
 14 15  1  0
 15 16  1  0
 16 17  2  0
 16 21  1  0
 17 18  1  0
 18 19  2  0
 19 20  1  0
 20 21  2  0
 22 23  2  0
 22 24  1  0
 24 25  1  0
 25 26  1  0
M  CHG  1  26   1
M  END
