
     RDKit          3D

 28 29  0  0  0  0  0  0  0  0999 V2000
   -6.2090   -1.0210    0.1270 C   0  0  0  0  0  0  0  0  0  0  0  0
   -5.9410    0.1280    1.0700 C   0  0  0  0  0  0  0  0  0  0  0  0
   -4.6140    0.7360    0.6960 C   0  0  1  0  0  0  0  0  0  0  0  0
   -4.2460    1.9040    1.5850 C   0  0  0  0  0  0  0  0  0  0  0  0
   -3.0410    2.5720    0.9490 C   0  0  0  0  0  0  0  0  0  0  0  0
   -2.5040    1.8050   -0.2150 C   0  0  0  0  0  0  0  0  0  0  0  0
   -2.3110    0.3470    0.0470 C   0  0  1  0  0  0  0  0  0  0  0  0
   -2.2470   -0.3980   -1.2620 C   0  0  0  0  0  0  0  0  0  0  0  0
   -1.2590   -1.0700   -1.6140 O   0  0  0  0  0  0  0  0  0  0  0  0
   -3.3300   -0.3400   -2.1170 O   0  0  0  0  0  0  0  0  0  0  0  0
   -3.3380   -1.0220   -3.3740 C   0  0  0  0  0  0  0  0  0  0  0  0
   -1.0270    0.0960    0.7280 C   0  0  0  0  0  0  0  0  0  0  0  0
   -0.2990    1.0850    0.9870 O   0  0  0  0  0  0  0  0  0  0  0  0
   -0.5760   -1.1530    1.0980 O   0  0  0  0  0  0  0  0  0  0  0  0
    0.6640   -1.3230    1.7490 C   0  0  0  0  0  0  0  0  0  0  0  0
    1.7370   -0.8380    0.9290 O   0  0  0  0  0  0  0  0  0  0  0  0
    3.0510   -0.8960    1.3500 C   0  0  0  0  0  0  0  0  0  0  0  0
    3.2580   -1.3930    2.4830 O   0  0  0  0  0  0  0  0  0  0  0  0
    4.1730   -0.4250    0.5740 C   0  0  0  0  0  0  0  0  0  0  0  0
    5.4430   -0.5320    1.0920 C   0  0  0  0  0  0  0  0  0  0  0  0
    6.5510   -0.1020    0.4000 C   0  0  0  0  0  0  0  0  0  0  0  0
    6.4240    0.4560   -0.8460 C   0  0  0  0  0  0  0  0  0  0  0  0
    7.9160    1.0140   -1.7310 P   0  0  0  0  0  0  0  0  0  0  0  0
    8.3700   -0.0690   -2.9950 O   0  0  0  0  0  0  0  0  0  0  0  0
    9.5960    1.1670   -0.3190 P   0  0  0  0  0  0  0  0  0  0  0  0
    5.1490    0.5650   -1.3700 C   0  0  0  0  0  0  0  0  0  0  0  0
    4.0380    0.1360   -0.6820 C   0  0  0  0  0  0  0  0  0  0  0  0
   -3.4820   -0.2660    0.7990 C   0  0  0  0  0  0  0  0  0  0  0  0
  1  2  1  0
  3  2  1  1
  3  4  1  0
  3 28  1  0
  4  5  1  0
  5  6  1  0
  6  7  1  0
  7  8  1  6
  7 12  1  0
  7 28  1  0
  8  9  2  0
  8 10  1  0
 10 11  1  0
 12 13  2  0
 12 14  1  0
 14 15  1  0
 15 16  1  0
 16 17  1  0
 17 18  2  0
 17 19  1  0
 19 20  2  0
 19 27  1  0
 20 21  1  0
 21 22  2  0
 22 23  1  0
 22 26  1  0
 23 24  1  0
 23 25  1  0
 26 27  2  0
M  END
