
     RDKit          3D

 28 29  0  0  0  0  0  0  0  0999 V2000
   -4.9770    2.2150    2.5850 C   0  0  0  0  0  0  0  0  0  0  0  0
   -3.7100    1.6170    2.0970 C   0  0  0  0  0  0  0  0  0  0  0  0
   -2.6000    1.6790    2.9110 C   0  0  0  0  0  0  0  0  0  0  0  0
   -1.4100    1.1350    2.4920 C   0  0  0  0  0  0  0  0  0  0  0  0
   -1.3100    0.5140    1.2350 C   0  0  0  0  0  0  0  0  0  0  0  0
   -0.0940   -0.0250    0.8440 O   0  0  0  0  0  0  0  0  0  0  0  0
    0.9720    0.7790    0.4300 C   0  0  0  0  0  0  0  0  0  0  0  0
    0.8120    2.0220    0.4160 O   0  0  0  0  0  0  0  0  0  0  0  0
    2.2500    0.2350    0.0180 C   0  0  0  0  0  0  0  0  0  0  0  0
    2.4890   -1.1230    0.0120 C   0  0  0  0  0  0  0  0  0  0  0  0
    3.7320   -1.6070   -0.3920 C   0  0  0  0  0  0  0  0  0  0  0  0
    4.7380   -0.7520   -0.7880 C   0  0  0  0  0  0  0  0  0  0  0  0
    6.3630   -1.4090   -1.3140 P   0  0  0  0  0  0  0  0  0  0  0  0
    6.8010   -2.7890   -0.1200 C   0  0  0  0  0  0  0  0  0  0  0  0
    7.5260   -0.1310   -1.1510 O   0  0  0  0  0  0  0  0  0  0  0  0
    4.5110    0.6050   -0.7860 C   0  0  0  0  0  0  0  0  0  0  0  0
    3.2670    1.0680   -0.3810 C   0  0  0  0  0  0  0  0  0  0  0  0
   -2.3960    0.4410    0.4120 C   0  0  0  0  0  0  0  0  0  0  0  0
   -2.3260   -0.1980   -0.8880 C   0  0  1  0  0  0  0  0  0  0  0  0
   -1.8030   -1.6420   -0.7180 C   0  0  0  0  0  0  0  0  0  0  0  0
   -3.6140   -0.2690   -1.6570 C   0  0  0  0  0  0  0  0  0  0  0  0
   -4.6100   -0.9790   -1.0020 O   0  0  0  0  0  0  0  0  0  0  0  0
   -6.0760   -1.0650   -1.8720 P   0  0  0  0  0  0  0  0  0  0  0  0
   -7.3750   -1.4740   -1.1140 O   0  0  0  0  0  0  0  0  0  0  0  0
   -1.3330    0.4820   -1.7490 C   0  0  0  0  0  0  0  0  0  0  0  0
   -0.3590   -0.1250   -2.3120 O   0  0  0  0  0  0  0  0  0  0  0  0
   -1.4030    1.8530   -2.0030 O   0  0  0  0  0  0  0  0  0  0  0  0
   -3.5800    1.0030    0.8740 C   0  0  0  0  0  0  0  0  0  0  0  0
  1  2  1  0
  2  3  2  0
  2 28  1  0
  3  4  1  0
  4  5  2  0
  5  6  1  0
  5 18  1  0
  6  7  1  0
  7  8  2  0
  7  9  1  0
  9 10  2  0
  9 17  1  0
 10 11  1  0
 11 12  2  0
 12 13  1  0
 12 16  1  0
 13 14  1  0
 13 15  1  0
 16 17  2  0
 18 19  1  0
 18 28  2  0
 19 20  1  1
 19 21  1  0
 19 25  1  0
 21 22  1  0
 22 23  1  0
 23 24  2  0
 25 26  2  0
 25 27  1  0
M  END
