
     RDKit          3D

 28 30  0  0  0  0  0  0  0  0999 V2000
   -6.4900   -2.2840   -0.8340 C   0  0  0  0  0  0  0  0  0  0  0  0
   -5.1750   -1.6070   -0.4020 C   0  0  0  0  0  0  0  0  0  0  0  0
   -4.3170   -1.4320   -1.4540 O   0  0  0  0  0  0  0  0  0  0  0  0
   -3.1640   -0.0980   -1.1410 P   0  0  0  0  0  0  0  0  0  0  0  0
   -4.2360    1.2860   -1.3680 O   0  0  0  0  0  0  0  0  0  0  0  0
   -4.1970    2.2210   -0.4000 C   0  0  0  0  0  0  0  0  0  0  0  0
   -5.5720    2.2500    0.2860 C   0  0  0  0  0  0  0  0  0  0  0  0
   -2.3930   -0.1270    0.4810 C   0  0  1  0  0  0  0  0  0  0  0  0
   -2.6690    0.9600    1.3280 O   0  0  0  0  0  0  0  0  0  0  0  0
   -2.8830   -1.6240    1.4490 P   0  0  0  0  0  0  0  0  0  0  0  0
   -2.2530   -3.0140    1.2540 O   0  0  0  0  0  0  0  0  0  0  0  0
   -0.8850   -0.1440    0.4150 C   0  0  0  0  0  0  0  0  0  0  0  0
   -0.1560    0.4990   -0.5390 C   0  0  0  0  0  0  0  0  0  0  0  0
    1.2470    0.4180   -0.5060 C   0  0  0  0  0  0  0  0  0  0  0  0
    1.9070   -0.2950    0.4660 C   0  0  0  0  0  0  0  0  0  0  0  0
    3.3680   -0.2690    0.4940 C   0  0  0  0  0  0  0  0  0  0  0  0
    4.0870   -0.4840    1.6310 C   0  0  0  0  0  0  0  0  0  0  0  0
    5.4730   -0.3130    1.6720 C   0  0  0  0  0  0  0  0  0  0  0  0
    6.1760    0.0780    0.5560 C   0  0  0  0  0  0  0  0  0  0  0  0
    5.4640    0.2900   -0.6170 C   0  0  0  0  0  0  0  0  0  0  0  0
    4.0880    0.1150   -0.6210 C   0  0  0  0  0  0  0  0  0  0  0  0
    6.1150    0.6720   -1.7780 O   0  0  0  0  0  0  0  0  0  0  0  0
    7.5210    0.4460   -1.9350 C   0  0  0  0  0  0  0  0  0  0  0  0
    8.1670    0.6900   -0.6310 C   0  0  0  0  0  0  0  0  0  0  0  0
    9.3210    1.2900   -0.5900 O   0  0  0  0  0  0  0  0  0  0  0  0
    7.5500    0.2850    0.5170 O   0  0  0  0  0  0  0  0  0  0  0  0
    1.1760   -0.9340    1.4200 C   0  0  0  0  0  0  0  0  0  0  0  0
   -0.2040   -0.8460    1.3780 C   0  0  0  0  0  0  0  0  0  0  0  0
  1  2  1  0
  2  3  1  0
  3  4  1  0
  4  5  1  0
  4  8  1  0
  5  6  1  0
  6  7  1  0
  8  9  1  1
  8 10  1  0
  8 12  1  0
 10 11  2  0
 12 13  2  0
 12 28  1  0
 13 14  1  0
 14 15  2  0
 15 16  1  0
 15 27  1  0
 16 17  2  0
 16 21  1  0
 17 18  1  0
 18 19  2  0
 19 20  1  0
 19 26  1  0
 20 21  2  0
 20 22  1  0
 22 23  1  0
 23 24  1  0
 24 25  2  0
 24 26  1  0
 27 28  2  0
M  END
