
     RDKit          3D

 30 31  0  0  0  0  0  0  0  0999 V2000
    8.5830    0.0870    0.1780 C   0  0  0  0  0  0  0  0  0  0  0  0
    7.7500   -0.6140   -0.8470 C   0  0  0  0  0  0  0  0  0  0  0  0
    6.3660   -0.6290   -0.5230 O   0  0  0  0  0  0  0  0  0  0  0  0
    5.9080   -1.2230    0.6390 C   0  0  0  0  0  0  0  0  0  0  0  0
    6.7500   -1.7500    1.4040 O   0  0  0  0  0  0  0  0  0  0  0  0
    4.4820   -1.2700    1.0320 C   0  0  0  0  0  0  0  0  0  0  0  0
    3.6580   -0.6350    0.0690 O   0  0  0  0  0  0  0  0  0  0  0  0
    2.2870   -0.5450    0.2040 C   0  0  0  0  0  0  0  0  0  0  0  0
    1.5670    0.0900   -0.7780 C   0  0  0  0  0  0  0  0  0  0  0  0
    0.1830    0.2090   -0.6950 C   0  0  0  0  0  0  0  0  0  0  0  0
   -0.5320   -0.2970    0.3650 C   0  0  0  0  0  0  0  0  0  0  0  0
   -1.9460   -0.1870    0.4660 N   0  0  0  0  0  0  0  0  0  0  0  0
   -2.7670    0.4180   -0.5540 C   0  0  2  0  0  0  0  0  0  0  0  0
   -2.2690    1.7980   -0.7110 N   0  0  0  0  0  0  0  0  0  0  0  0
   -2.4230    2.6540    0.8310 P   0  0  0  0  0  0  0  0  0  0  0  0
   -1.0140    2.3750    1.9790 C   0  0  0  0  0  0  0  0  0  0  0  0
   -2.7820    4.3360    0.6280 O   0  0  0  0  0  0  0  0  0  0  0  0
   -3.9680    4.5940    1.3140 C   0  0  0  0  0  0  0  0  0  0  0  0
   -4.2010    0.4760   -0.0640 C   0  0  0  0  0  0  0  0  0  0  0  0
   -5.1330    0.5510   -1.1270 O   0  0  0  0  0  0  0  0  0  0  0  0
   -5.0620   -0.4940   -2.0490 C   0  0  0  0  0  0  0  0  0  0  0  0
   -6.0230   -0.8730   -2.7510 O   0  0  0  0  0  0  0  0  0  0  0  0
   -3.8040   -1.1430   -2.1700 N   0  0  0  0  0  0  0  0  0  0  0  0
   -3.7260   -2.5270   -2.6490 C   0  0  0  0  0  0  0  0  0  0  0  0
   -3.8080   -3.4710   -1.5220 C   0  0  0  0  0  0  0  0  0  0  0  0
   -3.7670   -4.7160   -1.6460 O   0  0  0  0  0  0  0  0  0  0  0  0
   -3.9370   -2.9730   -0.2330 O   0  0  0  0  0  0  0  0  0  0  0  0
   -2.6260   -0.3870   -1.8090 C   0  0  0  0  0  0  0  0  0  0  0  0
    0.2050   -0.9420    1.3620 C   0  0  0  0  0  0  0  0  0  0  0  0
    1.5760   -1.0530    1.2660 C   0  0  0  0  0  0  0  0  0  0  0  0
  1  2  1  0
  2  3  1  0
  3  4  1  0
  4  5  2  0
  4  6  1  0
  6  7  1  0
  7  8  1  0
  8  9  2  0
  8 30  1  0
  9 10  1  0
 10 11  2  0
 11 12  1  0
 11 29  1  0
 13 12  1  1
 13 14  1  0
 13 19  1  0
 13 28  1  0
 14 15  1  0
 15 16  1  0
 15 17  1  0
 17 18  1  0
 19 20  1  0
 20 21  1  0
 21 22  2  0
 21 23  1  0
 23 24  1  0
 23 28  1  0
 24 25  1  0
 25 26  2  0
 25 27  1  0
 29 30  2  0
M  END
