
     RDKit          3D

 30 30  0  0  0  0  0  0  0  0999 V2000
   -3.0470   -1.1660    3.0940 C   0  0  0  0  0  0  0  0  0  0  0  0
   -2.2380   -2.2580    2.5060 C   0  0  1  0  0  0  0  0  0  0  0  0
   -2.8370   -3.5710    3.0480 C   0  0  0  0  0  0  0  0  0  0  0  0
   -2.1880   -2.3860    1.0450 C   0  0  0  0  0  0  0  0  0  0  0  0
   -1.6490   -1.2620    0.2340 C   0  0  2  0  0  0  0  0  0  0  0  0
   -0.2930   -0.9260    0.5400 N   0  0  0  0  0  0  0  0  0  0  0  0
    0.5680    0.2090   -0.2660 P   0  0  0  0  0  0  0  0  0  0  0  0
    0.3520    1.8850    0.1360 O   0  0  0  0  0  0  0  0  0  0  0  0
    1.7550    0.2850    0.7050 O   0  0  0  0  0  0  0  0  0  0  0  0
    1.5490   -0.1580   -1.6760 C   0  0  0  0  0  0  0  0  0  0  0  0
    2.7810   -0.8430   -1.5160 N   0  0  0  0  0  0  0  0  0  0  0  0
    3.9280   -0.3230   -0.8860 C   0  0  0  0  0  0  0  0  0  0  0  0
    3.9210    0.8270   -0.4220 O   0  0  0  0  0  0  0  0  0  0  0  0
    5.1020   -1.0740   -0.7610 O   0  0  0  0  0  0  0  0  0  0  0  0
    6.2790   -0.6100   -0.1430 C   0  0  0  0  0  0  0  0  0  0  0  0
    6.8520    0.6030   -0.7780 C   0  0  0  0  0  0  0  0  0  0  0  0
    7.5440    0.5090   -1.9830 C   0  0  0  0  0  0  0  0  0  0  0  0
    8.0750    1.6460   -2.5610 C   0  0  0  0  0  0  0  0  0  0  0  0
    7.8950    2.8430   -1.9080 C   0  0  0  0  0  0  0  0  0  0  0  0
    7.2070    2.9560   -0.7050 C   0  0  0  0  0  0  0  0  0  0  0  0
    6.6780    1.8140   -0.1350 C   0  0  0  0  0  0  0  0  0  0  0  0
   -2.5960   -0.1510    0.1830 C   0  0  0  0  0  0  0  0  0  0  0  0
   -2.1890    1.0200    0.3990 O   0  0  0  0  0  0  0  0  0  0  0  0
   -3.9790   -0.2890   -0.0980 N   0  0  0  0  0  0  0  0  0  0  0  0
   -4.8860    0.8680   -0.1400 C   0  0  1  0  0  0  0  0  0  0  0  0
   -5.4070    0.9330   -1.5660 C   0  0  0  0  0  0  0  0  0  0  0  0
   -6.3150    2.0190   -1.7900 N   0  0  0  0  0  0  0  0  0  0  0  0
   -5.9570    0.7210    0.8380 C   0  0  0  0  0  0  0  0  0  0  0  0
   -6.0230   -0.2910    1.5660 O   0  0  0  0  0  0  0  0  0  0  0  0
   -6.9170    1.7050    0.9730 O   0  0  0  0  0  0  0  0  0  0  0  0
  2  1  1  6
  2  3  1  0
  2  4  1  0
  5  4  1  1
  5  6  1  0
  5 22  1  0
  6  7  1  0
  7  8  1  0
  7  9  1  0
  7 10  1  0
 10 11  1  0
 11 12  1  0
 12 13  2  0
 12 14  1  0
 14 15  1  0
 15 16  1  0
 16 17  2  0
 16 21  1  0
 17 18  1  0
 18 19  2  0
 19 20  1  0
 20 21  2  0
 22 23  2  0
 22 24  1  0
 24 25  1  0
 25 26  1  6
 25 28  1  0
 26 27  1  0
 28 29  2  0
 28 30  1  0
M  CHG  1  27   1
M  END
