
     RDKit          3D

 30 30  0  0  0  0  0  0  0  0999 V2000
    0.4390   -0.6600    3.8330 C   0  0  0  0  0  0  0  0  0  0  0  0
    0.7830   -0.8240    2.5050 O   0  0  0  0  0  0  0  0  0  0  0  0
   -0.2620   -0.7010    1.6570 N   0  0  0  0  0  0  0  0  0  0  0  0
   -0.9540    0.5370    1.5720 C   0  0  0  0  0  0  0  0  0  0  0  0
   -0.5900    1.5240    2.2600 O   0  0  0  0  0  0  0  0  0  0  0  0
   -2.0790    0.7420    0.7240 N   0  0  0  0  0  0  0  0  0  0  0  0
   -2.7600    1.9590    0.5860 C   0  0  0  0  0  0  0  0  0  0  0  0
   -2.3560    2.9520    1.2860 O   0  0  0  0  0  0  0  0  0  0  0  0
   -3.8950    2.1510   -0.3070 C   0  0  0  0  0  0  0  0  0  0  0  0
   -4.6010    3.3370   -0.5090 C   0  0  0  0  0  0  0  0  0  0  0  0
   -5.5660    3.1260   -1.4110 N   0  0  0  0  0  0  0  0  0  0  0  0
   -5.5540    1.8540   -1.8360 C   0  0  0  0  0  0  0  0  0  0  0  0
   -4.5040    1.2430   -1.1410 C   0  0  0  0  0  0  0  0  0  0  0  0
   -4.1680   -0.0860   -1.3070 O   0  0  0  0  0  0  0  0  0  0  0  0
   -4.9730   -1.1750   -2.3880 P   0  0  0  0  0  0  0  0  0  0  0  0
   -6.4180   -1.8480   -1.7050 O   0  0  0  0  0  0  0  0  0  0  0  0
   -5.4010   -0.4240   -3.8900 O   0  0  0  0  0  0  0  0  0  0  0  0
   -0.5890   -1.8340    0.8820 C   0  0  0  0  0  0  0  0  0  0  0  0
   -1.0140   -3.0680    1.5880 C   0  0  0  0  0  0  0  0  0  0  0  0
   -0.5340   -1.8320   -0.4320 C   0  0  0  0  0  0  0  0  0  0  0  0
   -0.1630   -0.7620   -1.1790 O   0  0  0  0  0  0  0  0  0  0  0  0
    1.0640   -0.1810   -1.3210 C   0  0  0  0  0  0  0  0  0  0  0  0
    2.0990   -0.5780   -0.6170 C   0  0  0  0  0  0  0  0  0  0  0  0
    3.4140    0.0290   -0.7530 C   0  0  0  0  0  0  0  0  0  0  0  0
    3.5660    1.1450   -1.7310 C   0  0  0  0  0  0  0  0  0  0  0  0
    4.4500   -0.3770   -0.0440 C   0  0  0  0  0  0  0  0  0  0  0  0
    4.2270   -1.5010    0.9240 C   0  0  0  0  0  0  0  0  0  0  0  0
    5.7030    0.2330   -0.2050 N   0  0  0  0  0  0  0  0  0  0  0  0
    6.2970    1.0060    0.8570 C   0  0  0  0  0  0  0  0  0  0  0  0
    6.3690    0.0970   -1.3690 O   0  0  0  0  0  0  0  0  0  0  0  0
  1  2  1  0
  2  3  1  0
  3  4  1  0
  3 18  1  0
  4  5  2  0
  4  6  1  0
  6  7  1  0
  7  8  2  0
  7  9  1  0
  9 10  2  0
  9 13  1  0
 10 11  1  0
 11 12  1  0
 12 13  2  0
 13 14  1  0
 14 15  1  0
 15 16  1  0
 15 17  1  0
 18 19  1  0
 18 20  2  3
 20 21  1  0
 21 22  1  0
 22 23  2  3
 23 24  1  0
 24 25  1  0
 24 26  2  3
 26 27  1  0
 26 28  1  0
 28 29  1  0
 28 30  1  0
M  END
