
     RDKit          3D

 28 32  0  0  0  0  0  0  0  0999 V2000
   -4.7740   -2.6150    0.2810 C   0  0  0  0  0  0  0  0  0  0  0  0
   -3.5460   -2.7200   -0.1290 C   0  0  0  0  0  0  0  0  0  0  0  0
   -2.8170   -3.9130   -0.6510 C   0  0  0  0  0  0  0  0  0  0  0  0
   -1.4400   -3.5270   -0.6110 N   0  0  0  0  0  0  0  0  0  0  0  0
   -1.2720   -2.2540   -0.4120 C   0  0  0  0  0  0  0  0  0  0  0  0
    0.0330   -1.5750   -0.3400 C   0  0  0  0  0  0  0  0  0  0  0  0
    0.0870   -0.3400    0.3640 N   0  0  0  0  0  0  0  0  0  0  0  0
    1.2210    0.4480    0.0500 C   0  0  0  0  0  0  0  0  0  0  0  0
    1.3700    1.5860    0.6080 O   0  0  0  0  0  0  0  0  0  0  0  0
    2.2510    0.0110   -0.9070 C   0  0  2  0  0  0  0  0  0  0  0  0
    2.9880   -1.2280   -0.5400 C   0  0  0  0  0  0  0  0  0  0  0  0
    4.3980   -1.1720   -0.7480 O   0  0  0  0  0  0  0  0  0  0  0  0
    5.1210   -0.0380   -0.3780 C   0  0  0  0  0  0  0  0  0  0  0  0
    6.3870   -0.0740    0.1260 C   0  0  0  0  0  0  0  0  0  0  0  0
    7.0380    1.1110    0.4710 C   0  0  0  0  0  0  0  0  0  0  0  0
    6.3630    2.2990    0.2850 C   0  0  0  0  0  0  0  0  0  0  0  0
    5.0620    2.3220   -0.2350 C   0  0  0  0  0  0  0  0  0  0  0  0
    4.4360    1.1510   -0.5680 C   0  0  0  0  0  0  0  0  0  0  0  0
    3.1820    1.0880   -1.0750 O   0  0  0  0  0  0  0  0  0  0  0  0
   -0.7550    0.3400    1.3490 C   0  0  0  0  0  0  0  0  0  0  0  0
   -2.1140    0.5540    0.7930 C   0  0  0  0  0  0  0  0  0  0  0  0
   -2.5570    1.8220    0.9680 C   0  0  0  0  0  0  0  0  0  0  0  0
   -3.7980    2.2370    0.4550 C   0  0  0  0  0  0  0  0  0  0  0  0
   -4.2750    3.6330    0.6540 C   0  0  0  0  0  0  0  0  0  0  0  0
   -4.5360    1.2880   -0.2340 C   0  0  0  0  0  0  0  0  0  0  0  0
   -4.1300   -0.0140   -0.4390 C   0  0  0  0  0  0  0  0  0  0  0  0
   -2.9160   -0.3370    0.0940 C   0  0  0  0  0  0  0  0  0  0  0  0
   -2.5600   -1.6990   -0.1250 N   0  0  0  0  0  0  0  0  0  0  0  0
  1  2  2  0
  2  3  1  0
  2 28  1  0
  3  4  1  0
  4  5  2  0
  5  6  1  0
  5 28  1  0
  6  7  1  0
  7  8  1  0
  7 20  1  0
  8  9  2  0
 10  8  1  1
 10 11  1  0
 10 19  1  0
 11 12  1  0
 12 13  1  0
 13 14  2  0
 13 18  1  0
 14 15  1  0
 15 16  2  0
 16 17  1  0
 17 18  2  0
 18 19  1  0
 20 21  1  0
 21 22  2  0
 21 27  1  0
 22 23  1  0
 23 24  1  0
 23 25  2  0
 25 26  1  0
 26 27  2  0
 27 28  1  0
M  END
