
     RDKit          3D

 28 31  0  0  0  0  0  0  0  0999 V2000
    4.0010   -0.0920   -2.0690 C   0  0  0  0  0  0  0  0  0  0  0  0
    3.7800    1.2990   -1.6830 N   0  0  0  0  0  0  0  0  0  0  0  0
    4.7250    1.8750   -0.7510 C   0  0  0  0  0  0  0  0  0  0  0  0
    5.3720    3.0390   -0.9430 C   0  0  0  0  0  0  0  0  0  0  0  0
    5.2110    3.8950   -2.1390 C   0  0  0  0  0  0  0  0  0  0  0  0
    4.1850    3.9760   -3.0110 C   0  0  0  0  0  0  0  0  0  0  0  0
    2.9640    3.1990   -2.9450 C   0  0  0  0  0  0  0  0  0  0  0  0
    2.7170    1.9660   -2.3430 C   0  0  0  0  0  0  0  0  0  0  0  0
    1.4400    1.4540   -2.5200 C   0  0  0  0  0  0  0  0  0  0  0  0
    0.7360    0.4600   -2.0780 C   0  0  0  0  0  0  0  0  0  0  0  0
   -0.6200    0.2920   -2.5830 O   0  0  0  0  0  0  0  0  0  0  0  0
   -1.2200   -0.7830   -2.0120 C   0  0  0  0  0  0  0  0  0  0  0  0
   -2.4060   -1.2260   -2.2190 O   0  0  0  0  0  0  0  0  0  0  0  0
   -0.3640   -1.4230   -1.1000 N   0  0  0  0  0  0  0  0  0  0  0  0
   -0.5450   -2.5760   -0.2730 C   0  0  0  0  0  0  0  0  0  0  0  0
   -1.0840   -2.2290    1.0670 C   0  0  0  0  0  0  0  0  0  0  0  0
   -0.2670   -2.2310    2.1760 C   0  0  0  0  0  0  0  0  0  0  0  0
   -0.7170   -1.9160    3.4310 C   0  0  0  0  0  0  0  0  0  0  0  0
   -2.0620   -1.5810    3.5840 C   0  0  0  0  0  0  0  0  0  0  0  0
   -2.8610   -1.5870    2.4550 C   0  0  0  0  0  0  0  0  0  0  0  0
   -4.2740   -1.2270    2.6420 C   0  0  0  0  0  0  0  0  0  0  0  0
   -5.1600   -1.1760    1.6610 C   0  0  0  0  0  0  0  0  0  0  0  0
   -6.4920   -0.7820    2.1800 C   0  0  0  0  0  0  0  0  0  0  0  0
   -6.2370   -0.6140    3.6310 C   0  0  0  0  0  0  0  0  0  0  0  0
   -4.9640   -0.8730    3.8710 C   0  0  0  0  0  0  0  0  0  0  0  0
   -2.3760   -1.9020    1.2430 N   0  0  0  0  0  0  0  0  0  0  0  0
    0.8550   -0.6320   -1.1500 C   0  0  0  0  0  0  0  0  0  0  0  0
    1.8500   -0.9130   -0.4400 O   0  0  0  0  0  0  0  0  0  0  0  0
  1  2  1  0
  2  3  1  0
  2  8  1  0
  3  4  2  0
  4  5  1  0
  5  6  2  0
  6  7  1  0
  7  8  2  0
  8  9  1  0
  9 10  2  3
 10 11  1  0
 10 27  1  0
 11 12  1  0
 12 13  2  0
 12 14  1  0
 14 15  1  0
 14 27  1  0
 15 16  1  0
 16 17  2  0
 16 26  1  0
 17 18  1  0
 18 19  2  0
 19 20  1  0
 20 21  1  0
 20 26  2  0
 21 22  2  0
 21 25  1  0
 22 23  1  0
 23 24  1  0
 24 25  2  0
 27 28  2  0
M  END
