
     RDKit          3D

 28 32  0  0  0  0  0  0  0  0999 V2000
   -0.5870   -0.3150   -2.7100 C   0  0  0  0  0  0  0  0  0  0  0  0
   -1.3510   -0.0960   -1.4470 C   0  0  0  0  0  0  0  0  0  0  0  0
   -2.7280   -0.0360   -1.5010 C   0  0  0  0  0  0  0  0  0  0  0  0
   -3.4750    0.1670   -0.3400 C   0  0  0  0  0  0  0  0  0  0  0  0
   -2.8710    0.3130    0.8920 C   0  0  0  0  0  0  0  0  0  0  0  0
   -1.4920    0.2520    0.9410 C   0  0  0  0  0  0  0  0  0  0  0  0
   -0.7570    0.0520   -0.2100 C   0  0  0  0  0  0  0  0  0  0  0  0
    0.6540   -0.0130   -0.1530 N   0  0  0  0  0  0  0  0  0  0  0  0
    1.2560   -1.0380    0.6180 C   0  0  0  0  0  0  0  0  0  0  0  0
    0.5830   -1.9000    1.2620 O   0  0  0  0  0  0  0  0  0  0  0  0
    2.7090   -1.1200    0.6860 C   0  0  0  0  0  0  0  0  0  0  0  0
    3.3080   -2.1210    1.4390 C   0  0  0  0  0  0  0  0  0  0  0  0
    4.6800   -2.2180    1.5160 C   0  0  0  0  0  0  0  0  0  0  0  0
    5.4500   -1.2970    0.8290 C   0  0  0  0  0  0  0  0  0  0  0  0
    4.8490   -0.3000    0.0790 C   0  0  0  0  0  0  0  0  0  0  0  0
    5.6250    0.6050   -0.5970 C   0  0  0  0  0  0  0  0  0  0  0  0
    5.0540    1.6080   -1.3510 C   0  0  0  0  0  0  0  0  0  0  0  0
    3.6820    1.7190   -1.4390 C   0  0  0  0  0  0  0  0  0  0  0  0
    2.9130    0.7980   -0.7520 C   0  0  0  0  0  0  0  0  0  0  0  0
    3.4790   -0.2040    0.0020 C   0  0  0  0  0  0  0  0  0  0  0  0
    1.4590    0.9210   -0.8490 C   0  0  0  0  0  0  0  0  0  0  0  0
    0.9400    1.8590   -1.5540 O   0  0  0  0  0  0  0  0  0  0  0  0
   -3.8120    0.4960    1.8550 N   0  0  0  0  0  0  0  0  0  0  0  0
   -3.5690    0.6880    3.2840 C   0  0  0  0  0  0  0  0  0  0  0  0
   -5.0000    0.4630    1.2210 C   0  0  0  0  0  0  0  0  0  0  0  0
   -6.1140    0.5990    1.7940 O   0  0  0  0  0  0  0  0  0  0  0  0
   -4.7970    0.2640   -0.1080 N   0  0  0  0  0  0  0  0  0  0  0  0
   -5.8440    0.1730   -1.0950 C   0  0  0  0  0  0  0  0  0  0  0  0
  1  2  1  0
  2  3  2  0
  2  7  1  0
  3  4  1  0
  4  5  2  0
  4 27  1  0
  5  6  1  0
  5 23  1  0
  6  7  2  0
  7  8  1  0
  8  9  1  0
  8 21  1  0
  9 10  2  0
  9 11  1  0
 11 12  2  0
 11 20  1  0
 12 13  1  0
 13 14  2  0
 14 15  1  0
 15 16  2  0
 15 20  1  0
 16 17  1  0
 17 18  2  0
 18 19  1  0
 19 20  2  0
 19 21  1  0
 21 22  2  0
 23 24  1  0
 23 25  1  0
 25 26  2  0
 25 27  1  0
 27 28  1  0
M  END
