
     RDKit          3D

 28 32  0  0  0  0  0  0  0  0999 V2000
    3.1470    3.0420    1.1350 C   0  0  0  0  0  0  0  0  0  0  0  0
    1.7910    2.4310    1.0390 C   0  0  0  0  0  0  0  0  0  0  0  0
    0.6860    3.1210    1.3980 N   0  0  0  0  0  0  0  0  0  0  0  0
   -0.5470    2.5730    1.3090 C   0  0  0  0  0  0  0  0  0  0  0  0
   -0.7480    1.2770    0.8470 C   0  0  0  0  0  0  0  0  0  0  0  0
   -2.0980    0.7240    0.7680 C   0  0  0  0  0  0  0  0  0  0  0  0
   -3.0870    1.0820    1.6680 C   0  0  0  0  0  0  0  0  0  0  0  0
   -4.3730    0.5770    1.6020 C   0  0  0  0  0  0  0  0  0  0  0  0
   -4.6750   -0.3160    0.6000 C   0  0  0  0  0  0  0  0  0  0  0  0
   -3.7140   -0.7090   -0.3310 C   0  0  0  0  0  0  0  0  0  0  0  0
   -2.4340   -0.1830   -0.2340 C   0  0  0  0  0  0  0  0  0  0  0  0
   -4.1040   -1.6630   -1.3730 C   0  0  0  0  0  0  0  0  0  0  0  0
   -5.5090   -1.4310   -1.8800 C   0  0  0  0  0  0  0  0  0  0  0  0
   -6.5010   -1.0830   -0.8240 C   0  0  0  0  0  0  0  0  0  0  0  0
   -5.9280   -0.8750    0.4500 O   0  0  0  0  0  0  0  0  0  0  0  0
    0.3690    0.5610    0.4780 C   0  0  0  0  0  0  0  0  0  0  0  0
    1.6380    1.1400    0.5750 C   0  0  0  0  0  0  0  0  0  0  0  0
    2.7900    0.4170    0.2070 N   0  0  0  0  0  0  0  0  0  0  0  0
    3.2550   -0.8100    0.7790 C   0  0  0  0  0  0  0  0  0  0  0  0
    2.7270   -1.4680    1.7120 O   0  0  0  0  0  0  0  0  0  0  0  0
    4.4960   -1.2340    0.1090 C   0  0  0  0  0  0  0  0  0  0  0  0
    5.3370   -2.3080    0.2620 C   0  0  0  0  0  0  0  0  0  0  0  0
    6.4430   -2.4390   -0.5280 C   0  0  0  0  0  0  0  0  0  0  0  0
    6.6740   -1.4660   -1.4650 C   0  0  0  0  0  0  0  0  0  0  0  0
    5.8600   -0.4150   -1.6210 N   0  0  0  0  0  0  0  0  0  0  0  0
    4.7590   -0.2770   -0.8410 C   0  0  0  0  0  0  0  0  0  0  0  0
    3.7280    0.7470   -0.8020 C   0  0  0  0  0  0  0  0  0  0  0  0
    3.7320    1.7590   -1.5850 O   0  0  0  0  0  0  0  0  0  0  0  0
  1  2  1  0
  2  3  2  0
  2 17  1  0
  3  4  1  0
  4  5  2  0
  5  6  1  0
  5 16  1  0
  6  7  2  0
  6 11  1  0
  7  8  1  0
  8  9  2  0
  9 10  1  0
  9 15  1  0
 10 11  2  0
 10 12  1  0
 12 13  1  0
 13 14  1  0
 14 15  1  0
 16 17  2  0
 17 18  1  0
 18 19  1  0
 18 27  1  0
 19 20  2  0
 19 21  1  0
 21 22  2  0
 21 26  1  0
 22 23  1  0
 23 24  2  0
 24 25  1  0
 25 26  2  0
 26 27  1  0
 27 28  2  0
M  END
