
     RDKit          3D

 29 30  0  0  0  0  0  0  0  0999 V2000
    8.6500   -0.8630    0.7400 N   0  0  0  0  0  0  0  0  0  0  0  0
    7.4620   -0.0960    0.6030 C   0  0  0  0  0  0  0  0  0  0  0  0
    7.2860    0.9390    1.3070 O   0  0  0  0  0  0  0  0  0  0  0  0
    6.4710   -0.5420   -0.3650 C   0  0  0  0  0  0  0  0  0  0  0  0
    6.6390   -1.5760   -1.0660 O   0  0  0  0  0  0  0  0  0  0  0  0
    5.2590    0.2040   -0.5530 N   0  0  0  0  0  0  0  0  0  0  0  0
    4.2950   -0.1580   -1.4520 N   0  0  0  0  0  0  0  0  0  0  0  0
    2.9320   -0.3150   -1.0210 C   0  0  0  0  0  0  0  0  0  0  0  0
    2.5610   -0.1440    0.1600 O   0  0  0  0  0  0  0  0  0  0  0  0
    1.9390   -0.7000   -2.0490 C   0  0  0  0  0  0  0  0  0  0  0  0
    0.6440   -0.7940   -1.5840 O   0  0  0  0  0  0  0  0  0  0  0  0
   -0.1370    0.1130   -0.9520 C   0  0  0  0  0  0  0  0  0  0  0  0
    0.3380    1.2420   -0.7060 O   0  0  0  0  0  0  0  0  0  0  0  0
   -1.5410   -0.1950   -0.5430 C   0  0  0  0  0  0  0  0  0  0  0  0
   -2.1390   -1.3000   -0.7540 N   0  0  0  0  0  0  0  0  0  0  0  0
   -3.4840   -1.2760   -0.2420 C   0  0  0  0  0  0  0  0  0  0  0  0
   -4.9460   -2.2000   -0.0720 S   0  0  0  0  0  0  0  0  0  0  0  0
   -5.8700   -0.9060    0.7800 C   0  0  0  0  0  0  0  0  0  0  0  0
   -7.2680   -1.0260    1.2340 C   0  0  2  0  0  0  0  0  0  0  0  0
   -7.4350   -2.0920    2.0810 F   0  0  0  0  0  0  0  0  0  0  0  0
   -8.1460   -1.2080    0.1800 F   0  0  0  0  0  0  0  0  0  0  0  0
   -4.9720    0.1340    0.8640 C   0  0  0  0  0  0  0  0  0  0  0  0
   -5.4300    1.4110    1.5490 C   0  0  1  0  0  0  0  0  0  0  0  0
   -4.4570    2.3490    1.5590 F   0  0  0  0  0  0  0  0  0  0  0  0
   -6.4920    1.9030    0.7910 F   0  0  0  0  0  0  0  0  0  0  0  0
   -5.9300    1.1400    2.8120 F   0  0  0  0  0  0  0  0  0  0  0  0
   -3.7290   -0.0490    0.3350 C   0  0  0  0  0  0  0  0  0  0  0  0
   -2.4290    0.7090    0.1530 C   0  0  2  0  0  0  0  0  0  0  0  0
   -2.6590    1.9100   -0.5040 O   0  0  0  0  0  0  0  0  0  0  0  0
  1  2  1  0
  2  3  2  0
  2  4  1  0
  4  5  2  0
  4  6  1  0
  6  7  1  0
  7  8  1  0
  8  9  2  0
  8 10  1  0
 10 11  1  0
 11 12  1  0
 12 13  2  0
 12 14  1  0
 14 15  2  0
 14 28  1  0
 15 16  1  0
 16 17  1  0
 16 27  2  0
 17 18  1  0
 18 19  1  0
 18 22  2  0
 19 20  1  1
 19 21  1  0
 22 23  1  0
 22 27  1  0
 23 24  1  1
 23 25  1  0
 23 26  1  0
 27 28  1  0
 28 29  1  6
M  CHG  1  29  -1
M  END
