
     RDKit          3D

 30 31  0  0  0  0  0  0  0  0999 V2000
   -3.3270    3.6350   -1.1590 C   0  0  0  0  0  0  0  0  0  0  0  0
   -4.6800    3.3130   -0.7820 C   0  0  0  0  0  0  0  0  0  0  0  0
   -5.2570    2.2270   -0.4500 C   0  0  0  0  0  0  0  0  0  0  0  0
   -6.8150    2.4400   -0.1340 C   0  0  0  0  0  0  0  0  0  0  0  0
   -4.8150    0.9040   -0.2170 C   0  0  0  0  0  0  0  0  0  0  0  0
   -5.8740    0.0970   -0.0180 O   0  0  0  0  0  0  0  0  0  0  0  0
   -3.5930    0.1750   -0.1330 C   0  0  0  0  0  0  0  0  0  0  0  0
   -2.3310    0.6820    0.0820 C   0  0  0  0  0  0  0  0  0  0  0  0
   -1.1820   -0.1060    0.2480 C   0  0  0  0  0  0  0  0  0  0  0  0
    0.0900    0.5700    0.4720 C   0  0  0  0  0  0  0  0  0  0  0  0
    0.0850    1.8150    0.7740 O   0  0  0  0  0  0  0  0  0  0  0  0
    1.3410   -0.0630    0.3760 N   0  0  0  0  0  0  0  0  0  0  0  0
    2.6090    0.5130    0.5780 C   0  0  0  0  0  0  0  0  0  0  0  0
    2.9060    1.7920    0.9420 C   0  0  0  0  0  0  0  0  0  0  0  0
    4.1970    2.2880    1.1200 C   0  0  0  0  0  0  0  0  0  0  0  0
    5.2430    1.4370    0.9170 C   0  0  0  0  0  0  0  0  0  0  0  0
    5.0190    0.1330    0.5480 C   0  0  0  0  0  0  0  0  0  0  0  0
    6.1420   -0.7090    0.3340 N   0  0  0  0  0  0  0  0  0  0  0  0
    7.5000   -0.2730    0.2390 C   0  0  0  0  0  0  0  0  0  0  0  0
    7.7000    0.5480   -1.0120 C   0  0  0  0  0  0  0  0  0  0  0  0
    9.4340    1.1020   -1.1090 S   0  0  0  0  0  0  0  0  0  0  0  0
    3.7260   -0.3100    0.3850 C   0  0  0  0  0  0  0  0  0  0  0  0
   -1.3300   -1.4540    0.1930 C   0  0  0  0  0  0  0  0  0  0  0  0
   -2.5590   -2.0470   -0.0160 C   0  0  0  0  0  0  0  0  0  0  0  0
   -2.6770   -3.4330   -0.0640 O   0  0  0  0  0  0  0  0  0  0  0  0
   -1.6150   -4.3260    0.0940 C   0  0  0  0  0  0  0  0  0  0  0  0
   -0.9030   -4.2550    1.4050 C   0  0  0  0  0  0  0  0  0  0  0  0
   -3.6520   -1.2370   -0.1730 C   0  0  0  0  0  0  0  0  0  0  0  0
   -4.8930   -1.8360   -0.3870 O   0  0  0  0  0  0  0  0  0  0  0  0
   -5.2850   -2.0940   -1.7250 C   0  0  0  0  0  0  0  0  0  0  0  0
  1  2  1  0
  2  3  2  3
  3  4  1  0
  3  5  1  0
  5  6  2  0
  5  7  1  0
  7  8  2  0
  7 28  1  0
  8  9  1  0
  9 10  1  0
  9 23  2  0
 10 11  2  0
 10 12  1  0
 12 13  1  0
 13 14  2  0
 13 22  1  0
 14 15  1  0
 15 16  2  0
 16 17  1  0
 17 18  1  0
 17 22  2  0
 18 19  1  0
 19 20  1  0
 20 21  1  0
 23 24  1  0
 24 25  1  0
 24 28  2  0
 25 26  1  0
 26 27  1  0
 28 29  1  0
 29 30  1  0
M  END
