
     RDKit          3D

 28 28  0  0  0  0  0  0  0  0999 V2000
    1.0720   -2.4730    0.6590 N   0  0  0  0  0  0  0  0  0  0  0  0
    2.0340   -1.4760    0.3820 C   0  0  0  0  0  0  0  0  0  0  0  0
    3.7610   -1.8010    0.5320 S   0  0  0  0  0  0  0  0  0  0  0  0
    4.1140   -3.4780    1.0530 C   0  0  2  0  0  0  0  0  0  0  0  0
    3.6370   -3.6280    2.3560 F   0  0  0  0  0  0  0  0  0  0  0  0
    5.4870   -3.6610    1.0630 F   0  0  0  0  0  0  0  0  0  0  0  0
    3.4730   -4.4360    0.2940 F   0  0  0  0  0  0  0  0  0  0  0  0
    1.6460   -0.2360   -0.0090 C   0  0  0  0  0  0  0  0  0  0  0  0
    0.2520   -0.0610   -0.1040 N   0  0  0  0  0  0  0  0  0  0  0  0
   -0.4220    1.0960   -0.4770 C   0  0  0  0  0  0  0  0  0  0  0  0
    0.2130    2.1290   -0.7740 O   0  0  0  0  0  0  0  0  0  0  0  0
   -1.8870    1.2010   -0.5530 C   0  0  0  0  0  0  0  0  0  0  0  0
   -2.7190    0.2410   -0.2850 C   0  0  0  0  0  0  0  0  0  0  0  0
   -4.1590    0.3370   -0.3580 C   0  0  0  0  0  0  0  0  0  0  0  0
   -4.7720    1.4970   -0.7280 C   0  0  0  0  0  0  0  0  0  0  0  0
   -6.1290    1.5170   -0.7760 N   0  0  0  0  0  0  0  0  0  0  0  0
   -6.8560    0.4320   -0.4690 C   0  0  0  0  0  0  0  0  0  0  0  0
   -8.1220    0.4970   -0.5280 O   0  0  0  0  0  0  0  0  0  0  0  0
   -6.2710   -0.7220   -0.1020 N   0  0  0  0  0  0  0  0  0  0  0  0
   -4.9460   -0.7720   -0.0460 C   0  0  0  0  0  0  0  0  0  0  0  0
   -4.3820   -1.8410    0.2950 O   0  0  0  0  0  0  0  0  0  0  0  0
    2.6760    0.7310   -0.2760 C   0  0  0  0  0  0  0  0  0  0  0  0
    2.5540    1.9180   -0.6430 O   0  0  0  0  0  0  0  0  0  0  0  0
    4.0410    0.3560   -0.1210 O   0  0  0  0  0  0  0  0  0  0  0  0
    5.0940    1.2470   -0.3620 C   0  0  0  0  0  0  0  0  0  0  0  0
    5.1080    2.4670    0.4990 C   0  0  2  0  0  0  0  0  0  0  0  0
    6.2200    3.2280    0.1200 F   0  0  0  0  0  0  0  0  0  0  0  0
    5.2640    2.1610    1.8390 F   0  0  0  0  0  0  0  0  0  0  0  0
  1  2  1  0
  2  3  1  0
  2  8  2  3
  3  4  1  0
  4  5  1  1
  4  6  1  0
  4  7  1  0
  8  9  1  0
  8 22  1  0
  9 10  1  0
 10 11  2  0
 10 12  1  0
 12 13  2  3
 13 14  1  0
 14 15  2  0
 14 20  1  0
 15 16  1  0
 16 17  1  0
 17 18  2  0
 17 19  1  0
 19 20  1  0
 20 21  2  0
 22 23  2  0
 22 24  1  0
 24 25  1  0
 25 26  1  0
 26 27  1  6
 26 28  1  0
M  END
