
     RDKit          3D

 30 31  0  0  0  0  0  0  0  0999 V2000
    6.9020    0.2140   -1.1770 C   0  0  0  0  0  0  0  0  0  0  0  0
    5.9820   -0.3430   -0.3780 C   0  0  0  0  0  0  0  0  0  0  0  0
    5.1540   -1.4510   -0.8800 C   0  0  0  0  0  0  0  0  0  0  0  0
    3.8020   -1.2160   -0.8830 O   0  0  0  0  0  0  0  0  0  0  0  0
    3.0140   -1.0400    0.2080 C   0  0  0  0  0  0  0  0  0  0  0  0
    3.4740   -1.1070    1.4860 C   0  0  0  0  0  0  0  0  0  0  0  0
    2.6530   -0.9220    2.6090 C   0  0  0  0  0  0  0  0  0  0  0  0
    3.1930   -0.9910    3.9480 C   0  0  0  0  0  0  0  0  0  0  0  0
    2.4360   -0.8100    4.9320 O   0  0  0  0  0  0  0  0  0  0  0  0
    1.3300   -0.6660    2.3370 C   0  0  0  0  0  0  0  0  0  0  0  0
    0.8420   -0.5950    1.0490 C   0  0  0  0  0  0  0  0  0  0  0  0
   -0.5550   -0.3390    0.8120 N   0  0  0  0  0  0  0  0  0  0  0  0
   -1.1410    0.7700    1.4900 C   0  0  0  0  0  0  0  0  0  0  0  0
   -0.9480    1.9770    0.5980 C   0  0  0  0  0  0  0  0  0  0  0  0
   -1.4950    3.2300    1.1460 C   0  0  0  0  0  0  0  0  0  0  0  0
   -2.0220    3.1900    2.2880 O   0  0  0  0  0  0  0  0  0  0  0  0
   -1.4330    4.4470    0.4120 N   0  0  0  0  0  0  0  0  0  0  0  0
   -1.9820    5.6460    0.9780 C   0  0  0  0  0  0  0  0  0  0  0  0
   -1.3270    6.0370    2.2820 C   0  0  0  0  0  0  0  0  0  0  0  0
   -1.2530   -1.2000   -0.1170 C   0  0  0  0  0  0  0  0  0  0  0  0
   -0.4870   -2.0420   -0.6520 O   0  0  0  0  0  0  0  0  0  0  0  0
   -2.6570   -1.0750   -0.3750 C   0  0  0  0  0  0  0  0  0  0  0  0
   -3.5420   -1.5940   -1.1100 C   0  0  0  0  0  0  0  0  0  0  0  0
   -3.6410   -2.6130   -2.1230 C   0  0  0  0  0  0  0  0  0  0  0  0
   -4.9020   -2.9870   -2.6420 C   0  0  0  0  0  0  0  0  0  0  0  0
   -5.0290   -3.9360   -3.6250 C   0  0  0  0  0  0  0  0  0  0  0  0
   -3.9730   -4.5660   -4.1530 N   0  0  0  0  0  0  0  0  0  0  0  0
   -2.7720   -4.2430   -3.6930 C   0  0  0  0  0  0  0  0  0  0  0  0
   -2.5900   -3.2790   -2.6890 C   0  0  0  0  0  0  0  0  0  0  0  0
    1.6690   -0.7790   -0.0290 C   0  0  0  0  0  0  0  0  0  0  0  0
  1  2  2  0
  2  3  1  0
  3  4  1  0
  4  5  1  0
  5  6  2  0
  5 30  1  0
  6  7  1  0
  7  8  1  0
  7 10  2  0
  8  9  2  0
 10 11  1  0
 11 12  1  0
 11 30  2  0
 12 13  1  0
 12 20  1  0
 13 14  1  0
 14 15  1  0
 15 16  2  0
 15 17  1  0
 17 18  1  0
 18 19  1  0
 20 21  2  0
 20 22  1  0
 22 23  2  3
 23 24  1  0
 24 25  2  0
 24 29  1  0
 25 26  1  0
 26 27  2  0
 27 28  1  0
 28 29  2  0
M  CHG  1  27   1
M  END
