
     RDKit          3D

 29 30  0  0  0  0  0  0  0  0999 V2000
    3.1850    1.6940    0.3860 O   0  0  0  0  0  0  0  0  0  0  0  0
    2.9100    0.5530   -0.0410 C   0  0  0  0  0  0  0  0  0  0  0  0
    3.9120   -0.2690   -0.5620 N   0  0  0  0  0  0  0  0  0  0  0  0
    5.2970    0.0120   -0.6860 C   0  0  0  0  0  0  0  0  0  0  0  0
    5.8240    1.1300   -0.2870 C   0  0  0  0  0  0  0  0  0  0  0  0
    7.2140    1.3140   -0.4550 O   0  0  0  0  0  0  0  0  0  0  0  0
    6.1960   -1.0290   -1.3030 C   0  0  1  0  0  0  0  0  0  0  0  0
    5.6930   -1.2130   -2.5870 F   0  0  0  0  0  0  0  0  0  0  0  0
    7.4760   -0.5610   -1.2920 F   0  0  0  0  0  0  0  0  0  0  0  0
    1.5400    0.1640    0.0410 N   0  0  0  0  0  0  0  0  0  0  0  0
    0.3150    1.1910    0.6830 S   0  0  2  0  0  0  0  0  0  0  0  0
    0.5520    2.5570    0.1140 O   0  0  0  0  0  0  0  0  0  0  0  0
    0.5450    1.3330    2.1750 O   0  0  0  0  0  0  0  0  0  0  0  0
   -1.2700    0.5880    0.4220 C   0  0  0  0  0  0  0  0  0  0  0  0
   -2.0400    0.2250    1.5190 C   0  0  0  0  0  0  0  0  0  0  0  0
   -3.3120   -0.2890    1.4170 C   0  0  0  0  0  0  0  0  0  0  0  0
   -4.0260   -0.6290    2.5000 N   0  0  0  0  0  0  0  0  0  0  0  0
   -5.2820   -1.1370    2.3540 C   0  0  0  0  0  0  0  0  0  0  0  0
   -5.9730   -1.4640    3.3610 O   0  0  0  0  0  0  0  0  0  0  0  0
   -5.8420   -1.3130    1.1480 N   0  0  0  0  0  0  0  0  0  0  0  0
   -5.1640   -0.9850    0.0330 C   0  0  0  0  0  0  0  0  0  0  0  0
   -5.6590   -1.1380   -1.0940 O   0  0  0  0  0  0  0  0  0  0  0  0
   -3.8740   -0.4630    0.1710 C   0  0  0  0  0  0  0  0  0  0  0  0
   -3.1220   -0.1080   -0.9150 C   0  0  0  0  0  0  0  0  0  0  0  0
   -1.8380    0.4130   -0.8350 C   0  0  0  0  0  0  0  0  0  0  0  0
   -1.1040    0.7810   -2.0470 C   0  0  1  0  0  0  0  0  0  0  0  0
   -0.7510    2.1420   -2.0640 F   0  0  0  0  0  0  0  0  0  0  0  0
   -0.0890   -0.0450   -2.4090 F   0  0  0  0  0  0  0  0  0  0  0  0
   -2.0250    0.7070   -3.1160 F   0  0  0  0  0  0  0  0  0  0  0  0
  1  2  2  0
  2  3  1  0
  2 10  1  0
  3  4  1  0
  4  5  2  3
  4  7  1  0
  5  6  1  0
  7  8  1  6
  7  9  1  0
 11 10  1  6
 11 12  2  0
 11 13  2  0
 11 14  1  0
 14 15  2  0
 14 25  1  0
 15 16  1  0
 16 17  1  0
 16 23  2  0
 17 18  1  0
 18 19  2  0
 18 20  1  0
 20 21  1  0
 21 22  2  0
 21 23  1  0
 23 24  1  0
 24 25  2  0
 25 26  1  0
 26 27  1  1
 26 28  1  0
 26 29  1  0
M  CHG  1   6  -1
M  END
