
     RDKit          3D

 29 29  0  0  0  0  0  0  0  0999 V2000
   -8.9750   -1.8400   -0.4460 O   0  0  0  0  0  0  0  0  0  0  0  0
   -8.6540   -0.6980   -0.8690 C   0  0  0  0  0  0  0  0  0  0  0  0
   -9.6230    0.0680   -1.4890 O   0  0  0  0  0  0  0  0  0  0  0  0
   -7.3300   -0.2060   -0.7150 N   0  0  0  0  0  0  0  0  0  0  0  0
   -6.3830   -1.0150   -0.0650 C   0  0  0  0  0  0  0  0  0  0  0  0
   -6.6660   -2.1410    0.3670 O   0  0  0  0  0  0  0  0  0  0  0  0
   -5.0410   -0.4860    0.0920 C   0  0  0  0  0  0  0  0  0  0  0  0
   -4.3670    0.4890   -0.1660 N   0  0  0  0  0  0  0  0  0  0  0  0
   -3.1120    0.6800    0.1280 C   0  0  0  0  0  0  0  0  0  0  0  0
   -2.4670   -0.3010    0.7920 C   0  0  0  0  0  0  0  0  0  0  0  0
   -1.1240   -0.4780    1.3120 C   0  0  0  0  0  0  0  0  0  0  0  0
   -0.7870   -1.5340    1.9520 O   0  0  0  0  0  0  0  0  0  0  0  0
   -0.0770    0.4710    1.1710 N   0  0  0  0  0  0  0  0  0  0  0  0
    1.1990    0.2780    1.6900 N   0  0  0  0  0  0  0  0  0  0  0  0
    2.3890    0.1030    0.9660 C   0  0  0  0  0  0  0  0  0  0  0  0
    2.3020    0.1220   -0.2790 O   0  0  0  0  0  0  0  0  0  0  0  0
    3.6940   -0.0950    1.7090 C   0  0  0  0  0  0  0  0  0  0  0  0
    4.7810   -0.3310    0.9500 O   0  0  0  0  0  0  0  0  0  0  0  0
    5.3510    0.3690   -0.0310 C   0  0  0  0  0  0  0  0  0  0  0  0
    5.9630    1.6620    0.0650 C   0  0  0  0  0  0  0  0  0  0  0  0
    6.1240    2.4400    1.0930 C   0  0  0  0  0  0  0  0  0  0  0  0
    5.7200    2.1520    2.3390 F   0  0  0  0  0  0  0  0  0  0  0  0
    6.7560    3.6530    0.8950 F   0  0  0  0  0  0  0  0  0  0  0  0
    5.3490   -0.2130   -1.2610 C   0  0  0  0  0  0  0  0  0  0  0  0
    4.7570   -1.5410   -1.5040 C   0  0  1  0  0  0  0  0  0  0  0  0
    4.3520   -2.0950   -0.3210 F   0  0  0  0  0  0  0  0  0  0  0  0
    3.7430   -1.4230   -2.4430 F   0  0  0  0  0  0  0  0  0  0  0  0
    5.6910   -2.3960   -2.0990 F   0  0  0  0  0  0  0  0  0  0  0  0
   -3.7230   -1.5060    0.9800 S   0  0  0  0  0  0  0  0  0  0  0  0
  1  2  2  0
  2  3  1  0
  2  4  1  0
  4  5  1  0
  5  6  2  0
  5  7  1  0
  7  8  2  0
  7 29  1  0
  8  9  1  0
  9 10  2  0
 10 11  1  0
 10 29  1  0
 11 12  2  0
 11 13  1  0
 13 14  1  0
 14 15  1  0
 15 16  2  0
 15 17  1  0
 17 18  1  0
 18 19  1  0
 19 20  1  0
 19 24  2  3
 20 21  2  3
 21 22  1  0
 21 23  1  0
 24 25  1  0
 25 26  1  1
 25 27  1  0
 25 28  1  0
M  END
