
     RDKit          3D

 30 32  0  0  0  0  0  0  0  0999 V2000
    6.9060   -3.5810    1.3730 C   0  0  0  0  0  0  0  0  0  0  0  0
    5.7820   -4.1550    0.5760 C   0  0  0  0  0  0  0  0  0  0  0  0
    5.2500   -3.3540   -0.3960 O   0  0  0  0  0  0  0  0  0  0  0  0
    4.7240   -2.1570   -0.0010 C   0  0  0  0  0  0  0  0  0  0  0  0
    3.6170   -2.2540    1.0320 C   0  0  0  0  0  0  0  0  0  0  0  0
    3.1890   -0.8950    1.3070 N   0  0  0  0  0  0  0  0  0  0  0  0
    2.4220   -0.2940    0.2600 C   0  0  0  0  0  0  0  0  0  0  0  0
    2.2150    1.1480    0.5010 C   0  0  0  0  0  0  0  0  0  0  0  0
    2.7580    1.6640    1.5260 O   0  0  0  0  0  0  0  0  0  0  0  0
    1.4460    1.9610   -0.3620 N   0  0  0  0  0  0  0  0  0  0  0  0
    0.7810    1.3610   -1.4660 C   0  0  0  0  0  0  0  0  0  0  0  0
   -0.5670    0.8780   -1.0530 C   0  0  0  0  0  0  0  0  0  0  0  0
   -1.1190   -0.3460   -1.1970 C   0  0  0  0  0  0  0  0  0  0  0  0
   -2.3580   -0.5800   -0.7290 C   0  0  0  0  0  0  0  0  0  0  0  0
   -3.0750   -1.8200   -0.7980 C   0  0  0  0  0  0  0  0  0  0  0  0
   -4.3360   -1.8800   -0.2600 C   0  0  0  0  0  0  0  0  0  0  0  0
   -4.9910   -0.8440    0.3510 C   0  0  0  0  0  0  0  0  0  0  0  0
   -4.2950    0.3750    0.4230 C   0  0  0  0  0  0  0  0  0  0  0  0
   -3.0350    0.4540   -0.1090 C   0  0  0  0  0  0  0  0  0  0  0  0
   -1.8300    1.8080   -0.2080 S   0  0  0  0  0  0  0  0  0  0  0  0
   -6.3390   -0.9750    0.8980 C   0  0  0  0  0  0  0  0  0  0  0  0
   -7.1450   -1.7530   -0.1460 C   0  0  0  0  0  0  0  0  0  0  0  0
   -6.5330   -3.0710   -0.4720 C   0  0  0  0  0  0  0  0  0  0  0  0
   -5.0580   -3.1810   -0.3320 C   0  0  0  0  0  0  0  0  0  0  0  0
    1.4200    3.3640   -0.1540 C   0  0  0  0  0  0  0  0  0  0  0  0
    2.0130    3.8500    0.8580 O   0  0  0  0  0  0  0  0  0  0  0  0
    0.7310    4.2760   -1.0770 C   0  0  0  0  0  0  0  0  0  0  0  0
    0.9880    5.7150   -0.8440 C   0  0  0  0  0  0  0  0  0  0  0  0
    0.5240    6.2030    0.4900 C   0  0  0  0  0  0  0  0  0  0  0  0
    0.7760    7.5810    0.6390 O   0  0  0  0  0  0  0  0  0  0  0  0
  1  2  1  0
  2  3  1  0
  3  4  1  0
  4  5  1  0
  5  6  1  0
  6  7  1  0
  7  8  1  0
  8  9  2  0
  8 10  1  0
 10 11  1  0
 10 25  1  0
 11 12  1  0
 12 13  2  0
 12 20  1  0
 13 14  1  0
 14 15  2  0
 14 19  1  0
 15 16  1  0
 16 17  2  0
 16 24  1  0
 17 18  1  0
 17 21  1  0
 18 19  2  0
 19 20  1  0
 21 22  1  0
 22 23  1  0
 23 24  1  0
 25 26  2  0
 25 27  1  0
 27 28  1  0
 28 29  1  0
 29 30  1  0
M  END
