
     RDKit          3D

 27 27  0  0  0  0  0  0  0  0999 V2000
    1.8370   -4.2600   -2.8700 C   0  0  0  0  0  0  0  0  0  0  0  0
    2.0650   -3.0460   -2.1750 O   0  0  0  0  0  0  0  0  0  0  0  0
    1.7100   -2.9040   -0.8240 C   0  0  0  0  0  0  0  0  0  0  0  0
    1.1930   -3.9060   -0.3060 O   0  0  0  0  0  0  0  0  0  0  0  0
    1.9680   -1.6200   -0.1420 C   0  0  0  0  0  0  0  0  0  0  0  0
    2.5530   -0.6700   -0.8820 C   0  0  0  0  0  0  0  0  0  0  0  0
    2.9560    0.6830   -0.5810 C   0  0  0  0  0  0  0  0  0  0  0  0
    4.2800    0.7830    0.0400 O   0  0  0  0  0  0  0  0  0  0  0  0
    5.2520    1.2060   -0.7700 O   0  0  0  0  0  0  0  0  0  0  0  0
    2.4160    1.8760   -0.7470 C   0  0  0  0  0  0  0  0  0  0  0  0
    1.1880    2.3590   -1.3070 C   0  0  0  0  0  0  0  0  0  0  0  0
   -0.0220    2.6890   -0.9400 C   0  0  0  0  0  0  0  0  0  0  0  0
   -0.7560    2.7210    0.3080 C   0  0  0  0  0  0  0  0  0  0  0  0
   -0.8800    3.9080    0.9380 C   0  0  0  0  0  0  0  0  0  0  0  0
   -0.3450    5.1920    0.4850 C   0  0  0  0  0  0  0  0  0  0  0  0
   -1.3430    6.1470    0.2820 O   0  0  0  0  0  0  0  0  0  0  0  0
   -1.4720    1.6750    0.9600 N   0  0  0  0  0  0  0  0  0  0  0  0
   -1.3220    0.2360    0.9040 C   0  0  0  0  0  0  0  0  0  0  0  0
   -2.4890   -0.4860    0.2220 C   0  0  2  0  0  0  0  0  0  0  0  0
   -3.6640    0.0880    0.9280 N   0  0  0  0  0  0  0  0  0  0  0  0
   -2.4850   -1.9340    0.3580 C   0  0  0  0  0  0  0  0  0  0  0  0
   -1.6230   -2.6710   -0.1500 O   0  0  0  0  0  0  0  0  0  0  0  0
   -3.4850   -2.5480    1.0900 O   0  0  0  0  0  0  0  0  0  0  0  0
   -3.5750   -3.9340    1.2840 C   0  0  0  0  0  0  0  0  0  0  0  0
   -0.3380   -0.2570    1.4300 N   0  0  0  0  0  0  0  0  0  0  0  0
    0.6610   -0.9660    1.9430 C   0  0  0  0  0  0  0  0  0  0  0  0
    1.6350   -1.5470    1.2830 C   0  0  0  0  0  0  0  0  0  0  0  0
  1  2  1  0
  2  3  1  0
  3  4  2  0
  3  5  1  0
  5  6  2  0
  5 27  1  0
  6  7  1  0
  7  8  1  0
  7 10  2  0
  8  9  1  0
 10 11  1  0
 11 12  2  0
 12 13  1  0
 13 14  2  3
 13 17  1  0
 14 15  1  0
 15 16  1  0
 17 18  1  0
 18 19  1  0
 18 25  2  0
 19 20  1  1
 19 21  1  0
 21 22  2  0
 21 23  1  0
 23 24  1  0
 25 26  1  0
 26 27  2  0
M  END
