
     RDKit          3D

 27 28  0  0  0  0  0  0  0  0999 V2000
    8.9190    1.1960   -0.0150 C   0  0  0  0  0  0  0  0  0  0  0  0
    8.3090   -0.0960   -0.1090 O   0  0  0  0  0  0  0  0  0  0  0  0
    6.9830   -0.2850    0.2430 C   0  0  0  0  0  0  0  0  0  0  0  0
    6.3270    0.7080    0.6470 O   0  0  0  0  0  0  0  0  0  0  0  0
    6.3510   -1.6230    0.1460 C   0  0  0  0  0  0  0  0  0  0  0  0
    5.0050   -1.6010    0.5470 O   0  0  0  0  0  0  0  0  0  0  0  0
    4.1110   -0.7760   -0.1500 C   0  0  0  0  0  0  0  0  0  0  0  0
    4.5300   -0.0810   -1.1100 O   0  0  0  0  0  0  0  0  0  0  0  0
    2.7490   -0.7060    0.2000 N   0  0  0  0  0  0  0  0  0  0  0  0
    1.7710    0.1090   -0.4580 C   0  0  0  0  0  0  0  0  0  0  0  0
    1.9450    0.9380   -1.5000 N   0  0  0  0  0  0  0  0  0  0  0  0
    0.7770    1.5330   -1.8370 C   0  0  0  0  0  0  0  0  0  0  0  0
   -0.1230    1.0640   -0.9930 N   0  0  0  0  0  0  0  0  0  0  0  0
    0.4290    0.1990   -0.1390 C   0  0  0  0  0  0  0  0  0  0  0  0
   -0.2890   -0.5140    0.9380 C   0  0  0  0  0  0  0  0  0  0  0  0
   -1.6460   -0.2010    0.9960 O   0  0  0  0  0  0  0  0  0  0  0  0
   -2.5610   -0.3950   -0.0070 C   0  0  0  0  0  0  0  0  0  0  0  0
   -2.1480   -0.9020   -1.0790 O   0  0  0  0  0  0  0  0  0  0  0  0
   -3.9700   -0.0550    0.0920 C   0  0  0  0  0  0  0  0  0  0  0  0
   -4.3710    0.4770    1.2350 C   0  0  0  0  0  0  0  0  0  0  0  0
   -5.6350    0.9680    1.7980 C   0  0  0  0  0  0  0  0  0  0  0  0
   -6.9190    0.7200    1.5830 C   0  0  0  0  0  0  0  0  0  0  0  0
   -7.6540   -0.1740    0.6680 C   0  0  0  0  0  0  0  0  0  0  0  0
   -7.2490   -0.0840   -0.7400 C   0  0  0  0  0  0  0  0  0  0  0  0
   -8.1440    0.3390   -1.5000 O   0  0  0  0  0  0  0  0  0  0  0  0
   -6.0250   -0.3810   -1.4630 C   0  0  0  0  0  0  0  0  0  0  0  0
   -4.7230   -0.3650   -1.1190 C   0  0  0  0  0  0  0  0  0  0  0  0
  1  2  1  0
  2  3  1  0
  3  4  2  0
  3  5  1  0
  5  6  1  0
  6  7  1  0
  7  8  2  0
  7  9  1  0
  9 10  1  0
 10 11  1  0
 10 14  2  0
 11 12  1  0
 12 13  2  0
 13 14  1  0
 14 15  1  0
 15 16  1  0
 16 17  1  0
 17 18  2  0
 17 19  1  0
 19 20  2  0
 19 27  1  0
 20 21  1  0
 21 22  2  0
 22 23  1  0
 23 24  1  0
 24 25  2  0
 24 26  1  0
 26 27  2  0
M  END
