
     RDKit          3D

 27 28  0  0  0  0  0  0  0  0999 V2000
   -2.4990    3.0200   -2.9020 O   0  0  0  0  0  0  0  0  0  0  0  0
   -3.4580    2.9890   -2.0610 C   0  0  0  0  0  0  0  0  0  0  0  0
   -3.3070    2.2640   -0.8500 N   0  0  0  0  0  0  0  0  0  0  0  0
   -2.0140    1.5650   -0.6250 C   0  0  1  0  0  0  0  0  0  0  0  0
   -1.4180    2.3600    0.5420 C   0  0  0  0  0  0  0  0  0  0  0  0
   -1.3070    3.6840    0.0410 O   0  0  0  0  0  0  0  0  0  0  0  0
   -2.3350    0.1700   -0.2400 C   0  0  0  0  0  0  0  0  0  0  0  0
   -3.4620   -0.0010    0.2790 O   0  0  0  0  0  0  0  0  0  0  0  0
   -1.4800   -0.9280   -0.4230 N   0  0  0  0  0  0  0  0  0  0  0  0
   -0.1980   -0.6190   -1.1290 C   0  0  0  0  0  0  0  0  0  0  0  0
    0.8840   -0.3410   -0.1500 C   0  0  0  0  0  0  0  0  0  0  0  0
    0.6200   -0.4010    1.0720 O   0  0  0  0  0  0  0  0  0  0  0  0
    2.1890   -0.0180   -0.5600 N   0  0  0  0  0  0  0  0  0  0  0  0
    3.3130    0.2600    0.2410 C   0  0  0  0  0  0  0  0  0  0  0  0
    3.2750    0.4130    1.5990 C   0  0  0  0  0  0  0  0  0  0  0  0
    4.4320    0.6570    2.3190 C   0  0  0  0  0  0  0  0  0  0  0  0
    5.6550    0.7540    1.6960 C   0  0  0  0  0  0  0  0  0  0  0  0
    5.6930    0.6000    0.3220 C   0  0  0  0  0  0  0  0  0  0  0  0
    6.9320    0.6950   -0.3430 O   0  0  0  0  0  0  0  0  0  0  0  0
    4.5440    0.3570   -0.3940 C   0  0  0  0  0  0  0  0  0  0  0  0
   -1.6170   -2.2660   -0.0800 C   0  0  0  0  0  0  0  0  0  0  0  0
   -0.6020   -2.9920   -0.5480 O   0  0  0  0  0  0  0  0  0  0  0  0
   -2.5900   -3.0330    0.6530 C   0  0  0  0  0  0  0  0  0  0  0  0
   -3.6600   -2.7140    1.4380 C   0  0  0  0  0  0  0  0  0  0  0  0
   -4.2770   -3.8980    1.8480 C   0  0  0  0  0  0  0  0  0  0  0  0
   -3.6110   -4.8860    1.3360 O   0  0  0  0  0  0  0  0  0  0  0  0
   -2.6070   -4.4540    0.6230 C   0  0  0  0  0  0  0  0  0  0  0  0
  1  2  2  0
  2  3  1  0
  3  4  1  0
  4  5  1  1
  4  7  1  0
  5  6  1  0
  7  8  2  0
  7  9  1  0
  9 10  1  0
  9 21  1  0
 10 11  1  0
 11 12  2  0
 11 13  1  0
 13 14  1  0
 14 15  2  0
 14 20  1  0
 15 16  1  0
 16 17  2  0
 17 18  1  0
 18 19  1  0
 18 20  2  0
 21 22  2  0
 21 23  1  0
 23 24  1  0
 23 27  2  0
 24 25  2  0
 25 26  1  0
 26 27  1  0
M  END
