
     RDKit          3D

 27 28  0  0  0  0  0  0  0  0999 V2000
    3.0530    1.7950   -2.7870 C   0  0  0  0  0  0  0  0  0  0  0  0
    3.2130    1.1310   -1.4130 C   0  0  1  0  0  0  0  0  0  0  0  0
    2.6710    2.1200   -0.4070 C   0  0  0  0  0  0  0  0  0  0  0  0
    2.7430    1.6680    0.9140 O   0  0  0  0  0  0  0  0  0  0  0  0
    3.9180    1.3280    1.5670 C   0  0  0  0  0  0  0  0  0  0  0  0
    4.9910    1.4260    0.9530 O   0  0  0  0  0  0  0  0  0  0  0  0
    3.9330    0.8820    2.8870 O   0  0  0  0  0  0  0  0  0  0  0  0
    2.5340   -0.1680   -1.3550 C   0  0  0  0  0  0  0  0  0  0  0  0
    3.2020   -1.2000   -1.1110 O   0  0  0  0  0  0  0  0  0  0  0  0
    1.1760   -0.2920   -1.5620 O   0  0  0  0  0  0  0  0  0  0  0  0
    0.4660   -1.5090   -1.5190 C   0  0  0  0  0  0  0  0  0  0  0  0
    0.5420   -2.2090   -0.1850 C   0  0  0  0  0  0  0  0  0  0  0  0
   -0.1850   -3.4000   -0.2270 O   0  0  0  0  0  0  0  0  0  0  0  0
   -1.5240   -3.4540   -0.4760 C   0  0  0  0  0  0  0  0  0  0  0  0
   -2.3200   -2.8660    0.3180 N   0  0  0  0  0  0  0  0  0  0  0  0
   -1.9880   -2.1410    1.4640 C   0  0  0  0  0  0  0  0  0  0  0  0
   -1.3840   -2.6010    2.6390 C   0  0  0  0  0  0  0  0  0  0  0  0
   -1.2900   -1.5450    3.4510 N   0  0  0  0  0  0  0  0  0  0  0  0
   -1.8020   -0.4680    2.8390 C   0  0  0  0  0  0  0  0  0  0  0  0
   -1.8670    0.7010    3.3350 O   0  0  0  0  0  0  0  0  0  0  0  0
   -2.2300   -0.8200    1.6250 N   0  0  0  0  0  0  0  0  0  0  0  0
   -2.8440    0.0260    0.6420 C   0  0  0  0  0  0  0  0  0  0  0  0
   -2.0890    0.9100   -0.0840 C   0  0  0  0  0  0  0  0  0  0  0  0
   -2.6910    1.7090   -1.0160 C   0  0  0  0  0  0  0  0  0  0  0  0
   -4.0400    1.6670   -1.2630 C   0  0  0  0  0  0  0  0  0  0  0  0
   -4.7700    0.7660   -0.5140 C   0  0  0  0  0  0  0  0  0  0  0  0
   -4.1930   -0.0520    0.4310 C   0  0  0  0  0  0  0  0  0  0  0  0
  2  1  1  6
  2  3  1  0
  2  8  1  0
  3  4  1  0
  4  5  1  0
  5  6  2  0
  5  7  1  0
  8  9  2  0
  8 10  1  0
 10 11  1  0
 11 12  1  0
 12 13  1  0
 13 14  1  0
 14 15  2  3
 15 16  1  0
 16 17  2  0
 16 21  1  0
 17 18  1  0
 18 19  1  0
 19 20  2  0
 19 21  1  0
 21 22  1  0
 22 23  2  0
 22 27  1  0
 23 24  1  0
 24 25  2  0
 25 26  1  0
 26 27  2  0
M  END
