
     RDKit          3D

 27 29  0  0  0  0  0  0  0  0999 V2000
    4.9250    3.3110    0.5570 C   0  0  0  0  0  0  0  0  0  0  0  0
    5.1280    2.6510   -0.6230 O   0  0  0  0  0  0  0  0  0  0  0  0
    4.3310    1.5500   -0.8490 C   0  0  0  0  0  0  0  0  0  0  0  0
    4.4830    0.4780    0.1730 C   0  0  0  0  0  0  0  0  0  0  0  0
    3.6650   -0.6950   -0.0330 N   0  0  0  0  0  0  0  0  0  0  0  0
    2.2260   -0.5920   -0.0070 C   0  0  0  0  0  0  0  0  0  0  0  0
    1.8520    0.5350    0.2030 O   0  0  0  0  0  0  0  0  0  0  0  0
    1.4080   -1.7560   -0.2180 C   0  0  0  0  0  0  0  0  0  0  0  0
    0.1040   -1.7780   -0.2070 C   0  0  0  0  0  0  0  0  0  0  0  0
   -0.8160   -0.7630   -0.0040 N   0  0  0  0  0  0  0  0  0  0  0  0
   -0.9270    0.5740    0.2530 C   0  0  0  0  0  0  0  0  0  0  0  0
    0.0430    1.2580    0.3710 O   0  0  0  0  0  0  0  0  0  0  0  0
   -2.2320    1.2830    0.4030 C   0  0  0  0  0  0  0  0  0  0  0  0
   -2.3470    2.6190    0.1210 C   0  0  0  0  0  0  0  0  0  0  0  0
   -3.5870    3.2520    0.2850 C   0  0  0  0  0  0  0  0  0  0  0  0
   -4.6430    2.5090    0.7220 C   0  0  0  0  0  0  0  0  0  0  0  0
   -5.9030    3.1010    0.9000 O   0  0  0  0  0  0  0  0  0  0  0  0
   -7.0140    2.6200    0.3630 O   0  0  0  0  0  0  0  0  0  0  0  0
   -4.5620    1.1630    1.0150 C   0  0  0  0  0  0  0  0  0  0  0  0
   -3.3030    0.5600    0.8400 C   0  0  0  0  0  0  0  0  0  0  0  0
   -0.4850   -3.1440   -0.4590 C   0  0  0  0  0  0  0  0  0  0  0  0
   -1.7950   -3.5670   -0.5250 C   0  0  0  0  0  0  0  0  0  0  0  0
   -1.8300   -4.9290   -0.7820 C   0  0  0  0  0  0  0  0  0  0  0  0
   -0.5460   -5.3160   -0.8700 N   0  0  0  0  0  0  0  0  0  0  0  0
    0.2680   -4.2350   -0.6750 C   0  0  0  0  0  0  0  0  0  0  0  0
    1.6330   -4.1410   -0.6720 O   0  0  0  0  0  0  0  0  0  0  0  0
    2.1680   -2.9540   -0.4540 O   0  0  0  0  0  0  0  0  0  0  0  0
  1  2  1  0
  2  3  1  0
  3  4  1  0
  4  5  1  0
  5  6  1  0
  6  7  2  0
  6  8  1  0
  8  9  2  0
  8 27  1  0
  9 10  1  0
  9 21  1  0
 10 11  1  0
 11 12  2  0
 11 13  1  0
 13 14  2  0
 13 20  1  0
 14 15  1  0
 15 16  2  0
 16 17  1  0
 16 19  1  0
 17 18  1  0
 19 20  2  0
 21 22  1  0
 21 25  2  0
 22 23  2  0
 23 24  1  0
 24 25  1  0
 25 26  1  0
 26 27  1  0
M  END
