
     RDKit          3D

 22 23  0  0  0  0  0  0  0  0999 V2000
    5.7180    2.9330   -1.8550 N   0  0  0  0  0  0  0  0  0  0  0  0
    5.6140    1.7640   -2.1960 N   0  0  0  0  0  0  0  0  0  0  0  0
    5.1720    0.6590   -2.5020 N   0  0  0  0  0  0  0  0  0  0  0  0
    5.4760   -0.4470   -1.6450 C   0  0  0  0  0  0  0  0  0  0  0  0
    5.3710   -0.0530   -0.1920 C   0  0  0  0  0  0  0  0  0  0  0  0
    3.9850    0.4090    0.1070 C   0  0  0  0  0  0  0  0  0  0  0  0
    2.9420   -0.6540   -0.1550 C   0  0  0  0  0  0  0  0  0  0  0  0
    1.6240   -0.1740    0.1440 N   0  0  0  0  0  0  0  0  0  0  0  0
    0.4490   -0.9560   -0.0080 C   0  0  0  0  0  0  0  0  0  0  0  0
    0.5960   -2.1340   -0.4300 O   0  0  0  0  0  0  0  0  0  0  0  0
   -0.8530   -0.3650    0.3270 C   0  0  2  0  0  0  0  0  0  0  0  0
   -1.7310   -1.2630    1.1760 C   0  0  1  0  0  0  0  0  0  0  0  0
   -2.6070   -0.6760    2.2330 C   0  0  2  0  0  0  0  0  0  0  0  0
   -3.5870   -1.6440    2.5460 O   0  0  0  0  0  0  0  0  0  0  0  0
   -3.2070    0.6320    1.9200 C   0  0  1  0  0  0  0  0  0  0  0  0
   -2.5180    1.6900    2.5570 O   0  0  0  0  0  0  0  0  0  0  0  0
   -3.3190    0.9810    0.4810 C   0  0  2  0  0  0  0  0  0  0  0  0
   -4.5410    1.6570    0.2640 O   0  0  0  0  0  0  0  0  0  0  0  0
   -3.3520   -0.2460   -0.3790 C   0  0  1  0  0  0  0  0  0  0  0  0
   -3.6440    0.0990   -1.8210 C   0  0  0  0  0  0  0  0  0  0  0  0
   -4.8730    0.7340   -1.9590 O   0  0  0  0  0  0  0  0  0  0  0  0
   -2.0830   -0.9970   -0.2050 C   0  0  1  0  0  0  0  0  0  0  0  0
  1  2  2  0
  2  3  2  0
  3  4  1  0
  4  5  1  0
  5  6  1  0
  6  7  1  0
  7  8  1  0
  8  9  1  0
  9 10  2  0
 11  9  1  6
 12 11  1  1
 22 11  1  1
 12 13  1  0
 12 22  1  0
 13 14  1  6
 13 15  1  0
 15 16  1  1
 15 17  1  0
 17 18  1  1
 17 19  1  0
 19 20  1  6
 19 22  1  0
 20 21  1  0
M  CHG  2   1  -1   2   1
M  END
