
     RDKit          3D

 22 22  0  0  0  0  0  0  0  0999 V2000
   -0.0040    1.5010    3.2820 C   0  0  0  0  0  0  0  0  0  0  0  0
    0.7790    0.7800    2.2320 C   0  0  1  0  0  0  0  0  0  0  0  0
    1.6820   -0.1200    2.6730 O   0  0  0  0  0  0  0  0  0  0  0  0
    2.9730    0.0200    2.2670 C   0  0  0  0  0  0  0  0  0  0  0  0
    3.1630   -0.0510    0.7590 C   0  0  0  0  0  0  0  0  0  0  0  0
    4.5100    0.1070    0.5160 O   0  0  0  0  0  0  0  0  0  0  0  0
    4.8520    0.0760   -0.8050 C   0  0  0  0  0  0  0  0  0  0  0  0
    4.6120   -1.1800   -1.4900 C   0  0  0  0  0  0  0  0  0  0  0  0
    4.8750   -1.2540   -2.8910 N   0  0  0  0  0  0  0  0  0  0  0  0
    4.1900   -2.1970   -0.9300 O   0  0  0  0  0  0  0  0  0  0  0  0
   -0.1870    0.0350    1.3110 C   0  0  0  0  0  0  0  0  0  0  0  0
   -0.0260   -1.1830    1.1110 O   0  0  0  0  0  0  0  0  0  0  0  0
   -1.2430    0.7210    0.6980 N   0  0  0  0  0  0  0  0  0  0  0  0
   -2.2330    0.2630   -0.1670 C   0  0  0  0  0  0  0  0  0  0  0  0
   -2.2660   -1.0080   -0.5260 C   0  0  0  0  0  0  0  0  0  0  0  0
   -3.2580   -1.6190   -1.4330 C   0  0  0  0  0  0  0  0  0  0  0  0
   -4.3550   -1.1290   -1.9320 C   0  0  0  0  0  0  0  0  0  0  0  0
   -5.0620   -2.0020   -2.7680 O   0  0  0  0  0  0  0  0  0  0  0  0
   -4.9500    0.2050   -1.7430 C   0  0  0  0  0  0  0  0  0  0  0  0
   -4.5480    0.8940   -0.5710 N   0  0  0  0  0  0  0  0  0  0  0  0
   -3.1840    1.3530   -0.5950 C   0  0  2  0  0  0  0  0  0  0  0  0
   -2.7140    1.8910   -2.2060 Cl  0  0  0  0  0  0  0  0  0  0  0  0
  2  1  1  1
  2  3  1  0
  2 11  1  0
  3  4  1  0
  4  5  1  0
  5  6  1  0
  6  7  1  0
  7  8  1  0
  8  9  1  0
  8 10  2  0
 11 12  2  0
 11 13  1  0
 13 14  1  0
 14 15  2  0
 14 21  1  0
 15 16  1  0
 16 17  2  0
 17 18  1  0
 17 19  1  0
 19 20  1  0
 20 21  1  0
 21 22  1  6
M  END
