
     RDKit          3D

 22 23  0  0  0  0  0  0  0  0999 V2000
    2.6570   -3.0330   -1.0130 N   0  0  0  0  0  0  0  0  0  0  0  0
    1.6440   -3.4840   -0.1400 C   0  0  0  0  0  0  0  0  0  0  0  0
    1.7300   -4.6830    0.2810 O   0  0  0  0  0  0  0  0  0  0  0  0
    0.5310   -2.6600    0.2930 C   0  0  0  0  0  0  0  0  0  0  0  0
    0.3750   -1.4090   -0.1010 C   0  0  0  0  0  0  0  0  0  0  0  0
   -0.7340   -0.6270    0.3450 N   0  0  0  0  0  0  0  0  0  0  0  0
   -1.6260   -0.1140   -0.6200 C   0  0  0  0  0  0  0  0  0  0  0  0
   -1.4100   -0.3680   -1.8510 O   0  0  0  0  0  0  0  0  0  0  0  0
   -2.7890    0.6960   -0.2740 C   0  0  1  0  0  0  0  0  0  0  0  0
   -3.5060    1.0790   -1.3800 O   0  0  0  0  0  0  0  0  0  0  0  0
   -3.7560   -0.0260    0.6670 C   0  0  0  0  0  0  0  0  0  0  0  0
   -4.4610    1.2060    1.2510 C   0  0  0  0  0  0  0  0  0  0  0  0
   -3.3650    2.0020    1.5710 O   0  0  0  0  0  0  0  0  0  0  0  0
   -2.4610    1.9180    0.5450 C   0  0  0  0  0  0  0  0  0  0  0  0
    1.3560   -0.8600   -0.9910 N   0  0  0  0  0  0  0  0  0  0  0  0
    2.2350    0.2070   -0.5590 C   0  0  0  0  0  0  0  0  0  0  0  0
    2.7960    0.1080    0.6250 C   0  0  0  0  0  0  0  0  0  0  0  0
    3.7000    1.1380    1.1480 C   0  0  2  0  0  0  0  0  0  0  0  0
    2.9010    1.8100    2.6120 Cl  0  0  0  0  0  0  0  0  0  0  0  0
    3.8710    2.1810    0.2590 O   0  0  0  0  0  0  0  0  0  0  0  0
    3.2890    2.2810   -0.9670 C   0  0  0  0  0  0  0  0  0  0  0  0
    2.4740    1.3490   -1.4350 C   0  0  0  0  0  0  0  0  0  0  0  0
  1  2  1  0
  2  3  2  0
  2  4  1  0
  4  5  2  3
  5  6  1  0
  5 15  1  0
  6  7  1  0
  7  8  2  0
  7  9  1  0
  9 10  1  6
  9 11  1  0
  9 14  1  0
 11 12  1  0
 12 13  1  0
 13 14  1  0
 15 16  1  0
 16 17  2  0
 16 22  1  0
 17 18  1  0
 18 19  1  1
 18 20  1  0
 20 21  1  0
 21 22  2  0
M  END
