
     RDKit          3D

 22 23  0  0  0  0  0  0  0  0999 V2000
    5.5030   -2.3590    0.6720 N   0  0  0  0  0  0  0  0  0  0  0  0
    4.6130   -3.3200    0.1640 C   0  0  0  0  0  0  0  0  0  0  0  0
    5.0170   -4.4750   -0.0710 O   0  0  0  0  0  0  0  0  0  0  0  0
    3.2040   -2.9730   -0.0960 C   0  0  0  0  0  0  0  0  0  0  0  0
    2.9120   -1.5910    0.2340 N   0  0  0  0  0  0  0  0  0  0  0  0
    3.0260   -0.4910   -0.6710 C   0  0  0  0  0  0  0  0  0  0  0  0
    3.1550   -0.6320   -1.9210 O   0  0  0  0  0  0  0  0  0  0  0  0
    2.9610    0.7160    0.1580 C   0  0  0  0  0  0  0  0  0  0  0  0
    2.0600    0.3270    1.2660 C   0  0  1  0  0  0  0  0  0  0  0  0
    0.6620    0.3040    0.9620 N   0  0  0  0  0  0  0  0  0  0  0  0
   -0.3370    0.9580    1.7090 C   0  0  0  0  0  0  0  0  0  0  0  0
    0.1000    1.5900    2.7120 O   0  0  0  0  0  0  0  0  0  0  0  0
   -1.7780    0.9620    1.4300 C   0  0  2  0  0  0  0  0  0  0  0  0
   -2.2960   -0.3370    0.8220 C   0  0  0  0  0  0  0  0  0  0  0  0
   -2.2680    0.9520    0.0330 C   0  0  2  0  0  0  0  0  0  0  0  0
   -1.0850    1.2130   -1.2450 Cl  0  0  0  0  0  0  0  0  0  0  0  0
   -3.6460    1.4690   -0.3080 C   0  0  0  0  0  0  0  0  0  0  0  0
   -3.8220    1.3140   -1.8040 C   0  0  0  0  0  0  0  0  0  0  0  0
   -5.1790    1.8050   -2.2590 C   0  0  0  0  0  0  0  0  0  0  0  0
   -5.3020    3.1420   -1.9360 O   0  0  0  0  0  0  0  0  0  0  0  0
    2.4670   -1.0890    1.4960 C   0  0  0  0  0  0  0  0  0  0  0  0
    2.4300   -1.7150    2.5660 O   0  0  0  0  0  0  0  0  0  0  0  0
  1  2  1  0
  2  3  2  0
  2  4  1  0
  4  5  1  0
  5  6  1  0
  5 21  1  0
  6  7  2  0
  6  8  1  0
  8  9  1  0
  9 10  1  6
  9 21  1  0
 10 11  1  0
 11 12  2  0
 13 11  1  6
 13 14  1  0
 13 15  1  0
 14 15  1  0
 15 16  1  6
 15 17  1  0
 17 18  1  0
 18 19  1  0
 19 20  1  0
 21 22  2  0
M  END
