
     RDKit          3D

 22 23  0  0  0  0  0  0  0  0999 V2000
   -6.5100    1.6330    0.4820 N   0  0  0  0  0  0  0  0  0  0  0  0
   -5.5810    1.0540   -0.3920 C   0  0  0  0  0  0  0  0  0  0  0  0
   -5.2940    1.5580   -1.4890 O   0  0  0  0  0  0  0  0  0  0  0  0
   -4.9230   -0.1600   -0.0130 N   0  0  0  0  0  0  0  0  0  0  0  0
   -3.7550   -0.6090   -0.6770 C   0  0  0  0  0  0  0  0  0  0  0  0
   -3.3950   -0.1010   -1.7410 O   0  0  0  0  0  0  0  0  0  0  0  0
   -2.9700   -1.6980   -0.0370 C   0  0  0  0  0  0  0  0  0  0  0  0
   -1.6550   -1.3440    0.1410 O   0  0  0  0  0  0  0  0  0  0  0  0
   -0.5570   -1.2560   -0.6590 C   0  0  0  0  0  0  0  0  0  0  0  0
   -0.6500   -1.6010   -1.8230 O   0  0  0  0  0  0  0  0  0  0  0  0
    0.6700   -0.7500    0.0010 C   0  0  1  0  0  0  0  0  0  0  0  0
    0.8220   -1.2840    1.3530 N   0  0  0  0  0  0  0  0  0  0  0  0
   -0.5120   -0.6940    2.3430 Cl  0  0  0  0  0  0  0  0  0  0  0  0
    1.8510   -1.5920   -0.7160 C   0  0  0  0  0  0  0  0  0  0  0  0
    3.1110   -1.0560   -0.1120 C   0  0  1  0  0  0  0  0  0  0  0  0
    4.1850   -1.9000   -0.3060 O   0  0  0  0  0  0  0  0  0  0  0  0
    3.3470    0.3040   -0.7600 C   0  0  2  0  0  0  0  0  0  0  0  0
    3.8460    1.2690    0.2800 C   0  0  0  0  0  0  0  0  0  0  0  0
    2.7490    2.1220    0.8720 C   0  0  0  0  0  0  0  0  0  0  0  0
    1.4500    1.3790    1.0360 C   0  0  0  0  0  0  0  0  0  0  0  0
    0.9840    0.6640   -0.1930 C   0  0  1  0  0  0  0  0  0  0  0  0
    2.0390    0.8540   -1.2950 C   0  0  0  0  0  0  0  0  0  0  0  0
  1  2  1  0
  2  3  2  0
  2  4  1  0
  4  5  1  0
  5  6  2  0
  5  7  1  0
  7  8  1  0
  8  9  1  0
  9 10  2  0
  9 11  1  0
 11 12  1  1
 11 14  1  0
 11 21  1  0
 12 13  1  0
 14 15  1  0
 15 16  1  6
 15 17  1  0
 17 18  1  1
 17 22  1  0
 18 19  1  0
 19 20  1  0
 21 20  1  1
 21 22  1  0
M  END
