
     RDKit          3D

 22 22  0  0  0  0  0  0  0  0999 V2000
   -3.6840   -2.8610   -0.7310 N   0  0  0  0  0  0  0  0  0  0  0  0
   -2.3950   -2.5680   -0.1950 C   0  0  0  0  0  0  0  0  0  0  0  0
   -2.0950   -1.0220   -0.3760 C   0  0  1  0  0  0  0  0  0  0  0  0
   -3.2440   -0.4120    0.4230 C   0  0  0  0  0  0  0  0  0  0  0  0
   -4.4610   -0.8840   -0.1770 O   0  0  0  0  0  0  0  0  0  0  0  0
   -0.7510   -0.8760    0.1810 C   0  0  0  0  0  0  0  0  0  0  0  0
    0.0110    0.3740    0.2040 C   0  0  2  0  0  0  0  0  0  0  0  0
   -0.6300    1.5040    0.9570 C   0  0  0  0  0  0  0  0  0  0  0  0
    0.2670    2.6480    1.0650 N   0  0  0  0  0  0  0  0  0  0  0  0
    1.1900    2.7150    2.1180 C   0  0  0  0  0  0  0  0  0  0  0  0
    1.9920    3.6690    2.2740 O   0  0  0  0  0  0  0  0  0  0  0  0
    0.1630    3.6940    0.1460 C   0  0  0  0  0  0  0  0  0  0  0  0
   -0.7130    3.6630   -0.7500 O   0  0  0  0  0  0  0  0  0  0  0  0
    1.2160    5.1000    0.1660 Cl  0  0  0  0  0  0  0  0  0  0  0  0
    0.3930    0.8700   -1.1670 C   0  0  0  0  0  0  0  0  0  0  0  0
    1.1760   -0.1970   -1.9250 C   0  0  0  0  0  0  0  0  0  0  0  0
    2.2860   -0.7050   -1.0290 C   0  0  0  0  0  0  0  0  0  0  0  0
    2.3230    0.0250    0.2880 C   0  0  2  0  0  0  0  0  0  0  0  0
    3.4540   -0.5210    1.0650 C   0  0  0  0  0  0  0  0  0  0  0  0
    4.7300   -0.6920    0.4890 N   0  0  0  0  0  0  0  0  0  0  0  0
    3.2790   -0.8380    2.2570 O   0  0  0  0  0  0  0  0  0  0  0  0
    1.1690    0.1280    0.9760 O   0  0  0  0  0  0  0  0  0  0  0  0
  1  2  1  0
  3  2  1  1
  3  4  1  0
  3  6  1  0
  4  5  1  0
  7  6  1  6
  7  8  1  0
  7 15  1  0
  7 22  1  0
  8  9  1  0
  9 10  1  0
  9 12  1  0
 10 11  2  0
 12 13  2  0
 12 14  1  0
 15 16  1  0
 16 17  1  0
 17 18  1  0
 18 19  1  1
 18 22  1  0
 19 20  1  0
 19 21  2  0
M  END
