
     RDKit          3D

 21 23  0  0  0  0  0  0  0  0999 V2000
    6.5210    0.2030    0.1580 C   0  0  0  0  0  0  0  0  0  0  0  0
    5.5310   -0.7830   -0.3860 C   0  0  0  0  0  0  0  0  0  0  0  0
    4.4030   -0.0930   -1.1380 C   0  0  0  0  0  0  0  0  0  0  0  0
    3.7180    0.8170   -0.1850 C   0  0  0  0  0  0  0  0  0  0  0  0
    2.4290    0.6570    0.0890 C   0  0  0  0  0  0  0  0  0  0  0  0
    1.6630    1.5090    1.0200 C   0  0  0  0  0  0  0  0  0  0  0  0
    0.3700    1.0900    1.0380 O   0  0  0  0  0  0  0  0  0  0  0  0
    0.1410    0.2010    0.0270 C   0  0  2  0  0  0  0  0  0  0  0  0
    1.4770   -0.3420   -0.4260 C   0  0  0  0  0  0  0  0  0  0  0  0
   -0.5220    0.8910   -1.1270 C   0  0  0  0  0  0  0  0  0  0  0  0
   -1.9880    0.9850   -1.0760 C   0  0  2  0  0  0  0  0  0  0  0  0
   -2.4570    2.3820   -0.6650 C   0  0  0  0  0  0  0  0  0  0  0  0
   -2.7280   -0.0340   -0.2560 C   0  0  1  0  0  0  0  0  0  0  0  0
   -4.1020    0.5360    0.0270 C   0  0  0  0  0  0  0  0  0  0  0  0
   -4.8830   -0.3310    0.7760 O   0  0  0  0  0  0  0  0  0  0  0  0
   -2.9550   -1.3060   -1.0690 C   0  0  0  0  0  0  0  0  0  0  0  0
   -3.3220   -2.4440   -0.1890 C   0  0  0  0  0  0  0  0  0  0  0  0
   -3.2220   -2.4650    1.1170 C   0  0  0  0  0  0  0  0  0  0  0  0
   -2.7120   -1.3160    1.9010 C   0  0  0  0  0  0  0  0  0  0  0  0
   -2.0070   -0.3620    1.0020 C   0  0  1  0  0  0  0  0  0  0  0  0
   -0.6540   -0.9530    0.5610 C   0  0  0  0  0  0  0  0  0  0  0  0
  1  2  1  0
  2  3  1  0
  3  4  1  0
  4  5  2  3
  5  6  1  0
  5  9  1  0
  6  7  1  0
  7  8  1  0
  8  9  1  6
  8 10  1  0
  8 21  1  0
 10 11  1  0
 11 12  1  1
 11 13  1  0
 13 14  1  1
 13 16  1  0
 13 20  1  0
 14 15  1  0
 16 17  1  0
 17 18  2  0
 18 19  1  0
 20 19  1  6
 20 21  1  0
M  END
