
     RDKit          3D

 21 24  0  0  0  0  0  0  0  0999 V2000
   -1.5840    1.3190    1.3710 C   0  0  0  0  0  0  0  0  0  0  0  0
   -1.7160    0.5710    0.0680 C   0  0  1  0  0  0  0  0  0  0  0  0
   -3.1940    0.1430    0.0270 C   0  0  0  0  0  0  0  0  0  0  0  0
   -3.7880    1.5720   -0.0520 C   0  0  0  0  0  0  0  0  0  0  0  0
   -2.9090    2.0940   -1.1280 C   0  0  0  0  0  0  0  0  0  0  0  0
   -1.6980    1.5020   -1.0520 C   0  0  0  0  0  0  0  0  0  0  0  0
   -0.4960    1.6350   -1.8450 C   0  0  0  0  0  0  0  0  0  0  0  0
    0.4490    0.7620   -1.7390 C   0  0  0  0  0  0  0  0  0  0  0  0
    0.4100   -0.4050   -0.8430 C   0  0  1  0  0  0  0  0  0  0  0  0
    0.4650   -1.4730   -1.8450 O   0  0  0  0  0  0  0  0  0  0  0  0
    1.7480   -0.5170   -0.1970 C   0  0  0  0  0  0  0  0  0  0  0  0
    2.2450    0.6300    0.6090 C   0  0  1  0  0  0  0  0  0  0  0  0
    3.6470    0.2080    1.1480 C   0  0  0  0  0  0  0  0  0  0  0  0
    4.4630    0.4150   -0.1110 C   0  0  0  0  0  0  0  0  0  0  0  0
    3.6990    1.1750   -0.9940 O   0  0  0  0  0  0  0  0  0  0  0  0
    2.7640    1.8050   -0.2060 C   0  0  0  0  0  0  0  0  0  0  0  0
   -0.7960   -0.6180   -0.0290 C   0  0  2  0  0  0  0  0  0  0  0  0
   -1.5710   -1.8190   -0.6300 C   0  0  0  0  0  0  0  0  0  0  0  0
   -0.8560   -3.0420   -0.1090 C   0  0  0  0  0  0  0  0  0  0  0  0
   -0.5270   -2.6580    1.2940 C   0  0  0  0  0  0  0  0  0  0  0  0
   -0.6330   -1.1510    1.3580 C   0  0  0  0  0  0  0  0  0  0  0  0
  2  1  1  1
  2  3  1  0
  2  6  1  0
  2 17  1  0
  3  4  1  0
  4  5  1  0
  5  6  2  0
  6  7  1  0
  7  8  2  0
  8  9  1  0
  9 10  1  6
  9 11  1  0
  9 17  1  0
 12 11  1  6
 12 13  1  0
 12 16  1  0
 13 14  1  0
 14 15  1  0
 15 16  1  0
 17 18  1  6
 17 21  1  0
 18 19  1  0
 19 20  1  0
 20 21  1  0
M  END
