
     RDKit          3D

 21 23  0  0  0  0  0  0  0  0999 V2000
    0.2850   -1.2800   -2.9980 C   0  0  0  0  0  0  0  0  0  0  0  0
   -0.5420   -0.6940   -1.9040 C   0  0  0  0  0  0  0  0  0  0  0  0
   -1.8380   -0.5610   -2.0860 C   0  0  0  0  0  0  0  0  0  0  0  0
   -2.7050   -0.0010   -1.0620 C   0  0  1  0  0  0  0  0  0  0  0  0
   -3.8060   -0.8650   -0.8100 O   0  0  0  0  0  0  0  0  0  0  0  0
   -2.0940    0.5190    0.1390 C   0  0  1  0  0  0  0  0  0  0  0  0
   -0.6550    0.3210    0.2540 C   0  0  0  0  0  0  0  0  0  0  0  0
    0.0850   -0.2330   -0.6710 C   0  0  0  0  0  0  0  0  0  0  0  0
    1.5530   -0.4040   -0.5240 C   0  0  2  0  0  0  0  0  0  0  0  0
    1.9910   -1.8440   -0.4520 C   0  0  0  0  0  0  0  0  0  0  0  0
    3.5210   -1.8070   -0.3550 C   0  0  0  0  0  0  0  0  0  0  0  0
    3.9410   -1.1960    0.7990 O   0  0  0  0  0  0  0  0  0  0  0  0
    3.4670    0.0740    1.0020 C   0  0  2  0  0  0  0  0  0  0  0  0
    4.2260    1.0940    0.1880 C   0  0  0  0  0  0  0  0  0  0  0  0
    3.7370    0.4190    2.4740 C   0  0  0  0  0  0  0  0  0  0  0  0
    1.9710    0.2040    0.8140 C   0  0  0  0  0  0  0  0  0  0  0  0
   -2.4360    2.0180    0.2770 C   0  0  0  0  0  0  0  0  0  0  0  0
   -3.9230    2.0820    0.2330 C   0  0  0  0  0  0  0  0  0  0  0  0
   -4.6850    1.1750    0.8230 C   0  0  0  0  0  0  0  0  0  0  0  0
   -4.1360    0.0210    1.5750 C   0  0  0  0  0  0  0  0  0  0  0  0
   -2.6720   -0.0870    1.4310 C   0  0  0  0  0  0  0  0  0  0  0  0
  1  2  1  0
  2  3  2  0
  2  8  1  0
  3  4  1  0
  4  5  1  1
  4  6  1  0
  6  7  1  0
  6 17  1  1
  6 21  1  0
  7  8  2  0
  9  8  1  1
  9 10  1  0
  9 16  1  0
 10 11  1  0
 11 12  1  0
 12 13  1  0
 13 14  1  6
 13 15  1  0
 13 16  1  0
 17 18  1  0
 18 19  2  0
 19 20  1  0
 20 21  1  0
M  END
