
     RDKit          3D

 21 23  0  0  0  0  0  0  0  0999 V2000
    3.4500   -1.6860   -2.9240 C   0  0  0  0  0  0  0  0  0  0  0  0
    2.2810   -0.7400   -2.5740 C   0  0  0  0  0  0  0  0  0  0  0  0
    2.2630    0.1360   -1.7980 C   0  0  0  0  0  0  0  0  0  0  0  0
    2.7580    1.0100   -0.7920 C   0  0  0  0  0  0  0  0  0  0  0  0
    2.1910    1.6190    0.3440 C   0  0  2  0  0  0  0  0  0  0  0  0
    2.6250    0.9230    1.5360 O   0  0  0  0  0  0  0  0  0  0  0  0
    2.4910    1.9800    2.4260 C   0  0  0  0  0  0  0  0  0  0  0  0
    0.9920    2.2230    2.1720 C   0  0  0  0  0  0  0  0  0  0  0  0
    0.8120    1.9480    0.6900 C   0  0  2  0  0  0  0  0  0  0  0  0
   -0.2760    1.0230    0.3260 C   0  0  2  0  0  0  0  0  0  0  0  0
   -0.8850    0.2380    1.4590 C   0  0  0  0  0  0  0  0  0  0  0  0
   -2.0460   -0.6000    1.1100 C   0  0  1  0  0  0  0  0  0  0  0  0
   -2.1720   -1.6770    2.1860 C   0  0  0  0  0  0  0  0  0  0  0  0
   -3.3170    0.2480    1.3820 C   0  0  0  0  0  0  0  0  0  0  0  0
   -2.0770   -1.1860   -0.2410 C   0  0  1  0  0  0  0  0  0  0  0  0
   -3.3850   -1.7530   -0.7080 C   0  0  0  0  0  0  0  0  0  0  0  0
   -4.4430   -0.8570   -0.7540 O   0  0  0  0  0  0  0  0  0  0  0  0
   -1.3450   -0.4380   -1.3100 C   0  0  0  0  0  0  0  0  0  0  0  0
    0.0410    0.0580   -0.7880 C   0  0  2  0  0  0  0  0  0  0  0  0
    0.7640   -1.1740   -0.3880 C   0  0  0  0  0  0  0  0  0  0  0  0
    0.6400    0.7180   -1.9700 C   0  0  0  0  0  0  0  0  0  0  0  0
  1  2  1  0
  2  3  2  3
  3  4  1  0
  3 21  1  0
  5  4  1  6
  5  6  1  0
  5  9  1  0
  6  7  1  0
  7  8  1  0
  9  8  1  1
  9 10  1  0
 10 11  1  1
 10 19  1  0
 11 12  1  0
 12 13  1  1
 12 14  1  0
 12 15  1  0
 15 16  1  6
 15 18  1  0
 16 17  1  0
 18 19  1  0
 19 20  1  1
 19 21  1  0
M  END
