
     RDKit          3D

 39 44  0  0  0  0  0  0  0  0999 V2000
    9.1500    0.2880    1.3810 C   0  0  0  0  0  0  0  0  0  0  0  0
    8.2350    1.2810    0.9400 O   0  0  0  0  0  0  0  0  0  0  0  0
    6.9110    1.0420    0.7170 C   0  0  0  0  0  0  0  0  0  0  0  0
    6.3750   -0.2060    0.9080 C   0  0  0  0  0  0  0  0  0  0  0  0
    5.0260   -0.4530    0.6840 C   0  0  0  0  0  0  0  0  0  0  0  0
    4.2440    0.5950    0.2600 C   0  0  0  0  0  0  0  0  0  0  0  0
    2.8620    0.4730   -0.1240 C   0  0  0  0  0  0  0  0  0  0  0  0
    2.0780   -0.6530    0.0590 N   0  0  0  0  0  0  0  0  0  0  0  0
    2.4780   -1.9590   -0.1960 C   0  0  0  0  0  0  0  0  0  0  0  0
    1.4350   -2.9630   -0.6360 C   0  0  0  0  0  0  0  0  0  0  0  0
    0.0530   -2.5630   -0.3110 C   0  0  0  0  0  0  0  0  0  0  0  0
   -0.2440   -1.2180   -0.4840 C   0  0  0  0  0  0  0  0  0  0  0  0
   -1.5860   -1.0910   -0.2450 C   0  0  0  0  0  0  0  0  0  0  0  0
   -2.2770    0.2360   -0.3420 C   0  0  0  0  0  0  0  0  0  0  0  0
   -1.7880    1.2360    0.1570 O   0  0  0  0  0  0  0  0  0  0  0  0
   -3.4970    0.2290   -1.0570 N   0  0  0  0  0  0  0  0  0  0  0  0
   -4.4950    1.1790   -1.4070 C   0  0  0  0  0  0  0  0  0  0  0  0
   -5.0910    1.8670   -0.2770 C   0  0  0  0  0  0  0  0  0  0  0  0
   -4.3790    2.7990    0.4410 C   0  0  0  0  0  0  0  0  0  0  0  0
   -5.0740    3.5550    1.3850 C   0  0  0  0  0  0  0  0  0  0  0  0
   -6.4090    3.3990    1.6170 C   0  0  0  0  0  0  0  0  0  0  0  0
   -7.0990    2.4440    0.8690 C   0  0  0  0  0  0  0  0  0  0  0  0
   -8.4380    2.2560    1.1490 C   0  0  0  0  0  0  0  0  0  0  0  0
   -9.1330    1.2880    0.4740 C   0  0  0  0  0  0  0  0  0  0  0  0
   -8.4990    0.5360   -0.4540 C   0  0  0  0  0  0  0  0  0  0  0  0
   -7.1550    0.7200   -0.7430 C   0  0  0  0  0  0  0  0  0  0  0  0
   -6.4670    1.6780   -0.0740 C   0  0  0  0  0  0  0  0  0  0  0  0
   -2.0690   -2.2760    0.0670 N   0  0  0  0  0  0  0  0  0  0  0  0
   -1.0840   -3.1930    0.0340 N   0  0  0  0  0  0  0  0  0  0  0  0
   -1.1410   -4.6100    0.3430 C   0  0  0  0  0  0  0  0  0  0  0  0
   -1.4220   -5.4730   -0.8400 C   0  0  0  0  0  0  0  0  0  0  0  0
   -1.4340   -6.8570   -0.4050 N   0  0  0  0  0  0  0  0  0  0  0  0
    0.8640   -0.3420   -0.8340 C   0  0  0  0  0  0  0  0  0  0  0  0
    4.8130    1.8650    0.0710 C   0  0  0  0  0  0  0  0  0  0  0  0
    4.0340    2.9730   -0.3210 C   0  0  0  0  0  0  0  0  0  0  0  0
    4.6030    4.2260   -0.4580 C   0  0  0  0  0  0  0  0  0  0  0  0
    5.9170    4.4660   -0.2370 C   0  0  0  0  0  0  0  0  0  0  0  0
    6.6920    3.3800    0.1470 C   0  0  0  0  0  0  0  0  0  0  0  0
    6.1340    2.1260    0.2880 C   0  0  0  0  0  0  0  0  0  0  0  0
  1  2  1  0
  2  3  1  0
  3  4  2  0
  3 39  1  0
  4  5  1  0
  5  6  2  0
  6  7  1  0
  6 34  1  0
  7  8  1  0
  8  9  1  0
  8 33  1  0
  9 10  1  0
 10 11  1  0
 11 12  2  0
 11 29  1  0
 12 13  1  0
 12 33  1  0
 13 14  1  0
 13 28  2  0
 14 15  2  0
 14 16  1  0
 16 17  1  0
 17 18  1  0
 18 19  2  0
 18 27  1  0
 19 20  1  0
 20 21  2  0
 21 22  1  0
 22 23  2  0
 22 27  1  0
 23 24  1  0
 24 25  2  0
 25 26  1  0
 26 27  2  0
 28 29  1  0
 29 30  1  0
 30 31  1  0
 31 32  1  0
 34 35  2  0
 34 39  1  0
 35 36  1  0
 36 37  2  0
 37 38  1  0
 38 39  2  0
M  END
