
     RDKit          3D

 39 41  0  0  0  0  0  0  0  0999 V2000
   -6.6020   -0.9840   -2.2760 C   0  0  0  0  0  0  0  0  0  0  0  0
   -7.6570   -0.8430   -1.5380 C   0  0  0  0  0  0  0  0  0  0  0  0
   -7.9000    0.2620   -0.5820 C   0  0  0  0  0  0  0  0  0  0  0  0
   -9.0490    0.2360    0.0670 C   0  0  0  0  0  0  0  0  0  0  0  0
  -10.0380   -0.8900   -0.1830 C   0  0  0  0  0  0  0  0  0  0  0  0
   -9.4600    1.2710    1.0220 C   0  0  0  0  0  0  0  0  0  0  0  0
   -8.4500    2.3060    1.3520 C   0  0  0  0  0  0  0  0  0  0  0  0
   -7.4150    2.5370    0.3270 C   0  0  0  0  0  0  0  0  0  0  0  0
   -6.8970    1.2900   -0.3880 C   0  0  1  0  0  0  0  0  0  0  0  0
   -5.6480    0.8590    0.2610 N   0  0  0  0  0  0  0  0  0  0  0  0
   -4.3980    1.2950   -0.3640 C   0  0  0  0  0  0  0  0  0  0  0  0
   -5.6320    0.1510    1.4630 C   0  0  0  0  0  0  0  0  0  0  0  0
   -6.7900   -0.1010    1.9870 O   0  0  0  0  0  0  0  0  0  0  0  0
   -4.5190   -0.3580    2.2480 C   0  0  0  0  0  0  0  0  0  0  0  0
   -3.2550   -0.3960    1.7190 O   0  0  0  0  0  0  0  0  0  0  0  0
   -2.7820   -1.1250    0.6440 C   0  0  0  0  0  0  0  0  0  0  0  0
   -3.5860   -1.9930   -0.1060 C   0  0  0  0  0  0  0  0  0  0  0  0
   -3.0320   -2.6840   -1.1640 C   0  0  0  0  0  0  0  0  0  0  0  0
   -1.7030   -2.5350   -1.4990 C   0  0  0  0  0  0  0  0  0  0  0  0
   -0.9270   -1.6630   -0.7340 C   0  0  0  0  0  0  0  0  0  0  0  0
   -1.4470   -0.9590    0.3280 C   0  0  0  0  0  0  0  0  0  0  0  0
   -0.6640   -0.0990    1.0760 O   0  0  0  0  0  0  0  0  0  0  0  0
    0.6700    0.0360    0.7400 C   0  0  0  0  0  0  0  0  0  0  0  0
    1.6520   -0.7530    1.2920 C   0  0  0  0  0  0  0  0  0  0  0  0
    3.0020   -0.6070    0.9450 C   0  0  0  0  0  0  0  0  0  0  0  0
    3.3700    0.3290    0.0460 C   0  0  0  0  0  0  0  0  0  0  0  0
    4.6970    0.5640   -0.3550 N   0  0  0  0  0  0  0  0  0  0  0  0
    5.8360   -0.0320    0.2390 C   0  0  0  0  0  0  0  0  0  0  0  0
    5.7730   -0.8310    1.1870 O   0  0  0  0  0  0  0  0  0  0  0  0
    7.1670    0.2610   -0.2310 N   0  0  0  0  0  0  0  0  0  0  0  0
    8.3510   -0.3440    0.3720 C   0  0  2  0  0  0  0  0  0  0  0  0
    9.1290    0.6460    1.1670 C   0  0  0  0  0  0  0  0  0  0  0  0
    9.6400    1.8380    0.4190 C   0  0  0  0  0  0  0  0  0  0  0  0
   10.5510    1.5140   -0.6250 N   0  0  0  0  0  0  0  0  0  0  0  0
    9.0950   -1.2620   -0.5210 C   0  0  2  0  0  0  0  0  0  0  0  0
   10.3120   -1.7840    0.2320 C   0  0  0  0  0  0  0  0  0  0  0  0
    9.3730   -0.8090   -1.9060 C   0  0  0  0  0  0  0  0  0  0  0  0
    2.3970    1.1490   -0.5350 C   0  0  0  0  0  0  0  0  0  0  0  0
    1.0840    0.9800   -0.1730 C   0  0  0  0  0  0  0  0  0  0  0  0
  1  2  2  0
  2  3  1  0
  3  4  2  0
  3  9  1  0
  4  5  1  0
  4  6  1  0
  6  7  1  0
  7  8  1  0
  8  9  1  0
  9 10  1  1
 10 11  1  0
 10 12  1  0
 12 13  2  0
 12 14  1  0
 14 15  1  0
 15 16  1  0
 16 17  2  0
 16 21  1  0
 17 18  1  0
 18 19  2  0
 19 20  1  0
 20 21  2  0
 21 22  1  0
 22 23  1  0
 23 24  2  0
 23 39  1  0
 24 25  1  0
 25 26  2  0
 26 27  1  0
 26 38  1  0
 27 28  1  0
 28 29  2  0
 28 30  1  0
 30 31  1  0
 31 32  1  6
 31 35  1  0
 32 33  1  0
 33 34  1  0
 35 36  1  1
 35 37  1  0
 38 39  2  0
M  END
