
     RDKit          3D

 39 41  0  0  0  0  0  0  0  0999 V2000
   -2.0210    7.5270    4.2530 C   0  0  0  0  0  0  0  0  0  0  0  0
   -2.5870    7.7130    3.0770 C   0  0  0  0  0  0  0  0  0  0  0  0
   -2.8380    6.7150    2.0410 C   0  0  0  0  0  0  0  0  0  0  0  0
   -2.4010    5.3830    2.3850 N   0  0  0  0  0  0  0  0  0  0  0  0
   -2.5630    4.2760    1.5020 C   0  0  0  0  0  0  0  0  0  0  0  0
   -3.1170    4.5050    0.3890 O   0  0  0  0  0  0  0  0  0  0  0  0
   -2.1450    2.9730    1.8050 N   0  0  0  0  0  0  0  0  0  0  0  0
   -2.3220    1.8520    0.8800 C   0  0  2  0  0  0  0  0  0  0  0  0
   -2.9990    0.7460    1.6460 C   0  0  0  0  0  0  0  0  0  0  0  0
   -3.2560   -0.4810    0.7850 C   0  0  0  0  0  0  0  0  0  0  0  0
   -4.1900   -0.1220   -0.3270 C   0  0  0  0  0  0  0  0  0  0  0  0
   -4.5760   -1.2240   -1.2430 C   0  0  1  0  0  0  0  0  0  0  0  0
   -3.5090   -1.8180   -1.8700 O   0  0  0  0  0  0  0  0  0  0  0  0
   -5.4320   -2.2150   -0.5530 C   0  0  0  0  0  0  0  0  0  0  0  0
   -5.9670   -2.1780    0.6920 C   0  0  0  0  0  0  0  0  0  0  0  0
   -6.6870   -3.2800    0.9040 N   0  0  0  0  0  0  0  0  0  0  0  0
   -6.6300   -4.0370   -0.1860 C   0  0  0  0  0  0  0  0  0  0  0  0
   -5.8440   -3.4280   -1.1750 C   0  0  0  0  0  0  0  0  0  0  0  0
   -5.5780   -3.8880   -2.3630 O   0  0  0  0  0  0  0  0  0  0  0  0
   -5.3430   -4.3810   -3.5220 C   0  0  0  0  0  0  0  0  0  0  0  0
   -0.9500    1.3270    0.5450 C   0  0  0  0  0  0  0  0  0  0  0  0
   -0.5770    1.0820   -0.7550 C   0  0  0  0  0  0  0  0  0  0  0  0
    0.6990    0.5760   -1.0530 C   0  0  0  0  0  0  0  0  0  0  0  0
    1.6080    0.3110   -0.0630 C   0  0  0  0  0  0  0  0  0  0  0  0
    2.9730   -0.2540   -0.3410 C   0  0  0  0  0  0  0  0  0  0  0  0
    2.7960   -1.7220   -0.3940 C   0  0  0  0  0  0  0  0  0  0  0  0
    1.6300   -2.2350   -0.2610 O   0  0  0  0  0  0  0  0  0  0  0  0
    3.9120   -2.5560   -0.5890 N   0  0  0  0  0  0  0  0  0  0  0  0
    3.7590   -3.9920   -0.6940 C   0  0  0  0  0  0  0  0  0  0  0  0
    5.2130   -2.0100   -0.6850 C   0  0  0  0  0  0  0  0  0  0  0  0
    5.7320   -1.5540   -1.8940 C   0  0  0  0  0  0  0  0  0  0  0  0
    7.0120   -1.0420   -1.9560 C   0  0  0  0  0  0  0  0  0  0  0  0
    7.7950   -0.9740   -0.8230 C   0  0  0  0  0  0  0  0  0  0  0  0
    9.1810   -0.4320   -0.8590 C   0  0  0  0  0  0  0  0  0  0  0  0
    7.3220   -1.4170    0.4130 C   0  0  0  0  0  0  0  0  0  0  0  0
    8.1620   -1.3430    1.6430 C   0  0  0  0  0  0  0  0  0  0  0  0
    6.0460   -1.9160    0.4190 C   0  0  0  0  0  0  0  0  0  0  0  0
    1.2180    0.5650    1.2520 C   0  0  0  0  0  0  0  0  0  0  0  0
   -0.0340    1.0610    1.5270 C   0  0  0  0  0  0  0  0  0  0  0  0
  1  2  2  0
  2  3  1  0
  3  4  1  0
  4  5  1  0
  5  6  2  0
  5  7  1  0
  7  8  1  0
  8  9  1  1
  8 21  1  0
  9 10  1  0
 10 11  1  0
 11 12  1  0
 12 13  1  1
 12 14  1  0
 14 15  2  0
 14 18  1  0
 15 16  1  0
 16 17  1  0
 17 18  2  0
 18 19  1  0
 19 20  1  0
 21 22  2  0
 21 39  1  0
 22 23  1  0
 23 24  2  0
 24 25  1  0
 24 38  1  0
 25 26  1  0
 26 27  2  0
 26 28  1  0
 28 29  1  0
 28 30  1  0
 30 31  2  0
 30 37  1  0
 31 32  1  0
 32 33  2  0
 33 34  1  0
 33 35  1  0
 35 36  1  0
 35 37  2  0
 38 39  2  0
M  END
