
     RDKit          3D

 39 41  0  0  0  0  0  0  0  0999 V2000
   -8.7010    5.3120   -1.9230 C   0  0  0  0  0  0  0  0  0  0  0  0
   -7.4040    5.3110   -2.1000 C   0  0  0  0  0  0  0  0  0  0  0  0
   -6.5750    4.1670   -1.6280 C   0  0  0  0  0  0  0  0  0  0  0  0
   -5.5920    4.5950   -0.6670 N   0  0  0  0  0  0  0  0  0  0  0  0
   -4.7100    3.6320   -0.1050 C   0  0  0  0  0  0  0  0  0  0  0  0
   -3.7490    3.9680    0.8180 C   0  0  0  0  0  0  0  0  0  0  0  0
   -2.9090    2.9820    1.3390 C   0  0  0  0  0  0  0  0  0  0  0  0
   -3.0110    1.6760    0.9560 C   0  0  0  0  0  0  0  0  0  0  0  0
   -2.1200    0.6680    1.4780 C   0  0  0  0  0  0  0  0  0  0  0  0
   -0.8030    0.7120    1.4940 C   0  0  0  0  0  0  0  0  0  0  0  0
    0.0910    1.7700    0.9910 C   0  0  0  0  0  0  0  0  0  0  0  0
    1.1560    1.8170    2.1010 C   0  0  0  0  0  0  0  0  0  0  0  0
    1.2180    0.3850    2.5890 C   0  0  2  0  0  0  0  0  0  0  0  0
    1.0690    0.2990    4.0840 C   0  0  0  0  0  0  0  0  0  0  0  0
    2.4430   -0.3210    2.1750 C   0  0  0  0  0  0  0  0  0  0  0  0
    2.3590   -1.3060    1.4220 O   0  0  0  0  0  0  0  0  0  0  0  0
    3.6740    0.1720    2.6690 N   0  0  0  0  0  0  0  0  0  0  0  0
    4.9050   -0.4840    2.2930 C   0  0  0  0  0  0  0  0  0  0  0  0
    5.1640   -0.4940    0.8210 C   0  0  0  0  0  0  0  0  0  0  0  0
    6.4390   -1.1900    0.5600 C   0  0  0  0  0  0  0  0  0  0  0  0
    7.1200   -1.6750    1.5060 O   0  0  0  0  0  0  0  0  0  0  0  0
    6.9860   -1.3630   -0.7510 N   0  0  0  0  0  0  0  0  0  0  0  0
    8.2170   -2.0360   -1.0100 C   0  0  1  0  0  0  0  0  0  0  0  0
    8.0730   -3.2760   -1.8590 C   0  0  0  0  0  0  0  0  0  0  0  0
    9.2970   -1.1220   -1.5400 C   0  0  0  0  0  0  0  0  0  0  0  0
    8.9260   -0.4530   -2.8360 C   0  0  0  0  0  0  0  0  0  0  0  0
    0.0760   -0.2550    2.0030 O   0  0  0  0  0  0  0  0  0  0  0  0
   -3.9830    1.3090    0.0170 C   0  0  0  0  0  0  0  0  0  0  0  0
   -4.0420   -0.0530   -0.3470 N   0  0  0  0  0  0  0  0  0  0  0  0
   -4.9330   -0.6630   -1.2560 C   0  0  0  0  0  0  0  0  0  0  0  0
   -5.7930    0.0690   -1.8290 O   0  0  0  0  0  0  0  0  0  0  0  0
   -4.9110   -2.1090   -1.5690 C   0  0  0  0  0  0  0  0  0  0  0  0
   -5.7740   -2.5970   -2.5180 C   0  0  0  0  0  0  0  0  0  0  0  0
   -5.7780   -3.9280   -2.8290 C   0  0  0  0  0  0  0  0  0  0  0  0
   -4.9050   -4.7670   -2.1780 C   0  0  0  0  0  0  0  0  0  0  0  0
   -4.0220   -4.3280   -1.2210 C   0  0  0  0  0  0  0  0  0  0  0  0
   -3.0770   -5.2340   -0.5170 C   0  0  0  0  0  0  0  0  0  0  0  0
   -4.0520   -2.9510   -0.9330 C   0  0  0  0  0  0  0  0  0  0  0  0
   -4.8060    2.2930   -0.4890 C   0  0  0  0  0  0  0  0  0  0  0  0
  1  2  2  0
  2  3  1  0
  3  4  1  0
  4  5  1  0
  5  6  2  0
  5 39  1  0
  6  7  1  0
  7  8  2  0
  8  9  1  0
  8 28  1  0
  9 10  2  3
 10 11  1  0
 10 27  1  0
 11 12  1  0
 12 13  1  0
 13 14  1  1
 13 15  1  0
 13 27  1  0
 15 16  2  0
 15 17  1  0
 17 18  1  0
 18 19  1  0
 19 20  1  0
 20 21  2  0
 20 22  1  0
 22 23  1  0
 23 24  1  6
 23 25  1  0
 25 26  1  0
 28 29  1  0
 28 39  2  0
 29 30  1  0
 30 31  2  0
 30 32  1  0
 32 33  2  0
 32 38  1  0
 33 34  1  0
 34 35  2  0
 35 36  1  0
 36 37  1  0
 36 38  2  0
M  END
