
     RDKit          3D

 13 13  0  0  0  0  0  0  0  0999 V2000
   -2.6670    1.4480   -0.3890 C   0  0  0  0  0  0  0  0  0  0  0  0
   -2.6180    0.4890    0.7730 C   0  0  0  0  0  0  0  0  0  0  0  0
   -1.6410   -0.6000    0.5200 C   0  0  0  0  0  0  0  0  0  0  0  0
   -2.0780   -1.8440    0.5050 C   0  0  0  0  0  0  0  0  0  0  0  0
   -1.1420   -2.8450    0.2650 O   0  0  0  0  0  0  0  0  0  0  0  0
   -0.2420   -0.2920    0.2960 C   0  0  0  0  0  0  0  0  0  0  0  0
    0.3240    0.8960    0.2850 C   0  0  0  0  0  0  0  0  0  0  0  0
    1.7580    0.7810    0.0230 C   0  0  0  0  0  0  0  0  0  0  0  0
    2.7230    1.9130   -0.0620 C   0  0  0  0  0  0  0  0  0  0  0  0
    2.2830    3.0450   -1.3570 Cl  0  0  0  0  0  0  0  0  0  0  0  0
    2.0680   -0.4960   -0.1270 C   0  0  0  0  0  0  0  0  0  0  0  0
    3.3350   -1.0600   -0.3920 N   0  0  0  0  0  0  0  0  0  0  0  0
    0.8300   -1.2820    0.0320 C   0  0  0  0  0  0  0  0  0  0  0  0
  1  2  1  0
  2  3  1  0
  3  4  2  3
  3  6  1  0
  4  5  1  0
  6  7  2  0
  6 13  1  0
  7  8  1  0
  8  9  1  0
  8 11  2  0
  9 10  1  0
 11 12  1  0
 11 13  1  0
M  END
