
     RDKit          3D

 13 13  0  0  0  0  0  0  0  0999 V2000
    0.5890    0.3350    3.0690 C   0  0  0  0  0  0  0  0  0  0  0  0
    1.1620    0.3030    1.9630 C   0  0  0  0  0  0  0  0  0  0  0  0
    0.9950    0.2130    0.5310 C   0  0  0  0  0  0  0  0  0  0  0  0
    2.2190    0.1930   -0.0790 C   0  0  0  0  0  0  0  0  0  0  0  0
    2.7230    0.1290   -1.4000 C   0  0  0  0  0  0  0  0  0  0  0  0
    3.7360   -1.3510   -1.6430 Cl  0  0  0  0  0  0  0  0  0  0  0  0
   -0.1620   -0.0440   -0.2980 C   0  0  0  0  0  0  0  0  0  0  0  0
   -1.4450    0.0420   -0.1010 C   0  0  0  0  0  0  0  0  0  0  0  0
   -2.3910    0.4080    0.9180 C   0  0  0  0  0  0  0  0  0  0  0  0
   -2.1740    0.8390    2.1300 O   0  0  0  0  0  0  0  0  0  0  0  0
   -2.0700   -0.3700   -1.4930 C   0  0  0  0  0  0  0  0  0  0  0  0
   -1.2250   -1.5240   -1.6900 N   0  0  0  0  0  0  0  0  0  0  0  0
    0.0440   -0.7220   -1.6800 C   0  0  0  0  0  0  0  0  0  0  0  0
  1  2  2  0
  2  3  1  0
  3  4  2  3
  3  7  1  0
  4  5  1  0
  5  6  1  0
  7  8  2  0
  7 13  1  0
  8  9  1  0
  8 11  1  0
  9 10  1  0
 11 12  1  0
 12 13  1  0
M  END
