
     RDKit          3D

 24 25  0  0  0  0  0  0  0  0999 V2000
   -3.0650    2.0070   -2.2840 C   0  0  0  0  0  0  0  0  0  0  0  0
   -3.9300    1.0870   -1.4530 C   0  0  1  0  0  0  0  0  0  0  0  0
   -5.3640    1.5260   -1.6070 C   0  0  0  0  0  0  0  0  0  0  0  0
   -3.7500   -0.3210   -1.9760 C   0  0  0  0  0  0  0  0  0  0  0  0
   -3.5250    1.2050   -0.0710 N   0  0  0  0  0  0  0  0  0  0  0  0
   -2.2380    0.8890    0.4250 C   0  0  0  0  0  0  0  0  0  0  0  0
   -1.2360    0.4170   -0.3230 N   0  0  0  0  0  0  0  0  0  0  0  0
    0.0010    0.1000    0.1330 C   0  0  0  0  0  0  0  0  0  0  0  0
    0.9760   -0.4300   -0.7560 N   0  0  0  0  0  0  0  0  0  0  0  0
    2.3070   -0.6680   -0.4270 C   0  0  0  0  0  0  0  0  0  0  0  0
    2.8910   -1.8500   -0.9060 C   0  0  0  0  0  0  0  0  0  0  0  0
    4.1990   -2.1460   -0.6670 C   0  0  0  0  0  0  0  0  0  0  0  0
    4.9900   -1.2830    0.0590 C   0  0  0  0  0  0  0  0  0  0  0  0
    6.3890   -1.5810    0.3250 C   0  0  0  0  0  0  0  0  0  0  0  0
    7.2140   -0.7530    1.1260 N   0  0  0  0  0  0  0  0  0  0  0  0
    6.8910   -2.6360   -0.1900 O   0  0  0  0  0  0  0  0  0  0  0  0
    4.4460   -0.1120    0.5440 C   0  0  0  0  0  0  0  0  0  0  0  0
    3.1160    0.1770    0.2940 C   0  0  0  0  0  0  0  0  0  0  0  0
    0.2580    0.2720    1.4730 C   0  0  0  0  0  0  0  0  0  0  0  0
   -0.7680    0.7650    2.2900 C   0  0  0  0  0  0  0  0  0  0  0  0
   -0.4990    0.9410    3.6760 N   0  0  0  0  0  0  0  0  0  0  0  0
   -2.0010    1.0690    1.7690 C   0  0  0  0  0  0  0  0  0  0  0  0
   -3.0380    1.5970    2.6590 C   0  0  0  0  0  0  0  0  0  0  0  0
   -3.8580    2.0130    3.3420 N   0  0  0  0  0  0  0  0  0  0  0  0
  2  1  1  6
  2  3  1  0
  2  4  1  0
  2  5  1  0
  5  6  1  0
  6  7  2  0
  6 22  1  0
  7  8  1  0
  8  9  1  0
  8 19  2  0
  9 10  1  0
 10 11  2  0
 10 18  1  0
 11 12  1  0
 12 13  2  0
 13 14  1  0
 13 17  1  0
 14 15  1  0
 14 16  2  0
 17 18  2  0
 19 20  1  0
 20 21  1  0
 20 22  2  0
 22 23  1  0
 23 24  3  0
M  END
