
     RDKit          3D

 13 13  0  0  0  0  0  0  0  0999 V2000
   -1.6400   -2.0130   -0.1250 C   0  0  0  0  0  0  0  0  0  0  0  0
   -1.1790   -0.5790   -0.2000 C   0  0  1  0  0  0  0  0  0  0  0  0
   -2.1900    0.3850    0.3780 C   0  0  0  0  0  0  0  0  0  0  0  0
   -3.4830    0.2680   -0.3900 C   0  0  0  0  0  0  0  0  0  0  0  0
   -4.5040    1.1490    0.0890 N   0  0  0  0  0  0  0  0  0  0  0  0
    0.0480   -0.4820    0.4380 O   0  0  0  0  0  0  0  0  0  0  0  0
    1.0160   -0.0860   -0.4640 C   0  0  1  0  0  0  0  0  0  0  0  0
    1.6440    1.2420   -0.0870 C   0  0  0  0  0  0  0  0  0  0  0  0
    2.8990    1.0240    0.7360 C   0  0  0  0  0  0  0  0  0  0  0  0
    3.9510    0.3620   -0.1020 C   0  0  2  0  0  0  0  0  0  0  0  0
    5.0460    1.5500   -0.8560 Cl  0  0  0  0  0  0  0  0  0  0  0  0
    3.3100   -0.4740   -1.1900 C   0  0  0  0  0  0  0  0  0  0  0  0
    2.0930   -1.1570   -0.6370 C   0  0  0  0  0  0  0  0  0  0  0  0
  2  1  1  1
  2  3  1  0
  2  6  1  0
  3  4  1  0
  4  5  1  0
  7  6  1  1
  7  8  1  0
  7 13  1  0
  8  9  1  0
  9 10  1  0
 10 11  1  6
 10 12  1  0
 12 13  1  0
M  CHG  1   5   1
M  END
