
     RDKit          3D

 19 20  0  0  0  0  0  0  0  0999 V2000
   -2.1090    2.3980   -0.3730 C   0  0  0  0  0  0  0  0  0  0  0  0
   -3.2170    1.8050   -0.0720 C   0  0  0  0  0  0  0  0  0  0  0  0
   -4.7160    2.7590   -0.1340 Cl  0  0  0  0  0  0  0  0  0  0  0  0
   -3.2860    0.4040    0.3120 C   0  0  0  0  0  0  0  0  0  0  0  0
   -4.5040   -0.0740    0.5960 C   0  0  0  0  0  0  0  0  0  0  0  0
   -2.1570   -0.5070    0.4100 C   0  0  0  0  0  0  0  0  0  0  0  0
   -2.4580   -1.7880    0.7920 N   0  0  0  0  0  0  0  0  0  0  0  0
   -1.5040   -2.6970    0.9120 C   0  0  0  0  0  0  0  0  0  0  0  0
   -1.8480   -4.0380    1.3150 N   0  0  0  0  0  0  0  0  0  0  0  0
   -0.2300   -2.3570    0.6570 N   0  0  0  0  0  0  0  0  0  0  0  0
    0.0970   -1.1090    0.2810 C   0  0  0  0  0  0  0  0  0  0  0  0
    1.5000   -0.7500    0.0050 C   0  0  0  0  0  0  0  0  0  0  0  0
    1.8640    0.4560   -0.3650 C   0  0  0  0  0  0  0  0  0  0  0  0
    3.2710    0.7220   -0.6170 C   0  0  0  0  0  0  0  0  0  0  0  0
    3.7610    1.9490   -1.0090 C   0  0  0  0  0  0  0  0  0  0  0  0
    5.1380    1.7630   -1.1360 C   0  0  0  0  0  0  0  0  0  0  0  0
    5.3960    0.4490   -0.8180 C   0  0  0  0  0  0  0  0  0  0  0  0
    4.2680   -0.1130   -0.5220 O   0  0  0  0  0  0  0  0  0  0  0  0
   -0.8790   -0.1970    0.1630 N   0  0  0  0  0  0  0  0  0  0  0  0
  1  2  2  0
  2  3  1  0
  2  4  1  0
  4  5  2  0
  4  6  1  0
  6  7  2  0
  6 19  1  0
  7  8  1  0
  8  9  1  0
  8 10  2  0
 10 11  1  0
 11 12  1  0
 11 19  2  0
 12 13  2  3
 13 14  1  0
 14 15  2  0
 14 18  1  0
 15 16  1  0
 16 17  2  0
 17 18  1  0
M  END
