
     RDKit          3D

 29 31  0  0  0  0  0  0  0  0999 V2000
    0.8970   -0.6170    3.1200 C   0  0  0  0  0  0  0  0  0  0  0  0
    1.2440    0.2280    2.0400 O   0  0  0  0  0  0  0  0  0  0  0  0
    0.2590    0.4780    1.0670 C   0  0  0  0  0  0  0  0  0  0  0  0
   -0.9970   -0.0770    1.1590 C   0  0  0  0  0  0  0  0  0  0  0  0
   -1.9600    0.1570    0.2280 C   0  0  0  0  0  0  0  0  0  0  0  0
   -3.3000   -0.4370    0.3230 C   0  0  0  0  0  0  0  0  0  0  0  0
   -3.5330   -1.6520    0.8760 C   0  0  0  0  0  0  0  0  0  0  0  0
   -4.7950   -2.1770    0.9490 C   0  0  0  0  0  0  0  0  0  0  0  0
   -5.8850   -1.4430    0.4390 C   0  0  0  0  0  0  0  0  0  0  0  0
   -7.1310   -2.0130    0.5360 O   0  0  0  0  0  0  0  0  0  0  0  0
   -5.6940   -0.1960   -0.1350 C   0  0  0  0  0  0  0  0  0  0  0  0
   -6.7620    0.6140   -0.6780 C   0  0  0  0  0  0  0  0  0  0  0  0
   -6.4570    1.8750   -1.2430 N   0  0  0  0  0  0  0  0  0  0  0  0
   -7.9390    0.2500   -0.6700 O   0  0  0  0  0  0  0  0  0  0  0  0
   -4.3670    0.2640   -0.1680 C   0  0  0  0  0  0  0  0  0  0  0  0
   -1.6650    0.9750   -0.8410 C   0  0  0  0  0  0  0  0  0  0  0  0
   -0.4190    1.5440   -0.9600 C   0  0  0  0  0  0  0  0  0  0  0  0
    0.5540    1.3040   -0.0140 C   0  0  0  0  0  0  0  0  0  0  0  0
    1.8230    1.8640   -0.1040 O   0  0  0  0  0  0  0  0  0  0  0  0
    2.9980    1.1710   -0.2140 C   0  0  0  0  0  0  0  0  0  0  0  0
    2.9860   -0.1940   -0.3430 C   0  0  0  0  0  0  0  0  0  0  0  0
    4.1950   -0.8320   -0.4470 C   0  0  0  0  0  0  0  0  0  0  0  0
    5.4300   -0.1610   -0.4280 C   0  0  0  0  0  0  0  0  0  0  0  0
    6.6230   -0.9080   -0.5550 N   0  0  0  0  0  0  0  0  0  0  0  0
    7.9250   -0.4710   -0.3110 C   0  0  0  0  0  0  0  0  0  0  0  0
    8.1350    0.7000    0.0710 O   0  0  0  0  0  0  0  0  0  0  0  0
    9.0200   -1.3510   -0.4940 O   0  0  0  0  0  0  0  0  0  0  0  0
    5.4150    1.2060   -0.2990 C   0  0  0  0  0  0  0  0  0  0  0  0
    4.1890    1.8390   -0.1950 C   0  0  0  0  0  0  0  0  0  0  0  0
  1  2  1  0
  2  3  1  0
  3  4  2  0
  3 18  1  0
  4  5  1  0
  5  6  1  0
  5 16  2  0
  6  7  2  0
  6 15  1  0
  7  8  1  0
  8  9  2  0
  9 10  1  0
  9 11  1  0
 11 12  1  0
 11 15  2  0
 12 13  1  0
 12 14  2  0
 16 17  1  0
 17 18  2  0
 18 19  1  0
 19 20  1  0
 20 21  2  0
 20 29  1  0
 21 22  1  0
 22 23  2  0
 23 24  1  0
 23 28  1  0
 24 25  1  0
 25 26  2  0
 25 27  1  0
 28 29  2  0
M  END
