
     RDKit          3D

 28 31  0  0  0  0  0  0  0  0999 V2000
    8.5410    1.0820   -2.5250 C   0  0  0  0  0  0  0  0  0  0  0  0
    7.8830    0.0040   -1.9030 O   0  0  0  0  0  0  0  0  0  0  0  0
    6.5340    0.0880   -1.6090 C   0  0  0  0  0  0  0  0  0  0  0  0
    5.8370   -0.9260   -1.0050 C   0  0  0  0  0  0  0  0  0  0  0  0
    4.4940   -0.8180   -0.7220 C   0  0  0  0  0  0  0  0  0  0  0  0
    3.7550    0.3260   -1.0310 C   0  0  0  0  0  0  0  0  0  0  0  0
    2.4730    0.5070   -0.7920 O   0  0  0  0  0  0  0  0  0  0  0  0
    1.3020    0.1880   -0.3530 C   0  0  0  0  0  0  0  0  0  0  0  0
    1.0510   -0.0470    1.1440 C   0  0  2  0  0  0  0  0  0  0  0  0
    1.4750    1.2160    1.8340 C   0  0  0  0  0  0  0  0  0  0  0  0
    1.9240   -1.1610    1.5970 C   0  0  0  0  0  0  0  0  0  0  0  0
   -0.3650   -0.3490    1.2910 N   0  0  2  0  0  0  0  0  0  0  0  0
   -0.9270    0.1090    2.5240 C   0  0  0  0  0  0  0  0  0  0  0  0
   -2.2280    0.8820    2.2990 C   0  0  0  0  0  0  0  0  0  0  0  0
   -3.0800    0.1360    1.3240 C   0  0  0  0  0  0  0  0  0  0  0  0
   -4.0620    0.9220    0.8000 C   0  0  0  0  0  0  0  0  0  0  0  0
   -4.9750    0.4150   -0.1420 C   0  0  0  0  0  0  0  0  0  0  0  0
   -4.8960   -0.8890   -0.5560 C   0  0  0  0  0  0  0  0  0  0  0  0
   -3.8830   -1.6930   -0.0140 C   0  0  0  0  0  0  0  0  0  0  0  0
   -3.0030   -1.1710    0.9060 C   0  0  0  0  0  0  0  0  0  0  0  0
   -2.0170   -2.1780    1.3510 C   0  0  0  0  0  0  0  0  0  0  0  0
   -0.6370   -1.7280    0.9940 C   0  0  0  0  0  0  0  0  0  0  0  0
   -5.7920   -1.3870   -1.4800 O   0  0  0  0  0  0  0  0  0  0  0  0
   -6.4530   -0.4780   -2.3380 C   0  0  0  0  0  0  0  0  0  0  0  0
   -7.0910    0.5550   -1.4000 C   0  0  0  0  0  0  0  0  0  0  0  0
   -6.0260    1.3070   -0.6860 C   0  0  0  0  0  0  0  0  0  0  0  0
    4.5160    1.3490   -1.6560 C   0  0  0  0  0  0  0  0  0  0  0  0
    5.8440    1.2330   -1.9310 C   0  0  0  0  0  0  0  0  0  0  0  0
  1  2  1  0
  2  3  1  0
  3  4  2  0
  3 28  1  0
  4  5  1  0
  5  6  2  0
  6  7  1  0
  6 27  1  0
  7  8  1  0
  8  9  1  0
  9 10  1  1
  9 11  1  0
  9 12  1  0
 12 13  1  1
 12 22  1  0
 13 14  1  0
 14 15  1  0
 15 16  2  0
 15 20  1  0
 16 17  1  0
 17 18  2  0
 17 26  1  0
 18 19  1  0
 18 23  1  0
 19 20  2  0
 20 21  1  0
 21 22  1  0
 23 24  1  0
 24 25  1  0
 25 26  1  0
 27 28  2  0
M  CHG  1  12   1
M  END
