
     RDKit          3D

 28 31  0  0  0  0  0  0  0  0999 V2000
    7.2470    2.1360    0.0130 C   0  0  0  0  0  0  0  0  0  0  0  0
    6.6070    1.1610    0.9260 C   0  0  0  0  0  0  0  0  0  0  0  0
    7.2050    0.8260    1.9640 O   0  0  0  0  0  0  0  0  0  0  0  0
    5.2910    0.5640    0.6610 C   0  0  0  0  0  0  0  0  0  0  0  0
    4.7590   -0.3940    1.5110 C   0  0  0  0  0  0  0  0  0  0  0  0
    3.5360   -0.9800    1.3430 C   0  0  0  0  0  0  0  0  0  0  0  0
    2.7440   -0.6140    0.2540 C   0  0  0  0  0  0  0  0  0  0  0  0
    1.4980   -1.1860   -0.0040 N   0  0  2  0  0  0  0  0  0  0  0  0
    0.8530   -0.4390   -1.0650 C   0  0  0  0  0  0  0  0  0  0  0  0
   -0.5970   -0.8190   -1.2620 C   0  0  0  0  0  0  0  0  0  0  0  0
   -1.4570   -0.5930   -0.0350 C   0  0  1  0  0  0  0  0  0  0  0  0
   -2.2240    0.5400   -0.0580 O   0  0  0  0  0  0  0  0  0  0  0  0
   -3.1170    0.7510   -1.0440 C   0  0  0  0  0  0  0  0  0  0  0  0
   -3.7970    2.0580   -0.7110 C   0  0  0  0  0  0  0  0  0  0  0  0
   -5.0780    2.2590   -0.4930 C   0  0  0  0  0  0  0  0  0  0  0  0
   -5.3200    3.5910   -0.2130 O   0  0  0  0  0  0  0  0  0  0  0  0
   -4.1080    4.3160   -0.0700 C   0  0  0  0  0  0  0  0  0  0  0  0
   -3.0650    3.3270   -0.5460 C   0  0  0  0  0  0  0  0  0  0  0  0
   -2.2260   -1.8040    0.3100 C   0  0  0  0  0  0  0  0  0  0  0  0
   -2.3290   -2.3860    1.5440 C   0  0  0  0  0  0  0  0  0  0  0  0
   -3.0940   -3.5320    1.7610 C   0  0  0  0  0  0  0  0  0  0  0  0
   -3.7750   -4.1180    0.7260 C   0  0  0  0  0  0  0  0  0  0  0  0
   -3.6930   -3.5570   -0.5330 C   0  0  0  0  0  0  0  0  0  0  0  0
   -2.9290   -2.4160   -0.7350 C   0  0  0  0  0  0  0  0  0  0  0  0
   -0.4520   -0.3170    1.1080 C   0  0  0  0  0  0  0  0  0  0  0  0
    0.5970   -1.3940    1.0460 C   0  0  0  0  0  0  0  0  0  0  0  0
    3.2590    0.3320   -0.5980 C   0  0  0  0  0  0  0  0  0  0  0  0
    4.5160    0.9270   -0.4150 C   0  0  0  0  0  0  0  0  0  0  0  0
  1  2  1  0
  2  3  2  0
  2  4  1  0
  4  5  2  0
  4 28  1  0
  5  6  1  0
  6  7  2  0
  8  7  1  1
  7 27  1  0
  8  9  1  0
  8 26  1  0
  9 10  1  0
 10 11  1  0
 11 12  1  6
 11 19  1  0
 11 25  1  0
 12 13  1  0
 13 14  1  0
 14 15  2  0
 14 18  1  0
 15 16  1  0
 16 17  1  0
 17 18  1  0
 19 20  2  0
 19 24  1  0
 20 21  1  0
 21 22  2  0
 22 23  1  0
 23 24  2  0
 25 26  1  0
 27 28  2  0
M  CHG  1   8   1
M  END
