
     RDKit          3D

 28 30  0  0  0  0  0  0  0  0999 V2000
   -0.5680   -5.2410   -1.7390 C   0  0  0  0  0  0  0  0  0  0  0  0
   -0.3810   -3.9050   -1.3770 O   0  0  0  0  0  0  0  0  0  0  0  0
    0.8720   -3.3090   -1.1580 C   0  0  0  0  0  0  0  0  0  0  0  0
    1.8090   -4.1270   -1.3260 O   0  0  0  0  0  0  0  0  0  0  0  0
    1.0460   -1.9270   -0.7820 C   0  0  0  0  0  0  0  0  0  0  0  0
    2.2250   -1.3700   -0.5550 C   0  0  0  0  0  0  0  0  0  0  0  0
    3.4970   -2.0080   -0.6330 C   0  0  0  0  0  0  0  0  0  0  0  0
    4.7080   -1.5900   -0.4250 C   0  0  0  0  0  0  0  0  0  0  0  0
    5.2960   -0.3440   -0.0270 C   0  0  0  0  0  0  0  0  0  0  0  0
    6.6910   -0.1630   -0.1590 C   0  0  0  0  0  0  0  0  0  0  0  0
    7.3520    0.9670    0.2380 C   0  0  0  0  0  0  0  0  0  0  0  0
    6.6770    2.0100    0.7990 C   0  0  0  0  0  0  0  0  0  0  0  0
    7.3360    3.2580    1.2470 C   0  0  0  0  0  0  0  0  0  0  0  0
    5.3240    1.8870    0.9510 C   0  0  0  0  0  0  0  0  0  0  0  0
    4.6490    0.7240    0.5430 C   0  0  0  0  0  0  0  0  0  0  0  0
   -0.1360   -1.0430   -0.5650 C   0  0  0  0  0  0  0  0  0  0  0  0
   -1.3910   -1.3780   -1.0070 C   0  0  0  0  0  0  0  0  0  0  0  0
   -2.5260   -0.5870   -0.7570 C   0  0  0  0  0  0  0  0  0  0  0  0
   -2.4230    0.5780   -0.0450 C   0  0  0  0  0  0  0  0  0  0  0  0
   -3.5710    1.4540    0.2480 C   0  0  0  0  0  0  0  0  0  0  0  0
   -4.7860    1.0910   -0.4020 N   0  0  1  0  0  0  0  0  0  0  0  0
   -5.4270    0.0420    0.3660 C   0  0  0  0  0  0  0  0  0  0  0  0
   -6.6040    0.5880    1.1450 C   0  0  0  0  0  0  0  0  0  0  0  0
   -6.3220    1.8020    1.7430 O   0  0  0  0  0  0  0  0  0  0  0  0
   -6.1090    2.7940    0.7910 C   0  0  0  0  0  0  0  0  0  0  0  0
   -5.7200    2.1930   -0.5210 C   0  0  0  0  0  0  0  0  0  0  0  0
   -1.1690    0.9190    0.4000 C   0  0  0  0  0  0  0  0  0  0  0  0
   -0.0370    0.1280    0.1500 C   0  0  0  0  0  0  0  0  0  0  0  0
  1  2  1  0
  2  3  1  0
  3  4  2  0
  3  5  1  0
  5  6  2  3
  5 16  1  0
  6  7  1  0
  7  8  2  3
  8  9  1  0
  9 10  2  0
  9 15  1  0
 10 11  1  0
 11 12  2  0
 12 13  1  0
 12 14  1  0
 14 15  2  0
 16 17  2  0
 16 28  1  0
 17 18  1  0
 18 19  2  0
 19 20  1  0
 19 27  1  0
 21 20  1  1
 21 22  1  0
 21 26  1  0
 22 23  1  0
 23 24  1  0
 24 25  1  0
 25 26  1  0
 27 28  2  0
M  CHG  1  21   1
M  END
