
     RDKit          3D

 28 31  0  0  0  0  0  0  0  0999 V2000
    8.3080   -1.8890    0.2210 C   0  0  0  0  0  0  0  0  0  0  0  0
    8.4060   -0.4180    0.6450 C   0  0  1  0  0  0  0  0  0  0  0  0
    9.2710    0.2560   -0.4160 C   0  0  0  0  0  0  0  0  0  0  0  0
    7.0480    0.1920    0.5340 C   0  0  0  0  0  0  0  0  0  0  0  0
    6.4070    0.7990    1.6000 C   0  0  0  0  0  0  0  0  0  0  0  0
    5.1570    1.3630    1.5080 C   0  0  0  0  0  0  0  0  0  0  0  0
    4.4950    1.3350    0.3110 C   0  0  0  0  0  0  0  0  0  0  0  0
    3.1500    1.9190    0.1320 C   0  0  0  0  0  0  0  0  0  0  0  0
    2.1510    0.8450    0.4340 C   0  0  0  0  0  0  0  0  0  0  0  0
    2.4820   -0.3170    0.7710 O   0  0  0  0  0  0  0  0  0  0  0  0
    0.7900    1.0700    0.3590 O   0  0  0  0  0  0  0  0  0  0  0  0
   -0.1300    0.0780    0.6380 C   0  0  1  0  0  0  0  0  0  0  0  0
   -1.0610    0.4090    1.7760 C   0  0  0  0  0  0  0  0  0  0  0  0
   -2.3950   -0.2580    1.6150 C   0  0  0  0  0  0  0  0  0  0  0  0
   -3.1130    0.1580    0.4440 N   0  0  2  0  0  0  0  0  0  0  0  0
   -3.9820   -0.8410   -0.1050 C   0  0  1  0  0  0  0  0  0  0  0  0
   -4.5830   -1.7580    0.9250 C   0  0  0  0  0  0  0  0  0  0  0  0
   -5.7710   -2.4770    0.2950 C   0  0  0  0  0  0  0  0  0  0  0  0
   -6.8010   -1.6340   -0.0110 O   0  0  0  0  0  0  0  0  0  0  0  0
   -6.4330   -0.3150   -0.1750 C   0  0  1  0  0  0  0  0  0  0  0  0
   -7.4980    0.4690   -0.9050 C   0  0  0  0  0  0  0  0  0  0  0  0
   -7.9750    1.0820    0.4050 C   0  0  0  0  0  0  0  0  0  0  0  0
   -6.7150    0.4890    1.0440 C   0  0  0  0  0  0  0  0  0  0  0  0
   -5.1060   -0.1350   -0.8340 C   0  0  0  0  0  0  0  0  0  0  0  0
   -2.2150    0.6340   -0.5620 C   0  0  0  0  0  0  0  0  0  0  0  0
   -0.9350   -0.1380   -0.6560 C   0  0  0  0  0  0  0  0  0  0  0  0
    5.0900    0.7450   -0.7710 C   0  0  0  0  0  0  0  0  0  0  0  0
    6.3420    0.1880   -0.6500 C   0  0  0  0  0  0  0  0  0  0  0  0
  2  1  1  6
  2  3  1  0
  2  4  1  0
  4  5  2  0
  4 28  1  0
  5  6  1  0
  6  7  2  0
  7  8  1  0
  7 27  1  0
  8  9  1  0
  9 10  2  0
  9 11  1  0
 12 11  1  6
 12 13  1  0
 12 26  1  0
 13 14  1  0
 15 14  1  1
 15 16  1  0
 15 25  1  0
 16 17  1  1
 16 24  1  0
 17 18  1  0
 18 19  1  0
 19 20  1  0
 20 21  1  6
 20 23  1  0
 20 24  1  0
 21 22  1  0
 22 23  1  0
 25 26  1  0
 27 28  2  0
M  CHG  1  15   1
M  END
