
     RDKit          3D

 28 31  0  0  0  0  0  0  0  0999 V2000
    9.8220   -2.6850    0.0740 O   0  0  0  0  0  0  0  0  0  0  0  0
    8.8160   -2.4390   -0.5930 C   0  0  0  0  0  0  0  0  0  0  0  0
    7.6560   -1.7610    0.0490 C   0  0  0  0  0  0  0  0  0  0  0  0
    6.6420   -1.5920   -0.9160 O   0  0  0  0  0  0  0  0  0  0  0  0
    5.4510   -0.9820   -0.5820 C   0  0  0  0  0  0  0  0  0  0  0  0
    5.3070   -0.5900    0.6130 O   0  0  0  0  0  0  0  0  0  0  0  0
    4.3950   -0.8080   -1.6180 C   0  0  0  0  0  0  0  0  0  0  0  0
    3.1900   -0.1490   -1.0420 C   0  0  0  0  0  0  0  0  0  0  0  0
    3.2250    1.2060   -0.7970 C   0  0  0  0  0  0  0  0  0  0  0  0
    2.1280    1.8170   -0.2830 C   0  0  0  0  0  0  0  0  0  0  0  0
    0.9500    1.1610    0.0190 C   0  0  0  0  0  0  0  0  0  0  0  0
   -0.2050    1.8190    0.6150 C   0  0  0  0  0  0  0  0  0  0  0  0
   -1.4370    1.7470    0.1930 C   0  0  0  0  0  0  0  0  0  0  0  0
   -2.6500    2.4140    0.8020 C   0  0  0  0  0  0  0  0  0  0  0  0
   -3.5820    1.3320    0.6310 N   0  0  2  0  0  0  0  0  0  0  0  0
   -3.4570    0.3740    1.6860 C   0  0  2  0  0  0  0  0  0  0  0  0
   -2.9660   -0.9560    1.2430 C   0  0  0  0  0  0  0  0  0  0  0  0
   -3.6670   -1.9280    2.1560 C   0  0  0  0  0  0  0  0  0  0  0  0
   -5.0290   -1.2770    2.3380 C   0  0  0  0  0  0  0  0  0  0  0  0
   -4.7290    0.2080    2.4780 C   0  0  0  0  0  0  0  0  0  0  0  0
   -3.3620    0.8620   -0.6570 C   0  0  0  0  0  0  0  0  0  0  0  0
   -4.1180    0.2510   -1.6470 C   0  0  0  0  0  0  0  0  0  0  0  0
   -3.5640   -0.0970   -2.8610 C   0  0  0  0  0  0  0  0  0  0  0  0
   -2.2400    0.1410   -3.1540 C   0  0  0  0  0  0  0  0  0  0  0  0
   -1.4550    0.7510   -2.1860 C   0  0  0  0  0  0  0  0  0  0  0  0
   -2.0340    1.0950   -0.9630 C   0  0  0  0  0  0  0  0  0  0  0  0
    0.9180   -0.2090   -0.2310 C   0  0  0  0  0  0  0  0  0  0  0  0
    2.0310   -0.8270   -0.7510 C   0  0  0  0  0  0  0  0  0  0  0  0
  1  2  2  0
  2  3  1  0
  3  4  1  0
  4  5  1  0
  5  6  2  0
  5  7  1  0
  7  8  1  0
  8  9  2  0
  8 28  1  0
  9 10  1  0
 10 11  2  0
 11 12  1  0
 11 27  1  0
 12 13  2  3
 13 14  1  0
 13 26  1  0
 15 14  1  1
 15 16  1  0
 15 21  1  0
 16 17  1  6
 16 20  1  0
 17 18  1  0
 18 19  1  0
 19 20  1  0
 21 22  2  0
 21 26  1  0
 22 23  1  0
 23 24  2  0
 24 25  1  0
 25 26  2  0
 27 28  2  0
M  CHG  1  15   1
M  END
