
     RDKit          3D

 28 31  0  0  0  0  0  0  0  0999 V2000
    6.6050   -0.1270    0.5370 C   0  0  0  0  0  0  0  0  0  0  0  0
    6.9870    0.4330   -0.5870 C   0  0  0  0  0  0  0  0  0  0  0  0
    6.3330    0.1010   -1.8630 C   0  0  0  0  0  0  0  0  0  0  0  0
    5.2920   -0.8060   -1.8230 O   0  0  0  0  0  0  0  0  0  0  0  0
    4.0620   -0.6880   -1.2250 C   0  0  0  0  0  0  0  0  0  0  0  0
    3.6900    0.4610   -0.5610 C   0  0  0  0  0  0  0  0  0  0  0  0
    2.4400    0.5920    0.0460 C   0  0  0  0  0  0  0  0  0  0  0  0
    1.8560    1.5330    0.7130 O   0  0  0  0  0  0  0  0  0  0  0  0
    0.6290    1.1780    1.0980 C   0  0  0  0  0  0  0  0  0  0  0  0
   -0.3360    1.9900    1.8740 C   0  0  0  0  0  0  0  0  0  0  0  0
   -1.4030    2.6340    1.0760 C   0  0  0  0  0  0  0  0  0  0  0  0
   -2.2940    1.7740    0.3030 C   0  0  0  0  0  0  0  0  0  0  0  0
   -1.9220    1.5240   -0.8960 O   0  0  0  0  0  0  0  0  0  0  0  0
   -3.5360    1.2170    0.8210 C   0  0  0  0  0  0  0  0  0  0  0  0
   -3.8810    1.4200    2.1300 C   0  0  0  0  0  0  0  0  0  0  0  0
   -5.0520    0.8980    2.6160 C   0  0  0  0  0  0  0  0  0  0  0  0
   -5.8580    0.1940    1.8260 N   0  0  0  0  0  0  0  0  0  0  0  0
   -5.5720   -0.0480    0.4990 C   0  0  0  0  0  0  0  0  0  0  0  0
   -4.4170    0.4670    0.0210 C   0  0  0  0  0  0  0  0  0  0  0  0
   -4.6740   -0.0890   -1.3070 C   0  0  1  0  0  0  0  0  0  0  0  0
   -3.6700   -1.0970   -1.8330 C   0  0  0  0  0  0  0  0  0  0  0  0
   -5.9300   -0.6370   -0.7890 C   0  0  0  0  0  0  0  0  0  0  0  0
    0.4270   -0.0880    0.6370 C   0  0  0  0  0  0  0  0  0  0  0  0
   -0.7550   -0.9530    0.7960 C   0  0  0  0  0  0  0  0  0  0  0  0
    1.5810   -0.4770   -0.0410 C   0  0  0  0  0  0  0  0  0  0  0  0
    1.9410   -1.6270   -0.6990 C   0  0  0  0  0  0  0  0  0  0  0  0
    3.1610   -1.7620   -1.2950 C   0  0  0  0  0  0  0  0  0  0  0  0
    3.5940   -2.9830   -2.0170 C   0  0  0  0  0  0  0  0  0  0  0  0
  1  2  2  0
  2  3  1  0
  3  4  1  0
  4  5  1  0
  5  6  2  0
  5 27  1  0
  6  7  1  0
  7  8  1  0
  7 25  2  0
  8  9  1  0
  9 10  1  0
  9 23  2  0
 10 11  1  0
 11 12  1  0
 12 13  2  0
 12 14  1  0
 14 15  2  0
 14 19  1  0
 15 16  1  0
 16 17  2  0
 17 18  1  0
 18 19  2  0
 18 22  1  0
 19 20  1  0
 20 21  1  1
 20 22  1  0
 23 24  1  0
 23 25  1  0
 25 26  1  0
 26 27  2  0
 27 28  1  0
M  CHG  1  17   1
M  END
