
     RDKit          3D

 16 17  0  0  0  0  0  0  0  0999 V2000
    4.0850   -1.2450    1.5940 O   0  0  0  0  0  0  0  0  0  0  0  0
    2.8780   -0.7620    1.3700 O   0  0  0  0  0  0  0  0  0  0  0  0
    2.9290    0.6040    1.1590 C   0  0  0  0  0  0  0  0  0  0  0  0
    1.5560    1.1450    0.9060 C   0  0  0  0  0  0  0  0  0  0  0  0
    0.9150    0.5440   -0.2980 C   0  0  2  0  0  0  0  0  0  0  0  0
   -0.4670    1.1800   -0.4330 C   0  0  2  0  0  0  0  0  0  0  0  0
   -0.3800    2.5130   -0.0750 O   0  0  0  0  0  0  0  0  0  0  0  0
   -1.3840    0.3870    0.4740 C   0  0  1  0  0  0  0  0  0  0  0  0
   -2.7680    0.9330    0.5650 C   0  0  0  0  0  0  0  0  0  0  0  0
   -3.6220    0.0530   -0.0710 O   0  0  0  0  0  0  0  0  0  0  0  0
   -2.8680   -0.6780   -0.9750 C   0  0  0  0  0  0  0  0  0  0  0  0
   -1.6090   -0.9520   -0.1930 C   0  0  2  0  0  0  0  0  0  0  0  0
   -1.9410   -1.8730    0.8030 O   0  0  0  0  0  0  0  0  0  0  0  0
   -0.4610   -1.3840   -1.0230 C   0  0  0  0  0  0  0  0  0  0  0  0
    0.8160   -0.9540   -0.2820 C   0  0  1  0  0  0  0  0  0  0  0  0
    1.9110   -1.5410   -0.9200 O   0  0  0  0  0  0  0  0  0  0  0  0
  1  2  1  0
  2  3  1  0
  3  4  1  0
  5  4  1  1
  5  6  1  0
  5 15  1  0
  6  7  1  1
  6  8  1  0
  8  9  1  6
  8 12  1  0
  9 10  1  0
 10 11  1  0
 11 12  1  0
 12 13  1  1
 12 14  1  0
 14 15  1  0
 15 16  1  6
M  END
