
     RDKit          3D

 16 17  0  0  0  0  0  0  0  0999 V2000
    1.1250   -0.7270    2.2830 O   0  0  0  0  0  0  0  0  0  0  0  0
    0.1980    0.0070    1.8640 C   0  0  0  0  0  0  0  0  0  0  0  0
   -0.8080    0.3210    2.7840 O   0  0  0  0  0  0  0  0  0  0  0  0
    0.1710    0.5180    0.4500 C   0  0  1  0  0  0  0  0  0  0  0  0
   -1.0190    0.0530   -0.3260 C   0  0  1  0  0  0  0  0  0  0  0  0
   -1.0250    0.5220   -1.6380 O   0  0  0  0  0  0  0  0  0  0  0  0
   -1.2120   -1.4300   -0.3790 C   0  0  0  0  0  0  0  0  0  0  0  0
   -2.7270   -1.5240   -0.6080 C   0  0  0  0  0  0  0  0  0  0  0  0
   -3.2120   -0.2200   -0.6020 O   0  0  0  0  0  0  0  0  0  0  0  0
   -2.3440    0.4970    0.2600 C   0  0  0  0  0  0  0  0  0  0  0  0
    0.2370    2.0310    0.4180 C   0  0  0  0  0  0  0  0  0  0  0  0
    1.2230    1.9030   -0.7100 C   0  0  0  0  0  0  0  0  0  0  0  0
    1.4910    0.4960   -0.1950 C   0  0  2  0  0  0  0  0  0  0  0  0
    1.7420   -0.4320   -1.1840 O   0  0  0  0  0  0  0  0  0  0  0  0
    2.9750   -1.0430   -1.0170 C   0  0  0  0  0  0  0  0  0  0  0  0
    3.1230   -1.7280    0.1730 O   0  0  0  0  0  0  0  0  0  0  0  0
  1  2  2  0
  2  3  1  0
  4  2  1  1
  4  5  1  0
  4 11  1  0
  4 13  1  0
  5  6  1  6
  5  7  1  0
  5 10  1  0
  7  8  1  0
  8  9  1  0
  9 10  1  0
 11 12  1  0
 12 13  1  0
 13 14  1  6
 14 15  1  0
 15 16  1  0
M  END
