
     RDKit          3D

 15 16  0  0  0  0  0  0  0  0999 V2000
   -0.0610    2.4100    1.3560 O   0  0  0  0  0  0  0  0  0  0  0  0
   -0.5400    2.2330    0.0440 C   0  0  0  0  0  0  0  0  0  0  0  0
   -0.2420    0.7590   -0.3200 C   0  0  2  0  0  0  0  0  0  0  0  0
    1.2260    0.6120   -0.2180 C   0  0  1  0  0  0  0  0  0  0  0  0
    1.5760    0.9190    1.1010 O   0  0  0  0  0  0  0  0  0  0  0  0
    2.1750   -0.1580    1.6700 C   0  0  0  0  0  0  0  0  0  0  0  0
    2.0320   -1.3470    0.7820 C   0  0  0  0  0  0  0  0  0  0  0  0
    1.8720   -0.6380   -0.5530 C   0  0  1  0  0  0  0  0  0  0  0  0
    1.3520   -1.4240   -1.5300 O   0  0  0  0  0  0  0  0  0  0  0  0
   -0.8700    0.5670   -1.6400 C   0  0  0  0  0  0  0  0  0  0  0  0
   -2.2620    0.4010   -1.4200 O   0  0  0  0  0  0  0  0  0  0  0  0
   -2.4140   -0.9780   -1.1490 C   0  0  0  0  0  0  0  0  0  0  0  0
   -1.6600   -1.2700    0.1050 C   0  0  2  0  0  0  0  0  0  0  0  0
   -2.5750   -1.7390    1.0760 O   0  0  0  0  0  0  0  0  0  0  0  0
   -1.0090   -0.0450    0.7100 C   0  0  0  0  0  0  0  0  0  0  0  0
  1  2  1  0
  3  2  1  1
  3  4  1  0
  3 10  1  0
  3 15  1  0
  4  5  1  1
  4  8  1  0
  5  6  1  0
  6  7  1  0
  7  8  1  0
  8  9  1  6
 10 11  1  0
 11 12  1  0
 12 13  1  0
 13 14  1  1
 13 15  1  0
M  END
