
     RDKit          3D

 16 17  0  0  0  0  0  0  0  0999 V2000
    1.4290    2.4610   -1.5920 O   0  0  0  0  0  0  0  0  0  0  0  0
    1.5200    1.0740   -1.7900 C   0  0  0  0  0  0  0  0  0  0  0  0
    0.6750    0.3380   -0.7300 C   0  0  1  0  0  0  0  0  0  0  0  0
   -0.7180    0.8370   -0.9460 C   0  0  1  0  0  0  0  0  0  0  0  0
   -1.0830    0.5020   -2.2650 O   0  0  0  0  0  0  0  0  0  0  0  0
   -1.7550    0.3130   -0.0450 C   0  0  1  0  0  0  0  0  0  0  0  0
   -1.9400   -1.0520   -0.0800 O   0  0  0  0  0  0  0  0  0  0  0  0
   -2.9170   -1.2440    0.9020 C   0  0  0  0  0  0  0  0  0  0  0  0
   -2.6950   -0.0980    1.8640 C   0  0  0  0  0  0  0  0  0  0  0  0
   -1.6460    0.6310    1.2840 O   0  0  0  0  0  0  0  0  0  0  0  0
    0.8400   -1.1280   -1.0380 C   0  0  0  0  0  0  0  0  0  0  0  0
    0.7360   -1.9430    0.0780 O   0  0  0  0  0  0  0  0  0  0  0  0
    1.8010   -1.6190    0.9180 C   0  0  0  0  0  0  0  0  0  0  0  0
    1.4650   -0.3190    1.5800 C   0  0  0  0  0  0  0  0  0  0  0  0
    1.2260    0.7610    0.5920 C   0  0  1  0  0  0  0  0  0  0  0  0
    2.4220    1.5100    0.4710 O   0  0  0  0  0  0  0  0  0  0  0  0
  1  2  1  0
  3  2  1  6
  3  4  1  0
  3 11  1  0
  3 15  1  0
  4  5  1  6
  4  6  1  0
  6  7  1  1
  6 10  1  0
  7  8  1  0
  8  9  1  0
  9 10  1  0
 11 12  1  0
 12 13  1  0
 13 14  1  0
 14 15  1  0
 15 16  1  6
M  END
