
     RDKit          3D

 16 17  0  0  0  0  0  0  0  0999 V2000
    3.6420    2.1550   -1.2290 O   0  0  0  0  0  0  0  0  0  0  0  0
    2.9830    1.3170   -0.5880 C   0  0  0  0  0  0  0  0  0  0  0  0
    1.7000    1.6860    0.0430 C   0  0  0  0  0  0  0  0  0  0  0  0
    0.7330    0.5930   -0.2540 C   0  0  1  0  0  0  0  0  0  0  0  0
    0.5120    0.6080   -1.6520 O   0  0  0  0  0  0  0  0  0  0  0  0
    1.2280   -0.7680    0.1830 C   0  0  2  0  0  0  0  0  0  0  0  0
    2.6900   -0.8330    0.4560 C   0  0  0  0  0  0  0  0  0  0  0  0
    3.4200    0.0200   -0.4410 O   0  0  0  0  0  0  0  0  0  0  0  0
    0.8130   -1.6670   -0.7990 O   0  0  0  0  0  0  0  0  0  0  0  0
   -0.3040   -2.3830   -0.4350 C   0  0  0  0  0  0  0  0  0  0  0  0
   -1.3820   -1.5850    0.2010 C   0  0  0  0  0  0  0  0  0  0  0  0
   -1.5360   -0.1950   -0.3330 C   0  0  1  0  0  0  0  0  0  0  0  0
   -2.9890    0.2540   -0.1570 C   0  0  0  0  0  0  0  0  0  0  0  0
   -3.2610    0.2140    1.2040 O   0  0  0  0  0  0  0  0  0  0  0  0
   -0.6250    0.7860    0.3790 C   0  0  2  0  0  0  0  0  0  0  0  0
   -1.1230    2.0530    0.2440 O   0  0  0  0  0  0  0  0  0  0  0  0
  1  2  2  0
  2  3  1  0
  2  8  1  0
  3  4  1  0
  4  5  1  6
  4  6  1  0
  4 15  1  0
  6  7  1  6
  6  9  1  0
  7  8  1  0
  9 10  1  0
 10 11  1  0
 11 12  1  0
 12 13  1  1
 12 15  1  0
 13 14  1  0
 15 16  1  6
M  END
