
     RDKit          3D

 16 17  0  0  0  0  0  0  0  0999 V2000
   -0.3230   -0.0890   -1.9450 C   0  0  0  0  0  0  0  0  0  0  0  0
    0.0020    0.5390   -0.5630 C   0  0  2  0  0  0  0  0  0  0  0  0
   -0.8420   -0.1400    0.4100 C   0  0  2  0  0  0  0  0  0  0  0  0
   -0.9530    0.4320    1.6690 O   0  0  0  0  0  0  0  0  0  0  0  0
   -0.7690   -1.6090    0.5410 C   0  0  0  0  0  0  0  0  0  0  0  0
   -2.1410   -2.1050    0.1010 C   0  0  0  0  0  0  0  0  0  0  0  0
   -2.4460   -1.1600   -0.9060 O   0  0  0  0  0  0  0  0  0  0  0  0
   -2.2820    0.0100   -0.1580 C   0  0  0  0  0  0  0  0  0  0  0  0
   -0.5580    1.8480   -0.7230 O   0  0  0  0  0  0  0  0  0  0  0  0
    0.4870    2.7130   -0.4610 C   0  0  0  0  0  0  0  0  0  0  0  0
    1.5660    2.0500   -1.0810 O   0  0  0  0  0  0  0  0  0  0  0  0
    1.4050    0.7630   -0.4720 C   0  0  1  0  0  0  0  0  0  0  0  0
    2.2320    0.7510    0.7170 C   0  0  0  0  0  0  0  0  0  0  0  0
    2.2290   -0.5560    1.4070 C   0  0  0  0  0  0  0  0  0  0  0  0
    1.6650   -0.8360    2.4740 O   0  0  0  0  0  0  0  0  0  0  0  0
    2.9450   -1.6180    0.7990 O   0  0  0  0  0  0  0  0  0  0  0  0
  2  1  1  6
  2  3  1  0
  2  9  1  0
  2 12  1  0
  3  4  1  1
  3  5  1  0
  3  8  1  0
  5  6  1  0
  6  7  1  0
  7  8  1  0
  9 10  1  0
 10 11  1  0
 11 12  1  0
 12 13  1  1
 13 14  1  0
 14 15  2  0
 14 16  1  0
M  END
