
     RDKit          3D

 15 16  0  0  0  0  0  0  0  0999 V2000
   -4.2230    0.3880   -1.1700 O   0  0  0  0  0  0  0  0  0  0  0  0
   -3.6690    0.8790    0.0020 C   0  0  0  0  0  0  0  0  0  0  0  0
   -2.3930    0.1680    0.3760 C   0  0  2  0  0  0  0  0  0  0  0  0
   -1.3190    0.3400   -0.6760 C   0  0  0  0  0  0  0  0  0  0  0  0
    0.0000    0.1490    0.0900 C   0  0  1  0  0  0  0  0  0  0  0  0
   -0.2660   -0.7850    1.2500 C   0  0  0  0  0  0  0  0  0  0  0  0
   -1.3800   -1.7560    0.9670 C   0  0  0  0  0  0  0  0  0  0  0  0
   -2.5550   -1.1770    0.5760 O   0  0  0  0  0  0  0  0  0  0  0  0
    1.0410   -0.4390   -0.8180 C   0  0  0  0  0  0  0  0  0  0  0  0
    2.3670   -0.3900   -0.1050 C   0  0  1  0  0  0  0  0  0  0  0  0
    3.4630    0.1620   -1.0080 C   0  0  0  0  0  0  0  0  0  0  0  0
    4.6730    0.0560   -0.3220 O   0  0  0  0  0  0  0  0  0  0  0  0
    2.3180    0.3400    1.0670 O   0  0  0  0  0  0  0  0  0  0  0  0
    1.6470    1.5430    0.9340 C   0  0  0  0  0  0  0  0  0  0  0  0
    0.3490    1.4290    0.5140 O   0  0  0  0  0  0  0  0  0  0  0  0
  1  2  1  0
  3  2  1  6
  3  4  1  0
  3  8  1  0
  5  4  1  6
  5  6  1  0
  5  9  1  0
  5 15  1  0
  6  7  1  0
  7  8  1  0
  9 10  1  0
 10 11  1  6
 10 13  1  0
 11 12  1  0
 13 14  1  0
 14 15  1  0
M  END
