
     RDKit          3D

 21 24  0  0  0  0  0  0  0  0999 V2000
   -1.1680    2.5230    0.3690 C   0  0  0  0  0  0  0  0  0  0  0  0
   -1.1340    1.2220    0.2690 C   0  0  0  0  0  0  0  0  0  0  0  0
   -2.4380    0.4820    0.2440 C   0  0  0  0  0  0  0  0  0  0  0  0
   -3.6070    1.1640    0.4830 C   0  0  0  0  0  0  0  0  0  0  0  0
   -4.8300    0.4640    0.4810 C   0  0  0  0  0  0  0  0  0  0  0  0
   -4.8450   -0.8850    0.2430 C   0  0  0  0  0  0  0  0  0  0  0  0
   -3.6570   -1.5340    0.0080 C   0  0  0  0  0  0  0  0  0  0  0  0
   -2.4220   -0.8590    0.0040 C   0  0  0  0  0  0  0  0  0  0  0  0
   -1.2270   -1.6680   -0.2630 C   0  0  2  0  0  0  0  0  0  0  0  0
   -1.2080   -2.7590    0.6110 O   0  0  0  0  0  0  0  0  0  0  0  0
    0.0200   -0.9090   -0.2210 C   0  0  0  0  0  0  0  0  0  0  0  0
    1.1630   -1.6610   -0.4620 C   0  0  0  0  0  0  0  0  0  0  0  0
    2.3770   -1.0870   -0.4540 C   0  0  0  0  0  0  0  0  0  0  0  0
    3.5210   -1.8040   -0.7180 C   0  0  0  0  0  0  0  0  0  0  0  0
    4.7600   -1.2090   -0.7350 C   0  0  0  0  0  0  0  0  0  0  0  0
    4.8210    0.1400   -0.4790 C   0  0  0  0  0  0  0  0  0  0  0  0
    3.6810    0.8940   -0.2080 C   0  0  0  0  0  0  0  0  0  0  0  0
    2.4570    0.2720   -0.1940 C   0  0  0  0  0  0  0  0  0  0  0  0
    1.3120    1.0550    0.0600 C   0  0  0  0  0  0  0  0  0  0  0  0
    1.4940    2.4310    0.5440 C   0  0  0  0  0  0  0  0  0  0  0  0
    0.0860    0.4520    0.0370 C   0  0  0  0  0  0  0  0  0  0  0  0
  1  2  2  0
  2  3  1  0
  2 21  1  0
  3  4  2  0
  3  8  1  0
  4  5  1  0
  5  6  2  0
  6  7  1  0
  7  8  2  0
  8  9  1  0
  9 10  1  1
  9 11  1  0
 11 12  2  0
 11 21  1  0
 12 13  1  0
 13 14  2  0
 13 18  1  0
 14 15  1  0
 15 16  2  0
 16 17  1  0
 17 18  2  0
 18 19  1  0
 19 20  1  0
 19 21  2  0
M  END
