
     RDKit          3D

 21 24  0  0  0  0  0  0  0  0999 V2000
    5.2330   -1.7460    0.5540 C   0  0  0  0  0  0  0  0  0  0  0  0
    3.9380   -0.9180    0.5240 C   0  0  0  0  0  0  0  0  0  0  0  0
    3.7890   -0.0150   -0.3700 C   0  0  0  0  0  0  0  0  0  0  0  0
    2.7240    0.8840   -0.6480 C   0  0  0  0  0  0  0  0  0  0  0  0
    3.0350    2.1250   -1.2660 C   0  0  0  0  0  0  0  0  0  0  0  0
    2.0940    3.0420   -1.5970 C   0  0  0  0  0  0  0  0  0  0  0  0
    0.7780    2.7890   -1.3380 C   0  0  0  0  0  0  0  0  0  0  0  0
    0.4320    1.5970   -0.7440 C   0  0  0  0  0  0  0  0  0  0  0  0
   -0.9300    1.3700   -0.5480 C   0  0  0  0  0  0  0  0  0  0  0  0
   -1.3460    0.1820   -0.0100 C   0  0  0  0  0  0  0  0  0  0  0  0
   -0.4120   -0.7790    0.3320 C   0  0  0  0  0  0  0  0  0  0  0  0
    0.9570   -0.5410    0.1320 C   0  0  0  0  0  0  0  0  0  0  0  0
    1.3920    0.6470   -0.4020 C   0  0  0  0  0  0  0  0  0  0  0  0
   -0.8390   -1.9550    0.8630 O   0  0  0  0  0  0  0  0  0  0  0  0
   -2.1370   -2.3280    1.1270 C   0  0  0  0  0  0  0  0  0  0  0  0
   -3.1250   -1.3120    0.7630 C   0  0  0  0  0  0  0  0  0  0  0  0
   -4.4860   -1.5570    0.9680 C   0  0  0  0  0  0  0  0  0  0  0  0
   -5.4210   -0.6100    0.6310 C   0  0  0  0  0  0  0  0  0  0  0  0
   -5.0590    0.5990    0.0860 C   0  0  0  0  0  0  0  0  0  0  0  0
   -3.7250    0.8450   -0.1170 C   0  0  0  0  0  0  0  0  0  0  0  0
   -2.7750   -0.1060    0.2200 C   0  0  0  0  0  0  0  0  0  0  0  0
  1  2  1  0
  2  3  2  3
  3  4  1  0
  4  5  2  0
  4 13  1  0
  5  6  1  0
  6  7  2  0
  7  8  1  0
  8  9  2  0
  8 13  1  0
  9 10  1  0
 10 11  2  0
 10 21  1  0
 11 12  1  0
 11 14  1  0
 12 13  2  0
 14 15  1  0
 15 16  1  0
 16 17  2  0
 16 21  1  0
 17 18  1  0
 18 19  2  0
 19 20  1  0
 20 21  2  0
M  END
