
     RDKit          3D

 14 15  0  0  0  0  0  0  0  0999 V2000
    2.6340    1.7140   -0.6980 C   0  0  0  0  0  0  0  0  0  0  0  0
    2.0150    0.4470   -0.2300 C   0  0  0  0  0  0  0  0  0  0  0  0
    2.8200   -0.6440    0.0530 C   0  0  0  0  0  0  0  0  0  0  0  0
    2.2570   -1.8420    0.4940 C   0  0  0  0  0  0  0  0  0  0  0  0
    0.8910   -1.9610    0.6570 C   0  0  0  0  0  0  0  0  0  0  0  0
    0.2750   -3.1170    1.0890 O   0  0  0  0  0  0  0  0  0  0  0  0
    0.1280   -0.8540    0.3640 C   0  0  0  0  0  0  0  0  0  0  0  0
   -1.2370   -0.9470    0.5180 O   0  0  0  0  0  0  0  0  0  0  0  0
   -2.0160    0.1610    0.2280 C   0  0  0  0  0  0  0  0  0  0  0  0
   -1.7830    1.4230    0.5130 C   0  0  0  0  0  0  0  0  0  0  0  0
   -2.8360    2.2030    0.0310 N   0  0  0  0  0  0  0  0  0  0  0  0
   -3.7290    1.4980   -0.5480 C   0  0  0  0  0  0  0  0  0  0  0  0
   -3.3090    0.0820   -0.4940 C   0  0  0  0  0  0  0  0  0  0  0  0
    0.6910    0.2900   -0.0590 N   0  0  0  0  0  0  0  0  0  0  0  0
  1  2  1  0
  2  3  2  0
  2 14  1  0
  3  4  1  0
  4  5  2  0
  5  6  1  0
  5  7  1  0
  7  8  1  0
  7 14  2  0
  8  9  1  0
  9 10  2  0
  9 13  1  0
 10 11  1  0
 11 12  2  0
 12 13  1  0
M  END
