
     RDKit          3D

 14 15  0  0  0  0  0  0  0  0999 V2000
    3.9760    0.8640   -0.6480 C   0  0  0  0  0  0  0  0  0  0  0  0
    2.6750    1.0340    0.0010 C   0  0  0  0  0  0  0  0  0  0  0  0
    1.5970    0.3110   -0.3250 C   0  0  0  0  0  0  0  0  0  0  0  0
    1.7260   -0.7050   -1.3880 C   0  0  0  0  0  0  0  0  0  0  0  0
    0.3270    0.4900    0.3480 C   0  0  0  0  0  0  0  0  0  0  0  0
    0.1000    1.3560    1.3810 N   0  0  0  0  0  0  0  0  0  0  0  0
   -1.1740    1.2740    1.7770 C   0  0  0  0  0  0  0  0  0  0  0  0
   -1.6770    1.9490    2.7070 O   0  0  0  0  0  0  0  0  0  0  0  0
   -1.7390    0.3510    0.9830 N   0  0  0  0  0  0  0  0  0  0  0  0
   -0.8710   -0.1540    0.0980 C   0  0  0  0  0  0  0  0  0  0  0  0
   -1.2890   -1.1830   -0.8850 C   0  0  0  0  0  0  0  0  0  0  0  0
   -2.6600   -1.0620   -1.0870 O   0  0  0  0  0  0  0  0  0  0  0  0
   -3.3290   -1.2790    0.1080 C   0  0  0  0  0  0  0  0  0  0  0  0
   -3.1350   -0.0950    1.0470 C   0  0  0  0  0  0  0  0  0  0  0  0
  1  2  1  0
  2  3  2  3
  3  4  1  0
  3  5  1  0
  5  6  1  0
  5 10  2  0
  6  7  1  0
  7  8  2  0
  7  9  1  0
  9 10  1  0
  9 14  1  0
 10 11  1  0
 11 12  1  0
 12 13  1  0
 13 14  1  0
M  END
