
     RDKit          3D

 14 15  0  0  0  0  0  0  0  0999 V2000
   -1.7860    1.6020   -0.8290 C   0  0  0  0  0  0  0  0  0  0  0  0
   -2.4030    0.5570   -0.3280 C   0  0  0  0  0  0  0  0  0  0  0  0
   -3.8620    0.3650   -0.2220 C   0  0  0  0  0  0  0  0  0  0  0  0
   -4.0690   -0.8150    0.3380 C   0  0  0  0  0  0  0  0  0  0  0  0
   -2.7830   -1.4330    0.6170 C   0  0  0  0  0  0  0  0  0  0  0  0
   -1.7770   -0.6490    0.2350 C   0  0  0  0  0  0  0  0  0  0  0  0
   -0.3460   -0.9130    0.3450 C   0  0  0  0  0  0  0  0  0  0  0  0
    0.6550   -0.1290   -0.0360 N   0  0  0  0  0  0  0  0  0  0  0  0
    1.8010   -0.7530    0.2470 C   0  0  0  0  0  0  0  0  0  0  0  0
    3.1870   -0.2550   -0.0030 C   0  0  0  0  0  0  0  0  0  0  0  0
    3.1010    1.0970   -0.6410 C   0  0  0  0  0  0  0  0  0  0  0  0
    4.3930    1.5660   -0.8760 O   0  0  0  0  0  0  0  0  0  0  0  0
    1.4780   -1.9290    0.8070 N   0  0  0  0  0  0  0  0  0  0  0  0
    0.2030   -1.9910    0.8500 O   0  0  0  0  0  0  0  0  0  0  0  0
  1  2  2  0
  2  3  1  0
  2  6  1  0
  3  4  2  0
  4  5  1  0
  5  6  2  0
  6  7  1  0
  7  8  2  0
  7 14  1  0
  8  9  1  0
  9 10  1  0
  9 13  2  0
 10 11  1  0
 11 12  1  0
 13 14  1  0
M  END
