
     RDKit          3D

 15 15  0  0  0  0  0  0  0  0999 V2000
   -0.5700   -1.3450    0.8430 C   0  0  0  0  0  0  0  0  0  0  0  0
   -0.7130   -0.4800   -0.4000 C   0  0  1  0  0  0  0  0  0  0  0  0
    0.3830   -0.3680   -1.0610 O   0  0  0  0  0  0  0  0  0  0  0  0
    1.5340    0.1910   -0.9320 C   0  0  0  0  0  0  0  0  0  0  0  0
    2.3720   -0.2810    0.2270 C   0  0  1  0  0  0  0  0  0  0  0  0
    2.6720   -1.6570    0.1490 O   0  0  0  0  0  0  0  0  0  0  0  0
    3.7570    0.3930    0.0800 C   0  0  0  0  0  0  0  0  0  0  0  0
    3.5280    1.7560    0.1490 O   0  0  0  0  0  0  0  0  0  0  0  0
   -1.6230   -1.2830   -1.2140 O   0  0  0  0  0  0  0  0  0  0  0  0
   -2.9040   -1.0530   -0.7260 C   0  0  0  0  0  0  0  0  0  0  0  0
   -3.8290   -1.8920   -0.4930 O   0  0  0  0  0  0  0  0  0  0  0  0
   -2.9420    0.4220   -0.5360 C   0  0  1  0  0  0  0  0  0  0  0  0
   -3.9660    0.8120    0.4120 N   0  0  0  0  0  0  0  0  0  0  0  0
   -1.5450    0.6850   -0.0180 C   0  0  1  0  0  0  0  0  0  0  0  0
   -1.6600    0.8310    1.3670 O   0  0  0  0  0  0  0  0  0  0  0  0
  2  1  1  1
  2  3  1  0
  2  9  1  0
  2 14  1  0
  3  4  1  0
  4  5  1  0
  5  6  1  6
  5  7  1  0
  7  8  1  0
  9 10  1  0
 10 11  2  0
 10 12  1  0
 12 13  1  1
 12 14  1  0
 14 15  1  1
M  END
