
     RDKit          3D

 15 15  0  0  0  0  0  0  0  0999 V2000
    3.0130    0.9650    1.2210 N   0  0  0  0  0  0  0  0  0  0  0  0
    3.4740   -0.0870    0.3360 C   0  0  2  0  0  0  0  0  0  0  0  0
    3.8530    0.5130   -0.8750 O   0  0  0  0  0  0  0  0  0  0  0  0
    2.3470   -1.0610    0.0650 C   0  0  1  0  0  0  0  0  0  0  0  0
    1.9280   -1.6170    1.2700 O   0  0  0  0  0  0  0  0  0  0  0  0
    1.1770   -0.3300   -0.5970 C   0  0  0  0  0  0  0  0  0  0  0  0
    0.7260    0.6640    0.2240 O   0  0  0  0  0  0  0  0  0  0  0  0
   -0.2880    1.4380   -0.2370 C   0  0  0  0  0  0  0  0  0  0  0  0
   -1.5810    0.7450   -0.5660 C   0  0  1  0  0  0  0  0  0  0  0  0
   -1.4370   -0.1600   -1.5430 O   0  0  0  0  0  0  0  0  0  0  0  0
   -2.3440   -1.1220   -1.7280 C   0  0  0  0  0  0  0  0  0  0  0  0
   -3.2220   -1.4350   -0.7480 O   0  0  0  0  0  0  0  0  0  0  0  0
   -3.4680   -0.5270    0.2190 C   0  0  0  0  0  0  0  0  0  0  0  0
   -2.2520    0.2200    0.6860 C   0  0  2  0  0  0  0  0  0  0  0  0
   -2.6580    1.3030    1.4660 O   0  0  0  0  0  0  0  0  0  0  0  0
  2  1  1  1
  2  3  1  0
  2  4  1  0
  4  5  1  1
  4  6  1  0
  6  7  1  0
  7  8  1  0
  9  8  1  1
  9 10  1  0
  9 14  1  0
 10 11  1  0
 11 12  1  0
 12 13  1  0
 13 14  1  0
 14 15  1  1
M  END
