
     RDKit          3D

 15 15  0  0  0  0  0  0  0  0999 V2000
   -4.2580    0.8850   -1.1800 N   0  0  0  0  0  0  0  0  0  0  0  0
   -3.7930    0.1640   -0.0190 C   0  0  1  0  0  0  0  0  0  0  0  0
   -3.8910   -1.1910   -0.3010 O   0  0  0  0  0  0  0  0  0  0  0  0
   -2.3170    0.4950    0.2450 C   0  0  1  0  0  0  0  0  0  0  0  0
   -1.9400   -0.2200    1.3570 O   0  0  0  0  0  0  0  0  0  0  0  0
   -1.5290    0.1560   -0.9660 C   0  0  0  0  0  0  0  0  0  0  0  0
   -0.1940    0.3910   -0.9550 O   0  0  0  0  0  0  0  0  0  0  0  0
    0.5430   -0.2510   -0.0150 C   0  0  0  0  0  0  0  0  0  0  0  0
    2.0310    0.0360   -0.1340 C   0  0  2  0  0  0  0  0  0  0  0  0
    2.5920   -0.4610   -1.4340 C   0  0  0  0  0  0  0  0  0  0  0  0
    2.3130   -1.8140   -1.6340 O   0  0  0  0  0  0  0  0  0  0  0  0
    2.7380   -0.5670    1.0600 C   0  0  0  0  0  0  0  0  0  0  0  0
    3.8920    0.2000    1.1160 O   0  0  0  0  0  0  0  0  0  0  0  0
    3.6790    1.3360    0.3800 C   0  0  0  0  0  0  0  0  0  0  0  0
    2.3390    1.3750    0.0010 O   0  0  0  0  0  0  0  0  0  0  0  0
  2  1  1  6
  2  3  1  0
  2  4  1  0
  4  5  1  1
  4  6  1  0
  6  7  1  0
  7  8  1  0
  9  8  1  1
  9 10  1  0
  9 12  1  0
  9 15  1  0
 10 11  1  0
 12 13  1  0
 13 14  1  0
 14 15  1  0
M  END
