
     RDKit          3D

 21 22  0  0  0  0  0  0  0  0999 V2000
   -4.4340   -0.2780   -0.7430 C   0  0  0  0  0  0  0  0  0  0  0  0
   -3.0550    0.1170   -0.1680 C   0  0  1  0  0  0  0  0  0  0  0  0
   -2.9860    1.6040   -0.1280 C   0  0  0  0  0  0  0  0  0  0  0  0
   -3.0380   -0.4310    1.2550 C   0  0  0  0  0  0  0  0  0  0  0  0
   -2.0210   -0.5570   -0.9460 C   0  0  0  0  0  0  0  0  0  0  0  0
   -2.4250   -1.3970   -1.8070 O   0  0  0  0  0  0  0  0  0  0  0  0
   -0.5810   -0.3770   -0.8440 C   0  0  0  0  0  0  0  0  0  0  0  0
    0.1170   -1.1520   -1.6780 C   0  0  0  0  0  0  0  0  0  0  0  0
   -0.5760   -2.0030   -2.5090 O   0  0  0  0  0  0  0  0  0  0  0  0
    1.5680   -1.1780   -1.7890 C   0  0  0  0  0  0  0  0  0  0  0  0
    2.0950   -2.2580   -2.1950 O   0  0  0  0  0  0  0  0  0  0  0  0
    2.4930   -0.1810   -1.5130 O   0  0  0  0  0  0  0  0  0  0  0  0
    2.2540    0.9330   -0.6500 C   0  0  2  0  0  0  0  0  0  0  0  0
    1.9100    2.0340   -1.3860 O   0  0  0  0  0  0  0  0  0  0  0  0
    3.6120    1.1690    0.0350 C   0  0  0  0  0  0  0  0  0  0  0  0
    4.1450   -0.1740    0.4030 C   0  0  0  0  0  0  0  0  0  0  0  0
    3.1760   -1.1290    0.9970 C   0  0  0  0  0  0  0  0  0  0  0  0
    1.7850   -0.6660    1.0730 C   0  0  0  0  0  0  0  0  0  0  0  0
    0.9750   -1.3530    1.6690 O   0  0  0  0  0  0  0  0  0  0  0  0
    1.3140    0.5970    0.4600 C   0  0  2  0  0  0  0  0  0  0  0  0
   -0.1400    0.6290    0.1320 C   0  0  0  0  0  0  0  0  0  0  0  0
  2  1  1  6
  2  3  1  0
  2  4  1  0
  2  5  1  0
  5  6  2  0
  5  7  1  0
  7  8  2  0
  7 21  1  0
  8  9  1  0
  8 10  1  0
 10 11  2  0
 10 12  1  0
 12 13  1  0
 13 14  1  6
 13 15  1  0
 13 20  1  0
 15 16  1  0
 16 17  1  0
 17 18  1  0
 18 19  2  0
 18 20  1  0
 20 21  1  6
M  END
