
     RDKit          3D

 21 23  0  0  0  0  0  0  0  0999 V2000
    4.9970    3.2930    0.3160 O   0  0  0  0  0  0  0  0  0  0  0  0
    3.7500    2.7230    0.1100 C   0  0  0  0  0  0  0  0  0  0  0  0
    3.9040    1.3220    0.0100 O   0  0  0  0  0  0  0  0  0  0  0  0
    2.7470    0.5700   -0.2000 C   0  0  0  0  0  0  0  0  0  0  0  0
    2.8770   -0.7970   -0.3000 C   0  0  0  0  0  0  0  0  0  0  0  0
    1.7550   -1.5440   -0.5050 C   0  0  0  0  0  0  0  0  0  0  0  0
    0.5050   -0.9110   -0.6080 C   0  0  0  0  0  0  0  0  0  0  0  0
    0.3230    0.4300   -0.5160 C   0  0  0  0  0  0  0  0  0  0  0  0
   -0.9310    1.1800   -0.6250 C   0  0  2  0  0  0  0  0  0  0  0  0
   -0.7250    2.5490   -0.2920 O   0  0  0  0  0  0  0  0  0  0  0  0
   -2.1290    0.6650    0.0420 C   0  0  0  0  0  0  0  0  0  0  0  0
   -2.4900    1.1320    1.2510 C   0  0  0  0  0  0  0  0  0  0  0  0
   -3.6680    0.6880    2.0070 C   0  0  0  0  0  0  0  0  0  0  0  0
   -4.3540   -0.3750    1.4080 O   0  0  0  0  0  0  0  0  0  0  0  0
   -4.0400   -0.8850    0.1800 C   0  0  0  0  0  0  0  0  0  0  0  0
   -2.9760   -0.3890   -0.4760 C   0  0  0  0  0  0  0  0  0  0  0  0
    1.5130    1.1660   -0.3040 C   0  0  0  0  0  0  0  0  0  0  0  0
   -0.5980   -1.7250   -0.8130 O   0  0  0  0  0  0  0  0  0  0  0  0
   -0.5980   -3.1110   -0.6120 C   0  0  0  0  0  0  0  0  0  0  0  0
    0.6830   -3.6730   -0.0810 C   0  0  0  0  0  0  0  0  0  0  0  0
    1.7580   -2.9260   -0.6220 O   0  0  0  0  0  0  0  0  0  0  0  0
  1  2  1  0
  2  3  1  0
  3  4  1  0
  4  5  2  0
  4 17  1  0
  5  6  1  0
  6  7  2  0
  6 21  1  0
  7  8  1  0
  7 18  1  0
  8  9  1  0
  8 17  2  0
  9 10  1  1
  9 11  1  0
 11 12  2  0
 11 16  1  0
 12 13  1  0
 13 14  1  0
 14 15  1  0
 15 16  2  0
 18 19  1  0
 19 20  1  0
 20 21  1  0
M  END
