
     RDKit          3D

 16 16  0  0  0  0  0  0  0  0999 V2000
    4.5920    1.3850   -1.3530 N   0  0  0  0  0  0  0  0  0  0  0  0
    3.6790    0.7260   -0.5070 C   0  0  0  0  0  0  0  0  0  0  0  0
    3.8850    0.6440    0.7200 O   0  0  0  0  0  0  0  0  0  0  0  0
    2.4850    0.1370   -1.0730 C   0  0  0  0  0  0  0  0  0  0  0  0
    1.5990   -0.4940   -0.2990 C   0  0  0  0  0  0  0  0  0  0  0  0
    1.7210   -0.6470    1.0640 O   0  0  0  0  0  0  0  0  0  0  0  0
    0.4930   -0.9880    1.6660 C   0  0  0  0  0  0  0  0  0  0  0  0
   -0.5120   -1.1380    0.5290 C   0  0  1  0  0  0  0  0  0  0  0  0
   -1.4130   -0.0710    0.5230 O   0  0  0  0  0  0  0  0  0  0  0  0
   -2.7730   -0.1780    0.6420 C   0  0  0  0  0  0  0  0  0  0  0  0
   -3.2850   -1.2990    0.7680 O   0  0  0  0  0  0  0  0  0  0  0  0
   -3.5800    1.0390    0.6170 C   0  0  0  0  0  0  0  0  0  0  0  0
   -5.0010    0.9370    0.7410 N   0  0  0  0  0  0  0  0  0  0  0  0
   -3.0700    2.1660    0.4910 O   0  0  0  0  0  0  0  0  0  0  0  0
    0.3370   -1.1450   -0.7240 C   0  0  1  0  0  0  0  0  0  0  0  0
   -0.2420   -0.4160   -1.7550 O   0  0  0  0  0  0  0  0  0  0  0  0
  1  2  1  0
  2  3  2  0
  2  4  1  0
  4  5  2  3
  5  6  1  0
  5 15  1  0
  6  7  1  0
  7  8  1  0
  8  9  1  6
  8 15  1  0
  9 10  1  0
 10 11  2  0
 10 12  1  0
 12 13  1  0
 12 14  2  0
 15 16  1  6
M  END
