
     RDKit          3D

 16 16  0  0  0  0  0  0  0  0999 V2000
    4.9940    1.0170   -0.2440 C   0  0  0  0  0  0  0  0  0  0  0  0
    3.6780    0.8820    0.3070 O   0  0  0  0  0  0  0  0  0  0  0  0
    2.6970    0.1340   -0.2790 C   0  0  0  0  0  0  0  0  0  0  0  0
    2.9070   -0.4740   -1.3360 O   0  0  0  0  0  0  0  0  0  0  0  0
    1.4090    0.0430    0.3220 N   0  0  0  0  0  0  0  0  0  0  0  0
    0.3780   -0.7550   -0.3130 C   0  0  1  0  0  0  0  0  0  0  0  0
   -0.0220   -1.8330    0.6620 C   0  0  0  0  0  0  0  0  0  0  0  0
   -1.3250   -2.2470    0.5130 O   0  0  0  0  0  0  0  0  0  0  0  0
   -2.2670   -1.2640    0.5970 C   0  0  0  0  0  0  0  0  0  0  0  0
   -1.7470    0.1310    0.4890 C   0  0  2  0  0  0  0  0  0  0  0  0
   -1.1350    0.5930    1.6270 O   0  0  0  0  0  0  0  0  0  0  0  0
   -2.8670    1.0260    0.1170 C   0  0  0  0  0  0  0  0  0  0  0  0
   -3.6880    0.8030   -1.0200 N   0  0  0  0  0  0  0  0  0  0  0  0
   -3.1270    2.0360    0.8170 O   0  0  0  0  0  0  0  0  0  0  0  0
   -0.7540    0.1580   -0.6710 C   0  0  2  0  0  0  0  0  0  0  0  0
   -1.4290   -0.2840   -1.8220 O   0  0  0  0  0  0  0  0  0  0  0  0
  1  2  1  0
  2  3  1  0
  3  4  2  0
  3  5  1  0
  6  5  1  1
  6  7  1  0
  6 15  1  0
  7  8  1  0
  8  9  1  0
  9 10  1  0
 10 11  1  1
 10 12  1  0
 10 15  1  0
 12 13  1  0
 12 14  2  0
 15 16  1  6
M  END
