
     RDKit          3D

 16 16  0  0  0  0  0  0  0  0999 V2000
    0.5980   -1.8400    0.2280 C   0  0  0  0  0  0  0  0  0  0  0  0
    0.4850   -0.3600   -0.0010 C   0  0  2  0  0  0  0  0  0  0  0  0
   -0.8990    0.1670   -0.0230 C   0  0  1  0  0  0  0  0  0  0  0  0
   -0.8140    1.5480   -0.2160 O   0  0  0  0  0  0  0  0  0  0  0  0
   -1.7630   -0.3840   -1.1240 C   0  0  0  0  0  0  0  0  0  0  0  0
   -3.0400    0.1980   -1.0650 O   0  0  0  0  0  0  0  0  0  0  0  0
   -1.6190   -0.0280    1.2720 C   0  0  0  0  0  0  0  0  0  0  0  0
   -2.0830    1.0530    2.0700 N   0  0  0  0  0  0  0  0  0  0  0  0
   -1.8410   -1.1910    1.7040 O   0  0  0  0  0  0  0  0  0  0  0  0
    1.1120   -0.0490   -1.2650 N   0  0  0  0  0  0  0  0  0  0  0  0
    2.3220    0.6830   -1.2940 C   0  0  0  0  0  0  0  0  0  0  0  0
    2.6120    1.4590   -2.2660 O   0  0  0  0  0  0  0  0  0  0  0  0
    3.2500    0.5170   -0.1470 C   0  0  0  0  0  0  0  0  0  0  0  0
    2.5090    0.7150    1.0450 O   0  0  0  0  0  0  0  0  0  0  0  0
    1.1960    0.3020    1.1320 C   0  0  0  0  0  0  0  0  0  0  0  0
    0.5500    0.4760    2.1920 O   0  0  0  0  0  0  0  0  0  0  0  0
  2  1  1  1
  2  3  1  0
  2 10  1  0
  2 15  1  0
  3  4  1  6
  3  5  1  0
  3  7  1  0
  5  6  1  0
  7  8  1  0
  7  9  2  0
 10 11  1  0
 11 12  2  0
 11 13  1  0
 13 14  1  0
 14 15  1  0
 15 16  2  0
M  END
