
     RDKit          3D

 16 16  0  0  0  0  0  0  0  0999 V2000
    3.1510    0.3670   -0.1520 C   0  0  0  0  0  0  0  0  0  0  0  0
    2.3480    0.4310    0.9380 O   0  0  0  0  0  0  0  0  0  0  0  0
    1.4130   -0.5160    1.1440 C   0  0  0  0  0  0  0  0  0  0  0  0
    0.3870   -0.6470    0.0910 C   0  0  1  0  0  0  0  0  0  0  0  0
    0.9550   -0.9690   -1.1990 N   0  0  0  0  0  0  0  0  0  0  0  0
   -0.4950   -1.8500    0.4010 C   0  0  0  0  0  0  0  0  0  0  0  0
   -0.0850   -2.7290    1.1580 O   0  0  0  0  0  0  0  0  0  0  0  0
   -1.7190   -1.8280   -0.2290 O   0  0  0  0  0  0  0  0  0  0  0  0
   -1.8820   -0.9870   -1.3390 C   0  0  0  0  0  0  0  0  0  0  0  0
   -1.2410    0.2180   -1.2860 O   0  0  0  0  0  0  0  0  0  0  0  0
   -0.5980    0.4760   -0.0500 C   0  0  2  0  0  0  0  0  0  0  0  0
   -0.0040    1.8470   -0.1700 C   0  0  0  0  0  0  0  0  0  0  0  0
    0.6360    2.3120    0.9620 O   0  0  0  0  0  0  0  0  0  0  0  0
   -1.6340    0.5230    0.9850 C   0  0  0  0  0  0  0  0  0  0  0  0
   -2.9980    0.3600    0.6290 N   0  0  0  0  0  0  0  0  0  0  0  0
   -1.3810    0.7070    2.2110 O   0  0  0  0  0  0  0  0  0  0  0  0
  1  2  1  0
  2  3  1  0
  3  4  1  0
  4  5  1  6
  4  6  1  0
  4 11  1  0
  6  7  2  0
  6  8  1  0
  8  9  1  0
  9 10  1  0
 10 11  1  0
 11 12  1  6
 11 14  1  0
 12 13  1  0
 14 15  1  0
 14 16  2  0
M  END
