
     RDKit          3D

 14 14  0  0  0  0  0  0  0  0999 V2000
    1.0800    1.2840    1.4170 O   0  0  0  0  0  0  0  0  0  0  0  0
    0.2330    0.1910    1.2970 C   0  0  0  0  0  0  0  0  0  0  0  0
   -0.0620   -0.0750   -0.1590 C   0  0  1  0  0  0  0  0  0  0  0  0
    1.2670   -0.0380   -0.8930 C   0  0  0  0  0  0  0  0  0  0  0  0
    2.0610   -1.0770   -0.2540 N   0  0  0  0  0  0  0  0  0  0  0  0
    3.2620   -0.4520    0.8380 S   0  0  0  0  0  0  0  0  0  0  0  0
    4.8690   -0.7510    0.2910 O   0  0  0  0  0  0  0  0  0  0  0  0
   -0.5830   -1.3380   -0.3860 O   0  0  0  0  0  0  0  0  0  0  0  0
   -1.6250   -1.6400    0.4690 C   0  0  0  0  0  0  0  0  0  0  0  0
   -2.4620   -0.5560    0.6330 O   0  0  0  0  0  0  0  0  0  0  0  0
   -2.4350    0.3470   -0.4110 C   0  0  1  0  0  0  0  0  0  0  0  0
   -3.2960    1.3970   -0.0550 O   0  0  0  0  0  0  0  0  0  0  0  0
   -1.0480    0.9340   -0.6430 C   0  0  2  0  0  0  0  0  0  0  0  0
   -0.8590    1.3410   -1.9500 O   0  0  0  0  0  0  0  0  0  0  0  0
  1  2  1  0
  3  2  1  1
  3  4  1  0
  3  8  1  0
  3 13  1  0
  4  5  1  0
  5  6  1  0
  6  7  1  0
  8  9  1  0
  9 10  1  0
 10 11  1  0
 11 12  1  1
 11 13  1  0
 13 14  1  6
M  END
