
     RDKit          3D

 14 14  0  0  0  0  0  0  0  0999 V2000
    0.3790    1.5310   -1.1700 N   0  0  0  0  0  0  0  0  0  0  0  0
   -0.4050    0.4240   -0.7290 C   0  0  2  0  0  0  0  0  0  0  0  0
   -1.8660    0.7910   -0.7460 C   0  0  2  0  0  0  0  0  0  0  0  0
   -2.0290    1.8730    0.1130 O   0  0  0  0  0  0  0  0  0  0  0  0
   -2.7460   -0.3470   -0.2900 C   0  0  0  0  0  0  0  0  0  0  0  0
   -2.3770   -0.7110    1.0050 O   0  0  0  0  0  0  0  0  0  0  0  0
   -0.0380   -0.1010    0.4820 O   0  0  0  0  0  0  0  0  0  0  0  0
    1.0840   -0.8390    0.4470 C   0  0  2  0  0  0  0  0  0  0  0  0
    2.3670   -0.0710    0.4750 C   0  0  0  0  0  0  0  0  0  0  0  0
    2.3190    1.1700    0.5620 O   0  0  0  0  0  0  0  0  0  0  0  0
    3.5770   -0.7410    0.4030 O   0  0  0  0  0  0  0  0  0  0  0  0
    4.7260   -0.0500    0.4280 O   0  0  0  0  0  0  0  0  0  0  0  0
    1.0670   -1.8420   -0.6840 C   0  0  0  0  0  0  0  0  0  0  0  0
   -0.0940   -1.0260   -1.8180 S   0  0  0  0  0  0  0  0  0  0  0  0
  2  1  1  6
  2  3  1  0
  2  7  1  0
  2 14  1  0
  3  4  1  1
  3  5  1  0
  5  6  1  0
  7  8  1  0
  8  9  1  6
  8 13  1  0
  9 10  2  0
  9 11  1  0
 11 12  1  0
 13 14  1  0
M  END
