
     RDKit          3D

  8  7  0  0  0  0  0  0  0  0999 V2000
    2.6000   -0.2100   -0.7580 C   0  0  0  0  0  0  0  0  0  0  0  0
    1.4880   -0.5550   -0.1530 C   0  0  0  0  0  0  0  0  0  0  0  0
    1.5190   -1.9900    0.8920 S   0  0  0  0  0  0  0  0  0  0  0  0
    0.2500    0.2020   -0.3150 C   0  0  0  0  0  0  0  0  0  0  0  0
    0.2630    1.4270   -1.2080 C   0  0  0  0  0  0  0  0  0  0  0  0
   -0.8950   -0.0890    0.2580 C   0  0  0  0  0  0  0  0  0  0  0  0
   -1.1060   -1.2450    1.1660 C   0  0  0  0  0  0  0  0  0  0  0  0
   -2.0910    0.7700    0.0030 C   0  0  0  0  0  0  0  0  0  0  0  0
  1  2  2  0
  2  3  1  0
  2  4  1  0
  4  5  1  0
  4  6  2  3
  6  7  1  0
  6  8  1  0
M  END
