
     RDKit          3D

  8  8  0  0  0  0  0  0  0  0999 V2000
   -0.6260   -0.9660   -0.7370 C   0  0  0  0  0  0  0  0  0  0  0  0
   -1.3200   -0.3390    0.4330 C   0  0  0  0  0  0  0  0  0  0  0  0
   -1.6440    1.1230    0.1350 C   0  0  0  0  0  0  0  0  0  0  0  0
   -0.6470    2.0550    0.7550 C   0  0  0  0  0  0  0  0  0  0  0  0
    0.8640    1.2170    1.2240 S   0  0  0  0  0  0  0  0  0  0  0  0
    1.7050    0.4830   -0.1970 C   0  0  0  0  0  0  0  0  0  0  0  0
    1.7820   -0.9910    0.0050 C   0  0  0  0  0  0  0  0  0  0  0  0
    0.5860   -1.7590   -0.3810 C   0  0  0  0  0  0  0  0  0  0  0  0
  1  2  1  0
  1  8  1  0
  2  3  1  0
  3  4  1  0
  4  5  1  0
  5  6  1  0
  6  7  1  0
  7  8  1  0
M  END
