
     RDKit          3D

 14 14  0  0  0  0  0  0  0  0999 V2000
    2.8190   -0.3130    1.5790 N   0  0  0  0  0  0  0  0  0  0  0  0
    1.6970    0.2800    1.3870 C   0  0  0  0  0  0  0  0  0  0  0  0
    1.0480    0.8490    2.4700 O   0  0  0  0  0  0  0  0  0  0  0  0
    1.1120    0.3540    0.0350 C   0  0  1  0  0  0  0  0  0  0  0  0
    0.9840    1.7020   -0.2920 O   0  0  0  0  0  0  0  0  0  0  0  0
    2.1590   -0.5240   -1.1460 S   0  0  0  0  0  0  0  0  0  0  0  0
   -0.2740   -0.2890    0.0150 C   0  0  1  0  0  0  0  0  0  0  0  0
   -0.1270   -1.7380    0.3920 C   0  0  0  0  0  0  0  0  0  0  0  0
    0.7190   -2.4160   -0.4690 O   0  0  0  0  0  0  0  0  0  0  0  0
   -1.1260    0.3060    0.9180 O   0  0  0  0  0  0  0  0  0  0  0  0
   -2.3410    0.4120    0.2410 C   0  0  0  0  0  0  0  0  0  0  0  0
   -1.8210    0.8280   -1.1320 C   0  0  2  0  0  0  0  0  0  0  0  0
   -2.7710    0.6930   -2.1180 O   0  0  0  0  0  0  0  0  0  0  0  0
   -0.7810   -0.1070   -1.2530 O   0  0  0  0  0  0  0  0  0  0  0  0
  1  2  2  0
  2  3  1  0
  2  4  1  0
  4  5  1  6
  4  6  1  0
  4  7  1  0
  7  8  1  1
  7 10  1  0
  7 14  1  0
  8  9  1  0
 10 11  1  0
 11 12  1  0
 12 13  1  6
 12 14  1  0
M  END
