
     RDKit          3D

 15 16  0  0  0  0  0  0  0  0999 V2000
    3.3730    0.1000   -0.5610 C   0  0  0  0  0  0  0  0  0  0  0  0
    2.4110    0.7550    0.3280 N   0  0  0  0  0  0  0  0  0  0  0  0
    1.7360   -0.1690    1.1760 C   0  0  0  0  0  0  0  0  0  0  0  0
    0.3690   -0.5860    0.7140 C   0  0  1  0  0  0  0  0  0  0  0  0
   -0.6020    0.5410    0.5790 C   0  0  0  0  0  0  0  0  0  0  0  0
   -1.5920    0.0070   -0.4360 C   0  0  2  0  0  0  0  0  0  0  0  0
   -0.6980   -0.7540   -1.3240 N   0  0  0  0  0  0  0  0  0  0  0  0
    0.3600   -1.3040   -0.5530 C   0  0  0  0  0  0  0  0  0  0  0  0
    1.1350   -2.2260   -0.8930 O   0  0  0  0  0  0  0  0  0  0  0  0
   -2.2760    1.0100   -1.1130 O   0  0  0  0  0  0  0  0  0  0  0  0
   -3.6330    0.8770   -0.8410 C   0  0  0  0  0  0  0  0  0  0  0  0
   -4.5650    1.6390   -1.2390 O   0  0  0  0  0  0  0  0  0  0  0  0
   -3.8720   -0.2610   -0.0270 N   0  0  0  0  0  0  0  0  0  0  0  0
   -2.5920   -0.8500    0.2060 C   0  0  0  0  0  0  0  0  0  0  0  0
   -2.3400   -1.8970    0.8340 O   0  0  0  0  0  0  0  0  0  0  0  0
  1  2  1  0
  2  3  1  0
  4  3  1  6
  4  5  1  0
  4  8  1  0
  6  5  1  1
  6  7  1  0
  6 10  1  0
  6 14  1  0
  7  8  1  0
  8  9  2  0
 10 11  1  0
 11 12  2  0
 11 13  1  0
 13 14  1  0
 14 15  2  0
M  CHG  1   2   1
M  END
