
     RDKit          3D

 15 16  0  0  0  0  0  0  0  0999 V2000
    1.3810    2.3720   -1.5750 O   0  0  0  0  0  0  0  0  0  0  0  0
    0.6680    1.7700   -0.7170 C   0  0  0  0  0  0  0  0  0  0  0  0
    0.1840    2.5050    0.3750 N   0  0  0  0  0  0  0  0  0  0  0  0
   -0.6030    1.8790    1.3460 N   0  0  0  0  0  0  0  0  0  0  0  0
   -0.8760    0.4930    1.1660 C   0  0  0  0  0  0  0  0  0  0  0  0
   -1.2740   -0.1350    2.2020 O   0  0  0  0  0  0  0  0  0  0  0  0
   -0.7230   -0.2030   -0.1140 C   0  0  2  0  0  0  0  0  0  0  0  0
   -2.0100   -0.3030   -0.9000 C   0  0  0  0  0  0  0  0  0  0  0  0
   -2.7060   -1.3350   -0.1720 N   0  0  0  0  0  0  0  0  0  0  0  0
   -1.8470   -2.0540    0.4320 C   0  0  0  0  0  0  0  0  0  0  0  0
   -0.5400   -1.5990    0.1840 O   0  0  0  0  0  0  0  0  0  0  0  0
    0.4080    0.3280   -0.9520 C   0  0  2  0  0  0  0  0  0  0  0  0
    1.6690   -0.4960   -0.7900 C   0  0  0  0  0  0  0  0  0  0  0  0
    2.2490   -0.3650    0.6020 C   0  0  0  0  0  0  0  0  0  0  0  0
    3.3880   -1.1430    0.6610 O   0  0  0  0  0  0  0  0  0  0  0  0
  1  2  2  0
  2  3  1  0
  2 12  1  0
  3  4  1  0
  4  5  1  0
  5  6  2  0
  5  7  1  0
  7  8  1  6
  7 11  1  0
  7 12  1  0
  8  9  1  0
  9 10  2  0
 10 11  1  0
 12 13  1  1
 13 14  1  0
 14 15  1  0
M  CHG  1   9   1
M  END
