
     RDKit          3D

 15 16  0  0  0  0  0  0  0  0999 V2000
    0.8120   -1.6240    0.1770 N   0  0  0  0  0  0  0  0  0  0  0  0
    1.0080   -0.1880    0.1240 C   0  0  2  0  0  0  0  0  0  0  0  0
    0.0270    0.4110   -0.8760 C   0  0  0  0  0  0  0  0  0  0  0  0
   -1.3390    0.1340   -0.4810 N   0  0  0  0  0  0  0  0  0  0  0  0
   -2.0440    1.0540    0.3750 C   0  0  0  0  0  0  0  0  0  0  0  0
   -3.5280    0.8640    0.3640 C   0  0  0  0  0  0  0  0  0  0  0  0
   -3.9770   -0.5600    0.3350 C   0  0  0  0  0  0  0  0  0  0  0  0
   -3.1250   -1.4360   -0.3230 O   0  0  0  0  0  0  0  0  0  0  0  0
   -1.9390   -1.0610   -0.9640 C   0  0  0  0  0  0  0  0  0  0  0  0
   -1.4480   -1.7450   -1.9040 O   0  0  0  0  0  0  0  0  0  0  0  0
    2.4090    0.0460   -0.4010 C   0  0  1  0  0  0  0  0  0  0  0  0
    2.7660    1.4430   -0.4270 N   0  0  0  0  0  0  0  0  0  0  0  0
    4.1220    1.3870   -0.4310 O   0  0  0  0  0  0  0  0  0  0  0  0
    4.4950    0.2690    0.2750 C   0  0  0  0  0  0  0  0  0  0  0  0
    3.3620   -0.5270    0.4250 O   0  0  0  0  0  0  0  0  0  0  0  0
  2  1  1  6
  2  3  1  0
  2 11  1  0
  3  4  1  0
  4  5  1  0
  4  9  1  0
  5  6  1  0
  6  7  1  0
  7  8  1  0
  8  9  1  0
  9 10  2  0
 11 12  1  1
 11 15  1  0
 12 13  1  0
 13 14  1  0
 14 15  1  0
M  CHG  1   1   1
M  END
