
     RDKit          3D

 15 16  0  0  0  0  0  0  0  0999 V2000
   -3.0260    0.4020   -0.3440 C   0  0  0  0  0  0  0  0  0  0  0  0
   -1.6920    0.8190   -0.0610 N   0  0  0  0  0  0  0  0  0  0  0  0
   -0.9330    1.6830   -0.8800 N   0  0  0  0  0  0  0  0  0  0  0  0
    0.3260    1.5050   -0.7000 C   0  0  0  0  0  0  0  0  0  0  0  0
    1.4050    2.2270   -1.3810 C   0  0  0  0  0  0  0  0  0  0  0  0
    1.1740    3.1230   -2.2390 O   0  0  0  0  0  0  0  0  0  0  0  0
    2.7340    1.9490   -1.1030 O   0  0  0  0  0  0  0  0  0  0  0  0
    0.5220    0.4600    0.2950 C   0  0  2  0  0  0  0  0  0  0  0  0
    0.3990   -0.9490   -0.2640 C   0  0  1  0  0  0  0  0  0  0  0  0
    1.5600   -1.4070   -1.0000 C   0  0  0  0  0  0  0  0  0  0  0  0
    1.8490   -0.8500   -2.0890 O   0  0  0  0  0  0  0  0  0  0  0  0
    2.3910   -2.4350   -0.5840 O   0  0  0  0  0  0  0  0  0  0  0  0
    0.1600   -1.6730    0.9730 N   0  0  0  0  0  0  0  0  0  0  0  0
   -0.9440   -0.9040    1.5360 C   0  0  0  0  0  0  0  0  0  0  0  0
   -0.8030    0.5010    1.0620 C   0  0  2  0  0  0  0  0  0  0  0  0
  1  2  1  0
  2  3  1  0
  2 15  1  0
  3  4  2  0
  4  5  1  0
  8  4  1  6
  5  6  2  0
  5  7  1  0
  8  9  1  0
  8 15  1  0
  9 10  1  1
  9 13  1  0
 10 11  2  0
 10 12  1  0
 13 14  1  0
 15 14  1  6
M  CHG  1  13   1
M  END
