
     RDKit          3D

 15 16  0  0  0  0  0  0  0  0999 V2000
    4.7890   -0.0270    0.2430 N   0  0  0  0  0  0  0  0  0  0  0  0
    3.4090    0.3200    0.1630 C   0  0  0  0  0  0  0  0  0  0  0  0
    2.8160    1.3520    0.6510 N   0  0  0  0  0  0  0  0  0  0  0  0
    1.4650    1.3370    0.3630 O   0  0  0  0  0  0  0  0  0  0  0  0
    1.3750    0.5790   -0.8560 C   0  0  2  0  0  0  0  0  0  0  0  0
    0.0310    0.0750   -1.0950 C   0  0  0  0  0  0  0  0  0  0  0  0
   -0.1800   -0.6050   -2.1310 O   0  0  0  0  0  0  0  0  0  0  0  0
   -1.0660    0.3050   -0.2280 N   0  0  0  0  0  0  0  0  0  0  0  0
   -2.3580   -0.2170   -0.5200 C   0  0  2  0  0  0  0  0  0  0  0  0
   -3.4310    0.8340   -0.6390 C   0  0  0  0  0  0  0  0  0  0  0  0
   -3.9040    1.0060    0.6650 O   0  0  0  0  0  0  0  0  0  0  0  0
   -3.7910   -0.2010    1.3300 C   0  0  0  0  0  0  0  0  0  0  0  0
   -4.3290   -0.5450    2.4140 O   0  0  0  0  0  0  0  0  0  0  0  0
   -2.8950   -1.1260    0.5680 C   0  0  0  0  0  0  0  0  0  0  0  0
    2.3850   -0.5010   -0.5310 C   0  0  0  0  0  0  0  0  0  0  0  0
  1  2  1  0
  2  3  2  0
  2 15  1  0
  3  4  1  0
  4  5  1  0
  5  6  1  1
  5 15  1  0
  6  7  2  0
  6  8  1  0
  9  8  1  1
  9 10  1  0
  9 14  1  0
 10 11  1  0
 11 12  1  0
 12 13  2  0
 12 14  1  0
M  CHG  1   1   1
M  END
