
     RDKit          3D

 14 14  0  0  0  0  0  0  0  0999 V2000
    4.7930   -1.0130   -0.4430 N   0  0  0  0  0  0  0  0  0  0  0  0
    3.4070   -0.7470   -0.1910 C   0  0  0  0  0  0  0  0  0  0  0  0
    2.5910   -1.7040   -0.0010 O   0  0  0  0  0  0  0  0  0  0  0  0
    3.0110    0.6160   -0.1680 N   0  0  0  0  0  0  0  0  0  0  0  0
    1.6380    0.9880    0.0790 C   0  0  0  0  0  0  0  0  0  0  0  0
    1.1800    0.5150    1.4130 C   0  0  0  0  0  0  0  0  0  0  0  0
   -0.1440    0.8410    1.7200 O   0  0  0  0  0  0  0  0  0  0  0  0
   -1.2660    0.4680    1.0290 C   0  0  0  0  0  0  0  0  0  0  0  0
   -2.2490    1.3280    0.8050 C   0  0  0  0  0  0  0  0  0  0  0  0
   -3.4850    1.0500    0.0860 C   0  0  0  0  0  0  0  0  0  0  0  0
   -3.6490   -0.3150   -0.4370 C   0  0  0  0  0  0  0  0  0  0  0  0
   -2.5480   -1.2400   -0.1740 C   0  0  0  0  0  0  0  0  0  0  0  0
   -1.4650   -0.8760    0.4940 C   0  0  0  0  0  0  0  0  0  0  0  0
   -0.4380   -1.7900    0.7230 O   0  0  0  0  0  0  0  0  0  0  0  0
  1  2  1  0
  2  3  2  0
  2  4  1  0
  4  5  1  0
  5  6  1  0
  6  7  1  0
  7  8  1  0
  8  9  2  0
  8 13  1  0
  9 10  1  0
 10 11  1  0
 11 12  1  0
 12 13  2  0
 13 14  1  0
M  END
