
     RDKit          3D

 22 23  0  0  0  0  0  0  0  0999 V2000
    5.0030    2.4400   -0.3870 C   0  0  0  0  0  0  0  0  0  0  0  0
    5.4880    1.0900    0.8030 S   0  0  0  0  0  0  0  0  0  0  0  0
    3.8640    0.4420    1.4390 C   0  0  0  0  0  0  0  0  0  0  0  0
    3.3000   -0.3020    0.2450 C   0  0  0  0  0  0  0  0  0  0  0  0
    2.1850    0.0570   -0.4380 C   0  0  0  0  0  0  0  0  0  0  0  0
    1.2720    1.2250   -0.1270 C   0  0  0  0  0  0  0  0  0  0  0  0
    0.1550    0.4530    0.5870 C   0  0  0  0  0  0  0  0  0  0  0  0
    0.4670   -0.3160    1.4920 O   0  0  0  0  0  0  0  0  0  0  0  0
   -1.1620    0.6420    0.1560 N   0  0  0  0  0  0  0  0  0  0  0  0
   -2.1950   -0.3110    0.3920 C   0  0  0  0  0  0  0  0  0  0  0  0
   -1.8400   -1.2960    1.1100 O   0  0  0  0  0  0  0  0  0  0  0  0
   -3.4890   -0.0910   -0.1650 C   0  0  0  0  0  0  0  0  0  0  0  0
   -4.4720   -0.9470   -0.1240 C   0  0  0  0  0  0  0  0  0  0  0  0
   -4.2250   -2.2500    0.5270 C   0  0  0  0  0  0  0  0  0  0  0  0
   -5.6800   -0.5440   -0.7100 O   0  0  0  0  0  0  0  0  0  0  0  0
   -6.3670    0.6400   -0.3050 C   0  0  0  0  0  0  0  0  0  0  0  0
   -5.5480    1.8960   -0.3460 C   0  0  0  0  0  0  0  0  0  0  0  0
   -3.8650    1.4890   -0.9610 S   0  0  0  0  0  0  0  0  0  0  0  0
    1.9620   -0.8800   -1.3640 N   0  0  0  0  0  0  0  0  0  0  0  0
    2.8690   -1.8300   -1.3010 N   0  0  0  0  0  0  0  0  0  0  0  0
    3.7270   -1.5060   -0.3010 C   0  0  0  0  0  0  0  0  0  0  0  0
    4.8650   -2.3170    0.1870 C   0  0  0  0  0  0  0  0  0  0  0  0
  1  2  1  0
  2  3  1  0
  3  4  1  0
  4  5  1  0
  4 21  2  0
  5  6  1  0
  5 19  2  0
  6  7  1  0
  7  8  2  0
  7  9  1  0
  9 10  1  0
 10 11  2  0
 10 12  1  0
 12 13  2  0
 12 18  1  0
 13 14  1  0
 13 15  1  0
 15 16  1  0
 16 17  1  0
 17 18  1  0
 19 20  1  0
 20 21  1  0
 21 22  1  0
M  END
