
     RDKit          3D

 14 14  0  0  0  0  0  0  0  0999 V2000
   -2.0590    2.3110   -0.3270 C   0  0  0  0  0  0  0  0  0  0  0  0
   -2.4990    0.9120   -0.1180 C   0  0  0  0  0  0  0  0  0  0  0  0
   -3.7050    0.6830    0.3540 C   0  0  0  0  0  0  0  0  0  0  0  0
   -4.0900   -0.6370    0.5400 O   0  0  0  0  0  0  0  0  0  0  0  0
   -3.2940   -1.7510    0.2630 C   0  0  0  0  0  0  0  0  0  0  0  0
   -1.9580   -1.3910   -0.2630 C   0  0  0  0  0  0  0  0  0  0  0  0
   -1.5540   -0.1430   -0.4530 C   0  0  0  0  0  0  0  0  0  0  0  0
   -0.2880    0.1040   -0.9490 O   0  0  0  0  0  0  0  0  0  0  0  0
    0.8930   -0.3260   -0.3010 C   0  0  0  0  0  0  0  0  0  0  0  0
    2.1150    0.1080   -1.1050 C   0  0  0  0  0  0  0  0  0  0  0  0
    3.3110   -0.3390   -0.4320 N   0  0  0  0  0  0  0  0  0  0  0  0
    3.6130    0.0940    0.8740 C   0  0  0  0  0  0  0  0  0  0  0  0
    4.8150   -0.3820    1.5020 N   0  0  0  0  0  0  0  0  0  0  0  0
    2.8880    0.8800    1.5360 O   0  0  0  0  0  0  0  0  0  0  0  0
  1  2  1  0
  2  3  2  0
  2  7  1  0
  3  4  1  0
  4  5  1  0
  5  6  1  0
  6  7  2  0
  7  8  1  0
  8  9  1  0
  9 10  1  0
 10 11  1  0
 11 12  1  0
 12 13  1  0
 12 14  2  0
M  END
