
     RDKit          3D

 22 24  0  0  0  0  0  0  0  0999 V2000
    7.3060    1.5150   -0.2850 N   0  0  0  0  0  0  0  0  0  0  0  0
    6.8010   -0.0490   -0.8080 S   0  0  2  0  0  0  0  0  0  0  0  0
    7.5800   -1.0810   -0.0860 O   0  0  0  0  0  0  0  0  0  0  0  0
    6.9570   -0.1280   -2.3010 O   0  0  0  0  0  0  0  0  0  0  0  0
    5.1060   -0.3240   -0.4520 C   0  0  0  0  0  0  0  0  0  0  0  0
    4.5050   -1.2890    0.3280 C   0  0  0  0  0  0  0  0  0  0  0  0
    3.1720   -1.2710    0.4310 C   0  0  0  0  0  0  0  0  0  0  0  0
    2.4690   -0.3160   -0.2280 C   0  0  0  0  0  0  0  0  0  0  0  0
    1.0520   -0.0540   -0.3010 C   0  0  0  0  0  0  0  0  0  0  0  0
    0.4710    0.9620   -1.0180 C   0  0  0  0  0  0  0  0  0  0  0  0
   -0.8710    0.8810   -0.8390 N   0  0  0  0  0  0  0  0  0  0  0  0
   -1.0940   -0.1520   -0.0400 C   0  0  0  0  0  0  0  0  0  0  0  0
   -2.3550   -0.6640    0.4570 C   0  0  0  0  0  0  0  0  0  0  0  0
   -2.2970   -1.6830    1.2290 O   0  0  0  0  0  0  0  0  0  0  0  0
   -3.6070   -0.1200    0.1490 N   0  0  0  0  0  0  0  0  0  0  0  0
   -3.8460    1.0080   -0.7020 C   0  0  0  0  0  0  0  0  0  0  0  0
   -4.3260    2.1320    0.2140 C   0  0  0  0  0  0  0  0  0  0  0  0
   -5.0020    1.6160    1.3170 O   0  0  0  0  0  0  0  0  0  0  0  0
   -5.7240    0.4590    1.0240 C   0  0  0  0  0  0  0  0  0  0  0  0
   -4.8180   -0.7240    0.7420 C   0  0  0  0  0  0  0  0  0  0  0  0
    0.0780   -0.6880    0.2620 O   0  0  0  0  0  0  0  0  0  0  0  0
    3.7500    0.6080   -1.0370 S   0  0  0  0  0  0  0  0  0  0  0  0
  2  1  1  1
  2  3  2  0
  2  4  2  0
  2  5  1  0
  5  6  2  0
  5 22  1  0
  6  7  1  0
  7  8  2  0
  8  9  1  0
  8 22  1  0
  9 10  2  0
  9 21  1  0
 10 11  1  0
 11 12  2  0
 12 13  1  0
 12 21  1  0
 13 14  2  0
 13 15  1  0
 15 16  1  0
 15 20  1  0
 16 17  1  0
 17 18  1  0
 18 19  1  0
 19 20  1  0
M  END
