
     RDKit          3D

 23 24  0  0  0  0  0  0  0  0999 V2000
   -4.5770   -1.0670    0.6500 C   0  0  0  0  0  0  0  0  0  0  0  0
   -3.8900    0.2420    0.3310 C   0  0  2  0  0  0  0  0  0  0  0  0
   -4.6290    0.8260   -0.8690 C   0  0  0  0  0  0  0  0  0  0  0  0
   -2.5120   -0.0310    0.0220 N   0  0  0  0  0  0  0  0  0  0  0  0
   -1.5680    0.9570   -0.3250 C   0  0  0  0  0  0  0  0  0  0  0  0
   -1.9380    2.1480   -0.3720 O   0  0  0  0  0  0  0  0  0  0  0  0
   -0.1360    0.6150   -0.6390 C   0  0  0  0  0  0  0  0  0  0  0  0
    0.7990    1.5690   -0.9810 C   0  0  0  0  0  0  0  0  0  0  0  0
    2.3210    0.6630   -1.2520 S   0  0  0  0  0  0  0  0  0  0  0  0
    1.4460   -0.9930   -0.8440 C   0  0  0  0  0  0  0  0  0  0  0  0
    2.3000   -2.2340   -0.9120 C   0  0  0  0  0  0  0  0  0  0  0  0
    3.6200   -1.9690   -1.2680 O   0  0  0  0  0  0  0  0  0  0  0  0
    4.4590   -1.1300   -0.5060 C   0  0  0  0  0  0  0  0  0  0  0  0
    5.1580   -0.2400   -1.1430 C   0  0  0  0  0  0  0  0  0  0  0  0
    6.0880    0.7330   -0.5870 C   0  0  0  0  0  0  0  0  0  0  0  0
    6.2160    0.6100    1.1890 S   0  0  0  0  0  0  0  0  0  0  0  0
    5.1600   -0.6780    1.7720 C   0  0  0  0  0  0  0  0  0  0  0  0
    5.0840   -1.0220    3.4780 Cl  0  0  0  0  0  0  0  0  0  0  0  0
    4.4520   -1.3530    0.9150 C   0  0  0  0  0  0  0  0  0  0  0  0
    0.3880   -0.5800   -0.6310 N   0  0  0  0  0  0  0  0  0  0  0  0
   -4.0470    1.2110    1.4320 C   0  0  0  0  0  0  0  0  0  0  0  0
   -5.3160    1.6290    1.9040 N   0  0  0  0  0  0  0  0  0  0  0  0
   -3.0270    1.6940    1.9820 O   0  0  0  0  0  0  0  0  0  0  0  0
  2  1  1  1
  2  3  1  0
  2  4  1  0
  2 21  1  0
  4  5  1  0
  5  6  2  0
  5  7  1  0
  7  8  2  0
  7 20  1  0
  8  9  1  0
  9 10  1  0
 10 11  1  0
 10 20  2  0
 11 12  1  0
 12 13  1  0
 13 14  2  0
 13 19  1  0
 14 15  1  0
 15 16  1  0
 16 17  1  0
 17 18  1  0
 17 19  2  0
 21 22  1  0
 21 23  2  0
M  END
