
     RDKit          3D

 23 24  0  0  0  0  0  0  0  0999 V2000
    4.8800   -2.6240    0.7310 C   0  0  0  0  0  0  0  0  0  0  0  0
    3.9620   -1.6900    0.4540 C   0  0  0  0  0  0  0  0  0  0  0  0
    2.6830   -1.9490    0.4940 N   0  0  0  0  0  0  0  0  0  0  0  0
    1.7700   -1.2650    0.2850 C   0  0  0  0  0  0  0  0  0  0  0  0
    0.3340   -1.2990    0.2580 N   0  0  0  0  0  0  0  0  0  0  0  0
   -0.4190   -0.1700   -0.0680 C   0  0  0  0  0  0  0  0  0  0  0  0
    0.2380    0.8830   -0.3380 O   0  0  0  0  0  0  0  0  0  0  0  0
   -1.9150   -0.1640   -0.1060 C   0  0  0  0  0  0  0  0  0  0  0  0
   -2.5850    0.9350   -0.4800 C   0  0  0  0  0  0  0  0  0  0  0  0
   -3.9370    0.9140   -0.5430 C   0  0  0  0  0  0  0  0  0  0  0  0
   -4.8720    1.9800   -0.9210 C   0  0  0  0  0  0  0  0  0  0  0  0
   -6.0970    1.7430   -0.9110 O   0  0  0  0  0  0  0  0  0  0  0  0
   -4.4120    3.2580   -1.2920 N   0  0  0  0  0  0  0  0  0  0  0  0
   -5.3500    4.2980   -1.6630 C   0  0  0  0  0  0  0  0  0  0  0  0
   -4.3540   -0.7170   -0.0590 S   0  0  0  0  0  0  0  0  0  0  0  0
   -2.6290   -1.2690    0.2010 C   0  0  0  0  0  0  0  0  0  0  0  0
   -2.2990   -2.6080    0.6370 O   0  0  0  0  0  0  0  0  0  0  0  0
   -2.3540   -2.8910    2.0280 C   0  0  0  0  0  0  0  0  0  0  0  0
    2.6800    0.3270   -0.1290 S   0  0  0  0  0  0  0  0  0  0  0  0
    4.3030   -0.3880    0.1060 C   0  0  0  0  0  0  0  0  0  0  0  0
    5.3850    0.2860   -0.0520 C   0  0  0  0  0  0  0  0  0  0  0  0
    6.7400   -0.2270    0.1220 C   0  0  0  0  0  0  0  0  0  0  0  0
    7.8870    1.1290   -0.2180 Cl  0  0  0  0  0  0  0  0  0  0  0  0
  1  2  2  0
  2  3  1  0
  2 20  1  0
  3  4  2  0
  4  5  1  0
  4 19  1  0
  5  6  1  0
  6  7  2  0
  6  8  1  0
  8  9  1  0
  8 16  2  0
  9 10  2  0
 10 11  1  0
 10 15  1  0
 11 12  2  0
 11 13  1  0
 13 14  1  0
 15 16  1  0
 16 17  1  0
 17 18  1  0
 19 20  1  0
 20 21  2  3
 21 22  1  0
 22 23  1  0
M  END
