
     RDKit          3D

  7  6  0  0  0  0  0  0  0  0999 V2000
   -1.3110   -1.1990   -0.1570 C   0  0  0  0  0  0  0  0  0  0  0  0
   -1.4250    0.3020   -0.2420 C   0  0  0  0  0  0  0  0  0  0  0  0
   -0.0660    0.9050   -0.1540 C   0  0  1  0  0  0  0  0  0  0  0  0
   -0.1210    2.3170   -0.2290 O   0  0  0  0  0  0  0  0  0  0  0  0
    0.5900    0.4770    0.9580 O   0  0  0  0  0  0  0  0  0  0  0  0
    1.8030   -0.1240    0.7930 C   0  0  0  0  0  0  0  0  0  0  0  0
    1.7330   -1.2650    0.0090 O   0  0  0  0  0  0  0  0  0  0  0  0
  1  2  1  0
  2  3  1  0
  3  4  1  1
  3  5  1  0
  5  6  1  0
  6  7  1  0
M  END
