
     RDKit          3D

  6  5  0  0  0  0  0  0  0  0999 V2000
   -1.3610    0.7250   -0.1090 C   0  0  0  0  0  0  0  0  0  0  0  0
   -0.8320   -0.6520    0.1790 C   0  0  0  0  0  0  0  0  0  0  0  0
    0.6400   -0.6740    0.3510 C   0  0  0  0  0  0  0  0  0  0  0  0
    1.1690   -1.7870    0.5960 O   0  0  0  0  0  0  0  0  0  0  0  0
    1.4500    0.4340    0.2610 O   0  0  0  0  0  0  0  0  0  0  0  0
    2.7800    0.3050    0.4350 O   0  0  0  0  0  0  0  0  0  0  0  0
  1  2  1  0
  2  3  1  0
  3  4  2  0
  3  5  1  0
  5  6  1  0
M  END
