
     RDKit          3D

  6  5  0  0  0  0  0  0  0  0999 V2000
   -1.3820    1.1300   -0.7370 C   0  0  0  0  0  0  0  0  0  0  0  0
   -0.9720   -0.1860   -0.5930 O   0  0  0  0  0  0  0  0  0  0  0  0
   -0.1260   -0.3370    0.4970 C   0  0  1  0  0  0  0  0  0  0  0  0
   -0.7570   -1.1640    1.4070 O   0  0  0  0  0  0  0  0  0  0  0  0
    1.2340   -0.8650    0.0910 C   0  0  0  0  0  0  0  0  0  0  0  0
    1.8620   -0.0230   -0.7900 O   0  0  0  0  0  0  0  0  0  0  0  0
  1  2  1  0
  2  3  1  0
  3  4  1  1
  3  5  1  0
  5  6  1  0
M  END
