
     RDKit          3D

  7  6  0  0  0  0  0  0  0  0999 V2000
    2.3480    0.6790    0.4260 O   0  0  0  0  0  0  0  0  0  0  0  0
    2.2510   -0.5480    0.1860 C   0  0  0  0  0  0  0  0  0  0  0  0
    1.2500   -0.9610   -0.6440 O   0  0  0  0  0  0  0  0  0  0  0  0
    0.3040   -0.1540   -1.2660 C   0  0  0  0  0  0  0  0  0  0  0  0
   -0.5560    0.6310   -0.3080 C   0  0  0  0  0  0  0  0  0  0  0  0
   -1.3340   -0.2760    0.6230 C   0  0  0  0  0  0  0  0  0  0  0  0
   -2.0960    0.5120    1.4680 O   0  0  0  0  0  0  0  0  0  0  0  0
  1  2  2  0
  2  3  1  0
  3  4  1  0
  4  5  1  0
  5  6  1  0
  6  7  1  0
M  END
