
     RDKit          3D

 20 20  0  0  0  0  0  0  0  0999 V2000
    4.8530   -1.5360   -0.1880 C   0  0  0  0  0  0  0  0  0  0  0  0
    4.1980   -0.2190    0.0990 C   0  0  2  0  0  0  0  0  0  0  0  0
    3.6170   -0.2430    1.4620 C   0  0  0  0  0  0  0  0  0  0  0  0
    3.1410   -0.2420    2.5700 N   0  0  0  0  0  0  0  0  0  0  0  0
    3.0310   -0.1520   -0.8880 C   0  0  0  0  0  0  0  0  0  0  0  0
    3.2940   -0.1140   -2.2460 N   0  0  0  0  0  0  0  0  0  0  0  0
    1.8160   -0.1190   -0.3830 C   0  0  0  0  0  0  0  0  0  0  0  0
    0.6170   -0.0380   -1.1490 C   0  0  0  0  0  0  0  0  0  0  0  0
   -0.6400   -0.0090   -0.5600 C   0  0  0  0  0  0  0  0  0  0  0  0
   -0.7920   -0.0550    0.7160 C   0  0  0  0  0  0  0  0  0  0  0  0
   -1.5590   -0.0420    1.8400 C   0  0  0  0  0  0  0  0  0  0  0  0
   -1.1760   -0.1330    3.1140 O   0  0  0  0  0  0  0  0  0  0  0  0
   -3.0370    0.0840    1.5130 C   0  0  1  0  0  0  0  0  0  0  0  0
   -3.7000   -1.2060    1.9390 C   0  0  0  0  0  0  0  0  0  0  0  0
   -3.6300    1.3010    2.1200 C   0  0  0  0  0  0  0  0  0  0  0  0
   -5.0200    1.3570    1.8290 O   0  0  0  0  0  0  0  0  0  0  0  0
   -1.6720    0.0760   -1.5380 O   0  0  0  0  0  0  0  0  0  0  0  0
   -1.5870    0.9040   -2.6440 C   0  0  0  0  0  0  0  0  0  0  0  0
   -0.1850    0.9570   -3.2010 C   0  0  0  0  0  0  0  0  0  0  0  0
    0.6170    0.0180   -2.5400 O   0  0  0  0  0  0  0  0  0  0  0  0
  2  1  1  6
  2  3  1  0
  2  5  1  0
  3  4  3  0
  5  6  1  0
  5  7  2  3
  7  8  1  0
  8  9  2  0
  8 20  1  0
  9 10  1  0
  9 17  1  0
 10 11  2  3
 11 12  1  0
 11 13  1  0
 13 14  1  1
 13 15  1  0
 15 16  1  0
 17 18  1  0
 18 19  1  0
 19 20  1  0
M  END
