
     RDKit          3D

 20 20  0  0  0  0  0  0  0  0999 V2000
    7.1670   -1.7310   -0.0890 C   0  0  0  0  0  0  0  0  0  0  0  0
    5.9960   -1.4200    0.6440 O   0  0  0  0  0  0  0  0  0  0  0  0
    4.7560   -1.2730    0.0430 C   0  0  0  0  0  0  0  0  0  0  0  0
    4.7290   -1.4360   -1.2230 O   0  0  0  0  0  0  0  0  0  0  0  0
    3.5330   -0.9490    0.8060 C   0  0  0  0  0  0  0  0  0  0  0  0
    2.3260   -0.8510   -0.1190 C   0  0  0  0  0  0  0  0  0  0  0  0
    1.0770   -0.5140    0.7040 C   0  0  0  0  0  0  0  0  0  0  0  0
   -0.1080   -0.4090   -0.1400 C   0  0  0  0  0  0  0  0  0  0  0  0
   -0.9060    0.6450   -0.3230 C   0  0  0  0  0  0  0  0  0  0  0  0
   -0.7130    1.9250    0.3280 C   0  0  0  0  0  0  0  0  0  0  0  0
   -1.4310    3.0040    0.2300 C   0  0  0  0  0  0  0  0  0  0  0  0
   -1.0050    4.2160    1.0220 C   0  0  0  0  0  0  0  0  0  0  0  0
   -2.6430    3.0970   -0.5990 C   0  0  0  0  0  0  0  0  0  0  0  0
   -1.8960    0.2470   -1.2660 N   0  0  0  0  0  0  0  0  0  0  0  0
   -1.9760   -1.2240   -1.1540 C   0  0  2  0  0  0  0  0  0  0  0  0
   -2.7990   -1.6500    0.0140 C   0  0  1  0  0  0  0  0  0  0  0  0
   -2.2740   -1.1780    1.2120 O   0  0  0  0  0  0  0  0  0  0  0  0
   -4.2180   -1.1870   -0.1440 C   0  0  0  0  0  0  0  0  0  0  0  0
   -5.0060   -1.6950    0.9610 N   0  0  0  0  0  0  0  0  0  0  0  0
   -0.5870   -1.4850   -0.9180 O   0  0  0  0  0  0  0  0  0  0  0  0
  1  2  1  0
  2  3  1  0
  3  4  2  0
  3  5  1  0
  5  6  1  0
  6  7  1  0
  7  8  1  0
  8  9  2  0
  8 20  1  0
  9 10  1  0
  9 14  1  0
 10 11  2  3
 11 12  1  0
 11 13  1  0
 15 14  1  1
 15 16  1  0
 15 20  1  0
 16 17  1  1
 16 18  1  0
 18 19  1  0
M  END
