
     RDKit          3D

 20 20  0  0  0  0  0  0  0  0999 V2000
   -2.9690   -2.7700    1.7010 C   0  0  0  0  0  0  0  0  0  0  0  0
   -1.8920   -2.4620    1.0070 C   0  0  0  0  0  0  0  0  0  0  0  0
   -2.0250   -1.8420   -0.3190 C   0  0  0  0  0  0  0  0  0  0  0  0
   -1.3650   -0.4520   -0.3950 C   0  0  2  0  0  0  0  0  0  0  0  0
    0.0780   -0.6930   -0.0780 C   0  0  0  0  0  0  0  0  0  0  0  0
    0.9020    0.4450   -0.2730 O   0  0  0  0  0  0  0  0  0  0  0  0
    2.2820    0.3080   -0.0680 C   0  0  0  0  0  0  0  0  0  0  0  0
    2.8410    0.9800    0.9070 C   0  0  0  0  0  0  0  0  0  0  0  0
    2.1870    1.9000    1.8550 C   0  0  0  0  0  0  0  0  0  0  0  0
    0.8490    2.0750    1.7000 O   0  0  0  0  0  0  0  0  0  0  0  0
    3.0360   -0.5710   -0.9440 C   0  0  0  0  0  0  0  0  0  0  0  0
    2.2690   -1.2390   -1.9860 N   0  0  0  0  0  0  0  0  0  0  0  0
    4.2410   -0.8300   -0.9230 N   0  0  0  0  0  0  0  0  0  0  0  0
    5.4160   -0.5540   -0.2490 C   0  0  0  0  0  0  0  0  0  0  0  0
   -1.9960    0.4970    0.5490 C   0  0  0  0  0  0  0  0  0  0  0  0
   -2.3650    1.8210   -0.1090 C   0  0  1  0  0  0  0  0  0  0  0  0
   -1.2620    2.5750   -0.4660 O   0  0  0  0  0  0  0  0  0  0  0  0
   -3.1980    1.5720   -1.3540 C   0  0  0  0  0  0  0  0  0  0  0  0
   -2.6870    0.3680   -2.1140 C   0  0  0  0  0  0  0  0  0  0  0  0
   -1.4150   -0.0340   -1.7300 O   0  0  0  0  0  0  0  0  0  0  0  0
  1  2  2  0
  2  3  1  0
  4  3  1  6
  4  5  1  0
  4 15  1  0
  4 20  1  0
  5  6  1  0
  6  7  1  0
  7  8  2  3
  7 11  1  0
  8  9  1  0
  9 10  1  0
 11 12  1  0
 11 13  2  3
 13 14  1  0
 15 16  1  0
 16 17  1  6
 16 18  1  0
 18 19  1  0
 19 20  1  0
M  END
