
     RDKit          3D

 37 40  0  0  0  0  0  0  0  0999 V2000
   11.3720    0.3850   -2.0410 C   0  0  0  0  0  0  0  0  0  0  0  0
   10.9200   -0.3500   -0.9130 O   0  0  0  0  0  0  0  0  0  0  0  0
    9.5830   -0.1980   -0.5360 C   0  0  0  0  0  0  0  0  0  0  0  0
    8.8470    0.6240   -1.1810 N   0  0  0  0  0  0  0  0  0  0  0  0
    9.0290   -0.9720    0.5880 C   0  0  0  0  0  0  0  0  0  0  0  0
    7.6450   -0.6450    0.7670 N   0  0  0  0  0  0  0  0  0  0  0  0
    6.6850   -0.8470   -0.2390 C   0  0  0  0  0  0  0  0  0  0  0  0
    7.0500   -1.3360   -1.3620 O   0  0  0  0  0  0  0  0  0  0  0  0
    5.2680   -0.5170   -0.0500 C   0  0  1  0  0  0  0  0  0  0  0  0
    4.7040   -1.3650    1.0880 C   0  0  0  0  0  0  0  0  0  0  0  0
    3.2060   -1.1300    1.0710 C   0  0  0  0  0  0  0  0  0  0  0  0
    2.9350    0.2980    1.4370 C   0  0  2  0  0  0  0  0  0  0  0  0
    2.6990    0.4470    2.9380 C   0  0  0  0  0  0  0  0  0  0  0  0
    1.6690    0.6760    0.7940 N   0  0  0  0  0  0  0  0  0  0  0  0
    0.4690   -0.0390    1.1180 C   0  0  0  0  0  0  0  0  0  0  0  0
    0.4570   -0.9830    1.9350 O   0  0  0  0  0  0  0  0  0  0  0  0
   -0.7270    0.3650    0.4700 N   0  0  0  0  0  0  0  0  0  0  0  0
   -1.9710   -0.3450    0.7780 C   0  0  1  0  0  0  0  0  0  0  0  0
   -2.9390    0.6580    1.3540 C   0  0  0  0  0  0  0  0  0  0  0  0
   -4.1800   -0.0870    1.8600 C   0  0  0  0  0  0  0  0  0  0  0  0
   -4.3860   -1.2280    0.8740 C   0  0  0  0  0  0  0  0  0  0  0  0
   -3.9460   -0.8200   -0.4180 N   0  0  0  0  0  0  0  0  0  0  0  0
   -4.6870   -0.3360   -1.4670 C   0  0  0  0  0  0  0  0  0  0  0  0
   -4.0660   -0.0880   -2.5770 O   0  0  0  0  0  0  0  0  0  0  0  0
   -6.1270   -0.0530   -1.4940 C   0  0  0  0  0  0  0  0  0  0  0  0
   -7.1090   -0.0800   -0.5880 C   0  0  0  0  0  0  0  0  0  0  0  0
   -8.3740    0.2110   -0.9810 C   0  0  0  0  0  0  0  0  0  0  0  0
   -8.6220    0.5170   -2.2510 C   0  0  0  0  0  0  0  0  0  0  0  0
   -6.9700    0.4040   -3.0130 S   0  0  0  0  0  0  0  0  0  0  0  0
   -9.9290    0.8540   -2.8760 C   0  0  0  0  0  0  0  0  0  0  0  0
  -10.9450   -0.0560   -2.1600 C   0  0  0  0  0  0  0  0  0  0  0  0
  -10.8560    0.3050   -0.7260 C   0  0  0  0  0  0  0  0  0  0  0  0
   -9.5740    0.2120   -0.0370 C   0  0  0  0  0  0  0  0  0  0  0  0
   -2.4570   -0.8890   -0.5780 C   0  0  0  0  0  0  0  0  0  0  0  0
    3.9690    1.2460    0.9730 C   0  0  0  0  0  0  0  0  0  0  0  0
    5.0340    0.9080    0.2990 C   0  0  0  0  0  0  0  0  0  0  0  0
    6.0400    1.9550   -0.1350 C   0  0  0  0  0  0  0  0  0  0  0  0
  1  2  1  0
  2  3  1  0
  3  4  2  0
  3  5  1  0
  5  6  1  0
  6  7  1  0
  7  8  2  0
  9  7  1  1
  9 10  1  0
  9 36  1  0
 10 11  1  0
 11 12  1  0
 12 13  1  1
 12 14  1  0
 12 35  1  0
 14 15  1  0
 15 16  2  0
 15 17  1  0
 18 17  1  6
 18 19  1  0
 18 34  1  0
 19 20  1  0
 20 21  1  0
 21 22  1  0
 22 23  1  0
 22 34  1  0
 23 24  2  0
 23 25  1  0
 25 26  2  0
 25 29  1  0
 26 27  1  0
 27 28  2  0
 27 33  1  0
 28 29  1  0
 28 30  1  0
 30 31  1  0
 31 32  1  0
 32 33  1  0
 35 36  2  0
 36 37  1  0
M  END
