
     RDKit          3D

 37 40  0  0  0  0  0  0  0  0999 V2000
    6.8950   -1.2260    3.6980 C   0  0  0  0  0  0  0  0  0  0  0  0
    6.8680   -2.0950    2.5170 C   0  0  0  0  0  0  0  0  0  0  0  0
    5.9750   -1.8440    1.3720 C   0  0  0  0  0  0  0  0  0  0  0  0
    4.5320   -1.7390    1.7110 C   0  0  2  0  0  0  0  0  0  0  0  0
    3.7200   -1.6870    0.4320 C   0  0  0  0  0  0  0  0  0  0  0  0
    2.5750   -1.0460    0.3290 C   0  0  0  0  0  0  0  0  0  0  0  0
    1.8820   -1.0980   -1.0160 C   0  0  0  0  0  0  0  0  0  0  0  0
    0.2310   -1.7960   -0.8300 S   0  0  0  0  0  0  0  0  0  0  0  0
   -0.9970   -0.7380   -0.1730 C   0  0  0  0  0  0  0  0  0  0  0  0
   -1.7950   -1.1480    0.8600 N   0  0  0  0  0  0  0  0  0  0  0  0
   -2.6480   -0.1440    1.1760 N   0  0  0  0  0  0  0  0  0  0  0  0
   -2.5250    0.9300    0.4730 C   0  0  0  0  0  0  0  0  0  0  0  0
   -3.3770    2.1250    0.6860 C   0  0  0  0  0  0  0  0  0  0  0  0
   -3.1440    3.3340    0.1400 C   0  0  0  0  0  0  0  0  0  0  0  0
   -4.0190    4.4260    0.3010 C   0  0  0  0  0  0  0  0  0  0  0  0
   -5.1850    4.2400    1.0650 C   0  0  0  0  0  0  0  0  0  0  0  0
   -6.1160    5.3660    1.1770 C   0  0  0  0  0  0  0  0  0  0  0  0
   -6.8160    6.1950    1.2460 N   0  0  0  0  0  0  0  0  0  0  0  0
   -5.4200    3.0260    1.6180 C   0  0  0  0  0  0  0  0  0  0  0  0
   -4.5580    1.9690    1.4520 C   0  0  0  0  0  0  0  0  0  0  0  0
   -1.4450    0.6250   -0.4370 C   0  0  2  0  0  0  0  0  0  0  0  0
   -1.7400    0.9320   -1.8910 C   0  0  1  0  0  0  0  0  0  0  0  0
   -0.4540    1.1870   -2.4700 N   0  0  0  0  0  0  0  0  0  0  0  0
    0.1290    0.5390   -3.5370 C   0  0  0  0  0  0  0  0  0  0  0  0
    1.3100    0.8630   -3.9570 O   0  0  0  0  0  0  0  0  0  0  0  0
   -0.5810   -0.4930   -4.1750 N   0  0  0  0  0  0  0  0  0  0  0  0
   -1.8980   -0.7910   -3.6420 C   0  0  0  0  0  0  0  0  0  0  0  0
   -2.6490   -1.8880   -4.3500 C   0  0  0  0  0  0  0  0  0  0  0  0
   -2.4200   -0.1530   -2.6200 C   0  0  0  0  0  0  0  0  0  0  0  0
   -3.7630   -0.5520   -2.2250 C   0  0  0  0  0  0  0  0  0  0  0  0
   -4.3520    0.0200   -1.2990 O   0  0  0  0  0  0  0  0  0  0  0  0
   -4.5050   -1.5800   -2.8210 O   0  0  0  0  0  0  0  0  0  0  0  0
   -5.8020   -1.9110   -2.3790 C   0  0  0  0  0  0  0  0  0  0  0  0
    1.9070   -0.3230    1.4170 C   0  0  0  0  0  0  0  0  0  0  0  0
    2.7420   -0.3820    2.6920 C   0  0  2  0  0  0  0  0  0  0  0  0
    2.4830    0.7610    3.4280 O   0  0  0  0  0  0  0  0  0  0  0  0
    4.2220   -0.3500    2.3150 C   0  0  0  0  0  0  0  0  0  0  0  0
  1  2  1  0
  2  3  1  0
  4  3  1  6
  4  5  1  0
  4 37  1  0
  5  6  2  0
  6  7  1  0
  6 34  1  0
  7  8  1  0
  8  9  1  0
  9 10  2  0
 21  9  1  6
 10 11  1  0
 11 12  2  0
 12 13  1  0
 12 21  1  0
 13 14  2  0
 13 20  1  0
 14 15  1  0
 15 16  2  0
 16 17  1  0
 16 19  1  0
 17 18  3  0
 19 20  2  0
 21 22  1  0
 22 23  1  6
 22 29  1  0
 23 24  1  0
 24 25  2  0
 24 26  1  0
 26 27  1  0
 27 28  1  0
 27 29  2  0
 29 30  1  0
 30 31  2  0
 30 32  1  0
 32 33  1  0
 34 35  1  0
 35 36  1  1
 35 37  1  0
M  END
