
     RDKit          3D

 37 40  0  0  0  0  0  0  0  0999 V2000
    3.6060   -0.5590   -4.0340 C   0  0  0  0  0  0  0  0  0  0  0  0
    3.2840   -1.7580   -3.1750 C   0  0  0  0  0  0  0  0  0  0  0  0
    3.5590   -1.5230   -1.7030 C   0  0  1  0  0  0  0  0  0  0  0  0
    4.9720   -1.2010   -1.4640 C   0  0  0  0  0  0  0  0  0  0  0  0
    5.1460   -0.1150   -0.4270 C   0  0  1  0  0  0  0  0  0  0  0  0
    6.6110    0.2620   -0.3910 C   0  0  0  0  0  0  0  0  0  0  0  0
    4.3630    1.1160   -0.8180 C   0  0  0  0  0  0  0  0  0  0  0  0
    2.8770    0.7960   -0.9450 C   0  0  0  0  0  0  0  0  0  0  0  0
    2.5730   -0.5700   -1.1540 N   0  0  0  0  0  0  0  0  0  0  0  0
    1.3090   -1.1250   -0.8810 C   0  0  0  0  0  0  0  0  0  0  0  0
    1.2350   -2.4180   -1.0960 O   0  0  0  0  0  0  0  0  0  0  0  0
    0.0880   -0.5480   -0.4100 C   0  0  0  0  0  0  0  0  0  0  0  0
   -0.2170    0.7830   -0.2730 C   0  0  0  0  0  0  0  0  0  0  0  0
   -1.4310    1.2530    0.2520 C   0  0  0  0  0  0  0  0  0  0  0  0
   -1.6590    2.6630    0.3580 N   0  0  0  0  0  0  0  0  0  0  0  0
   -2.8830    3.1490    0.8870 C   0  0  0  0  0  0  0  0  0  0  0  0
   -3.7230    2.2750    1.2420 O   0  0  0  0  0  0  0  0  0  0  0  0
   -3.1830    4.5960    1.0260 C   0  0  1  0  0  0  0  0  0  0  0  0
   -2.1940    5.2860    1.9070 C   0  0  0  0  0  0  0  0  0  0  0  0
   -1.8240    6.6720    1.4690 C   0  0  0  0  0  0  0  0  0  0  0  0
   -3.0610    7.5740    1.3770 C   0  0  0  0  0  0  0  0  0  0  0  0
   -4.0130    6.9070   -0.0450 S   0  0  0  0  0  0  0  0  0  0  0  0
   -3.3050    5.2570   -0.3510 C   0  0  0  0  0  0  0  0  0  0  0  0
   -2.3220    0.3480    0.6310 N   0  0  0  0  0  0  0  0  0  0  0  0
   -2.1300   -0.9750    0.5430 C   0  0  0  0  0  0  0  0  0  0  0  0
   -3.1600   -1.9170    0.9780 C   0  0  0  0  0  0  0  0  0  0  0  0
   -4.3600   -1.4680    1.4900 N   0  0  0  0  0  0  0  0  0  0  0  0
   -5.1260   -2.4800    1.8130 N   0  0  0  0  0  0  0  0  0  0  0  0
   -4.4810   -3.6030    1.5360 C   0  0  0  0  0  0  0  0  0  0  0  0
   -4.9370   -5.0220    1.7260 C   0  0  0  0  0  0  0  0  0  0  0  0
   -3.2360   -3.2570    1.0070 C   0  0  0  0  0  0  0  0  0  0  0  0
   -2.2310   -4.2250    0.5850 C   0  0  0  0  0  0  0  0  0  0  0  0
   -2.2520   -4.6100   -0.6140 O   0  0  0  0  0  0  0  0  0  0  0  0
   -1.2140   -4.7580    1.5020 C   0  0  0  0  0  0  0  0  0  0  0  0
   -0.3340   -5.7270    0.7620 C   0  0  0  0  0  0  0  0  0  0  0  0
    0.6170   -6.2110    1.6660 O   0  0  0  0  0  0  0  0  0  0  0  0
   -0.9520   -1.4140    0.0340 C   0  0  0  0  0  0  0  0  0  0  0  0
  1  2  1  0
  3  2  1  6
  3  4  1  0
  3  9  1  0
  4  5  1  0
  5  6  1  6
  5  7  1  0
  7  8  1  0
  8  9  1  0
  9 10  1  0
 10 11  2  0
 10 12  1  0
 12 13  2  0
 12 37  1  0
 13 14  1  0
 14 15  1  0
 14 24  2  0
 15 16  1  0
 16 17  2  0
 18 16  1  6
 18 19  1  0
 18 23  1  0
 19 20  1  0
 20 21  1  0
 21 22  1  0
 22 23  1  0
 24 25  1  0
 25 26  1  0
 25 37  2  0
 26 27  2  0
 26 31  1  0
 27 28  1  0
 28 29  1  0
 29 30  1  0
 29 31  2  0
 31 32  1  0
 32 33  2  0
 32 34  1  0
 34 35  1  0
 35 36  1  0
M  END
