
     RDKit          3D

 15 16  0  0  0  0  0  0  0  0999 V2000
   -1.9480   -1.0050   -0.7810 C   0  0  0  0  0  0  0  0  0  0  0  0
   -2.2130   -0.0850    0.3670 C   0  0  2  0  0  0  0  0  0  0  0  0
   -2.1440    1.3070   -0.0620 N   0  0  0  0  0  0  0  0  0  0  0  0
   -1.4420   -0.3470    1.6030 C   0  0  0  0  0  0  0  0  0  0  0  0
    0.0360   -0.2840    1.5130 C   0  0  2  0  0  0  0  0  0  0  0  0
    0.5630    0.9050    1.1110 O   0  0  0  0  0  0  0  0  0  0  0  0
    1.4300    0.7470    0.0730 C   0  0  1  0  0  0  0  0  0  0  0  0
    2.7660    1.3320    0.2320 C   0  0  0  0  0  0  0  0  0  0  0  0
    3.0580    2.3370    0.9050 O   0  0  0  0  0  0  0  0  0  0  0  0
    3.6860    0.5540   -0.5190 N   0  0  0  0  0  0  0  0  0  0  0  0
    3.0270   -0.7280   -0.6490 C   0  0  0  0  0  0  0  0  0  0  0  0
    3.4440   -1.7520   -1.2330 O   0  0  0  0  0  0  0  0  0  0  0  0
    1.7690   -0.6740    0.0120 N   0  0  0  0  0  0  0  0  0  0  0  0
    0.6670   -1.3060    0.6490 C   0  0  0  0  0  0  0  0  0  0  0  0
    0.3780   -2.5160    0.4410 O   0  0  0  0  0  0  0  0  0  0  0  0
  2  1  1  6
  2  3  1  0
  2  4  1  0
  5  4  1  6
  5  6  1  0
  5 14  1  0
  7  6  1  1
  7  8  1  0
  7 13  1  0
  8  9  2  0
  8 10  1  0
 10 11  1  0
 11 12  2  0
 11 13  1  0
 13 14  1  0
 14 15  2  0
M  CHG  1   3   1
M  END
