
     RDKit          3D

 15 16  0  0  0  0  0  0  0  0999 V2000
   -0.8780   -1.6480   -1.2690 N   0  0  0  0  0  0  0  0  0  0  0  0
   -1.0350   -0.2350   -0.9690 C   0  0  2  0  0  0  0  0  0  0  0  0
   -0.2300    0.2090    0.1930 C   0  0  0  0  0  0  0  0  0  0  0  0
    1.1710    0.0630    0.1320 N   0  0  0  0  0  0  0  0  0  0  0  0
    1.9040    1.2130   -0.4330 C   0  0  0  0  0  0  0  0  0  0  0  0
    3.3590    1.1460   -0.2200 C   0  0  0  0  0  0  0  0  0  0  0  0
    4.0080   -0.1570   -0.0360 C   0  0  0  0  0  0  0  0  0  0  0  0
    3.1820   -1.1770    0.4880 O   0  0  0  0  0  0  0  0  0  0  0  0
    1.8230   -1.0880    0.5730 C   0  0  0  0  0  0  0  0  0  0  0  0
    1.1710   -2.0330    1.0430 O   0  0  0  0  0  0  0  0  0  0  0  0
   -2.5080   -0.1220   -0.5260 C   0  0  1  0  0  0  0  0  0  0  0  0
   -2.7480   -0.8490    0.6860 N   0  0  0  0  0  0  0  0  0  0  0  0
   -3.8070   -0.1920    1.2370 O   0  0  0  0  0  0  0  0  0  0  0  0
   -3.6610    1.1400    0.9170 C   0  0  0  0  0  0  0  0  0  0  0  0
   -2.8320    1.1810   -0.1980 O   0  0  0  0  0  0  0  0  0  0  0  0
  2  1  1  1
  2  3  1  0
  2 11  1  0
  3  4  1  0
  4  5  1  0
  4  9  1  0
  5  6  1  0
  6  7  1  0
  7  8  1  0
  8  9  1  0
  9 10  2  0
 11 12  1  1
 11 15  1  0
 12 13  1  0
 13 14  1  0
 14 15  1  0
M  CHG  1   1   1
M  END
