
     RDKit          3D

 15 16  0  0  0  0  0  0  0  0999 V2000
   -3.7660    1.4460    1.8090 O   0  0  0  0  0  0  0  0  0  0  0  0
   -3.1890    0.7090    0.9680 C   0  0  0  0  0  0  0  0  0  0  0  0
   -3.6640    0.6120   -0.3710 N   0  0  0  0  0  0  0  0  0  0  0  0
   -2.9770   -0.2300   -1.2710 C   0  0  0  0  0  0  0  0  0  0  0  0
   -3.4550   -0.4810   -2.4040 O   0  0  0  0  0  0  0  0  0  0  0  0
   -1.6940   -0.8290   -0.9070 C   0  0  1  0  0  0  0  0  0  0  0  0
   -0.5490    0.1290   -1.1140 C   0  0  0  0  0  0  0  0  0  0  0  0
    0.3460   -0.0190    0.0090 N   0  0  2  0  0  0  0  0  0  0  0  0
    1.6870   -0.0770   -0.4890 C   0  0  0  0  0  0  0  0  0  0  0  0
    2.7000    0.4890    0.4800 C   0  0  0  0  0  0  0  0  0  0  0  0
    4.0170    0.3830   -0.1180 N   0  0  0  0  0  0  0  0  0  0  0  0
    4.8940    0.9080    0.7960 O   0  0  0  0  0  0  0  0  0  0  0  0
   -0.0590   -1.2210    0.7110 C   0  0  0  0  0  0  0  0  0  0  0  0
   -1.5860   -1.1200    0.5790 C   0  0  1  0  0  0  0  0  0  0  0  0
   -2.0630   -0.0300    1.3470 O   0  0  0  0  0  0  0  0  0  0  0  0
  1  2  2  0
  2  3  1  0
  2 15  1  0
  3  4  1  0
  4  5  2  0
  4  6  1  0
  6  7  1  1
  6 14  1  0
  7  8  1  0
  8  9  1  6
  8 13  1  0
  9 10  1  0
 10 11  1  0
 11 12  1  0
 14 13  1  1
 14 15  1  0
M  CHG  1   8   1
M  END
