
     RDKit          3D

 15 16  0  0  0  0  0  0  0  0999 V2000
    0.6960   -2.1360   -1.7230 O   0  0  0  0  0  0  0  0  0  0  0  0
   -0.0250   -1.8370   -0.7690 C   0  0  0  0  0  0  0  0  0  0  0  0
   -1.3040   -2.3780   -0.5090 N   0  0  0  0  0  0  0  0  0  0  0  0
   -2.1940   -1.6820    0.3430 N   0  0  0  0  0  0  0  0  0  0  0  0
   -1.7880   -0.4680    0.9110 C   0  0  0  0  0  0  0  0  0  0  0  0
   -2.3550    0.0510    1.8590 O   0  0  0  0  0  0  0  0  0  0  0  0
   -0.5880    0.1960    0.2920 C   0  0  2  0  0  0  0  0  0  0  0  0
   -0.3580    1.5760    0.7160 C   0  0  0  0  0  0  0  0  0  0  0  0
   -1.7000    2.1430    0.3460 N   0  0  0  0  0  0  0  0  0  0  0  0
   -2.0740    1.4850   -0.6880 C   0  0  0  0  0  0  0  0  0  0  0  0
   -1.1000    0.5150   -1.0470 O   0  0  0  0  0  0  0  0  0  0  0  0
    0.5080   -0.7930    0.2170 C   0  0  2  0  0  0  0  0  0  0  0  0
    1.8320   -0.3430   -0.2050 C   0  0  0  0  0  0  0  0  0  0  0  0
    2.5370    0.6040    0.7010 C   0  0  0  0  0  0  0  0  0  0  0  0
    3.7880    0.9170    0.1180 O   0  0  0  0  0  0  0  0  0  0  0  0
  1  2  2  0
  2  3  1  0
  2 12  1  0
  3  4  1  0
  4  5  1  0
  5  6  2  0
  5  7  1  0
  7  8  1  1
  7 11  1  0
  7 12  1  0
  8  9  1  0
  9 10  2  0
 10 11  1  0
 12 13  1  6
 13 14  1  0
 14 15  1  0
M  CHG  1   9   1
M  END
