
     RDKit          3D

 15 16  0  0  0  0  0  0  0  0999 V2000
    5.1910    0.2980    0.2230 O   0  0  0  0  0  0  0  0  0  0  0  0
    3.9300    0.1440    0.1380 C   0  0  0  0  0  0  0  0  0  0  0  0
    3.3390   -1.1420    0.2520 N   0  0  0  0  0  0  0  0  0  0  0  0
    1.9280   -1.3940    0.0700 C   0  0  0  0  0  0  0  0  0  0  0  0
    1.1130   -0.1400   -0.0070 C   0  0  2  0  0  0  0  0  0  0  0  0
   -0.1300   -0.3330   -0.7260 N   0  0  0  0  0  0  0  0  0  0  0  0
   -1.2190    0.1920    0.0580 C   0  0  1  0  0  0  0  0  0  0  0  0
   -2.1100    1.1150   -0.7160 C   0  0  0  0  0  0  0  0  0  0  0  0
   -3.2270    1.5790    0.1950 C   0  0  0  0  0  0  0  0  0  0  0  0
   -3.2820    0.8550    1.4080 O   0  0  0  0  0  0  0  0  0  0  0  0
   -3.1000   -0.5230    1.3010 N   0  0  0  0  0  0  0  0  0  0  0  0
   -2.0670   -0.8840    0.6260 C   0  0  0  0  0  0  0  0  0  0  0  0
   -1.7000   -2.1990    0.3970 O   0  0  0  0  0  0  0  0  0  0  0  0
    1.8440    1.0070   -0.6600 C   0  0  0  0  0  0  0  0  0  0  0  0
    3.1030    1.2330   -0.0690 O   0  0  0  0  0  0  0  0  0  0  0  0
  1  2  2  0
  2  3  1  0
  2 15  1  0
  3  4  1  0
  4  5  1  0
  5  6  1  6
  5 14  1  0
  7  6  1  6
  7  8  1  0
  7 12  1  0
  8  9  1  0
  9 10  1  0
 10 11  1  0
 11 12  2  0
 12 13  1  0
 14 15  1  0
M  CHG  1   6   1
M  END
