
     RDKit          3D

 31 35  0  0  0  0  0  0  0  0999 V2000
    6.2970    2.1520   -1.8400 C   0  0  0  0  0  0  0  0  0  0  0  0
    6.5480    1.7900   -0.3840 C   0  0  0  0  0  0  0  0  0  0  0  0
    6.2330    0.3240   -0.1260 C   0  0  2  0  0  0  0  0  0  0  0  0
    7.0920   -0.5050   -0.9810 N   0  0  0  0  0  0  0  0  0  0  0  0
    4.8190   -0.0020   -0.4690 C   0  0  0  0  0  0  0  0  0  0  0  0
    3.8140    0.7910    0.3160 C   0  0  2  0  0  0  0  0  0  0  0  0
    3.9070    0.5900    1.7970 C   0  0  0  0  0  0  0  0  0  0  0  0
    2.8150   -0.2810    2.1850 N   0  0  0  0  0  0  0  0  0  0  0  0
    1.9260   -0.3660    1.1040 C   0  0  0  0  0  0  0  0  0  0  0  0
    0.6490   -0.9500    1.0090 C   0  0  0  0  0  0  0  0  0  0  0  0
   -0.0450   -0.9130   -0.1640 C   0  0  0  0  0  0  0  0  0  0  0  0
   -1.3370   -1.5140   -0.2540 N   0  0  0  0  0  0  0  0  0  0  0  0
   -1.6230   -2.8680   -0.0050 C   0  0  0  0  0  0  0  0  0  0  0  0
   -0.8180   -3.7700    0.4150 O   0  0  0  0  0  0  0  0  0  0  0  0
   -3.0290   -3.0470   -0.3210 C   0  0  0  0  0  0  0  0  0  0  0  0
   -3.7590   -4.2520   -0.2780 C   0  0  0  0  0  0  0  0  0  0  0  0
   -5.0780   -4.2460   -0.6720 C   0  0  0  0  0  0  0  0  0  0  0  0
   -5.6430   -3.0750   -1.0930 C   0  0  0  0  0  0  0  0  0  0  0  0
   -4.9120   -1.9200   -1.1240 C   0  0  0  0  0  0  0  0  0  0  0  0
   -3.5570   -1.8500   -0.7330 C   0  0  0  0  0  0  0  0  0  0  0  0
   -2.5730   -0.8550   -0.6120 C   0  0  1  0  0  0  0  0  0  0  0  0
   -2.7270    0.3910    0.1640 C   0  0  2  0  0  0  0  0  0  0  0  0
   -2.8380    0.3690    1.6090 C   0  0  0  0  0  0  0  0  0  0  0  0
   -3.0720    1.8340    2.0440 C   0  0  0  0  0  0  0  0  0  0  0  0
   -4.5190    2.0580    1.6010 C   0  0  0  0  0  0  0  0  0  0  0  0
   -4.6710    1.9760    0.1870 N   0  0  2  0  0  0  0  0  0  0  0  0
   -5.9830    1.4860   -0.2170 C   0  0  0  0  0  0  0  0  0  0  0  0
   -3.5760    1.4130   -0.5030 C   0  0  0  0  0  0  0  0  0  0  0  0
    0.4970   -0.3050   -1.2580 C   0  0  0  0  0  0  0  0  0  0  0  0
    1.7630    0.2830   -1.1920 C   0  0  0  0  0  0  0  0  0  0  0  0
    2.4530    0.2400   -0.0070 C   0  0  0  0  0  0  0  0  0  0  0  0
  1  2  1  0
  2  3  1  0
  3  4  1  6
  3  5  1  0
  6  5  1  6
  6  7  1  0
  6 31  1  0
  7  8  1  0
  8  9  1  0
  9 10  2  0
  9 31  1  0
 10 11  1  0
 11 12  1  0
 11 29  2  0
 12 13  1  0
 21 12  1  1
 13 14  2  0
 13 15  1  0
 15 16  2  0
 15 20  1  0
 16 17  1  0
 17 18  2  0
 18 19  1  0
 19 20  2  0
 20 21  1  0
 21 22  1  0
 22 23  1  1
 22 28  1  0
 23 24  1  0
 24 25  1  0
 25 26  1  0
 26 27  1  1
 26 28  1  0
 29 30  1  0
 30 31  2  0
M  CHG  2   4   1  26   1
M  END
