
     RDKit          3D

 32 36  0  0  0  0  0  0  0  0999 V2000
   -6.6650   -1.1550   -0.0100 C   0  0  0  0  0  0  0  0  0  0  0  0
   -6.3290    0.2260    0.5540 C   0  0  1  0  0  0  0  0  0  0  0  0
   -5.1580    0.1940    1.4670 C   0  0  0  0  0  0  0  0  0  0  0  0
   -3.8660    0.2140    0.9190 N   0  0  1  0  0  0  0  0  0  0  0  0
   -3.0590   -0.8810    1.4580 C   0  0  0  0  0  0  0  0  0  0  0  0
   -1.6940   -0.9220    0.8340 C   0  0  0  0  0  0  0  0  0  0  0  0
   -1.3450   -1.9980    0.1810 C   0  0  0  0  0  0  0  0  0  0  0  0
    0.1510   -2.3190   -0.6290 Cl  0  0  0  0  0  0  0  0  0  0  0  0
   -0.8430    0.2500    1.0270 C   0  0  1  0  0  0  0  0  0  0  0  0
   -0.3940    0.3410    2.4330 N   0  0  0  0  0  0  0  0  0  0  0  0
    0.7950   -0.5210    2.4560 C   0  0  0  0  0  0  0  0  0  0  0  0
    1.4420   -0.2660    1.1350 C   0  0  0  0  0  0  0  0  0  0  0  0
    2.7420   -0.3920    0.7000 C   0  0  0  0  0  0  0  0  0  0  0  0
    3.1310   -0.0750   -0.5760 C   0  0  0  0  0  0  0  0  0  0  0  0
    4.4160   -0.1800   -1.1100 N   0  0  0  0  0  0  0  0  0  0  0  0
    5.5480   -0.7380   -0.5070 C   0  0  0  0  0  0  0  0  0  0  0  0
    5.4580   -1.2150    0.6470 O   0  0  0  0  0  0  0  0  0  0  0  0
    6.8790   -0.7950   -1.1770 C   0  0  1  0  0  0  0  0  0  0  0  0
    7.4180    0.5180   -1.5550 C   0  0  0  0  0  0  0  0  0  0  0  0
    7.8930    1.3370   -0.5930 C   0  0  0  0  0  0  0  0  0  0  0  0
    7.8430    0.8620    0.8100 C   0  0  0  0  0  0  0  0  0  0  0  0
    8.2100   -0.5760    0.9290 C   0  0  0  0  0  0  0  0  0  0  0  0
    7.8620   -1.4390   -0.2370 C   0  0  0  0  0  0  0  0  0  0  0  0
    2.1010    0.3880   -1.4080 C   0  0  0  0  0  0  0  0  0  0  0  0
    0.7970    0.5160   -0.9790 C   0  0  0  0  0  0  0  0  0  0  0  0
    0.4380    0.1840    0.3260 C   0  0  0  0  0  0  0  0  0  0  0  0
   -3.7630    0.1220   -0.5090 C   0  0  0  0  0  0  0  0  0  0  0  0
   -4.0900    1.4030   -1.2260 C   0  0  1  0  0  0  0  0  0  0  0  0
   -4.9600    1.0030   -2.4230 C   0  0  0  0  0  0  0  0  0  0  0  0
   -6.2090    0.6480   -1.8320 N   0  0  0  0  0  0  0  0  0  0  0  0
   -6.2920    1.2590   -0.5220 C   0  0  2  0  0  0  0  0  0  0  0  0
   -5.1330    2.2080   -0.4370 C   0  0  0  0  0  0  0  0  0  0  0  0
  2  1  1  6
  2  3  1  0
  2 31  1  0
  3  4  1  0
  4  5  1  1
  4 27  1  0
  5  6  1  0
  6  7  2  3
  9  6  1  1
  7  8  1  0
  9 10  1  0
  9 26  1  0
 10 11  1  0
 11 12  1  0
 12 13  2  0
 12 26  1  0
 13 14  1  0
 14 15  1  0
 14 24  2  0
 15 16  1  0
 16 17  2  0
 18 16  1  1
 18 19  1  0
 18 23  1  0
 19 20  2  0
 20 21  1  0
 21 22  1  0
 22 23  1  0
 24 25  1  0
 25 26  2  0
 28 27  1  1
 28 29  1  0
 28 32  1  0
 29 30  1  0
 31 30  1  6
 31 32  1  0
M  CHG  1   4   1
M  END
