
     RDKit          3D

 31 35  0  0  0  0  0  0  0  0999 V2000
   -8.3790   -1.0820    1.3480 C   0  0  0  0  0  0  0  0  0  0  0  0
   -7.1650   -0.2610    1.1020 C   0  0  0  0  0  0  0  0  0  0  0  0
   -6.7950    0.6970    2.0200 C   0  0  0  0  0  0  0  0  0  0  0  0
   -5.6660    1.4380    1.7590 C   0  0  0  0  0  0  0  0  0  0  0  0
   -5.1550    2.6660    2.8930 Cl  0  0  0  0  0  0  0  0  0  0  0  0
   -4.9300    1.2250    0.6150 C   0  0  0  0  0  0  0  0  0  0  0  0
   -5.2810    0.2700   -0.3190 C   0  0  0  0  0  0  0  0  0  0  0  0
   -4.5300   -0.0020   -1.5550 C   0  0  1  0  0  0  0  0  0  0  0  0
   -3.2010    0.6760   -1.6140 C   0  0  0  0  0  0  0  0  0  0  0  0
   -2.2610    0.0620   -0.7040 N   0  0  2  0  0  0  0  0  0  0  0  0
   -1.0090    0.7960   -0.6570 C   0  0  0  0  0  0  0  0  0  0  0  0
   -0.3930    0.6560    0.7370 C   0  0  0  0  0  0  0  0  0  0  0  0
    0.9100    1.4030    0.8210 C   0  0  0  0  0  0  0  0  0  0  0  0
    1.9140    0.9940   -0.0670 N   0  0  0  0  0  0  0  0  0  0  0  0
    3.0940    1.7710    0.0820 C   0  0  0  0  0  0  0  0  0  0  0  0
    4.3650    1.0440    0.1650 C   0  0  0  0  0  0  0  0  0  0  0  0
    5.4510    1.5630    0.8850 C   0  0  0  0  0  0  0  0  0  0  0  0
    6.6090    0.8270    0.9020 C   0  0  0  0  0  0  0  0  0  0  0  0
    6.6940   -0.3760    0.2330 C   0  0  0  0  0  0  0  0  0  0  0  0
    7.9920   -1.1050    0.3000 C   0  0  2  0  0  0  0  0  0  0  0  0
    8.8660   -0.8510    1.5420 C   0  0  0  0  0  0  0  0  0  0  0  0
    9.2500   -0.2110    0.2470 C   0  0  0  0  0  0  0  0  0  0  0  0
    5.6460   -0.8600   -0.4510 N   0  0  0  0  0  0  0  0  0  0  0  0
    4.5090   -0.1550   -0.4770 C   0  0  0  0  0  0  0  0  0  0  0  0
    3.2980   -0.6490   -1.2210 C   0  0  1  0  0  0  0  0  0  0  0  0
    3.3620   -1.9950   -1.4760 O   0  0  0  0  0  0  0  0  0  0  0  0
    2.1470   -0.3860   -0.2310 C   0  0  0  0  0  0  0  0  0  0  0  0
   -2.0290   -1.3040   -1.2070 C   0  0  0  0  0  0  0  0  0  0  0  0
   -3.3610   -2.0220   -0.9860 C   0  0  0  0  0  0  0  0  0  0  0  0
   -4.3540   -1.4070   -1.8390 N   0  0  0  0  0  0  0  0  0  0  0  0
   -6.4130   -0.4610   -0.0440 C   0  0  0  0  0  0  0  0  0  0  0  0
  1  2  1  0
  2  3  2  0
  2 31  1  0
  3  4  1  0
  4  5  1  0
  4  6  2  0
  6  7  1  0
  8  7  1  1
  7 31  2  0
  8  9  1  0
  8 30  1  0
  9 10  1  0
 10 11  1  6
 10 28  1  0
 11 12  1  0
 12 13  1  0
 13 14  1  0
 14 15  1  0
 14 27  1  0
 15 16  1  0
 16 17  2  0
 16 24  1  0
 17 18  1  0
 18 19  2  0
 20 19  1  1
 19 23  1  0
 20 21  1  0
 20 22  1  0
 21 22  1  0
 23 24  2  0
 24 25  1  0
 25 26  1  1
 25 27  1  0
 28 29  1  0
 29 30  1  0
M  CHG  2  10   1  30   1
M  END
