
     RDKit          3D

 32 35  0  0  0  0  0  0  0  0999 V2000
    5.7870    0.9330   -1.6370 O   0  0  0  0  0  0  0  0  0  0  0  0
    4.4510    0.6650   -1.3480 C   0  0  0  0  0  0  0  0  0  0  0  0
    4.3570   -0.0100   -0.0190 C   0  0  0  0  0  0  0  0  0  0  0  0
    3.1860   -0.4210    0.5850 C   0  0  0  0  0  0  0  0  0  0  0  0
    1.8400   -0.2410   -0.0190 C   0  0  0  0  0  0  0  0  0  0  0  0
    0.8710   -0.7850    0.8880 N   0  0  0  0  0  0  0  0  0  0  0  0
   -0.4980   -0.3730    0.5370 C   0  0  1  0  0  0  0  0  0  0  0  0
   -0.6840   -0.4680   -0.9320 C   0  0  0  0  0  0  0  0  0  0  0  0
   -1.1230    0.5050   -1.7200 C   0  0  0  0  0  0  0  0  0  0  0  0
   -1.5020    1.8620   -1.2290 C   0  0  0  0  0  0  0  0  0  0  0  0
   -2.6630    2.3750   -2.0540 C   0  0  0  0  0  0  0  0  0  0  0  0
   -3.7120    3.0020   -1.2170 C   0  0  0  0  0  0  0  0  0  0  0  0
   -4.6810    2.3370   -0.6060 C   0  0  0  0  0  0  0  0  0  0  0  0
   -4.8200    0.8570   -0.7010 C   0  0  0  0  0  0  0  0  0  0  0  0
   -4.7230    0.2320    0.6690 C   0  0  1  0  0  0  0  0  0  0  0  0
   -6.0540   -0.2360    1.1920 C   0  0  1  0  0  0  0  0  0  0  0  0
   -7.1960    1.1230    1.2020 Cl  0  0  0  0  0  0  0  0  0  0  0  0
   -6.6470   -1.3420    0.3560 C   0  0  0  0  0  0  0  0  0  0  0  0
   -5.5370   -2.2970   -0.0350 C   0  0  0  0  0  0  0  0  0  0  0  0
   -4.3540   -2.1340    0.8970 C   0  0  0  0  0  0  0  0  0  0  0  0
   -3.7540   -0.8480    0.7030 N   0  0  2  0  0  0  0  0  0  0  0  0
   -2.7170   -0.6170    1.6930 C   0  0  0  0  0  0  0  0  0  0  0  0
   -1.4170   -1.2560    1.3110 C   0  0  0  0  0  0  0  0  0  0  0  0
    3.5040   -1.0010    1.8010 C   0  0  0  0  0  0  0  0  0  0  0  0
    4.8390   -0.9320    1.9090 N   0  0  0  0  0  0  0  0  0  0  0  0
    5.3370   -0.3460    0.8320 N   0  0  0  0  0  0  0  0  0  0  0  0
    6.7060   -0.1180    0.6270 C   0  0  0  0  0  0  0  0  0  0  0  0
    7.2830    1.0240    1.1300 C   0  0  0  0  0  0  0  0  0  0  0  0
    8.6220    1.2240    0.9160 C   0  0  0  0  0  0  0  0  0  0  0  0
    9.3550    0.3040    0.2190 C   0  0  0  0  0  0  0  0  0  0  0  0
    8.7680   -0.8480   -0.2860 C   0  0  0  0  0  0  0  0  0  0  0  0
    7.4210   -1.0730   -0.0850 C   0  0  0  0  0  0  0  0  0  0  0  0
  1  2  1  0
  2  3  1  0
  3  4  2  0
  3 26  1  0
  4  5  1  0
  4 24  1  0
  5  6  1  0
  7  6  1  6
  7  8  1  0
  7 23  1  0
  8  9  2  0
  9 10  1  0
 10 11  1  0
 11 12  1  0
 12 13  2  0
 13 14  1  0
 15 14  1  6
 15 16  1  0
 15 21  1  0
 16 17  1  6
 16 18  1  0
 18 19  1  0
 19 20  1  0
 21 20  1  1
 21 22  1  0
 22 23  1  0
 24 25  2  0
 25 26  1  0
 26 27  1  0
 27 28  2  0
 27 32  1  0
 28 29  1  0
 29 30  2  0
 30 31  1  0
 31 32  2  0
M  CHG  2   6   1  21   1
M  END
