
     RDKit          3D

 32 36  0  0  0  0  0  0  0  0999 V2000
   -8.2600    1.6930   -1.6770 C   0  0  0  0  0  0  0  0  0  0  0  0
   -7.6110    0.5730   -0.8850 C   0  0  0  0  0  0  0  0  0  0  0  0
   -6.4700    0.0970   -1.6310 N   0  0  0  0  0  0  0  0  0  0  0  0
   -5.4680   -0.5190   -0.8360 C   0  0  2  0  0  0  0  0  0  0  0  0
   -5.9940   -1.1680    0.4210 C   0  0  0  0  0  0  0  0  0  0  0  0
   -4.8520   -1.9790    1.0030 C   0  0  0  0  0  0  0  0  0  0  0  0
   -3.6660   -1.1150    1.3460 C   0  0  0  0  0  0  0  0  0  0  0  0
   -3.1970   -0.2710    0.1840 C   0  0  1  0  0  0  0  0  0  0  0  0
   -4.3450    0.4080   -0.5250 C   0  0  2  0  0  0  0  0  0  0  0  0
   -4.6780    1.5090    0.4220 C   0  0  0  0  0  0  0  0  0  0  0  0
   -3.3000    2.0120    0.8040 C   0  0  0  0  0  0  0  0  0  0  0  0
   -2.4510    0.8380    0.7530 N   0  0  0  0  0  0  0  0  0  0  0  0
   -1.1020    0.8220    1.2020 C   0  0  0  0  0  0  0  0  0  0  0  0
   -0.5410    1.8470    1.6860 O   0  0  0  0  0  0  0  0  0  0  0  0
   -0.2960   -0.3590    1.1330 N   0  0  0  0  0  0  0  0  0  0  0  0
    1.0660   -0.3360    1.5970 C   0  0  1  0  0  0  0  0  0  0  0  0
    1.3800   -1.3810    2.6200 C   0  0  0  0  0  0  0  0  0  0  0  0
    2.8830   -1.6310    2.4690 C   0  0  0  0  0  0  0  0  0  0  0  0
    3.3200   -0.7830    1.2990 C   0  0  1  0  0  0  0  0  0  0  0  0
    4.4270   -1.3490    0.5840 N   0  0  0  0  0  0  0  0  0  0  0  0
    4.8910   -0.5760   -0.5090 C   0  0  2  0  0  0  0  0  0  0  0  0
    5.4690   -1.5020   -1.5790 C   0  0  0  0  0  0  0  0  0  0  0  0
    6.0350   -0.7750   -2.7440 C   0  0  0  0  0  0  0  0  0  0  0  0
    5.9630    0.7120   -2.6580 C   0  0  0  0  0  0  0  0  0  0  0  0
    6.4700    1.0990   -1.2930 C   0  0  0  0  0  0  0  0  0  0  0  0
    7.4290    2.0540   -1.1190 C   0  0  0  0  0  0  0  0  0  0  0  0
    7.8500    2.3620    0.1580 C   0  0  0  0  0  0  0  0  0  0  0  0
    9.0910    3.5970    0.4140 Cl  0  0  0  0  0  0  0  0  0  0  0  0
    7.2850    1.6900    1.2220 C   0  0  0  0  0  0  0  0  0  0  0  0
    6.3140    0.7190    1.0760 C   0  0  0  0  0  0  0  0  0  0  0  0
    5.9130    0.4330   -0.2140 C   0  0  0  0  0  0  0  0  0  0  0  0
    2.0510   -0.7080    0.4790 C   0  0  0  0  0  0  0  0  0  0  0  0
  1  2  1  0
  2  3  1  0
  4  3  1  1
  4  5  1  0
  4  9  1  0
  5  6  1  0
  6  7  1  0
  8  7  1  1
  8  9  1  0
  8 12  1  0
  9 10  1  1
 10 11  1  0
 11 12  1  0
 12 13  1  0
 13 14  2  0
 13 15  1  0
 16 15  1  6
 16 17  1  0
 16 32  1  0
 17 18  1  0
 18 19  1  0
 19 20  1  6
 19 32  1  0
 21 20  1  1
 21 22  1  0
 21 31  1  0
 22 23  1  0
 23 24  1  0
 24 25  1  0
 25 26  2  0
 25 31  1  0
 26 27  1  0
 27 28  1  0
 27 29  2  0
 29 30  1  0
 30 31  2  0
M  CHG  2   3   1  20   1
M  END
