
     RDKit          3D

 32 35  0  0  0  0  0  0  0  0999 V2000
   -7.4370    0.3440   -2.5930 C   0  0  0  0  0  0  0  0  0  0  0  0
   -6.8570   -0.8470   -1.8980 C   0  0  2  0  0  0  0  0  0  0  0  0
   -7.5110   -1.0270   -0.5490 C   0  0  0  0  0  0  0  0  0  0  0  0
   -7.3560    0.1720    0.3210 C   0  0  0  0  0  0  0  0  0  0  0  0
   -5.9940    0.8220    0.1870 C   0  0  0  0  0  0  0  0  0  0  0  0
   -4.8850   -0.1710    0.4360 C   0  0  0  0  0  0  0  0  0  0  0  0
   -4.7670   -1.1600   -0.6040 N   0  0  2  0  0  0  0  0  0  0  0  0
   -3.3880   -1.4670   -0.9150 C   0  0  0  0  0  0  0  0  0  0  0  0
   -2.9890   -2.8780   -0.5350 C   0  0  2  0  0  0  0  0  0  0  0  0
   -3.1940   -3.0110    0.9710 C   0  0  0  0  0  0  0  0  0  0  0  0
   -2.1730   -2.0610    1.4940 C   0  0  0  0  0  0  0  0  0  0  0  0
   -2.0730   -1.2610    2.6090 C   0  0  0  0  0  0  0  0  0  0  0  0
   -0.9650   -0.4750    2.8190 C   0  0  0  0  0  0  0  0  0  0  0  0
    0.1080   -0.4450    1.9230 C   0  0  0  0  0  0  0  0  0  0  0  0
    1.1770    0.4230    2.2220 N   0  0  0  0  0  0  0  0  0  0  0  0
    2.4460    0.4010    1.6110 C   0  0  0  0  0  0  0  0  0  0  0  0
    2.7280   -0.4460    0.7430 O   0  0  0  0  0  0  0  0  0  0  0  0
    3.4850    1.3260    1.9270 N   0  0  0  0  0  0  0  0  0  0  0  0
    4.7850    1.2760    1.2790 C   0  0  2  0  0  0  0  0  0  0  0  0
    5.9310    1.4630    2.2020 C   0  0  0  0  0  0  0  0  0  0  0  0
    7.2260    0.9230    1.7040 C   0  0  0  0  0  0  0  0  0  0  0  0
    7.2140    0.4880    0.3270 N   0  0  0  0  0  0  0  0  0  0  0  0
    7.0440    1.5620   -0.6290 C   0  0  1  0  0  0  0  0  0  0  0  0
    7.7330    1.1210   -1.8990 C   0  0  0  0  0  0  0  0  0  0  0  0
    7.6700    2.1120   -3.0180 C   0  0  0  0  0  0  0  0  0  0  0  0
    8.4510    3.6230   -2.4550 Cl  0  0  0  0  0  0  0  0  0  0  0  0
    5.6230    1.8930   -0.9320 C   0  0  0  0  0  0  0  0  0  0  0  0
    4.8640    2.4310    0.2620 C   0  0  0  0  0  0  0  0  0  0  0  0
   -0.0220   -1.2480    0.8270 C   0  0  0  0  0  0  0  0  0  0  0  0
   -1.1320   -2.0500    0.5960 C   0  0  0  0  0  0  0  0  0  0  0  0
   -1.4480   -2.9790   -0.5590 C   0  0  0  0  0  0  0  0  0  0  0  0
   -5.3690   -0.7240   -1.8500 C   0  0  0  0  0  0  0  0  0  0  0  0
  2  1  1  1
  2  3  1  0
  2 32  1  0
  3  4  1  0
  4  5  1  0
  5  6  1  0
  6  7  1  0
  7  8  1  6
  7 32  1  0
  9  8  1  1
  9 10  1  0
  9 31  1  0
 10 11  1  0
 11 12  2  0
 11 30  1  0
 12 13  1  0
 13 14  2  0
 14 15  1  0
 14 29  1  0
 15 16  1  0
 16 17  2  0
 16 18  1  0
 19 18  1  1
 19 20  1  0
 19 28  1  0
 20 21  1  0
 21 22  1  0
 22 23  1  0
 23 24  1  6
 23 27  1  0
 24 25  1  0
 25 26  1  0
 27 28  1  0
 29 30  2  0
 30 31  1  0
M  CHG  2   7   1  22   1
M  END
