
     RDKit          3D

 32 35  0  0  0  0  0  0  0  0999 V2000
   -1.6720    5.6940    0.8250 C   0  0  0  0  0  0  0  0  0  0  0  0
   -1.4310    4.4460    0.0680 C   0  0  0  0  0  0  0  0  0  0  0  0
   -1.9890    4.3730   -1.2180 C   0  0  0  0  0  0  0  0  0  0  0  0
   -1.8130    3.2130   -1.8980 C   0  0  0  0  0  0  0  0  0  0  0  0
   -1.1170    2.1610   -1.3330 C   0  0  0  0  0  0  0  0  0  0  0  0
   -0.5600    2.1690   -0.1010 C   0  0  0  0  0  0  0  0  0  0  0  0
    0.2560    1.1450    0.5570 C   0  0  1  0  0  0  0  0  0  0  0  0
   -0.5570    0.0360    1.1280 C   0  0  0  0  0  0  0  0  0  0  0  0
   -1.6920   -0.5210    0.3400 C   0  0  2  0  0  0  0  0  0  0  0  0
   -2.7830   -0.7580    1.2140 N   0  0  0  0  0  0  0  0  0  0  0  0
   -4.0460   -1.0680    0.7340 C   0  0  1  0  0  0  0  0  0  0  0  0
   -4.6450   -0.0960   -0.2590 C   0  0  0  0  0  0  0  0  0  0  0  0
   -5.8780   -0.8380   -0.7070 C   0  0  0  0  0  0  0  0  0  0  0  0
   -5.4150   -2.2090   -0.8130 N   0  0  0  0  0  0  0  0  0  0  0  0
   -4.4490   -2.4010    0.2840 C   0  0  0  0  0  0  0  0  0  0  0  0
   -1.1510   -1.7690   -0.2870 C   0  0  0  0  0  0  0  0  0  0  0  0
    0.0330   -1.4260   -1.1850 C   0  0  0  0  0  0  0  0  0  0  0  0
    1.2230   -0.8240   -0.5410 C   0  0  1  0  0  0  0  0  0  0  0  0
    2.3120   -1.1170   -1.5820 C   0  0  0  0  0  0  0  0  0  0  0  0
    2.4940   -0.2240   -2.4460 O   0  0  0  0  0  0  0  0  0  0  0  0
    3.0630   -2.2880   -1.6010 N   0  0  0  0  0  0  0  0  0  0  0  0
    3.5730   -3.0440   -0.4800 C   0  0  0  0  0  0  0  0  0  0  0  0
    5.0560   -2.8250   -0.2860 C   0  0  0  0  0  0  0  0  0  0  0  0
    5.4180   -2.2310    1.0460 C   0  0  0  0  0  0  0  0  0  0  0  0
    5.9830   -0.8740    0.9800 C   0  0  0  0  0  0  0  0  0  0  0  0
    5.5610    0.1510    1.7000 C   0  0  0  0  0  0  0  0  0  0  0  0
    4.5870    0.9120    1.3130 C   0  0  0  0  0  0  0  0  0  0  0  0
    3.5890    0.2800    0.4230 C   0  0  0  0  0  0  0  0  0  0  0  0
    2.5440    1.1660   -0.1110 C   0  0  0  0  0  0  0  0  0  0  0  0
    1.2660    0.5920   -0.3710 N   0  0  2  0  0  0  0  0  0  0  0  0
   -0.7430    3.3830    0.5990 C   0  0  0  0  0  0  0  0  0  0  0  0
   -0.0890    3.5800    2.2250 Cl  0  0  0  0  0  0  0  0  0  0  0  0
  1  2  1  0
  2  3  2  0
  2 31  1  0
  3  4  1  0
  4  5  2  0
  5  6  1  0
  7  6  1  6
  6 31  2  0
  7  8  1  0
  7 30  1  0
  8  9  1  0
  9 10  1  1
  9 16  1  0
 11 10  1  6
 11 12  1  0
 11 15  1  0
 12 13  1  0
 13 14  1  0
 14 15  1  0
 16 17  1  0
 18 17  1  6
 18 19  1  0
 18 30  1  0
 19 20  2  0
 19 21  1  0
 21 22  1  0
 22 23  1  0
 23 24  1  0
 24 25  1  0
 25 26  2  0
 26 27  2  0
 27 28  1  0
 28 29  1  0
 30 29  1  1
 31 32  1  0
M  CHG  2  14   1  30   1
M  END
