
     RDKit          3D

 32 35  0  0  0  0  0  0  0  0999 V2000
    7.3470    2.4130   -0.4020 C   0  0  0  0  0  0  0  0  0  0  0  0
    8.2110    1.2370   -0.1740 C   0  0  0  0  0  0  0  0  0  0  0  0
    9.4840    1.1950   -0.7200 C   0  0  0  0  0  0  0  0  0  0  0  0
   10.2950    0.1110   -0.5160 C   0  0  0  0  0  0  0  0  0  0  0  0
    9.8240   -0.9430    0.2440 C   0  0  0  0  0  0  0  0  0  0  0  0
    8.5510   -0.8890    0.7840 C   0  0  0  0  0  0  0  0  0  0  0  0
    7.9280   -2.2070    1.7510 Cl  0  0  0  0  0  0  0  0  0  0  0  0
    7.7180    0.2000    0.5870 C   0  0  0  0  0  0  0  0  0  0  0  0
    6.4170    0.2200    1.1580 N   0  0  0  0  0  0  0  0  0  0  0  0
    5.2920   -0.2850    0.4730 C   0  0  0  0  0  0  0  0  0  0  0  0
    5.5070   -0.7580   -0.6850 O   0  0  0  0  0  0  0  0  0  0  0  0
    3.9520   -0.2690    1.0480 C   0  0  0  0  0  0  0  0  0  0  0  0
    3.4880    0.1800    2.2520 C   0  0  0  0  0  0  0  0  0  0  0  0
    2.2010    0.0340    2.4410 N   0  0  0  0  0  0  0  0  0  0  0  0
    1.3890   -0.4190    1.7450 C   0  0  0  0  0  0  0  0  0  0  0  0
   -0.0150   -0.6320    1.7310 N   0  0  0  0  0  0  0  0  0  0  0  0
   -0.7180   -1.3080    0.7090 C   0  0  0  0  0  0  0  0  0  0  0  0
   -0.1800   -2.2950   -0.0850 C   0  0  0  0  0  0  0  0  0  0  0  0
   -0.9330   -2.8920   -1.0920 C   0  0  0  0  0  0  0  0  0  0  0  0
   -2.2200   -2.4850   -1.2840 C   0  0  0  0  0  0  0  0  0  0  0  0
   -2.8160   -1.5000   -0.5200 C   0  0  0  0  0  0  0  0  0  0  0  0
   -4.1980   -1.1230   -0.7900 C   0  0  0  0  0  0  0  0  0  0  0  0
   -4.8360   -1.6940   -1.7130 O   0  0  0  0  0  0  0  0  0  0  0  0
   -4.8990   -0.1290   -0.0660 N   0  0  0  0  0  0  0  0  0  0  0  0
   -6.2670    0.2430   -0.3360 C   0  0  1  0  0  0  0  0  0  0  0  0
   -7.1950   -0.0650    0.8170 C   0  0  0  0  0  0  0  0  0  0  0  0
   -8.6190    0.0790    0.2650 C   0  0  0  0  0  0  0  0  0  0  0  0
   -8.7880    1.4440   -0.1520 N   0  0  0  0  0  0  0  0  0  0  0  0
   -7.8810    1.8480   -1.1950 C   0  0  0  0  0  0  0  0  0  0  0  0
   -6.4420    1.6750   -0.7120 C   0  0  0  0  0  0  0  0  0  0  0  0
   -2.0490   -0.9380    0.4560 C   0  0  0  0  0  0  0  0  0  0  0  0
    2.4540   -0.8870    0.2570 S   0  0  0  0  0  0  0  0  0  0  0  0
  1  2  1  0
  2  3  2  0
  2  8  1  0
  3  4  1  0
  4  5  2  0
  5  6  1  0
  6  7  1  0
  6  8  2  0
  8  9  1  0
  9 10  1  0
 10 11  2  0
 10 12  1  0
 12 13  2  0
 12 32  1  0
 13 14  1  0
 14 15  2  0
 15 16  1  0
 15 32  1  0
 16 17  1  0
 17 18  2  0
 17 31  1  0
 18 19  1  0
 19 20  2  0
 20 21  1  0
 21 22  1  0
 21 31  2  0
 22 23  2  0
 22 24  1  0
 25 24  1  1
 25 26  1  0
 25 30  1  0
 26 27  1  0
 27 28  1  0
 28 29  1  0
 29 30  1  0
M  CHG  1  28   1
M  END
