
     RDKit          3D

 32 35  0  0  0  0  0  0  0  0999 V2000
    8.5180    3.0410    0.0230 C   0  0  0  0  0  0  0  0  0  0  0  0
    7.6510    2.4940    0.9720 O   0  0  0  0  0  0  0  0  0  0  0  0
    6.8750    1.4800    0.3690 C   0  0  0  0  0  0  0  0  0  0  0  0
    5.9230    0.8720    1.3740 C   0  0  0  0  0  0  0  0  0  0  0  0
    5.1090   -0.1110    0.9450 O   0  0  0  0  0  0  0  0  0  0  0  0
    5.2720   -1.3440    0.4190 C   0  0  0  0  0  0  0  0  0  0  0  0
    6.4910   -1.9370    0.2250 C   0  0  0  0  0  0  0  0  0  0  0  0
    6.6490   -3.2010   -0.3200 C   0  0  0  0  0  0  0  0  0  0  0  0
    5.5060   -3.8670   -0.6730 C   0  0  0  0  0  0  0  0  0  0  0  0
    4.2520   -3.3230   -0.5020 C   0  0  0  0  0  0  0  0  0  0  0  0
    4.0990   -2.0810    0.0340 C   0  0  0  0  0  0  0  0  0  0  0  0
    2.9490   -1.4240    0.2600 O   0  0  0  0  0  0  0  0  0  0  0  0
    1.6380   -1.6330    0.1090 C   0  0  0  0  0  0  0  0  0  0  0  0
    1.0180   -2.8670    0.3400 C   0  0  0  0  0  0  0  0  0  0  0  0
   -0.3250   -3.0250    0.1670 C   0  0  0  0  0  0  0  0  0  0  0  0
   -1.1720   -1.9780   -0.2460 C   0  0  0  0  0  0  0  0  0  0  0  0
   -2.5400   -2.2410   -0.4300 N   0  0  0  0  0  0  0  0  0  0  0  0
   -3.5150   -1.1810   -0.2600 C   0  0  0  0  0  0  0  0  0  0  0  0
   -3.0450   -0.0790    0.0670 O   0  0  0  0  0  0  0  0  0  0  0  0
   -4.8830   -1.4580   -0.4590 C   0  0  0  0  0  0  0  0  0  0  0  0
   -5.9370   -0.7590   -0.4400 C   0  0  0  0  0  0  0  0  0  0  0  0
   -6.2960    0.6040   -0.2330 C   0  0  0  0  0  0  0  0  0  0  0  0
   -7.5620    0.8280    0.3430 C   0  0  0  0  0  0  0  0  0  0  0  0
   -8.0190    2.1150    0.4830 C   0  0  0  0  0  0  0  0  0  0  0  0
   -7.3060    3.2170    0.0900 C   0  0  0  0  0  0  0  0  0  0  0  0
   -6.1070    3.0060   -0.4580 N   0  0  0  0  0  0  0  0  0  0  0  0
   -5.6370    1.7390   -0.6070 C   0  0  0  0  0  0  0  0  0  0  0  0
   -4.5060    1.6830   -1.1490 O   0  0  0  0  0  0  0  0  0  0  0  0
   -8.3620    4.1850    0.5300 C   0  0  0  0  0  0  0  0  0  0  0  0
   -9.1430    2.9820    0.9550 C   0  0  0  0  0  0  0  0  0  0  0  0
   -0.5670   -0.7860   -0.4690 C   0  0  0  0  0  0  0  0  0  0  0  0
    0.7990   -0.5890   -0.3040 C   0  0  0  0  0  0  0  0  0  0  0  0
  1  2  1  0
  2  3  1  0
  3  4  1  0
  4  5  1  0
  5  6  1  0
  6  7  2  0
  6 11  1  0
  7  8  1  0
  8  9  2  0
  9 10  1  0
 10 11  2  0
 11 12  1  0
 12 13  1  0
 13 14  2  0
 13 32  1  0
 14 15  1  0
 15 16  2  0
 16 17  1  0
 16 31  1  0
 17 18  1  0
 18 19  2  0
 18 20  1  0
 20 21  2  3
 21 22  1  0
 22 23  2  0
 22 27  1  0
 23 24  1  0
 24 25  2  0
 24 30  1  0
 25 26  1  0
 25 29  1  0
 26 27  1  0
 27 28  2  0
 29 30  1  0
 31 32  2  0
M  END
