
     RDKit          3D

 32 36  0  0  0  0  0  0  0  0999 V2000
   -3.2830    0.9250   -3.7570 C   0  0  0  0  0  0  0  0  0  0  0  0
   -3.7160    1.0420   -2.3470 C   0  0  0  0  0  0  0  0  0  0  0  0
   -4.8090    1.8330   -2.0630 C   0  0  0  0  0  0  0  0  0  0  0  0
   -5.2030    1.9400   -0.7820 N   0  0  0  0  0  0  0  0  0  0  0  0
   -4.5420    1.2830    0.2230 C   0  0  0  0  0  0  0  0  0  0  0  0
   -5.0040    1.4310    1.5240 C   0  0  0  0  0  0  0  0  0  0  0  0
   -4.3340    0.7650    2.5110 C   0  0  0  0  0  0  0  0  0  0  0  0
   -3.2420   -0.0250    2.2370 C   0  0  0  0  0  0  0  0  0  0  0  0
   -2.7810   -0.1780    0.9490 C   0  0  0  0  0  0  0  0  0  0  0  0
   -1.6040   -0.9160    0.7320 N   0  0  0  0  0  0  0  0  0  0  0  0
   -1.1870   -1.9570    1.5760 C   0  0  0  0  0  0  0  0  0  0  0  0
   -2.0160   -2.7010    2.4130 C   0  0  0  0  0  0  0  0  0  0  0  0
   -1.5460   -3.7610    3.1680 C   0  0  0  0  0  0  0  0  0  0  0  0
   -0.2200   -4.0980    3.0940 C   0  0  0  0  0  0  0  0  0  0  0  0
    0.5910   -3.3580    2.2630 C   0  0  0  0  0  0  0  0  0  0  0  0
    2.2880   -3.8050    2.1780 Cl  0  0  0  0  0  0  0  0  0  0  0  0
    0.1690   -2.3050    1.5020 C   0  0  0  0  0  0  0  0  0  0  0  0
    1.0200   -1.5820    0.6700 N   0  0  0  0  0  0  0  0  0  0  0  0
    1.1780   -2.0430   -0.7040 C   0  0  0  0  0  0  0  0  0  0  0  0
    2.6170   -2.3760   -1.0210 C   0  0  0  0  0  0  0  0  0  0  0  0
    3.5900   -1.4780   -0.2870 C   0  0  0  0  0  0  0  0  0  0  0  0
    2.8510   -0.1810   -0.0150 C   0  0  2  0  0  0  0  0  0  0  0  0
    3.6870    0.8680    0.3050 O   0  0  0  0  0  0  0  0  0  0  0  0
    3.8830    2.0570   -0.3480 C   0  0  0  0  0  0  0  0  0  0  0  0
    4.8030    2.9680    0.1920 C   0  0  0  0  0  0  0  0  0  0  0  0
    5.0240    4.1710   -0.4370 C   0  0  0  0  0  0  0  0  0  0  0  0
    4.3580    4.4980   -1.5880 C   0  0  0  0  0  0  0  0  0  0  0  0
    3.4640    3.5950   -2.0980 C   0  0  0  0  0  0  0  0  0  0  0  0
    3.2060    2.3770   -1.5070 C   0  0  0  0  0  0  0  0  0  0  0  0
    1.7670   -0.4050    1.0510 C   0  0  0  0  0  0  0  0  0  0  0  0
   -3.4520    0.4930   -0.0560 C   0  0  0  0  0  0  0  0  0  0  0  0
   -3.0160    0.3560   -1.3470 C   0  0  0  0  0  0  0  0  0  0  0  0
  1  2  1  0
  2  3  2  0
  2 32  1  0
  3  4  1  0
  4  5  2  0
  5  6  1  0
  5 31  1  0
  6  7  2  0
  7  8  1  0
  8  9  2  0
  9 10  1  0
  9 31  1  0
 10 11  1  0
 11 12  2  0
 11 17  1  0
 12 13  1  0
 13 14  2  0
 14 15  1  0
 15 16  1  0
 15 17  2  0
 17 18  1  0
 18 19  1  0
 18 30  1  0
 19 20  1  0
 20 21  1  0
 21 22  1  0
 22 23  1  1
 22 30  1  0
 23 24  1  0
 24 25  2  0
 24 29  1  0
 25 26  1  0
 26 27  2  0
 27 28  1  0
 28 29  2  0
 31 32  2  0
M  END
