
     RDKit          3D

 32 35  0  0  0  0  0  0  0  0999 V2000
   -5.7860    0.3080   -2.9040 C   0  0  0  0  0  0  0  0  0  0  0  0
   -5.3300   -0.6690   -2.1670 C   0  0  0  0  0  0  0  0  0  0  0  0
   -4.7560   -0.5030   -0.8500 C   0  0  0  0  0  0  0  0  0  0  0  0
   -4.3070   -1.5540   -0.1650 C   0  0  0  0  0  0  0  0  0  0  0  0
   -4.3850   -3.1840   -0.8170 Cl  0  0  0  0  0  0  0  0  0  0  0  0
   -4.6690    0.8250   -0.2300 C   0  0  1  0  0  0  0  0  0  0  0  0
   -6.0130    1.3260    0.0620 N   0  0  0  0  0  0  0  0  0  0  0  0
   -6.7190    0.7480    1.1650 C   0  0  0  0  0  0  0  0  0  0  0  0
   -8.0320    0.6720    1.1940 C   0  0  0  0  0  0  0  0  0  0  0  0
   -8.8830    1.1740    0.0950 C   0  0  0  0  0  0  0  0  0  0  0  0
   -5.8830    0.2350    2.2790 C   0  0  0  0  0  0  0  0  0  0  0  0
   -4.5250    0.9300    2.2500 C   0  0  0  0  0  0  0  0  0  0  0  0
   -3.8720    0.8130    0.9900 N   0  0  0  0  0  0  0  0  0  0  0  0
   -2.4680    0.6970    0.8880 C   0  0  0  0  0  0  0  0  0  0  0  0
   -1.6190    0.7640    1.9590 C   0  0  0  0  0  0  0  0  0  0  0  0
   -0.2330    0.6380    1.7820 C   0  0  0  0  0  0  0  0  0  0  0  0
    0.3410    0.4460    0.5460 C   0  0  0  0  0  0  0  0  0  0  0  0
    1.7880    0.3160    0.3770 C   0  0  0  0  0  0  0  0  0  0  0  0
    2.3380   -0.4550   -0.6210 C   0  0  0  0  0  0  0  0  0  0  0  0
    3.7310   -0.5490   -0.7430 C   0  0  0  0  0  0  0  0  0  0  0  0
    4.5940    0.1030    0.1010 C   0  0  0  0  0  0  0  0  0  0  0  0
    5.9560    0.0490    0.0300 O   0  0  0  0  0  0  0  0  0  0  0  0
    6.6700   -0.6720   -0.9090 C   0  0  1  0  0  0  0  0  0  0  0  0
    7.5380    0.1930   -1.7960 C   0  0  0  0  0  0  0  0  0  0  0  0
    8.6780    0.8280   -1.0530 C   0  0  0  0  0  0  0  0  0  0  0  0
    9.0990    0.0260    0.1570 C   0  0  0  0  0  0  0  0  0  0  0  0
    8.9350   -1.4530   -0.1160 C   0  0  0  0  0  0  0  0  0  0  0  0
    7.4810   -1.7580   -0.2290 C   0  0  0  0  0  0  0  0  0  0  0  0
    3.9990    0.8570    1.0790 N   0  0  0  0  0  0  0  0  0  0  0  0
    2.6690    0.9620    1.2140 C   0  0  0  0  0  0  0  0  0  0  0  0
   -0.5180    0.3790   -0.5340 C   0  0  0  0  0  0  0  0  0  0  0  0
   -1.8600    0.5000   -0.3610 C   0  0  0  0  0  0  0  0  0  0  0  0
  1  2  2  0
  2  3  1  0
  3  4  2  3
  6  3  1  1
  4  5  1  0
  6  7  1  0
  6 13  1  0
  7  8  1  0
  8  9  2  3
  8 11  1  0
  9 10  1  0
 11 12  1  0
 12 13  1  0
 13 14  1  0
 14 15  2  0
 14 32  1  0
 15 16  1  0
 16 17  2  0
 17 18  1  0
 17 31  1  0
 18 19  2  0
 18 30  1  0
 19 20  1  0
 20 21  2  0
 21 22  1  0
 21 29  1  0
 23 22  1  1
 23 24  1  0
 23 28  1  0
 24 25  1  0
 25 26  1  0
 26 27  1  0
 27 28  1  0
 29 30  2  0
 31 32  2  0
M  END
