
     RDKit          3D

 32 35  0  0  0  0  0  0  0  0999 V2000
    2.4440   -4.6450    1.3130 C   0  0  0  0  0  0  0  0  0  0  0  0
    1.9660   -4.3520   -0.0910 C   0  0  0  0  0  0  0  0  0  0  0  0
    0.8610   -3.3520   -0.0910 C   0  0  0  0  0  0  0  0  0  0  0  0
   -0.4410   -3.7240   -0.2870 C   0  0  0  0  0  0  0  0  0  0  0  0
   -1.4670   -2.7590   -0.2790 C   0  0  0  0  0  0  0  0  0  0  0  0
   -2.7330   -3.2440   -0.4750 O   0  0  0  0  0  0  0  0  0  0  0  0
   -1.2530   -1.4420   -0.0880 C   0  0  0  0  0  0  0  0  0  0  0  0
   -2.2020   -0.3400   -0.1670 C   0  0  0  0  0  0  0  0  0  0  0  0
   -1.8970    0.8020    0.4830 O   0  0  0  0  0  0  0  0  0  0  0  0
   -2.8130    1.6980    0.3230 C   0  0  0  0  0  0  0  0  0  0  0  0
   -2.9670    2.9780    0.7660 N   0  0  0  0  0  0  0  0  0  0  0  0
   -4.0430    3.7030    0.4440 C   0  0  0  0  0  0  0  0  0  0  0  0
   -4.2170    5.1050    0.9290 C   0  0  0  0  0  0  0  0  0  0  0  0
   -5.0380    3.1850   -0.3470 C   0  0  0  0  0  0  0  0  0  0  0  0
   -4.9110    1.8850   -0.8140 C   0  0  0  0  0  0  0  0  0  0  0  0
   -5.8020    1.4070   -1.5270 O   0  0  0  0  0  0  0  0  0  0  0  0
   -3.7980    1.1550   -0.4730 C   0  0  0  0  0  0  0  0  0  0  0  0
   -3.3950   -0.1640   -0.7860 C   0  0  0  0  0  0  0  0  0  0  0  0
   -4.2470   -1.0130   -1.6100 C   0  0  0  0  0  0  0  0  0  0  0  0
   -5.2440   -1.8580   -0.8980 C   0  0  0  0  0  0  0  0  0  0  0  0
    0.1070   -1.1010    0.1110 C   0  0  0  0  0  0  0  0  0  0  0  0
    1.1280   -2.0090    0.1110 C   0  0  0  0  0  0  0  0  0  0  0  0
    2.4450   -1.6730    0.3060 O   0  0  0  0  0  0  0  0  0  0  0  0
    2.9120   -0.3350    0.5310 C   0  0  0  0  0  0  0  0  0  0  0  0
    4.4010   -0.3300    0.7290 C   0  0  0  0  0  0  0  0  0  0  0  0
    4.9160    1.0110    0.9750 C   0  0  0  0  0  0  0  0  0  0  0  0
    5.1850    1.4880    2.1940 O   0  0  0  0  0  0  0  0  0  0  0  0
    5.6250    2.6930    2.1210 C   0  0  0  0  0  0  0  0  0  0  0  0
    5.6750    3.0910    0.8540 N   0  0  0  0  0  0  0  0  0  0  0  0
    5.2260    2.0260    0.1150 C   0  0  0  0  0  0  0  0  0  0  0  0
    5.1310    2.0640   -1.3580 C   0  0  0  0  0  0  0  0  0  0  0  0
    3.7550    2.3220   -1.8510 C   0  0  0  0  0  0  0  0  0  0  0  0
  1  2  1  0
  2  3  1  0
  3  4  2  0
  3 22  1  0
  4  5  1  0
  5  6  1  0
  5  7  2  0
  7  8  1  0
  7 21  1  0
  8  9  1  0
  8 18  2  0
  9 10  1  0
 10 11  1  0
 10 17  2  0
 11 12  1  0
 12 13  1  0
 12 14  2  0
 14 15  1  0
 15 16  2  0
 15 17  1  0
 17 18  1  0
 18 19  1  0
 19 20  1  0
 21 22  2  0
 22 23  1  0
 23 24  1  0
 24 25  1  0
 25 26  1  0
 26 27  1  0
 26 30  2  0
 27 28  1  0
 28 29  2  0
 29 30  1  0
 30 31  1  0
 31 32  1  0
M  END
