
     RDKit          3D

 30 31  0  0  0  0  0  0  0  0999 V2000
    9.9170   -0.4220   -1.2560 C   0  0  0  0  0  0  0  0  0  0  0  0
    8.5440   -0.2800   -0.6200 C   0  0  2  0  0  0  0  0  0  0  0  0
    8.0790    1.1690   -0.7210 C   0  0  0  0  0  0  0  0  0  0  0  0
    6.9460    1.3070    0.2960 C   0  0  1  0  0  0  0  0  0  0  0  0
    6.2120    0.1220    0.2280 O   0  0  0  0  0  0  0  0  0  0  0  0
    4.8700    0.1030   -0.0460 C   0  0  0  0  0  0  0  0  0  0  0  0
    4.2090   -1.1340   -0.0990 C   0  0  0  0  0  0  0  0  0  0  0  0
    2.8640   -1.2440   -0.3670 C   0  0  0  0  0  0  0  0  0  0  0  0
    2.1050   -0.1220   -0.5970 C   0  0  0  0  0  0  0  0  0  0  0  0
    0.7040   -0.2000   -0.8760 N   0  0  0  0  0  0  0  0  0  0  0  0
    0.0930   -1.4810   -0.8630 C   0  0  0  0  0  0  0  0  0  0  0  0
   -1.3700   -1.4560   -0.9730 C   0  0  0  0  0  0  0  0  0  0  0  0
   -2.1570   -0.8300    0.1500 C   0  0  2  0  0  0  0  0  0  0  0  0
   -1.8470    0.6080    0.3860 C   0  0  0  0  0  0  0  0  0  0  0  0
   -1.8770   -1.5740    1.3110 O   0  0  0  0  0  0  0  0  0  0  0  0
   -3.6080   -1.0010   -0.2530 C   0  0  0  0  0  0  0  0  0  0  0  0
   -4.5820   -0.6360    0.6980 N   0  0  0  0  0  0  0  0  0  0  0  0
   -5.7330   -0.0380   -0.0020 C   0  0  2  0  0  0  0  0  0  0  0  0
   -6.1960   -0.8680   -1.1500 C   0  0  0  0  0  0  0  0  0  0  0  0
   -5.3620    1.3590   -0.3710 C   0  0  0  0  0  0  0  0  0  0  0  0
   -6.9090    0.0710    0.9810 C   0  0  2  0  0  0  0  0  0  0  0  0
   -7.1740   -1.2440    1.3880 O   0  0  0  0  0  0  0  0  0  0  0  0
   -8.0880    0.6410    0.2250 C   0  0  0  0  0  0  0  0  0  0  0  0
   -9.3010    0.7780    1.1330 C   0  0  0  0  0  0  0  0  0  0  0  0
  -10.3880    1.3040    0.4400 O   0  0  0  0  0  0  0  0  0  0  0  0
    2.7180    1.1070   -0.5540 C   0  0  0  0  0  0  0  0  0  0  0  0
    4.0730    1.1910   -0.2820 C   0  0  0  0  0  0  0  0  0  0  0  0
    7.6250    1.3180    1.6620 C   0  0  0  0  0  0  0  0  0  0  0  0
    8.7790    0.3450    1.5910 C   0  0  0  0  0  0  0  0  0  0  0  0
    8.5570   -0.6900    0.6940 O   0  0  0  0  0  0  0  0  0  0  0  0
  2  1  1  1
  2  3  1  0
  2 30  1  0
  3  4  1  0
  4  5  1  1
  4 28  1  0
  5  6  1  0
  6  7  2  0
  6 27  1  0
  7  8  1  0
  8  9  2  0
  9 10  1  0
  9 26  1  0
 10 11  1  0
 11 12  1  0
 12 13  1  0
 13 14  1  1
 13 15  1  0
 13 16  1  0
 16 17  1  0
 17 18  1  0
 18 19  1  6
 18 20  1  0
 18 21  1  0
 21 22  1  6
 21 23  1  0
 23 24  1  0
 24 25  1  0
 26 27  2  0
 28 29  1  0
 29 30  1  0
M  CHG  1  17   1
M  END
