
     RDKit          3D

 28 30  0  0  0  0  0  0  0  0999 V2000
    9.9550   -0.6010   -0.8050 C   0  0  0  0  0  0  0  0  0  0  0  0
    8.5750   -0.3340   -1.1400 C   0  0  0  0  0  0  0  0  0  0  0  0
    7.9820   -0.2480   -2.1300 O   0  0  0  0  0  0  0  0  0  0  0  0
    7.5950   -0.0910    0.2760 N   0  0  0  0  0  0  0  0  0  0  0  0
    6.3600    0.1010   -0.4020 C   0  0  0  0  0  0  0  0  0  0  0  0
    6.0230    0.1200   -1.5300 O   0  0  0  0  0  0  0  0  0  0  0  0
    5.3200    0.3070    0.6540 N   0  0  0  0  0  0  0  0  0  0  0  0
    3.9950    0.4750    0.3660 C   0  0  0  0  0  0  0  0  0  0  0  0
    3.4970    0.8930   -0.8360 C   0  0  0  0  0  0  0  0  0  0  0  0
    2.1470    0.9470   -1.0830 C   0  0  0  0  0  0  0  0  0  0  0  0
    1.2350    0.5690   -0.0860 C   0  0  0  0  0  0  0  0  0  0  0  0
   -0.1330    0.6260   -0.4340 N   0  0  0  0  0  0  0  0  0  0  0  0
   -1.2040    0.2100    0.3550 C   0  0  0  0  0  0  0  0  0  0  0  0
   -1.0270   -0.2580    1.4880 O   0  0  0  0  0  0  0  0  0  0  0  0
   -2.6290    0.3170   -0.1650 C   0  0  0  0  0  0  0  0  0  0  0  0
   -3.5150   -0.1640    0.7890 O   0  0  0  0  0  0  0  0  0  0  0  0
   -4.8860   -0.2580    0.6730 C   0  0  0  0  0  0  0  0  0  0  0  0
   -5.5960    0.1150   -0.4450 C   0  0  0  0  0  0  0  0  0  0  0  0
   -6.9910    0.0010   -0.5250 C   0  0  0  0  0  0  0  0  0  0  0  0
   -7.6900   -0.5030    0.5470 C   0  0  0  0  0  0  0  0  0  0  0  0
   -6.9840   -0.8760    1.6680 C   0  0  0  0  0  0  0  0  0  0  0  0
   -5.6130   -0.7640    1.7480 C   0  0  0  0  0  0  0  0  0  0  0  0
   -4.9310   -1.1300    2.8590 F   0  0  0  0  0  0  0  0  0  0  0  0
   -9.1400   -0.5230    0.1910 C   0  0  0  0  0  0  0  0  0  0  0  0
   -9.1670    0.0110   -1.1540 N   0  0  0  0  0  0  0  0  0  0  0  0
   -7.9790    0.3000   -1.5490 C   0  0  0  0  0  0  0  0  0  0  0  0
    1.7240    0.1590    1.1080 C   0  0  0  0  0  0  0  0  0  0  0  0
    3.0700    0.1040    1.3550 C   0  0  0  0  0  0  0  0  0  0  0  0
  1  2  1  0
  2  3  2  0
  2  4  1  0
  4  5  1  0
  5  6  2  0
  5  7  1  0
  7  8  1  0
  8  9  2  0
  8 28  1  0
  9 10  1  0
 10 11  2  0
 11 12  1  0
 11 27  1  0
 12 13  1  0
 13 14  2  0
 13 15  1  0
 15 16  1  0
 16 17  1  0
 17 18  2  0
 17 22  1  0
 18 19  1  0
 19 20  2  0
 19 26  1  0
 20 21  1  0
 20 24  1  0
 21 22  2  0
 22 23  1  0
 24 25  1  0
 25 26  2  0
 27 28  2  0
M  END
