
     RDKit          3D

 29 31  0  0  0  0  0  0  0  0999 V2000
    6.3250   -0.5050    0.4780 C   0  0  0  0  0  0  0  0  0  0  0  0
    4.9550   -0.3260    0.2050 O   0  0  0  0  0  0  0  0  0  0  0  0
    4.5180    0.2680   -0.9630 C   0  0  0  0  0  0  0  0  0  0  0  0
    5.3930    0.6960   -1.8890 N   0  0  0  0  0  0  0  0  0  0  0  0
    5.0720    1.2700   -3.0300 N   0  0  0  0  0  0  0  0  0  0  0  0
    3.7690    1.4360   -3.2810 C   0  0  0  0  0  0  0  0  0  0  0  0
    2.7990    1.0320   -2.4010 C   0  0  0  0  0  0  0  0  0  0  0  0
    3.1700    0.4200   -1.1830 C   0  0  0  0  0  0  0  0  0  0  0  0
    2.1120    0.0470   -0.2820 C   0  0  0  0  0  0  0  0  0  0  0  0
    2.2390   -0.4280    0.9240 C   0  0  0  0  0  0  0  0  0  0  0  0
    1.0870   -0.7810    1.7630 C   0  0  0  0  0  0  0  0  0  0  0  0
    1.3300   -1.2320    2.9200 O   0  0  0  0  0  0  0  0  0  0  0  0
   -0.2600   -0.6620    1.3910 N   0  0  0  0  0  0  0  0  0  0  0  0
   -1.4200   -0.9690    2.1180 C   0  0  0  0  0  0  0  0  0  0  0  0
   -1.4150   -1.4990    3.3760 C   0  0  0  0  0  0  0  0  0  0  0  0
   -2.5820   -1.8470    4.0760 C   0  0  0  0  0  0  0  0  0  0  0  0
   -3.8170   -1.6560    3.4920 C   0  0  0  0  0  0  0  0  0  0  0  0
   -4.9770   -1.9700    4.1110 F   0  0  0  0  0  0  0  0  0  0  0  0
   -3.8160   -1.1240    2.2320 C   0  0  0  0  0  0  0  0  0  0  0  0
   -2.6620   -0.7760    1.5330 C   0  0  0  0  0  0  0  0  0  0  0  0
   -2.7510   -0.1670    0.2200 C   0  0  0  0  0  0  0  0  0  0  0  0
   -2.2550    1.0660   -0.1250 C   0  0  0  0  0  0  0  0  0  0  0  0
   -2.4080    1.6210   -1.3710 C   0  0  0  0  0  0  0  0  0  0  0  0
   -1.8610    2.9230   -1.6610 N   0  0  0  0  0  0  0  0  0  0  0  0
   -2.0100    3.4720   -2.8840 O   0  0  0  0  0  0  0  0  0  0  0  0
   -3.0890    0.9350   -2.3580 C   0  0  0  0  0  0  0  0  0  0  0  0
   -3.6110   -0.3260   -2.0490 C   0  0  0  0  0  0  0  0  0  0  0  0
   -3.4410   -0.8580   -0.7840 C   0  0  0  0  0  0  0  0  0  0  0  0
   -3.9500   -2.1130   -0.4420 O   0  0  0  0  0  0  0  0  0  0  0  0
  1  2  1  0
  2  3  1  0
  3  4  2  0
  3  8  1  0
  4  5  1  0
  5  6  2  0
  6  7  1  0
  7  8  2  0
  8  9  1  0
  9 10  2  3
 10 11  1  0
 11 12  2  0
 11 13  1  0
 13 14  1  0
 14 15  2  0
 14 20  1  0
 15 16  1  0
 16 17  2  0
 17 18  1  0
 17 19  1  0
 19 20  2  0
 20 21  1  0
 21 22  2  0
 21 28  1  0
 22 23  1  0
 23 24  1  0
 23 26  2  0
 24 25  1  0
 26 27  1  0
 27 28  2  0
 28 29  1  0
M  END
