
     RDKit          3D

 30 31  0  0  0  0  0  0  0  0999 V2000
    1.1810    2.2450   -3.2210 C   0  0  0  0  0  0  0  0  0  0  0  0
    0.9230    1.0060   -2.4090 C   0  0  0  0  0  0  0  0  0  0  0  0
   -0.3670    0.8140   -1.9140 C   0  0  0  0  0  0  0  0  0  0  0  0
   -0.6910   -0.2830   -1.1800 C   0  0  0  0  0  0  0  0  0  0  0  0
   -1.9830   -0.5570   -0.6310 N   0  0  0  0  0  0  0  0  0  0  0  0
   -3.1220    0.2500   -0.7740 C   0  0  0  0  0  0  0  0  0  0  0  0
   -3.1210    1.3060   -1.4060 O   0  0  0  0  0  0  0  0  0  0  0  0
   -4.4480   -0.1730   -0.1270 C   0  0  1  0  0  0  0  0  0  0  0  0
   -5.4160    0.7770   -0.3820 O   0  0  0  0  0  0  0  0  0  0  0  0
   -4.8390   -1.5060   -0.7100 C   0  0  0  0  0  0  0  0  0  0  0  0
   -4.9660   -1.3410   -2.2560 C   0  0  0  0  0  0  0  0  0  0  0  0
   -5.3250   -2.5490   -2.8200 O   0  0  0  0  0  0  0  0  0  0  0  0
   -4.1670   -0.2510    1.3290 C   0  0  0  0  0  0  0  0  0  0  0  0
   -5.2550   -0.6270    2.2640 C   0  0  2  0  0  0  0  0  0  0  0  0
   -4.7030   -0.5780    3.7230 C   0  0  0  0  0  0  0  0  0  0  0  0
   -5.7160   -2.0030    2.1450 N   0  0  0  0  0  0  0  0  0  0  0  0
    0.3300   -1.1980   -0.9500 C   0  0  0  0  0  0  0  0  0  0  0  0
    0.0300   -2.4360   -0.1550 C   0  0  0  0  0  0  0  0  0  0  0  0
    1.6140   -1.0020   -1.4430 C   0  0  0  0  0  0  0  0  0  0  0  0
    2.6500   -2.0160   -1.1370 C   0  0  0  0  0  0  0  0  0  0  0  0
    1.9430    0.1080   -2.1880 C   0  0  0  0  0  0  0  0  0  0  0  0
    3.3060    0.3070   -2.6950 C   0  0  0  0  0  0  0  0  0  0  0  0
    4.1510    1.2600   -1.8870 C   0  0  0  0  0  0  0  0  0  0  0  0
    4.3240    0.8650   -0.5910 O   0  0  0  0  0  0  0  0  0  0  0  0
    5.0990    1.7000    0.1950 C   0  0  1  0  0  0  0  0  0  0  0  0
    4.3760    2.2310    1.3870 C   0  0  0  0  0  0  0  0  0  0  0  0
    5.3430    3.0330    2.2310 C   0  0  0  0  0  0  0  0  0  0  0  0
    6.3290    2.2160    2.7380 O   0  0  0  0  0  0  0  0  0  0  0  0
    6.3440    0.9560    2.1630 C   0  0  0  0  0  0  0  0  0  0  0  0
    6.3750    1.0300    0.6520 C   0  0  0  0  0  0  0  0  0  0  0  0
  1  2  1  0
  2  3  2  0
  2 21  1  0
  3  4  1  0
  4  5  1  0
  4 17  2  0
  5  6  1  0
  6  7  2  0
  6  8  1  0
  8  9  1  1
  8 10  1  0
  8 13  1  0
 10 11  1  0
 11 12  1  0
 13 14  1  0
 14 15  1  1
 14 16  1  0
 17 18  1  0
 17 19  1  0
 19 20  1  0
 19 21  2  0
 21 22  1  0
 22 23  1  0
 23 24  1  0
 25 24  1  1
 25 26  1  0
 25 30  1  0
 26 27  1  0
 27 28  1  0
 28 29  1  0
 29 30  1  0
M  CHG  1  16   1
M  END
