
     RDKit          3D

 30 30  0  0  0  0  0  0  0  0999 V2000
   -8.6460   -1.4500    0.6930 C   0  0  0  0  0  0  0  0  0  0  0  0
   -7.4420   -1.8750   -0.1070 C   0  0  0  0  0  0  0  0  0  0  0  0
   -6.3020   -0.9760    0.0570 C   0  0  0  0  0  0  0  0  0  0  0  0
   -5.3690   -0.2180    0.1990 C   0  0  0  0  0  0  0  0  0  0  0  0
   -4.2320    0.6800    0.3720 C   0  0  0  0  0  0  0  0  0  0  0  0
   -2.9540    0.1540    0.1690 C   0  0  0  0  0  0  0  0  0  0  0  0
   -1.8140    0.9070    0.2960 C   0  0  0  0  0  0  0  0  0  0  0  0
   -0.4910    0.4450    0.1010 N   0  0  0  0  0  0  0  0  0  0  0  0
   -0.1450   -0.8540   -0.2480 C   0  0  0  0  0  0  0  0  0  0  0  0
   -1.0070   -1.7430   -0.4210 O   0  0  0  0  0  0  0  0  0  0  0  0
    1.3020   -1.2730   -0.4430 C   0  0  0  0  0  0  0  0  0  0  0  0
    1.3400   -2.7210   -0.7890 C   0  0  0  0  0  0  0  0  0  0  0  0
    2.7050   -3.2920   -1.0280 C   0  0  1  0  0  0  0  0  0  0  0  0
    3.4080   -2.6690   -2.1060 N   0  0  0  0  0  0  0  0  0  0  0  0
    3.5170   -3.3910    0.1840 C   0  0  0  0  0  0  0  0  0  0  0  0
    4.4980   -2.5770    0.4730 C   0  0  0  0  0  0  0  0  0  0  0  0
    5.2350   -2.7870    1.7230 C   0  0  0  0  0  0  0  0  0  0  0  0
    6.1710   -2.0310    2.0070 O   0  0  0  0  0  0  0  0  0  0  0  0
    4.8360   -1.5530   -0.3640 O   0  0  0  0  0  0  0  0  0  0  0  0
    5.6480   -0.4530   -0.1070 C   0  0  2  0  0  0  0  0  0  0  0  0
    5.1500    0.4240    1.0070 C   0  0  0  0  0  0  0  0  0  0  0  0
    5.7850    0.3920   -1.3810 C   0  0  0  0  0  0  0  0  0  0  0  0
    6.6720    1.5780   -1.0930 C   0  0  0  0  0  0  0  0  0  0  0  0
   -2.0360    2.2500    0.6480 C   0  0  0  0  0  0  0  0  0  0  0  0
   -3.2470    2.8070    0.8560 C   0  0  0  0  0  0  0  0  0  0  0  0
   -3.4400    4.2240    1.2240 C   0  0  0  0  0  0  0  0  0  0  0  0
   -3.9230    4.9300   -0.0520 C   0  0  0  0  0  0  0  0  0  0  0  0
   -4.1150    6.2720    0.2630 O   0  0  0  0  0  0  0  0  0  0  0  0
   -4.3790    1.9990    0.7130 C   0  0  0  0  0  0  0  0  0  0  0  0
   -5.6460    2.5050    0.9100 O   0  0  0  0  0  0  0  0  0  0  0  0
  1  2  1  0
  2  3  1  0
  3  4  3  0
  4  5  1  0
  5  6  2  0
  5 29  1  0
  6  7  1  0
  7  8  1  0
  7 24  2  0
  8  9  1  0
  9 10  2  0
  9 11  1  0
 11 12  1  0
 12 13  1  0
 13 14  1  6
 13 15  1  0
 15 16  2  3
 16 17  1  0
 16 19  1  0
 17 18  2  0
 19 20  1  0
 20 21  1  1
 20 22  1  0
 22 23  1  0
 24 25  1  0
 25 26  1  0
 25 29  2  0
 26 27  1  0
 27 28  1  0
 29 30  1  0
M  CHG  1  14   1
M  END
