
     RDKit          3D

 31 34  0  0  0  0  0  0  0  0999 V2000
   -7.6120    0.1920   -1.0390 C   0  0  0  0  0  0  0  0  0  0  0  0
   -7.8310   -0.4780    0.2580 C   0  0  0  0  0  0  0  0  0  0  0  0
   -9.0420   -0.2990    0.9150 C   0  0  0  0  0  0  0  0  0  0  0  0
   -9.2780   -0.9120    2.1240 C   0  0  0  0  0  0  0  0  0  0  0  0
   -8.2850   -1.7020    2.6560 C   0  0  0  0  0  0  0  0  0  0  0  0
   -7.0680   -1.8760    1.9870 C   0  0  0  0  0  0  0  0  0  0  0  0
   -5.8030   -2.8830    2.6640 Cl  0  0  0  0  0  0  0  0  0  0  0  0
   -6.8330   -1.2620    0.7770 C   0  0  0  0  0  0  0  0  0  0  0  0
   -5.6080   -1.4310    0.0930 N   0  0  0  0  0  0  0  0  0  0  0  0
   -4.4890   -0.5690    0.2840 C   0  0  0  0  0  0  0  0  0  0  0  0
   -4.6510    0.3710    1.1140 O   0  0  0  0  0  0  0  0  0  0  0  0
   -3.2470   -0.7580   -0.4250 C   0  0  0  0  0  0  0  0  0  0  0  0
   -2.7770   -1.6470   -1.3550 C   0  0  0  0  0  0  0  0  0  0  0  0
   -1.5560   -1.4660   -1.7580 N   0  0  0  0  0  0  0  0  0  0  0  0
   -0.7610   -0.6540   -1.4590 C   0  0  0  0  0  0  0  0  0  0  0  0
    0.6180   -0.2800   -1.7150 N   0  0  0  0  0  0  0  0  0  0  0  0
    1.1710    0.8680   -1.1730 C   0  0  0  0  0  0  0  0  0  0  0  0
    0.4460    2.0150   -0.9800 C   0  0  0  0  0  0  0  0  0  0  0  0
    1.0770    3.0980   -0.3980 C   0  0  0  0  0  0  0  0  0  0  0  0
    2.3900    3.0360   -0.0220 C   0  0  0  0  0  0  0  0  0  0  0  0
    3.1150    1.8840   -0.2180 C   0  0  0  0  0  0  0  0  0  0  0  0
    4.5210    1.8580    0.1990 C   0  0  0  0  0  0  0  0  0  0  0  0
    4.9890    2.8540    0.8140 O   0  0  0  0  0  0  0  0  0  0  0  0
    5.3980    0.7870   -0.0410 N   0  0  0  0  0  0  0  0  0  0  0  0
    6.7710    0.8520    0.4100 C   0  0  1  0  0  0  0  0  0  0  0  0
    7.1120   -0.2880    1.3110 C   0  0  0  0  0  0  0  0  0  0  0  0
    7.9360   -1.2120    0.4430 C   0  0  0  0  0  0  0  0  0  0  0  0
    8.4730   -0.4460   -0.6330 N   0  0  0  0  0  0  0  0  0  0  0  0
    7.7490    0.7840   -0.7380 C   0  0  0  0  0  0  0  0  0  0  0  0
    2.5240    0.7920   -0.7910 C   0  0  0  0  0  0  0  0  0  0  0  0
   -1.7630    0.3390   -0.2060 S   0  0  0  0  0  0  0  0  0  0  0  0
  1  2  1  0
  2  3  2  0
  2  8  1  0
  3  4  1  0
  4  5  2  0
  5  6  1  0
  6  7  1  0
  6  8  2  0
  8  9  1  0
  9 10  1  0
 10 11  2  0
 10 12  1  0
 12 13  2  0
 12 31  1  0
 13 14  1  0
 14 15  2  0
 15 16  1  0
 15 31  1  0
 16 17  1  0
 17 18  2  0
 17 30  1  0
 18 19  1  0
 19 20  2  0
 20 21  1  0
 21 22  1  0
 21 30  2  0
 22 23  2  0
 22 24  1  0
 25 24  1  6
 25 26  1  0
 25 29  1  0
 26 27  1  0
 27 28  1  0
 28 29  1  0
M  CHG  1  28   1
M  END
