
     RDKit          3D

 35 38  0  0  0  0  0  0  0  0999 V2000
    8.3590   -1.5800    0.3510 C   0  0  0  0  0  0  0  0  0  0  0  0
    7.0030   -1.2450    0.8360 C   0  0  0  0  0  0  0  0  0  0  0  0
    6.6360    0.1610    0.5350 C   0  0  0  0  0  0  0  0  0  0  0  0
    7.4340    1.0690    0.7690 N   0  0  0  0  0  0  0  0  0  0  0  0
    5.3610    0.3740   -0.0820 N   0  0  0  0  0  0  0  0  0  0  0  0
    4.7450    1.6710   -0.1620 C   0  0  0  0  0  0  0  0  0  0  0  0
    3.2860    1.6580    0.2410 C   0  0  0  0  0  0  0  0  0  0  0  0
    2.6390    0.5280   -0.3380 N   0  0  0  0  0  0  0  0  0  0  0  0
    1.3530    0.2200   -0.0270 C   0  0  0  0  0  0  0  0  0  0  0  0
    0.3120    1.1610   -0.6170 C   0  0  0  0  0  0  0  0  0  0  0  0
    0.3030    2.2380   -1.3350 N   0  0  0  0  0  0  0  0  0  0  0  0
   -0.9770    2.5920   -1.6100 N   0  0  0  0  0  0  0  0  0  0  0  0
   -1.7980    1.7160   -1.0710 C   0  0  0  0  0  0  0  0  0  0  0  0
   -3.2490    1.4380   -1.2990 C   0  0  0  0  0  0  0  0  0  0  0  0
   -4.2700    2.2440   -0.7930 N   0  0  0  0  0  0  0  0  0  0  0  0
   -4.3580    3.5350   -0.2610 C   0  0  0  0  0  0  0  0  0  0  0  0
   -3.7650    3.8960    0.8840 C   0  0  0  0  0  0  0  0  0  0  0  0
   -4.1500    5.1600    1.4320 C   0  0  0  0  0  0  0  0  0  0  0  0
   -5.0480    5.9940    0.8560 C   0  0  0  0  0  0  0  0  0  0  0  0
   -5.6490    5.5730   -0.3460 C   0  0  0  0  0  0  0  0  0  0  0  0
   -5.3040    4.3830   -0.8730 C   0  0  0  0  0  0  0  0  0  0  0  0
   -5.8690    3.9320   -2.0680 O   0  0  0  0  0  0  0  0  0  0  0  0
   -1.0360    0.7620   -0.4040 C   0  0  0  0  0  0  0  0  0  0  0  0
   -1.5210   -0.1980    0.5160 C   0  0  0  0  0  0  0  0  0  0  0  0
   -1.4810    0.0730    1.7740 O   0  0  0  0  0  0  0  0  0  0  0  0
   -2.0820   -1.4320    0.1720 N   0  0  0  0  0  0  0  0  0  0  0  0
   -2.5950   -2.3050    1.2500 C   0  0  0  0  0  0  0  0  0  0  0  0
   -3.1480   -3.5360    0.7310 C   0  0  0  0  0  0  0  0  0  0  0  0
   -3.2390   -4.0090   -0.4370 C   0  0  0  0  0  0  0  0  0  0  0  0
   -3.8300   -5.2770   -0.9420 C   0  0  0  0  0  0  0  0  0  0  0  0
   -4.4100   -6.0950    0.1710 C   0  0  0  0  0  0  0  0  0  0  0  0
   -3.6180   -5.8250    1.4070 C   0  0  0  0  0  0  0  0  0  0  0  0
   -3.7330   -4.4240    1.7520 O   0  0  0  0  0  0  0  0  0  0  0  0
    3.3920   -0.2480   -1.2460 C   0  0  0  0  0  0  0  0  0  0  0  0
    4.6590   -0.7750   -0.6510 C   0  0  0  0  0  0  0  0  0  0  0  0
  1  2  1  0
  2  3  1  0
  3  4  2  0
  3  5  1  0
  5  6  1  0
  5 35  1  0
  6  7  1  0
  7  8  1  0
  8  9  1  0
  8 34  1  0
  9 10  1  0
 10 11  1  0
 10 23  2  0
 11 12  1  0
 12 13  2  0
 13 14  1  0
 13 23  1  0
 14 15  1  0
 15 16  1  0
 16 17  2  0
 16 21  1  0
 17 18  1  0
 18 19  2  0
 19 20  1  0
 20 21  2  0
 21 22  1  0
 23 24  1  0
 24 25  2  0
 24 26  1  0
 26 27  1  0
 27 28  1  0
 28 29  2  0
 28 33  1  0
 29 30  1  0
 30 31  1  0
 31 32  1  0
 32 33  1  0
 34 35  1  0
M  CHG  1   4   1
M  END
