
     RDKit          3D

 34 37  0  0  0  0  0  0  0  0999 V2000
   -0.1110    0.0470   -3.5170 C   0  0  0  0  0  0  0  0  0  0  0  0
   -1.1460   -0.3470   -2.4990 C   0  0  2  0  0  0  0  0  0  0  0  0
   -2.3660   -0.8030   -3.3430 C   0  0  0  0  0  0  0  0  0  0  0  0
   -1.6080    0.8880   -1.8110 C   0  0  0  0  0  0  0  0  0  0  0  0
   -0.7800    1.3120   -0.6000 C   0  0  1  0  0  0  0  0  0  0  0  0
   -1.3560    2.5650   -0.1880 C   0  0  1  0  0  0  0  0  0  0  0  0
   -2.8380    2.5450    0.1890 C   0  0  0  0  0  0  0  0  0  0  0  0
   -3.7160    2.1990   -0.8060 O   0  0  0  0  0  0  0  0  0  0  0  0
   -0.7520    3.5220    0.7900 C   0  0  1  0  0  0  0  0  0  0  0  0
   -1.6810    4.7730    0.6940 C   0  0  0  0  0  0  0  0  0  0  0  0
   -0.9130    3.1570    2.2480 C   0  0  0  0  0  0  0  0  0  0  0  0
    0.4920    3.9910    0.5190 O   0  0  0  0  0  0  0  0  0  0  0  0
   -0.1200    0.2200    0.1160 C   0  0  2  0  0  0  0  0  0  0  0  0
    1.2950    0.4870    0.5000 C   0  0  1  0  0  0  0  0  0  0  0  0
    1.4940    0.9890    1.9130 C   0  0  0  0  0  0  0  0  0  0  0  0
    2.6690    0.2760    2.5870 C   0  0  0  0  0  0  0  0  0  0  0  0
    3.8650    0.8530    1.8870 C   0  0  0  0  0  0  0  0  0  0  0  0
    3.7590    0.5400    0.4440 C   0  0  1  0  0  0  0  0  0  0  0  0
    4.9500   -0.4190    0.1910 C   0  0  0  0  0  0  0  0  0  0  0  0
    4.7550   -1.2070   -1.0580 C   0  0  0  0  0  0  0  0  0  0  0  0
    4.0390   -0.2680   -2.0150 C   0  0  0  0  0  0  0  0  0  0  0  0
    2.6460   -0.1020   -1.5210 C   0  0  0  0  0  0  0  0  0  0  0  0
    2.4800   -0.1960    0.0000 C   0  0  2  0  0  0  0  0  0  0  0  0
   -0.5860   -1.1770   -0.1690 C   0  0  1  0  0  0  0  0  0  0  0  0
    0.4400   -2.2430    0.2230 C   0  0  0  0  0  0  0  0  0  0  0  0
   -0.3870   -3.5590    0.1870 C   0  0  1  0  0  0  0  0  0  0  0  0
    0.4080   -4.5000    0.8530 O   0  0  0  0  0  0  0  0  0  0  0  0
   -1.5740   -3.1490    0.9400 C   0  0  1  0  0  0  0  0  0  0  0  0
   -2.7350   -3.9950    0.5470 C   0  0  0  0  0  0  0  0  0  0  0  0
   -1.3220   -3.4540    2.3000 O   0  0  0  0  0  0  0  0  0  0  0  0
   -1.7250   -1.6690    0.7010 C   0  0  2  0  0  0  0  0  0  0  0  0
   -3.1080   -1.4700    0.2220 C   0  0  0  0  0  0  0  0  0  0  0  0
   -1.7050   -1.0510    2.1070 C   0  0  0  0  0  0  0  0  0  0  0  0
   -0.8200   -1.4760   -1.6160 C   0  0  0  0  0  0  0  0  0  0  0  0
  2  1  1  6
  2  3  1  0
  2  4  1  0
  2 34  1  0
  5  4  1  1
  5  6  1  0
  5 13  1  0
  6  7  1  1
  6  9  1  0
  7  8  1  0
  9 10  1  1
  9 11  1  0
  9 12  1  0
 13 14  1  6
 13 24  1  0
 14 15  1  1
 14 23  1  0
 15 16  1  0
 16 17  1  0
 18 17  1  1
 18 19  1  0
 18 23  1  0
 19 20  1  0
 20 21  1  0
 21 22  1  0
 23 22  1  6
 24 25  1  1
 24 31  1  0
 24 34  1  0
 25 26  1  0
 26 27  1  1
 26 28  1  0
 28 29  1  6
 28 30  1  0
 28 31  1  0
 31 32  1  6
 31 33  1  0
M  END
