
     RDKit          3D

 33 36  0  0  0  0  0  0  0  0999 V2000
   -8.2630   -0.3530   -1.5300 C   0  0  0  0  0  0  0  0  0  0  0  0
   -8.7340   -0.0960   -0.1320 C   0  0  0  0  0  0  0  0  0  0  0  0
  -10.0060   -0.4300    0.2860 C   0  0  0  0  0  0  0  0  0  0  0  0
  -10.4280   -0.1910    1.5680 C   0  0  0  0  0  0  0  0  0  0  0  0
   -9.5270    0.4030    2.4440 C   0  0  0  0  0  0  0  0  0  0  0  0
   -8.2610    0.7320    2.0160 C   0  0  0  0  0  0  0  0  0  0  0  0
   -7.1270    1.4790    3.1210 Cl  0  0  0  0  0  0  0  0  0  0  0  0
   -7.8220    0.4980    0.7300 C   0  0  0  0  0  0  0  0  0  0  0  0
   -6.5120    0.8300    0.2670 N   0  0  0  0  0  0  0  0  0  0  0  0
   -5.4190   -0.0520    0.3530 C   0  0  0  0  0  0  0  0  0  0  0  0
   -5.5470   -1.1760    0.8430 O   0  0  0  0  0  0  0  0  0  0  0  0
   -4.0690    0.3560   -0.1530 C   0  0  0  0  0  0  0  0  0  0  0  0
   -3.6470    1.4870   -0.7250 C   0  0  0  0  0  0  0  0  0  0  0  0
   -2.3780    1.5510   -1.0720 N   0  0  0  0  0  0  0  0  0  0  0  0
   -1.5680    0.7030   -0.9280 C   0  0  0  0  0  0  0  0  0  0  0  0
   -0.1690    0.5170   -1.1690 N   0  0  0  0  0  0  0  0  0  0  0  0
    0.5780   -0.6480   -0.9520 C   0  0  0  0  0  0  0  0  0  0  0  0
    0.0100   -1.8880   -0.9650 C   0  0  0  0  0  0  0  0  0  0  0  0
    0.7920   -3.0130   -0.7130 C   0  0  0  0  0  0  0  0  0  0  0  0
    2.1300   -2.8660   -0.4520 C   0  0  0  0  0  0  0  0  0  0  0  0
    2.7040   -1.5920   -0.4410 C   0  0  0  0  0  0  0  0  0  0  0  0
    4.1380   -1.4530   -0.1630 C   0  0  0  0  0  0  0  0  0  0  0  0
    4.8290   -2.5020    0.0750 O   0  0  0  0  0  0  0  0  0  0  0  0
    4.8390   -0.2360   -0.1350 N   0  0  0  0  0  0  0  0  0  0  0  0
    6.2570   -0.1620    0.1440 C   0  0  1  0  0  0  0  0  0  0  0  0
    6.9110    0.3810   -1.1180 C   0  0  0  0  0  0  0  0  0  0  0  0
    8.4260    0.3420   -0.9590 C   0  0  0  0  0  0  0  0  0  0  0  0
    8.8460    0.7700    0.4200 C   0  0  2  0  0  0  0  0  0  0  0  0
    9.2510   -0.2840    1.2210 O   0  0  0  0  0  0  0  0  0  0  0  0
    7.7690    1.5790    1.1150 C   0  0  0  0  0  0  0  0  0  0  0  0
    6.4870    0.8200    1.2560 C   0  0  0  0  0  0  0  0  0  0  0  0
    1.9500   -0.4800   -0.6860 C   0  0  0  0  0  0  0  0  0  0  0  0
   -2.6290   -0.6110   -0.1180 S   0  0  0  0  0  0  0  0  0  0  0  0
  1  2  1  0
  2  3  2  0
  2  8  1  0
  3  4  1  0
  4  5  2  0
  5  6  1  0
  6  7  1  0
  6  8  2  0
  8  9  1  0
  9 10  1  0
 10 11  2  0
 10 12  1  0
 12 13  2  0
 12 33  1  0
 13 14  1  0
 14 15  2  0
 15 16  1  0
 15 33  1  0
 16 17  1  0
 17 18  2  0
 17 32  1  0
 18 19  1  0
 19 20  2  0
 20 21  1  0
 21 22  1  0
 21 32  2  0
 22 23  2  0
 22 24  1  0
 25 24  1  6
 25 26  1  0
 25 31  1  0
 26 27  1  0
 27 28  1  0
 28 29  1  1
 28 30  1  0
 30 31  1  0
M  END
