
     RDKit          3D

 32 34  0  0  0  0  0  0  0  0999 V2000
   -1.8660    3.4440    0.9940 C   0  0  0  0  0  0  0  0  0  0  0  0
   -3.0130    2.4060    0.9240 C   0  0  0  0  0  0  0  0  0  0  0  0
   -2.4210    1.0280    0.8360 C   0  0  0  0  0  0  0  0  0  0  0  0
   -3.4120   -0.0970    0.7720 C   0  0  1  0  0  0  0  0  0  0  0  0
   -4.1410    0.1070    2.1200 C   0  0  0  0  0  0  0  0  0  0  0  0
   -4.7260    0.2730    3.1610 N   0  0  0  0  0  0  0  0  0  0  0  0
   -4.4880   -0.0210   -0.2170 C   0  0  1  0  0  0  0  0  0  0  0  0
   -5.7320    0.6780    0.3720 C   0  0  0  0  0  0  0  0  0  0  0  0
   -4.1020    0.7130   -1.3160 O   0  0  0  0  0  0  0  0  0  0  0  0
   -4.9770   -1.3780   -0.6910 C   0  0  0  0  0  0  0  0  0  0  0  0
   -4.9070   -2.4420    0.3230 C   0  0  0  0  0  0  0  0  0  0  0  0
   -3.9580   -2.3110    1.4470 C   0  0  0  0  0  0  0  0  0  0  0  0
   -2.7460   -1.4210    0.9740 C   0  0  2  0  0  0  0  0  0  0  0  0
   -1.9770   -1.3020    2.1520 O   0  0  0  0  0  0  0  0  0  0  0  0
   -2.1020   -2.1600   -0.1090 C   0  0  0  0  0  0  0  0  0  0  0  0
   -1.0400   -1.6240   -0.9640 C   0  0  1  0  0  0  0  0  0  0  0  0
   -1.3230   -0.5520   -1.7620 O   0  0  0  0  0  0  0  0  0  0  0  0
    0.2390   -1.3130   -0.1710 C   0  0  1  0  0  0  0  0  0  0  0  0
    0.7910   -2.5250    0.4790 C   0  0  0  0  0  0  0  0  0  0  0  0
    2.2810   -2.4070    0.5660 C   0  0  0  0  0  0  0  0  0  0  0  0
    2.8020   -1.1560    0.5490 O   0  0  0  0  0  0  0  0  0  0  0  0
    2.5510   -0.3590   -0.5440 C   0  0  2  0  0  0  0  0  0  0  0  0
    3.5700   -0.5840   -1.5820 C   0  0  0  0  0  0  0  0  0  0  0  0
    4.7010    0.3680   -1.7010 C   0  0  1  0  0  0  0  0  0  0  0  0
    5.2940    0.2090   -3.1120 C   0  0  0  0  0  0  0  0  0  0  0  0
    4.1790    1.7670   -1.6290 C   0  0  0  0  0  0  0  0  0  0  0  0
    3.5780    1.9340   -0.2500 C   0  0  2  0  0  0  0  0  0  0  0  0
    4.6320    1.7450    0.8180 C   0  0  0  0  0  0  0  0  0  0  0  0
    5.6210    2.6780    0.6550 O   0  0  0  0  0  0  0  0  0  0  0  0
    6.6470    2.6070    1.5830 C   0  0  0  0  0  0  0  0  0  0  0  0
    2.3920    1.0420   -0.0300 C   0  0  0  0  0  0  0  0  0  0  0  0
    1.2160   -0.7600   -1.1510 C   0  0  0  0  0  0  0  0  0  0  0  0
  1  2  1  0
  2  3  1  0
  4  3  1  6
  4  5  1  0
  4  7  1  0
  4 13  1  0
  5  6  3  0
  7  8  1  1
  7  9  1  0
  7 10  1  0
 10 11  1  0
 11 12  1  0
 12 13  1  0
 13 14  1  1
 13 15  1  0
 15 16  1  0
 16 17  1  1
 16 18  1  0
 18 19  1  6
 18 32  1  0
 19 20  1  0
 20 21  1  0
 21 22  1  0
 22 23  1  6
 22 31  1  0
 22 32  1  0
 23 24  1  0
 24 25  1  6
 24 26  1  0
 26 27  1  0
 27 28  1  1
 27 31  1  0
 28 29  1  0
 29 30  1  0
M  END
