
     RDKit          3D

 33 36  0  0  0  0  0  0  0  0999 V2000
   -6.0870   -0.1430   -2.0990 C   0  0  0  0  0  0  0  0  0  0  0  0
   -6.3160    1.0080   -1.1830 C   0  0  0  0  0  0  0  0  0  0  0  0
   -7.2290    1.9760   -1.4750 C   0  0  0  0  0  0  0  0  0  0  0  0
   -7.4640    3.0400   -0.6630 C   0  0  0  0  0  0  0  0  0  0  0  0
   -8.3910    3.9540   -1.0340 F   0  0  0  0  0  0  0  0  0  0  0  0
   -6.7350    3.1260    0.5040 C   0  0  0  0  0  0  0  0  0  0  0  0
   -6.9580    4.1770    1.3180 F   0  0  0  0  0  0  0  0  0  0  0  0
   -5.7910    2.1460    0.8280 C   0  0  0  0  0  0  0  0  0  0  0  0
   -5.5920    1.1000   -0.0170 C   0  0  0  0  0  0  0  0  0  0  0  0
   -4.6150    0.0570    0.2880 C   0  0  0  0  0  0  0  0  0  0  0  0
   -3.8690    0.0340    1.3610 C   0  0  0  0  0  0  0  0  0  0  0  0
   -2.9250   -1.0100    1.6170 C   0  0  0  0  0  0  0  0  0  0  0  0
   -2.2270   -0.9720    2.6860 O   0  0  0  0  0  0  0  0  0  0  0  0
   -2.7220   -2.0910    0.7390 N   0  0  0  0  0  0  0  0  0  0  0  0
   -1.7150   -3.0950    1.1250 C   0  0  0  0  0  0  0  0  0  0  0  0
   -0.4070   -2.4030    1.2280 C   0  0  0  0  0  0  0  0  0  0  0  0
   -0.2440   -1.1810    1.0010 O   0  0  0  0  0  0  0  0  0  0  0  0
    0.7020   -3.1460    1.5970 O   0  0  0  0  0  0  0  0  0  0  0  0
    1.9500   -2.4940    1.6970 C   0  0  0  0  0  0  0  0  0  0  0  0
    2.2760   -1.9240    0.3680 C   0  0  0  0  0  0  0  0  0  0  0  0
    1.5930   -1.9570   -0.7830 N   0  0  0  0  0  0  0  0  0  0  0  0
    2.2370   -1.3220   -1.7470 N   0  0  0  0  0  0  0  0  0  0  0  0
    3.3680   -0.8570   -1.2320 C   0  0  0  0  0  0  0  0  0  0  0  0
    4.4120   -0.1280   -1.7700 C   0  0  0  0  0  0  0  0  0  0  0  0
    5.4760    0.2130   -0.9620 C   0  0  0  0  0  0  0  0  0  0  0  0
    5.5420   -0.1410    0.3620 C   0  0  0  0  0  0  0  0  0  0  0  0
    4.4930   -0.8710    0.8970 C   0  0  0  0  0  0  0  0  0  0  0  0
    3.4260   -1.2210    0.1120 C   0  0  0  0  0  0  0  0  0  0  0  0
    6.7450    0.3520    0.9010 N   0  0  0  0  0  0  0  0  0  0  0  0
    7.1610    1.4710    0.0830 C   0  0  2  0  0  0  0  0  0  0  0  0
    6.3630    2.6760    0.5320 C   0  0  0  0  0  0  0  0  0  0  0  0
    6.6610    2.8800    1.8720 F   0  0  0  0  0  0  0  0  0  0  0  0
    6.7180    0.9930   -1.2940 C   0  0  0  0  0  0  0  0  0  0  0  0
  1  2  1  0
  2  3  2  0
  2  9  1  0
  3  4  1  0
  4  5  1  0
  4  6  2  0
  6  7  1  0
  6  8  1  0
  8  9  2  0
  9 10  1  0
 10 11  2  3
 11 12  1  0
 12 13  2  0
 12 14  1  0
 14 15  1  0
 15 16  1  0
 16 17  2  0
 16 18  1  0
 18 19  1  0
 19 20  1  0
 20 21  2  0
 20 28  1  0
 21 22  1  0
 22 23  1  0
 23 24  2  0
 23 28  1  0
 24 25  1  0
 25 26  2  0
 25 33  1  0
 26 27  1  0
 26 29  1  0
 27 28  2  0
 29 30  1  0
 30 31  1  1
 30 33  1  0
 31 32  1  0
M  END
