
     RDKit          3D

 32 34  0  0  0  0  0  0  0  0999 V2000
   -1.5960    2.0300    1.1080 C   0  0  0  0  0  0  0  0  0  0  0  0
   -0.7250    1.2310    0.1750 C   0  0  1  0  0  0  0  0  0  0  0  0
    0.5070    0.8940    1.0750 C   0  0  0  0  0  0  0  0  0  0  0  0
    1.5150    0.0600    0.3340 C   0  0  2  0  0  0  0  0  0  0  0  0
    2.6810   -0.2490    1.2410 C   0  0  0  0  0  0  0  0  0  0  0  0
    3.9030   -0.6820    0.4210 C   0  0  0  0  0  0  0  0  0  0  0  0
    4.7640    0.4900    0.1360 C   0  0  1  0  0  0  0  0  0  0  0  0
    4.7370    1.3770    1.3220 C   0  0  0  0  0  0  0  0  0  0  0  0
    4.6970    2.0700    2.2490 N   0  0  0  0  0  0  0  0  0  0  0  0
    6.1870    0.1590   -0.2190 C   0  0  2  0  0  0  0  0  0  0  0  0
    6.8570    1.3770   -0.4330 O   0  0  0  0  0  0  0  0  0  0  0  0
    6.3420   -0.6560   -1.4560 C   0  0  0  0  0  0  0  0  0  0  0  0
    7.5370   -1.5260   -1.5440 C   0  0  0  0  0  0  0  0  0  0  0  0
    8.3940   -1.4230   -0.4500 O   0  0  0  0  0  0  0  0  0  0  0  0
    7.5850   -1.7450    0.6630 C   0  0  0  0  0  0  0  0  0  0  0  0
    6.8280   -0.4720    0.9910 C   0  0  0  0  0  0  0  0  0  0  0  0
    4.1370    1.2740   -0.9970 C   0  0  0  0  0  0  0  0  0  0  0  0
    2.7320    1.6990   -0.7210 C   0  0  0  0  0  0  0  0  0  0  0  0
    1.9040    0.5880   -0.8770 O   0  0  0  0  0  0  0  0  0  0  0  0
   -1.2900    0.0380   -0.4230 C   0  0  0  0  0  0  0  0  0  0  0  0
   -2.4290   -0.0760   -1.2950 C   0  0  1  0  0  0  0  0  0  0  0  0
   -2.5730   -1.5980   -1.6790 C   0  0  0  0  0  0  0  0  0  0  0  0
   -3.6970    0.5940   -1.3060 C   0  0  2  0  0  0  0  0  0  0  0  0
   -3.5080    1.9890   -1.4930 O   0  0  0  0  0  0  0  0  0  0  0  0
   -4.8210    0.4140   -0.4140 C   0  0  2  0  0  0  0  0  0  0  0  0
   -4.7080    0.6930    1.0430 C   0  0  0  0  0  0  0  0  0  0  0  0
   -6.2020    0.5860    1.4270 C   0  0  0  0  0  0  0  0  0  0  0  0
   -6.6910   -0.5630    0.6020 C   0  0  1  0  0  0  0  0  0  0  0  0
   -6.8640   -1.7400    1.5580 C   0  0  0  0  0  0  0  0  0  0  0  0
   -8.0020   -0.2990   -0.0750 C   0  0  0  0  0  0  0  0  0  0  0  0
   -5.5980   -0.8540   -0.4420 C   0  0  2  0  0  0  0  0  0  0  0  0
   -4.9900   -1.9920   -0.0150 O   0  0  0  0  0  0  0  0  0  0  0  0
  2  1  1  1
  2  3  1  0
  2 20  1  0
  4  3  1  1
  4  5  1  0
  4 19  1  0
  5  6  1  0
  6  7  1  0
  7  8  1  1
  7 10  1  0
  7 17  1  0
  8  9  3  0
 10 11  1  6
 10 12  1  0
 10 16  1  0
 12 13  1  0
 13 14  1  0
 14 15  1  0
 15 16  1  0
 17 18  1  0
 18 19  1  0
 20 21  1  0
 21 22  1  1
 21 23  1  0
 23 24  1  1
 23 25  1  0
 25 26  1  1
 25 31  1  0
 26 27  1  0
 27 28  1  0
 28 29  1  1
 28 30  1  0
 28 31  1  0
 31 32  1  1
M  END
