
     RDKit          3D

 32 35  0  0  0  0  0  0  0  0999 V2000
   -1.8760   -2.7110   -3.2730 C   0  0  0  0  0  0  0  0  0  0  0  0
   -2.5290   -3.0810   -2.2060 C   0  0  0  0  0  0  0  0  0  0  0  0
   -2.9130   -4.4910   -1.9990 C   0  0  0  0  0  0  0  0  0  0  0  0
   -3.5110   -4.7120   -0.7760 O   0  0  0  0  0  0  0  0  0  0  0  0
   -4.5360   -3.7810   -0.5290 C   0  0  0  0  0  0  0  0  0  0  0  0
   -3.8910   -2.4640   -0.3460 C   0  0  0  0  0  0  0  0  0  0  0  0
   -2.9110   -2.1200   -1.1640 C   0  0  0  0  0  0  0  0  0  0  0  0
   -2.2530   -0.9120   -1.0670 O   0  0  0  0  0  0  0  0  0  0  0  0
   -0.9140   -0.9710   -0.5300 C   0  0  0  0  0  0  0  0  0  0  0  0
   -0.3120    0.3920   -0.4770 C   0  0  2  0  0  0  0  0  0  0  0  0
    1.0440    0.4840    0.0800 C   0  0  0  0  0  0  0  0  0  0  0  0
    2.1790   -0.2100   -0.5510 C   0  0  2  0  0  0  0  0  0  0  0  0
    2.3850    0.1550   -1.8880 O   0  0  0  0  0  0  0  0  0  0  0  0
    2.0770   -1.6670   -0.4320 C   0  0  0  0  0  0  0  0  0  0  0  0
    3.3600   -2.4270   -0.1600 C   0  0  0  0  0  0  0  0  0  0  0  0
    4.5110   -1.7880   -0.8520 C   0  0  0  0  0  0  0  0  0  0  0  0
    4.6620   -0.3300   -0.5060 C   0  0  2  0  0  0  0  0  0  0  0  0
    5.9580   -0.1750    0.2660 C   0  0  0  0  0  0  0  0  0  0  0  0
    3.4860    0.2990    0.1280 C   0  0  1  0  0  0  0  0  0  0  0  0
    3.6020    1.6800   -0.1400 O   0  0  0  0  0  0  0  0  0  0  0  0
    3.3500    0.2030    1.6130 C   0  0  1  0  0  0  0  0  0  0  0  0
    4.3740    0.7210    2.5170 C   0  0  0  0  0  0  0  0  0  0  0  0
    2.9910    1.3730    2.4590 C   0  0  0  0  0  0  0  0  0  0  0  0
   -1.2160    1.1530    0.3180 O   0  0  0  0  0  0  0  0  0  0  0  0
   -1.8200    2.1750   -0.3660 C   0  0  2  0  0  0  0  0  0  0  0  0
   -1.2800    3.4660    0.3060 C   0  0  0  0  0  0  0  0  0  0  0  0
   -1.4130    3.2690    1.8070 C   0  0  0  0  0  0  0  0  0  0  0  0
   -2.8190    3.5820    2.2220 C   0  0  0  0  0  0  0  0  0  0  0  0
   -3.7440    2.4020    2.2420 C   0  0  0  0  0  0  0  0  0  0  0  0
   -3.6550    1.4960    1.0600 C   0  0  0  0  0  0  0  0  0  0  0  0
   -3.3110    2.2450   -0.1840 C   0  0  2  0  0  0  0  0  0  0  0  0
   -3.9430    1.6650   -1.3510 N   0  0  0  0  0  0  0  0  0  0  0  0
  1  2  2  0
  2  3  1  0
  2  7  1  0
  3  4  1  0
  4  5  1  0
  5  6  1  0
  6  7  2  0
  7  8  1  0
  8  9  1  0
 10  9  1  1
 10 11  1  0
 10 24  1  0
 11 12  1  0
 12 13  1  6
 12 14  1  0
 12 19  1  0
 14 15  1  0
 15 16  1  0
 16 17  1  0
 17 18  1  1
 17 19  1  0
 19 20  1  1
 19 21  1  0
 21 22  1  1
 21 23  1  0
 22 23  1  0
 25 24  1  1
 25 26  1  0
 25 31  1  0
 26 27  1  0
 27 28  1  0
 28 29  1  0
 29 30  1  0
 30 31  1  0
 31 32  1  6
M  END
