
     RDKit          3D

 32 35  0  0  0  0  0  0  0  0999 V2000
   -5.9360    1.0370   -2.7560 C   0  0  0  0  0  0  0  0  0  0  0  0
   -5.3970    0.9040   -1.5260 C   0  0  0  0  0  0  0  0  0  0  0  0
   -4.3370   -0.0600   -1.3850 C   0  0  0  0  0  0  0  0  0  0  0  0
   -3.4460   -0.0060   -0.3530 C   0  0  0  0  0  0  0  0  0  0  0  0
   -2.3980   -0.9960   -0.3020 C   0  0  0  0  0  0  0  0  0  0  0  0
   -1.4800   -1.3090    0.5120 C   0  0  0  0  0  0  0  0  0  0  0  0
   -0.8470   -1.0050    1.7910 C   0  0  1  0  0  0  0  0  0  0  0  0
   -1.5390   -1.5710    3.0010 C   0  0  0  0  0  0  0  0  0  0  0  0
   -1.1750   -3.0210    2.9490 C   0  0  0  0  0  0  0  0  0  0  0  0
    0.1810   -3.0780    2.3050 C   0  0  0  0  0  0  0  0  0  0  0  0
    0.4220   -1.7860    1.8040 N   0  0  0  0  0  0  0  0  0  0  0  0
    1.6350   -1.2670    1.3220 C   0  0  0  0  0  0  0  0  0  0  0  0
    2.6180   -2.0950    1.3160 O   0  0  0  0  0  0  0  0  0  0  0  0
    1.8780    0.0490    0.8550 N   0  0  0  0  0  0  0  0  0  0  0  0
    3.1560    0.4780    0.3580 C   0  0  0  0  0  0  0  0  0  0  0  0
    3.9100   -0.4430   -0.3780 C   0  0  0  0  0  0  0  0  0  0  0  0
    5.1640   -0.0420   -0.8250 C   0  0  0  0  0  0  0  0  0  0  0  0
    5.7060    1.1930   -0.5920 C   0  0  0  0  0  0  0  0  0  0  0  0
    6.9450    1.5830   -1.0380 C   0  0  0  0  0  0  0  0  0  0  0  0
    7.4540    2.8130   -0.7920 C   0  0  0  0  0  0  0  0  0  0  0  0
    6.7140    3.7530   -0.0570 C   0  0  0  0  0  0  0  0  0  0  0  0
    5.4720    3.3420    0.3820 C   0  0  0  0  0  0  0  0  0  0  0  0
    4.9230    2.0990    0.1520 C   0  0  0  0  0  0  0  0  0  0  0  0
    3.6820    1.7160    0.6010 C   0  0  0  0  0  0  0  0  0  0  0  0
   -2.3250   -1.9100   -1.5660 C   0  0  0  0  0  0  0  0  0  0  0  0
   -1.7400   -1.2970   -2.7310 C   0  0  0  0  0  0  0  0  0  0  0  0
   -2.2150   -0.0740   -3.2940 C   0  0  0  0  0  0  0  0  0  0  0  0
   -2.5850    0.8680   -3.7490 N   0  0  0  0  0  0  0  0  0  0  0  0
   -3.7490    0.9750    0.6420 C   0  0  0  0  0  0  0  0  0  0  0  0
   -2.6570    1.3270    1.9980 Cl  0  0  0  0  0  0  0  0  0  0  0  0
   -4.8230    1.7770    0.6210 C   0  0  0  0  0  0  0  0  0  0  0  0
   -5.8450    1.7620   -0.4190 C   0  0  0  0  0  0  0  0  0  0  0  0
  1  2  2  0
  2  3  1  0
  2 32  1  0
  3  4  2  0
  4  5  1  0
  4 29  1  0
  5  6  2  3
  5 25  1  0
  7  6  1  6
  7  8  1  0
  7 11  1  0
  8  9  1  0
  9 10  1  0
 10 11  1  0
 11 12  1  0
 12 13  2  0
 12 14  1  0
 14 15  1  0
 15 16  2  0
 15 24  1  0
 16 17  1  0
 17 18  2  0
 18 19  1  0
 18 23  1  0
 19 20  2  0
 20 21  1  0
 21 22  2  0
 22 23  1  0
 23 24  2  0
 25 26  1  0
 26 27  1  0
 27 28  3  0
 29 30  1  0
 29 31  2  0
 31 32  1  0
M  END
