
     RDKit          3D

 32 35  0  0  0  0  0  0  0  0999 V2000
   -5.9060   -3.2870   -1.7580 C   0  0  0  0  0  0  0  0  0  0  0  0
   -5.3120   -3.6450   -0.6520 C   0  0  0  0  0  0  0  0  0  0  0  0
   -4.7280   -2.6270    0.2060 C   0  0  0  0  0  0  0  0  0  0  0  0
   -4.1280   -3.0200    1.3090 C   0  0  0  0  0  0  0  0  0  0  0  0
   -4.0450   -4.7020    1.7150 Cl  0  0  0  0  0  0  0  0  0  0  0  0
   -4.8280   -1.1770   -0.1510 C   0  0  1  0  0  0  0  0  0  0  0  0
   -6.1910   -0.6730   -0.0090 N   0  0  0  0  0  0  0  0  0  0  0  0
   -6.4000    0.7040    0.3390 C   0  0  0  0  0  0  0  0  0  0  0  0
   -7.4590    1.3210   -0.0960 C   0  0  0  0  0  0  0  0  0  0  0  0
   -7.7320    2.7370    0.2270 C   0  0  0  0  0  0  0  0  0  0  0  0
   -5.4080    1.4020    1.1940 C   0  0  0  0  0  0  0  0  0  0  0  0
   -4.5630    0.2880    1.7990 C   0  0  0  0  0  0  0  0  0  0  0  0
   -3.9190   -0.3680    0.6790 N   0  0  0  0  0  0  0  0  0  0  0  0
   -2.5600   -0.2420    0.4060 C   0  0  0  0  0  0  0  0  0  0  0  0
   -1.7670    0.5950    1.1390 C   0  0  0  0  0  0  0  0  0  0  0  0
   -0.4020    0.6970    0.8410 C   0  0  0  0  0  0  0  0  0  0  0  0
    0.1850   -0.0240   -0.1760 C   0  0  0  0  0  0  0  0  0  0  0  0
    1.6040    0.0780   -0.4910 C   0  0  0  0  0  0  0  0  0  0  0  0
    2.0590   -0.0920   -1.7820 C   0  0  0  0  0  0  0  0  0  0  0  0
    3.4220    0.0080   -2.0710 C   0  0  0  0  0  0  0  0  0  0  0  0
    4.3200    0.2780   -1.0640 C   0  0  0  0  0  0  0  0  0  0  0  0
    5.6770    0.3900   -1.2800 O   0  0  0  0  0  0  0  0  0  0  0  0
    6.5960    0.6650   -0.2570 C   0  0  2  0  0  0  0  0  0  0  0  0
    7.3830    1.9100   -0.5840 C   0  0  0  0  0  0  0  0  0  0  0  0
    8.7270    1.8790    0.1140 C   0  0  0  0  0  0  0  0  0  0  0  0
    8.6480    1.1490    1.4480 C   0  0  0  0  0  0  0  0  0  0  0  0
    8.2310   -0.2890    1.2720 C   0  0  0  0  0  0  0  0  0  0  0  0
    7.6200   -0.4670   -0.1160 C   0  0  0  0  0  0  0  0  0  0  0  0
    3.8590    0.4400    0.1880 N   0  0  0  0  0  0  0  0  0  0  0  0
    2.5560    0.3450    0.4690 C   0  0  0  0  0  0  0  0  0  0  0  0
   -0.6290   -0.8680   -0.9100 C   0  0  0  0  0  0  0  0  0  0  0  0
   -1.9720   -0.9640   -0.6120 C   0  0  0  0  0  0  0  0  0  0  0  0
  1  2  2  0
  2  3  1  0
  3  4  2  3
  6  3  1  1
  4  5  1  0
  6  7  1  0
  6 13  1  0
  7  8  1  0
  8  9  2  3
  8 11  1  0
  9 10  1  0
 11 12  1  0
 12 13  1  0
 13 14  1  0
 14 15  2  0
 14 32  1  0
 15 16  1  0
 16 17  2  0
 17 18  1  0
 17 31  1  0
 18 19  2  0
 18 30  1  0
 19 20  1  0
 20 21  2  0
 21 22  1  0
 21 29  1  0
 23 22  1  6
 23 24  1  0
 23 28  1  0
 24 25  1  0
 25 26  1  0
 26 27  1  0
 27 28  1  0
 29 30  2  0
 31 32  2  0
M  END
