
     RDKit          3D

 32 35  0  0  0  0  0  0  0  0999 V2000
    7.4050    1.5450    2.7980 C   0  0  0  0  0  0  0  0  0  0  0  0
    6.1940    1.1160    2.2380 O   0  0  0  0  0  0  0  0  0  0  0  0
    5.8610    2.0050    1.2100 C   0  0  0  0  0  0  0  0  0  0  0  0
    4.5810    1.6460    0.5370 C   0  0  0  0  0  0  0  0  0  0  0  0
    4.5000    0.4180   -0.0660 O   0  0  0  0  0  0  0  0  0  0  0  0
    5.1700   -0.1670   -1.0910 C   0  0  0  0  0  0  0  0  0  0  0  0
    6.1640    0.4210   -1.8240 C   0  0  0  0  0  0  0  0  0  0  0  0
    6.7700   -0.2860   -2.8400 C   0  0  0  0  0  0  0  0  0  0  0  0
    6.4160   -1.5730   -3.1570 C   0  0  0  0  0  0  0  0  0  0  0  0
    5.4190   -2.1620   -2.4230 C   0  0  0  0  0  0  0  0  0  0  0  0
    4.8090   -1.4710   -1.4110 C   0  0  0  0  0  0  0  0  0  0  0  0
    3.8090   -2.1270   -0.7080 O   0  0  0  0  0  0  0  0  0  0  0  0
    2.4990   -1.7440   -0.6180 C   0  0  0  0  0  0  0  0  0  0  0  0
    1.6760   -2.5030    0.1940 C   0  0  0  0  0  0  0  0  0  0  0  0
    0.3510   -2.1810    0.3320 C   0  0  0  0  0  0  0  0  0  0  0  0
   -0.2400   -1.1000   -0.3140 C   0  0  0  0  0  0  0  0  0  0  0  0
   -1.5980   -0.8490   -0.1120 N   0  0  0  0  0  0  0  0  0  0  0  0
   -2.3830    0.1770   -0.6590 C   0  0  0  0  0  0  0  0  0  0  0  0
   -1.8490    1.0060   -1.4380 O   0  0  0  0  0  0  0  0  0  0  0  0
   -3.8060    0.3780   -0.4000 C   0  0  0  0  0  0  0  0  0  0  0  0
   -4.5030   -0.3860    0.3770 C   0  0  0  0  0  0  0  0  0  0  0  0
   -5.9340   -0.2190    0.6630 C   0  0  0  0  0  0  0  0  0  0  0  0
   -6.6820    0.7920    0.1170 C   0  0  0  0  0  0  0  0  0  0  0  0
   -8.0620    0.9390    0.4040 C   0  0  0  0  0  0  0  0  0  0  0  0
   -8.6770    0.0740    1.2340 C   0  0  0  0  0  0  0  0  0  0  0  0
   -7.9100   -0.9390    1.7760 N   0  0  0  0  0  0  0  0  0  0  0  0
   -6.6080   -1.0780    1.5060 C   0  0  0  0  0  0  0  0  0  0  0  0
   -5.9640   -2.0340    2.0410 O   0  0  0  0  0  0  0  0  0  0  0  0
   -9.9560    0.7450    1.0970 C   0  0  0  0  0  0  0  0  0  0  0  0
   -9.3060    1.6930    0.1940 C   0  0  0  0  0  0  0  0  0  0  0  0
    0.5670   -0.3540   -1.1110 C   0  0  0  0  0  0  0  0  0  0  0  0
    1.9230   -0.6730   -1.2620 C   0  0  0  0  0  0  0  0  0  0  0  0
  1  2  1  0
  2  3  1  0
  3  4  1  0
  4  5  1  0
  5  6  1  0
  6  7  2  0
  6 11  1  0
  7  8  1  0
  8  9  2  0
  9 10  1  0
 10 11  2  0
 11 12  1  0
 12 13  1  0
 13 14  2  0
 13 32  1  0
 14 15  1  0
 15 16  2  0
 16 17  1  0
 16 31  1  0
 17 18  1  0
 18 19  2  0
 18 20  1  0
 20 21  2  3
 21 22  1  0
 22 23  2  0
 22 27  1  0
 23 24  1  0
 24 25  2  0
 24 30  1  0
 25 26  1  0
 25 29  1  0
 26 27  1  0
 27 28  2  0
 29 30  1  0
 31 32  2  0
M  END
