
     RDKit          3D

 33 36  0  0  0  0  0  0  0  0999 V2000
    8.3560   -1.8570   -0.8620 C   0  0  0  0  0  0  0  0  0  0  0  0
    8.9430   -0.5290   -0.5290 C   0  0  0  0  0  0  0  0  0  0  0  0
   10.2890   -0.2780   -0.7210 C   0  0  0  0  0  0  0  0  0  0  0  0
   10.8410    0.9550   -0.4100 C   0  0  0  0  0  0  0  0  0  0  0  0
   10.0140    1.9530    0.1060 C   0  0  0  0  0  0  0  0  0  0  0  0
    8.6840    1.6610    0.2810 C   0  0  0  0  0  0  0  0  0  0  0  0
    7.6470    2.9210    0.9330 Cl  0  0  0  0  0  0  0  0  0  0  0  0
    8.1200    0.4420   -0.0240 C   0  0  0  0  0  0  0  0  0  0  0  0
    6.7070    0.2090    0.1820 N   0  0  0  0  0  0  0  0  0  0  0  0
    5.7590    0.4710   -0.8250 C   0  0  0  0  0  0  0  0  0  0  0  0
    6.1430    0.9080   -1.9110 O   0  0  0  0  0  0  0  0  0  0  0  0
    4.3180    0.2410   -0.6320 C   0  0  0  0  0  0  0  0  0  0  0  0
    3.6070   -0.2100    0.4160 C   0  0  0  0  0  0  0  0  0  0  0  0
    2.3150   -0.3050    0.2840 N   0  0  0  0  0  0  0  0  0  0  0  0
    1.6580   -0.0300   -0.6950 C   0  0  0  0  0  0  0  0  0  0  0  0
    0.3450    0.0160   -1.2010 N   0  0  0  0  0  0  0  0  0  0  0  0
   -0.7460   -0.3450   -0.4010 C   0  0  0  0  0  0  0  0  0  0  0  0
   -0.6150   -0.6730    0.9220 C   0  0  0  0  0  0  0  0  0  0  0  0
   -1.7140   -1.0250    1.6990 C   0  0  0  0  0  0  0  0  0  0  0  0
   -2.9700   -1.0480    1.1370 C   0  0  0  0  0  0  0  0  0  0  0  0
   -3.0980   -0.7170   -0.2010 C   0  0  0  0  0  0  0  0  0  0  0  0
   -4.4330   -0.7380   -0.7810 C   0  0  0  0  0  0  0  0  0  0  0  0
   -4.5270   -1.2150   -1.9450 O   0  0  0  0  0  0  0  0  0  0  0  0
   -5.5670   -0.2510   -0.0820 N   0  0  0  0  0  0  0  0  0  0  0  0
   -6.8640   -0.3150   -0.7300 C   0  0  2  0  0  0  0  0  0  0  0  0
   -7.2670    1.1020   -1.0420 C   0  0  0  0  0  0  0  0  0  0  0  0
   -8.1180    1.7610   -0.0160 C   0  0  0  0  0  0  0  0  0  0  0  0
   -9.1700    0.8680    0.4480 N   0  0  0  0  0  0  0  0  0  0  0  0
   -8.4990   -0.1980    1.1770 C   0  0  0  0  0  0  0  0  0  0  0  0
   -7.7730   -1.0510    0.1780 C   0  0  1  0  0  0  0  0  0  0  0  0
   -8.7060   -1.7710   -0.5430 F   0  0  0  0  0  0  0  0  0  0  0  0
   -2.0270   -0.3730   -0.9600 C   0  0  0  0  0  0  0  0  0  0  0  0
    3.0830    0.5280   -1.8220 S   0  0  0  0  0  0  0  0  0  0  0  0
  1  2  1  0
  2  3  2  0
  2  8  1  0
  3  4  1  0
  4  5  2  0
  5  6  1  0
  6  7  1  0
  6  8  2  0
  8  9  1  0
  9 10  1  0
 10 11  2  0
 10 12  1  0
 12 13  2  0
 12 33  1  0
 13 14  1  0
 14 15  2  0
 15 16  1  0
 15 33  1  0
 16 17  1  0
 17 18  2  0
 17 32  1  0
 18 19  1  0
 19 20  2  0
 20 21  1  0
 21 22  1  0
 21 32  2  0
 22 23  2  0
 22 24  1  0
 25 24  1  1
 25 26  1  0
 25 30  1  0
 26 27  1  0
 27 28  1  0
 28 29  1  0
 29 30  1  0
 30 31  1  6
M  CHG  1  28   1
M  END
