
     RDKit          3D

 32 35  0  0  0  0  0  0  0  0999 V2000
    3.3240   -1.0480    4.5300 O   0  0  0  0  0  0  0  0  0  0  0  0
    2.3960   -1.7190    4.0710 C   0  0  0  0  0  0  0  0  0  0  0  0
    2.0030   -1.9030    2.6910 C   0  0  0  0  0  0  0  0  0  0  0  0
    0.8920   -2.7250    2.4270 C   0  0  0  0  0  0  0  0  0  0  0  0
    0.4240   -2.9720    1.1600 C   0  0  0  0  0  0  0  0  0  0  0  0
    1.0340   -2.4140    0.0690 C   0  0  0  0  0  0  0  0  0  0  0  0
    0.5730   -2.6290   -1.2690 N   0  0  0  0  0  0  0  0  0  0  0  0
   -0.7050   -3.1520   -1.6320 C   0  0  0  0  0  0  0  0  0  0  0  0
   -1.7520   -2.1650   -1.2970 C   0  0  0  0  0  0  0  0  0  0  0  0
   -1.8220   -0.9920   -2.0160 C   0  0  0  0  0  0  0  0  0  0  0  0
   -2.7630   -0.0470   -1.7650 C   0  0  0  0  0  0  0  0  0  0  0  0
   -3.7050   -0.2670   -0.7310 C   0  0  0  0  0  0  0  0  0  0  0  0
   -4.6050    0.6700   -0.5140 O   0  0  0  0  0  0  0  0  0  0  0  0
   -5.6040    1.3020    0.0300 C   0  0  2  0  0  0  0  0  0  0  0  0
   -6.8610    1.4170   -0.9050 C   0  0  0  0  0  0  0  0  0  0  0  0
   -7.7410    2.2110    0.0640 C   0  0  0  0  0  0  0  0  0  0  0  0
   -6.7910    3.3120    0.5150 C   0  0  0  0  0  0  0  0  0  0  0  0
   -5.3960    2.8240    0.2320 C   0  0  0  0  0  0  0  0  0  0  0  0
   -3.6420   -1.4290   -0.0120 C   0  0  0  0  0  0  0  0  0  0  0  0
   -4.5320   -1.7490    1.0370 O   0  0  0  0  0  0  0  0  0  0  0  0
   -2.6550   -2.3760   -0.3070 C   0  0  0  0  0  0  0  0  0  0  0  0
    2.1330   -1.5980    0.3040 C   0  0  0  0  0  0  0  0  0  0  0  0
    2.6170   -1.3410    1.5910 C   0  0  0  0  0  0  0  0  0  0  0  0
    3.7430   -0.5200    1.8070 N   0  0  0  0  0  0  0  0  0  0  0  0
    4.4480    0.1750    0.7930 C   0  0  0  0  0  0  0  0  0  0  0  0
    4.1660    0.1530   -0.4130 O   0  0  0  0  0  0  0  0  0  0  0  0
    5.6320    0.9990    1.2560 C   0  0  0  0  0  0  0  0  0  0  0  0
    6.2710    1.6030    0.0260 C   0  0  1  0  0  0  0  0  0  0  0  0
    6.7650    0.5780   -0.9420 C   0  0  0  0  0  0  0  0  0  0  0  0
    6.4280    1.2230   -2.2900 C   0  0  0  0  0  0  0  0  0  0  0  0
    6.0590    2.6450   -1.8560 C   0  0  0  0  0  0  0  0  0  0  0  0
    5.3220    2.3610   -0.7000 O   0  0  0  0  0  0  0  0  0  0  0  0
  1  2  2  0
  2  3  1  0
  3  4  2  0
  3 23  1  0
  4  5  1  0
  5  6  2  0
  6  7  1  0
  6 22  1  0
  7  8  1  0
  8  9  1  0
  9 10  2  0
  9 21  1  0
 10 11  1  0
 11 12  2  0
 12 13  1  0
 12 19  1  0
 14 13  1  6
 14 15  1  0
 14 18  1  0
 15 16  1  0
 16 17  1  0
 17 18  1  0
 19 20  1  0
 19 21  2  0
 22 23  2  0
 23 24  1  0
 24 25  1  0
 25 26  2  0
 25 27  1  0
 28 27  1  1
 28 29  1  0
 28 32  1  0
 29 30  1  0
 30 31  1  0
 31 32  1  0
M  END
