
     RDKit          3D

 32 35  0  0  0  0  0  0  0  0999 V2000
    2.7540   -4.3620    0.6290 C   0  0  0  0  0  0  0  0  0  0  0  0
    2.5780   -3.2000    1.6200 C   0  0  0  0  0  0  0  0  0  0  0  0
    1.2810   -2.5360    1.3390 C   0  0  0  0  0  0  0  0  0  0  0  0
    0.1870   -2.7510    2.1180 C   0  0  0  0  0  0  0  0  0  0  0  0
   -1.0420   -2.1200    1.8240 C   0  0  0  0  0  0  0  0  0  0  0  0
   -2.1090   -2.3900    2.6470 O   0  0  0  0  0  0  0  0  0  0  0  0
   -1.1190   -1.2980    0.7620 C   0  0  0  0  0  0  0  0  0  0  0  0
   -2.2960   -0.5050    0.3900 C   0  0  0  0  0  0  0  0  0  0  0  0
   -2.4680   -0.0800   -0.8790 O   0  0  0  0  0  0  0  0  0  0  0  0
   -3.5410    0.6080   -1.0260 C   0  0  0  0  0  0  0  0  0  0  0  0
   -4.1280    1.2320   -2.0940 N   0  0  0  0  0  0  0  0  0  0  0  0
   -5.2620    1.9000   -2.0220 C   0  0  0  0  0  0  0  0  0  0  0  0
   -5.9060    2.5800   -3.1780 C   0  0  0  0  0  0  0  0  0  0  0  0
   -5.9250    1.9960   -0.8130 C   0  0  0  0  0  0  0  0  0  0  0  0
   -5.3800    1.3860    0.2960 C   0  0  0  0  0  0  0  0  0  0  0  0
   -5.9990    1.4910    1.3670 O   0  0  0  0  0  0  0  0  0  0  0  0
   -4.1970    0.6990    0.1880 C   0  0  0  0  0  0  0  0  0  0  0  0
   -3.3650   -0.0280    1.0730 C   0  0  0  0  0  0  0  0  0  0  0  0
   -3.6930   -0.1610    2.4960 C   0  0  0  0  0  0  0  0  0  0  0  0
   -2.6760    0.6480    3.2980 C   0  0  0  0  0  0  0  0  0  0  0  0
    0.0470   -1.0900   -0.0420 C   0  0  0  0  0  0  0  0  0  0  0  0
    1.2380   -1.6860    0.2220 C   0  0  0  0  0  0  0  0  0  0  0  0
    2.3680   -1.5200   -0.5120 O   0  0  0  0  0  0  0  0  0  0  0  0
    2.6700   -0.7700   -1.6230 C   0  0  0  0  0  0  0  0  0  0  0  0
    2.5840    0.7180   -1.4950 C   0  0  0  0  0  0  0  0  0  0  0  0
    3.5100    1.2590   -0.4690 C   0  0  0  0  0  0  0  0  0  0  0  0
    3.2390    1.6170    0.7610 O   0  0  0  0  0  0  0  0  0  0  0  0
    4.3060    2.0440    1.3710 C   0  0  0  0  0  0  0  0  0  0  0  0
    5.3390    1.9770    0.5390 N   0  0  0  0  0  0  0  0  0  0  0  0
    4.8640    1.4860   -0.6280 C   0  0  0  0  0  0  0  0  0  0  0  0
    5.7200    1.2860   -1.8280 C   0  0  0  0  0  0  0  0  0  0  0  0
    5.4620    2.4100   -2.8180 C   0  0  0  0  0  0  0  0  0  0  0  0
  1  2  1  0
  2  3  1  0
  3  4  2  0
  3 22  1  0
  4  5  1  0
  5  6  1  0
  5  7  2  0
  7  8  1  0
  7 21  1  0
  8  9  1  0
  8 18  2  0
  9 10  1  0
 10 11  1  0
 10 17  2  0
 11 12  1  0
 12 13  1  0
 12 14  2  0
 14 15  1  0
 15 16  2  0
 15 17  1  0
 17 18  1  0
 18 19  1  0
 19 20  1  0
 21 22  2  0
 22 23  1  0
 23 24  1  0
 24 25  1  0
 25 26  1  0
 26 27  1  0
 26 30  2  0
 27 28  1  0
 28 29  2  0
 29 30  1  0
 30 31  1  0
 31 32  1  0
M  END
