
     RDKit          3D

 32 35  0  0  0  0  0  0  0  0999 V2000
  -10.3150   -0.6420   -1.1550 C   0  0  0  0  0  0  0  0  0  0  0  0
   -9.8790   -0.4280    0.2370 C   0  0  0  0  0  0  0  0  0  0  0  0
   -8.5870   -0.3820    0.5560 C   0  0  0  0  0  0  0  0  0  0  0  0
   -7.5640   -0.5410   -0.4480 C   0  0  0  0  0  0  0  0  0  0  0  0
   -6.2880   -0.4920   -0.1200 C   0  0  0  0  0  0  0  0  0  0  0  0
   -5.7690   -0.2780    1.2440 C   0  0  0  0  0  0  0  0  0  0  0  0
   -4.5000    0.3330    1.2510 O   0  0  0  0  0  0  0  0  0  0  0  0
   -3.5980    0.1630    0.2310 C   0  0  0  0  0  0  0  0  0  0  0  0
   -2.2870    0.5000    0.4540 C   0  0  0  0  0  0  0  0  0  0  0  0
   -1.3910    0.3190   -0.5950 C   0  0  0  0  0  0  0  0  0  0  0  0
    0.0550    0.6540   -0.4590 C   0  0  2  0  0  0  0  0  0  0  0  0
    0.2740    1.9530   -1.2020 C   0  0  0  0  0  0  0  0  0  0  0  0
    0.8040   -0.4350   -1.0030 N   0  0  0  0  0  0  0  0  0  0  0  0
    2.2240   -0.2800   -0.9500 C   0  0  0  0  0  0  0  0  0  0  0  0
    2.6890   -0.3290    0.4790 C   0  0  1  0  0  0  0  0  0  0  0  0
    2.3520   -1.5370    1.0660 O   0  0  0  0  0  0  0  0  0  0  0  0
    4.1600   -0.0800    0.5900 C   0  0  0  0  0  0  0  0  0  0  0  0
    4.6830    1.1380    0.9530 C   0  0  0  0  0  0  0  0  0  0  0  0
    6.0410    1.3510    1.0520 C   0  0  0  0  0  0  0  0  0  0  0  0
    6.8980    0.3160    0.7810 C   0  0  0  0  0  0  0  0  0  0  0  0
    6.4380   -0.9590    0.4040 C   0  0  0  0  0  0  0  0  0  0  0  0
    7.3970   -1.9450    0.1490 N   0  0  0  0  0  0  0  0  0  0  0  0
    7.0880   -3.2560   -0.2280 C   0  0  0  0  0  0  0  0  0  0  0  0
    5.9340   -3.6780   -0.3750 O   0  0  0  0  0  0  0  0  0  0  0  0
    5.0740   -1.1030    0.3240 C   0  0  0  0  0  0  0  0  0  0  0  0
    8.2060    0.7780    0.9500 O   0  0  0  0  0  0  0  0  0  0  0  0
    8.2150    2.1790    1.1060 C   0  0  0  0  0  0  0  0  0  0  0  0
    6.7880    2.5740    1.4220 C   0  0  0  0  0  0  0  0  0  0  0  0
   -1.8040   -0.1800   -1.8120 C   0  0  0  0  0  0  0  0  0  0  0  0
   -3.1120   -0.5170   -2.0360 C   0  0  0  0  0  0  0  0  0  0  0  0
   -4.0130   -0.3340   -0.9790 C   0  0  0  0  0  0  0  0  0  0  0  0
   -5.3430   -0.6570   -1.1490 O   0  0  0  0  0  0  0  0  0  0  0  0
  1  2  1  0
  2  3  2  3
  3  4  1  0
  4  5  2  3
  5  6  1  0
  5 32  1  0
  6  7  1  0
  7  8  1  0
  8  9  2  0
  8 31  1  0
  9 10  1  0
 10 11  1  0
 10 29  2  0
 11 12  1  6
 11 13  1  0
 13 14  1  0
 14 15  1  0
 15 16  1  6
 15 17  1  0
 17 18  2  0
 17 25  1  0
 18 19  1  0
 19 20  2  0
 19 28  1  0
 20 21  1  0
 20 26  1  0
 21 22  1  0
 21 25  2  0
 22 23  1  0
 23 24  2  0
 26 27  1  0
 27 28  1  0
 29 30  1  0
 30 31  2  0
 31 32  1  0
M  END
