
     RDKit          3D

 34 38  0  0  0  0  0  0  0  0999 V2000
    7.1100   -0.5550    1.1070 C   0  0  0  0  0  0  0  0  0  0  0  0
    5.8670   -1.4050    1.2740 C   0  0  0  0  0  0  0  0  0  0  0  0
    4.8900   -1.1210    0.2260 N   0  0  0  0  0  0  0  0  0  0  0  0
    3.6140   -0.9100    0.8790 C   0  0  0  0  0  0  0  0  0  0  0  0
    2.5480   -0.5570   -0.0930 C   0  0  0  0  0  0  0  0  0  0  0  0
    1.2790   -0.3230    0.3810 C   0  0  0  0  0  0  0  0  0  0  0  0
    0.2710    0.0060   -0.4990 C   0  0  0  0  0  0  0  0  0  0  0  0
   -1.0960    0.2780    0.0420 C   0  0  2  0  0  0  0  0  0  0  0  0
   -2.0510    0.3160   -1.1230 C   0  0  0  0  0  0  0  0  0  0  0  0
   -1.0430    1.6190    0.6880 N   0  0  0  0  0  0  0  0  0  0  0  0
   -0.6080    2.7680   -0.0060 C   0  0  0  0  0  0  0  0  0  0  0  0
   -0.2490    2.6760   -1.2000 O   0  0  0  0  0  0  0  0  0  0  0  0
   -0.5600    4.1140    0.6470 C   0  0  2  0  0  0  0  0  0  0  0  0
   -2.0050    4.3950    1.0860 C   0  0  0  0  0  0  0  0  0  0  0  0
   -2.4450    5.4210    0.0910 C   0  0  1  0  0  0  0  0  0  0  0  0
   -1.8550    6.7510    0.5010 C   0  0  0  0  0  0  0  0  0  0  0  0
   -0.3810    6.5300    0.1950 C   0  0  0  0  0  0  0  0  0  0  0  0
   -0.3800    5.1460   -0.4140 C   0  0  2  0  0  0  0  0  0  0  0  0
   -1.6490    5.1250   -1.0400 O   0  0  0  0  0  0  0  0  0  0  0  0
   -1.5300   -0.6400    1.0730 C   0  0  0  0  0  0  0  0  0  0  0  0
   -1.5870   -0.1330    2.2660 O   0  0  0  0  0  0  0  0  0  0  0  0
   -1.9050   -1.9740    1.0090 N   0  0  0  0  0  0  0  0  0  0  0  0
   -2.4550   -2.6860    2.2270 C   0  0  0  0  0  0  0  0  0  0  0  0
   -3.6340   -3.4140    1.5510 C   0  0  0  0  0  0  0  0  0  0  0  0
   -2.9950   -3.8360    0.2590 C   0  0  0  0  0  0  0  0  0  0  0  0
   -3.3050   -4.8970   -0.5540 C   0  0  0  0  0  0  0  0  0  0  0  0
   -2.5240   -5.1030   -1.6940 C   0  0  0  0  0  0  0  0  0  0  0  0
   -2.8210   -6.2340   -2.6020 C   0  0  0  0  0  0  0  0  0  0  0  0
   -1.4840   -4.2260   -1.9390 C   0  0  0  0  0  0  0  0  0  0  0  0
   -1.2050   -3.1760   -1.1020 C   0  0  0  0  0  0  0  0  0  0  0  0
   -1.9600   -2.9600    0.0180 C   0  0  0  0  0  0  0  0  0  0  0  0
    0.5620    0.0910   -1.8330 C   0  0  0  0  0  0  0  0  0  0  0  0
    1.8570   -0.1560   -2.2390 C   0  0  0  0  0  0  0  0  0  0  0  0
    2.8490   -0.4770   -1.3970 N   0  0  0  0  0  0  0  0  0  0  0  0
  1  2  1  0
  2  3  1  0
  3  4  1  0
  4  5  1  0
  5  6  2  0
  5 34  1  0
  6  7  1  0
  7  8  1  0
  7 32  2  0
  8  9  1  6
  8 10  1  0
  8 20  1  0
 10 11  1  0
 11 12  2  0
 13 11  1  6
 13 14  1  0
 13 18  1  0
 15 14  1  1
 15 16  1  0
 15 19  1  0
 16 17  1  0
 18 17  1  1
 18 19  1  0
 20 21  2  0
 20 22  1  0
 22 23  1  0
 22 31  1  0
 23 24  1  0
 24 25  1  0
 25 26  2  0
 25 31  1  0
 26 27  1  0
 27 28  1  0
 27 29  2  0
 29 30  1  0
 30 31  2  0
 32 33  1  0
 33 34  2  0
M  CHG  2   3   1  34   1
M  END
