
     RDKit          3D

 33 38  0  0  0  0  0  0  0  0999 V2000
    1.1170    5.1080   -0.7230 N   0  0  0  0  0  0  0  0  0  0  0  0
    0.8780    3.6940   -1.1060 C   0  0  0  0  0  0  0  0  0  0  0  0
    1.0790    2.7950    0.0590 C   0  0  0  0  0  0  0  0  0  0  0  0
    0.8810    1.3500   -0.1030 C   0  0  1  0  0  0  0  0  0  0  0  0
   -0.5110    0.9690   -0.5850 C   0  0  0  0  0  0  0  0  0  0  0  0
   -1.5680    1.3710    0.2810 N   0  0  2  0  0  0  0  0  0  0  0  0
   -1.7840    0.3770    1.3490 C   0  0  0  0  0  0  0  0  0  0  0  0
   -2.5860   -0.6500    0.6560 C   0  0  1  0  0  0  0  0  0  0  0  0
   -3.4060   -1.5470    1.5440 C   0  0  0  0  0  0  0  0  0  0  0  0
   -4.2710   -2.2940    0.7070 O   0  0  0  0  0  0  0  0  0  0  0  0
   -4.5520   -1.9170   -0.6220 C   0  0  0  0  0  0  0  0  0  0  0  0
   -5.1530   -2.8260   -1.4930 C   0  0  0  0  0  0  0  0  0  0  0  0
   -5.4300   -2.4600   -2.7950 C   0  0  0  0  0  0  0  0  0  0  0  0
   -5.1130   -1.1950   -3.2430 C   0  0  0  0  0  0  0  0  0  0  0  0
   -4.5140   -0.3110   -2.3530 C   0  0  0  0  0  0  0  0  0  0  0  0
   -4.2290   -0.6480   -1.0550 C   0  0  0  0  0  0  0  0  0  0  0  0
   -3.6090    0.2270   -0.0880 C   0  0  2  0  0  0  0  0  0  0  0  0
   -2.8060    1.3520   -0.5180 C   0  0  0  0  0  0  0  0  0  0  0  0
    1.9170    0.4970   -0.6890 C   0  0  2  0  0  0  0  0  0  0  0  0
    2.4410    0.6540   -2.0550 C   0  0  0  0  0  0  0  0  0  0  0  0
    1.4040   -0.3140   -2.5910 C   0  0  0  0  0  0  0  0  0  0  0  0
    0.8680   -0.5250   -3.6740 O   0  0  0  0  0  0  0  0  0  0  0  0
    1.3720   -0.8360   -1.2380 C   0  0  0  0  0  0  0  0  0  0  0  0
    1.1530   -1.7560   -0.3890 N   0  0  0  0  0  0  0  0  0  0  0  0
    1.3990   -1.5420    0.9300 O   0  0  0  0  0  0  0  0  0  0  0  0
    2.5270   -0.8030    1.3540 C   0  0  1  0  0  0  0  0  0  0  0  0
    3.5820   -1.6460    1.9700 C   0  0  0  0  0  0  0  0  0  0  0  0
    3.2400   -2.6920    2.8370 C   0  0  0  0  0  0  0  0  0  0  0  0
    4.1970   -3.4860    3.4290 C   0  0  0  0  0  0  0  0  0  0  0  0
    5.5330   -3.2840    3.1920 C   0  0  0  0  0  0  0  0  0  0  0  0
    5.9030   -2.2650    2.3460 C   0  0  0  0  0  0  0  0  0  0  0  0
    4.9280   -1.4760    1.7590 C   0  0  0  0  0  0  0  0  0  0  0  0
    3.0430    0.1230    0.2870 C   0  0  0  0  0  0  0  0  0  0  0  0
  1  2  1  0
  2  3  1  0
  4  3  1  6
  4  5  1  0
  4 19  1  0
  6  5  1  6
  6  7  1  0
  6 18  1  0
  8  7  1  1
  8  9  1  0
  8 17  1  0
  9 10  1  0
 10 11  1  0
 11 12  2  0
 11 16  1  0
 12 13  1  0
 13 14  2  0
 14 15  1  0
 15 16  2  0
 16 17  1  0
 17 18  1  6
 19 20  1  6
 19 23  1  0
 19 33  1  0
 20 21  1  0
 21 22  2  0
 21 23  1  0
 23 24  2  0
 24 25  1  0
 25 26  1  0
 26 27  1  6
 26 33  1  0
 27 28  2  0
 27 32  1  0
 28 29  1  0
 29 30  2  0
 30 31  1  0
 31 32  2  0
M  CHG  2   1   1   6   1
M  END
