
     RDKit          3D

 34 38  0  0  0  0  0  0  0  0999 V2000
   -2.5820    0.0220    1.8000 C   0  0  0  0  0  0  0  0  0  0  0  0
   -3.1260   -0.6640    0.6350 N   0  0  1  0  0  0  0  0  0  0  0  0
   -4.3970   -1.2150    0.9780 C   0  0  0  0  0  0  0  0  0  0  0  0
   -3.1700    0.2230   -0.5070 C   0  0  1  0  0  0  0  0  0  0  0  0
   -2.7950   -0.5270   -1.7520 C   0  0  0  0  0  0  0  0  0  0  0  0
   -1.4690   -1.1010   -1.7070 N   0  0  0  0  0  0  0  0  0  0  0  0
   -0.2960   -0.3110   -1.5450 C   0  0  0  0  0  0  0  0  0  0  0  0
   -0.3850    0.9340   -1.4360 O   0  0  0  0  0  0  0  0  0  0  0  0
    0.9980   -1.0330   -1.5140 C   0  0  1  0  0  0  0  0  0  0  0  0
    1.7860   -0.7680   -0.2550 C   0  0  0  0  0  0  0  0  0  0  0  0
    3.1420   -1.3530   -0.4690 C   0  0  0  0  0  0  0  0  0  0  0  0
    4.2620   -0.8900    0.1410 C   0  0  0  0  0  0  0  0  0  0  0  0
    5.5100   -1.4650   -0.0850 C   0  0  0  0  0  0  0  0  0  0  0  0
    6.7090   -0.9460    0.5910 C   0  0  2  0  0  0  0  0  0  0  0  0
    6.3920    0.3200    1.3530 C   0  0  0  0  0  0  0  0  0  0  0  0
    7.6540    0.8510    1.9820 C   0  0  0  0  0  0  0  0  0  0  0  0
    8.5960    1.1690    0.8190 C   0  0  0  0  0  0  0  0  0  0  0  0
    8.9460   -0.1370    0.1860 C   0  0  0  0  0  0  0  0  0  0  0  0
    7.7730   -0.8070   -0.3480 N   0  0  0  0  0  0  0  0  0  0  0  0
    5.6150   -2.5310   -0.9480 C   0  0  0  0  0  0  0  0  0  0  0  0
    4.4900   -3.0260   -1.5840 C   0  0  0  0  0  0  0  0  0  0  0  0
    3.2610   -2.4260   -1.3340 C   0  0  0  0  0  0  0  0  0  0  0  0
    2.0710   -2.8970   -1.9640 N   0  0  0  0  0  0  0  0  0  0  0  0
    0.8580   -2.3920   -1.6510 O   0  0  0  0  0  0  0  0  0  0  0  0
   -4.5410    0.7600   -0.6520 C   0  0  0  0  0  0  0  0  0  0  0  0
   -5.2550    0.7120   -1.8310 C   0  0  0  0  0  0  0  0  0  0  0  0
   -6.5430    1.2380   -1.9530 C   0  0  0  0  0  0  0  0  0  0  0  0
   -7.1140    1.8210   -0.8600 C   0  0  0  0  0  0  0  0  0  0  0  0
   -6.4230    1.8810    0.3290 C   0  0  0  0  0  0  0  0  0  0  0  0
   -5.1540    1.3560    0.4260 C   0  0  0  0  0  0  0  0  0  0  0  0
   -7.0720    2.5290    1.5210 C   0  0  0  0  0  0  0  0  0  0  0  0
   -8.5540    2.5680    1.3200 C   0  0  0  0  0  0  0  0  0  0  0  0
   -8.9010    3.1790   -0.0130 C   0  0  0  0  0  0  0  0  0  0  0  0
   -8.4040    2.3340   -1.0250 O   0  0  0  0  0  0  0  0  0  0  0  0
  2  1  1  1
  2  3  1  0
  2  4  1  0
  4  5  1  6
  4 25  1  0
  5  6  1  0
  6  7  1  0
  7  8  2  0
  9  7  1  1
  9 10  1  0
  9 24  1  0
 10 11  1  0
 11 12  2  0
 11 22  1  0
 12 13  1  0
 14 13  1  6
 13 20  2  0
 14 15  1  0
 14 19  1  0
 15 16  1  0
 16 17  1  0
 17 18  1  0
 18 19  1  0
 20 21  1  0
 21 22  2  0
 22 23  1  0
 23 24  1  0
 25 26  2  0
 25 30  1  0
 26 27  1  0
 27 28  2  0
 28 29  1  0
 28 34  1  0
 29 30  2  0
 29 31  1  0
 31 32  1  0
 32 33  1  0
 33 34  1  0
M  CHG  2   2   1  19   1
M  END
