
     RDKit          3D

 34 38  0  0  0  0  0  0  0  0999 V2000
   -7.9730   -2.7560   -0.5540 N   0  0  0  0  0  0  0  0  0  0  0  0
   -7.3930   -2.6760    0.7550 C   0  0  0  0  0  0  0  0  0  0  0  0
   -5.9660   -2.2590    0.8520 C   0  0  0  0  0  0  0  0  0  0  0  0
   -5.7030   -0.9170    0.4440 N   0  0  0  0  0  0  0  0  0  0  0  0
   -5.8840   -0.6900   -1.0000 C   0  0  0  0  0  0  0  0  0  0  0  0
   -5.2470    0.6640   -1.1070 C   0  0  0  0  0  0  0  0  0  0  0  0
   -5.5210    1.7800   -1.8390 C   0  0  0  0  0  0  0  0  0  0  0  0
   -4.8260    2.9640   -1.6520 C   0  0  0  0  0  0  0  0  0  0  0  0
   -3.8560    2.9830   -0.7090 C   0  0  0  0  0  0  0  0  0  0  0  0
   -3.5700    1.8170    0.0560 C   0  0  0  0  0  0  0  0  0  0  0  0
   -4.2660    0.6710   -0.1530 C   0  0  0  0  0  0  0  0  0  0  0  0
   -4.1900   -0.7170    0.4550 C   0  0  1  0  0  0  0  0  0  0  0  0
   -3.6330   -0.6920    1.8150 C   0  0  0  0  0  0  0  0  0  0  0  0
   -2.1480   -0.6810    1.9530 C   0  0  0  0  0  0  0  0  0  0  0  0
   -1.2090    0.0480    1.5430 O   0  0  0  0  0  0  0  0  0  0  0  0
   -0.2440    0.8060    1.1230 C   0  0  0  0  0  0  0  0  0  0  0  0
   -0.3570    2.0180    1.4720 O   0  0  0  0  0  0  0  0  0  0  0  0
    0.9440    0.3900    0.3110 C   0  0  0  0  0  0  0  0  0  0  0  0
    0.9830   -0.6830   -0.2340 O   0  0  0  0  0  0  0  0  0  0  0  0
    2.0820    1.2850    0.1750 N   0  0  0  0  0  0  0  0  0  0  0  0
    2.0820    2.5360    0.7890 C   0  0  0  0  0  0  0  0  0  0  0  0
    3.3960    3.2390    0.9090 C   0  0  0  0  0  0  0  0  0  0  0  0
    4.3840    2.7840   -0.1530 C   0  0  0  0  0  0  0  0  0  0  0  0
    4.4820    1.2720    0.0530 C   0  0  2  0  0  0  0  0  0  0  0  0
    5.6930    0.6880   -0.5440 C   0  0  2  0  0  0  0  0  0  0  0  0
    5.7710    0.5590   -1.9520 N   0  0  0  0  0  0  0  0  0  0  0  0
    6.8230   -0.4310   -2.1920 C   0  0  0  0  0  0  0  0  0  0  0  0
    6.7910   -1.2900   -0.9550 C   0  0  0  0  0  0  0  0  0  0  0  0
    7.3230   -2.5560   -0.7370 C   0  0  0  0  0  0  0  0  0  0  0  0
    7.1220   -3.1510    0.4680 C   0  0  0  0  0  0  0  0  0  0  0  0
    6.3940   -2.5080    1.4420 C   0  0  0  0  0  0  0  0  0  0  0  0
    5.8680   -1.2620    1.2380 C   0  0  0  0  0  0  0  0  0  0  0  0
    6.0720   -0.6260    0.0060 C   0  0  0  0  0  0  0  0  0  0  0  0
    3.1880    0.7580   -0.6120 C   0  0  0  0  0  0  0  0  0  0  0  0
  1  2  1  0
  2  3  1  0
  3  4  1  0
  4  5  1  0
  4 12  1  0
  5  6  1  0
  6  7  2  0
  6 11  1  0
  7  8  1  0
  8  9  2  0
  9 10  1  0
 10 11  2  0
 11 12  1  0
 12 13  1  1
 13 14  1  0
 14 15  1  0
 15 16  1  0
 16 17  2  0
 16 18  1  0
 18 19  2  0
 18 20  1  0
 20 21  1  0
 20 34  1  0
 21 22  1  0
 22 23  1  0
 24 23  1  6
 24 25  1  0
 24 34  1  0
 25 26  1  6
 25 33  1  0
 26 27  1  0
 27 28  1  0
 28 29  2  0
 28 33  1  0
 29 30  1  0
 30 31  2  0
 31 32  1  0
 32 33  2  0
M  CHG  2   1   1  26   1
M  END
