
     RDKit          3D

 34 38  0  0  0  0  0  0  0  0999 V2000
    9.1140   -0.0080    0.7960 C   0  0  0  0  0  0  0  0  0  0  0  0
    8.0160   -0.6470    0.1060 N   0  0  0  0  0  0  0  0  0  0  0  0
    6.6510   -0.2330    0.3140 C   0  0  0  0  0  0  0  0  0  0  0  0
    6.3500    0.7820    1.2050 C   0  0  0  0  0  0  0  0  0  0  0  0
    5.0300    1.2050    1.3820 C   0  0  0  0  0  0  0  0  0  0  0  0
    4.8170    2.2020    2.2750 O   0  0  0  0  0  0  0  0  0  0  0  0
    3.9840    0.6280    0.6750 C   0  0  0  0  0  0  0  0  0  0  0  0
    2.6940    1.1530    0.7950 N   0  0  0  0  0  0  0  0  0  0  0  0
    1.4840    0.6700    0.1970 C   0  0  0  0  0  0  0  0  0  0  0  0
    1.5350   -0.3510   -0.4700 O   0  0  0  0  0  0  0  0  0  0  0  0
    0.2600    1.4430    0.4040 C   0  0  0  0  0  0  0  0  0  0  0  0
   -0.9960    1.1250   -0.2860 C   0  0  0  0  0  0  0  0  0  0  0  0
   -1.7800   -0.0060   -0.0120 N   0  0  2  0  0  0  0  0  0  0  0  0
   -1.6850   -1.0250   -1.0560 C   0  0  0  0  0  0  0  0  0  0  0  0
   -2.3320   -2.3380   -0.6570 C   0  0  2  0  0  0  0  0  0  0  0  0
   -1.5970   -3.5370   -1.2290 C   0  0  0  0  0  0  0  0  0  0  0  0
   -2.6770   -4.6200   -1.0790 C   0  0  0  0  0  0  0  0  0  0  0  0
   -3.9550   -3.8390   -1.1860 C   0  0  0  0  0  0  0  0  0  0  0  0
   -3.6050   -2.4600   -1.3430 N   0  0  1  0  0  0  0  0  0  0  0  0
   -4.6150   -1.6750   -0.6500 C   0  0  0  0  0  0  0  0  0  0  0  0
   -4.2310   -0.2260   -0.6180 C   0  0  0  0  0  0  0  0  0  0  0  0
   -3.1340    0.1550    0.3440 C   0  0  2  0  0  0  0  0  0  0  0  0
   -3.5760    1.1900    1.2840 C   0  0  0  0  0  0  0  0  0  0  0  0
   -3.7600    1.0590    2.6740 C   0  0  0  0  0  0  0  0  0  0  0  0
   -4.0310    2.2180    3.2120 O   0  0  0  0  0  0  0  0  0  0  0  0
   -4.0520    3.1500    2.2950 C   0  0  0  0  0  0  0  0  0  0  0  0
   -4.3030    4.5210    2.3580 C   0  0  0  0  0  0  0  0  0  0  0  0
   -4.2790    5.2750    1.1850 C   0  0  0  0  0  0  0  0  0  0  0  0
   -4.0120    4.6640   -0.0200 C   0  0  0  0  0  0  0  0  0  0  0  0
   -3.7630    3.3190   -0.0740 C   0  0  0  0  0  0  0  0  0  0  0  0
   -3.7750    2.5630    1.0750 C   0  0  0  0  0  0  0  0  0  0  0  0
    4.3210   -0.3710   -0.1930 C   0  0  0  0  0  0  0  0  0  0  0  0
    5.6380   -0.8190   -0.3920 C   0  0  0  0  0  0  0  0  0  0  0  0
    5.8920   -1.9260   -1.3730 C   0  0  0  0  0  0  0  0  0  0  0  0
  1  2  1  0
  2  3  1  0
  3  4  2  0
  3 33  1  0
  4  5  1  0
  5  6  1  0
  5  7  2  0
  7  8  1  0
  7 32  1  0
  8  9  1  0
  9 10  2  0
  9 11  1  0
 11 12  1  0
 13 12  1  6
 13 14  1  0
 13 22  1  0
 15 14  1  6
 15 16  1  0
 15 19  1  0
 16 17  1  0
 17 18  1  0
 19 18  1  1
 19 20  1  0
 20 21  1  0
 21 22  1  0
 22 23  1  6
 23 24  2  0
 23 31  1  0
 24 25  1  0
 25 26  1  0
 26 27  2  0
 26 31  1  0
 27 28  1  0
 28 29  2  0
 29 30  1  0
 30 31  2  0
 32 33  2  0
 33 34  1  0
M  CHG  2  13   1  19   1
M  END
