
     RDKit          3D

 34 37  0  0  0  0  0  0  0  0999 V2000
    8.7950    0.3800    1.5290 C   0  0  0  0  0  0  0  0  0  0  0  0
    9.1570    0.3640    0.0920 C   0  0  0  0  0  0  0  0  0  0  0  0
   10.3740   -0.1810   -0.3260 C   0  0  0  0  0  0  0  0  0  0  0  0
   10.7090   -0.1990   -1.6620 C   0  0  0  0  0  0  0  0  0  0  0  0
    9.8120    0.3350   -2.5610 C   0  0  0  0  0  0  0  0  0  0  0  0
    8.5960    0.8790   -2.1410 C   0  0  0  0  0  0  0  0  0  0  0  0
    7.4600    1.5550   -3.2910 Cl  0  0  0  0  0  0  0  0  0  0  0  0
    8.2640    0.8960   -0.8080 C   0  0  0  0  0  0  0  0  0  0  0  0
    7.0490    1.4370   -0.3430 N   0  0  0  0  0  0  0  0  0  0  0  0
    5.9210    0.5800   -0.2270 C   0  0  0  0  0  0  0  0  0  0  0  0
    6.0700   -0.6200   -0.5470 O   0  0  0  0  0  0  0  0  0  0  0  0
    4.6440    1.0280    0.2320 C   0  0  0  0  0  0  0  0  0  0  0  0
    4.0810    2.1840    0.6510 C   0  0  0  0  0  0  0  0  0  0  0  0
    2.8520    2.2430    1.0060 N   0  0  0  0  0  0  0  0  0  0  0  0
    2.0160    1.2430    1.0120 C   0  0  0  0  0  0  0  0  0  0  0  0
    0.6940    0.9810    1.2830 N   0  0  0  0  0  0  0  0  0  0  0  0
    0.0660   -0.2640    1.2540 C   0  0  0  0  0  0  0  0  0  0  0  0
    0.6980   -1.4480    1.4360 C   0  0  0  0  0  0  0  0  0  0  0  0
    0.0230   -2.6750    1.3680 C   0  0  0  0  0  0  0  0  0  0  0  0
   -1.3240   -2.6730    1.1100 C   0  0  0  0  0  0  0  0  0  0  0  0
   -2.0230   -1.4870    0.9160 C   0  0  0  0  0  0  0  0  0  0  0  0
   -3.4490   -1.5050    0.6450 C   0  0  0  0  0  0  0  0  0  0  0  0
   -4.0540   -2.6140    0.7480 O   0  0  0  0  0  0  0  0  0  0  0  0
   -4.2100   -0.3710    0.2750 N   0  0  0  0  0  0  0  0  0  0  0  0
   -5.6360   -0.4270    0.0120 C   0  0  1  0  0  0  0  0  0  0  0  0
   -6.3950    0.4140    1.0140 C   0  0  0  0  0  0  0  0  0  0  0  0
   -7.8700    0.2360    0.9110 C   0  0  0  0  0  0  0  0  0  0  0  0
   -8.2790   -0.1910   -0.4830 C   0  0  2  0  0  0  0  0  0  0  0  0
   -9.7040    0.1910   -0.7780 C   0  0  0  0  0  0  0  0  0  0  0  0
   -8.1720   -1.5820   -0.5280 O   0  0  0  0  0  0  0  0  0  0  0  0
   -7.3630    0.4960   -1.4530 C   0  0  0  0  0  0  0  0  0  0  0  0
   -5.9650   -0.0820   -1.4120 C   0  0  0  0  0  0  0  0  0  0  0  0
   -1.3030   -0.3160    0.9940 C   0  0  0  0  0  0  0  0  0  0  0  0
    3.1710   -0.0720    0.3930 S   0  0  0  0  0  0  0  0  0  0  0  0
  1  2  1  0
  2  3  2  0
  2  8  1  0
  3  4  1  0
  4  5  2  0
  5  6  1  0
  6  7  1  0
  6  8  2  0
  8  9  1  0
  9 10  1  0
 10 11  2  0
 10 12  1  0
 12 13  2  0
 12 34  1  0
 13 14  1  0
 14 15  2  0
 15 16  1  0
 15 34  1  0
 16 17  1  0
 17 18  2  0
 17 33  1  0
 18 19  1  0
 19 20  2  0
 20 21  1  0
 21 22  1  0
 21 33  2  0
 22 23  2  0
 22 24  1  0
 25 24  1  6
 25 26  1  0
 25 32  1  0
 26 27  1  0
 27 28  1  0
 28 29  1  6
 28 30  1  0
 28 31  1  0
 31 32  1  0
M  END
