
     RDKit          3D

 35 40  0  0  0  0  0  0  0  0999 V2000
   -0.5530    5.2980    0.1510 C   0  0  0  0  0  0  0  0  0  0  0  0
   -1.4080    4.6310    1.1790 C   0  0  0  0  0  0  0  0  0  0  0  0
   -0.7170    3.7410    2.0320 N   0  0  0  0  0  0  0  0  0  0  0  0
   -1.4430    3.0740    3.0230 C   0  0  0  0  0  0  0  0  0  0  0  0
   -0.7770    1.9590    3.7230 C   0  0  0  0  0  0  0  0  0  0  0  0
   -0.0570    1.1290    2.7710 N   0  0  0  0  0  0  0  0  0  0  0  0
   -0.9970    0.6320    1.8110 C   0  0  0  0  0  0  0  0  0  0  0  0
   -0.4560   -0.3990    0.8930 C   0  0  0  0  0  0  0  0  0  0  0  0
   -0.3870   -0.2160   -0.4060 C   0  0  0  0  0  0  0  0  0  0  0  0
   -0.8230    0.9860   -1.0890 C   0  0  0  0  0  0  0  0  0  0  0  0
   -0.7620    1.2110   -2.3920 C   0  0  0  0  0  0  0  0  0  0  0  0
   -1.2260    2.4270   -2.9160 C   0  0  0  0  0  0  0  0  0  0  0  0
   -1.1780    2.7270   -4.2580 C   0  0  0  0  0  0  0  0  0  0  0  0
   -0.6540    1.7980   -5.1220 C   0  0  0  0  0  0  0  0  0  0  0  0
   -0.5460    1.9840   -6.5020 C   0  0  0  0  0  0  0  0  0  0  0  0
    0.0100    0.9430   -7.2100 C   0  0  0  0  0  0  0  0  0  0  0  0
    0.4370   -0.2010   -6.6500 N   0  0  0  0  0  0  0  0  0  0  0  0
    0.3480   -0.4050   -5.3450 C   0  0  0  0  0  0  0  0  0  0  0  0
    0.6420   -1.3550   -4.4240 N   0  0  0  0  0  0  0  0  0  0  0  0
    0.3010   -0.9560   -3.2050 N   0  0  0  0  0  0  0  0  0  0  0  0
   -0.2380    0.2810   -3.2620 C   0  0  0  0  0  0  0  0  0  0  0  0
   -0.2030    0.6110   -4.5970 C   0  0  0  0  0  0  0  0  0  0  0  0
   -0.0380   -1.6490    1.5230 C   0  0  0  0  0  0  0  0  0  0  0  0
   -0.1020   -1.8350    2.8880 C   0  0  0  0  0  0  0  0  0  0  0  0
    0.2800   -3.0140    3.5050 C   0  0  0  0  0  0  0  0  0  0  0  0
    0.7380   -4.0320    2.7080 C   0  0  0  0  0  0  0  0  0  0  0  0
    0.8170   -3.8880    1.3490 C   0  0  0  0  0  0  0  0  0  0  0  0
    0.4210   -2.6790    0.7640 C   0  0  0  0  0  0  0  0  0  0  0  0
    1.3060   -5.0370    0.5750 C   0  0  0  0  0  0  0  0  0  0  0  0
    0.6530   -6.3330    1.0190 C   0  0  0  0  0  0  0  0  0  0  0  0
    0.6210   -6.5010    2.5110 C   0  0  0  0  0  0  0  0  0  0  0  0
    1.1680   -5.3220    3.2770 C   0  0  0  0  0  0  0  0  0  0  0  0
    0.9790    1.9750    2.2730 C   0  0  1  0  0  0  0  0  0  0  0  0
    2.0590    1.3490    1.4730 C   0  0  0  0  0  0  0  0  0  0  0  0
    0.5050    3.2340    1.5990 C   0  0  0  0  0  0  0  0  0  0  0  0
  1  2  1  0
  2  3  1  0
  3  4  1  0
  3 35  1  0
  4  5  1  0
  5  6  1  0
  6  7  1  0
  6 33  1  0
  7  8  1  0
  8  9  2  3
  8 23  1  0
  9 10  1  0
 10 11  2  3
 11 12  1  0
 11 21  1  0
 12 13  2  0
 13 14  1  0
 14 15  2  0
 14 22  1  0
 15 16  1  0
 16 17  2  0
 17 18  1  0
 18 19  1  0
 18 22  2  0
 19 20  1  0
 20 21  2  0
 21 22  1  0
 23 24  2  0
 23 28  1  0
 24 25  1  0
 25 26  2  0
 26 27  1  0
 26 32  1  0
 27 28  2  0
 27 29  1  0
 29 30  1  0
 30 31  1  0
 31 32  1  0
 33 34  1  6
 33 35  1  0
M  CHG  1  17   1
M  END
