
     RDKit          3D

 35 40  0  0  0  0  0  0  0  0999 V2000
    8.2230   -1.2830    2.0260 C   0  0  0  0  0  0  0  0  0  0  0  0
    7.2580   -0.6730    1.0770 C   0  0  0  0  0  0  0  0  0  0  0  0
    6.0600   -0.1340    1.4770 C   0  0  0  0  0  0  0  0  0  0  0  0
    5.1990    0.4210    0.5570 C   0  0  0  0  0  0  0  0  0  0  0  0
    3.9530    1.0220    0.6780 C   0  0  0  0  0  0  0  0  0  0  0  0
    3.5300    1.4060   -0.5770 C   0  0  0  0  0  0  0  0  0  0  0  0
    2.2700    2.0790   -0.9630 C   0  0  0  0  0  0  0  0  0  0  0  0
    1.3030    1.1340   -1.4720 N   0  0  0  0  0  0  0  0  0  0  0  0
    0.8710    0.2730   -0.4110 C   0  0  2  0  0  0  0  0  0  0  0  0
    0.7750   -1.1740   -0.8640 C   0  0  0  0  0  0  0  0  0  0  0  0
    0.5580   -2.0660    0.3300 C   0  0  0  0  0  0  0  0  0  0  0  0
   -0.3000   -1.3400    1.3280 C   0  0  0  0  0  0  0  0  0  0  0  0
   -1.1360   -0.3340    0.7120 N   0  0  0  0  0  0  0  0  0  0  0  0
   -2.5570   -0.4880    0.7650 C   0  0  0  0  0  0  0  0  0  0  0  0
   -3.1250   -1.5490    1.3710 N   0  0  0  0  0  0  0  0  0  0  0  0
   -4.4550   -1.7340    1.4450 C   0  0  0  0  0  0  0  0  0  0  0  0
   -5.3160   -0.8130    0.8840 C   0  0  0  0  0  0  0  0  0  0  0  0
   -6.6790   -1.0000    0.9590 C   0  0  0  0  0  0  0  0  0  0  0  0
   -7.2830   -2.1820    1.6350 C   0  0  0  0  0  0  0  0  0  0  0  0
   -7.4910   -0.0290    0.3700 C   0  0  0  0  0  0  0  0  0  0  0  0
   -6.9310    1.0570   -0.2500 C   0  0  0  0  0  0  0  0  0  0  0  0
   -5.5620    1.2170   -0.3080 C   0  0  0  0  0  0  0  0  0  0  0  0
   -4.9940    2.4020   -0.9870 C   0  0  0  0  0  0  0  0  0  0  0  0
   -4.7260    0.2840    0.2590 C   0  0  0  0  0  0  0  0  0  0  0  0
   -3.3870    0.4180    0.2150 N   0  0  0  0  0  0  0  0  0  0  0  0
   -8.0230    1.8690   -0.7520 C   0  0  0  0  0  0  0  0  0  0  0  0
   -9.1790    1.3300   -0.4670 C   0  0  0  0  0  0  0  0  0  0  0  0
   -8.9560    0.0750    0.2730 C   0  0  0  0  0  0  0  0  0  0  0  0
   -0.4860    0.7710    0.0750 C   0  0  0  0  0  0  0  0  0  0  0  0
    4.4750    1.0600   -1.4650 N   0  0  0  0  0  0  0  0  0  0  0  0
    4.4690    1.2630   -2.9140 C   0  0  0  0  0  0  0  0  0  0  0  0
    5.4770    0.4700   -0.7930 C   0  0  0  0  0  0  0  0  0  0  0  0
    6.6990   -0.0810   -1.1920 C   0  0  0  0  0  0  0  0  0  0  0  0
    7.5520   -0.6330   -0.2640 C   0  0  0  0  0  0  0  0  0  0  0  0
    8.8550   -1.2170   -0.7200 C   0  0  0  0  0  0  0  0  0  0  0  0
  1  2  1  0
  2  3  2  0
  2 34  1  0
  3  4  1  0
  4  5  1  0
  4 32  2  0
  5  6  2  0
  6  7  1  0
  6 30  1  0
  7  8  1  0
  9  8  1  6
  9 10  1  0
  9 29  1  0
 10 11  1  0
 11 12  1  0
 12 13  1  0
 13 14  1  0
 13 29  1  0
 14 15  2  0
 14 25  1  0
 15 16  1  0
 16 17  2  0
 17 18  1  0
 17 24  1  0
 18 19  1  0
 18 20  2  0
 20 21  1  0
 20 28  1  0
 21 22  2  0
 21 26  1  0
 22 23  1  0
 22 24  1  0
 24 25  2  0
 26 27  2  0
 27 28  1  0
 30 31  1  0
 30 32  1  0
 32 33  1  0
 33 34  2  0
 34 35  1  0
M  CHG  1   8   1
M  END
