
     RDKit          3D

 35 40  0  0  0  0  0  0  0  0999 V2000
   11.3940   -0.3850   -1.3780 C   0  0  0  0  0  0  0  0  0  0  0  0
   10.0290   -0.5030   -0.7700 C   0  0  0  0  0  0  0  0  0  0  0  0
    8.9910    0.3130   -1.1760 C   0  0  0  0  0  0  0  0  0  0  0  0
    7.7400    0.1820   -0.5950 C   0  0  0  0  0  0  0  0  0  0  0  0
    7.4730   -0.7190    0.3660 N   0  0  0  0  0  0  0  0  0  0  0  0
    6.3450   -0.9860    1.0320 C   0  0  0  0  0  0  0  0  0  0  0  0
    5.0040   -0.3510    0.9090 C   0  0  0  0  0  0  0  0  0  0  0  0
    4.1390   -1.0490   -0.1180 C   0  0  0  0  0  0  0  0  0  0  0  0
    2.8430   -0.3420   -0.1580 C   0  0  0  0  0  0  0  0  0  0  0  0
    2.6640    0.7100   -1.0240 C   0  0  0  0  0  0  0  0  0  0  0  0
    1.4740    1.3970   -1.0940 C   0  0  0  0  0  0  0  0  0  0  0  0
    0.4310    1.0140   -0.2680 C   0  0  0  0  0  0  0  0  0  0  0  0
   -0.8800    1.7450   -0.3180 C   0  0  0  0  0  0  0  0  0  0  0  0
   -1.9840    0.7780   -0.1490 N   0  0  0  0  0  0  0  0  0  0  0  0
   -3.3050    1.2970   -0.1580 C   0  0  0  0  0  0  0  0  0  0  0  0
   -3.5030    2.6760   -0.3230 C   0  0  0  0  0  0  0  0  0  0  0  0
   -4.7610    3.2010   -0.3350 C   0  0  0  0  0  0  0  0  0  0  0  0
   -5.8840    2.3640   -0.1820 C   0  0  0  0  0  0  0  0  0  0  0  0
   -7.2390    2.9580   -0.2160 C   0  0  0  0  0  0  0  0  0  0  0  0
   -5.7090    1.0100   -0.0180 C   0  0  0  0  0  0  0  0  0  0  0  0
   -6.8130    0.1910    0.1290 C   0  0  0  0  0  0  0  0  0  0  0  0
   -6.5860   -1.1800    0.2870 C   0  0  0  0  0  0  0  0  0  0  0  0
   -5.3230   -1.7140    0.2990 C   0  0  0  0  0  0  0  0  0  0  0  0
   -5.1040   -3.1740    0.4680 C   0  0  0  0  0  0  0  0  0  0  0  0
   -4.2300   -0.8920    0.1530 C   0  0  0  0  0  0  0  0  0  0  0  0
   -4.3930    0.4700   -0.0070 C   0  0  0  0  0  0  0  0  0  0  0  0
   -7.8330   -1.8660    0.4070 N   0  0  0  0  0  0  0  0  0  0  0  0
   -8.7190   -0.8680    0.9070 C   0  0  0  0  0  0  0  0  0  0  0  0
   -8.2490    0.4270    0.1820 C   0  0  0  0  0  0  0  0  0  0  0  0
    0.6440   -0.0390    0.5840 C   0  0  0  0  0  0  0  0  0  0  0  0
    1.8180   -0.6950    0.6330 N   0  0  0  0  0  0  0  0  0  0  0  0
    6.6570   -2.0110    1.9010 C   0  0  0  0  0  0  0  0  0  0  0  0
    7.9550   -2.3170    1.7240 N   0  0  0  0  0  0  0  0  0  0  0  0
    8.4900   -1.5150    0.7600 C   0  0  0  0  0  0  0  0  0  0  0  0
    9.7510   -1.4230    0.2140 C   0  0  0  0  0  0  0  0  0  0  0  0
  1  2  1  0
  2  3  1  0
  2 35  2  0
  3  4  2  0
  4  5  1  0
  5  6  1  0
  5 34  1  0
  6  7  1  0
  6 32  2  0
  7  8  1  0
  8  9  1  0
  9 10  2  0
  9 31  1  0
 10 11  1  0
 11 12  2  0
 12 13  1  0
 12 30  1  0
 13 14  1  0
 14 15  1  0
 15 16  2  0
 15 26  1  0
 16 17  1  0
 17 18  2  0
 18 19  1  0
 18 20  1  0
 20 21  2  0
 20 26  1  0
 21 22  1  0
 21 29  1  0
 22 23  2  0
 22 27  1  0
 23 24  1  0
 23 25  1  0
 25 26  2  0
 27 28  1  0
 28 29  1  0
 30 31  2  0
 32 33  1  0
 33 34  2  0
 34 35  1  0
M  CHG  1  27   1
M  END
