
     RDKit          3D

 34 37  0  0  0  0  0  0  0  0999 V2000
    9.7950   -0.8030    0.7110 C   0  0  0  0  0  0  0  0  0  0  0  0
    8.5380   -0.5590    0.4090 C   0  0  0  0  0  0  0  0  0  0  0  0
    8.0470    0.3870   -0.6160 C   0  0  0  0  0  0  0  0  0  0  0  0
    6.6540    0.6920   -0.1630 C   0  0  0  0  0  0  0  0  0  0  0  0
    6.2550   -0.2900    0.7920 N   0  0  0  0  0  0  0  0  0  0  0  0
    5.7800    0.3480    2.0080 C   0  0  0  0  0  0  0  0  0  0  0  0
    4.4790    1.0630    1.7030 C   0  0  0  0  0  0  0  0  0  0  0  0
    3.5010    0.0890    1.2340 N   0  0  0  0  0  0  0  0  0  0  0  0
    2.1860    0.4440    0.8680 C   0  0  0  0  0  0  0  0  0  0  0  0
    1.8490    1.6470    0.9520 O   0  0  0  0  0  0  0  0  0  0  0  0
    1.2470   -0.5940    0.4000 C   0  0  0  0  0  0  0  0  0  0  0  0
    1.4850   -1.8780    0.2720 O   0  0  0  0  0  0  0  0  0  0  0  0
    0.4460   -2.5290   -0.1650 C   0  0  0  0  0  0  0  0  0  0  0  0
   -0.5150   -1.6320   -0.3310 N   0  0  0  0  0  0  0  0  0  0  0  0
   -0.0600   -0.4190    0.0090 C   0  0  0  0  0  0  0  0  0  0  0  0
   -0.8290    0.8220   -0.0430 C   0  0  0  0  0  0  0  0  0  0  0  0
   -2.2030    0.5710   -0.5210 N   0  0  0  0  0  0  0  0  0  0  0  0
   -3.2470    0.2730    0.3310 C   0  0  0  0  0  0  0  0  0  0  0  0
   -3.1800    0.1780    1.5920 O   0  0  0  0  0  0  0  0  0  0  0  0
   -4.5510    0.0530   -0.3360 C   0  0  0  0  0  0  0  0  0  0  0  0
   -5.7200    0.1050    0.2090 C   0  0  0  0  0  0  0  0  0  0  0  0
   -7.0030   -0.1030   -0.3770 C   0  0  0  0  0  0  0  0  0  0  0  0
   -8.0860    0.0680    0.4290 C   0  0  0  0  0  0  0  0  0  0  0  0
   -7.6830    0.5130    2.0610 Cl  0  0  0  0  0  0  0  0  0  0  0  0
   -9.5360   -0.0270    0.1410 C   0  0  0  0  0  0  0  0  0  0  0  0
   -9.8980    0.6340   -1.1100 N   0  0  0  0  0  0  0  0  0  0  0  0
   -9.3580    0.5670   -2.2760 C   0  0  0  0  0  0  0  0  0  0  0  0
   -8.1830   -0.2540   -2.5800 C   0  0  0  0  0  0  0  0  0  0  0  0
   -7.1630   -0.5460   -1.7550 C   0  0  0  0  0  0  0  0  0  0  0  0
   -6.2200   -1.3790   -2.2090 F   0  0  0  0  0  0  0  0  0  0  0  0
   -4.0960   -0.1910   -2.0320 S   0  0  0  0  0  0  0  0  0  0  0  0
   -2.5090    0.6220   -1.8790 C   0  0  0  0  0  0  0  0  0  0  0  0
   -1.6930    1.2480   -3.1180 S   0  0  0  0  0  0  0  0  0  0  0  0
    7.3490   -1.1780    1.0260 C   0  0  0  0  0  0  0  0  0  0  0  0
  1  2  2  0
  2  3  1  0
  2 34  1  0
  3  4  1  0
  4  5  1  0
  5  6  1  0
  5 34  1  0
  6  7  1  0
  7  8  1  0
  8  9  1  0
  9 10  2  0
  9 11  1  0
 11 12  1  0
 11 15  2  0
 12 13  1  0
 13 14  2  0
 14 15  1  0
 15 16  1  0
 16 17  1  0
 17 18  1  0
 17 32  1  0
 18 19  2  0
 18 20  1  0
 20 21  2  3
 20 31  1  0
 21 22  1  0
 22 23  2  0
 22 29  1  0
 23 24  1  0
 23 25  1  0
 25 26  1  0
 26 27  2  0
 27 28  1  0
 28 29  2  0
 29 30  1  0
 31 32  1  0
 32 33  2  0
M  CHG  1  26   1
M  END
