
     RDKit          3D

 35 40  0  0  0  0  0  0  0  0999 V2000
   -4.8210   -0.0400    1.6350 C   0  0  0  0  0  0  0  0  0  0  0  0
   -4.6260   -1.3850    1.0640 C   0  0  0  0  0  0  0  0  0  0  0  0
   -5.3440   -2.4610    1.5900 C   0  0  0  0  0  0  0  0  0  0  0  0
   -5.2040   -3.7350    1.1000 C   0  0  0  0  0  0  0  0  0  0  0  0
   -4.3210   -3.9190    0.0600 C   0  0  0  0  0  0  0  0  0  0  0  0
   -3.6010   -2.8770   -0.4770 C   0  0  0  0  0  0  0  0  0  0  0  0
   -3.7470   -1.5830    0.0250 C   0  0  0  0  0  0  0  0  0  0  0  0
   -2.9640   -0.4880   -0.5720 C   0  0  0  0  0  0  0  0  0  0  0  0
   -3.1290    0.6680   -0.0900 N   0  0  0  0  0  0  0  0  0  0  0  0
   -2.4510    1.8070   -0.5570 C   0  0  0  0  0  0  0  0  0  0  0  0
   -1.5660    1.6260   -1.5940 C   0  0  0  0  0  0  0  0  0  0  0  0
   -1.0570    2.9030   -1.8440 C   0  0  0  0  0  0  0  0  0  0  0  0
   -1.6270    3.7810   -0.9850 N   0  0  0  0  0  0  0  0  0  0  0  0
   -2.4740    3.1140   -0.2040 N   0  0  0  0  0  0  0  0  0  0  0  0
   -3.2820    3.7070    0.8490 C   0  0  2  0  0  0  0  0  0  0  0  0
   -2.9220    3.0720    2.1630 C   0  0  0  0  0  0  0  0  0  0  0  0
   -4.7470    3.5370    0.5230 C   0  0  0  0  0  0  0  0  0  0  0  0
   -1.2650    0.3410   -2.2460 C   0  0  1  0  0  0  0  0  0  0  0  0
    0.2090    0.0800   -2.2450 C   0  0  0  0  0  0  0  0  0  0  0  0
    0.7400   -0.5790   -1.1670 C   0  0  0  0  0  0  0  0  0  0  0  0
    2.1150   -0.8530   -1.1060 C   0  0  0  0  0  0  0  0  0  0  0  0
    2.9750   -0.4790   -2.1060 C   0  0  0  0  0  0  0  0  0  0  0  0
    4.3810   -0.6940   -2.1060 N   0  0  0  0  0  0  0  0  0  0  0  0
    5.1980   -0.8750   -0.9750 C   0  0  0  0  0  0  0  0  0  0  0  0
    6.3910   -1.5970   -1.1150 C   0  0  0  0  0  0  0  0  0  0  0  0
    7.2160   -1.7570   -0.0240 C   0  0  0  0  0  0  0  0  0  0  0  0
    6.8970   -1.2220    1.2070 C   0  0  0  0  0  0  0  0  0  0  0  0
    5.7200   -0.5140    1.3290 C   0  0  0  0  0  0  0  0  0  0  0  0
    4.8720   -0.3410    0.2340 C   0  0  0  0  0  0  0  0  0  0  0  0
    5.6100   -0.0660    2.6700 N   0  0  0  0  0  0  0  0  0  0  0  0
    6.5970   -0.4210    3.4030 C   0  0  0  0  0  0  0  0  0  0  0  0
    7.5230   -1.1970    2.5460 C   0  0  0  0  0  0  0  0  0  0  0  0
    2.4180    0.1950   -3.2030 C   0  0  0  0  0  0  0  0  0  0  0  0
    1.0620    0.4590   -3.2520 C   0  0  0  0  0  0  0  0  0  0  0  0
   -2.0440   -0.7740   -1.6850 C   0  0  0  0  0  0  0  0  0  0  0  0
  1  2  1  0
  2  3  2  0
  2  7  1  0
  3  4  1  0
  4  5  2  0
  5  6  1  0
  6  7  2  0
  7  8  1  0
  8  9  2  0
  8 35  1  0
  9 10  1  0
 10 11  2  0
 10 14  1  0
 11 12  1  0
 11 18  1  0
 12 13  2  0
 13 14  1  0
 14 15  1  0
 15 16  1  1
 15 17  1  0
 18 19  1  1
 18 35  1  0
 19 20  2  0
 19 34  1  0
 20 21  1  0
 21 22  2  0
 22 23  1  0
 22 33  1  0
 23 24  1  0
 24 25  2  0
 24 29  1  0
 25 26  1  0
 26 27  2  0
 27 28  1  0
 27 32  1  0
 28 29  2  0
 28 30  1  0
 30 31  2  0
 31 32  1  0
 33 34  2  0
M  CHG  1  30   1
M  END
