
     RDKit          3D

 35 40  0  0  0  0  0  0  0  0999 V2000
   -7.0860    4.7870    0.5830 C   0  0  0  0  0  0  0  0  0  0  0  0
   -5.8120    4.0400    0.7190 C   0  0  0  0  0  0  0  0  0  0  0  0
   -5.7480    2.7220    0.4300 C   0  0  0  0  0  0  0  0  0  0  0  0
   -4.5070    2.0500    0.5750 C   0  0  0  0  0  0  0  0  0  0  0  0
   -4.2760    0.7290    0.3200 C   0  0  0  0  0  0  0  0  0  0  0  0
   -5.4530   -0.0220   -0.1490 C   0  0  0  0  0  0  0  0  0  0  0  0
   -2.9390    0.2330    0.4040 C   0  0  0  0  0  0  0  0  0  0  0  0
   -2.3620   -0.8900    0.2980 C   0  0  0  0  0  0  0  0  0  0  0  0
   -3.0320   -2.1500    0.0510 C   0  0  0  0  0  0  0  0  0  0  0  0
   -4.1470   -2.5020    0.8300 C   0  0  0  0  0  0  0  0  0  0  0  0
   -4.7460   -3.7010    0.5710 C   0  0  0  0  0  0  0  0  0  0  0  0
   -4.2630   -4.5250   -0.4170 C   0  0  0  0  0  0  0  0  0  0  0  0
   -3.1400   -4.1420   -1.1780 C   0  0  0  0  0  0  0  0  0  0  0  0
   -2.5240   -2.9460   -0.9380 C   0  0  0  0  0  0  0  0  0  0  0  0
   -1.3430   -2.4980   -1.6500 C   0  0  0  0  0  0  0  0  0  0  0  0
   -0.4430   -1.6330   -0.9810 N   0  0  2  0  0  0  0  0  0  0  0  0
    0.8770   -2.2300   -0.7130 C   0  0  0  0  0  0  0  0  0  0  0  0
    1.7150   -1.2720    0.1020 C   0  0  0  0  0  0  0  0  0  0  0  0
    1.2510    0.0650    0.1480 N   0  0  0  0  0  0  0  0  0  0  0  0
    1.8680    0.8990   -0.8190 C   0  0  0  0  0  0  0  0  0  0  0  0
    3.3470    1.0130   -0.6300 C   0  0  0  0  0  0  0  0  0  0  0  0
    4.1590    1.5290   -1.6180 C   0  0  0  0  0  0  0  0  0  0  0  0
    5.5230    1.6640   -1.4990 C   0  0  0  0  0  0  0  0  0  0  0  0
    6.1470    1.2610   -0.3150 C   0  0  0  0  0  0  0  0  0  0  0  0
    7.4800    1.3810   -0.1720 N   0  0  0  0  0  0  0  0  0  0  0  0
    8.0740    0.9910    0.9690 C   0  0  0  0  0  0  0  0  0  0  0  0
    9.3620    1.0000    1.3680 N   0  0  0  0  0  0  0  0  0  0  0  0
    9.4350    0.4990    2.6080 C   0  0  0  0  0  0  0  0  0  0  0  0
    8.1730    0.1620    3.0160 C   0  0  0  0  0  0  0  0  0  0  0  0
    7.3010    0.4600    2.0070 C   0  0  0  0  0  0  0  0  0  0  0  0
    5.9670    0.3580    1.8190 N   0  0  0  0  0  0  0  0  0  0  0  0
    5.3540    0.7420    0.6850 C   0  0  0  0  0  0  0  0  0  0  0  0
    3.9800    0.6180    0.5370 C   0  0  0  0  0  0  0  0  0  0  0  0
   -0.1370    0.2730    0.3880 C   0  0  0  0  0  0  0  0  0  0  0  0
   -0.8450   -1.0310    0.2510 C   0  0  1  0  0  0  0  0  0  0  0  0
  1  2  1  0
  2  3  2  3
  3  4  1  0
  4  5  2  3
  5  6  1  0
  5  7  1  0
  7  8  2  3
  8  9  1  0
  8 35  1  0
  9 10  2  0
  9 14  1  0
 10 11  1  0
 11 12  2  0
 12 13  1  0
 13 14  2  0
 14 15  1  0
 16 15  1  1
 16 17  1  0
 16 35  1  0
 17 18  1  0
 18 19  1  0
 19 20  1  0
 19 34  1  0
 20 21  1  0
 21 22  2  0
 21 33  1  0
 22 23  1  0
 23 24  2  0
 24 25  1  0
 24 32  1  0
 25 26  2  0
 26 27  1  0
 26 30  1  0
 27 28  1  0
 28 29  2  0
 29 30  1  0
 30 31  2  0
 31 32  1  0
 32 33  2  0
 35 34  1  6
M  CHG  1  16   1
M  END
