
     RDKit          3D

 34 37  0  0  0  0  0  0  0  0999 V2000
    4.8090   -0.1770   -1.6890 O   0  0  0  0  0  0  0  0  0  0  0  0
    4.8540   -0.0710   -0.4600 C   0  0  0  0  0  0  0  0  0  0  0  0
    3.6920   -0.1400    0.3270 N   0  0  0  0  0  0  0  0  0  0  0  0
    2.3660   -0.3230   -0.1080 C   0  0  0  0  0  0  0  0  0  0  0  0
    2.0020   -0.2990   -1.4240 C   0  0  0  0  0  0  0  0  0  0  0  0
    0.6640   -0.4940   -1.7750 C   0  0  0  0  0  0  0  0  0  0  0  0
   -0.3420   -0.7140   -0.8620 C   0  0  0  0  0  0  0  0  0  0  0  0
   -1.6880   -0.9020   -1.2400 N   0  0  0  0  0  0  0  0  0  0  0  0
   -2.7730   -0.4960   -0.5730 C   0  0  0  0  0  0  0  0  0  0  0  0
   -3.9150   -0.8750   -1.2920 C   0  0  0  0  0  0  0  0  0  0  0  0
   -5.3460   -0.6100   -0.8990 C   0  0  0  0  0  0  0  0  0  0  0  0
   -5.3940   -0.0410    0.4070 N   0  0  0  0  0  0  0  0  0  0  0  0
   -6.7070    0.2660    0.9110 C   0  0  1  0  0  0  0  0  0  0  0  0
   -7.3450    1.3140    0.0770 C   0  0  0  0  0  0  0  0  0  0  0  0
   -8.8260    1.1190   -0.1690 C   0  0  0  0  0  0  0  0  0  0  0  0
   -9.4700    0.3570    0.9150 C   0  0  0  0  0  0  0  0  0  0  0  0
   -8.8650   -0.6730    1.5160 C   0  0  0  0  0  0  0  0  0  0  0  0
   -9.4270   -1.3830    2.5040 F   0  0  0  0  0  0  0  0  0  0  0  0
   -7.5090   -1.0170    1.0330 C   0  0  0  0  0  0  0  0  0  0  0  0
   -3.4410   -1.5040   -2.3790 N   0  0  0  0  0  0  0  0  0  0  0  0
   -2.1110   -1.5050   -2.3200 N   0  0  0  0  0  0  0  0  0  0  0  0
    0.0600   -0.7320    0.4620 C   0  0  0  0  0  0  0  0  0  0  0  0
    1.3620   -0.5450    0.8420 C   0  0  0  0  0  0  0  0  0  0  0  0
    6.1540    0.1340    0.1970 C   0  0  0  0  0  0  0  0  0  0  0  0
    6.2150    0.2400    1.4530 O   0  0  0  0  0  0  0  0  0  0  0  0
    7.3020    0.2060   -0.6250 N   0  0  0  0  0  0  0  0  0  0  0  0
    8.6070    0.3980   -0.1710 C   0  0  0  0  0  0  0  0  0  0  0  0
    8.9250    0.5490    1.1500 C   0  0  0  0  0  0  0  0  0  0  0  0
   10.2670    0.7400    1.4860 C   0  0  0  0  0  0  0  0  0  0  0  0
   11.2500    0.7790    0.5330 C   0  0  0  0  0  0  0  0  0  0  0  0
   12.5570    0.9690    0.8990 F   0  0  0  0  0  0  0  0  0  0  0  0
   10.8970    0.6240   -0.7910 C   0  0  0  0  0  0  0  0  0  0  0  0
    9.5970    0.4350   -1.1550 C   0  0  0  0  0  0  0  0  0  0  0  0
    9.3040    0.2860   -2.4850 F   0  0  0  0  0  0  0  0  0  0  0  0
  1  2  2  0
  2  3  1  0
  2 24  1  0
  3  4  1  0
  4  5  2  0
  4 23  1  0
  5  6  1  0
  6  7  2  0
  7  8  1  0
  7 22  1  0
  8  9  1  0
  8 21  1  0
  9 10  2  0
 10 11  1  0
 10 20  1  0
 11 12  1  0
 13 12  1  6
 13 14  1  0
 13 19  1  0
 14 15  1  0
 15 16  1  0
 16 17  2  0
 17 18  1  0
 17 19  1  0
 20 21  2  0
 22 23  2  0
 24 25  2  0
 24 26  1  0
 26 27  1  0
 27 28  2  0
 27 33  1  0
 28 29  1  0
 29 30  2  0
 30 31  1  0
 30 32  1  0
 32 33  2  0
 33 34  1  0
M  END
