
     RDKit          3D

 35 38  0  0  0  0  0  0  0  0999 V2000
   -3.4530   -0.2010    4.4330 C   0  0  0  0  0  0  0  0  0  0  0  0
   -2.3050   -0.1200    3.6150 O   0  0  0  0  0  0  0  0  0  0  0  0
   -2.5100   -0.4240    2.2490 C   0  0  0  0  0  0  0  0  0  0  0  0
   -2.3310    0.4990    1.3220 C   0  0  0  0  0  0  0  0  0  0  0  0
   -2.5680    0.2010   -0.0780 C   0  0  0  0  0  0  0  0  0  0  0  0
   -2.4770    1.2200   -0.9310 C   0  0  0  0  0  0  0  0  0  0  0  0
   -2.1500    2.4760   -0.5110 O   0  0  0  0  0  0  0  0  0  0  0  0
   -0.8900    2.9330   -0.2050 C   0  0  0  0  0  0  0  0  0  0  0  0
    0.1590    2.0090   -0.3420 C   0  0  0  0  0  0  0  0  0  0  0  0
    1.4640    2.2910   -0.0820 C   0  0  0  0  0  0  0  0  0  0  0  0
    2.5640    1.3780   -0.1910 N   0  0  0  0  0  0  0  0  0  0  0  0
    2.5160    0.0030   -0.3670 C   0  0  0  0  0  0  0  0  0  0  0  0
    1.3620   -0.5530   -0.4380 O   0  0  0  0  0  0  0  0  0  0  0  0
    3.6760   -0.7850   -0.4680 N   0  0  0  0  0  0  0  0  0  0  0  0
    3.6010   -2.2420   -0.6370 C   0  0  0  0  0  0  0  0  0  0  0  0
    4.4210   -2.8790    0.4630 C   0  0  0  0  0  0  0  0  0  0  0  0
    5.6480   -2.2190    0.7560 N   0  0  0  0  0  0  0  0  0  0  0  0
    6.7600   -2.5860   -0.0640 C   0  0  0  0  0  0  0  0  0  0  0  0
    5.5880   -0.8000    0.9090 C   0  0  0  0  0  0  0  0  0  0  0  0
    5.0110   -0.2580   -0.4160 C   0  0  0  0  0  0  0  0  0  0  0  0
    1.7370    3.6010    0.3470 C   0  0  0  0  0  0  0  0  0  0  0  0
    0.7240    4.5160    0.4850 C   0  0  0  0  0  0  0  0  0  0  0  0
   -0.5940    4.1910    0.2110 C   0  0  0  0  0  0  0  0  0  0  0  0
   -1.6430    5.0910    0.3400 O   0  0  0  0  0  0  0  0  0  0  0  0
   -1.3760    6.4100    0.7710 C   0  0  0  0  0  0  0  0  0  0  0  0
   -2.7640    0.9850   -2.3300 C   0  0  0  0  0  0  0  0  0  0  0  0
   -2.6360    2.0430   -3.1840 F   0  0  0  0  0  0  0  0  0  0  0  0
   -3.1310   -0.2000   -2.7500 C   0  0  0  0  0  0  0  0  0  0  0  0
   -3.4030   -0.4090   -4.1880 C   0  0  0  0  0  0  0  0  0  0  0  0
   -3.4250   -1.3650   -1.8360 C   0  0  0  0  0  0  0  0  0  0  0  0
   -2.7820   -1.1830   -0.5180 C   0  0  2  0  0  0  0  0  0  0  0  0
   -3.0320   -2.1260    0.5500 C   0  0  0  0  0  0  0  0  0  0  0  0
   -3.4530   -3.5230    0.2730 C   0  0  0  0  0  0  0  0  0  0  0  0
   -4.6990   -3.5830   -0.4540 N   0  0  0  0  0  0  0  0  0  0  0  0
   -2.8890   -1.7640    1.8390 C   0  0  0  0  0  0  0  0  0  0  0  0
  1  2  1  0
  2  3  1  0
  3  4  2  0
  3 35  1  0
  4  5  1  0
  5  6  2  0
  5 31  1  0
  6  7  1  0
  6 26  1  0
  7  8  1  0
  8  9  2  0
  8 23  1  0
  9 10  1  0
 10 11  1  0
 10 21  2  0
 11 12  1  0
 12 13  2  0
 12 14  1  0
 14 15  1  0
 14 20  1  0
 15 16  1  0
 16 17  1  0
 17 18  1  0
 17 19  1  0
 19 20  1  0
 21 22  1  0
 22 23  2  0
 23 24  1  0
 24 25  1  0
 26 27  1  0
 26 28  2  0
 28 29  1  0
 28 30  1  0
 31 30  1  6
 31 32  1  0
 32 33  1  0
 32 35  2  0
 33 34  1  0
M  END
