
     RDKit          3D

 35 38  0  0  0  0  0  0  0  0999 V2000
   -7.5440    0.6620    1.4500 C   0  0  0  0  0  0  0  0  0  0  0  0
   -6.7150    1.6030    1.1740 C   0  0  0  0  0  0  0  0  0  0  0  0
   -7.1610    2.8900    1.6430 F   0  0  0  0  0  0  0  0  0  0  0  0
   -5.4970    1.6850    0.4640 C   0  0  0  0  0  0  0  0  0  0  0  0
   -4.8810    2.8550    0.4790 N   0  0  0  0  0  0  0  0  0  0  0  0
   -5.2400    4.0420    1.0890 C   0  0  0  0  0  0  0  0  0  0  0  0
   -4.7990    0.7040   -0.2570 N   0  0  0  0  0  0  0  0  0  0  0  0
   -3.4470    1.1160   -0.6990 C   0  0  0  0  0  0  0  0  0  0  0  0
   -2.3810    0.7600    0.2910 C   0  0  0  0  0  0  0  0  0  0  0  0
   -1.0450    1.2210   -0.2220 C   0  0  0  0  0  0  0  0  0  0  0  0
   -0.9790    1.8120   -1.3210 O   0  0  0  0  0  0  0  0  0  0  0  0
    0.1390    1.0000    0.5090 N   0  0  0  0  0  0  0  0  0  0  0  0
    1.4510    1.3690    0.1740 C   0  0  0  0  0  0  0  0  0  0  0  0
    2.5370    0.8130    0.8520 C   0  0  0  0  0  0  0  0  0  0  0  0
    3.8100    1.1980    0.5200 C   0  0  0  0  0  0  0  0  0  0  0  0
    4.0690    2.1140   -0.4570 C   0  0  0  0  0  0  0  0  0  0  0  0
    5.3600    2.5090   -0.8020 O   0  0  0  0  0  0  0  0  0  0  0  0
    6.4730    1.9740   -0.1700 C   0  0  0  0  0  0  0  0  0  0  0  0
    6.5740    0.4890   -0.3770 C   0  0  0  0  0  0  0  0  0  0  0  0
    5.8560   -0.2490   -1.3140 C   0  0  0  0  0  0  0  0  0  0  0  0
    6.2440   -1.5640   -1.1710 C   0  0  0  0  0  0  0  0  0  0  0  0
    7.1780   -1.5880   -0.1620 C   0  0  0  0  0  0  0  0  0  0  0  0
    7.8720   -2.8330    0.3290 C   0  0  1  0  0  0  0  0  0  0  0  0
    9.3820   -2.6240    0.6470 C   0  0  0  0  0  0  0  0  0  0  0  0
    8.3830   -2.7310    1.7380 C   0  0  0  0  0  0  0  0  0  0  0  0
    7.3220   -0.3720    0.2530 O   0  0  0  0  0  0  0  0  0  0  0  0
    3.0200    2.6760   -1.1380 C   0  0  0  0  0  0  0  0  0  0  0  0
    1.7240    2.2840   -0.8000 C   0  0  0  0  0  0  0  0  0  0  0  0
   -5.1950   -0.5540   -0.6370 C   0  0  0  0  0  0  0  0  0  0  0  0
   -6.3550   -0.9850   -0.5110 O   0  0  0  0  0  0  0  0  0  0  0  0
   -4.2680   -1.5900   -1.2550 C   0  0  2  0  0  0  0  0  0  0  0  0
   -5.0850   -2.4690   -2.1930 C   0  0  0  0  0  0  0  0  0  0  0  0
   -5.7660   -3.4740   -1.3150 C   0  0  0  0  0  0  0  0  0  0  0  0
   -5.0520   -3.5130   -0.0740 N   0  0  0  0  0  0  0  0  0  0  0  0
   -3.9160   -2.6190   -0.1880 C   0  0  0  0  0  0  0  0  0  0  0  0
  1  2  2  0
  2  3  1  0
  2  4  1  0
  4  5  2  3
  4  7  1  0
  5  6  1  0
  7  8  1  0
  7 29  1  0
  8  9  1  0
  9 10  1  0
 10 11  2  0
 10 12  1  0
 12 13  1  0
 13 14  2  0
 13 28  1  0
 14 15  1  0
 15 16  2  0
 16 17  1  0
 16 27  1  0
 17 18  1  0
 18 19  1  0
 19 20  2  0
 19 26  1  0
 20 21  1  0
 21 22  2  0
 23 22  1  6
 22 26  1  0
 23 24  1  0
 23 25  1  0
 24 25  1  0
 27 28  2  0
 29 30  2  0
 31 29  1  1
 31 32  1  0
 31 35  1  0
 32 33  1  0
 33 34  1  0
 34 35  1  0
M  END
