
     RDKit          3D

 34 37  0  0  0  0  0  0  0  0999 V2000
    5.5270   -0.8700    0.3490 O   0  0  0  0  0  0  0  0  0  0  0  0
    4.5670   -1.0590   -0.4220 C   0  0  0  0  0  0  0  0  0  0  0  0
    4.2350   -2.4120   -0.8480 C   0  0  0  0  0  0  0  0  0  0  0  0
    3.0260   -2.6250   -1.4180 C   0  0  0  0  0  0  0  0  0  0  0  0
    2.1030   -1.5540   -1.6020 N   0  0  0  0  0  0  0  0  0  0  0  0
    2.2610   -0.4390   -0.7190 C   0  0  2  0  0  0  0  0  0  0  0  0
    1.3210    0.6890   -0.8290 C   0  0  2  0  0  0  0  0  0  0  0  0
   -0.0300    0.3370   -1.2150 N   0  0  0  0  0  0  0  0  0  0  0  0
   -0.7780   -0.4810   -0.4690 N   0  0  0  0  0  0  0  0  0  0  0  0
   -1.7220   -0.3970    0.3730 C   0  0  0  0  0  0  0  0  0  0  0  0
   -2.2360   -1.6440    0.9490 C   0  0  0  0  0  0  0  0  0  0  0  0
   -3.1620   -1.6700    1.7850 O   0  0  0  0  0  0  0  0  0  0  0  0
   -1.6690   -2.9000    0.5460 N   0  0  0  0  0  0  0  0  0  0  0  0
   -0.6230   -3.0930   -0.3800 C   0  0  0  0  0  0  0  0  0  0  0  0
   -0.6770   -4.5750   -0.8630 C   0  0  0  0  0  0  0  0  0  0  0  0
   -0.5020   -5.4420    0.3110 C   0  0  0  0  0  0  0  0  0  0  0  0
    0.3880   -6.4440    0.3990 F   0  0  0  0  0  0  0  0  0  0  0  0
   -1.3130   -5.1770    1.3610 C   0  0  0  0  0  0  0  0  0  0  0  0
   -1.2670   -5.8780    2.4900 F   0  0  0  0  0  0  0  0  0  0  0  0
   -2.2970   -4.0610    1.2180 C   0  0  0  0  0  0  0  0  0  0  0  0
   -2.3560    0.8600    0.7530 C   0  0  0  0  0  0  0  0  0  0  0  0
   -3.3260    0.8920    1.6390 C   0  0  0  0  0  0  0  0  0  0  0  0
   -3.9650    2.1160    2.0280 N   0  0  0  0  0  0  0  0  0  0  0  0
   -3.6610    3.2630    1.5570 C   0  0  0  0  0  0  0  0  0  0  0  0
   -2.6220    3.3560    0.5820 C   0  0  0  0  0  0  0  0  0  0  0  0
   -2.2710    4.5390    0.0250 C   0  0  0  0  0  0  0  0  0  0  0  0
   -2.9390    5.7770    0.3980 C   0  0  0  0  0  0  0  0  0  0  0  0
   -2.9530    6.9250    0.1580 C   0  0  0  0  0  0  0  0  0  0  0  0
   -2.3160    7.9060   -0.6680 F   0  0  0  0  0  0  0  0  0  0  0  0
   -1.9800    2.1300    0.1950 N   0  0  0  0  0  0  0  0  0  0  0  0
    1.9310    1.7750   -1.6630 C   0  0  0  0  0  0  0  0  0  0  0  0
    3.0590    2.4170   -0.8980 C   0  0  0  0  0  0  0  0  0  0  0  0
    3.9370    1.3380   -0.2890 C   0  0  0  0  0  0  0  0  0  0  0  0
    3.7180    0.0190   -0.9460 C   0  0  1  0  0  0  0  0  0  0  0  0
  1  2  2  0
  2  3  1  0
  2 34  1  0
  3  4  2  0
  4  5  1  0
  6  5  1  6
  6  7  1  0
  6 34  1  0
  7  8  1  6
  7 31  1  0
  8  9  1  0
  9 10  2  3
 10 11  1  0
 10 21  1  0
 11 12  2  0
 11 13  1  0
 13 14  1  0
 13 20  1  0
 14 15  1  0
 15 16  1  0
 16 17  1  0
 16 18  2  0
 18 19  1  0
 18 20  1  0
 21 22  2  0
 21 30  1  0
 22 23  1  0
 23 24  2  0
 24 25  1  0
 25 26  2  3
 25 30  1  0
 26 27  1  0
 27 28  2  3
 28 29  1  0
 31 32  1  0
 32 33  1  0
 34 33  1  1
M  END
