
     RDKit          3D

 35 38  0  0  0  0  0  0  0  0999 V2000
   -0.9190    3.4660   -3.1400 C   0  0  0  0  0  0  0  0  0  0  0  0
   -1.1180    2.4910   -2.1180 O   0  0  0  0  0  0  0  0  0  0  0  0
   -0.1190    2.0730   -1.2970 C   0  0  0  0  0  0  0  0  0  0  0  0
    1.1640    2.6030   -1.4350 C   0  0  0  0  0  0  0  0  0  0  0  0
    2.2220    2.2400   -0.6510 C   0  0  0  0  0  0  0  0  0  0  0  0
    1.9810    1.3010    0.3180 C   0  0  0  0  0  0  0  0  0  0  0  0
    3.0350    0.8860    1.1880 N   0  0  0  0  0  0  0  0  0  0  0  0
    4.4100    1.2810    1.0600 C   0  0  2  0  0  0  0  0  0  0  0  0
    5.1110    0.6710   -0.1260 C   0  0  0  0  0  0  0  0  0  0  0  0
    6.6010    0.5890    0.1730 C   0  0  0  0  0  0  0  0  0  0  0  0
    6.8660   -0.5410    1.1640 C   0  0  0  0  0  0  0  0  0  0  0  0
    5.9450   -0.3010    2.3270 C   0  0  0  0  0  0  0  0  0  0  0  0
    5.9130   -1.1660    3.3250 C   0  0  0  0  0  0  0  0  0  0  0  0
    6.7790   -2.3350    3.2670 C   0  0  0  0  0  0  0  0  0  0  0  0
    6.7940   -3.2410    4.2450 C   0  0  0  0  0  0  0  0  0  0  0  0
    5.9720   -3.0340    5.2950 F   0  0  0  0  0  0  0  0  0  0  0  0
    5.1300    0.8950    2.2950 C   0  0  0  0  0  0  0  0  0  0  0  0
    5.0630    1.5930    3.3970 N   0  0  0  0  0  0  0  0  0  0  0  0
    0.7150    0.7720    0.4620 C   0  0  0  0  0  0  0  0  0  0  0  0
   -0.3690    1.1290   -0.3250 C   0  0  0  0  0  0  0  0  0  0  0  0
   -1.5820    0.4260    0.0480 C   0  0  0  0  0  0  0  0  0  0  0  0
   -2.8010    0.3640   -0.3850 C   0  0  0  0  0  0  0  0  0  0  0  0
   -3.6060    0.9000   -1.4040 C   0  0  0  0  0  0  0  0  0  0  0  0
   -3.3680    1.6930   -2.3360 O   0  0  0  0  0  0  0  0  0  0  0  0
   -5.0370    0.5140   -1.4770 N   0  0  0  0  0  0  0  0  0  0  0  0
   -5.8230    1.0490   -2.5440 C   0  0  0  0  0  0  0  0  0  0  0  0
   -5.5850   -0.3460   -0.5000 C   0  0  0  0  0  0  0  0  0  0  0  0
   -5.4830   -1.8260   -0.8220 C   0  0  2  0  0  0  0  0  0  0  0  0
   -6.3240   -2.1800   -2.0360 C   0  0  0  0  0  0  0  0  0  0  0  0
   -7.1610   -3.3460   -1.4880 C   0  0  0  0  0  0  0  0  0  0  0  0
   -7.3480   -2.8300   -0.0550 C   0  0  0  0  0  0  0  0  0  0  0  0
   -6.0350   -2.5020    0.2570 O   0  0  0  0  0  0  0  0  0  0  0  0
   -1.1590   -0.4310    1.1780 N   0  0  0  0  0  0  0  0  0  0  0  0
    0.2050   -0.2080    1.4020 C   0  0  0  0  0  0  0  0  0  0  0  0
    0.8330   -0.8300    2.3330 O   0  0  0  0  0  0  0  0  0  0  0  0
  1  2  1  0
  2  3  1  0
  3  4  2  0
  3 20  1  0
  4  5  1  0
  5  6  2  0
  6  7  1  0
  6 19  1  0
  8  7  1  1
  8  9  1  0
  8 17  1  0
  9 10  1  0
 10 11  1  0
 11 12  1  0
 12 13  2  3
 12 17  1  0
 13 14  1  0
 14 15  2  3
 15 16  1  0
 17 18  2  0
 19 20  2  0
 19 34  1  0
 20 21  1  0
 21 22  2  3
 21 33  1  0
 22 23  1  0
 23 24  2  0
 23 25  1  0
 25 26  1  0
 25 27  1  0
 28 27  1  1
 28 29  1  0
 28 32  1  0
 29 30  1  0
 30 31  1  0
 31 32  1  0
 33 34  1  0
 34 35  2  0
M  END
