
     RDKit          3D

 32 36  0  0  0  0  0  0  0  0999 V2000
   -3.0470   -3.0790   -2.0000 C   0  0  0  0  0  0  0  0  0  0  0  0
   -3.0510   -2.0790   -0.8640 C   0  0  0  0  0  0  0  0  0  0  0  0
   -2.3550   -0.7920   -1.2640 C   0  0  0  0  0  0  0  0  0  0  0  0
   -2.3460    0.2200   -0.1210 C   0  0  2  0  0  0  0  0  0  0  0  0
   -3.7690    0.4960    0.2110 C   0  0  0  0  0  0  0  0  0  0  0  0
   -4.1810   -0.1890    1.2440 C   0  0  0  0  0  0  0  0  0  0  0  0
   -5.5150   -0.1150    1.7810 N   0  0  0  0  0  0  0  0  0  0  0  0
   -5.6570   -0.5780    3.1310 C   0  0  0  0  0  0  0  0  0  0  0  0
   -6.6930    0.3550    1.1390 C   0  0  0  0  0  0  0  0  0  0  0  0
   -6.8210    1.1500    0.0740 C   0  0  0  0  0  0  0  0  0  0  0  0
   -5.7360    1.7510   -0.7150 C   0  0  0  0  0  0  0  0  0  0  0  0
   -4.4590    1.4690   -0.6490 C   0  0  0  0  0  0  0  0  0  0  0  0
   -3.6800    2.2950   -1.6000 C   0  0  0  0  0  0  0  0  0  0  0  0
   -2.3680    2.5880   -0.9100 C   0  0  0  0  0  0  0  0  0  0  0  0
   -1.6390    1.4200   -0.4930 N   0  0  0  0  0  0  0  0  0  0  0  0
   -0.2240    1.5010   -0.4640 C   0  0  0  0  0  0  0  0  0  0  0  0
    0.5780    0.4400   -0.0800 C   0  0  0  0  0  0  0  0  0  0  0  0
    1.9520    0.5360   -0.0580 C   0  0  0  0  0  0  0  0  0  0  0  0
    2.5420    1.7130   -0.4250 C   0  0  0  0  0  0  0  0  0  0  0  0
    3.9540    1.8750   -0.3920 N   0  0  0  0  0  0  0  0  0  0  0  0
    4.8050    0.8980    0.1320 C   0  0  0  0  0  0  0  0  0  0  0  0
    4.5480    0.2940    1.3400 C   0  0  0  0  0  0  0  0  0  0  0  0
    5.4160   -0.6890    1.7850 C   0  0  0  0  0  0  0  0  0  0  0  0
    6.5200   -1.0680    1.0480 C   0  0  0  0  0  0  0  0  0  0  0  0
    6.7530   -0.4380   -0.1650 C   0  0  0  0  0  0  0  0  0  0  0  0
    5.9120    0.5410   -0.6370 C   0  0  0  0  0  0  0  0  0  0  0  0
    7.8580   -0.8150   -0.9020 O   0  0  0  0  0  0  0  0  0  0  0  0
    8.9660   -1.4810   -0.3540 C   0  0  0  0  0  0  0  0  0  0  0  0
    8.6950   -2.2350    0.9020 C   0  0  0  0  0  0  0  0  0  0  0  0
    7.4090   -2.0370    1.4490 O   0  0  0  0  0  0  0  0  0  0  0  0
    1.7470    2.7440   -0.7990 N   0  0  0  0  0  0  0  0  0  0  0  0
    0.4510    2.6130   -0.8070 N   0  0  0  0  0  0  0  0  0  0  0  0
  1  2  1  0
  2  3  1  0
  4  3  1  6
  4  5  1  0
  4 15  1  0
  5  6  2  0
  5 12  1  0
  6  7  1  0
  7  8  1  0
  7  9  1  0
  9 10  2  0
 10 11  1  0
 11 12  2  0
 12 13  1  0
 13 14  1  0
 14 15  1  0
 15 16  1  0
 16 17  2  0
 16 32  1  0
 17 18  1  0
 18 19  2  0
 19 20  1  0
 19 31  1  0
 20 21  1  0
 21 22  2  0
 21 26  1  0
 22 23  1  0
 23 24  2  0
 24 25  1  0
 24 30  1  0
 25 26  2  0
 25 27  1  0
 27 28  1  0
 28 29  1  0
 29 30  1  0
 31 32  2  0
M  END
