
     RDKit          3D

 32 36  0  0  0  0  0  0  0  0999 V2000
   -3.9450    3.8870    1.0250 C   0  0  0  0  0  0  0  0  0  0  0  0
   -4.8040    2.7260    0.6490 C   0  0  0  0  0  0  0  0  0  0  0  0
   -4.2670    1.6130    0.2350 C   0  0  0  0  0  0  0  0  0  0  0  0
   -2.8990    1.5560    0.1610 C   0  0  0  0  0  0  0  0  0  0  0  0
   -2.2690    0.3920   -0.2730 C   0  0  0  0  0  0  0  0  0  0  0  0
   -0.8300    0.4260   -0.3490 C   0  0  0  0  0  0  0  0  0  0  0  0
   -0.3140    1.5450   -0.6680 O   0  0  0  0  0  0  0  0  0  0  0  0
   -0.0110   -0.7100   -0.0860 N   0  0  0  0  0  0  0  0  0  0  0  0
   -0.3380   -1.9490    0.2910 C   0  0  0  0  0  0  0  0  0  0  0  0
   -1.5260   -2.3620    0.5130 O   0  0  0  0  0  0  0  0  0  0  0  0
    0.7780   -2.7070    0.4080 N   0  0  0  0  0  0  0  0  0  0  0  0
    0.8360   -4.0920    0.7930 C   0  0  0  0  0  0  0  0  0  0  0  0
    1.8540   -1.9640    0.1050 C   0  0  0  0  0  0  0  0  0  0  0  0
    3.2150   -2.2510    0.0670 C   0  0  0  0  0  0  0  0  0  0  0  0
    4.1090   -1.2730   -0.2870 C   0  0  0  0  0  0  0  0  0  0  0  0
    3.6450   -0.0170   -0.5990 C   0  0  0  0  0  0  0  0  0  0  0  0
    4.4770    1.0780   -0.9490 N   0  0  0  0  0  0  0  0  0  0  0  0
    5.8080    1.1630   -0.4760 C   0  0  0  0  0  0  0  0  0  0  0  0
    6.2440    0.5720    0.6830 C   0  0  0  0  0  0  0  0  0  0  0  0
    7.5780    0.6600    1.1020 C   0  0  0  0  0  0  0  0  0  0  0  0
    8.4830    1.3590    0.3360 C   0  0  0  0  0  0  0  0  0  0  0  0
    8.0570    1.9390   -0.7970 N   0  0  0  0  0  0  0  0  0  0  0  0
    6.7810    1.8590   -1.2060 C   0  0  0  0  0  0  0  0  0  0  0  0
    2.2640    0.2460   -0.5540 C   0  0  0  0  0  0  0  0  0  0  0  0
    1.3620   -0.7160   -0.2040 C   0  0  0  0  0  0  0  0  0  0  0  0
   -3.0180   -0.6630   -0.6130 N   0  0  0  0  0  0  0  0  0  0  0  0
   -4.3550   -0.6400   -0.5520 C   0  0  0  0  0  0  0  0  0  0  0  0
   -5.0110    0.5180   -0.1200 C   0  0  0  0  0  0  0  0  0  0  0  0
   -6.3140    0.4970   -0.0760 C   0  0  0  0  0  0  0  0  0  0  0  0
   -7.1960   -0.6420   -0.4410 C   0  0  0  0  0  0  0  0  0  0  0  0
   -6.4570   -1.8240   -0.8850 C   0  0  0  0  0  0  0  0  0  0  0  0
   -5.1440   -1.7920   -0.9250 C   0  0  0  0  0  0  0  0  0  0  0  0
  1  2  1  0
  2  3  2  3
  3  4  1  0
  3 28  1  0
  4  5  2  0
  5  6  1  0
  5 26  1  0
  6  7  2  0
  6  8  1  0
  8  9  1  0
  8 25  1  0
  9 10  2  0
  9 11  1  0
 11 12  1  0
 11 13  1  0
 13 14  2  0
 13 25  1  0
 14 15  1  0
 15 16  2  0
 16 17  1  0
 16 24  1  0
 17 18  1  0
 18 19  2  0
 18 23  1  0
 19 20  1  0
 20 21  2  0
 21 22  1  0
 22 23  2  0
 24 25  2  0
 26 27  2  0
 27 28  1  0
 27 32  1  0
 28 29  2  0
 29 30  1  0
 30 31  1  0
 31 32  2  0
M  END
