
     RDKit          3D

 35 39  0  0  0  0  0  0  0  0999 V2000
    2.7550   -4.1070   -0.2080 C   0  0  0  0  0  0  0  0  0  0  0  0
    1.6270   -3.1610    0.1350 C   0  0  0  0  0  0  0  0  0  0  0  0
    1.5910   -1.8530   -0.2510 C   0  0  0  0  0  0  0  0  0  0  0  0
    0.3760   -1.2870    0.2570 C   0  0  0  0  0  0  0  0  0  0  0  0
   -0.0100    0.0480   -0.1400 C   0  0  0  0  0  0  0  0  0  0  0  0
    0.8930    0.8950   -0.4570 N   0  0  0  0  0  0  0  0  0  0  0  0
    2.2090    0.9910   -0.5590 N   0  0  0  0  0  0  0  0  0  0  0  0
    2.8650    1.2040   -1.8610 C   0  0  0  0  0  0  0  0  0  0  0  0
    4.3360    1.0530   -1.8390 C   0  0  0  0  0  0  0  0  0  0  0  0
    4.8620    0.1630   -0.7640 C   0  0  0  0  0  0  0  0  0  0  0  0
    4.3090    0.5180    0.5700 C   0  0  0  0  0  0  0  0  0  0  0  0
    5.1160    0.4370    1.7150 C   0  0  0  0  0  0  0  0  0  0  0  0
    4.5280    0.7900    2.9230 C   0  0  0  0  0  0  0  0  0  0  0  0
    5.3840    0.7000    4.1150 C   0  0  0  0  0  0  0  0  0  0  0  0
    6.5740    0.3290    4.0600 O   0  0  0  0  0  0  0  0  0  0  0  0
    3.2210    1.2000    3.0020 C   0  0  0  0  0  0  0  0  0  0  0  0
    2.4550    1.2700    1.8670 C   0  0  0  0  0  0  0  0  0  0  0  0
    3.0070    0.9250    0.6420 C   0  0  0  0  0  0  0  0  0  0  0  0
   -1.3400    0.5620   -0.2890 C   0  0  0  0  0  0  0  0  0  0  0  0
   -1.4410    1.8460   -0.5850 O   0  0  0  0  0  0  0  0  0  0  0  0
   -2.5930   -0.0460   -0.1940 N   0  0  0  0  0  0  0  0  0  0  0  0
   -3.8250    0.6570   -0.3580 C   0  0  0  0  0  0  0  0  0  0  0  0
   -4.4170    1.2070    0.7460 C   0  0  0  0  0  0  0  0  0  0  0  0
   -3.7770    1.0660    2.0690 C   0  0  0  0  0  0  0  0  0  0  0  0
   -5.6110    1.9040    0.6790 C   0  0  0  0  0  0  0  0  0  0  0  0
   -6.2250    2.0490   -0.5460 C   0  0  0  0  0  0  0  0  0  0  0  0
   -5.6520    1.5070   -1.6690 C   0  0  0  0  0  0  0  0  0  0  0  0
   -4.4390    0.8030   -1.5760 C   0  0  0  0  0  0  0  0  0  0  0  0
   -4.0760    0.3740   -2.7710 C   0  0  0  0  0  0  0  0  0  0  0  0
   -5.0990    0.8040   -3.7580 C   0  0  0  0  0  0  0  0  0  0  0  0
   -6.0700    1.5330   -2.9080 C   0  0  0  0  0  0  0  0  0  0  0  0
   -7.1900    2.1100   -3.3950 F   0  0  0  0  0  0  0  0  0  0  0  0
   -0.2290   -2.3100    0.9200 C   0  0  0  0  0  0  0  0  0  0  0  0
   -1.4830   -2.2780    1.7730 C   0  0  0  0  0  0  0  0  0  0  0  0
    0.5380   -3.4360    0.8350 N   0  0  0  0  0  0  0  0  0  0  0  0
  1  2  1  0
  2  3  2  0
  2 35  1  0
  3  4  1  0
  4  5  1  0
  4 33  2  0
  5  6  2  3
  5 19  1  0
  6  7  1  0
  7  8  1  0
  7 18  1  0
  8  9  1  0
  9 10  1  0
 10 11  1  0
 11 12  2  0
 11 18  1  0
 12 13  1  0
 13 14  1  0
 13 16  2  0
 14 15  2  0
 16 17  1  0
 17 18  2  0
 19 20  2  0
 19 21  1  0
 21 22  1  0
 22 23  2  0
 22 28  1  0
 23 24  1  0
 23 25  1  0
 25 26  2  0
 26 27  1  0
 27 28  1  0
 27 31  2  0
 28 29  2  0
 29 30  1  0
 30 31  1  0
 31 32  1  0
 33 34  1  0
 33 35  1  0
M  END
