
     RDKit          3D

 35 39  0  0  0  0  0  0  0  0999 V2000
   -4.0310    2.1720    1.6250 C   0  0  0  0  0  0  0  0  0  0  0  0
   -4.1130    1.7120    0.1850 C   0  0  0  0  0  0  0  0  0  0  0  0
   -4.2990    0.2840    0.1850 N   0  0  0  0  0  0  0  0  0  0  0  0
   -3.1690   -0.5530    0.1650 C   0  0  0  0  0  0  0  0  0  0  0  0
   -3.3290   -1.7970    0.1630 O   0  0  0  0  0  0  0  0  0  0  0  0
   -1.7990   -0.0730    0.1480 C   0  0  0  0  0  0  0  0  0  0  0  0
   -1.0430    0.1830    1.2660 C   0  0  0  0  0  0  0  0  0  0  0  0
    0.2580    0.6400    1.2080 C   0  0  0  0  0  0  0  0  0  0  0  0
    0.9980    0.8930    2.3900 N   0  0  0  0  0  0  0  0  0  0  0  0
    2.3620    1.3650    2.3660 C   0  0  0  0  0  0  0  0  0  0  0  0
    3.2880    0.4090    1.7110 C   0  0  0  0  0  0  0  0  0  0  0  0
    2.8920   -0.8560    1.3320 C   0  0  0  0  0  0  0  0  0  0  0  0
    3.8040   -1.7140    0.7180 C   0  0  0  0  0  0  0  0  0  0  0  0
    5.0890   -1.3330    0.4790 C   0  0  0  0  0  0  0  0  0  0  0  0
    5.5030   -0.0600    0.8550 C   0  0  0  0  0  0  0  0  0  0  0  0
    4.5890    0.7770    1.4620 C   0  0  0  0  0  0  0  0  0  0  0  0
    6.9030    0.2950    0.5720 C   0  0  0  0  0  0  0  0  0  0  0  0
    7.3650   -0.1220   -0.7990 C   0  0  0  0  0  0  0  0  0  0  0  0
    6.6820   -1.3460   -1.3260 C   0  0  0  0  0  0  0  0  0  0  0  0
    6.1230   -2.1830   -0.1700 C   0  0  0  0  0  0  0  0  0  0  0  0
    0.7790    0.8330   -0.0280 N   0  0  0  0  0  0  0  0  0  0  0  0
    0.1110    0.6090   -1.1670 C   0  0  0  0  0  0  0  0  0  0  0  0
    0.6300    0.8010   -2.3870 N   0  0  0  0  0  0  0  0  0  0  0  0
   -0.0440    0.5740   -3.5270 C   0  0  0  0  0  0  0  0  0  0  0  0
    0.4780    0.7670   -4.6630 O   0  0  0  0  0  0  0  0  0  0  0  0
   -1.3610    0.1120   -3.5020 C   0  0  0  0  0  0  0  0  0  0  0  0
   -1.9000   -0.0870   -2.2470 C   0  0  0  0  0  0  0  0  0  0  0  0
   -1.2080    0.1450   -1.0770 C   0  0  0  0  0  0  0  0  0  0  0  0
   -5.6060   -0.2500    0.2040 C   0  0  0  0  0  0  0  0  0  0  0  0
   -6.5520    0.0600   -0.7580 C   0  0  0  0  0  0  0  0  0  0  0  0
   -7.8260   -0.4670   -0.7310 C   0  0  0  0  0  0  0  0  0  0  0  0
   -8.2120   -1.3330    0.2700 C   0  0  0  0  0  0  0  0  0  0  0  0
   -9.4760   -1.8590    0.3010 F   0  0  0  0  0  0  0  0  0  0  0  0
   -7.3010   -1.6600    1.2370 C   0  0  0  0  0  0  0  0  0  0  0  0
   -6.0280   -1.1310    1.2050 C   0  0  0  0  0  0  0  0  0  0  0  0
  1  2  1  0
  2  3  1  0
  3  4  1  0
  3 29  1  0
  4  5  2  0
  4  6  1  0
  6  7  2  0
  6 28  1  0
  7  8  1  0
  8  9  1  0
  8 21  2  0
  9 10  1  0
 10 11  1  0
 11 12  2  0
 11 16  1  0
 12 13  1  0
 13 14  2  0
 14 15  1  0
 14 20  1  0
 15 16  2  0
 15 17  1  0
 17 18  1  0
 18 19  1  0
 19 20  1  0
 21 22  1  0
 22 23  1  0
 22 28  2  0
 23 24  1  0
 24 25  2  0
 24 26  1  0
 26 27  2  0
 27 28  1  0
 29 30  2  0
 29 35  1  0
 30 31  1  0
 31 32  2  0
 32 33  1  0
 32 34  1  0
 34 35  2  0
M  END
