
     RDKit          3D

 35 40  0  0  0  0  0  0  0  0999 V2000
   -3.9780   -4.9990   -2.1240 C   0  0  0  0  0  0  0  0  0  0  0  0
   -3.8720   -3.6650   -1.4820 C   0  0  0  0  0  0  0  0  0  0  0  0
   -4.8970   -3.2500   -0.6620 C   0  0  0  0  0  0  0  0  0  0  0  0
   -4.7900   -2.0140   -0.0730 C   0  0  0  0  0  0  0  0  0  0  0  0
   -3.7040   -1.1860   -0.2730 C   0  0  0  0  0  0  0  0  0  0  0  0
   -2.6880   -1.5990   -1.0870 C   0  0  0  0  0  0  0  0  0  0  0  0
   -2.7780   -2.8290   -1.6830 C   0  0  0  0  0  0  0  0  0  0  0  0
   -1.4550   -0.7280   -1.3530 C   0  0  0  0  0  0  0  0  0  0  0  0
   -1.3210    0.0580   -0.1500 C   0  0  1  0  0  0  0  0  0  0  0  0
   -1.5640   -0.8490    0.9370 O   0  0  0  0  0  0  0  0  0  0  0  0
   -0.1960    0.9730    0.1850 C   0  0  1  0  0  0  0  0  0  0  0  0
   -0.1200    2.0080   -0.9150 C   0  0  2  0  0  0  0  0  0  0  0  0
    0.3670    1.5630   -2.2470 C   0  0  0  0  0  0  0  0  0  0  0  0
   -0.3770    2.3510   -3.3470 C   0  0  0  0  0  0  0  0  0  0  0  0
   -0.5360    3.6780   -2.7850 N   0  0  0  0  0  0  0  0  0  0  0  0
    0.5300    4.0920   -1.9330 C   0  0  0  0  0  0  0  0  0  0  0  0
    0.5760    3.3060   -0.5990 C   0  0  0  0  0  0  0  0  0  0  0  0
   -0.6870    1.6680    1.4730 C   0  0  0  0  0  0  0  0  0  0  0  0
    0.1440    1.5760    2.6770 C   0  0  1  0  0  0  0  0  0  0  0  0
    0.7870    2.8920    3.0730 C   0  0  0  0  0  0  0  0  0  0  0  0
   -0.2290    3.5000    4.0160 C   0  0  0  0  0  0  0  0  0  0  0  0
   -1.1800    2.5550    4.2870 O   0  0  0  0  0  0  0  0  0  0  0  0
   -0.6510    1.3110    3.9720 C   0  0  0  0  0  0  0  0  0  0  0  0
    1.1270    0.5970    2.6940 O   0  0  0  0  0  0  0  0  0  0  0  0
    1.8910    0.8930    1.6020 C   0  0  0  0  0  0  0  0  0  0  0  0
    1.1640    0.3970    0.3700 C   0  0  1  0  0  0  0  0  0  0  0  0
    1.4050   -1.0410    0.1960 C   0  0  0  0  0  0  0  0  0  0  0  0
    2.8090   -1.4400    0.4410 N   0  0  1  0  0  0  0  0  0  0  0  0
    2.7930   -2.8920    0.1400 C   0  0  0  0  0  0  0  0  0  0  0  0
    4.1010   -3.5300    0.4980 C   0  0  0  0  0  0  0  0  0  0  0  0
    5.2260   -2.7010   -0.0830 C   0  0  0  0  0  0  0  0  0  0  0  0
    4.6110   -1.8860   -1.1970 C   0  0  0  0  0  0  0  0  0  0  0  0
    3.7210   -0.8540   -0.5010 C   0  0  0  0  0  0  0  0  0  0  0  0
   -2.6040    0.9180   -0.1610 C   0  0  0  0  0  0  0  0  0  0  0  0
   -3.7370    0.1190    0.4370 C   0  0  0  0  0  0  0  0  0  0  0  0
  1  2  1  0
  2  3  2  0
  2  7  1  0
  3  4  1  0
  4  5  2  0
  5  6  1  0
  5 35  1  0
  6  7  2  0
  6  8  1  0
  8  9  1  0
  9 10  1  1
  9 11  1  0
  9 34  1  0
 11 12  1  0
 11 18  1  1
 11 26  1  0
 12 13  1  6
 12 17  1  0
 13 14  1  0
 14 15  1  0
 15 16  1  0
 16 17  1  0
 19 18  1  6
 19 20  1  0
 19 23  1  0
 19 24  1  0
 20 21  1  0
 21 22  1  0
 22 23  1  0
 24 25  1  0
 25 26  1  0
 26 27  1  1
 28 27  1  6
 28 29  1  0
 28 33  1  0
 29 30  1  0
 30 31  1  0
 31 32  1  0
 32 33  1  0
 34 35  1  0
M  CHG  1  28   1
M  END
