
     RDKit          3D

 39 41  0  0  0  0  0  0  0  0999 V2000
   -4.5550   -5.7840    1.1040 C   0  0  0  0  0  0  0  0  0  0  0  0
   -4.4010   -4.4960    0.3560 C   0  0  0  0  0  0  0  0  0  0  0  0
   -5.2910   -4.1280   -0.6320 C   0  0  0  0  0  0  0  0  0  0  0  0
   -5.1360   -2.9380   -1.3120 C   0  0  0  0  0  0  0  0  0  0  0  0
   -6.0480   -2.4780   -2.3810 C   0  0  0  0  0  0  0  0  0  0  0  0
   -4.0670   -2.0970   -0.9960 C   0  0  0  0  0  0  0  0  0  0  0  0
   -3.8890   -0.9340   -1.6380 N   0  0  0  0  0  0  0  0  0  0  0  0
   -2.8310   -0.1440   -1.2970 C   0  0  0  0  0  0  0  0  0  0  0  0
   -2.7440    0.9170   -1.9420 O   0  0  0  0  0  0  0  0  0  0  0  0
   -1.9450   -0.4700   -0.3410 C   0  0  0  0  0  0  0  0  0  0  0  0
   -0.8470    0.3400    0.0440 N   0  0  0  0  0  0  0  0  0  0  0  0
    0.4840    0.1560   -0.4770 C   0  0  0  0  0  0  0  0  0  0  0  0
    0.8270    1.1100   -1.5230 C   0  0  0  0  0  0  0  0  0  0  0  0
    0.0040    1.9800   -1.8810 O   0  0  0  0  0  0  0  0  0  0  0  0
    2.0920    1.1140   -2.1900 N   0  0  0  0  0  0  0  0  0  0  0  0
    2.3150    2.1080   -3.2130 C   0  0  0  0  0  0  0  0  0  0  0  0
    3.0470    0.1320   -1.7930 C   0  0  0  0  0  0  0  0  0  0  0  0
    3.9260    0.6060   -0.6790 C   0  0  0  0  0  0  0  0  0  0  0  0
    3.9170    1.7730   -0.0530 C   0  0  0  0  0  0  0  0  0  0  0  0
    4.9770    1.8060    0.9990 C   0  0  0  0  0  0  0  0  0  0  0  0
    5.6300    0.4700    0.8270 C   0  0  1  0  0  0  0  0  0  0  0  0
    5.6390   -0.3370    2.1070 C   0  0  0  0  0  0  0  0  0  0  0  0
    6.3860    0.3750    3.2090 C   0  0  2  0  0  0  0  0  0  0  0  0
    7.7010    0.6020    2.8510 F   0  0  0  0  0  0  0  0  0  0  0  0
    6.3500   -0.3910    4.3430 F   0  0  0  0  0  0  0  0  0  0  0  0
    4.9180   -0.2170   -0.1600 O   0  0  0  0  0  0  0  0  0  0  0  0
   -1.0500    1.5570    1.2850 S   0  0  2  0  0  0  0  0  0  0  0  0
    0.2490    1.6710    2.0680 O   0  0  0  0  0  0  0  0  0  0  0  0
   -2.0690    1.0340    2.2880 O   0  0  0  0  0  0  0  0  0  0  0  0
   -1.5340    3.0720    0.6550 N   0  0  0  0  0  0  0  0  0  0  0  0
   -0.6090    4.1070    0.4160 C   0  0  0  0  0  0  0  0  0  0  0  0
   -1.0210    5.3510    0.3560 C   0  0  0  0  0  0  0  0  0  0  0  0
   -0.0620    6.4150    0.1100 C   0  0  0  0  0  0  0  0  0  0  0  0
    1.1420    6.1180   -0.0410 O   0  0  0  0  0  0  0  0  0  0  0  0
   -0.5070    7.6950    0.0520 F   0  0  0  0  0  0  0  0  0  0  0  0
   -2.1440   -1.6930    0.3250 C   0  0  0  0  0  0  0  0  0  0  0  0
   -1.2030   -2.1000    1.3820 C   0  0  0  0  0  0  0  0  0  0  0  0
   -3.1960   -2.4810   -0.0130 C   0  0  0  0  0  0  0  0  0  0  0  0
   -3.3440   -3.6760    0.6770 C   0  0  0  0  0  0  0  0  0  0  0  0
  1  2  1  0
  2  3  2  0
  2 39  1  0
  3  4  1  0
  4  5  1  0
  4  6  2  0
  6  7  1  0
  6 38  1  0
  7  8  1  0
  8  9  2  0
  8 10  1  0
 10 11  1  0
 10 36  2  0
 11 12  1  0
 11 27  1  0
 12 13  1  0
 13 14  2  0
 13 15  1  0
 15 16  1  0
 15 17  1  0
 17 18  1  0
 18 19  2  0
 18 26  1  0
 19 20  1  0
 20 21  1  0
 21 22  1  1
 21 26  1  0
 22 23  1  0
 23 24  1  6
 23 25  1  0
 27 28  2  0
 27 29  2  0
 27 30  1  6
 30 31  1  0
 31 32  2  3
 32 33  1  0
 33 34  2  0
 33 35  1  0
 36 37  1  0
 36 38  1  0
 38 39  2  0
M  END
