
     RDKit          3D

 39 43  0  0  0  0  0  0  0  0999 V2000
    7.4540   -1.2530    1.3000 C   0  0  0  0  0  0  0  0  0  0  0  0
    8.1480   -0.1260    0.5990 C   0  0  0  0  0  0  0  0  0  0  0  0
    9.3470    0.3850    1.0830 C   0  0  0  0  0  0  0  0  0  0  0  0
    9.9820    1.4290    0.4220 C   0  0  0  0  0  0  0  0  0  0  0  0
    9.3880    1.9330   -0.7140 C   0  0  0  0  0  0  0  0  0  0  0  0
    8.1920    1.4090   -1.1780 C   0  0  0  0  0  0  0  0  0  0  0  0
    7.4210    2.0400   -2.6280 Cl  0  0  0  0  0  0  0  0  0  0  0  0
    7.5480    0.3740   -0.5360 C   0  0  0  0  0  0  0  0  0  0  0  0
    6.3210   -0.1730   -0.9990 N   0  0  0  0  0  0  0  0  0  0  0  0
    5.0570    0.2960   -0.6180 C   0  0  0  0  0  0  0  0  0  0  0  0
    4.9820    1.2610    0.1820 O   0  0  0  0  0  0  0  0  0  0  0  0
    3.8000   -0.3010   -1.1190 C   0  0  0  0  0  0  0  0  0  0  0  0
    3.5280   -1.3050   -1.9450 C   0  0  0  0  0  0  0  0  0  0  0  0
    2.2590   -1.5660   -2.1660 N   0  0  0  0  0  0  0  0  0  0  0  0
    1.3170   -1.0430   -1.7420 C   0  0  0  0  0  0  0  0  0  0  0  0
   -0.0770   -1.1650   -1.7920 N   0  0  0  0  0  0  0  0  0  0  0  0
   -0.9530   -0.2620   -1.1860 C   0  0  0  0  0  0  0  0  0  0  0  0
   -2.1790   -0.6750   -0.6600 C   0  0  0  0  0  0  0  0  0  0  0  0
   -3.0550    0.2130   -0.0970 C   0  0  0  0  0  0  0  0  0  0  0  0
   -4.3150   -0.2790    0.4370 C   0  0  0  0  0  0  0  0  0  0  0  0
   -5.2170    0.5480    0.7640 O   0  0  0  0  0  0  0  0  0  0  0  0
   -4.6380   -1.6340    0.6320 N   0  0  0  0  0  0  0  0  0  0  0  0
   -5.8840   -2.1100    1.1590 C   0  0  1  0  0  0  0  0  0  0  0  0
   -6.5580   -2.9950    0.1360 C   0  0  0  0  0  0  0  0  0  0  0  0
   -7.4940   -3.9240    0.8560 C   0  0  0  0  0  0  0  0  0  0  0  0
   -6.8100   -4.8830    1.7040 N   0  0  0  0  0  0  0  0  0  0  0  0
   -5.5530   -4.3110    2.1700 C   0  0  0  0  0  0  0  0  0  0  0  0
   -5.8050   -2.8430    2.4450 C   0  0  0  0  0  0  0  0  0  0  0  0
   -2.7170    1.5310   -0.0540 C   0  0  0  0  0  0  0  0  0  0  0  0
   -1.5220    1.9820   -0.5590 C   0  0  0  0  0  0  0  0  0  0  0  0
   -1.1240    3.3760   -0.5260 C   0  0  0  0  0  0  0  0  0  0  0  0
    0.1640    3.7110   -0.1560 C   0  0  0  0  0  0  0  0  0  0  0  0
    0.5830    5.0020   -0.1120 C   0  0  0  0  0  0  0  0  0  0  0  0
   -0.2870    6.0130   -0.4420 C   0  0  0  0  0  0  0  0  0  0  0  0
   -1.5710    5.7080   -0.8120 C   0  0  0  0  0  0  0  0  0  0  0  0
   -1.9880    4.3860   -0.8540 C   0  0  0  0  0  0  0  0  0  0  0  0
   -3.3130    4.0440   -1.2360 N   0  0  0  0  0  0  0  0  0  0  0  0
   -0.6500    1.0720   -1.1240 C   0  0  0  0  0  0  0  0  0  0  0  0
    2.1710    0.2590   -0.6670 S   0  0  0  0  0  0  0  0  0  0  0  0
  1  2  1  0
  2  3  2  0
  2  8  1  0
  3  4  1  0
  4  5  2  0
  5  6  1  0
  6  7  1  0
  6  8  2  0
  8  9  1  0
  9 10  1  0
 10 11  2  0
 10 12  1  0
 12 13  2  0
 12 39  1  0
 13 14  1  0
 14 15  2  0
 15 16  1  0
 15 39  1  0
 16 17  1  0
 17 18  2  0
 17 38  1  0
 18 19  1  0
 19 20  1  0
 19 29  2  0
 20 21  2  0
 20 22  1  0
 23 22  1  6
 23 24  1  0
 23 28  1  0
 24 25  1  0
 25 26  1  0
 26 27  1  0
 27 28  1  0
 29 30  1  0
 30 31  1  0
 30 38  2  0
 31 32  2  0
 31 36  1  0
 32 33  1  0
 33 34  2  0
 34 35  1  0
 35 36  2  0
 36 37  1  0
M  CHG  1  26   1
M  END
