
     RDKit          3D

 39 41  0  0  0  0  0  0  0  0999 V2000
    6.0540    2.8920   -2.4290 C   0  0  0  0  0  0  0  0  0  0  0  0
    6.9910    1.9810   -2.3670 C   0  0  0  0  0  0  0  0  0  0  0  0
    6.9350    0.9000   -1.3630 C   0  0  0  0  0  0  0  0  0  0  0  0
    6.9000   -0.3490   -2.0700 O   0  0  0  0  0  0  0  0  0  0  0  0
    6.8470   -1.4910   -1.3180 C   0  0  0  0  0  0  0  0  0  0  0  0
    6.2500   -1.6440   -0.2180 N   0  0  0  0  0  0  0  0  0  0  0  0
    6.2840   -2.8550    0.4340 C   0  0  0  0  0  0  0  0  0  0  0  0
    5.6360   -3.1180    1.7630 C   0  0  0  0  0  0  0  0  0  0  0  0
    4.1990   -2.9990    1.6340 N   0  0  0  0  0  0  0  0  0  0  0  0
    3.4970   -1.8430    1.2600 C   0  0  0  0  0  0  0  0  0  0  0  0
    4.2490   -0.8110    1.0290 O   0  0  0  0  0  0  0  0  0  0  0  0
    2.0390   -1.6920    1.1050 C   0  0  1  0  0  0  0  0  0  0  0  0
    1.6550   -0.5960    0.2510 N   0  0  0  0  0  0  0  0  0  0  0  0
    0.7240    0.4100    0.5920 C   0  0  0  0  0  0  0  0  0  0  0  0
    0.1900    0.3250    1.7300 O   0  0  0  0  0  0  0  0  0  0  0  0
    0.3680    1.4720   -0.2480 N   0  0  0  0  0  0  0  0  0  0  0  0
   -0.6220    2.4520    0.1680 C   0  0  0  0  0  0  0  0  0  0  0  0
   -1.9990    1.8760    0.0110 C   0  0  0  0  0  0  0  0  0  0  0  0
   -3.1330    2.5370    0.4110 C   0  0  0  0  0  0  0  0  0  0  0  0
   -4.4030    1.9740    0.2400 C   0  0  0  0  0  0  0  0  0  0  0  0
   -4.5660    0.7370   -0.3350 C   0  0  0  0  0  0  0  0  0  0  0  0
   -5.8080    0.1360   -0.5290 O   0  0  0  0  0  0  0  0  0  0  0  0
   -7.0170    0.7110   -0.2580 C   0  0  0  0  0  0  0  0  0  0  0  0
   -7.9100    0.1970    0.6410 C   0  0  0  0  0  0  0  0  0  0  0  0
   -9.1460    0.8040    0.9030 C   0  0  0  0  0  0  0  0  0  0  0  0
  -10.0720    0.1830    1.9000 C   0  0  0  0  0  0  0  0  0  0  0  0
   -9.4750    1.9570    0.2340 C   0  0  0  0  0  0  0  0  0  0  0  0
   -8.5980    2.5130   -0.6880 C   0  0  0  0  0  0  0  0  0  0  0  0
   -7.3940    1.8960   -0.9240 C   0  0  0  0  0  0  0  0  0  0  0  0
   -6.4960    2.3880   -1.8140 F   0  0  0  0  0  0  0  0  0  0  0  0
   -3.4030    0.0730   -0.7380 C   0  0  0  0  0  0  0  0  0  0  0  0
   -2.1530    0.6260   -0.5690 C   0  0  0  0  0  0  0  0  0  0  0  0
    1.3340   -2.9650    0.8810 C   0  0  1  0  0  0  0  0  0  0  0  0
    1.4990   -3.7980    1.9630 F   0  0  0  0  0  0  0  0  0  0  0  0
   -0.0590   -2.7790    0.8000 F   0  0  0  0  0  0  0  0  0  0  0  0
    6.9690   -3.8120   -0.1670 C   0  0  0  0  0  0  0  0  0  0  0  0
    7.5770   -3.0820   -1.6280 S   0  0  1  0  0  0  0  0  0  0  0  0
    6.9820   -3.6820   -2.8700 O   0  0  0  0  0  0  0  0  0  0  0  0
    9.0610   -3.0100   -1.6820 O   0  0  0  0  0  0  0  0  0  0  0  0
  1  2  2  0
  2  3  1  0
  3  4  1  0
  4  5  1  0
  5  6  2  0
  5 37  1  0
  6  7  1  0
  7  8  1  0
  7 36  2  0
  8  9  1  0
  9 10  1  0
 10 11  2  0
 10 12  1  0
 12 13  1  6
 12 33  1  0
 13 14  1  0
 14 15  2  0
 14 16  1  0
 16 17  1  0
 17 18  1  0
 18 19  2  0
 18 32  1  0
 19 20  1  0
 20 21  2  0
 21 22  1  0
 21 31  1  0
 22 23  1  0
 23 24  2  0
 23 29  1  0
 24 25  1  0
 25 26  1  0
 25 27  2  0
 27 28  1  0
 28 29  2  0
 29 30  1  0
 31 32  2  0
 33 34  1  1
 33 35  1  0
 37 36  1  1
 37 38  2  0
 37 39  2  0
M  END
