
     RDKit          3D

 39 41  0  0  0  0  0  0  0  0999 V2000
   -1.0780    5.2970    3.2540 C   0  0  0  0  0  0  0  0  0  0  0  0
   -0.2840    4.2830    2.4990 C   0  0  0  0  0  0  0  0  0  0  0  0
   -0.8890    4.0210    1.2620 O   0  0  0  0  0  0  0  0  0  0  0  0
   -0.2990    3.0660    0.3450 C   0  0  0  0  0  0  0  0  0  0  0  0
    0.7260    2.5700    0.7920 O   0  0  0  0  0  0  0  0  0  0  0  0
   -1.0450    2.9190   -0.8710 C   0  0  0  0  0  0  0  0  0  0  0  0
   -0.7110    2.0410   -1.9800 C   0  0  0  0  0  0  0  0  0  0  0  0
   -0.6060    0.6400   -1.8510 N   0  0  0  0  0  0  0  0  0  0  0  0
   -1.8390   -0.1310   -1.8390 C   0  0  0  0  0  0  0  0  0  0  0  0
   -1.8130   -1.4000   -1.6940 O   0  0  0  0  0  0  0  0  0  0  0  0
   -3.1230    0.4240   -1.9820 N   0  0  0  0  0  0  0  0  0  0  0  0
   -4.3120   -0.3870   -1.9610 C   0  0  0  0  0  0  0  0  0  0  0  0
   -4.5190   -1.1560   -0.6970 C   0  0  0  0  0  0  0  0  0  0  0  0
   -4.6560   -0.0850    0.7420 S   0  0  0  0  0  0  0  0  0  0  0  0
   -3.4660    0.8250    0.8640 O   0  0  0  0  0  0  0  0  0  0  0  0
   -4.8980   -1.0960    2.1580 C   0  0  0  0  0  0  0  0  0  0  0  0
   -4.2200   -1.0400    3.2790 C   0  0  0  0  0  0  0  0  0  0  0  0
   -4.7130   -2.0520    4.2410 C   0  0  0  0  0  0  0  0  0  0  0  0
   -5.8070   -2.7220    3.4940 C   0  0  0  0  0  0  0  0  0  0  0  0
   -5.8850   -2.1460    2.3000 C   0  0  0  0  0  0  0  0  0  0  0  0
   -6.8130   -2.5490    1.3630 F   0  0  0  0  0  0  0  0  0  0  0  0
    0.5940   -0.1050   -1.8590 C   0  0  2  0  0  0  0  0  0  0  0  0
    1.7070    0.2670   -0.9540 C   0  0  0  0  0  0  0  0  0  0  0  0
    2.8170   -0.5440   -1.5220 N   0  0  0  0  0  0  0  0  0  0  0  0
    3.8990   -1.1400   -0.8330 C   0  0  0  0  0  0  0  0  0  0  0  0
    4.7300   -1.7880   -1.5050 O   0  0  0  0  0  0  0  0  0  0  0  0
    4.0970   -1.0500    0.5460 N   0  0  0  0  0  0  0  0  0  0  0  0
    5.1150   -1.5870    1.3520 C   0  0  0  0  0  0  0  0  0  0  0  0
    6.1400   -2.3490    0.8550 C   0  0  0  0  0  0  0  0  0  0  0  0
    7.1550   -2.8850    1.6660 C   0  0  0  0  0  0  0  0  0  0  0  0
    8.1560   -3.6370    1.1400 F   0  0  0  0  0  0  0  0  0  0  0  0
    7.1560   -2.6590    3.0210 C   0  0  0  0  0  0  0  0  0  0  0  0
    6.1300   -1.8940    3.5290 C   0  0  0  0  0  0  0  0  0  0  0  0
    5.1410   -1.3740    2.7280 C   0  0  0  0  0  0  0  0  0  0  0  0
    4.1310   -0.6190    3.2390 F   0  0  0  0  0  0  0  0  0  0  0  0
    2.6020   -0.6250   -2.9490 C   0  0  0  0  0  0  0  0  0  0  0  0
    1.2940    0.0870   -3.2370 C   0  0  1  0  0  0  0  0  0  0  0  0
    0.5930   -0.6370   -4.3250 C   0  0  0  0  0  0  0  0  0  0  0  0
    0.5820   -1.9980   -4.0160 O   0  0  0  0  0  0  0  0  0  0  0  0
  1  2  1  0
  2  3  1  0
  3  4  1  0
  4  5  2  0
  4  6  1  0
  6  7  1  0
  7  8  1  0
  8  9  1  0
 22  8  1  6
  9 10  2  0
  9 11  1  0
 11 12  1  0
 12 13  1  0
 14 13  1  6
 14 15  2  0
 14 16  1  0
 16 17  2  0
 16 20  1  0
 17 18  1  0
 18 19  1  0
 19 20  2  0
 20 21  1  0
 22 23  1  0
 22 37  1  0
 23 24  1  0
 24 25  1  0
 24 36  1  0
 25 26  2  0
 25 27  1  0
 27 28  1  0
 28 29  2  0
 28 34  1  0
 29 30  1  0
 30 31  1  0
 30 32  2  0
 32 33  1  0
 33 34  2  0
 34 35  1  0
 36 37  1  0
 37 38  1  6
 38 39  1  0
M  END
