
     RDKit          3D

 39 41  0  0  0  0  0  0  0  0999 V2000
   -7.8660    4.5930    0.6910 C   0  0  0  0  0  0  0  0  0  0  0  0
   -7.5200    3.1730    0.2600 C   0  0  0  0  0  0  0  0  0  0  0  0
   -5.7550    2.9610    0.4810 S   0  0  0  0  0  0  0  0  0  0  0  0
   -5.2120    1.3240   -0.0080 C   0  0  0  0  0  0  0  0  0  0  0  0
   -3.9190    1.0800    0.0930 C   0  0  0  0  0  0  0  0  0  0  0  0
   -2.9840    2.1170    0.5860 C   0  0  0  0  0  0  0  0  0  0  0  0
   -3.4470    3.2350    0.9180 O   0  0  0  0  0  0  0  0  0  0  0  0
   -1.6380    1.7980    0.6570 O   0  0  0  0  0  0  0  0  0  0  0  0
   -1.0960    0.8650   -0.2520 C   0  0  1  0  0  0  0  0  0  0  0  0
   -1.2490    1.3800   -1.6820 C   0  0  0  0  0  0  0  0  0  0  0  0
    0.3520    0.6370    0.0410 C   0  0  0  0  0  0  0  0  0  0  0  0
    0.8690    1.2630    0.9800 O   0  0  0  0  0  0  0  0  0  0  0  0
    1.0520   -0.2670   -0.7560 N   0  0  0  0  0  0  0  0  0  0  0  0
    2.4150   -0.5740   -0.5960 C   0  0  0  0  0  0  0  0  0  0  0  0
    3.1570   -0.1410    0.4660 C   0  0  0  0  0  0  0  0  0  0  0  0
    4.5290   -0.4670    0.5510 C   0  0  0  0  0  0  0  0  0  0  0  0
    5.1470   -1.2070   -0.4000 C   0  0  0  0  0  0  0  0  0  0  0  0
    6.4910   -1.5490   -0.3950 N   0  0  0  0  0  0  0  0  0  0  0  0
    7.3690   -1.2240    0.6660 C   0  0  0  0  0  0  0  0  0  0  0  0
    7.0360   -0.6170    1.7020 O   0  0  0  0  0  0  0  0  0  0  0  0
    8.7640   -1.5930    0.6060 N   0  0  0  0  0  0  0  0  0  0  0  0
    9.6690   -1.2740    1.6640 C   0  0  0  0  0  0  0  0  0  0  0  0
    9.8080    0.1910    1.8940 C   0  0  0  0  0  0  0  0  0  0  0  0
   10.3230    0.8340    0.6190 C   0  0  2  0  0  0  0  0  0  0  0  0
    9.4620    0.6220   -0.4240 F   0  0  0  0  0  0  0  0  0  0  0  0
   11.5700    0.3730    0.2670 F   0  0  0  0  0  0  0  0  0  0  0  0
    4.3750   -1.6360   -1.4670 C   0  0  0  0  0  0  0  0  0  0  0  0
    4.9350   -2.3880   -2.4670 F   0  0  0  0  0  0  0  0  0  0  0  0
    3.0500   -1.3410   -1.5830 C   0  0  0  0  0  0  0  0  0  0  0  0
   -1.9080   -0.3730   -0.1490 C   0  0  0  0  0  0  0  0  0  0  0  0
   -1.4330   -1.5150    0.0260 O   0  0  0  0  0  0  0  0  0  0  0  0
   -3.3260   -0.1690   -0.2670 N   0  0  0  0  0  0  0  0  0  0  0  0
   -4.1610   -1.2380   -0.7390 C   0  0  0  0  0  0  0  0  0  0  0  0
   -5.5640   -1.0750   -0.1990 C   0  0  2  0  0  0  0  0  0  0  0  0
   -5.5360   -1.3610    1.2790 C   0  0  0  0  0  0  0  0  0  0  0  0
   -6.3880   -2.1620   -0.9040 C   0  0  0  0  0  0  0  0  0  0  0  0
   -5.7750   -3.4650   -0.5360 C   0  0  0  0  0  0  0  0  0  0  0  0
   -5.9580   -3.9860    0.5580 O   0  0  0  0  0  0  0  0  0  0  0  0
   -6.1160    0.2930   -0.5090 C   0  0  0  0  0  0  0  0  0  0  0  0
  1  2  1  0
  2  3  1  0
  3  4  1  0
  4  5  2  0
  4 39  1  0
  5  6  1  0
  5 32  1  0
  6  7  2  0
  6  8  1  0
  8  9  1  0
  9 10  1  6
  9 11  1  0
  9 30  1  0
 11 12  2  0
 11 13  1  0
 13 14  1  0
 14 15  2  0
 14 29  1  0
 15 16  1  0
 16 17  2  0
 17 18  1  0
 17 27  1  0
 18 19  1  0
 19 20  2  0
 19 21  1  0
 21 22  1  0
 22 23  1  0
 23 24  1  0
 24 25  1  6
 24 26  1  0
 27 28  1  0
 27 29  2  0
 30 31  2  0
 30 32  1  0
 32 33  1  0
 33 34  1  0
 34 35  1  1
 34 36  1  0
 34 39  1  0
 36 37  1  0
 37 38  2  0
M  END
