
     RDKit          3D

 32 34  0  0  0  0  0  0  0  0999 V2000
    9.0450    4.3980    0.6610 C   0  0  0  0  0  0  0  0  0  0  0  0
    7.9860    4.1050   -0.2830 N   0  0  0  0  0  0  0  0  0  0  0  0
    7.1550    2.9560   -0.0030 C   0  0  0  0  0  0  0  0  0  0  0  0
    7.3780    2.2750    1.0220 O   0  0  0  0  0  0  0  0  0  0  0  0
    6.1170    2.6240   -0.8780 N   0  0  0  0  0  0  0  0  0  0  0  0
    5.2660    1.5120   -0.6640 C   0  0  0  0  0  0  0  0  0  0  0  0
    4.2440    1.1640   -1.5010 N   0  0  0  0  0  0  0  0  0  0  0  0
    3.6200    0.0690   -1.0370 C   0  0  0  0  0  0  0  0  0  0  0  0
    2.5630   -0.6910   -1.4670 C   0  0  0  0  0  0  0  0  0  0  0  0
    2.1100   -1.8250   -0.7600 C   0  0  0  0  0  0  0  0  0  0  0  0
    1.0460   -2.5150   -1.2780 O   0  0  0  0  0  0  0  0  0  0  0  0
    0.4760   -3.6320   -0.7080 C   0  0  2  0  0  0  0  0  0  0  0  0
    0.8320   -4.8320   -1.6040 C   0  0  0  0  0  0  0  0  0  0  0  0
   -1.0100   -3.5310   -0.5860 C   0  0  0  0  0  0  0  0  0  0  0  0
   -1.6430   -4.4970   -0.0890 O   0  0  0  0  0  0  0  0  0  0  0  0
   -1.7630   -2.4100   -0.9960 N   0  0  0  0  0  0  0  0  0  0  0  0
   -3.1880   -2.3850   -0.8510 C   0  0  2  0  0  0  0  0  0  0  0  0
   -3.8910   -2.2410   -2.1940 C   0  0  0  0  0  0  0  0  0  0  0  0
   -3.6270   -1.2280   -0.0270 C   0  0  0  0  0  0  0  0  0  0  0  0
   -2.8050   -0.4030    0.4640 O   0  0  0  0  0  0  0  0  0  0  0  0
   -5.0080   -0.9860    0.2540 N   0  0  0  0  0  0  0  0  0  0  0  0
   -5.3960    0.1270    1.0430 N   0  0  0  0  0  0  0  0  0  0  0  0
   -6.3110    1.0930    0.5570 C   0  0  0  0  0  0  0  0  0  0  0  0
   -6.7490    0.8750   -0.6250 O   0  0  0  0  0  0  0  0  0  0  0  0
   -6.7760    2.2770    1.2820 C   0  0  1  0  0  0  0  0  0  0  0  0
   -7.0440    2.0340    2.7630 C   0  0  0  0  0  0  0  0  0  0  0  0
   -5.9590    2.9910    2.2930 C   0  0  1  0  0  0  0  0  0  0  0  0
   -4.5210    2.6980    2.5310 C   0  0  0  0  0  0  0  0  0  0  0  0
    2.7670   -2.1630    0.4000 C   0  0  0  0  0  0  0  0  0  0  0  0
    3.8370   -1.4060    0.8490 C   0  0  0  0  0  0  0  0  0  0  0  0
    4.2500   -0.3070    0.1310 C   0  0  0  0  0  0  0  0  0  0  0  0
    5.2420    0.6010    0.3150 N   0  0  0  0  0  0  0  0  0  0  0  0
  1  2  1  0
  2  3  1  0
  3  4  2  0
  3  5  1  0
  5  6  1  0
  6  7  2  0
  6 32  1  0
  7  8  1  0
  8  9  2  0
  8 31  1  0
  9 10  1  0
 10 11  1  0
 10 29  2  0
 11 12  1  0
 12 13  1  6
 12 14  1  0
 14 15  2  0
 14 16  1  0
 16 17  1  0
 17 18  1  6
 17 19  1  0
 19 20  2  0
 19 21  1  0
 21 22  1  0
 22 23  1  0
 23 24  2  0
 25 23  1  6
 25 26  1  0
 25 27  1  0
 26 27  1  0
 27 28  1  6
 29 30  1  0
 30 31  2  0
 31 32  1  0
M  END
