
     RDKit          3D

 32 36  0  0  0  0  0  0  0  0999 V2000
    0.3380   -1.4290    3.2920 C   0  0  0  0  0  0  0  0  0  0  0  0
    1.0170   -2.2430    2.2170 C   0  0  0  0  0  0  0  0  0  0  0  0
    0.9740   -1.6240    0.9130 N   0  0  0  0  0  0  0  0  0  0  0  0
   -0.0870   -1.8870    0.0430 C   0  0  0  0  0  0  0  0  0  0  0  0
   -0.9660   -2.7220    0.4520 O   0  0  0  0  0  0  0  0  0  0  0  0
   -0.3220   -1.3390   -1.2680 C   0  0  0  0  0  0  0  0  0  0  0  0
    0.2290   -1.9590   -2.3720 C   0  0  0  0  0  0  0  0  0  0  0  0
    1.0700   -3.1640   -2.1420 C   0  0  0  0  0  0  0  0  0  0  0  0
   -0.0200   -1.4420   -3.6120 C   0  0  0  0  0  0  0  0  0  0  0  0
   -0.8070   -0.3210   -3.7820 C   0  0  0  0  0  0  0  0  0  0  0  0
   -1.3720    0.3210   -2.7070 C   0  0  0  0  0  0  0  0  0  0  0  0
   -2.1680    1.3940   -2.5510 N   0  0  0  0  0  0  0  0  0  0  0  0
   -2.4270    1.5690   -1.2560 C   0  0  0  0  0  0  0  0  0  0  0  0
   -1.7720    0.5670   -0.5380 C   0  0  0  0  0  0  0  0  0  0  0  0
   -1.1070   -0.2220   -1.4400 C   0  0  0  0  0  0  0  0  0  0  0  0
   -1.9430    0.5940    0.9180 C   0  0  0  0  0  0  0  0  0  0  0  0
   -3.4640    0.5630    1.1560 C   0  0  1  0  0  0  0  0  0  0  0  0
   -3.7660    0.6300    2.6300 C   0  0  0  0  0  0  0  0  0  0  0  0
   -4.1520    1.7020    0.4490 C   0  0  0  0  0  0  0  0  0  0  0  0
   -3.2050    2.5200   -0.4030 C   0  0  0  0  0  0  0  0  0  0  0  0
    2.0790   -0.7640    0.5980 C   0  0  0  0  0  0  0  0  0  0  0  0
    3.3680   -1.3110    0.5360 C   0  0  0  0  0  0  0  0  0  0  0  0
    4.4030   -0.4700    0.2330 C   0  0  0  0  0  0  0  0  0  0  0  0
    6.0430   -1.1310    0.1480 Cl  0  0  0  0  0  0  0  0  0  0  0  0
    4.2050    0.8780   -0.0100 C   0  0  0  0  0  0  0  0  0  0  0  0
    2.9320    1.3860    0.0570 C   0  0  0  0  0  0  0  0  0  0  0  0
    1.8480    0.5660    0.3640 C   0  0  0  0  0  0  0  0  0  0  0  0
    2.9700    2.8210   -0.2360 C   0  0  0  0  0  0  0  0  0  0  0  0
    1.9830    3.5730   -0.2570 O   0  0  0  0  0  0  0  0  0  0  0  0
    4.3630    3.1470   -0.4870 C   0  0  0  0  0  0  0  0  0  0  0  0
    4.8210    4.2790   -0.7750 O   0  0  0  0  0  0  0  0  0  0  0  0
    5.0930    1.9400   -0.3410 N   0  0  0  0  0  0  0  0  0  0  0  0
  1  2  1  0
  2  3  1  0
  3  4  1  0
  3 21  1  0
  4  5  2  0
  4  6  1  0
  6  7  2  0
  6 15  1  0
  7  8  1  0
  7  9  1  0
  9 10  2  0
 10 11  1  0
 11 12  1  0
 11 15  2  0
 12 13  1  0
 13 14  2  0
 13 20  1  0
 14 15  1  0
 14 16  1  0
 16 17  1  0
 17 18  1  1
 17 19  1  0
 19 20  1  0
 21 22  2  0
 21 27  1  0
 22 23  1  0
 23 24  1  0
 23 25  2  0
 25 26  1  0
 25 32  1  0
 26 27  2  0
 26 28  1  0
 28 29  2  0
 28 30  1  0
 30 31  2  0
 30 32  1  0
M  END
