
     RDKit          3D

 32 34  0  0  0  0  0  0  0  0999 V2000
   -4.2280    3.0210   -1.6090 C   0  0  0  0  0  0  0  0  0  0  0  0
   -4.7890    2.0350   -0.7400 O   0  0  0  0  0  0  0  0  0  0  0  0
   -5.5820    2.3860    0.3330 C   0  0  0  0  0  0  0  0  0  0  0  0
   -5.8190    3.6030    0.5570 O   0  0  0  0  0  0  0  0  0  0  0  0
   -6.1380    1.3850    1.1940 C   0  0  0  0  0  0  0  0  0  0  0  0
   -6.0050    0.0890    1.1180 C   0  0  0  0  0  0  0  0  0  0  0  0
   -6.6830   -0.7610    2.1340 C   0  0  0  0  0  0  0  0  0  0  0  0
   -7.7170   -1.6400    1.4190 C   0  0  0  0  0  0  0  0  0  0  0  0
   -7.2780   -1.8850   -0.0160 C   0  0  0  0  0  0  0  0  0  0  0  0
   -5.7730   -2.0270    0.0300 C   0  0  0  0  0  0  0  0  0  0  0  0
   -5.2200   -0.5770    0.0910 C   0  0  2  0  0  0  0  0  0  0  0  0
   -3.7920   -0.6580    0.3640 N   0  0  0  0  0  0  0  0  0  0  0  0
   -2.8170   -0.8840   -0.6360 C   0  0  0  0  0  0  0  0  0  0  0  0
   -3.2210   -1.0160   -1.8190 O   0  0  0  0  0  0  0  0  0  0  0  0
   -1.4380   -0.9760   -0.3960 N   0  0  0  0  0  0  0  0  0  0  0  0
   -0.4500   -1.2450   -1.3450 N   0  0  0  0  0  0  0  0  0  0  0  0
    0.9180   -0.9970   -1.1880 C   0  0  0  0  0  0  0  0  0  0  0  0
    1.3140   -0.4710   -0.1110 O   0  0  0  0  0  0  0  0  0  0  0  0
    1.8760   -1.3090   -2.1660 N   0  0  0  0  0  0  0  0  0  0  0  0
    3.2760   -1.0620   -1.9900 C   0  0  0  0  0  0  0  0  0  0  0  0
    4.0980   -1.4770   -3.0310 C   0  0  0  0  0  0  0  0  0  0  0  0
    5.4550   -1.2970   -2.9600 C   0  0  0  0  0  0  0  0  0  0  0  0
    5.9770   -0.6890   -1.8160 C   0  0  0  0  0  0  0  0  0  0  0  0
    7.4050   -0.5050   -1.7740 N   0  0  0  0  0  0  0  0  0  0  0  0
    5.1380   -0.2930   -0.8120 C   0  0  0  0  0  0  0  0  0  0  0  0
    5.6300    0.3090    0.3140 O   0  0  0  0  0  0  0  0  0  0  0  0
    6.8710    0.5930    0.7910 C   0  0  2  0  0  0  0  0  0  0  0  0
    6.8440    0.5440    2.3040 C   0  0  0  0  0  0  0  0  0  0  0  0
    6.8400    1.9880    2.7540 C   0  0  0  0  0  0  0  0  0  0  0  0
    6.5090    2.7540    1.5420 N   0  0  0  0  0  0  0  0  0  0  0  0
    7.2670    2.0680    0.5460 C   0  0  0  0  0  0  0  0  0  0  0  0
    3.7840   -0.4930   -0.9240 N   0  0  0  0  0  0  0  0  0  0  0  0
  1  2  1  0
  2  3  1  0
  3  4  2  0
  3  5  1  0
  5  6  2  3
  6  7  1  0
  6 11  1  0
  7  8  1  0
  8  9  1  0
  9 10  1  0
 10 11  1  0
 11 12  1  1
 12 13  1  0
 13 14  2  0
 13 15  1  0
 15 16  1  0
 16 17  1  0
 17 18  2  0
 17 19  1  0
 19 20  1  0
 20 21  2  0
 20 32  1  0
 21 22  1  0
 22 23  2  0
 23 24  1  0
 23 25  1  0
 25 26  1  0
 25 32  2  0
 27 26  1  6
 27 28  1  0
 27 31  1  0
 28 29  1  0
 29 30  1  0
 30 31  1  0
M  END
