
     RDKit          3D

 31 35  0  0  0  0  0  0  0  0999 V2000
   -4.7360    3.7350    0.0870 C   0  0  0  0  0  0  0  0  0  0  0  0
   -4.2280    2.3720    0.4290 C   0  0  0  0  0  0  0  0  0  0  0  0
   -3.9590    2.0050    1.7220 C   0  0  0  0  0  0  0  0  0  0  0  0
   -3.4920    0.7480    2.0250 C   0  0  0  0  0  0  0  0  0  0  0  0
   -3.2760   -0.2000    1.0270 C   0  0  0  0  0  0  0  0  0  0  0  0
   -2.7810   -1.5520    1.3820 C   0  0  0  0  0  0  0  0  0  0  0  0
   -1.2960   -1.5460    1.5660 C   0  0  0  0  0  0  0  0  0  0  0  0
   -0.7650   -1.5550    2.8420 C   0  0  0  0  0  0  0  0  0  0  0  0
    0.5620   -1.5440    3.0050 N   0  0  0  0  0  0  0  0  0  0  0  0
    1.4290   -1.5240    1.9580 C   0  0  0  0  0  0  0  0  0  0  0  0
    0.9270   -1.5140    0.6910 C   0  0  0  0  0  0  0  0  0  0  0  0
   -0.4770   -1.5260    0.4750 C   0  0  0  0  0  0  0  0  0  0  0  0
   -0.9200   -1.5180   -0.7020 O   0  0  0  0  0  0  0  0  0  0  0  0
    1.7890   -1.4890   -0.4910 C   0  0  1  0  0  0  0  0  0  0  0  0
    1.5360   -0.1780   -1.2130 C   0  0  0  0  0  0  0  0  0  0  0  0
    0.8980   -0.1220   -2.4320 C   0  0  0  0  0  0  0  0  0  0  0  0
    0.6580    1.0690   -3.0840 C   0  0  0  0  0  0  0  0  0  0  0  0
    1.0690    2.2420   -2.4960 C   0  0  0  0  0  0  0  0  0  0  0  0
    1.7060    2.1740   -1.2790 C   0  0  0  0  0  0  0  0  0  0  0  0
    1.9170    0.9920   -0.6840 N   0  0  0  0  0  0  0  0  0  0  0  0
    3.2230   -1.4830   -0.1750 C   0  0  0  0  0  0  0  0  0  0  0  0
    3.6770   -1.4940    1.1090 C   0  0  0  0  0  0  0  0  0  0  0  0
    5.0240   -1.4840    1.3070 N   0  0  0  0  0  0  0  0  0  0  0  0
    5.9130   -1.4650    0.3050 C   0  0  0  0  0  0  0  0  0  0  0  0
    5.4850   -1.4550   -1.0030 C   0  0  0  0  0  0  0  0  0  0  0  0
    4.1450   -1.4630   -1.2580 C   0  0  0  0  0  0  0  0  0  0  0  0
    3.6650   -1.4550   -2.4300 O   0  0  0  0  0  0  0  0  0  0  0  0
    2.8040   -1.5130    2.1880 O   0  0  0  0  0  0  0  0  0  0  0  0
   -3.5430    0.1570   -0.2650 C   0  0  0  0  0  0  0  0  0  0  0  0
   -4.0110    1.4250   -0.5470 C   0  0  0  0  0  0  0  0  0  0  0  0
   -4.3590    1.9000   -2.2060 Cl  0  0  0  0  0  0  0  0  0  0  0  0
  1  2  1  0
  2  3  2  0
  2 30  1  0
  3  4  1  0
  4  5  2  0
  5  6  1  0
  5 29  1  0
  6  7  1  0
  7  8  2  0
  7 12  1  0
  8  9  1  0
  9 10  1  0
 10 11  2  0
 10 28  1  0
 11 12  1  0
 11 14  1  0
 12 13  2  0
 14 15  1  1
 14 21  1  0
 15 16  2  0
 15 20  1  0
 16 17  1  0
 17 18  2  0
 18 19  1  0
 19 20  2  0
 21 22  2  0
 21 26  1  0
 22 23  1  0
 22 28  1  0
 23 24  1  0
 24 25  2  0
 25 26  1  0
 26 27  2  0
 29 30  2  0
 30 31  1  0
M  END
