
     RDKit          3D

 32 34  0  0  0  0  0  0  0  0999 V2000
   -2.3290   -3.0060   -1.7260 C   0  0  0  0  0  0  0  0  0  0  0  0
   -2.6020   -1.6670   -2.1580 O   0  0  0  0  0  0  0  0  0  0  0  0
   -3.2600   -0.7650   -1.3710 C   0  0  0  0  0  0  0  0  0  0  0  0
   -4.6700   -0.8740   -1.4080 C   0  0  0  0  0  0  0  0  0  0  0  0
   -5.3110   -1.8420   -2.2060 N   0  0  0  0  0  0  0  0  0  0  0  0
   -5.4440   -0.0260   -0.6570 C   0  0  0  0  0  0  0  0  0  0  0  0
   -4.8250    0.9310    0.1320 C   0  0  0  0  0  0  0  0  0  0  0  0
   -5.6380    1.8070    0.9090 N   0  0  0  0  0  0  0  0  0  0  0  0
   -6.5040    1.4260    1.8590 C   0  0  0  0  0  0  0  0  0  0  0  0
   -7.0940    2.5370    2.3780 N   0  0  0  0  0  0  0  0  0  0  0  0
   -6.5940    3.5810    1.7540 N   0  0  0  0  0  0  0  0  0  0  0  0
   -5.7030    3.1400    0.8550 C   0  0  0  0  0  0  0  0  0  0  0  0
   -4.9880    3.8080    0.0380 O   0  0  0  0  0  0  0  0  0  0  0  0
   -3.4740    0.9980    0.1330 C   0  0  0  0  0  0  0  0  0  0  0  0
   -2.6130    0.1550   -0.6180 C   0  0  0  0  0  0  0  0  0  0  0  0
   -1.1780    0.4490   -0.5590 C   0  0  1  0  0  0  0  0  0  0  0  0
   -0.8250    1.2470    0.7030 C   0  0  0  0  0  0  0  0  0  0  0  0
    0.6590    0.9530    0.9990 C   0  0  0  0  0  0  0  0  0  0  0  0
    0.8730   -0.3910    1.2960 O   0  0  0  0  0  0  0  0  0  0  0  0
    0.3820   -1.2580    0.3680 C   0  0  2  0  0  0  0  0  0  0  0  0
    1.3370   -2.3390   -0.0070 C   0  0  0  0  0  0  0  0  0  0  0  0
    2.5760   -1.9540   -0.5780 N   0  0  0  0  0  0  0  0  0  0  0  0
    3.5310   -1.1770    0.1080 C   0  0  0  0  0  0  0  0  0  0  0  0
    3.3860   -0.7680    1.2750 O   0  0  0  0  0  0  0  0  0  0  0  0
    4.7750   -0.7950   -0.5150 N   0  0  0  0  0  0  0  0  0  0  0  0
    5.7670   -0.0120    0.1450 C   0  0  2  0  0  0  0  0  0  0  0  0
    6.9770    0.2480   -0.7220 C   0  0  0  0  0  0  0  0  0  0  0  0
    6.2600   -0.6030    1.4380 C   0  0  0  0  0  0  0  0  0  0  0  0
    5.1890    1.3340    0.4620 C   0  0  0  0  0  0  0  0  0  0  0  0
    5.9840    2.2860    1.1180 N   0  0  0  0  0  0  0  0  0  0  0  0
    4.0090    1.6300    0.1550 O   0  0  0  0  0  0  0  0  0  0  0  0
   -0.1640   -0.5550   -0.8580 C   0  0  0  0  0  0  0  0  0  0  0  0
  1  2  1  0
  2  3  1  0
  3  4  2  0
  3 15  1  0
  4  5  1  0
  4  6  1  0
  6  7  2  0
  7  8  1  0
  7 14  1  0
  8  9  1  0
  8 12  1  0
  9 10  2  0
 10 11  1  0
 11 12  1  0
 12 13  2  0
 14 15  2  0
 16 15  1  1
 16 17  1  0
 16 32  1  0
 17 18  1  0
 18 19  1  0
 19 20  1  0
 20 21  1  6
 20 32  1  0
 21 22  1  0
 22 23  1  0
 23 24  2  0
 23 25  1  0
 25 26  1  0
 26 27  1  6
 26 28  1  0
 26 29  1  0
 29 30  1  0
 29 31  2  0
M  END
