
     RDKit          3D

 32 36  0  0  0  0  0  0  0  0999 V2000
    3.3770   -4.6500   -0.1310 C   0  0  0  0  0  0  0  0  0  0  0  0
    3.6650   -3.2140   -0.1260 C   0  0  0  0  0  0  0  0  0  0  0  0
    4.8620   -2.8120   -0.2050 O   0  0  0  0  0  0  0  0  0  0  0  0
    2.6050   -2.2450   -0.0310 C   0  0  0  0  0  0  0  0  0  0  0  0
    1.3170   -2.6860    0.0770 C   0  0  0  0  0  0  0  0  0  0  0  0
    0.2680   -1.8070    0.1820 C   0  0  0  0  0  0  0  0  0  0  0  0
    0.5120   -0.4510    0.1780 C   0  0  0  0  0  0  0  0  0  0  0  0
   -0.6000    0.4600    0.2990 N   0  0  0  0  0  0  0  0  0  0  0  0
   -0.3790    1.5320    1.1970 C   0  0  0  0  0  0  0  0  0  0  0  0
   -1.4310    2.5840    1.2700 C   0  0  0  0  0  0  0  0  0  0  0  0
   -2.7580    2.1700    1.5660 N   0  0  0  0  0  0  0  0  0  0  0  0
   -3.5840    1.3080    0.7890 C   0  0  0  0  0  0  0  0  0  0  0  0
   -4.9500    1.4540    1.0340 C   0  0  0  0  0  0  0  0  0  0  0  0
   -5.8180    0.6470    0.3220 C   0  0  0  0  0  0  0  0  0  0  0  0
   -5.3730   -0.2930   -0.6160 C   0  0  0  0  0  0  0  0  0  0  0  0
   -4.0180   -0.4040   -0.8280 C   0  0  0  0  0  0  0  0  0  0  0  0
   -3.1150    0.3920   -0.1290 C   0  0  0  0  0  0  0  0  0  0  0  0
   -1.7220    0.0810   -0.5170 C   0  0  0  0  0  0  0  0  0  0  0  0
   -1.5330   -0.5290   -1.5870 O   0  0  0  0  0  0  0  0  0  0  0  0
   -6.5760   -0.9640   -1.1650 C   0  0  0  0  0  0  0  0  0  0  0  0
   -7.6520   -0.0470   -0.8760 N   0  0  0  0  0  0  0  0  0  0  0  0
   -7.3040    0.5670    0.3680 C   0  0  0  0  0  0  0  0  0  0  0  0
    1.8180   -0.0280    0.0670 C   0  0  0  0  0  0  0  0  0  0  0  0
    2.9160   -0.8540   -0.0400 C   0  0  0  0  0  0  0  0  0  0  0  0
    4.1980   -0.5370   -0.1470 O   0  0  0  0  0  0  0  0  0  0  0  0
    5.0540    0.4610   -0.1660 C   0  0  0  0  0  0  0  0  0  0  0  0
    6.3770    0.1440   -0.5620 C   0  0  0  0  0  0  0  0  0  0  0  0
    7.3710    1.0760   -0.6280 C   0  0  0  0  0  0  0  0  0  0  0  0
    7.1240    2.3850   -0.3070 C   0  0  0  0  0  0  0  0  0  0  0  0
    8.4340    3.5640   -0.4050 Cl  0  0  0  0  0  0  0  0  0  0  0  0
    5.8610    2.7540    0.0840 C   0  0  0  0  0  0  0  0  0  0  0  0
    4.8480    1.7970    0.1500 C   0  0  0  0  0  0  0  0  0  0  0  0
  1  2  1  0
  2  3  2  0
  2  4  1  0
  4  5  2  0
  4 24  1  0
  5  6  1  0
  6  7  2  0
  7  8  1  0
  7 23  1  0
  8  9  1  0
  8 18  1  0
  9 10  1  0
 10 11  1  0
 11 12  1  0
 12 13  2  0
 12 17  1  0
 13 14  1  0
 14 15  2  0
 14 22  1  0
 15 16  1  0
 15 20  1  0
 16 17  2  0
 17 18  1  0
 18 19  2  0
 20 21  1  0
 21 22  1  0
 23 24  2  0
 24 25  1  0
 25 26  1  0
 26 27  2  0
 26 32  1  0
 27 28  1  0
 28 29  2  0
 29 30  1  0
 29 31  1  0
 31 32  2  0
M  END
