
     RDKit          3D

 32 36  0  0  0  0  0  0  0  0999 V2000
   -0.3400    0.4890    2.3210 C   0  0  0  0  0  0  0  0  0  0  0  0
    0.4280    0.3500    1.0540 C   0  0  0  0  0  0  0  0  0  0  0  0
    1.6650    0.6680    1.0520 N   0  0  0  0  0  0  0  0  0  0  0  0
    2.4970    0.5770   -0.1010 N   0  0  0  0  0  0  0  0  0  0  0  0
    3.8720    0.9370   -0.0060 C   0  0  0  0  0  0  0  0  0  0  0  0
    4.2900    2.1780    0.2860 C   0  0  0  0  0  0  0  0  0  0  0  0
    5.6420    2.4640    0.3690 C   0  0  0  0  0  0  0  0  0  0  0  0
    6.1030    3.7430    0.6760 C   0  0  0  0  0  0  0  0  0  0  0  0
    4.9050    4.9780    0.9450 Cl  0  0  0  0  0  0  0  0  0  0  0  0
    7.4550    4.0390    0.7650 C   0  0  0  0  0  0  0  0  0  0  0  0
    8.3770    3.0490    0.5460 C   0  0  0  0  0  0  0  0  0  0  0  0
    7.9600    1.7730    0.2420 C   0  0  0  0  0  0  0  0  0  0  0  0
    6.5910    1.4910    0.1540 C   0  0  0  0  0  0  0  0  0  0  0  0
    6.1830    0.2270   -0.1440 C   0  0  0  0  0  0  0  0  0  0  0  0
    4.8040   -0.0840   -0.2310 C   0  0  0  0  0  0  0  0  0  0  0  0
    4.4850   -1.3140   -0.5180 O   0  0  0  0  0  0  0  0  0  0  0  0
    1.9150    0.1160   -1.2940 C   0  0  0  0  0  0  0  0  0  0  0  0
    2.6240    0.0220   -2.3430 O   0  0  0  0  0  0  0  0  0  0  0  0
    0.5330   -0.2410   -1.3080 N   0  0  0  0  0  0  0  0  0  0  0  0
   -0.2500   -0.1360   -0.1360 C   0  0  0  0  0  0  0  0  0  0  0  0
   -1.5470   -0.4850   -0.0950 C   0  0  0  0  0  0  0  0  0  0  0  0
   -2.2730   -0.9620   -1.2020 C   0  0  0  0  0  0  0  0  0  0  0  0
   -3.5170   -1.3350   -1.3200 C   0  0  0  0  0  0  0  0  0  0  0  0
   -4.0750   -1.8000   -2.5490 O   0  0  0  0  0  0  0  0  0  0  0  0
   -5.3780   -2.2310   -2.4050 C   0  0  0  0  0  0  0  0  0  0  0  0
   -5.7550   -1.8850   -1.0160 C   0  0  0  0  0  0  0  0  0  0  0  0
   -6.9740   -2.0140   -0.3810 C   0  0  0  0  0  0  0  0  0  0  0  0
   -8.1790   -2.5230   -1.0910 C   0  0  0  0  0  0  0  0  0  0  0  0
   -7.0690   -1.6510    0.9470 C   0  0  0  0  0  0  0  0  0  0  0  0
   -5.9580   -1.1750    1.5920 C   0  0  0  0  0  0  0  0  0  0  0  0
   -4.7590   -1.0560    0.9320 C   0  0  0  0  0  0  0  0  0  0  0  0
   -4.6290   -1.4060   -0.3830 C   0  0  0  0  0  0  0  0  0  0  0  0
  1  2  1  0
  2  3  2  0
  2 20  1  0
  3  4  1  0
  4  5  1  0
  4 17  1  0
  5  6  2  0
  5 15  1  0
  6  7  1  0
  7  8  2  0
  7 13  1  0
  8  9  1  0
  8 10  1  0
 10 11  2  0
 11 12  1  0
 12 13  2  0
 13 14  1  0
 14 15  2  0
 15 16  1  0
 17 18  2  0
 17 19  1  0
 19 20  1  0
 20 21  2  3
 21 22  1  0
 22 23  2  3
 23 24  1  0
 23 32  1  0
 24 25  1  0
 25 26  1  0
 26 27  2  0
 26 32  1  0
 27 28  1  0
 27 29  1  0
 29 30  2  0
 30 31  1  0
 31 32  2  0
M  END
