
     RDKit          3D

 29 31  0  0  0  0  0  0  0  0999 V2000
    5.4130   -2.0640   -1.2310 C   0  0  0  0  0  0  0  0  0  0  0  0
    4.8670   -1.0370   -0.4620 O   0  0  0  0  0  0  0  0  0  0  0  0
    3.5460   -0.6790   -0.4460 C   0  0  0  0  0  0  0  0  0  0  0  0
    2.6350   -1.3730   -1.2500 C   0  0  0  0  0  0  0  0  0  0  0  0
    1.3070   -1.0240   -1.2460 C   0  0  0  0  0  0  0  0  0  0  0  0
    0.9470    0.0420   -0.4060 C   0  0  0  0  0  0  0  0  0  0  0  0
    1.7930    0.7350    0.3900 C   0  0  0  0  0  0  0  0  0  0  0  0
    1.3410    1.7540    1.1990 O   0  0  0  0  0  0  0  0  0  0  0  0
    0.9450    1.5280    2.5500 C   0  0  0  0  0  0  0  0  0  0  0  0
    3.1230    0.3690    0.3690 C   0  0  0  0  0  0  0  0  0  0  0  0
    4.0940    0.9980    1.1300 O   0  0  0  0  0  0  0  0  0  0  0  0
    4.4540    0.5890    2.4360 C   0  0  0  0  0  0  0  0  0  0  0  0
   -0.3970    0.5950   -0.3430 C   0  0  0  0  0  0  0  0  0  0  0  0
   -0.1270    1.9440   -0.2210 C   0  0  0  0  0  0  0  0  0  0  0  0
   -1.0170    2.8650    0.2710 C   0  0  0  0  0  0  0  0  0  0  0  0
   -2.3820    2.6990    0.5680 C   0  0  0  0  0  0  0  0  0  0  0  0
   -3.0230    3.7570    1.1760 O   0  0  0  0  0  0  0  0  0  0  0  0
   -2.3730    4.9710    1.5020 C   0  0  0  0  0  0  0  0  0  0  0  0
   -3.1930    1.6030    0.3350 C   0  0  0  0  0  0  0  0  0  0  0  0
   -4.4520    1.8100    0.4720 O   0  0  0  0  0  0  0  0  0  0  0  0
   -2.8180    0.3250   -0.0240 C   0  0  0  0  0  0  0  0  0  0  0  0
   -1.6010   -0.1020   -0.4260 C   0  0  0  0  0  0  0  0  0  0  0  0
   -1.7450   -1.4680   -0.9970 C   0  0  1  0  0  0  0  0  0  0  0  0
   -3.1200   -1.8470   -1.1640 N   0  0  0  0  0  0  0  0  0  0  0  0
   -3.6210   -2.9440   -0.4110 C   0  0  0  0  0  0  0  0  0  0  0  0
   -5.0320   -3.3850   -0.5390 C   0  0  0  0  0  0  0  0  0  0  0  0
   -2.8760   -3.5850    0.3980 O   0  0  0  0  0  0  0  0  0  0  0  0
   -0.9430   -1.5180   -2.2530 C   0  0  0  0  0  0  0  0  0  0  0  0
    0.4910   -1.8810   -2.1310 C   0  0  0  0  0  0  0  0  0  0  0  0
  1  2  1  0
  2  3  1  0
  3  4  2  0
  3 10  1  0
  4  5  1  0
  5  6  2  0
  5 29  1  0
  6  7  1  0
  6 13  1  0
  7  8  1  0
  7 10  2  0
  8  9  1  0
 10 11  1  0
 11 12  1  0
 13 14  2  0
 13 22  1  0
 14 15  1  0
 15 16  2  0
 16 17  1  0
 16 19  1  0
 17 18  1  0
 19 20  2  0
 19 21  1  0
 21 22  2  0
 22 23  1  0
 23 24  1  6
 23 28  1  0
 24 25  1  0
 25 26  1  0
 25 27  2  0
 28 29  1  0
M  END
