
     RDKit          3D

 31 33  0  0  0  0  0  0  0  0999 V2000
   -2.6590    4.5430    0.8690 C   0  0  0  0  0  0  0  0  0  0  0  0
   -2.9250    3.3470    0.0130 C   0  0  1  0  0  0  0  0  0  0  0  0
   -4.1360    2.6040    0.5090 C   0  0  0  0  0  0  0  0  0  0  0  0
   -3.2490    3.8350   -1.4010 C   0  0  0  0  0  0  0  0  0  0  0  0
   -1.7930    2.5060   -0.1080 O   0  0  0  0  0  0  0  0  0  0  0  0
   -1.2330    1.9400    1.0010 C   0  0  0  0  0  0  0  0  0  0  0  0
   -1.7110    2.1570    2.1240 O   0  0  0  0  0  0  0  0  0  0  0  0
   -0.0570    1.0710    0.8430 C   0  0  0  0  0  0  0  0  0  0  0  0
    0.5040    0.5100    1.8980 C   0  0  0  0  0  0  0  0  0  0  0  0
    1.6520   -0.3380    1.7450 C   0  0  0  0  0  0  0  0  0  0  0  0
    2.3000   -0.9550    2.7340 C   0  0  0  0  0  0  0  0  0  0  0  0
    1.8930   -0.8250    4.1050 C   0  0  0  0  0  0  0  0  0  0  0  0
    0.9530   -0.1800    4.6270 N   0  0  0  0  0  0  0  0  0  0  0  0
    3.0560   -1.8220    5.0170 S   0  0  0  0  0  0  0  0  0  0  0  0
    3.9830   -2.3380    3.5850 C   0  0  0  0  0  0  0  0  0  0  0  0
    3.4500   -1.8010    2.5390 C   0  0  0  0  0  0  0  0  0  0  0  0
    4.1470   -2.1630    1.2400 C   0  0  0  0  0  0  0  0  0  0  0  0
    5.6110   -2.1210    1.4310 C   0  0  0  0  0  0  0  0  0  0  0  0
    6.3300   -1.4810    0.6490 O   0  0  0  0  0  0  0  0  0  0  0  0
    6.1310   -2.8440    2.5400 N   0  0  0  0  0  0  0  0  0  0  0  0
    5.1740   -3.2350    3.5530 C   0  0  0  0  0  0  0  0  0  0  0  0
    0.4880    0.8200   -0.4040 O   0  0  0  0  0  0  0  0  0  0  0  0
   -0.1180    0.0970   -1.3900 C   0  0  0  0  0  0  0  0  0  0  0  0
    0.4120    0.2490   -2.5910 C   0  0  0  0  0  0  0  0  0  0  0  0
    0.0900   -0.3220   -3.9200 C   0  0  0  0  0  0  0  0  0  0  0  0
   -1.0440   -0.8290   -4.3790 C   0  0  0  0  0  0  0  0  0  0  0  0
   -0.9190   -1.2600   -5.6930 O   0  0  0  0  0  0  0  0  0  0  0  0
   -2.4060   -1.0460   -3.8300 C   0  0  0  0  0  0  0  0  0  0  0  0
   -2.4790   -2.0020   -2.6960 C   0  0  0  0  0  0  0  0  0  0  0  0
   -1.3430   -1.9830   -1.7360 C   0  0  0  0  0  0  0  0  0  0  0  0
   -1.2600   -0.7170   -0.8960 C   0  0  0  0  0  0  0  0  0  0  0  0
  2  1  1  1
  2  3  1  0
  2  4  1  0
  2  5  1  0
  5  6  1  0
  6  7  2  0
  6  8  1  0
  8  9  2  3
  8 22  1  0
  9 10  1  0
 10 11  2  3
 11 12  1  0
 11 16  1  0
 12 13  2  0
 12 14  1  0
 14 15  1  0
 15 16  2  0
 15 21  1  0
 16 17  1  0
 17 18  1  0
 18 19  2  0
 18 20  1  0
 20 21  1  0
 22 23  1  0
 23 24  2  0
 23 31  1  0
 24 25  1  0
 25 26  2  0
 26 27  1  0
 26 28  1  0
 28 29  1  0
 29 30  1  0
 30 31  1  0
M  END
