
     RDKit          3D

 30 32  0  0  0  0  0  0  0  0999 V2000
   -6.4630    2.6270    2.1190 C   0  0  0  0  0  0  0  0  0  0  0  0
   -5.7050    1.7690    1.1740 C   0  0  0  0  0  0  0  0  0  0  0  0
   -4.5130    1.1230    1.3990 C   0  0  0  0  0  0  0  0  0  0  0  0
   -4.1650    0.4270    0.2310 C   0  0  0  0  0  0  0  0  0  0  0  0
   -3.0100   -0.3620    0.0370 N   0  0  0  0  0  0  0  0  0  0  0  0
   -2.6930   -1.4300    0.9580 C   0  0  0  0  0  0  0  0  0  0  0  0
   -2.1560   -0.1220   -1.0540 C   0  0  0  0  0  0  0  0  0  0  0  0
   -2.5070    0.7910   -1.8830 O   0  0  0  0  0  0  0  0  0  0  0  0
   -0.9200   -0.8410   -1.2800 C   0  0  0  0  0  0  0  0  0  0  0  0
   -0.8520   -1.9950   -2.0090 C   0  0  0  0  0  0  0  0  0  0  0  0
   -2.1210   -2.5340   -2.5890 C   0  0  0  0  0  0  0  0  0  0  0  0
    0.2940   -2.6470   -2.2150 O   0  0  0  0  0  0  0  0  0  0  0  0
    1.4260   -2.1780   -1.7050 C   0  0  0  0  0  0  0  0  0  0  0  0
    2.4690   -2.8630   -1.9520 O   0  0  0  0  0  0  0  0  0  0  0  0
    1.4540   -1.0330   -0.9650 C   0  0  0  0  0  0  0  0  0  0  0  0
    2.7040   -0.5670   -0.4390 N   0  0  0  0  0  0  0  0  0  0  0  0
    3.1790   -0.9250    0.8140 C   0  0  0  0  0  0  0  0  0  0  0  0
    2.4270   -1.7160    1.5100 O   0  0  0  0  0  0  0  0  0  0  0  0
    4.4260   -0.4850    1.3860 C   0  0  0  0  0  0  0  0  0  0  0  0
    4.8840   -1.0230    3.0720 S   0  0  0  0  0  0  0  0  0  0  0  0
    6.4480   -0.1460    3.1040 C   0  0  0  0  0  0  0  0  0  0  0  0
    6.4960    0.4650    1.8710 C   0  0  0  0  0  0  0  0  0  0  0  0
    7.7180    1.3330    1.5260 C   0  0  0  0  0  0  0  0  0  0  0  0
    5.4800    0.2920    1.0110 C   0  0  0  0  0  0  0  0  0  0  0  0
    5.4680    0.9220   -0.3890 C   0  0  0  0  0  0  0  0  0  0  0  0
    0.2830   -0.3560   -0.7460 C   0  0  0  0  0  0  0  0  0  0  0  0
    0.2460    0.8820    0.0460 C   0  0  0  0  0  0  0  0  0  0  0  0
   -5.1910    0.7020   -0.6450 C   0  0  0  0  0  0  0  0  0  0  0  0
   -5.3610    0.2310   -2.0420 C   0  0  0  0  0  0  0  0  0  0  0  0
   -6.0620    1.4910   -0.0370 O   0  0  0  0  0  0  0  0  0  0  0  0
  1  2  1  0
  2  3  2  0
  2 30  1  0
  3  4  1  0
  4  5  1  0
  4 28  2  0
  5  6  1  0
  5  7  1  0
  7  8  2  0
  7  9  1  0
  9 10  2  0
  9 26  1  0
 10 11  1  0
 10 12  1  0
 12 13  1  0
 13 14  2  0
 13 15  1  0
 15 16  1  0
 15 26  2  0
 16 17  1  0
 17 18  2  0
 17 19  1  0
 19 20  1  0
 19 24  2  0
 20 21  1  0
 21 22  2  0
 22 23  1  0
 22 24  1  0
 24 25  1  0
 26 27  1  0
 28 29  1  0
 28 30  1  0
M  END
