
     RDKit          3D

 30 32  0  0  0  0  0  0  0  0999 V2000
    5.4070    2.9950   -1.2750 C   0  0  0  0  0  0  0  0  0  0  0  0
    6.1360    1.6740   -1.2410 C   0  0  0  0  0  0  0  0  0  0  0  0
    5.1950    0.5380   -0.9310 C   0  0  0  0  0  0  0  0  0  0  0  0
    3.9250    0.7450   -0.7300 C   0  0  0  0  0  0  0  0  0  0  0  0
    2.8890   -0.2160   -0.4250 C   0  0  0  0  0  0  0  0  0  0  0  0
    1.6010    0.2710   -0.2450 C   0  0  0  0  0  0  0  0  0  0  0  0
    1.3010    1.7400   -0.3560 C   0  0  0  0  0  0  0  0  0  0  0  0
    0.6330   -0.5480    0.0240 O   0  0  0  0  0  0  0  0  0  0  0  0
    0.7950   -1.8840    0.1470 C   0  0  0  0  0  0  0  0  0  0  0  0
   -0.2710   -2.7930    0.4460 C   0  0  0  0  0  0  0  0  0  0  0  0
   -1.6750   -2.4730    0.6760 C   0  0  0  0  0  0  0  0  0  0  0  0
   -2.3910   -3.4840    0.9650 O   0  0  0  0  0  0  0  0  0  0  0  0
   -2.2470   -1.1860    0.6000 N   0  0  0  0  0  0  0  0  0  0  0  0
   -3.6270   -1.0170    0.8630 C   0  0  0  0  0  0  0  0  0  0  0  0
   -4.2530   -2.0810    1.1980 O   0  0  0  0  0  0  0  0  0  0  0  0
   -4.3580    0.2320    0.7880 C   0  0  0  0  0  0  0  0  0  0  0  0
   -5.5790    0.3150    1.4620 C   0  0  0  0  0  0  0  0  0  0  0  0
   -6.1050   -0.8030    2.2850 C   0  0  0  0  0  0  0  0  0  0  0  0
   -6.2930    1.5010    1.3470 C   0  0  0  0  0  0  0  0  0  0  0  0
   -5.8300    2.5600    0.6050 C   0  0  0  0  0  0  0  0  0  0  0  0
   -4.6530    2.4290   -0.0230 N   0  0  0  0  0  0  0  0  0  0  0  0
   -3.9010    1.2910    0.0480 C   0  0  0  0  0  0  0  0  0  0  0  0
   -2.6960    1.2210   -0.6270 O   0  0  0  0  0  0  0  0  0  0  0  0
   -2.2110    2.3180   -1.4050 C   0  0  0  0  0  0  0  0  0  0  0  0
    0.5220   -4.3070    0.4770 S   0  0  0  0  0  0  0  0  0  0  0  0
    2.1420   -3.7920    0.1210 C   0  0  0  0  0  0  0  0  0  0  0  0
    3.3410   -4.6630    0.0030 C   0  0  0  0  0  0  0  0  0  0  0  0
    1.9970   -2.4240   -0.0110 C   0  0  0  0  0  0  0  0  0  0  0  0
    3.0790   -1.5610   -0.3060 C   0  0  0  0  0  0  0  0  0  0  0  0
    4.2290   -2.0350   -0.4620 O   0  0  0  0  0  0  0  0  0  0  0  0
  1  2  1  0
  2  3  1  0
  3  4  2  3
  4  5  1  0
  5  6  2  0
  5 29  1  0
  6  7  1  0
  6  8  1  0
  8  9  1  0
  9 10  2  0
  9 28  1  0
 10 11  1  0
 10 25  1  0
 11 12  2  0
 11 13  1  0
 13 14  1  0
 14 15  2  0
 14 16  1  0
 16 17  2  0
 16 22  1  0
 17 18  1  0
 17 19  1  0
 19 20  2  0
 20 21  1  0
 21 22  2  0
 22 23  1  0
 23 24  1  0
 25 26  1  0
 26 27  1  0
 26 28  2  0
 28 29  1  0
 29 30  2  0
M  END
