
     RDKit          3D

 29 30  0  0  0  0  0  0  0  0999 V2000
   -4.9870    1.9610   -2.2210 C   0  0  0  0  0  0  0  0  0  0  0  0
   -4.7110    1.5030   -0.8190 C   0  0  2  0  0  0  0  0  0  0  0  0
   -5.8240    1.9230    0.1210 C   0  0  0  0  0  0  0  0  0  0  0  0
   -3.3960    2.0960   -0.2820 C   0  0  0  0  0  0  0  0  0  0  0  0
   -3.0830    1.3040    0.9400 C   0  0  0  0  0  0  0  0  0  0  0  0
   -2.4400   -0.0730    0.6020 C   0  0  2  0  0  0  0  0  0  0  0  0
   -2.7290   -0.7680    1.7710 O   0  0  0  0  0  0  0  0  0  0  0  0
   -1.0280    0.1750    0.3020 C   0  0  1  0  0  0  0  0  0  0  0  0
   -0.5010    0.9520    1.3300 O   0  0  0  0  0  0  0  0  0  0  0  0
   -0.1260   -0.8480   -0.2380 C   0  0  1  0  0  0  0  0  0  0  0  0
    1.0150   -0.2240   -0.8190 N   0  0  0  0  0  0  0  0  0  0  0  0
    1.9330    0.5550   -0.1810 C   0  0  0  0  0  0  0  0  0  0  0  0
    2.9110    0.0750    0.8010 C   0  0  0  0  0  0  0  0  0  0  0  0
    3.9060   -0.9450    0.3140 C   0  0  0  0  0  0  0  0  0  0  0  0
    4.6410   -0.4480   -0.7230 O   0  0  0  0  0  0  0  0  0  0  0  0
    5.3820    0.6600   -0.4490 C   0  0  0  0  0  0  0  0  0  0  0  0
    6.1500    1.0210   -1.7310 C   0  0  0  0  0  0  0  0  0  0  0  0
    6.9270    2.1490   -1.5110 O   0  0  0  0  0  0  0  0  0  0  0  0
    0.3050   -1.9620    0.5940 C   0  0  0  0  0  0  0  0  0  0  0  0
    0.1970   -1.9790    1.9540 C   0  0  0  0  0  0  0  0  0  0  0  0
    0.6360   -3.0650    2.6760 C   0  0  0  0  0  0  0  0  0  0  0  0
    1.1920   -4.1530    2.0400 C   0  0  0  0  0  0  0  0  0  0  0  0
    1.7370   -5.5110    3.0060 Cl  0  0  0  0  0  0  0  0  0  0  0  0
    1.3230   -4.1800    0.6660 C   0  0  0  0  0  0  0  0  0  0  0  0
    0.8660   -3.0660   -0.0040 C   0  0  0  0  0  0  0  0  0  0  0  0
    1.0690   -3.1790   -1.7720 Cl  0  0  0  0  0  0  0  0  0  0  0  0
   -3.2720   -0.5170   -0.5440 C   0  0  0  0  0  0  0  0  0  0  0  0
   -2.8640   -1.4510   -1.2850 O   0  0  0  0  0  0  0  0  0  0  0  0
   -4.5090    0.1050   -0.7940 O   0  0  0  0  0  0  0  0  0  0  0  0
  2  1  1  6
  2  3  1  0
  2  4  1  0
  2 29  1  0
  4  5  1  0
  5  6  1  0
  6  7  1  1
  6  8  1  0
  6 27  1  0
  8  9  1  1
  8 10  1  0
 10 11  1  1
 10 19  1  0
 11 12  1  0
 12 13  1  0
 13 14  1  0
 14 15  1  0
 15 16  1  0
 16 17  1  0
 17 18  1  0
 19 20  2  0
 19 25  1  0
 20 21  1  0
 21 22  2  0
 22 23  1  0
 22 24  1  0
 24 25  2  0
 25 26  1  0
 27 28  2  0
 27 29  1  0
M  END
