
     RDKit          3D

 29 31  0  0  0  0  0  0  0  0999 V2000
    8.8590    0.6660    1.7870 C   0  0  0  0  0  0  0  0  0  0  0  0
    7.8910   -0.1360    1.4270 C   0  0  0  0  0  0  0  0  0  0  0  0
    7.7210   -0.5120    0.0090 C   0  0  0  0  0  0  0  0  0  0  0  0
    6.4050   -0.0690   -0.4050 N   0  0  0  0  0  0  0  0  0  0  0  0
    5.2140   -0.5360    0.2210 C   0  0  0  0  0  0  0  0  0  0  0  0
    5.2500   -1.3510    1.1580 O   0  0  0  0  0  0  0  0  0  0  0  0
    3.9160   -0.0300   -0.2670 C   0  0  0  0  0  0  0  0  0  0  0  0
    2.8120   -0.6530    0.5320 C   0  0  0  0  0  0  0  0  0  0  0  0
    1.4940   -0.1530    0.0520 C   0  0  0  0  0  0  0  0  0  0  0  0
    1.4360    0.6710   -0.8930 O   0  0  0  0  0  0  0  0  0  0  0  0
    0.3050   -0.5740    0.6250 O   0  0  0  0  0  0  0  0  0  0  0  0
   -0.8990   -0.0630    0.1240 C   0  0  0  0  0  0  0  0  0  0  0  0
   -1.4740   -0.7100   -0.8430 C   0  0  0  0  0  0  0  0  0  0  0  0
   -2.7460   -0.2790   -1.4540 C   0  0  1  0  0  0  0  0  0  0  0  0
   -3.6990   -1.4470   -1.3570 C   0  0  0  0  0  0  0  0  0  0  0  0
   -3.6620   -2.2770   -2.2320 O   0  0  0  0  0  0  0  0  0  0  0  0
   -4.6670   -1.6000   -0.2290 C   0  0  1  0  0  0  0  0  0  0  0  0
   -4.0580   -1.7050    0.9990 O   0  0  0  0  0  0  0  0  0  0  0  0
   -5.4510   -0.2900   -0.2530 C   0  0  0  0  0  0  0  0  0  0  0  0
   -6.7060    0.0090   -0.0000 C   0  0  0  0  0  0  0  0  0  0  0  0
   -7.6680   -0.9250    0.3830 O   0  0  0  0  0  0  0  0  0  0  0  0
   -6.9320    1.4470   -0.1830 C   0  0  0  0  0  0  0  0  0  0  0  0
   -5.6040    1.9600   -0.5920 C   0  0  0  0  0  0  0  0  0  0  0  0
   -5.2630    3.6370   -0.9560 Cl  0  0  0  0  0  0  0  0  0  0  0  0
   -4.7620    0.9100   -0.6190 C   0  0  0  0  0  0  0  0  0  0  0  0
   -3.3210    0.9490   -0.9420 C   0  0  1  0  0  0  0  0  0  0  0  0
   -2.6030    1.6050    0.1630 C   0  0  0  0  0  0  0  0  0  0  0  0
   -1.4920    1.1500    0.6570 C   0  0  0  0  0  0  0  0  0  0  0  0
   -0.6380    1.9510    1.9790 Cl  0  0  0  0  0  0  0  0  0  0  0  0
  1  2  2  0
  2  3  1  0
  3  4  1  0
  4  5  1  0
  5  6  2  0
  5  7  1  0
  7  8  1  0
  8  9  1  0
  9 10  2  0
  9 11  1  0
 11 12  1  0
 12 13  2  0
 12 28  1  0
 14 13  1  1
 14 15  1  0
 14 26  1  0
 15 16  2  0
 15 17  1  0
 17 18  1  1
 17 19  1  0
 19 20  2  0
 19 25  1  0
 20 21  1  0
 20 22  1  0
 22 23  1  0
 23 24  1  0
 23 25  2  0
 25 26  1  0
 26 27  1  1
 27 28  2  0
 28 29  1  0
M  END
