
     RDKit          3D

 32 34  0  0  0  0  0  0  0  0999 V2000
    8.0390    2.5420   -0.2360 C   0  0  0  0  0  0  0  0  0  0  0  0
    8.1670    1.2490   -0.2800 C   0  0  0  0  0  0  0  0  0  0  0  0
    8.3300   -0.2990   -0.3200 C   0  0  0  0  0  0  0  0  0  0  0  0
    6.8550   -0.6520   -0.3590 N   0  0  0  0  0  0  0  0  0  0  0  0
    6.1410   -0.3160    0.8180 C   0  0  0  0  0  0  0  0  0  0  0  0
    6.6840    0.0720    1.8680 O   0  0  0  0  0  0  0  0  0  0  0  0
    4.6900   -0.4650    0.7060 C   0  0  0  0  0  0  0  0  0  0  0  0
    4.0940    0.3970   -0.3190 C   0  0  0  0  0  0  0  0  0  0  0  0
    2.8420    0.3410   -0.7160 C   0  0  0  0  0  0  0  0  0  0  0  0
    1.9560   -0.6220   -0.1590 C   0  0  0  0  0  0  0  0  0  0  0  0
    0.7220   -0.7720   -0.7680 C   0  0  0  0  0  0  0  0  0  0  0  0
    0.9980   -1.3340   -2.0350 O   0  0  0  0  0  0  0  0  0  0  0  0
   -0.6520   -0.5600   -0.6420 C   0  0  0  0  0  0  0  0  0  0  0  0
   -1.6710   -1.1220   -1.4150 C   0  0  0  0  0  0  0  0  0  0  0  0
   -1.5790   -1.9880   -2.5850 C   0  0  0  0  0  0  0  0  0  0  0  0
   -1.2240   -3.3660   -2.2250 C   0  0  0  0  0  0  0  0  0  0  0  0
   -2.8270   -0.5800   -0.9490 C   0  0  0  0  0  0  0  0  0  0  0  0
   -2.6420    0.2840    0.0420 N   0  0  0  0  0  0  0  0  0  0  0  0
   -1.3080    0.3190    0.2490 C   0  0  0  0  0  0  0  0  0  0  0  0
   -0.5580    1.0350    1.2830 C   0  0  0  0  0  0  0  0  0  0  0  0
   -3.5030    1.1050    0.8600 C   0  0  0  0  0  0  0  0  0  0  0  0
   -3.0570    2.2890    1.0930 C   0  0  0  0  0  0  0  0  0  0  0  0
   -3.5030    3.4170    1.9070 C   0  0  0  0  0  0  0  0  0  0  0  0
   -1.9860    2.9560   -0.2610 Cl  0  0  0  0  0  0  0  0  0  0  0  0
   -4.8980    0.9040    1.1850 C   0  0  0  0  0  0  0  0  0  0  0  0
   -5.4430    1.3820    2.2020 C   0  0  0  0  0  0  0  0  0  0  0  0
   -5.9220    0.0830    0.2980 C   0  0  0  0  0  0  0  0  0  0  0  0
   -5.1520   -0.6150   -0.6240 C   0  0  0  0  0  0  0  0  0  0  0  0
   -4.1910   -1.1750   -1.4610 C   0  0  0  0  0  0  0  0  0  0  0  0
    2.5000   -1.4150    0.7720 C   0  0  0  0  0  0  0  0  0  0  0  0
    1.4030   -2.5680    1.5970 Cl  0  0  0  0  0  0  0  0  0  0  0  0
    3.8380   -1.3740    1.2280 C   0  0  0  0  0  0  0  0  0  0  0  0
  1  2  3  0
  2  3  1  0
  3  4  1  0
  4  5  1  0
  5  6  2  0
  5  7  1  0
  7  8  2  0
  7 32  1  0
  8  9  1  0
  9 10  2  0
 10 11  1  0
 10 30  1  0
 11 12  2  0
 11 13  1  0
 13 14  1  0
 13 19  2  0
 14 15  1  0
 14 17  2  0
 15 16  1  0
 17 18  1  0
 17 29  1  0
 18 19  1  0
 18 21  1  0
 19 20  1  0
 21 22  2  3
 21 25  1  0
 22 23  1  0
 22 24  1  0
 25 26  2  0
 25 27  1  0
 27 28  1  0
 28 29  1  0
 30 31  1  0
 30 32  2  0
M  END
