
     RDKit          3D

 32 35  0  0  0  0  0  0  0  0999 V2000
   -6.3850    2.1200   -3.0960 C   0  0  0  0  0  0  0  0  0  0  0  0
   -5.8220    0.7320   -3.3200 C   0  0  0  0  0  0  0  0  0  0  0  0
   -4.7650    0.4970   -2.2860 C   0  0  0  0  0  0  0  0  0  0  0  0
   -3.4830    0.8450   -2.5680 C   0  0  0  0  0  0  0  0  0  0  0  0
   -2.4090    0.6720   -1.6790 C   0  0  0  0  0  0  0  0  0  0  0  0
   -1.0720    1.1710   -2.0260 C   0  0  0  0  0  0  0  0  0  0  0  0
   -2.7090    0.1090   -0.4580 C   0  0  0  0  0  0  0  0  0  0  0  0
   -1.7700   -0.0940    0.5160 C   0  0  0  0  0  0  0  0  0  0  0  0
   -0.3970    0.0180    0.2520 N   0  0  0  0  0  0  0  0  0  0  0  0
    0.5770    0.3620    1.2170 C   0  0  0  0  0  0  0  0  0  0  0  0
    0.2730    0.6030    2.3960 O   0  0  0  0  0  0  0  0  0  0  0  0
    1.9820    0.4330    0.8030 C   0  0  0  0  0  0  0  0  0  0  0  0
    2.9160    0.7520    1.6820 C   0  0  0  0  0  0  0  0  0  0  0  0
    4.3420    0.8520    1.3790 C   0  0  0  0  0  0  0  0  0  0  0  0
    4.6530    0.5710   -0.0010 N   0  0  1  0  0  0  0  0  0  0  0  0
    5.9750    1.1110   -0.2720 C   0  0  0  0  0  0  0  0  0  0  0  0
    6.9610    0.3860    0.5740 C   0  0  2  0  0  0  0  0  0  0  0  0
    8.3370    0.9470    0.2250 C   0  0  0  0  0  0  0  0  0  0  0  0
    6.9510   -0.9550    0.3770 O   0  0  0  0  0  0  0  0  0  0  0  0
    5.9110   -1.5200   -0.2890 C   0  0  2  0  0  0  0  0  0  0  0  0
    6.2680   -1.8440   -1.7480 C   0  0  0  0  0  0  0  0  0  0  0  0
    4.5910   -0.8460   -0.2060 C   0  0  0  0  0  0  0  0  0  0  0  0
   -2.1030   -0.6230    1.7630 C   0  0  0  0  0  0  0  0  0  0  0  0
   -3.4160   -0.9520    2.0090 C   0  0  0  0  0  0  0  0  0  0  0  0
   -4.3750   -0.7680    1.0550 C   0  0  0  0  0  0  0  0  0  0  0  0
   -4.0490   -0.2380   -0.1940 C   0  0  0  0  0  0  0  0  0  0  0  0
   -5.0290   -0.0440   -1.0900 N   0  0  0  0  0  0  0  0  0  0  0  0
   -5.7640   -1.1240    1.3230 C   0  0  0  0  0  0  0  0  0  0  0  0
   -6.7920   -0.9230    0.2840 C   0  0  0  0  0  0  0  0  0  0  0  0
   -6.0540   -1.6280    2.5150 C   0  0  0  0  0  0  0  0  0  0  0  0
   -5.1080   -1.8630    3.5990 C   0  0  0  0  0  0  0  0  0  0  0  0
   -3.7750   -1.4900    3.2750 N   0  0  0  0  0  0  0  0  0  0  0  0
  1  2  1  0
  2  3  1  0
  3  4  2  0
  3 27  1  0
  4  5  1  0
  5  6  1  0
  5  7  2  0
  7  8  1  0
  7 26  1  0
  8  9  1  0
  8 23  2  0
  9 10  1  0
 10 11  2  0
 10 12  1  0
 12 13  2  3
 13 14  1  0
 15 14  1  1
 15 16  1  0
 15 22  1  0
 16 17  1  0
 17 18  1  6
 17 19  1  0
 19 20  1  0
 20 21  1  6
 20 22  1  0
 23 24  1  0
 24 25  2  0
 24 32  1  0
 25 26  1  0
 25 28  1  0
 26 27  2  0
 28 29  1  0
 28 30  2  0
 30 31  1  0
 31 32  1  0
M  CHG  1  15   1
M  END
