
     RDKit          3D

 11 11  0  0  0  0  0  0  0  0999 V2000
   -0.7210    0.1620    1.8100 N   0  0  0  0  0  0  0  0  0  0  0  0
   -0.3720    0.0870    0.3810 C   0  0  2  0  0  0  0  0  0  0  0  0
   -1.6880    0.3040   -0.3620 C   0  0  2  0  0  0  0  0  0  0  0  0
   -2.6130   -0.6730   -0.0240 O   0  0  0  0  0  0  0  0  0  0  0  0
   -1.4620    0.2960   -1.7360 O   0  0  0  0  0  0  0  0  0  0  0  0
    0.2070   -1.2380    0.0830 C   0  0  0  0  0  0  0  0  0  0  0  0
    1.3110   -1.2890   -0.8950 C   0  0  0  0  0  0  0  0  0  0  0  0
    1.8270   -0.0820   -1.2870 O   0  0  0  0  0  0  0  0  0  0  0  0
    1.9220    0.7410   -0.1550 C   0  0  0  0  0  0  0  0  0  0  0  0
    0.5210    1.2560    0.0980 C   0  0  1  0  0  0  0  0  0  0  0  0
    0.0660    1.9450   -1.0140 O   0  0  0  0  0  0  0  0  0  0  0  0
  2  1  1  1
  2  3  1  0
  2  6  1  0
  2 10  1  0
  3  4  1  6
  3  5  1  0
  6  7  1  0
  7  8  1  0
  8  9  1  0
  9 10  1  0
 10 11  1  6
M  CHG  1   1   1
M  END
