
     RDKit          3D

 11 11  0  0  0  0  0  0  0  0999 V2000
   -1.7350   -1.1490    0.7350 N   0  0  0  0  0  0  0  0  0  0  0  0
   -1.1270   -0.5010   -0.4050 C   0  0  1  0  0  0  0  0  0  0  0  0
   -1.8480    0.7770   -0.6750 C   0  0  0  0  0  0  0  0  0  0  0  0
   -1.7610    1.6170    0.4460 O   0  0  0  0  0  0  0  0  0  0  0  0
    0.3330   -0.3420   -0.1470 C   0  0  2  0  0  0  0  0  0  0  0  0
    0.8610   -1.6420    0.0390 O   0  0  0  0  0  0  0  0  0  0  0  0
    0.6370    0.4340    1.1110 C   0  0  0  0  0  0  0  0  0  0  0  0
    1.9720    0.1120    1.4470 O   0  0  0  0  0  0  0  0  0  0  0  0
    2.7650    0.1740    0.3260 C   0  0  0  0  0  0  0  0  0  0  0  0
    2.2130    0.9260   -0.7060 O   0  0  0  0  0  0  0  0  0  0  0  0
    1.0990    0.2790   -1.2680 C   0  0  0  0  0  0  0  0  0  0  0  0
  2  1  1  1
  2  3  1  0
  2  5  1  0
  3  4  1  0
  5  6  1  1
  5  7  1  0
  5 11  1  0
  7  8  1  0
  8  9  1  0
  9 10  1  0
 10 11  1  0
M  CHG  1   1   1
M  END
