
     RDKit          3D

 11 11  0  0  0  0  0  0  0  0999 V2000
   -2.4820   -0.2460   -0.2630 N   0  0  0  0  0  0  0  0  0  0  0  0
   -1.2880   -0.8520    0.2840 C   0  0  1  0  0  0  0  0  0  0  0  0
   -1.0110   -2.0320   -0.3980 O   0  0  0  0  0  0  0  0  0  0  0  0
   -0.0840    0.0230    0.2180 C   0  0  2  0  0  0  0  0  0  0  0  0
   -0.2020    1.2690    1.0650 C   0  0  0  0  0  0  0  0  0  0  0  0
   -1.1760    2.1140    0.5430 O   0  0  0  0  0  0  0  0  0  0  0  0
    0.2650    0.3950   -1.0670 O   0  0  0  0  0  0  0  0  0  0  0  0
    1.5980    0.7740   -1.0390 C   0  0  0  0  0  0  0  0  0  0  0  0
    2.2510    0.0760    0.1150 C   0  0  0  0  0  0  0  0  0  0  0  0
    1.1180   -0.7920    0.6450 C   0  0  2  0  0  0  0  0  0  0  0  0
    1.1350   -1.9840   -0.0820 O   0  0  0  0  0  0  0  0  0  0  0  0
  2  1  1  6
  2  3  1  0
  2  4  1  0
  4  5  1  1
  4  7  1  0
  4 10  1  0
  5  6  1  0
  7  8  1  0
  8  9  1  0
  9 10  1  0
 10 11  1  6
M  CHG  1   1   1
M  END
