
     RDKit          3D

 11 11  0  0  0  0  0  0  0  0999 V2000
   -1.4510   -0.1480    1.7640 C   0  0  0  0  0  0  0  0  0  0  0  0
   -1.4170    0.1230    0.3150 C   0  0  1  0  0  0  0  0  0  0  0  0
   -1.3450    1.4740   -0.0280 O   0  0  0  0  0  0  0  0  0  0  0  0
   -1.1610    1.4720   -1.3160 O   0  0  0  0  0  0  0  0  0  0  0  0
   -0.2770    0.4650   -1.6630 C   0  0  1  0  0  0  0  0  0  0  0  0
    0.9650    0.9280   -2.0630 O   0  0  0  0  0  0  0  0  0  0  0  0
   -0.2310   -0.4110   -0.4330 C   0  0  2  0  0  0  0  0  0  0  0  0
   -0.5150   -1.7690   -0.8490 N   0  0  0  0  0  0  0  0  0  0  0  0
    1.0430   -0.3890    0.3070 C   0  0  0  0  0  0  0  0  0  0  0  0
    1.5250    0.9470    0.7680 C   0  0  0  0  0  0  0  0  0  0  0  0
    2.7400    0.8330    1.4550 O   0  0  0  0  0  0  0  0  0  0  0  0
  2  1  1  1
  2  3  1  0
  2  7  1  0
  3  4  1  0
  4  5  1  0
  5  6  1  1
  5  7  1  0
  7  8  1  6
  7  9  1  0
  9 10  1  0
 10 11  1  0
M  CHG  1   8   1
M  END
