
     RDKit          3D

 20 21  0  0  0  0  0  0  0  0999 V2000
   -4.1870   -0.7230   -1.4100 C   0  0  0  0  0  0  0  0  0  0  0  0
   -3.1650   -0.1590   -0.4870 C   0  0  0  0  0  0  0  0  0  0  0  0
   -1.8280   -0.2760   -0.5590 N   0  0  0  0  0  0  0  0  0  0  0  0
   -1.2320    0.3720    0.4560 C   0  0  0  0  0  0  0  0  0  0  0  0
    0.2490    0.4350    0.6640 C   0  0  0  0  0  0  0  0  0  0  0  0
    0.6160    1.0840    1.6640 O   0  0  0  0  0  0  0  0  0  0  0  0
    1.1190   -0.2010   -0.2210 N   0  0  0  0  0  0  0  0  0  0  0  0
    2.5190   -0.1920   -0.1000 C   0  0  0  0  0  0  0  0  0  0  0  0
    3.1740    0.4490    0.9100 C   0  0  0  0  0  0  0  0  0  0  0  0
    4.5750    0.3920    0.9330 C   0  0  0  0  0  0  0  0  0  0  0  0
    5.3030   -0.2800   -0.0180 C   0  0  0  0  0  0  0  0  0  0  0  0
    6.6530   -0.3030    0.0510 F   0  0  0  0  0  0  0  0  0  0  0  0
    4.6480   -0.9300   -1.0420 C   0  0  0  0  0  0  0  0  0  0  0  0
    3.2810   -0.8790   -1.0700 C   0  0  0  0  0  0  0  0  0  0  0  0
    2.5950   -1.4990   -2.0510 F   0  0  0  0  0  0  0  0  0  0  0  0
   -2.2140    0.9420    1.2350 C   0  0  0  0  0  0  0  0  0  0  0  0
   -3.4250    0.6120    0.6480 C   0  0  0  0  0  0  0  0  0  0  0  0
   -4.7570    0.9900    1.1110 C   0  0  0  0  0  0  0  0  0  0  0  0
   -5.7750    0.6200    0.4780 O   0  0  0  0  0  0  0  0  0  0  0  0
   -4.8660    1.7460    2.2350 F   0  0  0  0  0  0  0  0  0  0  0  0
  1  2  1  0
  2  3  1  0
  2 17  2  0
  3  4  1  0
  4  5  1  0
  4 16  2  0
  5  6  2  0
  5  7  1  0
  7  8  1  0
  8  9  2  0
  8 14  1  0
  9 10  1  0
 10 11  2  0
 11 12  1  0
 11 13  1  0
 13 14  2  0
 14 15  1  0
 16 17  1  0
 17 18  1  0
 18 19  2  0
 18 20  1  0
M  END
