
     RDKit          3D

 19 20  0  0  0  0  0  0  0  0999 V2000
    1.9550   -1.8070    0.7520 O   0  0  0  0  0  0  0  0  0  0  0  0
    1.1970   -0.7010    0.5030 C   0  0  0  0  0  0  0  0  0  0  0  0
   -0.1440   -0.6820    0.8870 C   0  0  0  0  0  0  0  0  0  0  0  0
   -0.9600    0.3960    0.6570 C   0  0  0  0  0  0  0  0  0  0  0  0
   -2.3610    0.3560    1.0790 C   0  0  0  0  0  0  0  0  0  0  0  0
   -3.3120    0.1320   -0.0290 C   0  0  0  0  0  0  0  0  0  0  0  0
   -3.7210   -1.1120   -0.5040 C   0  0  0  0  0  0  0  0  0  0  0  0
   -4.5830   -0.8790   -1.5090 N   0  0  0  0  0  0  0  0  0  0  0  0
   -4.7400    0.4440   -1.6920 C   0  0  0  0  0  0  0  0  0  0  0  0
   -3.9510    1.0380   -0.7740 N   0  0  0  0  0  0  0  0  0  0  0  0
   -0.4640    1.5100    0.0300 C   0  0  0  0  0  0  0  0  0  0  0  0
   -1.2290    2.6180   -0.2250 F   0  0  0  0  0  0  0  0  0  0  0  0
    0.8480    1.4860   -0.3410 C   0  0  0  0  0  0  0  0  0  0  0  0
    1.7320    0.3850   -0.1210 C   0  0  0  0  0  0  0  0  0  0  0  0
    3.1040    0.5630   -0.5180 C   0  0  0  0  0  0  0  0  0  0  0  0
    4.1920   -0.0420   -0.2500 C   0  0  0  0  0  0  0  0  0  0  0  0
    4.6300   -1.1560    0.5440 C   0  0  1  0  0  0  0  0  0  0  0  0
    6.0710   -1.2860    0.4570 F   0  0  0  0  0  0  0  0  0  0  0  0
    4.3830   -0.9450    1.9000 F   0  0  0  0  0  0  0  0  0  0  0  0
  1  2  1  0
  2  3  2  0
  2 14  1  0
  3  4  1  0
  4  5  1  0
  4 11  2  0
  5  6  1  0
  6  7  2  0
  6 10  1  0
  7  8  1  0
  8  9  2  0
  9 10  1  0
 11 12  1  0
 11 13  1  0
 13 14  2  0
 14 15  1  0
 15 16  2  3
 16 17  1  0
 17 18  1  1
 17 19  1  0
M  END
