
     RDKit          3D

 19 20  0  0  0  0  0  0  0  0999 V2000
   -4.1340   -1.8720    0.1360 C   0  0  0  0  0  0  0  0  0  0  0  0
   -2.9040   -1.0700    0.2600 C   0  0  0  0  0  0  0  0  0  0  0  0
   -2.9760    0.2830    0.4980 C   0  0  0  0  0  0  0  0  0  0  0  0
   -1.8400    1.0280    0.6140 C   0  0  0  0  0  0  0  0  0  0  0  0
   -0.5700    0.4830    0.5020 C   0  0  0  0  0  0  0  0  0  0  0  0
    0.6200    1.2500    0.7090 C   0  0  0  0  0  0  0  0  0  0  0  0
    1.8110    0.9560    0.3590 C   0  0  0  0  0  0  0  0  0  0  0  0
    2.3970   -0.1620   -0.3390 C   0  0  0  0  0  0  0  0  0  0  0  0
    2.0950   -0.6900   -1.6050 C   0  0  0  0  0  0  0  0  0  0  0  0
    2.8910   -1.7400   -1.8610 N   0  0  0  0  0  0  0  0  0  0  0  0
    3.6720   -1.8930   -0.8220 N   0  0  0  0  0  0  0  0  0  0  0  0
    3.4340   -0.9860    0.1270 C   0  0  0  0  0  0  0  0  0  0  0  0
    3.9850   -0.8300    1.2470 O   0  0  0  0  0  0  0  0  0  0  0  0
    0.3740    2.4890    1.4010 O   0  0  0  0  0  0  0  0  0  0  0  0
    0.5930    3.7080    0.7230 C   0  0  2  0  0  0  0  0  0  0  0  0
    1.8790    3.8920    0.2950 F   0  0  0  0  0  0  0  0  0  0  0  0
    0.1790    4.7630    1.5110 F   0  0  0  0  0  0  0  0  0  0  0  0
   -0.5220   -0.8660    0.2670 C   0  0  0  0  0  0  0  0  0  0  0  0
   -1.6780   -1.6580    0.1420 C   0  0  0  0  0  0  0  0  0  0  0  0
  1  2  1  0
  2  3  2  0
  2 19  1  0
  3  4  1  0
  4  5  2  0
  5  6  1  0
  5 18  1  0
  6  7  2  3
  6 14  1  0
  7  8  1  0
  8  9  2  0
  8 12  1  0
  9 10  1  0
 10 11  1  0
 11 12  1  0
 12 13  2  0
 14 15  1  0
 15 16  1  1
 15 17  1  0
 18 19  2  0
M  END
