
     RDKit          3D

 34 36  0  0  0  0  0  0  0  0999 V2000
    8.4810   -1.4810   -2.3250 C   0  0  0  0  0  0  0  0  0  0  0  0
    8.4330   -0.9090   -0.9250 C   0  0  0  0  0  0  0  0  0  0  0  0
    9.5130   -0.6410   -0.2340 N   0  0  0  0  0  0  0  0  0  0  0  0
    9.6350   -0.1880    0.8350 C   0  0  0  0  0  0  0  0  0  0  0  0
    7.8100    0.0390    1.2640 S   0  0  0  0  0  0  0  0  0  0  0  0
    7.2360   -0.6140   -0.2990 C   0  0  0  0  0  0  0  0  0  0  0  0
    5.8410   -0.6960   -0.6190 C   0  0  0  0  0  0  0  0  0  0  0  0
    4.8950   -0.1220    0.2320 C   0  0  0  0  0  0  0  0  0  0  0  0
    3.5610   -0.2150   -0.0510 C   0  0  0  0  0  0  0  0  0  0  0  0
    3.0620   -0.8580   -1.1550 C   0  0  0  0  0  0  0  0  0  0  0  0
    1.6280   -0.9770   -1.5000 C   0  0  0  0  0  0  0  0  0  0  0  0
    0.7930   -0.2090   -0.5800 N   0  0  0  0  0  0  0  0  0  0  0  0
    0.4980   -0.6540    0.7270 C   0  0  0  0  0  0  0  0  0  0  0  0
    1.0210   -1.7730    1.0630 O   0  0  0  0  0  0  0  0  0  0  0  0
   -0.3200    0.0420    1.6790 C   0  0  2  0  0  0  0  0  0  0  0  0
   -0.7050   -0.7630    2.9330 C   0  0  0  0  0  0  0  0  0  0  0  0
   -1.7010    0.2190    3.5870 C   0  0  1  0  0  0  0  0  0  0  0  0
   -1.0720    0.8340    4.6740 O   0  0  0  0  0  0  0  0  0  0  0  0
   -2.0370    1.2430    2.4990 C   0  0  0  0  0  0  0  0  0  0  0  0
   -1.6270    0.4910    1.3000 N   0  0  0  0  0  0  0  0  0  0  0  0
   -2.4170    0.3200    0.1710 C   0  0  0  0  0  0  0  0  0  0  0  0
   -1.9390   -0.3650   -0.8000 O   0  0  0  0  0  0  0  0  0  0  0  0
   -3.7830    0.8870    0.0220 C   0  0  1  0  0  0  0  0  0  0  0  0
   -4.0560    1.2470   -1.3600 N   0  0  0  0  0  0  0  0  0  0  0  0
   -4.3750    2.5830   -1.7030 C   0  0  0  0  0  0  0  0  0  0  0  0
   -4.4120    3.4290   -0.7700 O   0  0  0  0  0  0  0  0  0  0  0  0
   -4.6660    3.0160   -3.1090 C   0  0  0  0  0  0  0  0  0  0  0  0
   -4.5870    1.9590   -3.9830 O   0  0  0  0  0  0  0  0  0  0  0  0
   -4.8660   -0.0890    0.4030 C   0  0  2  0  0  0  0  0  0  0  0  0
   -4.8240   -0.5870    1.8010 C   0  0  0  0  0  0  0  0  0  0  0  0
   -4.9240   -1.2680   -0.5470 C   0  0  0  0  0  0  0  0  0  0  0  0
   -6.1920    0.6540    0.2230 C   0  0  0  0  0  0  0  0  0  0  0  0
    3.9910   -1.4240   -1.9950 C   0  0  0  0  0  0  0  0  0  0  0  0
    5.3690   -1.3320   -1.7090 C   0  0  0  0  0  0  0  0  0  0  0  0
  1  2  1  0
  2  3  1  0
  2  6  2  0
  3  4  2  0
  4  5  1  0
  5  6  1  0
  6  7  1  0
  7  8  2  0
  7 34  1  0
  8  9  1  0
  9 10  2  0
 10 11  1  0
 10 33  1  0
 11 12  1  0
 12 13  1  0
 13 14  2  0
 15 13  1  6
 15 16  1  0
 15 20  1  0
 16 17  1  0
 17 18  1  1
 17 19  1  0
 19 20  1  0
 20 21  1  0
 21 22  2  0
 21 23  1  0
 23 24  1  6
 23 29  1  0
 24 25  1  0
 25 26  2  0
 25 27  1  0
 27 28  1  0
 29 30  1  1
 29 31  1  0
 29 32  1  0
 33 34  2  0
M  END
