
     RDKit          3D

 34 36  0  0  0  0  0  0  0  0999 V2000
    1.4670    6.7330    2.1820 C   0  0  0  0  0  0  0  0  0  0  0  0
    2.1800    5.7830    0.8130 S   0  0  0  0  0  0  0  0  0  0  0  0
    2.0410    3.9810    1.3020 C   0  0  0  0  0  0  0  0  0  0  0  0
    0.6030    3.6730    1.3370 C   0  0  0  0  0  0  0  0  0  0  0  0
    0.0720    2.4470    1.7570 N   0  0  0  0  0  0  0  0  0  0  0  0
    0.2060    1.1650    1.0940 C   0  0  0  0  0  0  0  0  0  0  0  0
    1.3940    0.8770    0.7430 N   0  0  0  0  0  0  0  0  0  0  0  0
    1.7590   -0.3240    0.0650 C   0  0  0  0  0  0  0  0  0  0  0  0
    3.1760   -0.5340   -0.2680 C   0  0  0  0  0  0  0  0  0  0  0  0
    3.9720    0.3750    0.0730 O   0  0  0  0  0  0  0  0  0  0  0  0
    3.6550   -1.6620   -0.9240 N   0  0  0  0  0  0  0  0  0  0  0  0
    4.9930   -1.9180   -1.2700 C   0  0  0  0  0  0  0  0  0  0  0  0
    6.0100   -1.0510   -1.0350 C   0  0  0  0  0  0  0  0  0  0  0  0
    7.3050   -1.4340   -1.4400 C   0  0  0  0  0  0  0  0  0  0  0  0
    7.5690   -2.6280   -2.0500 C   0  0  0  0  0  0  0  0  0  0  0  0
    8.8240   -2.9790   -2.4310 F   0  0  0  0  0  0  0  0  0  0  0  0
    6.5330   -3.5210   -2.2930 C   0  0  0  0  0  0  0  0  0  0  0  0
    5.2850   -3.1380   -1.8970 C   0  0  0  0  0  0  0  0  0  0  0  0
    3.9690   -4.2780   -2.2070 Cl  0  0  0  0  0  0  0  0  0  0  0  0
    0.7890   -1.1610   -0.2170 C   0  0  0  0  0  0  0  0  0  0  0  0
   -0.6200   -0.9220    0.1150 C   0  0  2  0  0  0  0  0  0  0  0  0
   -1.2570   -0.6620   -1.1500 O   0  0  0  0  0  0  0  0  0  0  0  0
   -0.8940    0.2450    0.9480 C   0  0  2  0  0  0  0  0  0  0  0  0
   -2.2480    0.8820    0.8510 C   0  0  0  0  0  0  0  0  0  0  0  0
   -3.3660    0.0070    0.7100 N   0  0  0  0  0  0  0  0  0  0  0  0
   -3.9700   -0.5630    1.9010 C   0  0  0  0  0  0  0  0  0  0  0  0
   -3.8900   -0.0280    3.0260 O   0  0  0  0  0  0  0  0  0  0  0  0
   -4.7140   -1.8400    1.7750 C   0  0  0  0  0  0  0  0  0  0  0  0
   -4.3670   -2.5360    0.4530 C   0  0  0  0  0  0  0  0  0  0  0  0
   -4.7350   -1.5990   -0.6600 C   0  0  2  0  0  0  0  0  0  0  0  0
   -6.2460   -1.3960   -0.6460 C   0  0  0  0  0  0  0  0  0  0  0  0
   -4.4200   -2.2130   -2.0130 C   0  0  0  0  0  0  0  0  0  0  0  0
   -4.0200   -0.3330   -0.4980 C   0  0  0  0  0  0  0  0  0  0  0  0
   -3.9700    0.5090   -1.4570 O   0  0  0  0  0  0  0  0  0  0  0  0
  1  2  1  0
  2  3  1  0
  3  4  1  0
  4  5  1  0
  5  6  1  0
  6  7  2  0
  6 23  1  0
  7  8  1  0
  8  9  1  0
  8 20  2  0
  9 10  2  0
  9 11  1  0
 11 12  1  0
 12 13  2  0
 12 18  1  0
 13 14  1  0
 14 15  2  0
 15 16  1  0
 15 17  1  0
 17 18  2  0
 18 19  1  0
 20 21  1  0
 21 22  1  6
 21 23  1  0
 23 24  1  6
 24 25  1  0
 25 26  1  0
 25 33  1  0
 26 27  2  0
 26 28  1  0
 28 29  1  0
 29 30  1  0
 30 31  1  6
 30 32  1  0
 30 33  1  0
 33 34  2  0
M  CHG  1   7   1
M  END
