
     RDKit          3D

 35 37  0  0  0  0  0  0  0  0999 V2000
    4.8240    0.3280   -2.0260 C   0  0  0  0  0  0  0  0  0  0  0  0
    4.4110    1.3750   -1.0530 C   0  0  0  0  0  0  0  0  0  0  0  0
    4.9360    1.0650    0.3420 C   0  0  0  0  0  0  0  0  0  0  0  0
    5.9900    1.7500    0.8360 C   0  0  0  0  0  0  0  0  0  0  0  0
    6.4940    1.4690    2.0440 C   0  0  0  0  0  0  0  0  0  0  0  0
    7.6040    2.0090    2.8520 C   0  0  0  0  0  0  0  0  0  0  0  0
    5.4680    0.1370    2.6250 S   0  0  0  0  0  0  0  0  0  0  0  0
    4.3830    0.0820    1.0830 C   0  0  0  0  0  0  0  0  0  0  0  0
    3.3150   -0.8440    1.0640 C   0  0  0  0  0  0  0  0  0  0  0  0
    3.3790   -1.6950    2.1100 O   0  0  0  0  0  0  0  0  0  0  0  0
    2.2150   -1.1050    0.2480 N   0  0  0  0  0  0  0  0  0  0  0  0
    1.6510   -0.5210   -0.9090 C   0  0  0  0  0  0  0  0  0  0  0  0
    0.2460   -1.0360   -1.0810 C   0  0  0  0  0  0  0  0  0  0  0  0
    0.0050   -1.6900    0.2750 C   0  0  1  0  0  0  0  0  0  0  0  0
   -1.0100   -2.6520    0.1110 N   0  0  0  0  0  0  0  0  0  0  0  0
   -2.3710   -2.3830    1.0380 S   0  0  1  0  0  0  0  0  0  0  0  0
   -3.4040   -3.3980    1.1150 O   0  0  0  0  0  0  0  0  0  0  0  0
   -1.8820   -2.1600    2.4900 O   0  0  0  0  0  0  0  0  0  0  0  0
   -3.0640   -0.7520    0.4970 C   0  0  0  0  0  0  0  0  0  0  0  0
   -2.7020    0.1830    1.2700 C   0  0  0  0  0  0  0  0  0  0  0  0
   -2.8870    1.5860    1.4470 C   0  0  0  0  0  0  0  0  0  0  0  0
   -2.1380    2.2530    2.3600 C   0  0  0  0  0  0  0  0  0  0  0  0
   -2.2090    3.6810    2.6540 C   0  0  0  0  0  0  0  0  0  0  0  0
   -3.3920    4.2790    2.1860 O   0  0  0  0  0  0  0  0  0  0  0  0
   -4.1960    3.6500    1.2680 C   0  0  0  0  0  0  0  0  0  0  0  0
   -3.9730    2.3760    0.9060 C   0  0  0  0  0  0  0  0  0  0  0  0
   -4.8750    1.8920   -0.0020 O   0  0  0  0  0  0  0  0  0  0  0  0
   -3.5900   -0.8620   -0.8280 C   0  0  0  0  0  0  0  0  0  0  0  0
   -3.4610    0.2600   -1.8050 C   0  0  0  0  0  0  0  0  0  0  0  0
   -3.9860   -2.0160   -1.3550 C   0  0  0  0  0  0  0  0  0  0  0  0
   -4.5270   -2.2040   -2.6780 C   0  0  0  0  0  0  0  0  0  0  0  0
   -4.9150   -3.5630   -3.1200 C   0  0  0  0  0  0  0  0  0  0  0  0
   -4.6920   -1.2530   -3.4940 N   0  0  0  0  0  0  0  0  0  0  0  0
   -5.1850   -1.3560   -4.7280 F   0  0  0  0  0  0  0  0  0  0  0  0
    1.3590   -2.3160    0.5510 C   0  0  0  0  0  0  0  0  0  0  0  0
  1  2  1  0
  2  3  1  0
  3  4  1  0
  3  8  2  0
  4  5  2  0
  5  6  1  0
  5  7  1  0
  7  8  1  0
  8  9  1  0
  9 10  2  0
  9 11  1  0
 11 12  1  0
 11 35  1  0
 12 13  1  0
 13 14  1  0
 14 15  1  6
 14 35  1  0
 16 15  1  6
 16 17  2  0
 16 18  2  0
 16 19  1  0
 19 20  2  3
 19 28  1  0
 20 21  1  0
 21 22  2  0
 21 26  1  0
 22 23  1  0
 23 24  1  0
 24 25  1  0
 25 26  2  0
 26 27  1  0
 28 29  1  0
 28 30  2  3
 30 31  1  0
 31 32  1  0
 31 33  2  3
 33 34  1  0
M  END
