
     RDKit          3D

 33 36  0  0  0  0  0  0  0  0999 V2000
    7.5220    1.7560    0.0920 N   0  0  0  0  0  0  0  0  0  0  0  0
    7.5490    0.6830    1.0760 C   0  0  0  0  0  0  0  0  0  0  0  0
    6.3020    0.8260    1.9030 C   0  0  0  0  0  0  0  0  0  0  0  0
    5.1480    0.7180    1.0430 N   0  0  0  0  0  0  0  0  0  0  0  0
    4.9260   -0.4770    0.3190 C   0  0  0  0  0  0  0  0  0  0  0  0
    5.7270   -1.4250    0.4370 O   0  0  0  0  0  0  0  0  0  0  0  0
    3.7690   -0.6230   -0.5680 C   0  0  2  0  0  0  0  0  0  0  0  0
    3.7680    0.3270   -1.7200 C   0  0  0  0  0  0  0  0  0  0  0  0
    2.3670    0.5620   -2.2330 C   0  0  0  0  0  0  0  0  0  0  0  0
    1.4660   -0.6440   -1.8150 C   0  0  0  0  0  0  0  0  0  0  0  0
    1.3480   -0.5060   -0.3810 N   0  0  0  0  0  0  0  0  0  0  0  0
    0.3300   -0.3660    0.4700 C   0  0  0  0  0  0  0  0  0  0  0  0
   -1.1070   -0.4400    0.3230 C   0  0  0  0  0  0  0  0  0  0  0  0
   -1.7600   -0.8880   -0.6970 C   0  0  0  0  0  0  0  0  0  0  0  0
   -3.1600   -0.9960   -0.9480 C   0  0  0  0  0  0  0  0  0  0  0  0
   -3.4710   -1.5780   -2.0660 O   0  0  0  0  0  0  0  0  0  0  0  0
   -4.2720   -0.5790   -0.1820 N   0  0  0  0  0  0  0  0  0  0  0  0
   -4.2170    0.5920    0.6660 C   0  0  0  0  0  0  0  0  0  0  0  0
   -5.1870    1.6670    0.1380 C   0  0  2  0  0  0  0  0  0  0  0  0
   -4.9760    2.9040    0.9190 C   0  0  0  0  0  0  0  0  0  0  0  0
   -4.1290    2.9620    1.8310 O   0  0  0  0  0  0  0  0  0  0  0  0
   -5.7300    4.0330    0.6410 O   0  0  0  0  0  0  0  0  0  0  0  0
   -6.8590    1.0140    0.3720 S   0  0  0  0  0  0  0  0  0  0  0  0
   -6.7610   -0.7160   -0.0860 C   0  0  0  0  0  0  0  0  0  0  0  0
   -7.9300   -1.4290   -0.2000 C   0  0  0  0  0  0  0  0  0  0  0  0
   -7.8550   -2.7640   -0.5470 C   0  0  0  0  0  0  0  0  0  0  0  0
   -6.6220   -3.3760   -0.7770 C   0  0  0  0  0  0  0  0  0  0  0  0
   -6.5440   -5.0740   -1.2170 Cl  0  0  0  0  0  0  0  0  0  0  0  0
   -5.4760   -2.6140   -0.6490 C   0  0  0  0  0  0  0  0  0  0  0  0
   -5.5160   -1.2630   -0.3000 C   0  0  0  0  0  0  0  0  0  0  0  0
    0.9590   -0.2040    1.7390 C   0  0  0  0  0  0  0  0  0  0  0  0
    2.3140   -0.2570    1.6020 C   0  0  0  0  0  0  0  0  0  0  0  0
    2.5420   -0.4490    0.2670 C   0  0  0  0  0  0  0  0  0  0  0  0
  1  2  1  0
  2  3  1  0
  3  4  1  0
  4  5  1  0
  5  6  2  0
  7  5  1  1
  7  8  1  0
  7 33  1  0
  8  9  1  0
  9 10  1  0
 10 11  1  0
 11 12  1  0
 11 33  1  0
 12 13  1  0
 12 31  2  0
 13 14  2  3
 14 15  1  0
 15 16  2  0
 15 17  1  0
 17 18  1  0
 17 30  1  0
 18 19  1  0
 19 20  1  1
 19 23  1  0
 20 21  2  0
 20 22  1  0
 23 24  1  0
 24 25  2  0
 24 30  1  0
 25 26  1  0
 26 27  2  0
 27 28  1  0
 27 29  1  0
 29 30  2  0
 31 32  1  0
 32 33  2  0
M  CHG  1   1   1
M  END
