
     RDKit          3D

 34 38  0  0  0  0  0  0  0  0999 V2000
   -6.3960   -3.1510    1.1390 C   0  0  0  0  0  0  0  0  0  0  0  0
   -5.9430   -2.4110   -0.4260 S   0  0  0  0  0  0  0  0  0  0  0  0
   -5.5240   -0.7120   -0.2930 C   0  0  2  0  0  0  0  0  0  0  0  0
   -6.2210    0.1930   -1.3000 C   0  0  0  0  0  0  0  0  0  0  0  0
   -6.2090    1.5940   -0.7900 C   0  0  0  0  0  0  0  0  0  0  0  0
   -5.0540    1.8610    0.0100 O   0  0  0  0  0  0  0  0  0  0  0  0
   -3.9120    1.0510   -0.1180 C   0  0  0  0  0  0  0  0  0  0  0  0
   -2.6330    1.5450   -0.1070 C   0  0  0  0  0  0  0  0  0  0  0  0
   -2.3930    2.9820    0.0620 C   0  0  0  0  0  0  0  0  0  0  0  0
   -3.4870    3.9040    0.3040 C   0  0  0  0  0  0  0  0  0  0  0  0
   -1.1900    3.4060   -0.0100 O   0  0  0  0  0  0  0  0  0  0  0  0
   -1.5740    0.6650   -0.2380 C   0  0  0  0  0  0  0  0  0  0  0  0
   -1.7770   -0.6850   -0.3790 C   0  0  0  0  0  0  0  0  0  0  0  0
   -3.0760   -1.2280   -0.3920 C   0  0  0  0  0  0  0  0  0  0  0  0
   -4.1100   -0.3230   -0.2620 C   0  0  0  0  0  0  0  0  0  0  0  0
   -2.9980   -2.6320   -0.5170 N   0  0  0  0  0  0  0  0  0  0  0  0
   -1.6390   -3.0120   -0.5880 C   0  0  0  0  0  0  0  0  0  0  0  0
   -1.1930   -4.1810   -0.6970 O   0  0  0  0  0  0  0  0  0  0  0  0
   -0.8180   -1.7760   -0.5050 C   0  0  0  0  0  0  0  0  0  0  0  0
    0.4930   -1.7760   -0.6500 C   0  0  0  0  0  0  0  0  0  0  0  0
    1.2730   -0.5780   -0.7330 C   0  0  0  0  0  0  0  0  0  0  0  0
    2.2590   -0.1370    0.1010 C   0  0  0  0  0  0  0  0  0  0  0  0
    2.6980    1.0860   -0.4170 C   0  0  0  0  0  0  0  0  0  0  0  0
    3.6350    1.9700   -0.0220 O   0  0  0  0  0  0  0  0  0  0  0  0
    4.5240    1.9720    1.0140 C   0  0  0  0  0  0  0  0  0  0  0  0
    5.5370    0.8920    0.8110 C   0  0  0  0  0  0  0  0  0  0  0  0
    6.4470    1.0610   -0.2500 C   0  0  0  0  0  0  0  0  0  0  0  0
    7.4270    0.1210   -0.4810 C   0  0  0  0  0  0  0  0  0  0  0  0
    7.5570   -1.0030    0.3010 C   0  0  0  0  0  0  0  0  0  0  0  0
    8.6240   -1.9940    0.0430 C   0  0  0  0  0  0  0  0  0  0  0  0
    6.6690   -1.1560    1.3270 C   0  0  0  0  0  0  0  0  0  0  0  0
    5.6550   -0.2180    1.5920 C   0  0  0  0  0  0  0  0  0  0  0  0
    1.9320    1.3150   -1.5700 C   0  0  0  0  0  0  0  0  0  0  0  0
    1.1100    0.3180   -1.7170 O   0  0  0  0  0  0  0  0  0  0  0  0
  1  2  1  0
  3  2  1  6
  3  4  1  0
  3 15  1  0
  4  5  1  0
  5  6  1  0
  6  7  1  0
  7  8  2  0
  7 15  1  0
  8  9  1  0
  8 12  1  0
  9 10  1  0
  9 11  2  0
 12 13  2  0
 13 14  1  0
 13 19  1  0
 14 15  2  0
 14 16  1  0
 16 17  1  0
 17 18  2  0
 17 19  1  0
 19 20  2  3
 20 21  1  0
 21 22  2  0
 21 34  1  0
 22 23  1  0
 23 24  1  0
 23 33  2  0
 24 25  1  0
 25 26  1  0
 26 27  2  0
 26 32  1  0
 27 28  1  0
 28 29  2  0
 29 30  1  0
 29 31  1  0
 31 32  2  0
 33 34  1  0
M  END
