
     RDKit          3D

 35 37  0  0  0  0  0  0  0  0999 V2000
    8.5470    2.9060   -1.8550 C   0  0  0  0  0  0  0  0  0  0  0  0
    7.0720    3.0310   -1.8930 C   0  0  0  0  0  0  0  0  0  0  0  0
    6.2830    2.1140   -1.2380 C   0  0  0  0  0  0  0  0  0  0  0  0
    4.9000    2.2110   -1.2530 C   0  0  0  0  0  0  0  0  0  0  0  0
    4.1400    1.1580   -0.5120 C   0  0  0  0  0  0  0  0  0  0  0  0
    3.8270    0.0690   -1.4880 C   0  0  0  0  0  0  0  0  0  0  0  0
    3.0950   -1.0340   -0.8630 N   0  0  0  0  0  0  0  0  0  0  0  0
    1.8460   -0.8310   -0.2370 C   0  0  0  0  0  0  0  0  0  0  0  0
    1.3450    0.3320   -0.2130 O   0  0  0  0  0  0  0  0  0  0  0  0
    1.0710   -1.9420    0.4140 C   0  0  2  0  0  0  0  0  0  0  0  0
   -0.1390   -1.3990    0.9470 O   0  0  0  0  0  0  0  0  0  0  0  0
   -1.3970   -1.6910    0.4970 C   0  0  0  0  0  0  0  0  0  0  0  0
   -1.5230   -2.4820   -0.4590 O   0  0  0  0  0  0  0  0  0  0  0  0
   -2.5790   -1.0780    1.1350 C   0  0  0  0  0  0  0  0  0  0  0  0
   -2.5210   -0.2180    2.2190 C   0  0  0  0  0  0  0  0  0  0  0  0
   -3.8140    0.1370    2.5260 C   0  0  0  0  0  0  0  0  0  0  0  0
   -4.6170   -0.5120    1.6270 C   0  0  0  0  0  0  0  0  0  0  0  0
   -6.0870   -0.4230    1.5870 C   0  0  2  0  0  0  0  0  0  0  0  0
   -6.9080   -1.0710    0.5600 C   0  0  1  0  0  0  0  0  0  0  0  0
   -8.2820   -1.6190    0.8800 C   0  0  0  0  0  0  0  0  0  0  0  0
   -8.7960   -2.1650   -0.2980 O   0  0  0  0  0  0  0  0  0  0  0  0
   -6.7860    0.4450    0.6030 C   0  0  2  0  0  0  0  0  0  0  0  0
   -6.0760    1.0450   -0.5620 C   0  0  0  0  0  0  0  0  0  0  0  0
   -4.9470    1.9230   -0.0820 C   0  0  0  0  0  0  0  0  0  0  0  0
   -3.7520    1.7790   -0.5070 N   0  0  0  0  0  0  0  0  0  0  0  0
   -5.3720    3.1970    1.1070 S   0  0  0  0  0  0  0  0  0  0  0  0
   -3.8260   -1.2120    0.8330 O   0  0  0  0  0  0  0  0  0  0  0  0
    1.8730   -2.6110    1.4740 C   0  0  2  0  0  0  0  0  0  0  0  0
    3.0140   -3.1750    0.9370 O   0  0  0  0  0  0  0  0  0  0  0  0
    1.0770   -3.7040    2.1630 C   0  0  0  0  0  0  0  0  0  0  0  0
    0.6830   -4.7660    1.2790 N   0  0  0  0  0  0  0  0  0  0  0  0
    4.2720    3.2340   -1.9290 C   0  0  0  0  0  0  0  0  0  0  0  0
    5.0690    4.1640   -2.5930 C   0  0  0  0  0  0  0  0  0  0  0  0
    6.4440    4.0410   -2.5600 C   0  0  0  0  0  0  0  0  0  0  0  0
    7.1980    4.9860   -3.2330 O   0  0  0  0  0  0  0  0  0  0  0  0
  1  2  1  0
  2  3  2  0
  2 34  1  0
  3  4  1  0
  4  5  1  0
  4 32  2  0
  5  6  1  0
  6  7  1  0
  7  8  1  0
  8  9  2  0
  8 10  1  0
 10 11  1  1
 10 28  1  0
 11 12  1  0
 12 13  2  0
 12 14  1  0
 14 15  2  0
 14 27  1  0
 15 16  1  0
 16 17  2  0
 18 17  1  6
 17 27  1  0
 18 19  1  0
 18 22  1  0
 19 20  1  1
 19 22  1  0
 20 21  1  0
 22 23  1  6
 23 24  1  0
 24 25  2  0
 24 26  1  0
 28 29  1  6
 28 30  1  0
 30 31  1  0
 32 33  1  0
 33 34  2  0
 34 35  1  0
M  CHG  1  31   1
M  END
