
     RDKit          3D

 34 38  0  0  0  0  0  0  0  0999 V2000
   -5.5490   -4.8600   -2.7110 C   0  0  0  0  0  0  0  0  0  0  0  0
   -4.6560   -4.1510   -2.0700 C   0  0  0  0  0  0  0  0  0  0  0  0
   -5.0960   -3.2630   -0.9940 C   0  0  0  0  0  0  0  0  0  0  0  0
   -4.2370   -2.5420   -0.3340 C   0  0  0  0  0  0  0  0  0  0  0  0
   -2.7820   -2.5350   -0.5800 C   0  0  0  0  0  0  0  0  0  0  0  0
   -1.9820   -1.7040    0.2150 N   0  0  0  0  0  0  0  0  0  0  0  0
   -0.5820   -1.5400    0.1550 C   0  0  0  0  0  0  0  0  0  0  0  0
    0.0830   -2.1820   -0.6830 O   0  0  0  0  0  0  0  0  0  0  0  0
    0.1230   -0.6000    1.0890 C   0  0  1  0  0  0  0  0  0  0  0  0
    1.5140   -0.6010    0.8460 O   0  0  0  0  0  0  0  0  0  0  0  0
    2.4470   -1.0560    1.7690 C   0  0  0  0  0  0  0  0  0  0  0  0
    1.9700   -1.4790    2.8650 O   0  0  0  0  0  0  0  0  0  0  0  0
    3.8790   -1.0490    1.4980 C   0  0  0  0  0  0  0  0  0  0  0  0
    4.4220   -0.6360    0.4160 C   0  0  0  0  0  0  0  0  0  0  0  0
    4.3140    0.0550   -1.2240 S   0  0  0  0  0  0  0  0  0  0  0  0
    5.7660   -0.8630   -1.8490 C   0  0  0  0  0  0  0  0  0  0  0  0
    6.4510   -1.1850   -0.7600 C   0  0  0  0  0  0  0  0  0  0  0  0
    5.9330   -0.7690    0.5170 C   0  0  2  0  0  0  0  0  0  0  0  0
    6.1090   -1.8040    1.6000 C   0  0  0  0  0  0  0  0  0  0  0  0
    4.8820   -1.5560    2.4500 C   0  0  0  0  0  0  0  0  0  0  0  0
    4.8160   -1.7600    3.6780 O   0  0  0  0  0  0  0  0  0  0  0  0
   -0.4570    0.7540    1.0580 C   0  0  0  0  0  0  0  0  0  0  0  0
   -1.3480    1.1230    2.0410 C   0  0  0  0  0  0  0  0  0  0  0  0
   -1.9390    2.3600    2.0950 C   0  0  0  0  0  0  0  0  0  0  0  0
   -1.6520    3.3010    1.1410 C   0  0  0  0  0  0  0  0  0  0  0  0
   -0.7670    2.9590    0.1510 C   0  0  0  0  0  0  0  0  0  0  0  0
   -0.1690    1.7010    0.0990 C   0  0  0  0  0  0  0  0  0  0  0  0
   -0.3820    3.9090   -0.9410 C   0  0  0  0  0  0  0  0  0  0  0  0
   -0.5110    5.3030   -0.3510 C   0  0  0  0  0  0  0  0  0  0  0  0
   -1.9700    5.4830    0.0140 C   0  0  0  0  0  0  0  0  0  0  0  0
   -2.3040    4.6520    1.2090 C   0  0  0  0  0  0  0  0  0  0  0  0
   -2.3540   -3.3260   -1.5440 C   0  0  0  0  0  0  0  0  0  0  0  0
   -3.2410   -4.1800   -2.3490 C   0  0  0  0  0  0  0  0  0  0  0  0
   -2.8110   -4.9230   -3.2600 O   0  0  0  0  0  0  0  0  0  0  0  0
  1  2  2  0
  2  3  1  0
  2 33  1  0
  3  4  2  0
  4  5  1  0
  5  6  1  0
  5 32  2  0
  6  7  1  0
  7  8  2  0
  7  9  1  0
  9 10  1  6
  9 22  1  0
 10 11  1  0
 11 12  2  0
 11 13  1  0
 13 14  2  0
 13 20  1  0
 14 15  1  0
 14 18  1  0
 15 16  1  0
 16 17  2  0
 17 18  1  0
 18 19  1  1
 19 20  1  0
 20 21  2  0
 22 23  2  0
 22 27  1  0
 23 24  1  0
 24 25  2  0
 25 26  1  0
 25 31  1  0
 26 27  2  0
 26 28  1  0
 28 29  1  0
 29 30  1  0
 30 31  1  0
 32 33  1  0
 33 34  2  0
M  END
