
     RDKit          3D

 35 37  0  0  0  0  0  0  0  0999 V2000
   -2.7620    6.2040    1.8380 C   0  0  0  0  0  0  0  0  0  0  0  0
   -2.8500    5.1070    0.8920 N   0  0  0  0  0  0  0  0  0  0  0  0
   -2.9650    5.4050   -0.4830 C   0  0  0  0  0  0  0  0  0  0  0  0
   -2.9890    6.6010   -0.8890 O   0  0  0  0  0  0  0  0  0  0  0  0
   -3.0590    4.2880   -1.4480 C   0  0  0  0  0  0  0  0  0  0  0  0
   -2.8700    3.0160   -0.8600 O   0  0  0  0  0  0  0  0  0  0  0  0
   -1.6910    2.6140   -0.2860 C   0  0  0  0  0  0  0  0  0  0  0  0
   -0.6900    3.3600   -0.2600 O   0  0  0  0  0  0  0  0  0  0  0  0
   -1.5400    1.2460    0.3450 C   0  0  0  0  0  0  0  0  0  0  0  0
   -1.6480    0.2690   -0.7670 C   0  0  1  0  0  0  0  0  0  0  0  0
   -2.8730    0.3610   -1.4410 O   0  0  0  0  0  0  0  0  0  0  0  0
   -0.5200    0.3240   -1.7150 C   0  0  0  0  0  0  0  0  0  0  0  0
    1.0470   -0.0980   -1.0850 S   0  0  0  0  0  0  0  0  0  0  0  0
    1.8280    0.8500    0.1790 C   0  0  0  0  0  0  0  0  0  0  0  0
    3.3180    0.5410    0.2520 C   0  0  0  0  0  0  0  0  0  0  0  0
    3.7550   -0.5730    0.9350 C   0  0  0  0  0  0  0  0  0  0  0  0
    5.0870   -0.8740    1.0290 C   0  0  0  0  0  0  0  0  0  0  0  0
    6.0830   -0.0650    0.4360 C   0  0  0  0  0  0  0  0  0  0  0  0
    7.3940   -0.4450    0.5770 O   0  0  0  0  0  0  0  0  0  0  0  0
    5.6500    1.0430   -0.2430 C   0  0  0  0  0  0  0  0  0  0  0  0
    6.5640    1.9770   -0.8630 C   0  0  0  0  0  0  0  0  0  0  0  0
    7.9530    1.8570   -0.8250 N   0  0  0  0  0  0  0  0  0  0  0  0
    6.0830    2.9770   -1.4850 O   0  0  0  0  0  0  0  0  0  0  0  0
    4.2640    1.3280   -0.3240 C   0  0  0  0  0  0  0  0  0  0  0  0
   -1.6090   -1.1030   -0.1280 C   0  0  0  0  0  0  0  0  0  0  0  0
   -1.0130   -1.3490    1.0830 C   0  0  0  0  0  0  0  0  0  0  0  0
   -0.9780   -2.6270    1.6380 C   0  0  0  0  0  0  0  0  0  0  0  0
   -1.5450   -3.6680    0.9780 C   0  0  0  0  0  0  0  0  0  0  0  0
   -2.1500   -3.4550   -0.2330 C   0  0  0  0  0  0  0  0  0  0  0  0
   -2.1770   -2.1960   -0.7680 C   0  0  0  0  0  0  0  0  0  0  0  0
   -2.7620   -4.6220   -0.9020 C   0  0  2  0  0  0  0  0  0  0  0  0
   -3.6260   -4.2410   -1.9270 O   0  0  0  0  0  0  0  0  0  0  0  0
   -3.5520   -5.3310    0.1980 C   0  0  0  0  0  0  0  0  0  0  0  0
   -2.7220   -5.8000    1.2510 N   0  0  0  0  0  0  0  0  0  0  0  0
   -1.5270   -5.0750    1.5100 C   0  0  0  0  0  0  0  0  0  0  0  0
  1  2  1  0
  2  3  1  0
  3  4  2  0
  3  5  1  0
  5  6  1  0
  6  7  1  0
  7  8  2  0
  7  9  1  0
  9 10  1  0
 10 11  1  6
 10 12  1  0
 10 25  1  0
 12 13  1  0
 13 14  1  0
 14 15  1  0
 15 16  2  0
 15 24  1  0
 16 17  1  0
 17 18  2  0
 18 19  1  0
 18 20  1  0
 20 21  1  0
 20 24  2  0
 21 22  1  0
 21 23  2  0
 25 26  2  0
 25 30  1  0
 26 27  1  0
 27 28  2  0
 28 29  1  0
 28 35  1  0
 29 30  2  0
 29 31  1  0
 31 32  1  6
 31 33  1  0
 33 34  1  0
 34 35  1  0
M  CHG  1  34   1
M  END
