
     RDKit          3D

 36 39  0  0  0  0  0  0  0  0999 V2000
   -4.8780    3.0720    3.1070 C   0  0  0  0  0  0  0  0  0  0  0  0
   -3.4410    2.8730    3.3270 C   0  0  0  0  0  0  0  0  0  0  0  0
   -2.7640    2.1090    2.4270 C   0  0  0  0  0  0  0  0  0  0  0  0
   -3.4850    1.5590    1.3430 C   0  0  0  0  0  0  0  0  0  0  0  0
   -3.0810    0.8030    0.3750 C   0  0  0  0  0  0  0  0  0  0  0  0
   -3.9950    0.2950   -0.7320 C   0  0  2  0  0  0  0  0  0  0  0  0
   -5.0710   -0.5750   -0.1570 C   0  0  0  0  0  0  0  0  0  0  0  0
   -5.9800   -1.1000   -1.1140 N   0  0  0  0  0  0  0  0  0  0  0  0
   -5.6940   -2.4560   -1.5370 C   0  0  0  0  0  0  0  0  0  0  0  0
   -6.5890   -3.4390   -0.7760 C   0  0  0  0  0  0  0  0  0  0  0  0
   -3.1420   -0.2740   -1.6700 N   0  0  0  0  0  0  0  0  0  0  0  0
   -1.9590   -0.3700   -1.2340 C   0  0  0  0  0  0  0  0  0  0  0  0
   -0.7780   -0.9480   -1.9810 C   0  0  0  0  0  0  0  0  0  0  0  0
    0.1720    0.2280   -2.2510 C   0  0  0  0  0  0  0  0  0  0  0  0
    0.8720    0.6790   -1.0960 N   0  0  0  0  0  0  0  0  0  0  0  0
    2.3160    0.6130   -1.2230 C   0  0  0  0  0  0  0  0  0  0  0  0
    3.0080    0.9860   -0.2590 O   0  0  0  0  0  0  0  0  0  0  0  0
    2.9080    0.1590   -2.3560 O   0  0  0  0  0  0  0  0  0  0  0  0
    4.2640    0.0170   -2.6200 C   0  0  0  0  0  0  0  0  0  0  0  0
    5.0070   -1.0340   -1.8820 C   0  0  0  0  0  0  0  0  0  0  0  0
    5.0710   -0.9890   -0.4250 C   0  0  0  0  0  0  0  0  0  0  0  0
    4.2420   -1.7950    0.3660 C   0  0  0  0  0  0  0  0  0  0  0  0
    4.2820   -1.7610    1.7340 C   0  0  0  0  0  0  0  0  0  0  0  0
    5.1550   -0.9190    2.3700 C   0  0  0  0  0  0  0  0  0  0  0  0
    5.1920   -0.8870    3.7430 O   0  0  0  0  0  0  0  0  0  0  0  0
    5.9990   -0.1000    1.6370 C   0  0  0  0  0  0  0  0  0  0  0  0
    6.8640    0.7170    2.2960 N   0  0  0  0  0  0  0  0  0  0  0  0
    7.7110    1.5170    1.6410 C   0  0  0  0  0  0  0  0  0  0  0  0
    8.8330    2.5770    2.5110 Cl  0  0  0  0  0  0  0  0  0  0  0  0
    7.6840    1.4930    0.2670 C   0  0  0  0  0  0  0  0  0  0  0  0
    8.7830    2.5300   -0.6140 Cl  0  0  0  0  0  0  0  0  0  0  0  0
    6.8200    0.6770   -0.4350 C   0  0  0  0  0  0  0  0  0  0  0  0
    5.9400   -0.1520    0.2710 C   0  0  0  0  0  0  0  0  0  0  0  0
    0.4420    1.1940    0.1870 C   0  0  0  0  0  0  0  0  0  0  0  0
   -0.5940    0.2650    0.8110 C   0  0  0  0  0  0  0  0  0  0  0  0
   -1.8190    0.2720    0.0670 N   0  0  0  0  0  0  0  0  0  0  0  0
  1  2  1  0
  2  3  2  3
  3  4  1  0
  4  5  2  3
  5  6  1  0
  5 36  1  0
  6  7  1  1
  6 11  1  0
  7  8  1  0
  8  9  1  0
  9 10  1  0
 11 12  2  0
 12 13  1  0
 12 36  1  0
 13 14  1  0
 14 15  1  0
 15 16  1  0
 15 34  1  0
 16 17  2  0
 16 18  1  0
 18 19  1  0
 19 20  1  0
 20 21  1  0
 21 22  2  0
 21 33  1  0
 22 23  1  0
 23 24  2  0
 24 25  1  0
 24 26  1  0
 26 27  2  0
 26 33  1  0
 27 28  1  0
 28 29  1  0
 28 30  2  0
 30 31  1  0
 30 32  1  0
 32 33  2  0
 34 35  1  0
 35 36  1  0
M  CHG  2   8   1  11   1
M  END
