
     RDKit          3D

 37 41  0  0  0  0  0  0  0  0999 V2000
   10.8240    0.1170    2.1000 C   0  0  0  0  0  0  0  0  0  0  0  0
    9.8980    0.0100    0.9440 C   0  0  0  0  0  0  0  0  0  0  0  0
   10.4420   -0.1670   -0.2820 F   0  0  0  0  0  0  0  0  0  0  0  0
    8.5950    0.0860    1.1120 C   0  0  0  0  0  0  0  0  0  0  0  0
    7.6690   -0.0200   -0.0410 C   0  0  0  0  0  0  0  0  0  0  0  0
    6.3820    0.0570    0.1480 C   0  0  0  0  0  0  0  0  0  0  0  0
    5.3920   -0.0340   -0.8990 C   0  0  0  0  0  0  0  0  0  0  0  0
    4.0280    0.0450   -0.6620 N   0  0  0  0  0  0  0  0  0  0  0  0
    3.3480   -0.0690   -1.7980 C   0  0  0  0  0  0  0  0  0  0  0  0
    1.8920   -0.0440   -2.0040 C   0  0  0  0  0  0  0  0  0  0  0  0
    1.0580    0.1200   -0.9420 C   0  0  0  0  0  0  0  0  0  0  0  0
   -0.3450    0.1500   -1.0540 C   0  0  0  0  0  0  0  0  0  0  0  0
   -1.1480    0.3360    0.0830 N   0  0  0  0  0  0  0  0  0  0  0  0
   -2.5310    0.1570    0.2070 C   0  0  0  0  0  0  0  0  0  0  0  0
   -3.1950   -0.2210   -0.7830 O   0  0  0  0  0  0  0  0  0  0  0  0
   -3.2570    0.4050    1.5050 C   0  0  0  0  0  0  0  0  0  0  0  0
   -4.6950    0.1220    1.3440 C   0  0  0  0  0  0  0  0  0  0  0  0
   -5.1700   -1.1830    1.3070 C   0  0  0  0  0  0  0  0  0  0  0  0
   -4.2080   -2.2880    1.4340 C   0  0  0  0  0  0  0  0  0  0  0  0
   -6.5180   -1.4760    1.1560 C   0  0  0  0  0  0  0  0  0  0  0  0
   -7.2410   -2.6520    1.0890 C   0  0  0  0  0  0  0  0  0  0  0  0
   -6.6680   -3.8740    1.1720 F   0  0  0  0  0  0  0  0  0  0  0  0
   -8.5560   -2.2870    0.9330 C   0  0  0  0  0  0  0  0  0  0  0  0
   -8.6630   -0.9300    0.9020 N   0  0  0  0  0  0  0  0  0  0  0  0
   -7.4420   -0.3750    1.0350 C   0  0  0  0  0  0  0  0  0  0  0  0
   -6.9500    0.8770    1.0740 N   0  0  0  0  0  0  0  0  0  0  0  0
   -5.6300    1.1280    1.2230 C   0  0  0  0  0  0  0  0  0  0  0  0
   -5.4060    2.5390    1.2290 N   0  0  0  0  0  0  0  0  0  0  0  0
   -6.6440    3.1960    0.9240 C   0  0  0  0  0  0  0  0  0  0  0  0
   -7.6910    2.1240    0.9720 C   0  0  0  0  0  0  0  0  0  0  0  0
   -0.8300    0.0020   -2.3230 C   0  0  0  0  0  0  0  0  0  0  0  0
   -0.0110   -0.1690   -3.4470 C   0  0  0  0  0  0  0  0  0  0  0  0
    1.3470   -0.1880   -3.2570 C   0  0  0  0  0  0  0  0  0  0  0  0
    2.2210   -0.3490   -4.2880 F   0  0  0  0  0  0  0  0  0  0  0  0
    4.2620   -0.2190   -2.7550 N   0  0  0  0  0  0  0  0  0  0  0  0
    5.5020   -0.1980   -2.2170 N   0  0  0  0  0  0  0  0  0  0  0  0
    6.7370   -0.3340   -2.9770 C   0  0  0  0  0  0  0  0  0  0  0  0
  1  2  1  0
  2  3  1  0
  2  4  2  3
  4  5  1  0
  5  6  2  3
  6  7  1  0
  7  8  2  0
  7 36  1  0
  8  9  1  0
  9 10  1  0
  9 35  2  0
 10 11  2  0
 10 33  1  0
 11 12  1  0
 12 13  1  0
 12 31  2  0
 13 14  1  0
 14 15  2  0
 14 16  1  0
 16 17  1  0
 17 18  1  0
 17 27  2  0
 18 19  1  0
 18 20  2  0
 20 21  1  0
 20 25  1  0
 21 22  1  0
 21 23  2  0
 23 24  1  0
 24 25  2  0
 25 26  1  0
 26 27  1  0
 26 30  1  0
 27 28  1  0
 28 29  1  0
 29 30  1  0
 31 32  1  0
 32 33  2  0
 33 34  1  0
 35 36  1  0
 36 37  1  0
M  END
