
     RDKit          3D

 36 40  0  0  0  0  0  0  0  0999 V2000
   -3.8470    6.6110    0.5750 C   0  0  0  0  0  0  0  0  0  0  0  0
   -3.5000    5.2120    0.1840 C   0  0  0  0  0  0  0  0  0  0  0  0
   -4.0430    4.7080   -0.9590 C   0  0  0  0  0  0  0  0  0  0  0  0
   -3.7310    3.4240   -1.3280 C   0  0  0  0  0  0  0  0  0  0  0  0
   -4.2950    2.9590   -2.4760 F   0  0  0  0  0  0  0  0  0  0  0  0
   -2.8750    2.6120   -0.5720 C   0  0  0  0  0  0  0  0  0  0  0  0
   -2.6130    1.2920   -1.0230 N   0  0  0  0  0  0  0  0  0  0  0  0
   -1.7280    0.3860   -0.3620 C   0  0  0  0  0  0  0  0  0  0  0  0
   -0.6200    0.8940    0.0440 N   0  0  0  0  0  0  0  0  0  0  0  0
    0.4130    0.1960    0.7240 C   0  0  0  0  0  0  0  0  0  0  0  0
    0.0930   -0.5860    1.7990 C   0  0  0  0  0  0  0  0  0  0  0  0
    1.0760   -1.2680    2.4640 C   0  0  0  0  0  0  0  0  0  0  0  0
    2.3870   -1.1660    2.0500 C   0  0  0  0  0  0  0  0  0  0  0  0
    2.7640   -0.3890    0.9690 C   0  0  0  0  0  0  0  0  0  0  0  0
    4.1180   -0.2890    0.5480 N   0  0  0  0  0  0  0  0  0  0  0  0
    5.1480    0.1120    1.3150 C   0  0  0  0  0  0  0  0  0  0  0  0
    5.1610    0.5370    2.7390 C   0  0  0  0  0  0  0  0  0  0  0  0
    5.4170   -0.5440    3.6030 O   0  0  0  0  0  0  0  0  0  0  0  0
    6.2760    0.0790    0.5670 N   0  0  0  0  0  0  0  0  0  0  0  0
    5.9700   -0.3420   -0.6750 C   0  0  0  0  0  0  0  0  0  0  0  0
    6.7520   -0.5320   -1.7570 N   0  0  0  0  0  0  0  0  0  0  0  0
    6.2110   -0.9610   -2.8940 C   0  0  0  0  0  0  0  0  0  0  0  0
    7.0060   -1.1540   -3.9930 F   0  0  0  0  0  0  0  0  0  0  0  0
    4.8500   -1.2050   -2.9480 C   0  0  0  0  0  0  0  0  0  0  0  0
    4.0260   -1.0200   -1.8590 C   0  0  0  0  0  0  0  0  0  0  0  0
    4.6130   -0.5730   -0.6870 C   0  0  0  0  0  0  0  0  0  0  0  0
    1.7350    0.2760    0.3350 C   0  0  0  0  0  0  0  0  0  0  0  0
   -2.1140   -0.9650   -0.2120 N   0  0  0  0  0  0  0  0  0  0  0  0
   -3.2800   -1.2970    0.5790 C   0  0  0  0  0  0  0  0  0  0  0  0
   -3.0570   -2.6730    1.1650 C   0  0  0  0  0  0  0  0  0  0  0  0
   -3.5640   -3.6780    0.1530 C   0  0  0  0  0  0  0  0  0  0  0  0
   -2.4410   -4.0340   -0.7980 C   0  0  0  0  0  0  0  0  0  0  0  0
   -2.0930   -2.8790   -1.7220 C   0  0  0  0  0  0  0  0  0  0  0  0
   -1.2440   -1.9100   -0.9160 C   0  0  0  0  0  0  0  0  0  0  0  0
   -2.3660    3.1830    0.5660 C   0  0  0  0  0  0  0  0  0  0  0  0
   -2.6780    4.4520    0.9240 N   0  0  0  0  0  0  0  0  0  0  0  0
  1  2  1  0
  2  3  2  0
  2 36  1  0
  3  4  1  0
  4  5  1  0
  4  6  2  0
  6  7  1  0
  6 35  1  0
  7  8  1  0
  8  9  2  3
  8 28  1  0
  9 10  1  0
 10 11  2  0
 10 27  1  0
 11 12  1  0
 12 13  2  0
 13 14  1  0
 14 15  1  0
 14 27  2  0
 15 16  1  0
 15 26  1  0
 16 17  1  0
 16 19  2  0
 17 18  1  0
 19 20  1  0
 20 21  2  0
 20 26  1  0
 21 22  1  0
 22 23  1  0
 22 24  2  0
 24 25  1  0
 25 26  2  0
 28 29  1  0
 28 34  1  0
 29 30  1  0
 30 31  1  0
 31 32  1  0
 32 33  1  0
 33 34  1  0
 35 36  2  0
M  END
