
     RDKit          3D

 37 41  0  0  0  0  0  0  0  0999 V2000
    9.3560    1.3490    1.5150 C   0  0  0  0  0  0  0  0  0  0  0  0
    9.1400    0.3480    0.4570 C   0  0  0  0  0  0  0  0  0  0  0  0
    7.9810    0.2180   -0.1250 C   0  0  0  0  0  0  0  0  0  0  0  0
    6.8620    1.0560    0.2500 C   0  0  0  0  0  0  0  0  0  0  0  0
    6.9680    1.9320    1.1430 O   0  0  0  0  0  0  0  0  0  0  0  0
    5.6030    0.9070   -0.3900 N   0  0  0  0  0  0  0  0  0  0  0  0
    5.4810   -0.1050   -1.4220 C   0  0  0  0  0  0  0  0  0  0  0  0
    4.1390   -0.1060   -2.0810 C   0  0  0  0  0  0  0  0  0  0  0  0
    3.0520    0.1230   -1.0970 C   0  0  0  0  0  0  0  0  0  0  0  0
    1.7850   -0.4320   -0.9730 C   0  0  0  0  0  0  0  0  0  0  0  0
    1.2270   -1.4370   -1.8660 C   0  0  0  0  0  0  0  0  0  0  0  0
    1.8210   -1.9880   -2.9360 N   0  0  0  0  0  0  0  0  0  0  0  0
    1.0000   -2.8830   -3.5210 C   0  0  0  0  0  0  0  0  0  0  0  0
   -0.1540   -2.8750   -2.7660 C   0  0  0  0  0  0  0  0  0  0  0  0
    0.0050   -1.9880   -1.7630 N   0  0  0  0  0  0  0  0  0  0  0  0
   -0.9470   -1.6730   -0.7550 C   0  0  0  0  0  0  0  0  0  0  0  0
   -0.6340   -1.9490    0.5580 C   0  0  0  0  0  0  0  0  0  0  0  0
   -1.5770   -1.6350    1.5380 C   0  0  0  0  0  0  0  0  0  0  0  0
   -2.7430   -1.0830    1.1940 N   0  0  0  0  0  0  0  0  0  0  0  0
   -3.1180   -0.7870   -0.0550 C   0  0  0  0  0  0  0  0  0  0  0  0
   -4.3350   -0.2080   -0.4440 N   0  0  0  0  0  0  0  0  0  0  0  0
   -5.3780    0.1700    0.4170 C   0  0  0  0  0  0  0  0  0  0  0  0
   -5.3640    0.0950    1.7900 C   0  0  0  0  0  0  0  0  0  0  0  0
   -6.4510    0.4890    2.5880 C   0  0  0  0  0  0  0  0  0  0  0  0
   -7.6030    0.9770    2.0270 C   0  0  0  0  0  0  0  0  0  0  0  0
   -8.7780    1.4070    2.8080 C   0  0  0  0  0  0  0  0  0  0  0  0
   -7.6350    1.0590    0.6540 C   0  0  0  0  0  0  0  0  0  0  0  0
   -8.8740    1.5850    0.0210 C   0  0  1  0  0  0  0  0  0  0  0  0
   -9.1270    2.8720    0.4540 F   0  0  0  0  0  0  0  0  0  0  0  0
   -8.6870    1.6570   -1.3440 F   0  0  0  0  0  0  0  0  0  0  0  0
   -9.9060    0.7190    0.2600 F   0  0  0  0  0  0  0  0  0  0  0  0
   -6.5770    0.6760   -0.1290 C   0  0  0  0  0  0  0  0  0  0  0  0
   -2.1630   -1.1070   -1.0290 C   0  0  0  0  0  0  0  0  0  0  0  0
    1.2180    0.1390    0.1040 N   0  0  0  0  0  0  0  0  0  0  0  0
    2.0660    1.0040    0.6350 N   0  0  0  0  0  0  0  0  0  0  0  0
    3.2020    1.0350   -0.0580 C   0  0  0  0  0  0  0  0  0  0  0  0
    4.5020    1.7560    0.0030 C   0  0  0  0  0  0  0  0  0  0  0  0
  1  2  1  0
  2  3  2  3
  3  4  1  0
  4  5  2  0
  4  6  1  0
  6  7  1  0
  6 37  1  0
  7  8  1  0
  8  9  1  0
  9 10  1  0
  9 36  2  0
 10 11  1  0
 10 34  2  0
 11 12  2  0
 11 15  1  0
 12 13  1  0
 13 14  2  0
 14 15  1  0
 15 16  1  0
 16 17  2  0
 16 33  1  0
 17 18  1  0
 18 19  2  0
 19 20  1  0
 20 21  1  0
 20 33  2  0
 21 22  1  0
 22 23  2  0
 22 32  1  0
 23 24  1  0
 24 25  2  0
 25 26  1  0
 25 27  1  0
 27 28  1  0
 27 32  2  0
 28 29  1  1
 28 30  1  0
 28 31  1  0
 34 35  1  0
 35 36  1  0
 36 37  1  0
M  END
