
     RDKit          3D

 37 41  0  0  0  0  0  0  0  0999 V2000
   -5.6710   -1.9990   -1.8610 C   0  0  0  0  0  0  0  0  0  0  0  0
   -5.3920   -2.1380   -0.4500 N   0  0  0  0  0  0  0  0  0  0  0  0
   -4.1080   -1.7370    0.0580 C   0  0  0  0  0  0  0  0  0  0  0  0
   -3.1700   -1.2290   -0.7970 C   0  0  0  0  0  0  0  0  0  0  0  0
   -1.9300   -0.8370   -0.3350 C   0  0  0  0  0  0  0  0  0  0  0  0
   -0.9780   -0.2430   -1.3370 C   0  0  0  0  0  0  0  0  0  0  0  0
   -0.4190    0.9860   -0.8710 N   0  0  0  0  0  0  0  0  0  0  0  0
    0.7790    1.1030   -0.3200 C   0  0  0  0  0  0  0  0  0  0  0  0
    1.8000    0.0740   -0.2120 C   0  0  0  0  0  0  0  0  0  0  0  0
    3.1470    0.5030   -0.1050 C   0  0  0  0  0  0  0  0  0  0  0  0
    4.2060   -0.3370    0.0410 C   0  0  0  0  0  0  0  0  0  0  0  0
    4.0140   -1.6960    0.0950 C   0  0  0  0  0  0  0  0  0  0  0  0
    5.1440   -2.5500    0.2480 N   0  0  0  0  0  0  0  0  0  0  0  0
    5.2130   -3.8680   -0.0050 C   0  0  0  0  0  0  0  0  0  0  0  0
    6.4510   -4.3010    0.2670 N   0  0  0  0  0  0  0  0  0  0  0  0
    7.1770   -3.2550    0.6960 C   0  0  0  0  0  0  0  0  0  0  0  0
    8.6140   -3.2530    1.1170 C   0  0  0  0  0  0  0  0  0  0  0  0
    6.3410   -2.2000    0.6710 N   0  0  0  0  0  0  0  0  0  0  0  0
    2.7320   -2.1700   -0.0020 C   0  0  0  0  0  0  0  0  0  0  0  0
    1.6500   -1.2730   -0.1530 C   0  0  0  0  0  0  0  0  0  0  0  0
    1.1380    2.3620    0.1040 N   0  0  0  0  0  0  0  0  0  0  0  0
    0.3990    3.4530    0.0090 C   0  0  0  0  0  0  0  0  0  0  0  0
   -0.8560    3.2950   -0.5760 C   0  0  0  0  0  0  0  0  0  0  0  0
   -1.2520    2.0620   -1.0100 C   0  0  0  0  0  0  0  0  0  0  0  0
   -2.3870    1.9400   -1.5360 O   0  0  0  0  0  0  0  0  0  0  0  0
   -1.7000    4.4810   -0.6950 C   0  0  0  0  0  0  0  0  0  0  0  0
   -3.0530    4.3040   -1.3280 C   0  0  0  0  0  0  0  0  0  0  0  0
   -1.3040    5.6630   -0.2690 C   0  0  0  0  0  0  0  0  0  0  0  0
    0.0080    5.8920    0.3570 C   0  0  0  0  0  0  0  0  0  0  0  0
    0.8200    4.7200    0.4630 N   0  0  0  0  0  0  0  0  0  0  0  0
   -1.6760   -0.9730    0.9990 C   0  0  0  0  0  0  0  0  0  0  0  0
   -2.6250   -1.4840    1.8410 C   0  0  0  0  0  0  0  0  0  0  0  0
   -3.8730   -1.8870    1.4220 C   0  0  0  0  0  0  0  0  0  0  0  0
   -4.9120   -2.4400    2.3140 C   0  0  1  0  0  0  0  0  0  0  0  0
   -4.4270   -2.4800    3.6010 F   0  0  0  0  0  0  0  0  0  0  0  0
   -6.0430   -1.6420    2.3030 F   0  0  0  0  0  0  0  0  0  0  0  0
   -5.2270   -3.7400    1.9340 F   0  0  0  0  0  0  0  0  0  0  0  0
  1  2  1  0
  2  3  1  0
  3  4  2  0
  3 33  1  0
  4  5  1  0
  5  6  1  0
  5 31  2  0
  6  7  1  0
  7  8  1  0
  7 24  1  0
  8  9  1  0
  8 21  2  0
  9 10  2  0
  9 20  1  0
 10 11  1  0
 11 12  2  0
 12 13  1  0
 12 19  1  0
 13 14  1  0
 13 18  1  0
 14 15  2  0
 15 16  1  0
 16 17  1  0
 16 18  2  0
 19 20  2  0
 21 22  1  0
 22 23  2  0
 22 30  1  0
 23 24  1  0
 23 26  1  0
 24 25  2  0
 26 27  1  0
 26 28  2  0
 28 29  1  0
 29 30  1  0
 31 32  1  0
 32 33  2  0
 33 34  1  0
 34 35  1  1
 34 36  1  0
 34 37  1  0
M  END
