
     RDKit          3D

 36 39  0  0  0  0  0  0  0  0999 V2000
    9.3470   -0.6890   -0.0900 C   0  0  0  0  0  0  0  0  0  0  0  0
    8.2030    0.0840   -0.7140 C   0  0  2  0  0  0  0  0  0  0  0  0
    8.7790    1.3410   -1.3300 C   0  0  0  0  0  0  0  0  0  0  0  0
    7.2380    0.4540    0.2240 O   0  0  0  0  0  0  0  0  0  0  0  0
    5.9040    0.0880    0.1290 C   0  0  0  0  0  0  0  0  0  0  0  0
    5.5690   -0.6130   -0.8710 O   0  0  0  0  0  0  0  0  0  0  0  0
    4.8870    0.4940    1.1550 C   0  0  1  0  0  0  0  0  0  0  0  0
    4.7360    1.9390    1.2070 C   0  0  0  0  0  0  0  0  0  0  0  0
    3.9020    2.5210    0.3580 C   0  0  0  0  0  0  0  0  0  0  0  0
    3.6400    4.2410    0.3260 Cl  0  0  0  0  0  0  0  0  0  0  0  0
    3.1390    1.6720   -0.6030 C   0  0  0  0  0  0  0  0  0  0  0  0
    2.6210    0.4870    0.1360 N   0  0  0  0  0  0  0  0  0  0  0  0
    1.2440    0.2700    0.0300 C   0  0  0  0  0  0  0  0  0  0  0  0
    0.6150    1.1810   -0.6670 O   0  0  0  0  0  0  0  0  0  0  0  0
    0.4500   -0.8010    0.5830 C   0  0  0  0  0  0  0  0  0  0  0  0
    1.0200   -1.9840    1.0580 C   0  0  0  0  0  0  0  0  0  0  0  0
    0.2270   -3.0480    1.4790 C   0  0  0  0  0  0  0  0  0  0  0  0
    1.0350   -4.4890    2.0580 Cl  0  0  0  0  0  0  0  0  0  0  0  0
   -1.1430   -2.9850    1.4460 C   0  0  0  0  0  0  0  0  0  0  0  0
   -1.7320   -1.8400    0.9880 C   0  0  0  0  0  0  0  0  0  0  0  0
   -0.9360   -0.7540    0.5600 C   0  0  0  0  0  0  0  0  0  0  0  0
   -1.6210    0.4360    0.1680 N   0  0  0  0  0  0  0  0  0  0  0  0
   -3.1030    0.4030    0.0820 C   0  0  0  0  0  0  0  0  0  0  0  0
   -3.5360   -0.4620   -1.0050 C   0  0  0  0  0  0  0  0  0  0  0  0
   -2.6200   -1.0750   -1.8590 C   0  0  0  0  0  0  0  0  0  0  0  0
   -3.1400   -1.8520   -2.8660 C   0  0  0  0  0  0  0  0  0  0  0  0
   -4.4890   -2.0360   -3.0500 C   0  0  0  0  0  0  0  0  0  0  0  0
   -5.3260   -1.4200   -2.1970 N   0  0  0  0  0  0  0  0  0  0  0  0
   -4.8930   -0.6440   -1.1870 C   0  0  0  0  0  0  0  0  0  0  0  0
   -5.8230   -0.0120   -0.3110 N   0  0  0  0  0  0  0  0  0  0  0  0
   -6.4650    1.2030   -0.7430 C   0  0  0  0  0  0  0  0  0  0  0  0
   -6.5290    2.1780    0.3950 C   0  0  0  0  0  0  0  0  0  0  0  0
   -7.2250    1.5590    1.5300 N   0  0  0  0  0  0  0  0  0  0  0  0
   -6.3470    0.5060    2.0340 C   0  0  0  0  0  0  0  0  0  0  0  0
   -6.1460   -0.5630    0.9880 C   0  0  0  0  0  0  0  0  0  0  0  0
    3.5950   -0.2200    0.8940 C   0  0  0  0  0  0  0  0  0  0  0  0
  2  1  1  1
  2  3  1  0
  2  4  1  0
  4  5  1  0
  5  6  2  0
  7  5  1  6
  7  8  1  0
  7 36  1  0
  8  9  2  0
  9 10  1  0
  9 11  1  0
 11 12  1  0
 12 13  1  0
 12 36  1  0
 13 14  2  0
 13 15  1  0
 15 16  2  0
 15 21  1  0
 16 17  1  0
 17 18  1  0
 17 19  2  0
 19 20  1  0
 20 21  2  0
 21 22  1  0
 22 23  1  0
 23 24  1  0
 24 25  2  0
 24 29  1  0
 25 26  1  0
 26 27  2  0
 27 28  1  0
 28 29  2  0
 29 30  1  0
 30 31  1  0
 30 35  1  0
 31 32  1  0
 32 33  1  0
 33 34  1  0
 34 35  1  0
M  CHG  2  28   1  33   1
M  END
