
     RDKit          3D

 43 46  0  0  0  0  0  0  0  0999 V2000
    5.7920   -4.1760   -2.9080 C   0  0  0  0  0  0  0  0  0  0  0  0
    4.6710   -3.6310   -2.5620 O   0  0  0  0  0  0  0  0  0  0  0  0
    3.8650   -2.9140   -1.8230 C   0  0  0  0  0  0  0  0  0  0  0  0
    2.5060   -2.7950   -2.1960 C   0  0  0  0  0  0  0  0  0  0  0  0
    1.6790   -2.0690   -1.4460 C   0  0  0  0  0  0  0  0  0  0  0  0
    2.0990   -1.4070   -0.2810 C   0  0  0  0  0  0  0  0  0  0  0  0
    1.1940   -0.7220    0.3670 O   0  0  0  0  0  0  0  0  0  0  0  0
    0.8010    0.3910    0.9510 C   0  0  0  0  0  0  0  0  0  0  0  0
    1.6350    1.4710    1.2660 C   0  0  0  0  0  0  0  0  0  0  0  0
    1.1300    2.5820    1.8720 C   0  0  0  0  0  0  0  0  0  0  0  0
   -0.2020    2.6740    2.1900 C   0  0  0  0  0  0  0  0  0  0  0  0
   -1.0580    1.6080    1.8810 C   0  0  0  0  0  0  0  0  0  0  0  0
   -0.5910    0.4820    1.2730 C   0  0  0  0  0  0  0  0  0  0  0  0
   -1.3630   -0.6300    0.8730 N   0  0  0  0  0  0  0  0  0  0  0  0
   -2.7650   -0.5330    0.6060 C   0  0  0  0  0  0  0  0  0  0  0  0
   -3.2830    0.5740    0.7630 O   0  0  0  0  0  0  0  0  0  0  0  0
   -3.5370   -1.6100    0.1750 N   0  0  0  0  0  0  0  0  0  0  0  0
   -4.9060   -1.6270   -0.1440 C   0  0  0  0  0  0  0  0  0  0  0  0
   -5.6920   -0.6070    0.0740 C   0  0  0  0  0  0  0  0  0  0  0  0
   -7.1250   -0.5230   -0.2210 C   0  0  0  0  0  0  0  0  0  0  0  0
   -7.9060    0.4340    0.2530 C   0  0  0  0  0  0  0  0  0  0  0  0
   -9.3570    0.5100   -0.0520 C   0  0  2  0  0  0  0  0  0  0  0  0
  -10.1290    1.1990    0.9760 C   0  0  0  0  0  0  0  0  0  0  0  0
   -9.9080    2.6200    1.3750 C   0  0  0  0  0  0  0  0  0  0  0  0
  -11.1650    0.4950    1.6730 S   0  0  0  0  0  0  0  0  0  0  0  0
   -9.8700   -0.8970   -0.1920 C   0  0  0  0  0  0  0  0  0  0  0  0
  -11.0640   -1.1700    0.0770 O   0  0  0  0  0  0  0  0  0  0  0  0
   -9.0070   -1.9370   -0.6330 N   0  0  0  0  0  0  0  0  0  0  0  0
   -7.7000   -1.5860   -1.1060 C   0  0  2  0  0  0  0  0  0  0  0  0
   -6.8760   -2.7540   -1.1650 N   0  0  0  0  0  0  0  0  0  0  0  0
   -5.5150   -2.7950   -0.8060 C   0  0  0  0  0  0  0  0  0  0  0  0
   -4.7580   -3.7970   -1.0180 O   0  0  0  0  0  0  0  0  0  0  0  0
    3.4380   -1.4880    0.1360 C   0  0  0  0  0  0  0  0  0  0  0  0
    3.9160   -0.9020    1.1780 O   0  0  0  0  0  0  0  0  0  0  0  0
    4.5010   -0.3510    2.2000 C   0  0  0  0  0  0  0  0  0  0  0  0
    5.4990    0.6940    1.7890 C   0  0  0  0  0  0  0  0  0  0  0  0
    6.3240    1.5790    1.4560 C   0  0  0  0  0  0  0  0  0  0  0  0
    7.2720    2.6060    1.0580 C   0  0  0  0  0  0  0  0  0  0  0  0
    7.6890    2.3180   -0.3760 C   0  0  2  0  0  0  0  0  0  0  0  0
    8.3850    0.9850   -0.4260 C   0  0  0  0  0  0  0  0  0  0  0  0
    8.5310    3.4150   -0.9710 C   0  0  0  0  0  0  0  0  0  0  0  0
    6.3920    2.2780   -1.1840 C   0  0  0  0  0  0  0  0  0  0  0  0
    4.2710   -2.2670   -0.6900 C   0  0  0  0  0  0  0  0  0  0  0  0
  1  2  1  0
  2  3  1  0
  3  4  2  0
  3 43  1  0
  4  5  1  0
  5  6  2  0
  6  7  1  0
  6 33  1  0
  7  8  1  0
  8  9  2  0
  8 13  1  0
  9 10  1  0
 10 11  2  0
 11 12  1  0
 12 13  2  0
 13 14  1  0
 14 15  1  0
 15 16  2  0
 15 17  1  0
 17 18  1  0
 18 19  2  0
 18 31  1  0
 19 20  1  0
 20 21  2  0
 20 29  1  0
 21 22  1  0
 22 23  1  1
 22 26  1  0
 23 24  1  0
 23 25  2  0
 26 27  2  0
 26 28  1  0
 29 28  1  1
 29 30  1  0
 30 31  1  0
 31 32  2  0
 33 34  1  0
 33 43  2  0
 34 35  1  0
 35 36  1  0
 36 37  3  0
 37 38  1  0
 38 39  1  0
 39 40  1  1
 39 41  1  0
 39 42  1  0
M  END
