
     RDKit          3D

 42 45  0  0  0  0  0  0  0  0999 V2000
   -6.8130   -2.5080   -1.7090 C   0  0  0  0  0  0  0  0  0  0  0  0
   -5.6770   -3.5000   -1.6340 C   0  0  2  0  0  0  0  0  0  0  0  0
   -6.1180   -4.9190   -1.5170 C   0  0  0  0  0  0  0  0  0  0  0  0
   -4.7540   -3.1470   -0.4950 C   0  0  1  0  0  0  0  0  0  0  0  0
   -4.2130   -1.8290   -0.7000 N   0  0  0  0  0  0  0  0  0  0  0  0
   -3.4830   -0.9620    0.1740 C   0  0  0  0  0  0  0  0  0  0  0  0
   -2.9090    0.2270   -0.3690 N   0  0  0  0  0  0  0  0  0  0  0  0
   -3.6390    1.3710   -0.8440 C   0  0  1  0  0  0  0  0  0  0  0  0
   -4.4590    1.1070   -2.0920 C   0  0  0  0  0  0  0  0  0  0  0  0
   -4.8560    2.4640   -2.6730 C   0  0  0  0  0  0  0  0  0  0  0  0
   -5.7470    3.1300   -1.6880 C   0  0  2  0  0  0  0  0  0  0  0  0
   -5.4270    4.5970   -1.4930 C   0  0  0  0  0  0  0  0  0  0  0  0
   -5.8250    2.4870   -0.3480 C   0  0  0  0  0  0  0  0  0  0  0  0
   -4.4940    2.0380    0.2190 C   0  0  2  0  0  0  0  0  0  0  0  0
   -3.7830    3.1530    0.9350 C   0  0  0  0  0  0  0  0  0  0  0  0
   -3.2390   -1.0770    1.4840 C   0  0  0  0  0  0  0  0  0  0  0  0
   -2.4370    0.0050    2.1040 C   0  0  0  0  0  0  0  0  0  0  0  0
   -1.1410   -0.5210    2.6560 C   0  0  0  0  0  0  0  0  0  0  0  0
   -0.3860    0.2580    3.2550 O   0  0  0  0  0  0  0  0  0  0  0  0
   -0.7460   -1.8420    2.5250 O   0  0  0  0  0  0  0  0  0  0  0  0
    0.4630   -2.3640    3.0320 C   0  0  0  0  0  0  0  0  0  0  0  0
    1.5910   -1.7160    2.4740 C   0  0  0  0  0  0  0  0  0  0  0  0
    1.8800   -0.7820    1.5180 C   0  0  0  0  0  0  0  0  0  0  0  0
    3.1200   -0.4110    1.2660 C   0  0  0  0  0  0  0  0  0  0  0  0
    4.1630   -0.9470    1.9520 C   0  0  0  0  0  0  0  0  0  0  0  0
    5.5990   -0.7600    1.9180 C   0  0  0  0  0  0  0  0  0  0  0  0
    6.3720   -1.4020    2.6890 O   0  0  0  0  0  0  0  0  0  0  0  0
    6.1850    0.1570    1.0120 N   0  0  0  0  0  0  0  0  0  0  0  0
    7.6100    0.3200    1.0010 C   0  0  0  0  0  0  0  0  0  0  0  0
    7.9870    1.3450   -0.0530 C   0  0  2  0  0  0  0  0  0  0  0  0
    7.3550    2.6790    0.2130 C   0  0  0  0  0  0  0  0  0  0  0  0
    7.5890    0.8270   -1.3950 C   0  0  0  0  0  0  0  0  0  0  0  0
    8.3940   -0.3820   -1.8070 C   0  0  0  0  0  0  0  0  0  0  0  0
    9.8470   -0.0240   -1.7960 C   0  0  0  0  0  0  0  0  0  0  0  0
   10.2350    0.2920   -0.3660 C   0  0  0  0  0  0  0  0  0  0  0  0
    9.4890    1.5370    0.0650 C   0  0  0  0  0  0  0  0  0  0  0  0
    3.3130   -2.0980    3.0740 S   0  0  0  0  0  0  0  0  0  0  0  0
   -3.7110   -2.1540    2.3430 C   0  0  0  0  0  0  0  0  0  0  0  0
   -3.1420   -2.2090    3.4690 O   0  0  0  0  0  0  0  0  0  0  0  0
   -4.7190   -3.1380    2.0770 N   0  0  0  0  0  0  0  0  0  0  0  0
   -5.3450   -3.3820    0.8190 C   0  0  0  0  0  0  0  0  0  0  0  0
   -6.5310   -3.8480    0.9040 O   0  0  0  0  0  0  0  0  0  0  0  0
  2  1  1  1
  2  3  1  0
  2  4  1  0
  4  5  1  1
  4 41  1  0
  5  6  1  0
  6  7  1  0
  6 16  2  0
  8  7  1  1
  8  9  1  0
  8 14  1  0
  9 10  1  0
 10 11  1  0
 11 12  1  1
 11 13  1  0
 13 14  1  0
 14 15  1  6
 16 17  1  0
 16 38  1  0
 17 18  1  0
 18 19  2  0
 18 20  1  0
 20 21  1  0
 21 22  1  0
 22 23  2  0
 22 37  1  0
 23 24  1  0
 24 25  2  0
 25 26  1  0
 25 37  1  0
 26 27  2  0
 26 28  1  0
 28 29  1  0
 29 30  1  0
 30 31  1  1
 30 32  1  0
 30 36  1  0
 32 33  1  0
 33 34  1  0
 34 35  1  0
 35 36  1  0
 38 39  2  0
 38 40  1  0
 40 41  1  0
 41 42  2  0
M  END
