
     RDKit          3D

 39 42  0  0  0  0  0  0  0  0999 V2000
   -4.5370    1.9960   -3.9090 C   0  0  0  0  0  0  0  0  0  0  0  0
   -4.6560    2.1200   -2.4510 C   0  0  0  0  0  0  0  0  0  0  0  0
   -3.7420    2.7460   -1.8380 O   0  0  0  0  0  0  0  0  0  0  0  0
   -5.7150    1.5950   -1.6840 N   0  0  0  0  0  0  0  0  0  0  0  0
   -5.8320    1.7150   -0.2370 C   0  0  2  0  0  0  0  0  0  0  0  0
   -4.7830    1.0900    0.5710 C   0  0  0  0  0  0  0  0  0  0  0  0
   -4.8910    1.2250    1.8420 O   0  0  0  0  0  0  0  0  0  0  0  0
   -3.6740    0.3610    0.1180 N   0  0  0  0  0  0  0  0  0  0  0  0
   -2.6800   -0.2180    1.0900 C   0  0  2  0  0  0  0  0  0  0  0  0
   -1.3940    0.4460    0.8730 C   0  0  0  0  0  0  0  0  0  0  0  0
   -1.1170    1.0130   -0.2470 O   0  0  0  0  0  0  0  0  0  0  0  0
   -0.3860    0.5160    1.8700 N   0  0  0  0  0  0  0  0  0  0  0  0
   -0.3640   -0.0160    3.2150 C   0  0  0  0  0  0  0  0  0  0  0  0
    0.3420    1.0610    4.0510 C   0  0  2  0  0  0  0  0  0  0  0  0
   -0.5620    1.6720    4.9150 O   0  0  0  0  0  0  0  0  0  0  0  0
    0.9060    2.0290    3.0420 C   0  0  0  0  0  0  0  0  0  0  0  0
    0.8920    1.2250    1.7650 C   0  0  1  0  0  0  0  0  0  0  0  0
    2.0770    0.3740    1.7300 C   0  0  0  0  0  0  0  0  0  0  0  0
    3.1930    0.9880    1.9180 O   0  0  0  0  0  0  0  0  0  0  0  0
    2.1580   -1.0040    1.5200 N   0  0  0  0  0  0  0  0  0  0  0  0
    3.4500   -1.6720    1.5300 C   0  0  0  0  0  0  0  0  0  0  0  0
    4.2430   -1.4470    0.3120 C   0  0  0  0  0  0  0  0  0  0  0  0
    3.9370   -2.1070   -0.8580 C   0  0  0  0  0  0  0  0  0  0  0  0
    4.6560   -1.9250   -2.0170 C   0  0  0  0  0  0  0  0  0  0  0  0
    5.7480   -1.0520   -2.0730 C   0  0  0  0  0  0  0  0  0  0  0  0
    6.4220   -0.9170   -3.3030 C   0  0  0  0  0  0  0  0  0  0  0  0
    5.8770   -1.7980   -4.8250 S   0  0  0  0  0  0  0  0  0  0  0  0
    7.2340   -1.1000   -5.8920 C   0  0  0  0  0  0  0  0  0  0  0  0
    7.8180   -0.3970   -5.0420 N   0  0  0  0  0  0  0  0  0  0  0  0
    7.5210   -0.2380   -3.7940 C   0  0  0  0  0  0  0  0  0  0  0  0
    8.3350    0.6630   -2.8470 C   0  0  0  0  0  0  0  0  0  0  0  0
    6.0640   -0.3920   -0.9240 C   0  0  0  0  0  0  0  0  0  0  0  0
    5.3160   -0.5920    0.2510 C   0  0  0  0  0  0  0  0  0  0  0  0
   -2.7240   -1.6970    0.9030 C   0  0  2  0  0  0  0  0  0  0  0  0
   -4.1960   -2.0880    1.2040 C   0  0  0  0  0  0  0  0  0  0  0  0
   -1.9130   -2.4440    1.8950 C   0  0  0  0  0  0  0  0  0  0  0  0
   -2.4870   -2.1280   -0.5270 C   0  0  0  0  0  0  0  0  0  0  0  0
   -7.2610    1.7410    0.2540 C   0  0  0  0  0  0  0  0  0  0  0  0
   -6.4150    2.9610    0.3360 C   0  0  0  0  0  0  0  0  0  0  0  0
  1  2  1  0
  2  3  2  0
  2  4  1  0
  5  4  1  6
  5  6  1  0
  5 38  1  0
  5 39  1  0
  6  7  2  0
  6  8  1  0
  9  8  1  6
  9 10  1  0
  9 34  1  0
 10 11  2  0
 10 12  1  0
 12 13  1  0
 12 17  1  0
 13 14  1  0
 14 15  1  1
 14 16  1  0
 16 17  1  0
 17 18  1  1
 18 19  2  0
 18 20  1  0
 20 21  1  0
 21 22  1  0
 22 23  2  0
 22 33  1  0
 23 24  1  0
 24 25  2  0
 25 26  1  0
 25 32  1  0
 26 27  1  0
 26 30  2  0
 27 28  1  0
 28 29  2  0
 29 30  1  0
 30 31  1  0
 32 33  2  0
 34 35  1  1
 34 36  1  0
 34 37  1  0
 38 39  1  0
M  END
