
     RDKit          3D

 43 46  0  0  0  0  0  0  0  0999 V2000
   -5.1870    1.2440   -2.1500 C   0  0  0  0  0  0  0  0  0  0  0  0
   -6.4770    0.8470   -1.5030 C   0  0  0  0  0  0  0  0  0  0  0  0
   -6.3380    0.5720   -0.0290 C   0  0  0  0  0  0  0  0  0  0  0  0
   -5.1750    0.6760    0.5460 C   0  0  0  0  0  0  0  0  0  0  0  0
   -4.8270    0.4680    1.9270 C   0  0  0  0  0  0  0  0  0  0  0  0
   -5.4610    1.3060    2.8700 C   0  0  0  0  0  0  0  0  0  0  0  0
   -5.2600    1.1460    4.2100 C   0  0  0  0  0  0  0  0  0  0  0  0
   -4.4180    0.1380    4.6280 C   0  0  0  0  0  0  0  0  0  0  0  0
   -3.8010   -0.6770    3.7150 C   0  0  0  0  0  0  0  0  0  0  0  0
   -3.9890   -0.5330    2.3180 C   0  0  0  0  0  0  0  0  0  0  0  0
   -3.2480   -1.4140    1.4300 C   0  0  0  0  0  0  0  0  0  0  0  0
   -3.2660   -2.6760    1.6510 O   0  0  0  0  0  0  0  0  0  0  0  0
   -2.4690   -1.0550    0.3120 N   0  0  0  0  0  0  0  0  0  0  0  0
   -1.7740   -2.0140   -0.5180 C   0  0  2  0  0  0  0  0  0  0  0  0
   -0.3330   -2.0380   -0.1450 C   0  0  0  0  0  0  0  0  0  0  0  0
    0.5380   -0.9530   -0.6890 C   0  0  0  0  0  0  0  0  0  0  0  0
   -0.1260   -0.2890   -1.7560 N   0  0  0  0  0  0  0  0  0  0  0  0
   -0.0080    1.0970   -1.9710 C   0  0  0  0  0  0  0  0  0  0  0  0
   -0.8520    1.5370   -2.8900 O   0  0  0  0  0  0  0  0  0  0  0  0
    0.8520    2.1060   -1.3810 C   0  0  0  0  0  0  0  0  0  0  0  0
    1.9060    1.7120   -0.5010 N   0  0  0  0  0  0  0  0  0  0  0  0
    2.9990    0.9090   -1.0160 C   0  0  0  0  0  0  0  0  0  0  0  0
    2.9620    0.5970   -2.2240 O   0  0  0  0  0  0  0  0  0  0  0  0
    4.1130    0.4730   -0.1450 C   0  0  0  0  0  0  0  0  0  0  0  0
    5.0600   -0.3890   -0.8690 C   0  0  0  0  0  0  0  0  0  0  0  0
    6.3610   -0.1020   -1.0060 C   0  0  0  0  0  0  0  0  0  0  0  0
    7.3420   -0.9530   -1.7320 C   0  0  0  0  0  0  0  0  0  0  0  0
    8.4870   -0.0270   -2.0000 C   0  0  0  0  0  0  0  0  0  0  0  0
    8.4380    0.9000   -0.7920 C   0  0  2  0  0  0  0  0  0  0  0  0
    9.1940    0.3110    0.3340 C   0  0  0  0  0  0  0  0  0  0  0  0
   10.3300    0.8140    0.7600 C   0  0  0  0  0  0  0  0  0  0  0  0
   11.0360    0.1770    1.8880 C   0  0  0  0  0  0  0  0  0  0  0  0
   10.8410    1.9650    0.1120 N   0  0  0  0  0  0  0  0  0  0  0  0
    7.0410    0.9960   -0.5230 O   0  0  0  0  0  0  0  0  0  0  0  0
   -0.9050   -1.1280   -2.6760 C   0  0  0  0  0  0  0  0  0  0  0  0
   -2.0060   -1.8930   -1.9880 C   0  0  0  0  0  0  0  0  0  0  0  0
   -7.5480    0.1320    0.6400 C   0  0  0  0  0  0  0  0  0  0  0  0
   -8.7700    0.0100    0.1470 C   0  0  0  0  0  0  0  0  0  0  0  0
   -9.7910   -0.4460    1.0090 C   0  0  0  0  0  0  0  0  0  0  0  0
  -11.1400   -0.6150    0.6020 O   0  0  0  0  0  0  0  0  0  0  0  0
   -9.4680   -0.7270    2.2480 C   0  0  0  0  0  0  0  0  0  0  0  0
   -7.7330   -0.3980    2.3460 S   0  0  0  0  0  0  0  0  0  0  0  0
   -6.9560   -1.7250    2.4570 O   0  0  0  0  0  0  0  0  0  0  0  0
  1  2  1  0
  2  3  1  0
  3  4  2  3
  3 37  1  0
  4  5  1  0
  5  6  2  0
  5 10  1  0
  6  7  1  0
  7  8  2  0
  8  9  1  0
  9 10  2  0
 10 11  1  0
 11 12  2  0
 11 13  1  0
 14 13  1  1
 14 15  1  0
 14 36  1  0
 15 16  1  0
 16 17  1  0
 17 18  1  0
 17 35  1  0
 18 19  2  0
 18 20  1  0
 20 21  1  0
 21 22  1  0
 22 23  2  0
 22 24  1  0
 24 25  1  0
 25 26  2  3
 26 27  1  0
 26 34  1  0
 27 28  1  0
 28 29  1  0
 29 30  1  1
 29 34  1  0
 30 31  2  3
 31 32  1  0
 31 33  1  0
 35 36  1  0
 37 38  2  0
 37 42  1  0
 38 39  1  0
 39 40  1  0
 39 41  2  0
 42 41  1  6
 42 43  2  0
M  END
