
     RDKit          3D

 37 41  0  0  0  0  0  0  0  0999 V2000
   -4.9060   -3.3580    1.2200 C   0  0  0  0  0  0  0  0  0  0  0  0
   -5.0270   -2.4970    0.0080 C   0  0  0  0  0  0  0  0  0  0  0  0
   -5.8280   -2.6850   -0.9800 O   0  0  0  0  0  0  0  0  0  0  0  0
   -5.7220   -1.7670   -1.8970 C   0  0  0  0  0  0  0  0  0  0  0  0
   -4.7290   -0.8770   -1.4550 C   0  0  0  0  0  0  0  0  0  0  0  0
   -4.2890   -1.3290   -0.2610 C   0  0  0  0  0  0  0  0  0  0  0  0
   -3.1770   -0.8970    0.5680 C   0  0  2  0  0  0  0  0  0  0  0  0
   -3.4210    0.0670    1.6840 C   0  0  0  0  0  0  0  0  0  0  0  0
   -4.3910    1.1570    1.5180 C   0  0  0  0  0  0  0  0  0  0  0  0
   -4.6550    1.3440    0.1370 N   0  0  0  0  0  0  0  0  0  0  0  0
   -5.9180    1.9680   -0.0460 C   0  0  0  0  0  0  0  0  0  0  0  0
   -6.0420    3.2840    0.5630 N   0  0  0  0  0  0  0  0  0  0  0  0
   -3.5400    1.9110   -0.5680 C   0  0  0  0  0  0  0  0  0  0  0  0
   -2.2680    1.2220   -0.5630 C   0  0  0  0  0  0  0  0  0  0  0  0
   -2.0690   -0.2060   -0.2070 C   0  0  2  0  0  0  0  0  0  0  0  0
   -1.4510   -0.8920   -1.2610 N   0  0  0  0  0  0  0  0  0  0  0  0
   -0.6480   -2.0070   -1.1610 C   0  0  0  0  0  0  0  0  0  0  0  0
    0.2810   -2.3640   -0.1170 C   0  0  0  0  0  0  0  0  0  0  0  0
    1.3920   -1.5310    0.2900 C   0  0  0  0  0  0  0  0  0  0  0  0
    1.6110   -1.0850    1.5630 N   0  0  0  0  0  0  0  0  0  0  0  0
    2.7410   -0.4560    1.6530 N   0  0  0  0  0  0  0  0  0  0  0  0
    3.2610    0.0960    2.8790 C   0  0  0  0  0  0  0  0  0  0  0  0
    4.1590    1.1340    2.8990 C   0  0  0  0  0  0  0  0  0  0  0  0
    4.6080    1.6130    4.1230 C   0  0  0  0  0  0  0  0  0  0  0  0
    4.2150    1.1180    5.2850 N   0  0  0  0  0  0  0  0  0  0  0  0
    3.3280    0.0900    5.3260 C   0  0  0  0  0  0  0  0  0  0  0  0
    2.8790   -0.3880    4.1170 C   0  0  0  0  0  0  0  0  0  0  0  0
    3.3370   -0.4430    0.4500 C   0  0  0  0  0  0  0  0  0  0  0  0
    4.5010    0.1110    0.0760 N   0  0  0  0  0  0  0  0  0  0  0  0
    4.9140    0.0230   -1.2110 C   0  0  0  0  0  0  0  0  0  0  0  0
    6.1730    0.6480   -1.6530 C   0  0  1  0  0  0  0  0  0  0  0  0
    5.9360    1.2730   -3.0430 C   0  0  0  0  0  0  0  0  0  0  0  0
    6.5880    1.7990   -0.7710 C   0  0  0  0  0  0  0  0  0  0  0  0
    7.2440   -0.4110   -1.7350 C   0  0  0  0  0  0  0  0  0  0  0  0
    4.1100   -0.6360   -2.0840 C   0  0  0  0  0  0  0  0  0  0  0  0
    2.8840   -1.2280   -1.7450 C   0  0  0  0  0  0  0  0  0  0  0  0
    2.4980   -1.1130   -0.4040 C   0  0  0  0  0  0  0  0  0  0  0  0
  1  2  1  0
  2  3  1  0
  2  6  2  0
  3  4  1  0
  4  5  2  0
  5  6  1  0
  7  6  1  6
  7  8  1  0
  7 15  1  0
  8  9  1  0
  9 10  1  0
 10 11  1  0
 10 13  1  0
 11 12  1  0
 13 14  1  0
 14 15  1  0
 15 16  1  6
 16 17  1  0
 17 18  1  0
 18 19  1  0
 19 20  2  0
 19 37  1  0
 20 21  1  0
 21 22  1  0
 21 28  1  0
 22 23  2  0
 22 27  1  0
 23 24  1  0
 24 25  2  0
 25 26  1  0
 26 27  2  0
 28 29  2  0
 28 37  1  0
 29 30  1  0
 30 31  1  0
 30 35  2  0
 31 32  1  6
 31 33  1  0
 31 34  1  0
 35 36  1  0
 36 37  2  0
M  CHG  2  12   1  16   1
M  END
