
     RDKit          3D

 37 41  0  0  0  0  0  0  0  0999 V2000
   -3.8210    6.6720    0.1060 C   0  0  0  0  0  0  0  0  0  0  0  0
   -3.9670    5.9350   -1.2030 C   0  0  0  0  0  0  0  0  0  0  0  0
   -3.8730    4.4530   -0.9900 C   0  0  0  0  0  0  0  0  0  0  0  0
   -4.9640    3.6660   -0.7470 C   0  0  0  0  0  0  0  0  0  0  0  0
   -4.8290    2.3070   -0.5530 C   0  0  0  0  0  0  0  0  0  0  0  0
   -3.5870    1.6660   -0.5930 C   0  0  0  0  0  0  0  0  0  0  0  0
   -3.5240    0.2350   -0.3670 C   0  0  0  0  0  0  0  0  0  0  0  0
   -4.6110   -0.5400   -0.0710 N   0  0  0  0  0  0  0  0  0  0  0  0
   -4.2620   -1.8050    0.0850 C   0  0  0  0  0  0  0  0  0  0  0  0
   -5.1710   -2.9070    0.4050 C   0  0  0  0  0  0  0  0  0  0  0  0
   -6.5280   -2.7140    0.5280 C   0  0  0  0  0  0  0  0  0  0  0  0
   -7.3950   -3.7300    0.8370 C   0  0  0  0  0  0  0  0  0  0  0  0
   -6.8660   -4.9840    1.0260 C   0  0  0  0  0  0  0  0  0  0  0  0
   -5.5290   -5.2110    0.9120 N   0  0  0  0  0  0  0  0  0  0  0  0
   -5.0360   -6.5600    1.1260 C   0  0  0  0  0  0  0  0  0  0  0  0
   -4.7090   -4.1930    0.6090 C   0  0  0  0  0  0  0  0  0  0  0  0
   -3.4650   -4.4410    0.5100 O   0  0  0  0  0  0  0  0  0  0  0  0
   -2.9390   -1.8430   -0.1130 N   0  0  0  0  0  0  0  0  0  0  0  0
   -2.4820   -0.6030   -0.3900 N   0  0  0  0  0  0  0  0  0  0  0  0
   -1.1130   -0.3360   -0.6550 C   0  0  0  0  0  0  0  0  0  0  0  0
   -0.2270   -0.0970    0.3560 C   0  0  0  0  0  0  0  0  0  0  0  0
    1.1040    0.1430    0.0610 C   0  0  0  0  0  0  0  0  0  0  0  0
    1.6000    0.1570   -1.2020 C   0  0  0  0  0  0  0  0  0  0  0  0
    2.9020    0.3940   -1.5780 N   0  0  0  0  0  0  0  0  0  0  0  0
    3.9040    0.6460   -0.6170 C   0  0  0  0  0  0  0  0  0  0  0  0
    4.9510   -0.4300   -0.5630 C   0  0  2  0  0  0  0  0  0  0  0  0
    4.3840   -1.7820   -0.2260 C   0  0  0  0  0  0  0  0  0  0  0  0
    5.2390   -2.3690    0.8570 C   0  0  0  0  0  0  0  0  0  0  0  0
    6.4550   -1.4570    0.8630 C   0  0  0  0  0  0  0  0  0  0  0  0
    6.0030   -0.2290    0.3360 N   0  0  0  0  0  0  0  0  0  0  0  0
    6.8810    0.8350    0.1860 C   0  0  0  0  0  0  0  0  0  0  0  0
    7.4440    1.5300    1.3600 C   0  0  0  0  0  0  0  0  0  0  0  0
    8.2270    0.7540    2.2680 N   0  0  0  0  0  0  0  0  0  0  0  0
    0.6780   -0.0910   -2.2290 C   0  0  0  0  0  0  0  0  0  0  0  0
   -0.6490   -0.3310   -1.9540 C   0  0  0  0  0  0  0  0  0  0  0  0
   -2.5210    2.4870   -0.8390 C   0  0  0  0  0  0  0  0  0  0  0  0
   -2.6320    3.8620   -1.0390 C   0  0  0  0  0  0  0  0  0  0  0  0
  1  2  1  0
  2  3  1  0
  3  4  2  0
  3 37  1  0
  4  5  1  0
  5  6  2  0
  6  7  1  0
  6 36  1  0
  7  8  2  0
  7 19  1  0
  8  9  1  0
  9 10  1  0
  9 18  2  0
 10 11  2  0
 10 16  1  0
 11 12  1  0
 12 13  2  0
 13 14  1  0
 14 15  1  0
 14 16  1  0
 16 17  2  0
 18 19  1  0
 19 20  1  0
 20 21  2  0
 20 35  1  0
 21 22  1  0
 22 23  2  0
 23 24  1  0
 23 34  1  0
 24 25  1  0
 26 25  1  1
 26 27  1  0
 26 30  1  0
 27 28  1  0
 28 29  1  0
 29 30  1  0
 30 31  1  0
 31 32  1  0
 32 33  1  0
 34 35  2  0
 36 37  2  0
M  CHG  2  24   1  33   1
M  END
