
     RDKit          3D

 37 40  0  0  0  0  0  0  0  0999 V2000
   -2.2780    7.3100    1.1720 C   0  0  0  0  0  0  0  0  0  0  0  0
   -1.6610    5.9650    1.1270 C   0  0  0  0  0  0  0  0  0  0  0  0
   -1.1620    5.4450   -0.0610 C   0  0  0  0  0  0  0  0  0  0  0  0
   -0.5840    4.2030   -0.1390 C   0  0  0  0  0  0  0  0  0  0  0  0
   -0.4860    3.4280    0.9930 C   0  0  0  0  0  0  0  0  0  0  0  0
    0.1280    2.0760    0.9850 C   0  0  0  0  0  0  0  0  0  0  0  0
   -0.8500    1.0480    0.6840 N   0  0  0  0  0  0  0  0  0  0  0  0
   -0.5620   -0.0150    0.0770 C   0  0  0  0  0  0  0  0  0  0  0  0
   -1.5780   -0.9780   -0.1850 N   0  0  0  0  0  0  0  0  0  0  0  0
   -2.8440   -0.5950   -0.7000 C   0  0  0  0  0  0  0  0  0  0  0  0
   -2.9480    0.6830   -1.2660 C   0  0  0  0  0  0  0  0  0  0  0  0
   -4.1360    1.0540   -1.8320 C   0  0  0  0  0  0  0  0  0  0  0  0
   -5.2150    0.2160   -1.8610 C   0  0  0  0  0  0  0  0  0  0  0  0
   -5.1160   -1.0160   -1.3160 C   0  0  0  0  0  0  0  0  0  0  0  0
   -3.9410   -1.4520   -0.7270 C   0  0  0  0  0  0  0  0  0  0  0  0
   -3.8820   -2.7770   -0.0980 C   0  0  0  0  0  0  0  0  0  0  0  0
   -2.8930   -3.2310    0.5250 O   0  0  0  0  0  0  0  0  0  0  0  0
   -4.9800   -3.6970   -0.1400 N   0  0  0  0  0  0  0  0  0  0  0  0
   -4.9000   -5.0230    0.4990 C   0  0  1  0  0  0  0  0  0  0  0  0
   -6.0810   -5.2540    1.3990 C   0  0  0  0  0  0  0  0  0  0  0  0
   -4.9930   -6.0220   -0.6470 C   0  0  0  0  0  0  0  0  0  0  0  0
    0.8080   -0.2550   -0.3140 N   0  0  0  0  0  0  0  0  0  0  0  0
    1.7630   -0.7790    0.6320 C   0  0  0  0  0  0  0  0  0  0  0  0
    3.0270    0.0350    0.5920 C   0  0  0  0  0  0  0  0  0  0  0  0
    3.5430    0.1860   -0.7280 N   0  0  0  0  0  0  0  0  0  0  0  0
    4.3800   -0.8680   -1.2020 C   0  0  0  0  0  0  0  0  0  0  0  0
    5.5920   -1.0640   -0.3660 C   0  0  0  0  0  0  0  0  0  0  0  0
    5.6190   -1.9970    0.6470 C   0  0  0  0  0  0  0  0  0  0  0  0
    6.7450   -2.1600    1.4030 C   0  0  0  0  0  0  0  0  0  0  0  0
    7.8590   -1.4180    1.1860 N   0  0  0  0  0  0  0  0  0  0  0  0
    7.8160   -0.5170    0.1980 C   0  0  0  0  0  0  0  0  0  0  0  0
    9.0480    0.2960   -0.0360 C   0  0  0  0  0  0  0  0  0  0  0  0
    6.7160   -0.3460   -0.5530 N   0  0  0  0  0  0  0  0  0  0  0  0
    2.5970    0.6640   -1.6840 C   0  0  0  0  0  0  0  0  0  0  0  0
    1.2590    0.0060   -1.6580 C   0  0  0  0  0  0  0  0  0  0  0  0
   -0.9710    3.9130    2.1890 C   0  0  0  0  0  0  0  0  0  0  0  0
   -1.5500    5.1670    2.2440 C   0  0  0  0  0  0  0  0  0  0  0  0
  1  2  1  0
  2  3  2  0
  2 37  1  0
  3  4  1  0
  4  5  2  0
  5  6  1  0
  5 36  1  0
  6  7  1  0
  7  8  2  3
  8  9  1  0
  8 22  1  0
  9 10  1  0
 10 11  2  0
 10 15  1  0
 11 12  1  0
 12 13  2  0
 13 14  1  0
 14 15  2  0
 15 16  1  0
 16 17  2  0
 16 18  1  0
 18 19  1  0
 19 20  1  1
 19 21  1  0
 22 23  1  0
 22 35  1  0
 23 24  1  0
 24 25  1  0
 25 26  1  0
 25 34  1  0
 26 27  1  0
 27 28  2  0
 27 33  1  0
 28 29  1  0
 29 30  2  0
 30 31  1  0
 31 32  1  0
 31 33  2  0
 34 35  1  0
 36 37  2  0
M  CHG  2   7   1  33   1
M  END
