
     RDKit          3D

 37 41  0  0  0  0  0  0  0  0999 V2000
    4.5190    0.5190   -3.1390 C   0  0  0  0  0  0  0  0  0  0  0  0
    3.8710    0.5580   -1.7560 C   0  0  0  0  0  0  0  0  0  0  0  0
    4.8570    0.7230   -0.7260 N   0  0  0  0  0  0  0  0  0  0  0  0
    5.5760    1.9770   -0.6550 C   0  0  0  0  0  0  0  0  0  0  0  0
    5.1540   -0.2640    0.2320 C   0  0  0  0  0  0  0  0  0  0  0  0
    6.3530   -0.8740    0.1960 N   0  0  0  0  0  0  0  0  0  0  0  0
    6.7290   -1.8260    1.0630 C   0  0  0  0  0  0  0  0  0  0  0  0
    5.8120   -2.1740    2.0310 C   0  0  0  0  0  0  0  0  0  0  0  0
    4.5620   -1.6040    2.1450 C   0  0  0  0  0  0  0  0  0  0  0  0
    3.5930   -1.9760    3.1930 C   0  0  0  0  0  0  0  0  0  0  0  0
    4.2430   -0.6160    1.2000 C   0  0  0  0  0  0  0  0  0  0  0  0
    2.9950    0.0400    1.2310 N   0  0  0  0  0  0  0  0  0  0  0  0
    1.8950   -0.5080    0.8350 C   0  0  0  0  0  0  0  0  0  0  0  0
    1.9770   -1.8420    0.3480 N   0  0  0  0  0  0  0  0  0  0  0  0
    0.9120   -2.5370   -0.2990 C   0  0  0  0  0  0  0  0  0  0  0  0
    0.9540   -3.7900   -0.1550 O   0  0  0  0  0  0  0  0  0  0  0  0
   -0.1850   -2.0050   -1.0810 C   0  0  0  0  0  0  0  0  0  0  0  0
   -0.8880   -0.8660   -0.5460 N   0  0  0  0  0  0  0  0  0  0  0  0
   -2.2050   -0.8890   -1.0610 C   0  0  0  0  0  0  0  0  0  0  0  0
   -3.1600   -0.0280   -0.8300 C   0  0  0  0  0  0  0  0  0  0  0  0
   -4.4920   -0.1440   -1.4110 C   0  0  0  0  0  0  0  0  0  0  0  0
   -4.7400   -1.4080   -2.2100 C   0  0  0  0  0  0  0  0  0  0  0  0
   -4.6530   -2.6160   -1.4290 N   0  0  0  0  0  0  0  0  0  0  0  0
   -6.0150   -3.1660   -1.3290 C   0  0  0  0  0  0  0  0  0  0  0  0
   -2.8700    1.1450    0.0800 C   0  0  0  0  0  0  0  0  0  0  0  0
   -3.8190    1.9950    0.2900 C   0  0  0  0  0  0  0  0  0  0  0  0
   -4.2470    3.1850    0.9160 C   0  0  0  0  0  0  0  0  0  0  0  0
   -5.5570    3.6360    0.8380 C   0  0  0  0  0  0  0  0  0  0  0  0
   -5.6330    4.8760    1.6000 C   0  0  0  0  0  0  0  0  0  0  0  0
   -4.5630    4.8210    2.3070 N   0  0  0  0  0  0  0  0  0  0  0  0
   -3.6300    4.3140    1.5750 C   0  0  0  0  0  0  0  0  0  0  0  0
   -1.5150    1.1680    0.6180 C   0  0  0  0  0  0  0  0  0  0  0  0
   -1.1900    2.1810    1.5150 C   0  0  0  0  0  0  0  0  0  0  0  0
    0.0280    2.2950    2.1180 C   0  0  0  0  0  0  0  0  0  0  0  0
    0.9910    1.3850    1.8480 C   0  0  0  0  0  0  0  0  0  0  0  0
    0.6990    0.3560    0.9620 C   0  0  0  0  0  0  0  0  0  0  0  0
   -0.5280    0.2100    0.3330 C   0  0  0  0  0  0  0  0  0  0  0  0
  1  2  1  0
  2  3  1  0
  3  4  1  0
  3  5  1  0
  5  6  2  0
  5 11  1  0
  6  7  1  0
  7  8  2  0
  8  9  1  0
  9 10  1  0
  9 11  2  0
 11 12  1  0
 12 13  2  3
 13 14  1  0
 13 36  1  0
 14 15  1  0
 15 16  2  0
 15 17  1  0
 17 18  1  0
 18 19  1  0
 18 37  1  0
 19 20  2  0
 20 21  1  0
 20 25  1  0
 21 22  1  0
 22 23  1  0
 23 24  1  0
 25 26  2  3
 25 32  1  0
 26 27  1  0
 27 28  2  0
 27 31  1  0
 28 29  1  0
 29 30  2  0
 30 31  2  0
 32 33  1  0
 32 37  2  0
 33 34  2  0
 34 35  1  0
 35 36  2  0
 36 37  1  0
M  CHG  2  23   1  30   1
M  END
