
     RDKit          3D

 37 41  0  0  0  0  0  0  0  0999 V2000
   -9.7330   -2.4310    2.6630 C   0  0  0  0  0  0  0  0  0  0  0  0
   -9.5210   -1.2540    2.0750 C   0  0  0  0  0  0  0  0  0  0  0  0
   -8.9700   -1.1320    0.7990 N   0  0  0  0  0  0  0  0  0  0  0  0
   -7.7760   -0.8350    0.4740 C   0  0  0  0  0  0  0  0  0  0  0  0
   -6.6080   -0.5270    1.2980 C   0  0  0  0  0  0  0  0  0  0  0  0
   -6.6230   -0.4880    2.5850 N   0  0  0  0  0  0  0  0  0  0  0  0
   -5.4950   -0.2660    0.4470 N   0  0  0  0  0  0  0  0  0  0  0  0
   -4.1440    0.0400    0.7740 C   0  0  0  0  0  0  0  0  0  0  0  0
   -3.4480    0.9700    0.0140 C   0  0  0  0  0  0  0  0  0  0  0  0
   -2.1320    1.2530    0.2810 C   0  0  0  0  0  0  0  0  0  0  0  0
   -1.4420    0.6390    1.3030 C   0  0  0  0  0  0  0  0  0  0  0  0
    0.0100    0.9660    1.5440 C   0  0  2  0  0  0  0  0  0  0  0  0
    0.1320    2.3020    2.2260 C   0  0  0  0  0  0  0  0  0  0  0  0
    0.6670    0.9040    0.2860 N   0  0  0  0  0  0  0  0  0  0  0  0
    2.0840    1.0760    0.2740 C   0  0  1  0  0  0  0  0  0  0  0  0
    2.8280    0.0170    1.0360 C   0  0  0  0  0  0  0  0  0  0  0  0
    3.6590   -0.8760    0.1590 C   0  0  0  0  0  0  0  0  0  0  0  0
    4.5880   -0.1610   -0.6710 N   0  0  2  0  0  0  0  0  0  0  0  0
    5.8830    0.0910   -0.0590 C   0  0  1  0  0  0  0  0  0  0  0  0
    6.2000   -1.0110    0.9310 C   0  0  0  0  0  0  0  0  0  0  0  0
    6.9080    0.1670   -1.1410 C   0  0  0  0  0  0  0  0  0  0  0  0
    7.2470    1.2830   -1.9080 C   0  0  0  0  0  0  0  0  0  0  0  0
    6.7780    2.6650   -1.7700 C   0  0  0  0  0  0  0  0  0  0  0  0
    8.1640    0.9000   -2.8190 N   0  0  0  0  0  0  0  0  0  0  0  0
    8.4160   -0.3520   -2.6740 O   0  0  0  0  0  0  0  0  0  0  0  0
    7.6820   -0.8520   -1.6680 C   0  0  0  0  0  0  0  0  0  0  0  0
    7.7310   -2.2570   -1.2420 C   0  0  0  0  0  0  0  0  0  0  0  0
    4.0380    1.0510   -1.1840 C   0  0  0  0  0  0  0  0  0  0  0  0
    2.5090    0.9940   -1.1840 C   0  0  0  0  0  0  0  0  0  0  0  0
   -2.1270   -0.2820    2.0580 C   0  0  0  0  0  0  0  0  0  0  0  0
   -3.4670   -0.5710    1.7860 C   0  0  0  0  0  0  0  0  0  0  0  0
   -5.9860   -0.4130   -0.9080 C   0  0  0  0  0  0  0  0  0  0  0  0
   -5.3450   -0.2740   -2.0850 N   0  0  0  0  0  0  0  0  0  0  0  0
   -6.0150   -0.4610   -3.2270 C   0  0  0  0  0  0  0  0  0  0  0  0
   -7.3460   -0.7950   -3.2890 C   0  0  0  0  0  0  0  0  0  0  0  0
   -8.0240   -0.9430   -2.0840 C   0  0  0  0  0  0  0  0  0  0  0  0
   -7.3000   -0.7410   -0.9220 C   0  0  0  0  0  0  0  0  0  0  0  0
  1  2  2  0
  2  3  1  0
  3  4  2  3
  4  5  1  0
  4 37  1  0
  5  6  2  0
  5  7  1  0
  7  8  1  0
  7 32  1  0
  8  9  2  0
  8 31  1  0
  9 10  1  0
 10 11  2  0
 11 12  1  0
 11 30  1  0
 12 13  1  6
 12 14  1  0
 15 14  1  6
 15 16  1  0
 15 29  1  0
 16 17  1  0
 18 17  1  1
 18 19  1  0
 18 28  1  0
 19 20  1  1
 19 21  1  0
 21 22  1  0
 21 26  2  0
 22 23  1  0
 22 24  2  0
 24 25  1  0
 25 26  1  0
 26 27  1  0
 28 29  1  0
 30 31  2  0
 32 33  2  0
 32 37  1  0
 33 34  1  0
 34 35  2  0
 35 36  1  0
 36 37  2  0
M  CHG  2   6   1  18   1
M  END
