
     RDKit          3D

 16 15  0  0  0  0  0  0  0  0999 V2000
    4.7640   -0.9400    0.7500 N   0  0  0  0  0  0  0  0  0  0  0  0
    3.6110   -0.2420    0.3450 N   0  0  0  0  0  0  0  0  0  0  0  0
    2.9090   -0.6390   -0.8270 C   0  0  0  0  0  0  0  0  0  0  0  0
    3.3370   -1.6060   -1.4720 O   0  0  0  0  0  0  0  0  0  0  0  0
    1.7110    0.0800   -1.2560 C   0  0  1  0  0  0  0  0  0  0  0  0
    1.2190   -0.4980   -2.4150 O   0  0  0  0  0  0  0  0  0  0  0  0
    0.6120    0.0780   -0.1880 C   0  0  2  0  0  0  0  0  0  0  0  0
    0.2740   -1.2520    0.0200 O   0  0  0  0  0  0  0  0  0  0  0  0
   -0.5610    0.8120   -0.7880 C   0  0  2  0  0  0  0  0  0  0  0  0
   -0.1850    2.1420   -0.9820 O   0  0  0  0  0  0  0  0  0  0  0  0
   -1.7800    0.7700    0.1090 C   0  0  0  0  0  0  0  0  0  0  0  0
   -2.1320   -0.5300    0.2870 O   0  0  0  0  0  0  0  0  0  0  0  0
   -3.4720   -0.5930    1.2680 P   0  0  0  0  0  0  0  0  0  0  0  0
   -4.2960    0.1200    0.1920 O   0  0  0  0  0  0  0  0  0  0  0  0
   -3.6990    0.4700    2.4660 O   0  0  0  0  0  0  0  0  0  0  0  0
   -4.4920   -1.9140    1.1500 O   0  0  0  0  0  0  0  0  0  0  0  0
  1  2  1  0
  2  3  1  0
  3  4  2  0
  3  5  1  0
  5  6  1  6
  5  7  1  0
  7  8  1  6
  7  9  1  0
  9 10  1  1
  9 11  1  0
 11 12  1  0
 12 13  1  0
 13 14  1  0
 13 15  1  0
 13 16  1  0
M  CHG  1   1   1
M  END
