
     RDKit          3D

 20 20  0  0  0  0  0  0  0  0999 V2000
    4.8600    2.6430    1.1560 C   0  0  0  0  0  0  0  0  0  0  0  0
    4.3570    1.6480    0.2810 O   0  0  0  0  0  0  0  0  0  0  0  0
    3.8470    0.4410    0.7290 C   0  0  0  0  0  0  0  0  0  0  0  0
    3.8530    0.2670    1.9750 O   0  0  0  0  0  0  0  0  0  0  0  0
    3.3440   -0.5360   -0.2640 C   0  0  2  0  0  0  0  0  0  0  0  0
    3.6540   -0.0450   -1.5750 N   0  0  0  0  0  0  0  0  0  0  0  0
    2.0310   -1.1060   -0.0490 C   0  0  0  0  0  0  0  0  0  0  0  0
    0.7740   -0.2840    0.0140 C   0  0  2  0  0  0  0  0  0  0  0  0
    0.5490    0.4810   -1.2920 C   0  0  0  0  0  0  0  0  0  0  0  0
    0.8390    0.6970    1.1770 C   0  0  0  0  0  0  0  0  0  0  0  0
   -0.1590   -1.2040    0.1280 O   0  0  0  0  0  0  0  0  0  0  0  0
   -1.4070   -1.3430    0.2350 C   0  0  1  0  0  0  0  0  0  0  0  0
   -1.6300   -2.8930    0.2920 C   0  0  0  0  0  0  0  0  0  0  0  0
   -1.8970   -0.9050    1.6150 C   0  0  0  0  0  0  0  0  0  0  0  0
   -2.8790    0.2020    1.3990 C   0  0  0  0  0  0  0  0  0  0  0  0
   -3.4180    0.0230    0.0150 C   0  0  1  0  0  0  0  0  0  0  0  0
   -4.7460   -0.5290    0.0570 N   0  0  0  0  0  0  0  0  0  0  0  0
   -3.5240    1.3960   -0.6250 C   0  0  0  0  0  0  0  0  0  0  0  0
   -4.0410    1.3020   -1.9170 O   0  0  0  0  0  0  0  0  0  0  0  0
   -2.4210   -0.8520   -0.7240 C   0  0  0  0  0  0  0  0  0  0  0  0
  1  2  1  0
  2  3  1  0
  3  4  2  0
  3  5  1  0
  5  6  1  6
  5  7  1  0
  7  8  1  0
  8  9  1  6
  8 10  1  0
  8 11  1  0
 11 12  1  0
 12 13  1  1
 12 14  1  0
 12 20  1  0
 14 15  1  0
 15 16  1  0
 16 17  1  1
 16 18  1  0
 16 20  1  0
 18 19  1  0
M  CHG  1   6   1
M  END
