
     RDKit          3D

 20 20  0  0  0  0  0  0  0  0999 V2000
    4.8940    1.3810    1.1610 C   0  0  0  0  0  0  0  0  0  0  0  0
    3.8970    0.3840    0.6420 C   0  0  2  0  0  0  0  0  0  0  0  0
    4.3640   -0.3630   -0.5670 C   0  0  0  0  0  0  0  0  0  0  0  0
    3.1750   -0.4200   -1.5350 C   0  0  0  0  0  0  0  0  0  0  0  0
    2.1240   -0.9670   -0.8330 O   0  0  0  0  0  0  0  0  0  0  0  0
    1.5970   -0.1200    0.1350 C   0  0  2  0  0  0  0  0  0  0  0  0
    1.3870   -0.8490    1.4550 C   0  0  0  0  0  0  0  0  0  0  0  0
    0.3260    0.2910   -0.3170 O   0  0  0  0  0  0  0  0  0  0  0  0
   -0.6190   -0.7000   -0.5400 C   0  0  0  0  0  0  0  0  0  0  0  0
   -0.3460   -1.9080   -0.3460 O   0  0  0  0  0  0  0  0  0  0  0  0
   -1.9850   -0.3650   -1.0170 C   0  0  2  0  0  0  0  0  0  0  0  0
   -2.6960    0.5270   -0.0800 C   0  0  0  0  0  0  0  0  0  0  0  0
   -2.9020    1.8210   -0.2910 C   0  0  0  0  0  0  0  0  0  0  0  0
   -3.5930    2.6850    0.6200 C   0  0  0  0  0  0  0  0  0  0  0  0
   -3.7780    4.0610    0.3290 N   0  0  0  0  0  0  0  0  0  0  0  0
   -4.0560    2.2530    1.7030 O   0  0  0  0  0  0  0  0  0  0  0  0
   -2.7600   -1.5070   -1.5380 C   0  0  0  0  0  0  0  0  0  0  0  0
   -3.0470   -2.6500   -0.6550 C   0  0  0  0  0  0  0  0  0  0  0  0
   -3.8020   -2.3690    0.5370 N   0  0  0  0  0  0  0  0  0  0  0  0
    2.5360    1.0150    0.3860 C   0  0  0  0  0  0  0  0  0  0  0  0
  2  1  1  6
  2  3  1  0
  2 20  1  0
  3  4  1  0
  4  5  1  0
  5  6  1  0
  6  7  1  1
  6  8  1  0
  6 20  1  0
  8  9  1  0
  9 10  2  0
  9 11  1  0
 11 12  1  0
 11 17  1  1
 12 13  2  3
 13 14  1  0
 14 15  1  0
 14 16  2  0
 17 18  1  0
 18 19  1  0
M  CHG  1  19   1
M  END
