
     RDKit          3D

 20 20  0  0  0  0  0  0  0  0999 V2000
   -4.0230   -2.8610   -0.4870 C   0  0  0  0  0  0  0  0  0  0  0  0
   -2.8610   -2.4830    0.3700 C   0  0  0  0  0  0  0  0  0  0  0  0
   -1.9290   -1.5880   -0.4550 C   0  0  2  0  0  0  0  0  0  0  0  0
   -1.5240   -2.4490   -1.6300 C   0  0  0  0  0  0  0  0  0  0  0  0
   -0.7590   -1.3050    0.4060 C   0  0  0  0  0  0  0  0  0  0  0  0
    0.2350   -0.4510   -0.3770 C   0  0  2  0  0  0  0  0  0  0  0  0
    0.8380   -1.3630   -1.2810 O   0  0  0  0  0  0  0  0  0  0  0  0
    1.3180   -0.1240    0.6000 C   0  0  0  0  0  0  0  0  0  0  0  0
    2.5140    0.4370    0.0660 N   0  0  0  0  0  0  0  0  0  0  0  0
    3.7140   -0.1740    0.6620 C   0  0  0  0  0  0  0  0  0  0  0  0
    4.4430    0.8220    1.5520 C   0  0  0  0  0  0  0  0  0  0  0  0
    5.5770    0.2500    2.1180 O   0  0  0  0  0  0  0  0  0  0  0  0
   -0.4400    0.5910   -1.1150 C   0  0  2  0  0  0  0  0  0  0  0  0
    0.0770    1.9460   -1.1890 C   0  0  0  0  0  0  0  0  0  0  0  0
    1.2070    2.3760   -1.8610 O   0  0  0  0  0  0  0  0  0  0  0  0
   -0.5580    2.8850   -0.5720 N   0  0  0  0  0  0  0  0  0  0  0  0
   -0.1950    4.2640   -0.5380 C   0  0  0  0  0  0  0  0  0  0  0  0
   -1.9300    0.7120   -0.7290 C   0  0  2  0  0  0  0  0  0  0  0  0
   -2.1270    1.3180    0.6220 C   0  0  0  0  0  0  0  0  0  0  0  0
   -2.5920   -0.4830   -0.9380 O   0  0  0  0  0  0  0  0  0  0  0  0
  1  2  1  0
  2  3  1  0
  3  4  1  6
  3  5  1  0
  3 20  1  0
  5  6  1  0
  6  7  1  6
  6  8  1  0
  6 13  1  0
  8  9  1  0
  9 10  1  0
 10 11  1  0
 11 12  1  0
 13 14  1  1
 13 18  1  0
 14 15  1  0
 14 16  2  3
 16 17  1  0
 18 19  1  1
 18 20  1  0
M  CHG  1   9   1
M  END
