
     RDKit          3D

 20 20  0  0  0  0  0  0  0  0999 V2000
    5.3210    0.1970    1.4370 C   0  0  0  0  0  0  0  0  0  0  0  0
    5.2190    0.2790   -0.0560 C   0  0  1  0  0  0  0  0  0  0  0  0
    6.1800    1.3520   -0.5790 C   0  0  0  0  0  0  0  0  0  0  0  0
    5.7010   -1.0320   -0.6890 C   0  0  0  0  0  0  0  0  0  0  0  0
    3.9390    0.6220   -0.5190 O   0  0  0  0  0  0  0  0  0  0  0  0
    2.7920   -0.1070   -0.2800 C   0  0  0  0  0  0  0  0  0  0  0  0
    2.8830   -1.1510    0.3950 O   0  0  0  0  0  0  0  0  0  0  0  0
    1.5500    0.3700   -0.8190 N   0  0  0  0  0  0  0  0  0  0  0  0
    0.3200   -0.3470   -0.6020 C   0  0  0  0  0  0  0  0  0  0  0  0
    0.0250   -0.4350    0.8760 C   0  0  1  0  0  0  0  0  0  0  0  0
   -0.1040    0.9570    1.4550 C   0  0  0  0  0  0  0  0  0  0  0  0
   -1.1180    1.6770    0.8630 O   0  0  0  0  0  0  0  0  0  0  0  0
   -1.3420   -1.0990    1.1070 C   0  0  0  0  0  0  0  0  0  0  0  0
   -2.2740   -0.3080    0.4750 O   0  0  0  0  0  0  0  0  0  0  0  0
   -3.5640   -0.7330    0.5660 C   0  0  2  0  0  0  0  0  0  0  0  0
   -4.0520   -1.0340   -0.8570 C   0  0  0  0  0  0  0  0  0  0  0  0
   -4.4380    0.3590   -1.3190 C   0  0  0  0  0  0  0  0  0  0  0  0
   -5.1300    0.9320   -0.1250 C   0  0  0  0  0  0  0  0  0  0  0  0
   -4.5310    0.2810    1.1040 C   0  0  1  0  0  0  0  0  0  0  0  0
   -5.5940   -0.4360    1.8170 N   0  0  0  0  0  0  0  0  0  0  0  0
  2  1  1  1
  2  3  1  0
  2  4  1  0
  2  5  1  0
  5  6  1  0
  6  7  2  0
  6  8  1  0
  8  9  1  0
 10  9  1  6
 10 11  1  0
 10 13  1  0
 11 12  1  0
 13 14  1  0
 15 14  1  6
 15 16  1  0
 15 19  1  0
 16 17  1  0
 17 18  1  0
 18 19  1  0
 19 20  1  6
M  CHG  1  20   1
M  END
