
     RDKit          3D

 19 19  0  0  0  0  0  0  0  0999 V2000
    3.3190   -0.3930    1.7660 C   0  0  0  0  0  0  0  0  0  0  0  0
    2.7320    0.6010    0.8470 C   0  0  1  0  0  0  0  0  0  0  0  0
    3.7770    1.7170    0.6290 C   0  0  0  0  0  0  0  0  0  0  0  0
    2.2910    0.1900   -0.4880 C   0  0  2  0  0  0  0  0  0  0  0  0
    3.3550   -0.4120   -1.3290 C   0  0  0  0  0  0  0  0  0  0  0  0
    1.9600    1.4230   -1.1600 O   0  0  0  0  0  0  0  0  0  0  0  0
    0.9640   -0.5790   -0.5990 C   0  0  1  0  0  0  0  0  0  0  0  0
    0.8190   -0.8360   -2.1250 C   0  0  0  0  0  0  0  0  0  0  0  0
    1.1430   -1.8800    0.0500 C   0  0  0  0  0  0  0  0  0  0  0  0
    0.1160   -2.7840    0.0180 O   0  0  0  0  0  0  0  0  0  0  0  0
   -0.1460    0.3230   -0.2490 C   0  0  0  0  0  0  0  0  0  0  0  0
   -1.4910   -0.0230   -0.2320 N   0  0  0  0  0  0  0  0  0  0  0  0
   -2.0900   -0.8040    0.7560 C   0  0  0  0  0  0  0  0  0  0  0  0
   -3.0270   -1.8160    0.1430 C   0  0  0  0  0  0  0  0  0  0  0  0
   -3.9620   -1.1370   -0.6120 O   0  0  0  0  0  0  0  0  0  0  0  0
   -4.4670   -0.0340    0.0550 C   0  0  0  0  0  0  0  0  0  0  0  0
   -3.6380    1.2090   -0.2030 C   0  0  1  0  0  0  0  0  0  0  0  0
   -3.5180    2.0500    0.9660 N   0  0  0  0  0  0  0  0  0  0  0  0
   -2.3570    0.9200   -0.8940 C   0  0  0  0  0  0  0  0  0  0  0  0
  2  1  1  6
  2  3  1  0
  2  4  1  0
  4  5  1  6
  4  6  1  0
  4  7  1  0
  7  8  1  6
  7  9  1  0
  7 11  1  0
  9 10  1  0
 11 12  1  0
 12 13  1  0
 12 19  1  0
 13 14  1  0
 14 15  1  0
 15 16  1  0
 16 17  1  0
 17 18  1  1
 17 19  1  0
M  CHG  1  18   1
M  END
