
     RDKit          3D

 22 23  0  0  0  0  0  0  0  0999 V2000
   -4.3580   -0.1930   -1.9550 O   0  0  0  0  0  0  0  0  0  0  0  0
   -4.6620    0.1440   -0.7870 C   0  0  0  0  0  0  0  0  0  0  0  0
   -6.1220    0.3640   -0.5460 C   0  0  0  0  0  0  0  0  0  0  0  0
   -6.4090    0.7350    0.8090 N   0  0  0  0  0  0  0  0  0  0  0  0
   -6.9110    1.8420    1.0440 O   0  0  0  0  0  0  0  0  0  0  0  0
   -6.1300   -0.1290    1.8280 O   0  0  0  0  0  0  0  0  0  0  0  0
   -3.6910    0.3030    0.2180 N   0  0  0  0  0  0  0  0  0  0  0  0
   -2.3040    0.1060    0.0630 C   0  0  0  0  0  0  0  0  0  0  0  0
   -1.7090   -0.4730   -1.0120 C   0  0  0  0  0  0  0  0  0  0  0  0
   -0.3260   -0.6170   -1.0990 C   0  0  0  0  0  0  0  0  0  0  0  0
    0.5160   -0.1820   -0.1030 C   0  0  0  0  0  0  0  0  0  0  0  0
    1.9000   -0.3880   -0.3120 N   0  0  0  0  0  0  0  0  0  0  0  0
    2.9430   -0.0290    0.5630 C   0  0  0  0  0  0  0  0  0  0  0  0
    2.6970    0.5280    1.6450 O   0  0  0  0  0  0  0  0  0  0  0  0
    4.3310   -0.3130    0.1940 C   0  0  0  0  0  0  0  0  0  0  0  0
    4.8910   -1.0850   -1.2760 S   0  0  0  0  0  0  0  0  0  0  0  0
    6.6770   -1.0040   -0.8530 C   0  0  0  0  0  0  0  0  0  0  0  0
    6.6480   -0.4010    0.3560 C   0  0  0  0  0  0  0  0  0  0  0  0
    5.4830   -0.0530    0.8870 C   0  0  0  0  0  0  0  0  0  0  0  0
    5.3720    0.5870    2.1570 O   0  0  0  0  0  0  0  0  0  0  0  0
   -0.0660    0.4020    0.9860 C   0  0  0  0  0  0  0  0  0  0  0  0
   -1.4470    0.5520    1.0850 C   0  0  0  0  0  0  0  0  0  0  0  0
  1  2  2  0
  2  3  1  0
  2  7  1  0
  3  4  1  0
  4  5  2  0
  4  6  1  0
  7  8  1  0
  8  9  2  0
  8 22  1  0
  9 10  1  0
 10 11  2  0
 11 12  1  0
 11 21  1  0
 12 13  1  0
 13 14  2  0
 13 15  1  0
 15 16  1  0
 15 19  2  0
 16 17  1  0
 17 18  2  0
 18 19  1  0
 19 20  1  0
 21 22  2  0
M  CHG  2   4   1   6  -1
M  END
