
     RDKit          3D

 22 23  0  0  0  0  0  0  0  0999 V2000
    5.6370    1.1000   -0.1190 C   0  0  0  0  0  0  0  0  0  0  0  0
    4.8820    1.2310    1.1840 C   0  0  0  0  0  0  0  0  0  0  0  0
    4.1740    0.0410    1.4660 O   0  0  0  0  0  0  0  0  0  0  0  0
    3.2600   -0.5810    0.6240 C   0  0  0  0  0  0  0  0  0  0  0  0
    3.0540   -0.0590   -0.4720 O   0  0  0  0  0  0  0  0  0  0  0  0
    2.5790   -1.7670    0.9840 N   0  0  0  0  0  0  0  0  0  0  0  0
    1.6310   -2.4300    0.1470 C   0  0  0  0  0  0  0  0  0  0  0  0
    0.5090   -1.5980   -0.3210 C   0  0  0  0  0  0  0  0  0  0  0  0
   -0.5830   -1.0180    0.2550 C   0  0  0  0  0  0  0  0  0  0  0  0
   -1.4550   -0.3210   -0.4870 C   0  0  0  0  0  0  0  0  0  0  0  0
   -2.6590    0.2850   -0.0680 C   0  0  0  0  0  0  0  0  0  0  0  0
   -3.0190    0.3160    1.3530 C   0  0  0  0  0  0  0  0  0  0  0  0
   -3.1690   -0.9750    1.9860 N   0  0  0  0  0  0  0  0  0  0  0  0
   -2.6960   -1.0670    3.1510 O   0  0  0  0  0  0  0  0  0  0  0  0
   -3.7820   -2.0460    1.4620 O   0  0  0  0  0  0  0  0  0  0  0  0
   -3.4390    0.9130   -1.0100 C   0  0  0  0  0  0  0  0  0  0  0  0
   -4.7100    1.6200   -0.6930 C   0  0  0  0  0  0  0  0  0  0  0  0
   -3.1130    0.9850   -2.3510 N   0  0  0  0  0  0  0  0  0  0  0  0
   -1.9890    0.4150   -2.7480 C   0  0  0  0  0  0  0  0  0  0  0  0
   -1.6070    0.4320   -3.9510 O   0  0  0  0  0  0  0  0  0  0  0  0
   -1.2190   -0.1980   -1.8500 C   0  0  0  0  0  0  0  0  0  0  0  0
    0.3380   -1.1260   -2.1100 S   0  0  0  0  0  0  0  0  0  0  0  0
  1  2  1  0
  2  3  1  0
  3  4  1  0
  4  5  2  0
  4  6  1  0
  6  7  1  0
  7  8  1  0
  8  9  2  0
  8 22  1  0
  9 10  1  0
 10 11  1  0
 10 21  2  0
 11 12  1  0
 11 16  2  0
 12 13  1  0
 13 14  2  0
 13 15  1  0
 16 17  1  0
 16 18  1  0
 18 19  1  0
 19 20  2  0
 19 21  1  0
 21 22  1  0
M  CHG  2  13   1  15  -1
M  END
