
     RDKit          3D

 23 24  0  0  0  0  0  0  0  0999 V2000
   -6.3650    1.3230   -0.3890 N   0  0  0  0  0  0  0  0  0  0  0  0
   -5.8020   -0.2650    0.0330 S   0  0  1  0  0  0  0  0  0  0  0  0
   -6.3350   -0.6110    1.3910 O   0  0  0  0  0  0  0  0  0  0  0  0
   -6.3100   -1.2130   -1.0080 O   0  0  0  0  0  0  0  0  0  0  0  0
   -4.0600   -0.2440   -0.0100 C   0  0  0  0  0  0  0  0  0  0  0  0
   -3.3750   -0.5490   -1.1730 C   0  0  0  0  0  0  0  0  0  0  0  0
   -2.0050   -0.5420   -1.2410 C   0  0  0  0  0  0  0  0  0  0  0  0
   -1.2260   -0.2220   -0.1220 C   0  0  0  0  0  0  0  0  0  0  0  0
    0.1960   -0.2310   -0.2540 N   0  0  0  0  0  0  0  0  0  0  0  0
    1.1350    0.0630    0.7510 C   0  0  0  0  0  0  0  0  0  0  0  0
    0.7610    0.3720    1.9010 O   0  0  0  0  0  0  0  0  0  0  0  0
    2.5970    0.0120    0.4690 C   0  0  0  0  0  0  0  0  0  0  0  0
    3.3040   -1.1520    0.6520 C   0  0  0  0  0  0  0  0  0  0  0  0
    4.6370   -1.2100    0.3980 C   0  0  0  0  0  0  0  0  0  0  0  0
    5.2860   -0.0780   -0.0490 C   0  0  0  0  0  0  0  0  0  0  0  0
    6.6890   -0.1780   -0.3040 N   0  0  0  0  0  0  0  0  0  0  0  0
    7.3140   -1.2370   -0.1350 O   0  0  0  0  0  0  0  0  0  0  0  0
    7.3580    0.9360   -0.7500 O   0  0  0  0  0  0  0  0  0  0  0  0
    4.6070    1.0970   -0.2390 C   0  0  0  0  0  0  0  0  0  0  0  0
    3.2660    1.1220    0.0250 C   0  0  0  0  0  0  0  0  0  0  0  0
    2.3870    2.6170   -0.2150 Cl  0  0  0  0  0  0  0  0  0  0  0  0
   -1.9210    0.0750    1.0100 C   0  0  0  0  0  0  0  0  0  0  0  0
   -3.2960    0.0710    1.0900 C   0  0  0  0  0  0  0  0  0  0  0  0
  2  1  1  6
  2  3  2  0
  2  4  2  0
  2  5  1  0
  5  6  2  0
  5 23  1  0
  6  7  1  0
  7  8  2  0
  8  9  1  0
  8 22  1  0
  9 10  1  0
 10 11  2  0
 10 12  1  0
 12 13  2  0
 12 20  1  0
 13 14  1  0
 14 15  2  0
 15 16  1  0
 15 19  1  0
 16 17  2  0
 16 18  1  0
 19 20  2  0
 20 21  1  0
 22 23  2  0
M  CHG  2  16   1  18  -1
M  END
