
     RDKit          3D

 26 27  0  0  0  0  0  0  0  0999 V2000
   -6.6930   -0.5440    1.5020 N   0  0  0  0  0  0  0  0  0  0  0  0
   -6.7130    0.5960    0.6360 C   0  0  0  0  0  0  0  0  0  0  0  0
   -8.0540    0.9400   -0.2220 S   0  0  0  0  0  0  0  0  0  0  0  0
   -5.4820    1.4240    0.5650 C   0  0  0  0  0  0  0  0  0  0  0  0
   -4.4000    0.6010    0.1030 N   0  0  0  0  0  0  0  0  0  0  0  0
   -4.4970    0.1680   -1.2420 C   0  0  0  0  0  0  0  0  0  0  0  0
   -3.3900    0.6720   -2.1250 C   0  0  0  0  0  0  0  0  0  0  0  0
   -2.1910    0.3000   -1.5200 O   0  0  0  0  0  0  0  0  0  0  0  0
   -1.9890    0.9450   -0.3130 C   0  0  2  0  0  0  0  0  0  0  0  0
   -0.7800    0.3590    0.3200 C   0  0  0  0  0  0  0  0  0  0  0  0
    0.3590    0.1220   -0.3730 N   0  0  0  0  0  0  0  0  0  0  0  0
    1.4420   -0.4060    0.2110 C   0  0  0  0  0  0  0  0  0  0  0  0
    2.6640   -0.6510   -0.5810 C   0  0  2  0  0  0  0  0  0  0  0  0
    3.0750   -2.0920   -0.5590 C   0  0  0  0  0  0  0  0  0  0  0  0
    2.0310   -2.9210   -1.1040 N   0  0  0  0  0  0  0  0  0  0  0  0
    3.7750    0.2250   -0.0300 C   0  0  2  0  0  0  0  0  0  0  0  0
    3.3160    1.5420   -0.1680 O   0  0  0  0  0  0  0  0  0  0  0  0
    5.0490    0.0690   -0.7870 C   0  0  0  0  0  0  0  0  0  0  0  0
    6.0360    0.9300   -0.3400 O   0  0  0  0  0  0  0  0  0  0  0  0
    6.3820    0.7590    0.9930 C   0  0  0  0  0  0  0  0  0  0  0  0
    7.3890    1.7080    1.2530 O   0  0  0  0  0  0  0  0  0  0  0  0
    1.4150   -0.7130    1.5150 N   0  0  0  0  0  0  0  0  0  0  0  0
    0.2940   -0.4890    2.2380 C   0  0  0  0  0  0  0  0  0  0  0  0
    0.2010   -0.7520    3.4600 O   0  0  0  0  0  0  0  0  0  0  0  0
   -0.7730    0.0420    1.6170 N   0  0  0  0  0  0  0  0  0  0  0  0
   -3.1310    0.9350    0.6120 C   0  0  0  0  0  0  0  0  0  0  0  0
  1  2  1  0
  2  3  2  0
  2  4  1  0
  4  5  1  0
  5  6  1  0
  5 26  1  0
  6  7  1  0
  7  8  1  0
  8  9  1  0
  9 10  1  1
  9 26  1  0
 10 11  1  0
 10 25  2  0
 11 12  2  0
 12 13  1  0
 12 22  1  0
 13 14  1  1
 13 16  1  0
 14 15  1  0
 16 17  1  6
 16 18  1  0
 18 19  1  0
 19 20  1  0
 20 21  1  0
 22 23  1  0
 23 24  2  0
 23 25  1  0
M  CHG  1  15   1
M  END
