
     RDKit          3D

 21 22  0  0  0  0  0  0  0  0999 V2000
    0.4150    1.1500    0.6870 O   0  0  0  0  0  0  0  0  0  0  0  0
    0.1550    0.2440   -0.1730 C   0  0  0  0  0  0  0  0  0  0  0  0
   -1.2530   -0.1550   -0.4180 C   0  0  0  0  0  0  0  0  0  0  0  0
   -2.1450    0.5830    0.3990 O   0  0  0  0  0  0  0  0  0  0  0  0
   -3.5050    0.4210    0.3810 C   0  0  0  0  0  0  0  0  0  0  0  0
   -4.1580   -0.4860   -0.4440 C   0  0  0  0  0  0  0  0  0  0  0  0
   -5.5260   -0.6170   -0.4330 C   0  0  0  0  0  0  0  0  0  0  0  0
   -6.3140    0.1430    0.3980 C   0  0  0  0  0  0  0  0  0  0  0  0
   -8.2120   -0.0050    0.4470 Br  0  0  0  0  0  0  0  0  0  0  0  0
   -5.6690    1.0520    1.2250 C   0  0  0  0  0  0  0  0  0  0  0  0
   -4.2890    1.1860    1.2150 C   0  0  0  0  0  0  0  0  0  0  0  0
   -3.6860    2.1100    2.0620 O   0  0  0  0  0  0  0  0  0  0  0  0
    1.1710   -0.4070   -0.9160 N   0  0  0  0  0  0  0  0  0  0  0  0
    2.5140   -0.0610   -0.7170 N   0  0  0  0  0  0  0  0  0  0  0  0
    3.4300   -1.0290   -0.2440 C   0  0  0  0  0  0  0  0  0  0  0  0
    3.0830   -2.2170    0.0120 O   0  0  0  0  0  0  0  0  0  0  0  0
    4.8560   -0.6840   -0.0260 C   0  0  0  0  0  0  0  0  0  0  0  0
    5.7620   -1.5110    0.4040 C   0  0  0  0  0  0  0  0  0  0  0  0
    7.3850   -0.7930    0.5600 S   0  0  0  0  0  0  0  0  0  0  0  0
    7.2410    0.7120   -0.4930 C   0  0  0  0  0  0  0  0  0  0  0  0
    5.4540    0.9630   -0.3420 S   0  0  0  0  0  0  0  0  0  0  0  0
  1  2  2  0
  2  3  1  0
  2 13  1  0
  3  4  1  0
  4  5  1  0
  5  6  2  0
  5 11  1  0
  6  7  1  0
  7  8  2  0
  8  9  1  0
  8 10  1  0
 10 11  2  0
 11 12  1  0
 13 14  1  0
 14 15  1  0
 15 16  2  0
 15 17  1  0
 17 18  2  0
 17 21  1  0
 18 19  1  0
 19 20  1  0
 20 21  1  0
M  END
