
     RDKit          3D

 21 22  0  0  0  0  0  0  0  0999 V2000
   -6.2620    0.6640   -0.0600 O   0  0  0  0  0  0  0  0  0  0  0  0
   -6.1220   -0.4640    0.4820 C   0  0  0  0  0  0  0  0  0  0  0  0
   -7.3060   -1.2750    0.9210 C   0  0  0  0  0  0  0  0  0  0  0  0
   -8.9060   -0.2680    0.4960 Br  0  0  0  0  0  0  0  0  0  0  0  0
   -4.8080   -0.9730    0.6770 N   0  0  0  0  0  0  0  0  0  0  0  0
   -3.6720   -0.2190    0.2660 C   0  0  0  0  0  0  0  0  0  0  0  0
   -3.8940    0.8960   -0.2660 O   0  0  0  0  0  0  0  0  0  0  0  0
   -2.2850   -0.7100    0.4500 C   0  0  0  0  0  0  0  0  0  0  0  0
   -1.4060    0.2720   -0.0610 O   0  0  0  0  0  0  0  0  0  0  0  0
   -0.0110    0.0880   -0.0270 C   0  0  0  0  0  0  0  0  0  0  0  0
    0.3690   -0.9720    0.4720 O   0  0  0  0  0  0  0  0  0  0  0  0
    0.8790    1.0420   -0.5240 N   0  0  0  0  0  0  0  0  0  0  0  0
    2.2770    0.9000   -0.5060 C   0  0  0  0  0  0  0  0  0  0  0  0
    2.9930    1.8340   -1.2800 C   0  0  0  0  0  0  0  0  0  0  0  0
    4.3620    1.8420   -1.3600 C   0  0  0  0  0  0  0  0  0  0  0  0
    5.0800    0.8750   -0.6370 C   0  0  0  0  0  0  0  0  0  0  0  0
    4.4120   -0.0310    0.1120 C   0  0  0  0  0  0  0  0  0  0  0  0
    3.0030   -0.0210    0.1810 C   0  0  0  0  0  0  0  0  0  0  0  0
    5.4800   -1.1750    0.9560 S   0  0  0  0  0  0  0  0  0  0  0  0
    7.0950   -0.3420    0.8730 C   0  0  0  0  0  0  0  0  0  0  0  0
    6.8380    0.6970   -0.5920 S   0  0  0  0  0  0  0  0  0  0  0  0
  1  2  2  0
  2  3  1  0
  2  5  1  0
  3  4  1  0
  5  6  1  0
  6  7  2  0
  6  8  1  0
  8  9  1  0
  9 10  1  0
 10 11  2  0
 10 12  1  0
 12 13  1  0
 13 14  2  0
 13 18  1  0
 14 15  1  0
 15 16  2  0
 16 17  1  0
 16 21  1  0
 17 18  2  0
 17 19  1  0
 19 20  1  0
 20 21  1  0
M  END
