
     RDKit          3D

 21 22  0  0  0  0  0  0  0  0999 V2000
   -4.4900   -1.1700    1.5000 C   0  0  0  0  0  0  0  0  0  0  0  0
   -4.8100   -0.2960    0.3570 C   0  0  0  0  0  0  0  0  0  0  0  0
   -6.4740    0.1230   -0.1270 S   0  0  0  0  0  0  0  0  0  0  0  0
   -6.0100    1.1090   -1.5380 C   0  0  0  0  0  0  0  0  0  0  0  0
   -6.8120    1.6940   -2.3090 O   0  0  0  0  0  0  0  0  0  0  0  0
   -4.7080    1.0400   -1.5210 N   0  0  0  0  0  0  0  0  0  0  0  0
   -4.0630    0.3580   -0.6040 C   0  0  0  0  0  0  0  0  0  0  0  0
   -2.5630    0.3410   -0.5740 C   0  0  0  0  0  0  0  0  0  0  0  0
   -1.9290    0.5490   -1.6560 O   0  0  0  0  0  0  0  0  0  0  0  0
   -1.8350    0.1130    0.5900 N   0  0  0  0  0  0  0  0  0  0  0  0
   -0.4050    0.0820    0.6490 C   0  0  0  0  0  0  0  0  0  0  0  0
    0.3750   -0.1280    1.7750 C   0  0  0  0  0  0  0  0  0  0  0  0
    1.6260   -0.0860    1.4380 O   0  0  0  0  0  0  0  0  0  0  0  0
    1.7830    0.1350    0.1730 C   0  0  0  0  0  0  0  0  0  0  0  0
    3.0040    0.2560   -0.6100 C   0  0  0  0  0  0  0  0  0  0  0  0
    2.9890    0.4740   -1.8470 O   0  0  0  0  0  0  0  0  0  0  0  0
    4.2630    0.1240    0.0320 N   0  0  0  0  0  0  0  0  0  0  0  0
    5.4920    0.2430   -0.7400 C   0  0  0  0  0  0  0  0  0  0  0  0
    6.6620    0.0550    0.2270 C   0  0  0  0  0  0  0  0  0  0  0  0
    8.3000    0.2090   -0.7800 Br  0  0  0  0  0  0  0  0  0  0  0  0
    0.4930    0.2500   -0.3720 C   0  0  0  0  0  0  0  0  0  0  0  0
  1  2  1  0
  2  3  1  0
  2  7  2  0
  3  4  1  0
  4  5  2  0
  4  6  1  0
  6  7  1  0
  7  8  1  0
  8  9  2  0
  8 10  1  0
 10 11  1  0
 11 12  2  0
 11 21  1  0
 12 13  1  0
 13 14  1  0
 14 15  1  0
 14 21  2  0
 15 16  2  0
 15 17  1  0
 17 18  1  0
 18 19  1  0
 19 20  1  0
M  END
