
     RDKit          3D

 21 22  0  0  0  0  0  0  0  0999 V2000
    5.5760   -0.6220   -0.0020 N   0  0  0  0  0  0  0  0  0  0  0  0
    4.1740   -0.5660   -0.9790 S   0  0  2  0  0  0  0  0  0  0  0  0
    3.9760   -1.8630   -1.7330 O   0  0  0  0  0  0  0  0  0  0  0  0
    4.3410    0.5020   -2.0430 O   0  0  0  0  0  0  0  0  0  0  0  0
    2.7260   -0.2820   -0.0420 C   0  0  0  0  0  0  0  0  0  0  0  0
    2.2290    0.9610    0.2370 C   0  0  0  0  0  0  0  0  0  0  0  0
    1.0660    1.1120    0.9930 C   0  0  0  0  0  0  0  0  0  0  0  0
    0.3760    0.0130    1.4860 C   0  0  0  0  0  0  0  0  0  0  0  0
   -0.8080    0.1550    2.2560 N   0  0  0  0  0  0  0  0  0  0  0  0
   -2.0760    1.2340    1.8190 S   0  0  1  0  0  0  0  0  0  0  0  0
   -3.1800    1.1470    2.8220 O   0  0  0  0  0  0  0  0  0  0  0  0
   -1.5330    2.6300    1.7360 O   0  0  0  0  0  0  0  0  0  0  0  0
   -2.7540    0.7880    0.2470 C   0  0  0  0  0  0  0  0  0  0  0  0
   -2.2370    1.3160   -0.9100 C   0  0  0  0  0  0  0  0  0  0  0  0
   -2.7600    0.9740   -2.1450 C   0  0  0  0  0  0  0  0  0  0  0  0
   -3.8290    0.0800   -2.2180 C   0  0  0  0  0  0  0  0  0  0  0  0
   -4.5310   -0.3760   -3.9260 Br  0  0  0  0  0  0  0  0  0  0  0  0
   -4.3150   -0.4240   -1.0420 C   0  0  0  0  0  0  0  0  0  0  0  0
   -3.8090   -0.0960    0.1890 C   0  0  0  0  0  0  0  0  0  0  0  0
    0.8970   -1.2460    1.1930 C   0  0  0  0  0  0  0  0  0  0  0  0
    2.0480   -1.3790    0.4440 C   0  0  0  0  0  0  0  0  0  0  0  0
  2  1  1  1
  2  3  2  0
  2  4  2  0
  2  5  1  0
  5  6  2  0
  5 21  1  0
  6  7  1  0
  7  8  2  0
  8  9  1  0
  8 20  1  0
 10  9  1  1
 10 11  2  0
 10 12  2  0
 10 13  1  0
 13 14  2  0
 13 19  1  0
 14 15  1  0
 15 16  2  0
 16 17  1  0
 16 18  1  0
 18 19  2  0
 20 21  2  0
M  END
