
     RDKit          3D

 21 22  0  0  0  0  0  0  0  0999 V2000
   -3.8400    0.2120    3.5230 C   0  0  0  0  0  0  0  0  0  0  0  0
   -2.9200    0.1130    2.4530 O   0  0  0  0  0  0  0  0  0  0  0  0
   -3.1900   -0.5050    1.2620 C   0  0  0  0  0  0  0  0  0  0  0  0
   -4.3560   -0.9960    1.1770 O   0  0  0  0  0  0  0  0  0  0  0  0
   -2.2530   -0.6350    0.1100 C   0  0  0  0  0  0  0  0  0  0  0  0
   -2.7270   -1.3080   -1.0020 C   0  0  0  0  0  0  0  0  0  0  0  0
   -4.0070   -1.9060   -1.2510 N   0  0  0  0  0  0  0  0  0  0  0  0
   -1.3710   -1.2790   -2.1110 S   0  0  0  0  0  0  0  0  0  0  0  0
   -0.2400   -0.3870   -1.0680 C   0  0  0  0  0  0  0  0  0  0  0  0
    1.1120   -0.0650   -1.5020 C   0  0  0  0  0  0  0  0  0  0  0  0
    1.4310   -0.4250   -2.7050 O   0  0  0  0  0  0  0  0  0  0  0  0
    2.0780    0.5850   -0.7460 N   0  0  0  0  0  0  0  0  0  0  0  0
    3.4050    0.8610   -1.2860 C   0  0  0  0  0  0  0  0  0  0  0  0
    4.4990    0.0410   -1.2070 C   0  0  0  0  0  0  0  0  0  0  0  0
    4.6040   -1.5830   -0.4240 S   0  0  0  0  0  0  0  0  0  0  0  0
    5.5190    0.7070   -1.8500 C   0  0  0  0  0  0  0  0  0  0  0  0
    5.0480    1.8320   -2.2720 O   0  0  0  0  0  0  0  0  0  0  0  0
    3.7920    1.9860   -1.9680 C   0  0  0  0  0  0  0  0  0  0  0  0
    2.6990    3.5160   -2.4040 Br  0  0  0  0  0  0  0  0  0  0  0  0
   -0.9850   -0.1790    0.0430 C   0  0  0  0  0  0  0  0  0  0  0  0
   -0.3870    0.6130    1.1990 C   0  0  0  0  0  0  0  0  0  0  0  0
  1  2  1  0
  2  3  1  0
  3  4  2  0
  3  5  1  0
  5  6  2  0
  5 20  1  0
  6  7  1  0
  6  8  1  0
  8  9  1  0
  9 10  1  0
  9 20  2  0
 10 11  2  0
 10 12  1  0
 12 13  1  0
 13 14  1  0
 13 18  2  0
 14 15  1  0
 14 16  2  0
 16 17  1  0
 17 18  1  0
 18 19  1  0
 20 21  1  0
M  END
