
     RDKit          3D

 21 22  0  0  0  0  0  0  0  0999 V2000
    2.2890    1.4110   -0.5890 C   0  0  0  0  0  0  0  0  0  0  0  0
    1.0100    0.6860   -0.2040 C   0  0  0  0  0  0  0  0  0  0  0  0
   -0.2160    1.2000   -0.4010 C   0  0  0  0  0  0  0  0  0  0  0  0
   -1.2960    0.4910   -0.0300 C   0  0  0  0  0  0  0  0  0  0  0  0
   -2.7160    0.7960   -0.1220 C   0  0  0  0  0  0  0  0  0  0  0  0
   -3.5160    1.6010   -0.4710 N   0  0  0  0  0  0  0  0  0  0  0  0
   -4.8080    1.5830   -0.4160 C   0  0  0  0  0  0  0  0  0  0  0  0
   -5.9750    2.9980   -1.0370 Br  0  0  0  0  0  0  0  0  0  0  0  0
   -5.3710    0.4360    0.1410 C   0  0  0  0  0  0  0  0  0  0  0  0
   -6.7590    0.0630    0.3650 C   0  0  0  0  0  0  0  0  0  0  0  0
   -7.1460   -1.1610    0.9520 N   0  0  0  0  0  0  0  0  0  0  0  0
   -7.6420    0.8720    0.0180 O   0  0  0  0  0  0  0  0  0  0  0  0
   -3.9040   -0.5250    0.5390 S   0  0  0  0  0  0  0  0  0  0  0  0
   -0.5590   -1.0050    0.6440 S   0  0  0  0  0  0  0  0  0  0  0  0
    1.0960   -0.5530    0.3730 C   0  0  0  0  0  0  0  0  0  0  0  0
    2.2980   -1.3330    0.6950 C   0  0  0  0  0  0  0  0  0  0  0  0
    2.1900   -2.4420    1.2190 O   0  0  0  0  0  0  0  0  0  0  0  0
    3.5470   -0.8180    0.4100 O   0  0  0  0  0  0  0  0  0  0  0  0
    4.6750   -1.6090    0.7400 C   0  0  0  0  0  0  0  0  0  0  0  0
    5.9030   -0.7930    0.3140 C   0  0  0  0  0  0  0  0  0  0  0  0
    5.8680   -0.5340   -1.0490 O   0  0  0  0  0  0  0  0  0  0  0  0
  1  2  1  0
  2  3  1  0
  2 15  2  0
  3  4  2  0
  4  5  1  0
  4 14  1  0
  5  6  2  0
  5 13  1  0
  6  7  1  0
  7  8  1  0
  7  9  2  0
  9 10  1  0
  9 13  1  0
 10 11  1  0
 10 12  2  0
 14 15  1  0
 15 16  1  0
 16 17  2  0
 16 18  1  0
 18 19  1  0
 19 20  1  0
 20 21  1  0
M  END
