
     RDKit          3D

 11 11  0  0  0  0  0  0  0  0999 V2000
    2.9360    0.1230    0.6880 N   0  0  0  0  0  0  0  0  0  0  0  0
    1.8540   -0.7060    0.2450 C   0  0  1  0  0  0  0  0  0  0  0  0
    0.6990   -0.6600    1.2260 C   0  0  0  0  0  0  0  0  0  0  0  0
   -0.4800   -0.8790    0.5170 O   0  0  0  0  0  0  0  0  0  0  0  0
   -1.2290    0.3050    0.5450 C   0  0  2  0  0  0  0  0  0  0  0  0
   -2.5480    0.0950   -0.1850 C   0  0  0  0  0  0  0  0  0  0  0  0
   -3.2240   -0.9250    0.4760 O   0  0  0  0  0  0  0  0  0  0  0  0
   -0.4710    1.3610   -0.2430 C   0  0  0  0  0  0  0  0  0  0  0  0
    0.2830    0.7070   -1.2730 O   0  0  0  0  0  0  0  0  0  0  0  0
    1.3340   -0.1700   -1.0460 C   0  0  0  0  0  0  0  0  0  0  0  0
    1.9520   -0.5870   -2.0470 O   0  0  0  0  0  0  0  0  0  0  0  0
  2  1  1  1
  2  3  1  0
  2 10  1  0
  3  4  1  0
  4  5  1  0
  5  6  1  6
  5  8  1  0
  6  7  1  0
  8  9  1  0
  9 10  1  0
 10 11  2  0
M  END
