
     RDKit          3D

 11 11  0  0  0  0  0  0  0  0999 V2000
    2.1340   -0.6200    0.1480 C   0  0  0  0  0  0  0  0  0  0  0  0
    0.7110   -0.0930    0.3380 C   0  0  1  0  0  0  0  0  0  0  0  0
    0.4710   -0.0840    1.7060 O   0  0  0  0  0  0  0  0  0  0  0  0
    0.6880    1.3150   -0.1530 C   0  0  0  0  0  0  0  0  0  0  0  0
   -0.5570    2.0410    0.1480 C   0  0  0  0  0  0  0  0  0  0  0  0
   -0.4840    3.2600    0.4700 O   0  0  0  0  0  0  0  0  0  0  0  0
   -1.8370    1.5500    0.1230 O   0  0  0  0  0  0  0  0  0  0  0  0
   -2.2660    0.3450   -0.3050 N   0  0  0  0  0  0  0  0  0  0  0  0
   -1.3500   -0.4090   -1.0710 C   0  0  0  0  0  0  0  0  0  0  0  0
   -0.2190   -1.0230   -0.3220 C   0  0  2  0  0  0  0  0  0  0  0  0
   -0.7700   -1.9040    0.6280 O   0  0  0  0  0  0  0  0  0  0  0  0
  2  1  1  1
  2  3  1  0
  2  4  1  0
  2 10  1  0
  4  5  1  0
  5  6  2  0
  5  7  1  0
  7  8  1  0
  8  9  1  0
  9 10  1  0
 10 11  1  1
M  END
