
     RDKit          3D

 22 24  0  0  0  0  0  0  0  0999 V2000
   -4.7790    1.8200    0.8150 C   0  0  0  0  0  0  0  0  0  0  0  0
   -4.0770    0.9530   -0.2150 C   0  0  1  0  0  0  0  0  0  0  0  0
   -2.7380    1.2550   -0.3170 O   0  0  0  0  0  0  0  0  0  0  0  0
   -2.1360    0.4360   -1.2430 C   0  0  1  0  0  0  0  0  0  0  0  0
   -0.7490    0.9080   -1.6250 C   0  0  0  0  0  0  0  0  0  0  0  0
    0.1600    0.9640   -0.4770 C   0  0  0  0  0  0  0  0  0  0  0  0
    0.1840    1.8990    0.3550 O   0  0  0  0  0  0  0  0  0  0  0  0
    1.0780   -0.0810   -0.2610 O   0  0  0  0  0  0  0  0  0  0  0  0
    1.9630   -0.0220    0.8620 C   0  0  1  0  0  0  0  0  0  0  0  0
    1.7930   -1.2410    1.6590 C   0  0  0  0  0  0  0  0  0  0  0  0
    0.7150   -1.5760    2.3050 O   0  0  0  0  0  0  0  0  0  0  0  0
    2.9760   -2.0030    1.6250 N   0  0  0  0  0  0  0  0  0  0  0  0
    3.9270   -1.3190    0.8230 C   0  0  0  0  0  0  0  0  0  0  0  0
    5.1490   -1.3860    0.3560 N   0  0  0  0  0  0  0  0  0  0  0  0
    5.4530   -0.2480   -0.4470 C   0  0  0  0  0  0  0  0  0  0  0  0
    4.2210    0.5600   -0.4210 C   0  0  0  0  0  0  0  0  0  0  0  0
    3.3420   -0.0970    0.3360 C   0  0  0  0  0  0  0  0  0  0  0  0
   -2.0790   -0.9450   -0.6740 C   0  0  0  0  0  0  0  0  0  0  0  0
   -1.0440   -1.6270   -0.6010 O   0  0  0  0  0  0  0  0  0  0  0  0
   -3.3310   -1.4630   -0.1980 N   0  0  0  0  0  0  0  0  0  0  0  0
   -4.3490   -0.4870    0.0210 C   0  0  0  0  0  0  0  0  0  0  0  0
   -5.4960   -0.8150    0.4180 O   0  0  0  0  0  0  0  0  0  0  0  0
  2  1  1  1
  2  3  1  0
  2 21  1  0
  3  4  1  0
  4  5  1  1
  4 18  1  0
  5  6  1  0
  6  7  2  0
  6  8  1  0
  9  8  1  6
  9 10  1  0
  9 17  1  0
 10 11  2  0
 10 12  1  0
 12 13  1  0
 13 14  2  0
 13 17  1  0
 14 15  1  0
 15 16  1  0
 16 17  2  0
 18 19  2  0
 18 20  1  0
 20 21  1  0
 21 22  2  0
M  CHG  1  14   1
M  END
