
     RDKit          3D

 22 23  0  0  0  0  0  0  0  0999 V2000
   -5.7810   -1.0260   -0.5540 C   0  0  0  0  0  0  0  0  0  0  0  0
   -4.5270   -0.7310   -0.3890 C   0  0  0  0  0  0  0  0  0  0  0  0
   -4.0260    0.2470    0.3940 C   0  0  0  0  0  0  0  0  0  0  0  0
   -4.7140    1.0660    1.1240 C   0  0  0  0  0  0  0  0  0  0  0  0
   -6.1210    1.2480    1.3680 C   0  0  0  0  0  0  0  0  0  0  0  0
   -2.6530    0.3590    0.3980 N   0  0  0  0  0  0  0  0  0  0  0  0
   -1.8080   -0.3910   -0.2840 C   0  0  0  0  0  0  0  0  0  0  0  0
   -0.0280   -0.1570   -0.2060 S   0  0  0  0  0  0  0  0  0  0  0  0
    0.6950   -1.1550    1.1170 C   0  0  0  0  0  0  0  0  0  0  0  0
    2.1820   -0.8930    1.1050 C   0  0  0  0  0  0  0  0  0  0  0  0
    2.8460   -1.4960    1.9500 O   0  0  0  0  0  0  0  0  0  0  0  0
    2.7820   -0.0080    0.1800 N   0  0  0  0  0  0  0  0  0  0  0  0
    4.1600    0.3020    0.0890 C   0  0  0  0  0  0  0  0  0  0  0  0
    5.1030   -0.2400    0.9170 C   0  0  0  0  0  0  0  0  0  0  0  0
    6.4670    0.0740    0.8190 C   0  0  0  0  0  0  0  0  0  0  0  0
    6.8900    0.9600   -0.1420 C   0  0  0  0  0  0  0  0  0  0  0  0
    5.9730    1.5210   -0.9890 C   0  0  0  0  0  0  0  0  0  0  0  0
    4.6180    1.1940   -0.8730 C   0  0  0  0  0  0  0  0  0  0  0  0
    3.7840    1.8230   -1.7830 O   0  0  0  0  0  0  0  0  0  0  0  0
   -2.2970   -1.3630   -1.0650 N   0  0  0  0  0  0  0  0  0  0  0  0
   -3.6160   -1.5300   -1.1170 C   0  0  0  0  0  0  0  0  0  0  0  0
   -4.0450   -2.4460   -1.8540 O   0  0  0  0  0  0  0  0  0  0  0  0
  1  2  2  0
  2  3  1  0
  2 21  1  0
  3  4  2  3
  3  6  1  0
  4  5  1  0
  6  7  2  0
  7  8  1  0
  7 20  1  0
  8  9  1  0
  9 10  1  0
 10 11  2  0
 10 12  1  0
 12 13  1  0
 13 14  2  0
 13 18  1  0
 14 15  1  0
 15 16  2  0
 16 17  1  0
 17 18  2  0
 18 19  1  0
 20 21  1  0
 21 22  2  0
M  END
