
     RDKit          3D

 22 23  0  0  0  0  0  0  0  0999 V2000
    5.5690    1.3800    1.7620 C   0  0  0  0  0  0  0  0  0  0  0  0
    4.7630    1.1540    0.5830 N   0  0  0  0  0  0  0  0  0  0  0  0
    4.9300    0.0010   -0.2290 C   0  0  0  0  0  0  0  0  0  0  0  0
    5.8100   -0.8310    0.1070 O   0  0  0  0  0  0  0  0  0  0  0  0
    4.0900   -0.2280   -1.4520 C   0  0  0  0  0  0  0  0  0  0  0  0
    3.1980    0.7750   -1.6530 O   0  0  0  0  0  0  0  0  0  0  0  0
    2.4150    0.5600   -2.7640 C   0  0  0  0  0  0  0  0  0  0  0  0
    1.5310   -0.6040   -2.6120 C   0  0  0  0  0  0  0  0  0  0  0  0
    0.8300   -1.0030   -3.5700 O   0  0  0  0  0  0  0  0  0  0  0  0
    1.4520   -1.2930   -1.3850 N   0  0  0  0  0  0  0  0  0  0  0  0
    0.3790   -1.3430   -0.7170 C   0  0  0  0  0  0  0  0  0  0  0  0
   -0.8210   -0.7220   -1.1300 N   0  0  0  0  0  0  0  0  0  0  0  0
   -1.8400   -0.3450   -0.2100 C   0  0  0  0  0  0  0  0  0  0  0  0
   -2.9890    0.2630   -0.7610 C   0  0  0  0  0  0  0  0  0  0  0  0
   -4.0450    0.6730    0.0070 C   0  0  0  0  0  0  0  0  0  0  0  0
   -5.2540    1.3140   -0.5890 C   0  0  0  0  0  0  0  0  0  0  0  0
   -3.9580    0.4720    1.3670 C   0  0  0  0  0  0  0  0  0  0  0  0
   -5.0950    0.9090    2.2260 C   0  0  0  0  0  0  0  0  0  0  0  0
   -2.8400   -0.1190    1.8960 C   0  0  0  0  0  0  0  0  0  0  0  0
   -1.7510   -0.5430    1.1230 C   0  0  0  0  0  0  0  0  0  0  0  0
   -0.6680   -1.1440    1.9130 C   0  0  0  0  0  0  0  0  0  0  0  0
    0.3120   -2.2320    0.8460 S   0  0  0  0  0  0  0  0  0  0  0  0
  1  2  1  0
  2  3  1  0
  3  4  2  0
  3  5  1  0
  5  6  1  0
  6  7  1  0
  7  8  1  0
  8  9  2  0
  8 10  1  0
 10 11  2  3
 11 12  1  0
 11 22  1  0
 12 13  1  0
 13 14  2  0
 13 20  1  0
 14 15  1  0
 15 16  1  0
 15 17  2  0
 17 18  1  0
 17 19  1  0
 19 20  2  0
 20 21  1  0
 21 22  1  0
M  END
