
     RDKit          3D

 22 23  0  0  0  0  0  0  0  0999 V2000
    2.9190   -1.5580    0.2260 O   0  0  0  0  0  0  0  0  0  0  0  0
    2.4840   -0.4030    0.0050 C   0  0  0  0  0  0  0  0  0  0  0  0
    1.0750   -0.2320   -0.3060 N   0  0  0  0  0  0  0  0  0  0  0  0
    0.2890   -1.4170   -0.3330 C   0  0  0  0  0  0  0  0  0  0  0  0
   -1.1530   -1.2060   -0.6550 C   0  0  0  0  0  0  0  0  0  0  0  0
   -1.8410   -0.3530    0.2690 N   0  0  0  0  0  0  0  0  0  0  0  0
   -3.2210   -0.0720    0.0750 C   0  0  0  0  0  0  0  0  0  0  0  0
   -3.9220    0.7490    0.9490 C   0  0  0  0  0  0  0  0  0  0  0  0
   -5.2670    0.9870    0.7080 C   0  0  0  0  0  0  0  0  0  0  0  0
   -5.9230    0.4330   -0.3710 C   0  0  0  0  0  0  0  0  0  0  0  0
   -7.6080    0.7470   -0.6510 S   0  0  1  0  0  0  0  0  0  0  0  0
   -8.1960    1.4640    0.5230 O   0  0  0  0  0  0  0  0  0  0  0  0
   -7.7080    1.5840   -1.9100 O   0  0  0  0  0  0  0  0  0  0  0  0
   -5.2360   -0.3840   -1.2450 C   0  0  0  0  0  0  0  0  0  0  0  0
   -3.9060   -0.6090   -0.9910 C   0  0  0  0  0  0  0  0  0  0  0  0
    3.3540    0.6980    0.0590 N   0  0  0  0  0  0  0  0  0  0  0  0
    4.7230    0.6240    0.3570 C   0  0  0  0  0  0  0  0  0  0  0  0
    5.4510    1.8100    0.2100 C   0  0  0  0  0  0  0  0  0  0  0  0
    6.7940    1.9140    0.4670 C   0  0  0  0  0  0  0  0  0  0  0  0
    7.4880    0.8200    0.8900 C   0  0  0  0  0  0  0  0  0  0  0  0
    6.8220   -0.3670    1.0510 C   0  0  0  0  0  0  0  0  0  0  0  0
    5.4460   -0.4500    0.7810 C   0  0  0  0  0  0  0  0  0  0  0  0
  1  2  2  0
  2  3  1  0
  2 16  1  0
  3  4  1  0
  4  5  1  0
  5  6  1  0
  6  7  1  0
  7  8  2  0
  7 15  1  0
  8  9  1  0
  9 10  2  0
 11 10  1  1
 10 14  1  0
 11 12  2  0
 11 13  2  0
 14 15  2  0
 16 17  1  0
 17 18  2  0
 17 22  1  0
 18 19  1  0
 19 20  2  0
 20 21  1  0
 21 22  2  0
M  END
