
     RDKit          3D

 22 23  0  0  0  0  0  0  0  0999 V2000
   -1.7720   -2.6140   -1.2060 C   0  0  0  0  0  0  0  0  0  0  0  0
   -0.5410   -2.3390   -1.3630 C   0  0  0  0  0  0  0  0  0  0  0  0
    0.8120   -2.0420   -1.5600 C   0  0  0  0  0  0  0  0  0  0  0  0
    1.6690   -2.8330   -2.3050 C   0  0  0  0  0  0  0  0  0  0  0  0
    2.9960   -2.5730   -2.5050 C   0  0  0  0  0  0  0  0  0  0  0  0
    4.0650   -3.5830   -3.4690 S   0  0  1  0  0  0  0  0  0  0  0  0
    4.8150   -2.6790   -4.4490 O   0  0  0  0  0  0  0  0  0  0  0  0
    5.0910   -4.2490   -2.6340 O   0  0  0  0  0  0  0  0  0  0  0  0
    3.5030   -1.4350   -1.9100 C   0  0  0  0  0  0  0  0  0  0  0  0
    2.6640   -0.6090   -1.1460 C   0  0  0  0  0  0  0  0  0  0  0  0
    1.3530   -0.8750   -0.9550 C   0  0  0  0  0  0  0  0  0  0  0  0
    0.4810   -0.0670   -0.2190 N   0  0  0  0  0  0  0  0  0  0  0  0
    0.8480    0.9920    0.5870 C   0  0  0  0  0  0  0  0  0  0  0  0
    2.0880    1.3030    0.7170 O   0  0  0  0  0  0  0  0  0  0  0  0
   -0.0790    1.8390    1.3460 C   0  0  0  0  0  0  0  0  0  0  0  0
   -1.4430    1.5180    1.1390 N   0  0  0  0  0  0  0  0  0  0  0  0
   -2.4130    2.1320    2.0110 C   0  0  0  0  0  0  0  0  0  0  0  0
   -3.6670    2.4300    1.5350 C   0  0  0  0  0  0  0  0  0  0  0  0
   -4.6430    2.9760    2.3140 C   0  0  0  0  0  0  0  0  0  0  0  0
   -4.3540    3.2360    3.6270 N   0  0  0  0  0  0  0  0  0  0  0  0
   -3.1570    2.9690    4.1440 C   0  0  0  0  0  0  0  0  0  0  0  0
   -2.1710    2.4070    3.3190 C   0  0  0  0  0  0  0  0  0  0  0  0
  1  2  3  0
  2  3  1  0
  3  4  2  0
  3 11  1  0
  4  5  1  0
  6  5  1  1
  5  9  2  0
  6  7  2  0
  6  8  2  0
  9 10  1  0
 10 11  2  0
 11 12  1  0
 12 13  1  0
 13 14  2  0
 13 15  1  0
 15 16  1  0
 16 17  1  0
 17 18  2  0
 17 22  1  0
 18 19  1  0
 19 20  2  0
 20 21  1  0
 21 22  2  0
M  END
