
     RDKit          3D

 20 21  0  0  0  0  0  0  0  0999 V2000
    6.5850   -0.9790    1.5860 N   0  0  0  0  0  0  0  0  0  0  0  0
    5.8040   -0.5310    0.4720 C   0  0  0  0  0  0  0  0  0  0  0  0
    5.3970   -1.3750   -0.3440 O   0  0  0  0  0  0  0  0  0  0  0  0
    5.4960    0.9180    0.3140 C   0  0  0  0  0  0  0  0  0  0  0  0
    3.9380    1.2320    1.1880 S   0  0  0  0  0  0  0  0  0  0  0  0
    2.6150    0.3770    0.3610 C   0  0  0  0  0  0  0  0  0  0  0  0
    2.8220   -0.3670   -0.7390 N   0  0  0  0  0  0  0  0  0  0  0  0
    1.7440   -0.9830   -1.3030 C   0  0  0  0  0  0  0  0  0  0  0  0
    0.5110   -0.8680   -0.7990 N   0  0  0  0  0  0  0  0  0  0  0  0
    0.3110   -0.1240    0.3000 C   0  0  0  0  0  0  0  0  0  0  0  0
   -1.0040    0.0210    0.8660 N   0  0  0  0  0  0  0  0  0  0  0  0
   -2.1420   -0.6110    0.2870 C   0  0  1  0  0  0  0  0  0  0  0  0
   -3.4030   -0.3110    1.0690 C   0  0  0  0  0  0  0  0  0  0  0  0
   -4.1480    0.8680    0.4720 C   0  0  0  0  0  0  0  0  0  0  0  0
   -5.0740    0.2510   -0.5870 C   0  0  0  0  0  0  0  0  0  0  0  0
   -3.9700   -0.5620   -1.7370 S   0  0  2  0  0  0  0  0  0  0  0  0
   -4.1450    0.0250   -3.1060 O   0  0  0  0  0  0  0  0  0  0  0  0
   -4.2480   -2.0370   -1.7140 O   0  0  0  0  0  0  0  0  0  0  0  0
   -2.3060   -0.2730   -1.1870 C   0  0  0  0  0  0  0  0  0  0  0  0
    1.3740    0.4800    0.8510 N   0  0  0  0  0  0  0  0  0  0  0  0
  1  2  1  0
  2  3  2  0
  2  4  1  0
  4  5  1  0
  5  6  1  0
  6  7  2  0
  6 20  1  0
  7  8  1  0
  8  9  2  0
  9 10  1  0
 10 11  1  0
 10 20  2  0
 12 11  1  1
 12 13  1  0
 12 19  1  0
 13 14  1  0
 14 15  1  0
 16 15  1  1
 16 17  2  0
 16 18  2  0
 16 19  1  0
M  END
