
     RDKit          3D

 21 22  0  0  0  0  0  0  0  0999 V2000
   -0.0130    0.0550   -1.5670 O   0  0  0  0  0  0  0  0  0  0  0  0
    0.7040   -0.2400   -0.5850 C   0  0  0  0  0  0  0  0  0  0  0  0
    0.1020   -0.7620    0.5780 N   0  0  0  0  0  0  0  0  0  0  0  0
   -1.3200   -0.9480    0.6370 C   0  0  0  0  0  0  0  0  0  0  0  0
   -2.1150    0.3150    0.4700 C   0  0  0  0  0  0  0  0  0  0  0  0
   -3.6000    0.0350    0.5520 C   0  0  0  0  0  0  0  0  0  0  0  0
   -4.0590   -1.1850    0.7410 C   0  0  0  0  0  0  0  0  0  0  0  0
   -5.8250   -0.9970    0.7660 S   0  0  2  0  0  0  0  0  0  0  0  0
   -6.4490   -1.7880    1.8520 O   0  0  0  0  0  0  0  0  0  0  0  0
   -6.3980   -1.2400   -0.5830 O   0  0  0  0  0  0  0  0  0  0  0  0
   -5.8100    0.7210    1.1500 N   0  0  0  0  0  0  0  0  0  0  0  0
   -4.6170    1.0880    0.4140 C   0  0  0  0  0  0  0  0  0  0  0  0
    2.1410   -0.0370   -0.6690 N   0  0  0  0  0  0  0  0  0  0  0  0
    2.6870    0.4870   -1.8530 C   0  0  0  0  0  0  0  0  0  0  0  0
    1.6570    0.8480   -3.1020 S   0  0  0  0  0  0  0  0  0  0  0  0
    4.0370    0.7320   -2.0720 N   0  0  0  0  0  0  0  0  0  0  0  0
    5.1210    0.5180   -1.1860 C   0  0  0  0  0  0  0  0  0  0  0  0
    6.3930    0.7210   -1.3190 N   0  0  0  0  0  0  0  0  0  0  0  0
    7.2490    0.4690   -0.4080 C   0  0  0  0  0  0  0  0  0  0  0  0
    6.8420   -0.0460    0.7970 C   0  0  0  0  0  0  0  0  0  0  0  0
    5.0610   -0.1380    0.4880 S   0  0  0  0  0  0  0  0  0  0  0  0
  1  2  2  0
  2  3  1  0
  2 13  1  0
  3  4  1  0
  4  5  1  0
  5  6  1  0
  6  7  2  0
  6 12  1  0
  7  8  1  0
  8  9  2  0
  8 10  2  0
  8 11  1  1
 11 12  1  0
 13 14  1  0
 14 15  2  0
 14 16  1  0
 16 17  1  0
 17 18  2  0
 17 21  1  0
 18 19  1  0
 19 20  2  0
 20 21  1  0
M  END
