
     RDKit          3D

 12 12  0  0  0  0  0  0  0  0999 V2000
   -0.5680    2.2070    0.6480 N   0  0  0  0  0  0  0  0  0  0  0  0
    0.0350    0.9400    0.8740 C   0  0  0  0  0  0  0  0  0  0  0  0
    0.6060    0.7390    1.9690 O   0  0  0  0  0  0  0  0  0  0  0  0
   -0.0570   -0.0620   -0.2110 C   0  0  2  0  0  0  0  0  0  0  0  0
    0.5000    0.5280   -1.4590 C   0  0  0  0  0  0  0  0  0  0  0  0
    2.2250    0.9540   -1.1040 S   0  0  0  0  0  0  0  0  0  0  0  0
    3.0840   -0.3220   -1.0710 O   0  0  0  0  0  0  0  0  0  0  0  0
   -1.5060   -0.4810   -0.3320 C   0  0  0  0  0  0  0  0  0  0  0  0
   -1.6150   -1.4040    0.7800 N   0  0  0  0  0  0  0  0  0  0  0  0
   -0.3030   -1.8670    1.0560 C   0  0  0  0  0  0  0  0  0  0  0  0
    0.0270   -2.6470    1.9750 O   0  0  0  0  0  0  0  0  0  0  0  0
    0.5820   -1.3020    0.1170 N   0  0  0  0  0  0  0  0  0  0  0  0
  1  2  1  0
  2  3  2  0
  2  4  1  0
  4  5  1  6
  4  8  1  0
  4 12  1  0
  5  6  1  0
  6  7  2  0
  8  9  1  0
  9 10  1  0
 10 11  2  0
 10 12  1  0
M  CHG  1  12   1
M  END
