
     RDKit          3D

 12 12  0  0  0  0  0  0  0  0999 V2000
    3.0230    0.4960    0.8340 N   0  0  0  0  0  0  0  0  0  0  0  0
    2.6950   -0.5110   -0.5000 S   0  0  2  0  0  0  0  0  0  0  0  0
    2.8930   -1.9600   -0.0750 O   0  0  0  0  0  0  0  0  0  0  0  0
    3.7140   -0.2590   -1.5750 O   0  0  0  0  0  0  0  0  0  0  0  0
    1.0810   -0.3170   -1.1660 C   0  0  0  0  0  0  0  0  0  0  0  0
   -0.0220   -0.6100   -0.1990 C   0  0  2  0  0  0  0  0  0  0  0  0
   -1.3350   -0.3870   -0.9590 C   0  0  0  0  0  0  0  0  0  0  0  0
   -2.5220   -0.3630   -0.0450 C   0  0  0  0  0  0  0  0  0  0  0  0
   -2.4560    0.8550    0.7430 N   0  0  0  0  0  0  0  0  0  0  0  0
   -1.1640    1.0120    1.3180 C   0  0  0  0  0  0  0  0  0  0  0  0
   -1.0350    1.9150    2.1840 O   0  0  0  0  0  0  0  0  0  0  0  0
   -0.0510    0.2130    0.9600 N   0  0  0  0  0  0  0  0  0  0  0  0
  2  1  1  1
  2  3  2  0
  2  4  2  0
  2  5  1  0
  6  5  1  6
  6  7  1  0
  6 12  1  0
  7  8  1  0
  8  9  1  0
  9 10  1  0
 10 11  2  0
 10 12  1  0
M  CHG  1   9   1
M  END
