
     RDKit          3D

 23 24  0  0  0  0  0  0  0  0999 V2000
   -4.9130    2.3220    1.6380 N   0  0  0  0  0  0  0  0  0  0  0  0
   -4.8410    1.9710   -0.0570 S   0  0  2  0  0  0  0  0  0  0  0  0
   -4.4960    3.1870   -0.8340 O   0  0  0  0  0  0  0  0  0  0  0  0
   -6.2320    1.5380   -0.4680 O   0  0  0  0  0  0  0  0  0  0  0  0
   -3.6760    0.6920   -0.3050 C   0  0  0  0  0  0  0  0  0  0  0  0
   -2.3490    0.9860   -0.5340 C   0  0  0  0  0  0  0  0  0  0  0  0
   -1.4130   -0.0360   -0.7330 C   0  0  0  0  0  0  0  0  0  0  0  0
   -1.7630   -1.3640   -0.7090 C   0  0  0  0  0  0  0  0  0  0  0  0
   -0.7960   -2.4810   -0.9090 C   0  0  0  0  0  0  0  0  0  0  0  0
   -0.2110   -2.9890    0.3620 C   0  0  0  0  0  0  0  0  0  0  0  0
    0.5050   -1.9440    1.0390 N   0  0  0  0  0  0  0  0  0  0  0  0
    1.6380   -1.3110    0.4400 C   0  0  0  0  0  0  0  0  0  0  0  0
    2.0040   -1.6800   -0.6890 O   0  0  0  0  0  0  0  0  0  0  0  0
    2.3440   -0.2830    1.0970 N   0  0  0  0  0  0  0  0  0  0  0  0
    3.4560    0.4280    0.6370 C   0  0  0  0  0  0  0  0  0  0  0  0
    4.0880    1.2800    1.5500 C   0  0  0  0  0  0  0  0  0  0  0  0
    5.1840    2.0170    1.1610 C   0  0  0  0  0  0  0  0  0  0  0  0
    5.6560    1.9090   -0.1420 C   0  0  0  0  0  0  0  0  0  0  0  0
    7.0520    2.8350   -0.6710 Cl  0  0  0  0  0  0  0  0  0  0  0  0
    5.0610    1.0840   -1.0610 C   0  0  0  0  0  0  0  0  0  0  0  0
    3.9420    0.3400   -0.6390 C   0  0  0  0  0  0  0  0  0  0  0  0
   -3.1140   -1.6500   -0.4750 C   0  0  0  0  0  0  0  0  0  0  0  0
   -4.0330   -0.6410   -0.2800 C   0  0  0  0  0  0  0  0  0  0  0  0
  2  1  1  1
  2  3  2  0
  2  4  2  0
  2  5  1  0
  5  6  2  0
  5 23  1  0
  6  7  1  0
  7  8  2  0
  8  9  1  0
  8 22  1  0
  9 10  1  0
 10 11  1  0
 11 12  1  0
 12 13  2  0
 12 14  1  0
 14 15  1  0
 15 16  2  0
 15 21  1  0
 16 17  1  0
 17 18  2  0
 18 19  1  0
 18 20  1  0
 20 21  2  0
 22 23  2  0
M  END
