
     RDKit          3D

 12 12  0  0  0  0  0  0  0  0999 V2000
    2.9680    1.2410    0.1930 N   0  0  0  0  0  0  0  0  0  0  0  0
    3.0730   -0.0600   -0.3950 C   0  0  0  0  0  0  0  0  0  0  0  0
    1.7150   -0.6400   -0.7170 C   0  0  0  0  0  0  0  0  0  0  0  0
    0.6710   -0.8230    0.7550 S   0  0  0  0  0  0  0  0  0  0  0  0
   -0.9170   -1.5130    0.1390 C   0  0  0  0  0  0  0  0  0  0  0  0
   -1.5130   -0.3910   -0.7200 C   0  0  1  0  0  0  0  0  0  0  0  0
   -2.7240   -0.7380   -1.2740 O   0  0  0  0  0  0  0  0  0  0  0  0
   -3.7010   -0.5270   -0.3770 N   0  0  0  0  0  0  0  0  0  0  0  0
   -4.0090    0.7820   -0.2500 O   0  0  0  0  0  0  0  0  0  0  0  0
   -2.9360    1.3960    0.3000 N   0  0  0  0  0  0  0  0  0  0  0  0
   -1.6670    0.7740    0.2020 C   0  0  0  0  0  0  0  0  0  0  0  0
   -0.6730    1.1760    0.8680 O   0  0  0  0  0  0  0  0  0  0  0  0
  1  2  1  0
  2  3  1  0
  3  4  1  0
  4  5  1  0
  6  5  1  1
  6  7  1  0
  6 11  1  0
  7  8  1  0
  8  9  1  0
  9 10  1  0
 10 11  1  0
 11 12  2  0
M  CHG  1   1   1
M  END
