
     RDKit          3D

 10 10  0  0  0  0  0  0  0  0999 V2000
   -2.3020   -0.7360    0.7020 C   0  0  0  0  0  0  0  0  0  0  0  0
   -0.9160   -0.7470    0.3280 N   0  0  0  0  0  0  0  0  0  0  0  0
   -0.2050    0.4690   -0.0710 C   0  0  0  0  0  0  0  0  0  0  0  0
   -0.9240    1.6490   -0.0960 C   0  0  0  0  0  0  0  0  0  0  0  0
    0.2660    2.8690   -0.6220 S   0  0  0  0  0  0  0  0  0  0  0  0
    1.6250    1.7420   -0.7720 C   0  0  0  0  0  0  0  0  0  0  0  0
    1.0880    0.5060   -0.4110 C   0  0  0  0  0  0  0  0  0  0  0  0
    2.0310   -0.6700   -0.4430 C   0  0  0  0  0  0  0  0  0  0  0  0
    3.2290   -0.5200   -0.7800 O   0  0  0  0  0  0  0  0  0  0  0  0
    1.6560   -1.9450   -0.1160 O   0  0  0  0  0  0  0  0  0  0  0  0
  1  2  1  0
  2  3  1  0
  3  4  2  0
  3  7  1  0
  4  5  1  0
  5  6  1  0
  6  7  2  0
  7  8  1  0
  8  9  2  0
  8 10  1  0
M  END
