
     RDKit          3D

 10 10  0  0  0  0  0  0  0  0999 V2000
   -1.7880    1.3430    0.4630 C   0  0  0  0  0  0  0  0  0  0  0  0
   -0.3920    0.8620    0.2410 C   0  0  0  0  0  0  0  0  0  0  0  0
    1.0080    1.8400    0.3660 S   0  0  0  0  0  0  0  0  0  0  0  0
    2.4460    0.9780    0.0490 C   0  0  0  0  0  0  0  0  0  0  0  0
    3.6000    1.5200    0.0880 O   0  0  0  0  0  0  0  0  0  0  0  0
    2.2850   -0.3290   -0.2510 N   0  0  0  0  0  0  0  0  0  0  0  0
    1.1220   -0.9670   -0.3130 C   0  0  0  0  0  0  0  0  0  0  0  0
    1.1970   -2.2100   -0.6150 O   0  0  0  0  0  0  0  0  0  0  0  0
   -0.1190   -0.4530   -0.0940 C   0  0  0  0  0  0  0  0  0  0  0  0
   -1.3240   -1.3520   -0.2160 C   0  0  0  0  0  0  0  0  0  0  0  0
  1  2  1  0
  2  3  1  0
  2  9  2  0
  3  4  1  0
  4  5  2  0
  4  6  1  0
  6  7  1  0
  7  8  2  0
  7  9  1  0
  9 10  1  0
M  END
