
     RDKit          3D

 10 10  0  0  0  0  0  0  0  0999 V2000
    3.4330   -0.4940   -0.1260 C   0  0  0  0  0  0  0  0  0  0  0  0
    2.2140    0.2150   -0.1260 O   0  0  0  0  0  0  0  0  0  0  0  0
    0.9820   -0.3860   -0.0210 C   0  0  0  0  0  0  0  0  0  0  0  0
    0.9090   -1.6140    0.0810 O   0  0  0  0  0  0  0  0  0  0  0  0
   -0.2630    0.4220   -0.0280 C   0  0  0  0  0  0  0  0  0  0  0  0
   -0.3770    2.1280   -0.1590 S   0  0  0  0  0  0  0  0  0  0  0  0
   -2.1980    2.2200   -0.0820 C   0  0  0  0  0  0  0  0  0  0  0  0
   -2.5220    0.9000    0.0380 C   0  0  0  0  0  0  0  0  0  0  0  0
   -1.5750   -0.0190    0.0680 C   0  0  0  0  0  0  0  0  0  0  0  0
   -1.8170   -1.4410    0.1930 N   0  0  0  0  0  0  0  0  0  0  0  0
  1  2  1  0
  2  3  1  0
  3  4  2  0
  3  5  1  0
  5  6  1  0
  5  9  2  0
  6  7  1  0
  7  8  2  0
  8  9  1  0
  9 10  1  0
M  END
