
     RDKit          3D

 10 10  0  0  0  0  0  0  0  0999 V2000
    3.0520   -0.3350   -0.0880 C   0  0  0  0  0  0  0  0  0  0  0  0
    1.7630   -0.0350   -1.3540 S   0  0  0  0  0  0  0  0  0  0  0  0
    0.1370   -0.1510   -0.6230 C   0  0  0  0  0  0  0  0  0  0  0  0
   -0.5790   -1.3050   -0.5480 C   0  0  0  0  0  0  0  0  0  0  0  0
   -1.7960   -1.3070    0.0180 N   0  0  0  0  0  0  0  0  0  0  0  0
   -2.3610   -0.1950    0.5300 C   0  0  0  0  0  0  0  0  0  0  0  0
   -3.5130   -0.2940    1.0440 O   0  0  0  0  0  0  0  0  0  0  0  0
   -1.6910    1.0090    0.4870 C   0  0  0  0  0  0  0  0  0  0  0  0
   -0.4300    1.0120   -0.0990 C   0  0  0  0  0  0  0  0  0  0  0  0
    0.3010    2.1960   -0.1750 O   0  0  0  0  0  0  0  0  0  0  0  0
  1  2  1  0
  2  3  1  0
  3  4  2  0
  3  9  1  0
  4  5  1  0
  5  6  1  0
  6  7  2  0
  6  8  1  0
  8  9  2  0
  9 10  1  0
M  END
