
     RDKit          3D

 33 37  0  0  0  0  0  0  0  0999 V2000
    0.2120    1.6550   -0.2170 C   0  0  0  0  0  0  0  0  0  0  0  0
    1.6270    1.1440   -0.1020 C   0  0  0  0  0  0  0  0  0  0  0  0
    2.5800    1.5380   -0.9990 C   0  0  0  0  0  0  0  0  0  0  0  0
    3.8890    1.0900   -0.9260 C   0  0  0  0  0  0  0  0  0  0  0  0
    4.2790    0.2210    0.0660 C   0  0  0  0  0  0  0  0  0  0  0  0
    5.5920   -0.2640    0.1870 N   0  0  0  0  0  0  0  0  0  0  0  0
    6.5940    0.1330   -0.7370 C   0  0  0  0  0  0  0  0  0  0  0  0
    7.3930   -0.6970   -1.4100 C   0  0  0  0  0  0  0  0  0  0  0  0
    8.2740    0.0490   -2.2440 N   0  0  0  0  0  0  0  0  0  0  0  0
    7.9120    1.4090   -1.9960 C   0  0  0  0  0  0  0  0  0  0  0  0
    6.9560    1.4430   -1.1370 N   0  0  0  0  0  0  0  0  0  0  0  0
    3.2900   -0.1760    0.9810 C   0  0  0  0  0  0  0  0  0  0  0  0
    1.9930    0.2610    0.9170 C   0  0  0  0  0  0  0  0  0  0  0  0
    0.9580   -0.1080    1.8150 N   0  0  0  0  0  0  0  0  0  0  0  0
    1.1300   -0.9920    2.8950 C   0  0  0  0  0  0  0  0  0  0  0  0
    2.2040   -1.5400    3.1860 O   0  0  0  0  0  0  0  0  0  0  0  0
   -0.0210   -1.3190    3.7730 C   0  0  0  0  0  0  0  0  0  0  0  0
   -1.2560   -0.8160    3.3340 O   0  0  0  0  0  0  0  0  0  0  0  0
   -1.8360   -1.2440    2.1310 C   0  0  0  0  0  0  0  0  0  0  0  0
   -1.1650   -2.1060    1.4990 O   0  0  0  0  0  0  0  0  0  0  0  0
   -3.1180   -0.7270    1.6550 C   0  0  0  0  0  0  0  0  0  0  0  0
   -3.6120   -1.3820    0.3720 C   0  0  1  0  0  0  0  0  0  0  0  0
   -3.8020   -2.8480    0.6500 C   0  0  0  0  0  0  0  0  0  0  0  0
   -5.4350   -2.6590    1.5220 S   0  0  0  0  0  0  0  0  0  0  0  0
   -5.9610   -1.3250    0.4530 C   0  0  0  0  0  0  0  0  0  0  0  0
   -7.0240   -0.6910   -0.0160 N   0  0  0  0  0  0  0  0  0  0  0  0
   -6.6390    0.2920   -0.8790 C   0  0  0  0  0  0  0  0  0  0  0  0
   -7.3240    1.2250   -1.6270 C   0  0  0  0  0  0  0  0  0  0  0  0
   -6.6120    2.0980   -2.4170 C   0  0  0  0  0  0  0  0  0  0  0  0
   -5.2280    2.0650   -2.4800 C   0  0  0  0  0  0  0  0  0  0  0  0
   -4.5880    1.1150   -1.7140 C   0  0  0  0  0  0  0  0  0  0  0  0
   -5.2670    0.2230   -0.9100 C   0  0  0  0  0  0  0  0  0  0  0  0
   -4.8510   -0.7970   -0.0700 N   0  0  0  0  0  0  0  0  0  0  0  0
  1  2  1  0
  2  3  2  0
  2 13  1  0
  3  4  1  0
  4  5  2  0
  5  6  1  0
  5 12  1  0
  6  7  1  0
  7  8  2  0
  7 11  1  0
  8  9  1  0
  9 10  1  0
 10 11  2  0
 12 13  2  0
 13 14  1  0
 14 15  1  0
 15 16  2  0
 15 17  1  0
 17 18  1  0
 18 19  1  0
 19 20  2  0
 19 21  1  0
 22 21  1  1
 22 23  1  0
 22 33  1  0
 23 24  1  0
 24 25  1  0
 25 26  2  0
 25 33  1  0
 26 27  1  0
 27 28  2  0
 27 32  1  0
 28 29  1  0
 29 30  2  0
 30 31  1  0
 31 32  2  0
 32 33  1  0
M  CHG  1   9   1
M  END
