
     RDKit          3D

 33 37  0  0  0  0  0  0  0  0999 V2000
    0.7170    0.8410    0.0500 O   0  0  0  0  0  0  0  0  0  0  0  0
    0.7800   -0.4060    0.0860 C   0  0  0  0  0  0  0  0  0  0  0  0
   -0.3800   -1.1870    0.6470 C   0  0  0  0  0  0  0  0  0  0  0  0
   -1.4540   -0.2280    1.0740 C   0  0  0  0  0  0  0  0  0  0  0  0
   -2.6080   -0.8820    1.6250 N   0  0  0  0  0  0  0  0  0  0  0  0
   -3.5660   -1.1160    0.5650 C   0  0  1  0  0  0  0  0  0  0  0  0
   -4.2970   -2.3900    0.7330 C   0  0  0  0  0  0  0  0  0  0  0  0
   -5.2630   -2.6430   -0.1410 C   0  0  0  0  0  0  0  0  0  0  0  0
   -5.4770   -1.5770   -1.1920 C   0  0  0  0  0  0  0  0  0  0  0  0
   -5.5690   -0.2810   -0.4740 N   0  0  0  0  0  0  0  0  0  0  0  0
   -6.6250    0.5470   -0.8620 C   0  0  0  0  0  0  0  0  0  0  0  0
   -7.4190    0.1430   -1.8170 O   0  0  0  0  0  0  0  0  0  0  0  0
   -6.9270    1.8360   -0.2940 C   0  0  0  0  0  0  0  0  0  0  0  0
   -6.3660    2.5730    0.7100 C   0  0  0  0  0  0  0  0  0  0  0  0
   -7.0970    3.7600    0.8110 C   0  0  0  0  0  0  0  0  0  0  0  0
   -8.0710    3.6820   -0.1440 C   0  0  0  0  0  0  0  0  0  0  0  0
   -7.9460    2.5590   -0.7640 O   0  0  0  0  0  0  0  0  0  0  0  0
   -4.6050    0.0160    0.5190 C   0  0  0  0  0  0  0  0  0  0  0  0
    1.9420   -1.0630   -0.4010 N   0  0  0  0  0  0  0  0  0  0  0  0
    1.9770   -2.4940   -0.3420 C   0  0  0  0  0  0  0  0  0  0  0  0
    3.3190   -3.0880   -0.0310 C   0  0  0  0  0  0  0  0  0  0  0  0
    4.3270   -2.0730    0.0670 C   0  0  0  0  0  0  0  0  0  0  0  0
    6.0070   -2.2290    0.7370 S   0  0  0  0  0  0  0  0  0  0  0  0
    6.4030   -0.4130    0.3870 C   0  0  0  0  0  0  0  0  0  0  0  0
    7.7510    0.0320    0.7680 N   0  0  0  0  0  0  0  0  0  0  0  0
    8.1370    1.3570    0.5490 C   0  0  0  0  0  0  0  0  0  0  0  0
    7.3630    2.3540   -0.0130 C   0  0  0  0  0  0  0  0  0  0  0  0
    8.1570    3.4800   -0.0250 C   0  0  0  0  0  0  0  0  0  0  0  0
    9.3620    3.1890    0.5040 N   0  0  0  0  0  0  0  0  0  0  0  0
    9.3440    1.8940    0.8520 C   0  0  0  0  0  0  0  0  0  0  0  0
    5.4120   -0.0840   -0.0730 N   0  0  0  0  0  0  0  0  0  0  0  0
    4.3020   -0.7730   -0.2980 C   0  0  0  0  0  0  0  0  0  0  0  0
    3.0110   -0.2500   -0.9250 C   0  0  0  0  0  0  0  0  0  0  0  0
  1  2  2  0
  2  3  1  0
  2 19  1  0
  3  4  1  0
  4  5  1  0
  6  5  1  1
  6  7  1  0
  6 18  1  0
  7  8  2  0
  8  9  1  0
  9 10  1  0
 10 11  1  0
 10 18  1  0
 11 12  2  0
 11 13  1  0
 13 14  2  0
 13 17  1  0
 14 15  1  0
 15 16  2  0
 16 17  1  0
 19 20  1  0
 19 33  1  0
 20 21  1  0
 21 22  1  0
 22 23  1  0
 22 32  2  0
 23 24  1  0
 24 25  1  0
 24 31  2  0
 25 26  1  0
 26 27  1  0
 26 30  2  0
 27 28  2  0
 28 29  1  0
 29 30  1  0
 31 32  1  0
 32 33  1  0
M  CHG  1   5   1
M  END
