
     RDKit          3D

 32 36  0  0  0  0  0  0  0  0999 V2000
   -4.0800   -0.7420    3.2390 C   0  0  0  0  0  0  0  0  0  0  0  0
   -3.3390   -0.0830    2.1040 C   0  0  0  0  0  0  0  0  0  0  0  0
   -2.3650    0.8510    2.3230 C   0  0  0  0  0  0  0  0  0  0  0  0
   -1.7190    1.4220    1.2550 C   0  0  0  0  0  0  0  0  0  0  0  0
   -0.8130    2.2930    1.5080 O   0  0  0  0  0  0  0  0  0  0  0  0
   -2.0190    1.0850   -0.0370 N   0  0  0  0  0  0  0  0  0  0  0  0
   -1.2680    1.7590   -0.9980 C   0  0  0  0  0  0  0  0  0  0  0  0
   -1.8130    2.7890   -1.6450 N   0  0  0  0  0  0  0  0  0  0  0  0
   -1.1490    3.5510   -2.5240 C   0  0  0  0  0  0  0  0  0  0  0  0
    0.1740    3.2680   -2.7860 C   0  0  0  0  0  0  0  0  0  0  0  0
    0.7570    2.2160   -2.1340 C   0  0  0  0  0  0  0  0  0  0  0  0
    0.0520    1.4610   -1.2460 C   0  0  0  0  0  0  0  0  0  0  0  0
    0.7000    0.3190   -0.5580 C   0  0  0  0  0  0  0  0  0  0  0  0
    0.0670   -0.3970    0.2530 O   0  0  0  0  0  0  0  0  0  0  0  0
    2.0230   -0.0030   -0.7810 O   0  0  0  0  0  0  0  0  0  0  0  0
    2.6740   -1.0860   -0.1420 C   0  0  1  0  0  0  0  0  0  0  0  0
    3.2100   -2.0920   -1.1060 C   0  0  0  0  0  0  0  0  0  0  0  0
    4.0240   -3.0770   -0.3280 C   0  0  0  0  0  0  0  0  0  0  0  0
    3.7430   -4.3090   -0.2880 O   0  0  0  0  0  0  0  0  0  0  0  0
    5.1480   -2.5710    0.3800 N   0  0  0  0  0  0  0  0  0  0  0  0
    5.0620   -1.2330    0.8730 C   0  0  0  0  0  0  0  0  0  0  0  0
    5.9240   -0.5170    1.5460 C   0  0  0  0  0  0  0  0  0  0  0  0
    5.3350    0.8150    1.8120 C   0  0  0  0  0  0  0  0  0  0  0  0
    4.0060    0.6960    1.1660 C   0  0  0  0  0  0  0  0  0  0  0  0
    3.8310   -0.4930    0.6140 C   0  0  0  0  0  0  0  0  0  0  0  0
   -2.9530    0.1870   -0.3000 C   0  0  0  0  0  0  0  0  0  0  0  0
   -3.3150   -0.2010   -1.5740 C   0  0  0  0  0  0  0  0  0  0  0  0
   -2.6650    0.3800   -2.7470 C   0  0  0  0  0  0  0  0  0  0  0  0
   -4.3290   -1.1640   -1.7130 C   0  0  0  0  0  0  0  0  0  0  0  0
   -4.9800   -1.7400   -0.6500 C   0  0  0  0  0  0  0  0  0  0  0  0
   -4.6140   -1.3480    0.6210 C   0  0  0  0  0  0  0  0  0  0  0  0
   -3.6300   -0.4120    0.7930 C   0  0  0  0  0  0  0  0  0  0  0  0
  1  2  1  0
  2  3  2  0
  2 32  1  0
  3  4  1  0
  4  5  2  0
  4  6  1  0
  6  7  1  0
  6 26  1  0
  7  8  2  0
  7 12  1  0
  8  9  1  0
  9 10  2  0
 10 11  1  0
 11 12  2  0
 12 13  1  0
 13 14  2  0
 13 15  1  0
 16 15  1  6
 16 17  1  0
 16 25  1  0
 17 18  1  0
 18 19  2  0
 18 20  1  0
 20 21  1  0
 21 22  2  0
 21 25  1  0
 22 23  1  0
 23 24  1  0
 24 25  2  0
 26 27  2  0
 26 32  1  0
 27 28  1  0
 27 29  1  0
 29 30  2  0
 30 31  1  0
 31 32  2  0
M  END
