
     RDKit          3D

 33 36  0  0  0  0  0  0  0  0999 V2000
   -9.6350    0.7590    0.8830 C   0  0  0  0  0  0  0  0  0  0  0  0
   -8.8700    0.7170   -0.1810 C   0  0  0  0  0  0  0  0  0  0  0  0
   -9.1270    1.5510   -1.4040 C   0  0  0  0  0  0  0  0  0  0  0  0
   -7.8570    2.3220   -1.6540 C   0  0  0  0  0  0  0  0  0  0  0  0
   -6.7080    1.3970   -1.6900 C   0  0  0  0  0  0  0  0  0  0  0  0
   -6.6510    0.2470   -1.0330 C   0  0  0  0  0  0  0  0  0  0  0  0
   -5.4860   -0.6250   -1.1080 C   0  0  0  0  0  0  0  0  0  0  0  0
   -4.5020   -0.3060   -1.8010 O   0  0  0  0  0  0  0  0  0  0  0  0
   -5.4810   -1.8390   -0.3860 N   0  0  0  0  0  0  0  0  0  0  0  0
   -4.3680   -2.7590   -0.3900 C   0  0  0  0  0  0  0  0  0  0  0  0
   -3.1740   -2.1660    0.1970 C   0  0  0  0  0  0  0  0  0  0  0  0
   -2.1140   -2.8650    0.1980 O   0  0  0  0  0  0  0  0  0  0  0  0
   -3.1600   -0.8860    0.7470 N   0  0  0  0  0  0  0  0  0  0  0  0
   -1.9640   -0.2920    1.3360 C   0  0  0  0  0  0  0  0  0  0  0  0
   -1.5460    0.6660    1.8600 N   0  0  0  0  0  0  0  0  0  0  0  0
   -0.3450    0.8730    2.2870 N   0  0  0  0  0  0  0  0  0  0  0  0
    0.5440    0.0070    2.1710 C   0  0  0  0  0  0  0  0  0  0  0  0
    1.9750   -0.2250    2.4760 C   0  0  2  0  0  0  0  0  0  0  0  0
    2.5540    1.1180    2.8520 C   0  0  0  0  0  0  0  0  0  0  0  0
    2.6280   -0.8160    1.3430 N   0  0  0  0  0  0  0  0  0  0  0  0
    4.0010   -1.1090    1.5270 C   0  0  0  0  0  0  0  0  0  0  0  0
    4.9270   -0.1810    0.7640 C   0  0  0  0  0  0  0  0  0  0  0  0
    4.5240   -0.2610   -0.6300 N   0  0  2  0  0  0  0  0  0  0  0  0
    5.4840    0.2580   -1.5450 C   0  0  0  0  0  0  0  0  0  0  0  0
    6.8870    0.1750   -1.0940 C   0  0  0  0  0  0  0  0  0  0  0  0
    7.6720    1.2270   -0.9320 C   0  0  0  0  0  0  0  0  0  0  0  0
    9.0020    0.7720   -0.4730 C   0  0  0  0  0  0  0  0  0  0  0  0
    8.8770   -0.6960   -0.3920 C   0  0  0  0  0  0  0  0  0  0  0  0
    7.6560   -1.0130   -0.7530 C   0  0  0  0  0  0  0  0  0  0  0  0
    3.2320    0.3910   -0.7180 C   0  0  0  0  0  0  0  0  0  0  0  0
    2.2230   -0.3530    0.0810 C   0  0  0  0  0  0  0  0  0  0  0  0
   -0.3800   -1.3370    1.3390 S   0  0  0  0  0  0  0  0  0  0  0  0
   -7.7580   -0.1040   -0.2580 O   0  0  0  0  0  0  0  0  0  0  0  0
  1  2  2  0
  2  3  1  0
  2 33  1  0
  3  4  1  0
  4  5  1  0
  5  6  2  0
  6  7  1  0
  6 33  1  0
  7  8  2  0
  7  9  1  0
  9 10  1  0
 10 11  1  0
 11 12  2  0
 11 13  1  0
 13 14  1  0
 14 15  2  0
 14 32  1  0
 15 16  1  0
 16 17  2  0
 17 18  1  0
 17 32  1  0
 18 19  1  6
 18 20  1  0
 20 21  1  0
 20 31  1  0
 21 22  1  0
 22 23  1  0
 23 24  1  6
 23 30  1  0
 24 25  1  0
 25 26  2  0
 25 29  1  0
 26 27  1  0
 27 28  1  0
 28 29  2  0
 30 31  1  0
M  CHG  1  23   1
M  END
