
     RDKit          3D

 33 37  0  0  0  0  0  0  0  0999 V2000
   -0.6480   -0.8570   -3.7880 O   0  0  0  0  0  0  0  0  0  0  0  0
   -0.6750   -0.6330   -2.5740 C   0  0  0  0  0  0  0  0  0  0  0  0
    0.6250   -0.5410   -1.8150 C   0  0  0  0  0  0  0  0  0  0  0  0
    0.6710    0.6420   -0.9300 C   0  0  1  0  0  0  0  0  0  0  0  0
    1.0990    1.9150   -1.6000 C   0  0  0  0  0  0  0  0  0  0  0  0
    2.4600    1.8810   -2.1900 C   0  0  0  0  0  0  0  0  0  0  0  0
    3.4960    1.6240   -1.1330 C   0  0  0  0  0  0  0  0  0  0  0  0
    4.0790    2.7030   -0.4580 C   0  0  0  0  0  0  0  0  0  0  0  0
    5.0270    2.4530    0.5080 C   0  0  0  0  0  0  0  0  0  0  0  0
    5.4000    1.1990    0.8130 N   0  0  0  0  0  0  0  0  0  0  0  0
    4.8750    0.1240    0.1990 C   0  0  0  0  0  0  0  0  0  0  0  0
    5.2690   -1.2040    0.5220 N   0  0  0  0  0  0  0  0  0  0  0  0
    6.2400   -2.2060    0.1320 C   0  0  0  0  0  0  0  0  0  0  0  0
    6.1270   -2.7370    1.4980 N   0  0  0  0  0  0  0  0  0  0  0  0
    4.7660   -2.1770    1.5010 C   0  0  0  0  0  0  0  0  0  0  0  0
    3.9190    0.3660   -0.7770 C   0  0  0  0  0  0  0  0  0  0  0  0
   -0.5910    0.7970   -0.1830 C   0  0  0  0  0  0  0  0  0  0  0  0
   -0.6080    1.4990    1.0350 C   0  0  0  0  0  0  0  0  0  0  0  0
   -1.7430    1.6890    1.7780 C   0  0  0  0  0  0  0  0  0  0  0  0
   -2.9540    1.1750    1.3320 C   0  0  0  0  0  0  0  0  0  0  0  0
   -4.1300    1.3370    2.0730 N   0  0  0  0  0  0  0  0  0  0  0  0
   -5.2400    0.1320    2.5420 S   0  0  1  0  0  0  0  0  0  0  0  0
   -4.5650   -0.9070    3.4200 O   0  0  0  0  0  0  0  0  0  0  0  0
   -6.3280    0.7770    3.3790 O   0  0  0  0  0  0  0  0  0  0  0  0
   -5.9770   -0.6760    1.1860 C   0  0  0  0  0  0  0  0  0  0  0  0
   -5.5250   -1.9250    0.7530 C   0  0  0  0  0  0  0  0  0  0  0  0
   -6.1220   -2.5320   -0.3080 C   0  0  0  0  0  0  0  0  0  0  0  0
   -7.1730   -1.9410   -0.9770 C   0  0  0  0  0  0  0  0  0  0  0  0
   -7.5940   -0.7370   -0.5440 N   0  0  0  0  0  0  0  0  0  0  0  0
   -7.0250   -0.1170    0.4980 C   0  0  0  0  0  0  0  0  0  0  0  0
   -2.9400    0.4940    0.1490 C   0  0  0  0  0  0  0  0  0  0  0  0
   -1.7870    0.2900   -0.6220 C   0  0  0  0  0  0  0  0  0  0  0  0
   -1.8850   -0.4550   -1.8510 N   0  0  0  0  0  0  0  0  0  0  0  0
  1  2  2  0
  2  3  1  0
  2 33  1  0
  3  4  1  0
  4  5  1  6
  4 17  1  0
  5  6  1  0
  6  7  1  0
  7  8  2  0
  7 16  1  0
  8  9  1  0
  9 10  2  0
 10 11  1  0
 11 12  1  0
 11 16  2  0
 12 13  1  0
 12 15  1  0
 13 14  1  0
 14 15  1  0
 17 18  2  0
 17 32  1  0
 18 19  1  0
 19 20  2  0
 20 21  1  0
 20 31  1  0
 22 21  1  6
 22 23  2  0
 22 24  2  0
 22 25  1  0
 25 26  2  0
 25 30  1  0
 26 27  1  0
 27 28  2  0
 28 29  1  0
 29 30  2  0
 31 32  2  0
 32 33  1  0
M  CHG  1  10   1
M  END
