
     RDKit          3D

 20 20  0  0  0  0  0  0  0  0999 V2000
    6.0590    0.7780    0.5040 C   0  0  0  0  0  0  0  0  0  0  0  0
    4.9490    0.5960   -0.3640 O   0  0  0  0  0  0  0  0  0  0  0  0
    3.9820   -0.3770   -0.1620 C   0  0  0  0  0  0  0  0  0  0  0  0
    4.1250   -1.1140    0.8420 O   0  0  0  0  0  0  0  0  0  0  0  0
    2.8430   -0.5380   -1.0800 C   0  0  2  0  0  0  0  0  0  0  0  0
    2.9650    0.4060   -2.1840 N   0  0  0  0  0  0  0  0  0  0  0  0
    1.4960   -0.6390   -0.5150 C   0  0  0  0  0  0  0  0  0  0  0  0
    0.9140    0.4510    0.2890 C   0  0  2  0  0  0  0  0  0  0  0  0
    0.8080    1.7660   -0.4570 C   0  0  0  0  0  0  0  0  0  0  0  0
    1.8760    0.7470    1.4520 C   0  0  0  0  0  0  0  0  0  0  0  0
   -0.1850    0.0600    0.9310 O   0  0  0  0  0  0  0  0  0  0  0  0
   -1.3270   -0.3920    0.5090 C   0  0  1  0  0  0  0  0  0  0  0  0
   -1.4500   -1.6410   -0.2940 C   0  0  0  0  0  0  0  0  0  0  0  0
   -2.1790   -0.6260    1.7510 C   0  0  0  0  0  0  0  0  0  0  0  0
   -3.5810   -0.6350    1.2160 C   0  0  0  0  0  0  0  0  0  0  0  0
   -3.5970    0.1420   -0.0530 C   0  0  1  0  0  0  0  0  0  0  0  0
   -3.8620   -0.6750   -1.2240 N   0  0  0  0  0  0  0  0  0  0  0  0
   -4.6460    1.2270   -0.0310 C   0  0  0  0  0  0  0  0  0  0  0  0
   -4.4860    2.0740    1.0600 O   0  0  0  0  0  0  0  0  0  0  0  0
   -2.1880    0.7350   -0.1140 C   0  0  0  0  0  0  0  0  0  0  0  0
  1  2  1  0
  2  3  1  0
  3  4  2  0
  3  5  1  0
  5  6  1  6
  5  7  1  0
  7  8  1  0
  8  9  1  6
  8 10  1  0
  8 11  1  0
 11 12  1  0
 12 13  1  6
 12 14  1  0
 12 20  1  0
 14 15  1  0
 15 16  1  0
 16 17  1  6
 16 18  1  0
 16 20  1  0
 18 19  1  0
M  CHG  1   6   1
M  END
