
     RDKit          3D

 20 20  0  0  0  0  0  0  0  0999 V2000
    3.7160    2.0960    1.0950 C   0  0  0  0  0  0  0  0  0  0  0  0
    2.9400    1.8500   -0.1420 C   0  0  0  0  0  0  0  0  0  0  0  0
    2.2920    0.4840   -0.2830 C   0  0  1  0  0  0  0  0  0  0  0  0
    3.3590   -0.5320   -0.2550 C   0  0  0  0  0  0  0  0  0  0  0  0
    2.9330   -1.9680   -0.4030 C   0  0  0  0  0  0  0  0  0  0  0  0
    1.1740    0.3480    0.4990 O   0  0  0  0  0  0  0  0  0  0  0  0
   -0.0080    0.3260   -0.1860 C   0  0  2  0  0  0  0  0  0  0  0  0
   -0.5730    1.7760   -0.1810 C   0  0  0  0  0  0  0  0  0  0  0  0
   -1.6700    1.8950   -0.9230 C   0  0  0  0  0  0  0  0  0  0  0  0
   -2.3260    3.1570   -1.0410 C   0  0  0  0  0  0  0  0  0  0  0  0
   -1.8730    4.1800   -0.4570 O   0  0  0  0  0  0  0  0  0  0  0  0
   -3.4750    3.2810   -1.7980 O   0  0  0  0  0  0  0  0  0  0  0  0
   -2.1820    0.6360   -1.5860 C   0  0  0  0  0  0  0  0  0  0  0  0
   -2.3680   -0.3800   -0.4930 C   0  0  2  0  0  0  0  0  0  0  0  0
   -3.5130   -0.0330    0.3400 N   0  0  0  0  0  0  0  0  0  0  0  0
   -1.0840   -0.4930    0.3350 C   0  0  1  0  0  0  0  0  0  0  0  0
   -0.8030   -1.9040    0.5620 N   0  0  0  0  0  0  0  0  0  0  0  0
   -1.5170   -2.7340    1.4410 C   0  0  0  0  0  0  0  0  0  0  0  0
   -1.1670   -4.1650    1.6290 C   0  0  0  0  0  0  0  0  0  0  0  0
   -2.4850   -2.2680    2.0910 O   0  0  0  0  0  0  0  0  0  0  0  0
  1  2  1  0
  3  2  1  1
  3  4  1  0
  3  6  1  0
  4  5  1  0
  7  6  1  1
  7  8  1  0
  7 16  1  0
  8  9  2  0
  9 10  1  0
  9 13  1  0
 10 11  2  0
 10 12  1  0
 13 14  1  0
 14 15  1  1
 14 16  1  0
 16 17  1  6
 17 18  1  0
 18 19  1  0
 18 20  2  0
M  CHG  1  15   1
M  END
