
     RDKit          3D

 20 21  0  0  0  0  0  0  0  0999 V2000
   -4.2480    2.3070    0.4930 C   0  0  0  0  0  0  0  0  0  0  0  0
   -3.5930    1.2250   -0.0930 O   0  0  0  0  0  0  0  0  0  0  0  0
   -3.0980    0.3470    0.8660 C   0  0  0  0  0  0  0  0  0  0  0  0
   -2.4000   -0.8300    0.2410 C   0  0  1  0  0  0  0  0  0  0  0  0
   -3.4200   -1.5830   -0.5980 C   0  0  0  0  0  0  0  0  0  0  0  0
   -4.4980   -2.1020    0.1880 N   0  0  0  0  0  0  0  0  0  0  0  0
   -1.3270   -0.3540   -0.7030 C   0  0  0  0  0  0  0  0  0  0  0  0
   -0.0920    0.1730   -0.0200 C   0  0  2  0  0  0  0  0  0  0  0  0
   -0.2540    1.4820    0.3970 O   0  0  0  0  0  0  0  0  0  0  0  0
    1.1160    0.0990   -0.9240 C   0  0  0  0  0  0  0  0  0  0  0  0
    2.3250    0.4840   -0.3270 N   0  0  0  0  0  0  0  0  0  0  0  0
    2.5750    1.8150    0.0090 C   0  0  0  0  0  0  0  0  0  0  0  0
    3.6540    2.3190   -0.9420 C   0  0  0  0  0  0  0  0  0  0  0  0
    4.4000    1.0600   -1.3140 C   0  0  0  0  0  0  0  0  0  0  0  0
    3.5340   -0.0590   -0.8250 C   0  0  1  0  0  0  0  0  0  0  0  0
    4.2210   -0.8080    0.3270 C   0  0  0  0  0  0  0  0  0  0  0  0
    5.4280   -1.3690   -0.1070 O   0  0  0  0  0  0  0  0  0  0  0  0
    0.2230   -0.7240    1.1690 C   0  0  0  0  0  0  0  0  0  0  0  0
   -0.5600   -1.9960    1.0000 C   0  0  0  0  0  0  0  0  0  0  0  0
   -1.9090   -1.7180    1.1680 O   0  0  0  0  0  0  0  0  0  0  0  0
  1  2  1  0
  2  3  1  0
  4  3  1  1
  4  5  1  0
  4  7  1  0
  4 20  1  0
  5  6  1  0
  7  8  1  0
  8  9  1  1
  8 10  1  0
  8 18  1  0
 10 11  1  0
 11 12  1  0
 11 15  1  0
 12 13  1  0
 13 14  1  0
 14 15  1  0
 15 16  1  1
 16 17  1  0
 18 19  1  0
 19 20  1  0
M  CHG  1   6   1
M  END
