
     RDKit          3D

 20 20  0  0  0  0  0  0  0  0999 V2000
   -5.8850   -0.2570    0.9580 C   0  0  0  0  0  0  0  0  0  0  0  0
   -5.3030    0.0030   -0.4120 C   0  0  1  0  0  0  0  0  0  0  0  0
   -5.4340   -1.2370   -1.2470 C   0  0  0  0  0  0  0  0  0  0  0  0
   -6.0860    1.1730   -1.0080 C   0  0  0  0  0  0  0  0  0  0  0  0
   -3.9520    0.4010   -0.3520 O   0  0  0  0  0  0  0  0  0  0  0  0
   -2.9580   -0.3730    0.1900 C   0  0  0  0  0  0  0  0  0  0  0  0
   -3.2690   -1.4970    0.6590 O   0  0  0  0  0  0  0  0  0  0  0  0
   -1.6100    0.0920    0.2190 N   0  0  0  0  0  0  0  0  0  0  0  0
   -0.5650   -0.7110    0.7840 C   0  0  0  0  0  0  0  0  0  0  0  0
    0.7920    0.0110    0.7000 C   0  0  1  0  0  0  0  0  0  0  0  0
    0.6330    1.3260    1.5070 C   0  0  0  0  0  0  0  0  0  0  0  0
    1.8330    1.9850    1.4710 O   0  0  0  0  0  0  0  0  0  0  0  0
    1.8440   -0.7650    1.4370 C   0  0  0  0  0  0  0  0  0  0  0  0
    3.1210   -0.2530    1.3740 O   0  0  0  0  0  0  0  0  0  0  0  0
    3.5710   -0.3830    0.0550 C   0  0  2  0  0  0  0  0  0  0  0  0
    4.6600   -1.5240    0.0870 C   0  0  0  0  0  0  0  0  0  0  0  0
    5.2790   -1.3670   -1.2560 C   0  0  0  0  0  0  0  0  0  0  0  0
    5.0420    0.0260   -1.7210 C   0  0  0  0  0  0  0  0  0  0  0  0
    4.4000    0.7060   -0.4930 C   0  0  1  0  0  0  0  0  0  0  0  0
    3.7080    1.8990   -0.9280 N   0  0  0  0  0  0  0  0  0  0  0  0
  2  1  1  1
  2  3  1  0
  2  4  1  0
  2  5  1  0
  5  6  1  0
  6  7  2  0
  6  8  1  0
  8  9  1  0
 10  9  1  1
 10 11  1  0
 10 13  1  0
 11 12  1  0
 13 14  1  0
 15 14  1  1
 15 16  1  0
 15 19  1  0
 16 17  1  0
 17 18  1  0
 18 19  1  0
 19 20  1  6
M  CHG  1  20   1
M  END
