
     RDKit          3D

 20 20  0  0  0  0  0  0  0  0999 V2000
   -2.8690   -2.0160    1.7590 C   0  0  0  0  0  0  0  0  0  0  0  0
   -2.3470   -1.3950    0.4340 C   0  0  2  0  0  0  0  0  0  0  0  0
   -3.5910   -1.0500   -0.3160 C   0  0  0  0  0  0  0  0  0  0  0  0
   -1.5410   -2.4750   -0.2530 C   0  0  0  0  0  0  0  0  0  0  0  0
   -1.4930   -0.2360    0.8850 C   0  0  1  0  0  0  0  0  0  0  0  0
   -0.4840   -0.8940    1.7710 N   0  0  0  0  0  0  0  0  0  0  0  0
   -0.6800    0.4560   -0.1440 C   0  0  2  0  0  0  0  0  0  0  0  0
    0.2400    1.3230    0.4910 O   0  0  0  0  0  0  0  0  0  0  0  0
    1.4730    1.3780   -0.0590 C   0  0  0  0  0  0  0  0  0  0  0  0
    2.2300    0.1000    0.0090 C   0  0  1  0  0  0  0  0  0  0  0  0
    3.4740    0.3030   -0.8680 C   0  0  0  0  0  0  0  0  0  0  0  0
    4.0850   -1.0970   -0.9810 C   0  0  0  0  0  0  0  0  0  0  0  0
    4.5410   -1.4640    0.4100 C   0  0  0  0  0  0  0  0  0  0  0  0
    3.8550   -0.6660    1.4810 C   0  0  0  0  0  0  0  0  0  0  0  0
    2.5500   -0.3740    1.2420 O   0  0  0  0  0  0  0  0  0  0  0  0
   -1.5780    1.3860   -0.9690 C   0  0  0  0  0  0  0  0  0  0  0  0
   -2.3930    1.0070   -1.8080 O   0  0  0  0  0  0  0  0  0  0  0  0
   -1.4840    2.7710   -0.7720 O   0  0  0  0  0  0  0  0  0  0  0  0
   -2.3100    3.6510   -1.5290 C   0  0  0  0  0  0  0  0  0  0  0  0
   -2.0670    5.0230   -1.1840 N   0  0  0  0  0  0  0  0  0  0  0  0
  2  1  1  1
  2  3  1  0
  2  4  1  0
  2  5  1  0
  5  6  1  1
  5  7  1  0
  7  8  1  1
  7 16  1  0
  8  9  1  0
 10  9  1  1
 10 11  1  0
 10 15  1  0
 11 12  1  0
 12 13  1  0
 13 14  1  0
 14 15  1  0
 16 17  2  0
 16 18  1  0
 18 19  1  0
 19 20  1  0
M  CHG  1   6   1
M  END
