
     RDKit          3D

 20 20  0  0  0  0  0  0  0  0999 V2000
   -2.6640    2.2070    1.6480 C   0  0  0  0  0  0  0  0  0  0  0  0
   -2.9900    0.9630    1.0990 O   0  0  0  0  0  0  0  0  0  0  0  0
   -2.8070    0.5860   -0.2070 C   0  0  0  0  0  0  0  0  0  0  0  0
   -2.3030    1.4120   -0.9990 O   0  0  0  0  0  0  0  0  0  0  0  0
   -3.2040   -0.7750   -0.6460 C   0  0  2  0  0  0  0  0  0  0  0  0
   -3.7400   -1.4840    0.4580 N   0  0  0  0  0  0  0  0  0  0  0  0
   -2.1850   -1.4480   -1.4790 C   0  0  0  0  0  0  0  0  0  0  0  0
   -0.8230   -1.6460   -0.7960 C   0  0  2  0  0  0  0  0  0  0  0  0
   -0.0180   -2.3530   -1.9130 C   0  0  0  0  0  0  0  0  0  0  0  0
   -0.9000   -2.6450    0.2950 C   0  0  0  0  0  0  0  0  0  0  0  0
   -0.3220   -0.4350   -0.5680 O   0  0  0  0  0  0  0  0  0  0  0  0
    0.8440   -0.1690    0.0050 C   0  0  1  0  0  0  0  0  0  0  0  0
    1.0310   -0.6580    1.4270 C   0  0  0  0  0  0  0  0  0  0  0  0
    2.0930   -0.4930   -0.7520 C   0  0  0  0  0  0  0  0  0  0  0  0
    3.1220    0.4090   -0.1040 C   0  0  0  0  0  0  0  0  0  0  0  0
    2.4030    1.6650    0.2570 C   0  0  1  0  0  0  0  0  0  0  0  0
    2.6850    2.0950    1.6160 N   0  0  0  0  0  0  0  0  0  0  0  0
    2.8880    2.7630   -0.6650 C   0  0  0  0  0  0  0  0  0  0  0  0
    4.2510    2.9420   -0.4750 O   0  0  0  0  0  0  0  0  0  0  0  0
    0.9540    1.3660    0.0930 C   0  0  0  0  0  0  0  0  0  0  0  0
  1  2  1  0
  2  3  1  0
  3  4  2  0
  3  5  1  0
  5  6  1  1
  5  7  1  0
  7  8  1  0
  8  9  1  6
  8 10  1  0
  8 11  1  0
 11 12  1  0
 12 13  1  1
 12 14  1  0
 12 20  1  0
 14 15  1  0
 15 16  1  0
 16 17  1  1
 16 18  1  0
 16 20  1  0
 18 19  1  0
M  CHG  1   6   1
M  END
