
     RDKit          3D

 19 19  0  0  0  0  0  0  0  0999 V2000
   -2.8800    1.8340   -1.0350 C   0  0  0  0  0  0  0  0  0  0  0  0
   -2.4660    1.2770    0.2840 C   0  0  1  0  0  0  0  0  0  0  0  0
   -3.4680    1.7130    1.3700 C   0  0  0  0  0  0  0  0  0  0  0  0
   -2.3130   -0.1720    0.3930 C   0  0  2  0  0  0  0  0  0  0  0  0
   -3.5020   -1.0040    0.0950 C   0  0  0  0  0  0  0  0  0  0  0  0
   -2.0580   -0.3920    1.7870 O   0  0  0  0  0  0  0  0  0  0  0  0
   -1.0540   -0.7850   -0.2530 C   0  0  1  0  0  0  0  0  0  0  0  0
   -1.1820   -2.3110    0.0010 C   0  0  0  0  0  0  0  0  0  0  0  0
   -1.0400   -0.6240   -1.7080 C   0  0  0  0  0  0  0  0  0  0  0  0
    0.0390   -1.2060   -2.3570 O   0  0  0  0  0  0  0  0  0  0  0  0
    0.0750   -0.3470    0.5820 C   0  0  0  0  0  0  0  0  0  0  0  0
    1.4170   -0.7440    0.2340 N   0  0  0  0  0  0  0  0  0  0  0  0
    2.1780   -0.5710    1.4960 C   0  0  0  0  0  0  0  0  0  0  0  0
    3.5100   -1.2200    1.4730 C   0  0  0  0  0  0  0  0  0  0  0  0
    4.5320   -0.3070    1.1810 O   0  0  0  0  0  0  0  0  0  0  0  0
    4.3900    0.1560   -0.1170 C   0  0  0  0  0  0  0  0  0  0  0  0
    3.1340    0.9860   -0.2840 C   0  0  1  0  0  0  0  0  0  0  0  0
    3.4310    1.9110   -1.3990 N   0  0  0  0  0  0  0  0  0  0  0  0
    1.9800    0.1340   -0.7720 C   0  0  0  0  0  0  0  0  0  0  0  0
  2  1  1  6
  2  3  1  0
  2  4  1  0
  4  5  1  6
  4  6  1  0
  4  7  1  0
  7  8  1  6
  7  9  1  0
  7 11  1  0
  9 10  1  0
 11 12  1  0
 12 13  1  0
 12 19  1  0
 13 14  1  0
 14 15  1  0
 15 16  1  0
 16 17  1  0
 17 18  1  6
 17 19  1  0
M  CHG  1  18   1
M  END
