
     RDKit          3D

 20 20  0  0  0  0  0  0  0  0999 V2000
    5.7480   -2.2240   -0.6620 C   0  0  0  0  0  0  0  0  0  0  0  0
    4.3770   -1.9070   -0.5330 O   0  0  0  0  0  0  0  0  0  0  0  0
    3.8670   -1.2520    0.5720 C   0  0  0  0  0  0  0  0  0  0  0  0
    4.6230   -0.9130    1.5130 O   0  0  0  0  0  0  0  0  0  0  0  0
    2.4030   -0.9120    0.7160 C   0  0  2  0  0  0  0  0  0  0  0  0
    1.7590   -1.3980   -0.4740 N   0  0  0  0  0  0  0  0  0  0  0  0
    2.3460    0.5820    0.7910 C   0  0  0  0  0  0  0  0  0  0  0  0
    0.9390    1.1340    0.9430 C   0  0  2  0  0  0  0  0  0  0  0  0
    1.1080    2.6200    1.0110 C   0  0  0  0  0  0  0  0  0  0  0  0
    0.4520    0.6110    2.3070 C   0  0  0  0  0  0  0  0  0  0  0  0
    0.1860    0.6250   -0.0130 O   0  0  0  0  0  0  0  0  0  0  0  0
   -1.0900    0.8320   -0.2570 C   0  0  1  0  0  0  0  0  0  0  0  0
   -1.4380    2.2870   -0.5470 C   0  0  0  0  0  0  0  0  0  0  0  0
   -1.3990    0.1230   -1.5910 C   0  0  0  0  0  0  0  0  0  0  0  0
   -2.8720   -0.0610   -1.6630 C   0  0  0  0  0  0  0  0  0  0  0  0
   -3.2600   -0.2540   -0.2240 C   0  0  1  0  0  0  0  0  0  0  0  0
   -4.4970    0.4770   -0.0140 N   0  0  0  0  0  0  0  0  0  0  0  0
   -3.5700   -1.7040    0.0840 C   0  0  0  0  0  0  0  0  0  0  0  0
   -4.5580   -2.1780   -0.7490 O   0  0  0  0  0  0  0  0  0  0  0  0
   -2.1290    0.2520    0.6410 C   0  0  0  0  0  0  0  0  0  0  0  0
  1  2  1  0
  2  3  1  0
  3  4  2  0
  3  5  1  0
  5  6  1  6
  5  7  1  0
  7  8  1  0
  8  9  1  1
  8 10  1  0
  8 11  1  0
 11 12  1  0
 12 13  1  6
 12 14  1  0
 12 20  1  0
 14 15  1  0
 15 16  1  0
 16 17  1  1
 16 18  1  0
 16 20  1  0
 18 19  1  0
M  CHG  1   6   1
M  END
