
     RDKit          3D

 19 19  0  0  0  0  0  0  0  0999 V2000
   -3.9290    1.6700   -0.7910 C   0  0  0  0  0  0  0  0  0  0  0  0
   -3.3410    0.3730   -0.1590 C   0  0  2  0  0  0  0  0  0  0  0  0
   -3.8960    0.3110    1.2170 C   0  0  0  0  0  0  0  0  0  0  0  0
   -1.8960    0.4740   -0.3560 C   0  0  2  0  0  0  0  0  0  0  0  0
   -1.3480    1.7240    0.3560 C   0  0  0  0  0  0  0  0  0  0  0  0
   -1.7400    0.8530   -1.7380 O   0  0  0  0  0  0  0  0  0  0  0  0
   -0.9980   -0.7000   -0.2320 C   0  0  1  0  0  0  0  0  0  0  0  0
   -1.0170   -1.3400    1.1330 C   0  0  0  0  0  0  0  0  0  0  0  0
   -1.3530   -1.7230   -1.3060 C   0  0  0  0  0  0  0  0  0  0  0  0
   -2.6350   -2.2080   -1.2220 O   0  0  0  0  0  0  0  0  0  0  0  0
    0.4080   -0.1880   -0.4960 C   0  0  0  0  0  0  0  0  0  0  0  0
    1.4650   -1.0880   -0.4940 N   0  0  0  0  0  0  0  0  0  0  0  0
    1.9670   -1.7210    0.6480 C   0  0  0  0  0  0  0  0  0  0  0  0
    2.6340   -0.7460    1.6270 C   0  0  0  0  0  0  0  0  0  0  0  0
    3.9750   -0.6130    1.3930 O   0  0  0  0  0  0  0  0  0  0  0  0
    4.3660    0.2320    0.4030 C   0  0  0  0  0  0  0  0  0  0  0  0
    3.2480    0.5940   -0.5390 C   0  0  1  0  0  0  0  0  0  0  0  0
    3.8200    1.5310   -1.5270 N   0  0  0  0  0  0  0  0  0  0  0  0
    2.6420   -0.5780   -1.2400 C   0  0  0  0  0  0  0  0  0  0  0  0
  2  1  1  1
  2  3  1  0
  2  4  1  0
  4  5  1  1
  4  6  1  0
  4  7  1  0
  7  8  1  1
  7  9  1  0
  7 11  1  0
  9 10  1  0
 11 12  1  0
 12 13  1  0
 12 19  1  0
 13 14  1  0
 14 15  1  0
 15 16  1  0
 16 17  1  0
 17 18  1  6
 17 19  1  0
M  CHG  1  18   1
M  END
