
     RDKit          3D

 20 21  0  0  0  0  0  0  0  0999 V2000
    3.9430   -0.8880    1.9170 C   0  0  0  0  0  0  0  0  0  0  0  0
    2.9710    0.0010    2.0340 O   0  0  0  0  0  0  0  0  0  0  0  0
    2.6610    0.9510    1.1870 C   0  0  0  0  0  0  0  0  0  0  0  0
    2.3090    0.5930   -0.2200 C   0  0  1  0  0  0  0  0  0  0  0  0
    3.5750    0.3500   -1.0840 C   0  0  0  0  0  0  0  0  0  0  0  0
    4.4460    1.4980   -0.9690 N   0  0  0  0  0  0  0  0  0  0  0  0
    1.3600   -0.5390   -0.2770 C   0  0  0  0  0  0  0  0  0  0  0  0
   -0.0790    0.0220   -0.0870 C   0  0  2  0  0  0  0  0  0  0  0  0
    0.0190    0.7110    1.1080 O   0  0  0  0  0  0  0  0  0  0  0  0
   -1.0030   -1.1700    0.0340 C   0  0  0  0  0  0  0  0  0  0  0  0
   -2.3260   -0.9330    0.4690 N   0  0  0  0  0  0  0  0  0  0  0  0
   -2.9730   -2.2520    0.5060 C   0  0  0  0  0  0  0  0  0  0  0  0
   -4.2920   -2.1030   -0.2050 C   0  0  0  0  0  0  0  0  0  0  0  0
   -4.5830   -0.6260   -0.0750 C   0  0  0  0  0  0  0  0  0  0  0  0
   -3.1600   -0.0100   -0.1620 C   0  0  1  0  0  0  0  0  0  0  0  0
   -3.3420    1.2920    0.6450 C   0  0  0  0  0  0  0  0  0  0  0  0
   -3.9130    0.9840    1.8810 O   0  0  0  0  0  0  0  0  0  0  0  0
   -0.3460    0.8520   -1.2990 C   0  0  0  0  0  0  0  0  0  0  0  0
    0.9600    1.3950   -1.8770 C   0  0  0  0  0  0  0  0  0  0  0  0
    1.7870    1.7780   -0.8450 O   0  0  0  0  0  0  0  0  0  0  0  0
  1  2  1  0
  2  3  1  0
  4  3  1  1
  4  5  1  0
  4  7  1  0
  4 20  1  0
  5  6  1  0
  7  8  1  0
  8  9  1  1
  8 10  1  0
  8 18  1  0
 10 11  1  0
 11 12  1  0
 11 15  1  0
 12 13  1  0
 13 14  1  0
 14 15  1  0
 15 16  1  1
 16 17  1  0
 18 19  1  0
 19 20  1  0
M  CHG  1   6   1
M  END
