
     RDKit          3D

 20 20  0  0  0  0  0  0  0  0999 V2000
   -2.9410   -3.5880    0.1730 C   0  0  0  0  0  0  0  0  0  0  0  0
   -1.9360   -2.6900    0.8570 C   0  0  0  0  0  0  0  0  0  0  0  0
   -1.0800   -1.9380   -0.1330 C   0  0  2  0  0  0  0  0  0  0  0  0
   -0.3580   -3.0270   -0.9470 C   0  0  0  0  0  0  0  0  0  0  0  0
   -0.0830   -1.1430    0.6710 C   0  0  0  0  0  0  0  0  0  0  0  0
    0.4560    0.0310   -0.1500 C   0  0  2  0  0  0  0  0  0  0  0  0
    1.0220   -0.6300   -1.2810 O   0  0  0  0  0  0  0  0  0  0  0  0
    1.6000    0.6020    0.5840 C   0  0  0  0  0  0  0  0  0  0  0  0
    2.4080    1.5010   -0.2340 N   0  0  0  0  0  0  0  0  0  0  0  0
    3.6160    0.8000   -0.6890 C   0  0  0  0  0  0  0  0  0  0  0  0
    4.8050    1.1760    0.1680 C   0  0  0  0  0  0  0  0  0  0  0  0
    5.9480    0.5250   -0.2470 O   0  0  0  0  0  0  0  0  0  0  0  0
   -0.6800    0.8970   -0.5340 C   0  0  2  0  0  0  0  0  0  0  0  0
   -0.8610    2.1530    0.1940 C   0  0  0  0  0  0  0  0  0  0  0  0
    0.0660    3.1750    0.1990 O   0  0  0  0  0  0  0  0  0  0  0  0
   -1.9140    2.3720    0.8790 N   0  0  0  0  0  0  0  0  0  0  0  0
   -2.2030    3.5560    1.6310 C   0  0  0  0  0  0  0  0  0  0  0  0
   -1.9670    0.1440   -0.7180 C   0  0  2  0  0  0  0  0  0  0  0  0
   -2.9640    0.2180    0.3850 C   0  0  0  0  0  0  0  0  0  0  0  0
   -1.7660   -1.1900   -1.0510 O   0  0  0  0  0  0  0  0  0  0  0  0
  1  2  1  0
  2  3  1  0
  3  4  1  6
  3  5  1  0
  3 20  1  0
  5  6  1  0
  6  7  1  6
  6  8  1  0
  6 13  1  0
  8  9  1  0
  9 10  1  0
 10 11  1  0
 11 12  1  0
 13 14  1  1
 13 18  1  0
 14 15  1  0
 14 16  2  3
 16 17  1  0
 18 19  1  1
 18 20  1  0
M  CHG  1   9   1
M  END
