
     RDKit          3D

 20 20  0  0  0  0  0  0  0  0999 V2000
    3.3550    3.4140    0.6570 C   0  0  0  0  0  0  0  0  0  0  0  0
    2.5740    2.1360    0.9730 C   0  0  0  0  0  0  0  0  0  0  0  0
    3.4240    0.9350    0.6260 C   0  0  0  0  0  0  0  0  0  0  0  0
    2.6390   -0.3200    0.9440 C   0  0  2  0  0  0  0  0  0  0  0  0
    3.4280   -1.5500    0.6240 C   0  0  0  0  0  0  0  0  0  0  0  0
    3.2580   -2.0470   -0.6990 N   0  0  0  0  0  0  0  0  0  0  0  0
    1.9360   -2.0550   -1.2100 C   0  0  0  0  0  0  0  0  0  0  0  0
    0.8640   -1.6730   -0.1980 C   0  0  2  0  0  0  0  0  0  0  0  0
    0.7580   -2.7170    0.8660 C   0  0  0  0  0  0  0  0  0  0  0  0
   -0.3130   -1.5260   -0.9670 O   0  0  0  0  0  0  0  0  0  0  0  0
   -1.5380   -1.1860   -0.3820 C   0  0  0  0  0  0  0  0  0  0  0  0
   -1.5170   -1.0290    0.8360 O   0  0  0  0  0  0  0  0  0  0  0  0
   -2.7140   -1.0310   -1.1110 N   0  0  0  0  0  0  0  0  0  0  0  0
   -4.0130   -0.6770   -0.6610 C   0  0  0  0  0  0  0  0  0  0  0  0
   -4.2710    0.6480   -0.0800 C   0  0  2  0  0  0  0  0  0  0  0  0
   -3.5470    0.9770    1.1890 C   0  0  0  0  0  0  0  0  0  0  0  0
   -5.6660    0.7050    0.2160 O   0  0  0  0  0  0  0  0  0  0  0  0
   -4.0070    1.7760   -1.0640 C   0  0  0  0  0  0  0  0  0  0  0  0
   -4.3610    2.9610   -0.4360 O   0  0  0  0  0  0  0  0  0  0  0  0
    1.2640   -0.3140    0.3270 C   0  0  0  0  0  0  0  0  0  0  0  0
  1  2  1  0
  2  3  1  0
  4  3  1  6
  4  5  1  0
  4 20  1  0
  5  6  1  0
  6  7  1  0
  7  8  1  0
  8  9  1  1
  8 10  1  0
  8 20  1  0
 10 11  1  0
 11 12  2  0
 11 13  1  0
 13 14  1  0
 14 15  1  0
 15 16  1  1
 15 17  1  0
 15 18  1  0
 18 19  1  0
M  CHG  1   6   1
M  END
