
     RDKit          3D

 20 20  0  0  0  0  0  0  0  0999 V2000
    0.2040   -3.2740   -0.2290 C   0  0  0  0  0  0  0  0  0  0  0  0
    0.1320   -1.9500    0.4940 C   0  0  2  0  0  0  0  0  0  0  0  0
   -0.0650   -2.2810    1.9780 C   0  0  0  0  0  0  0  0  0  0  0  0
   -0.9850   -1.1620   -0.0270 C   0  0  0  0  0  0  0  0  0  0  0  0
   -1.7080   -1.6270   -0.9440 O   0  0  0  0  0  0  0  0  0  0  0  0
   -1.3320    0.1030    0.4180 O   0  0  0  0  0  0  0  0  0  0  0  0
   -2.3980    0.8610   -0.0760 C   0  0  1  0  0  0  0  0  0  0  0  0
   -3.3730    1.1660    1.0350 C   0  0  0  0  0  0  0  0  0  0  0  0
   -4.5330    1.9220    0.4370 C   0  0  0  0  0  0  0  0  0  0  0  0
   -4.2820    2.1710   -1.0380 C   0  0  0  0  0  0  0  0  0  0  0  0
   -3.0730    2.7620   -1.2820 O   0  0  0  0  0  0  0  0  0  0  0  0
   -1.9900    2.1600   -0.7030 C   0  0  0  0  0  0  0  0  0  0  0  0
    1.4530   -1.2130    0.4050 C   0  0  1  0  0  0  0  0  0  0  0  0
    2.5110   -1.9710    0.9900 N   0  0  0  0  0  0  0  0  0  0  0  0
    1.8120   -0.8670   -1.0120 C   0  0  0  0  0  0  0  0  0  0  0  0
    3.1340   -0.1420   -1.0270 C   0  0  0  0  0  0  0  0  0  0  0  0
    3.1070    1.1430   -0.2300 C   0  0  2  0  0  0  0  0  0  0  0  0
    2.0930    1.9980   -0.8150 N   0  0  0  0  0  0  0  0  0  0  0  0
    4.4380    1.8360   -0.3090 C   0  0  0  0  0  0  0  0  0  0  0  0
    4.5200    2.9300   -0.8060 O   0  0  0  0  0  0  0  0  0  0  0  0
  2  1  1  6
  2  3  1  0
  2  4  1  0
  2 13  1  0
  4  5  2  0
  4  6  1  0
  7  6  1  1
  7  8  1  0
  7 12  1  0
  8  9  1  0
  9 10  1  0
 10 11  1  0
 11 12  1  0
 13 14  1  6
 13 15  1  0
 15 16  1  0
 16 17  1  0
 17 18  1  6
 17 19  1  0
 19 20  2  0
M  CHG  1  14   1
M  END
