
     RDKit          3D

 20 20  0  0  0  0  0  0  0  0999 V2000
    4.3220    2.0590    1.5120 C   0  0  0  0  0  0  0  0  0  0  0  0
    3.0800    2.4540    0.7610 C   0  0  0  0  0  0  0  0  0  0  0  0
    2.5280    1.4360   -0.0090 O   0  0  0  0  0  0  0  0  0  0  0  0
    2.0840    0.2380    0.5070 C   0  0  0  0  0  0  0  0  0  0  0  0
    2.1990    0.0860    1.7620 O   0  0  0  0  0  0  0  0  0  0  0  0
    1.4940   -0.8390   -0.3460 C   0  0  2  0  0  0  0  0  0  0  0  0
    0.2730   -0.3190   -1.0460 C   0  0  0  0  0  0  0  0  0  0  0  0
    0.2560   -0.3170   -2.2940 O   0  0  0  0  0  0  0  0  0  0  0  0
   -0.8490    0.1660   -0.3570 N   0  0  0  0  0  0  0  0  0  0  0  0
   -2.0150    0.6630   -1.0620 C   0  0  0  0  0  0  0  0  0  0  0  0
   -3.0860    1.1270   -0.0970 C   0  0  1  0  0  0  0  0  0  0  0  0
   -2.6170    2.2290    0.7960 C   0  0  0  0  0  0  0  0  0  0  0  0
   -4.1900    1.6410   -0.9000 N   0  0  0  0  0  0  0  0  0  0  0  0
   -3.6250   -0.0200    0.7260 C   0  0  0  0  0  0  0  0  0  0  0  0
   -4.2430   -1.1030   -0.0980 C   0  0  0  0  0  0  0  0  0  0  0  0
    1.1210   -1.9990    0.5490 C   0  0  0  0  0  0  0  0  0  0  0  0
    1.9100   -3.1910    0.0740 C   0  0  0  0  0  0  0  0  0  0  0  0
    3.1360   -2.5110   -0.5420 C   0  0  1  0  0  0  0  0  0  0  0  0
    3.7600   -3.4260   -1.3940 O   0  0  0  0  0  0  0  0  0  0  0  0
    2.4700   -1.3910   -1.3350 C   0  0  0  0  0  0  0  0  0  0  0  0
  1  2  1  0
  2  3  1  0
  3  4  1  0
  4  5  2  0
  6  4  1  1
  6  7  1  0
  6 16  1  0
  6 20  1  0
  7  8  2  0
  7  9  1  0
  9 10  1  0
 10 11  1  0
 11 12  1  1
 11 13  1  0
 11 14  1  0
 14 15  1  0
 16 17  1  0
 17 18  1  0
 18 19  1  6
 18 20  1  0
M  CHG  1  13   1
M  END
