
     RDKit          3D

 19 19  0  0  0  0  0  0  0  0999 V2000
   -2.6170    1.3200   -1.6910 C   0  0  0  0  0  0  0  0  0  0  0  0
   -3.0490    0.9460   -0.2850 C   0  0  2  0  0  0  0  0  0  0  0  0
   -3.1070    2.2050    0.5030 C   0  0  0  0  0  0  0  0  0  0  0  0
   -2.4680   -0.2610    0.2780 C   0  0  2  0  0  0  0  0  0  0  0  0
   -2.8610   -1.4340   -0.6370 C   0  0  0  0  0  0  0  0  0  0  0  0
   -3.1860   -0.5460    1.4780 O   0  0  0  0  0  0  0  0  0  0  0  0
   -1.0440   -0.3450    0.7040 C   0  0  1  0  0  0  0  0  0  0  0  0
   -0.8360    0.6980    1.8090 C   0  0  0  0  0  0  0  0  0  0  0  0
   -0.9070   -1.6750    1.4100 C   0  0  0  0  0  0  0  0  0  0  0  0
   -1.7800   -1.7560    2.5110 O   0  0  0  0  0  0  0  0  0  0  0  0
   -0.0480   -0.2410   -0.3720 C   0  0  0  0  0  0  0  0  0  0  0  0
    1.3260   -0.3120   -0.1520 N   0  0  0  0  0  0  0  0  0  0  0  0
    2.0000   -1.4740    0.1920 C   0  0  0  0  0  0  0  0  0  0  0  0
    3.2020   -1.7990   -0.6870 C   0  0  0  0  0  0  0  0  0  0  0  0
    4.3260   -1.0960   -0.4410 O   0  0  0  0  0  0  0  0  0  0  0  0
    4.2610   -0.0200    0.3880 C   0  0  0  0  0  0  0  0  0  0  0  0
    3.4170    1.0370   -0.2820 C   0  0  1  0  0  0  0  0  0  0  0  0
    3.7320    1.0930   -1.6810 N   0  0  0  0  0  0  0  0  0  0  0  0
    1.9740    0.9370    0.0190 C   0  0  0  0  0  0  0  0  0  0  0  0
  2  1  1  6
  2  3  1  0
  2  4  1  0
  4  5  1  6
  4  6  1  0
  4  7  1  0
  7  8  1  1
  7  9  1  0
  7 11  1  0
  9 10  1  0
 11 12  1  0
 12 13  1  0
 12 19  1  0
 13 14  1  0
 14 15  1  0
 15 16  1  0
 16 17  1  0
 17 18  1  6
 17 19  1  0
M  CHG  1  18   1
M  END
