
     RDKit          3D

 27 30  0  0  0  0  0  0  0  0999 V2000
   -5.7800    1.1350   -0.8200 C   0  0  0  0  0  0  0  0  0  0  0  0
   -5.4550    0.4990    0.4510 C   0  0  0  0  0  0  0  0  0  0  0  0
   -6.3760    0.3490    1.4590 C   0  0  0  0  0  0  0  0  0  0  0  0
   -6.0250   -0.2610    2.6510 C   0  0  0  0  0  0  0  0  0  0  0  0
   -6.9070   -0.3830    3.5620 O   0  0  0  0  0  0  0  0  0  0  0  0
   -4.7840   -0.7140    2.8420 N   0  0  0  0  0  0  0  0  0  0  0  0
   -3.8430   -0.5850    1.8710 C   0  0  0  0  0  0  0  0  0  0  0  0
   -2.5630   -1.0520    2.0640 C   0  0  0  0  0  0  0  0  0  0  0  0
   -1.6360   -0.8950    1.0380 C   0  0  0  0  0  0  0  0  0  0  0  0
   -1.9240   -0.2980   -0.1650 C   0  0  0  0  0  0  0  0  0  0  0  0
   -0.9910   -0.1040   -1.2080 N   0  0  0  0  0  0  0  0  0  0  0  0
    0.3990    0.0150   -0.9450 C   0  0  0  0  0  0  0  0  0  0  0  0
    0.9130    0.4720    0.2520 C   0  0  0  0  0  0  0  0  0  0  0  0
    2.2550    0.5530    0.4980 C   0  0  0  0  0  0  0  0  0  0  0  0
    3.1450    0.1600   -0.4960 C   0  0  0  0  0  0  0  0  0  0  0  0
    4.5810    0.2080   -0.1600 C   0  0  0  0  0  0  0  0  0  0  0  0
    5.0420    0.7470    0.9580 C   0  0  0  0  0  0  0  0  0  0  0  0
    6.5040    0.6160    0.9660 C   0  0  0  0  0  0  0  0  0  0  0  0
    6.8100   -0.0860   -0.2750 C   0  0  0  0  0  0  0  0  0  0  0  0
    5.6960   -0.2850   -0.8650 N   0  0  0  0  0  0  0  0  0  0  0  0
    2.7100   -0.2940   -1.6970 C   0  0  0  0  0  0  0  0  0  0  0  0
    3.5060   -0.6130   -2.8500 C   0  0  0  0  0  0  0  0  0  0  0  0
    4.7390   -0.0570   -3.1890 N   0  0  0  0  0  0  0  0  0  0  0  0
    3.0690   -1.4900   -3.6890 O   0  0  0  0  0  0  0  0  0  0  0  0
    1.3120   -0.3590   -1.8960 C   0  0  0  0  0  0  0  0  0  0  0  0
   -3.2440    0.1590   -0.3090 C   0  0  0  0  0  0  0  0  0  0  0  0
   -4.1790    0.0240    0.6690 C   0  0  0  0  0  0  0  0  0  0  0  0
  1  2  1  0
  2  3  2  0
  2 27  1  0
  3  4  1  0
  4  5  2  0
  4  6  1  0
  6  7  1  0
  7  8  2  0
  7 27  1  0
  8  9  1  0
  9 10  2  0
 10 11  1  0
 10 26  1  0
 11 12  1  0
 12 13  2  0
 12 25  1  0
 13 14  1  0
 14 15  2  0
 15 16  1  0
 15 21  1  0
 16 17  2  0
 16 20  1  0
 17 18  1  0
 18 19  1  0
 19 20  2  0
 21 22  1  0
 21 25  2  0
 22 23  1  0
 22 24  2  0
 26 27  2  0
M  END
