
     RDKit          3D

 26 29  0  0  0  0  0  0  0  0999 V2000
    5.3280    0.0130   -3.1050 F   0  0  0  0  0  0  0  0  0  0  0  0
    4.9080    0.5740   -1.9340 C   0  0  0  0  0  0  0  0  0  0  0  0
    5.7340    1.4130   -1.2250 C   0  0  0  0  0  0  0  0  0  0  0  0
    5.2670    1.9600   -0.0440 C   0  0  0  0  0  0  0  0  0  0  0  0
    3.9890    1.6610    0.4060 C   0  0  0  0  0  0  0  0  0  0  0  0
    3.5220    2.1860    1.5510 F   0  0  0  0  0  0  0  0  0  0  0  0
    3.1510    0.8220   -0.2960 C   0  0  0  0  0  0  0  0  0  0  0  0
    1.8600    0.5020    0.1320 N   0  0  0  0  0  0  0  0  0  0  0  0
    1.4590   -0.6850    0.4370 C   0  0  0  0  0  0  0  0  0  0  0  0
    2.2280   -1.8860    0.4020 N   0  0  0  0  0  0  0  0  0  0  0  0
    1.4460   -2.9390    1.0470 C   0  0  0  0  0  0  0  0  0  0  0  0
    0.0360   -2.4640    1.0660 C   0  0  0  0  0  0  0  0  0  0  0  0
    0.1550   -1.0330    0.8770 N   0  0  0  0  0  0  0  0  0  0  0  0
   -0.8850   -0.0250    1.0900 C   0  0  0  0  0  0  0  0  0  0  0  0
   -2.0570   -0.2740    0.2250 C   0  0  0  0  0  0  0  0  0  0  0  0
   -2.1230   -1.3110   -0.6420 N   0  0  0  0  0  0  0  0  0  0  0  0
   -3.1880   -1.5400   -1.4300 C   0  0  0  0  0  0  0  0  0  0  0  0
   -4.2480   -0.6580   -1.3290 C   0  0  0  0  0  0  0  0  0  0  0  0
   -4.2460    0.4220   -0.4640 C   0  0  0  0  0  0  0  0  0  0  0  0
   -5.3020    1.2940   -0.3690 C   0  0  0  0  0  0  0  0  0  0  0  0
   -5.1830    2.3450    0.5380 C   0  0  0  0  0  0  0  0  0  0  0  0
   -6.2250    3.2210    0.6460 F   0  0  0  0  0  0  0  0  0  0  0  0
   -4.0580    2.5170    1.3160 C   0  0  0  0  0  0  0  0  0  0  0  0
   -3.0440    1.6440    1.1960 N   0  0  0  0  0  0  0  0  0  0  0  0
   -3.1240    0.6020    0.3180 C   0  0  0  0  0  0  0  0  0  0  0  0
    3.6240    0.2810   -1.4720 C   0  0  0  0  0  0  0  0  0  0  0  0
  1  2  1  0
  2  3  2  0
  2 26  1  0
  3  4  1  0
  4  5  2  0
  5  6  1  0
  5  7  1  0
  7  8  1  0
  7 26  2  0
  8  9  2  3
  9 10  1  0
  9 13  1  0
 10 11  1  0
 11 12  1  0
 12 13  1  0
 13 14  1  0
 14 15  1  0
 15 16  2  0
 15 25  1  0
 16 17  1  0
 17 18  2  0
 18 19  1  0
 19 20  2  0
 19 25  1  0
 20 21  1  0
 21 22  1  0
 21 23  2  0
 23 24  1  0
 24 25  2  0
M  END
