
     RDKit          3D

 25 28  0  0  0  0  0  0  0  0999 V2000
   -5.2200   -0.9870   -1.0600 C   0  0  0  0  0  0  0  0  0  0  0  0
   -5.1860    0.3330   -0.4020 C   0  0  0  0  0  0  0  0  0  0  0  0
   -4.1470    0.8380    0.2390 C   0  0  0  0  0  0  0  0  0  0  0  0
   -4.5650    2.1680    0.7340 C   0  0  0  0  0  0  0  0  0  0  0  0
   -3.5130    2.6610    1.3410 C   0  0  0  0  0  0  0  0  0  0  0  0
   -2.4220    1.7030    1.2650 N   0  0  0  0  0  0  0  0  0  0  0  0
   -2.7250    0.6530    0.6520 C   0  0  0  0  0  0  0  0  0  0  0  0
   -1.8970   -0.4820    0.3990 N   0  0  0  0  0  0  0  0  0  0  0  0
   -0.7770   -0.3660   -0.3760 C   0  0  0  0  0  0  0  0  0  0  0  0
    0.4380   -1.2170   -0.3880 C   0  0  0  0  0  0  0  0  0  0  0  0
    0.8420   -1.9870   -1.4950 C   0  0  0  0  0  0  0  0  0  0  0  0
   -0.0380   -2.3610   -2.4260 F   0  0  0  0  0  0  0  0  0  0  0  0
    2.1700   -2.1950   -1.3810 N   0  0  0  0  0  0  0  0  0  0  0  0
    2.6200   -1.6320   -0.3140 N   0  0  0  0  0  0  0  0  0  0  0  0
    3.9720   -1.1390   -0.0120 C   0  0  0  0  0  0  0  0  0  0  0  0
    4.5880   -1.1460    1.1510 C   0  0  0  0  0  0  0  0  0  0  0  0
    5.6720   -0.2220    1.3600 C   0  0  0  0  0  0  0  0  0  0  0  0
    6.0660    0.6510    0.3780 C   0  0  0  0  0  0  0  0  0  0  0  0
    7.0460    1.5700    0.5590 F   0  0  0  0  0  0  0  0  0  0  0  0
    5.4050    0.6220   -0.8480 C   0  0  0  0  0  0  0  0  0  0  0  0
    4.3900   -0.2450   -1.0390 C   0  0  0  0  0  0  0  0  0  0  0  0
    1.5780   -1.0170    0.3630 C   0  0  0  0  0  0  0  0  0  0  0  0
    1.7210   -0.3580    1.6550 C   0  0  0  0  0  0  0  0  0  0  0  0
   -5.9320    2.3310    0.3060 C   0  0  0  0  0  0  0  0  0  0  0  0
   -6.2820    1.2580   -0.3600 N   0  0  0  0  0  0  0  0  0  0  0  0
  1  2  1  0
  2  3  2  0
  2 25  1  0
  3  4  1  0
  3  7  1  0
  4  5  2  0
  4 24  1  0
  5  6  1  0
  6  7  2  0
  7  8  1  0
  8  9  1  0
  9 10  1  0
 10 11  1  0
 10 22  2  0
 11 12  1  0
 11 13  2  0
 13 14  1  0
 14 15  1  0
 14 22  1  0
 15 16  2  0
 15 21  1  0
 16 17  1  0
 17 18  2  0
 18 19  1  0
 18 20  1  0
 20 21  2  0
 22 23  1  0
 24 25  2  0
M  END
