
     RDKit          3D

 26 28  0  0  0  0  0  0  0  0999 V2000
   -4.1940   -1.4240    3.2090 C   0  0  0  0  0  0  0  0  0  0  0  0
   -4.1850   -0.7530    2.0710 C   0  0  0  0  0  0  0  0  0  0  0  0
   -3.1470   -0.9500    1.0600 C   0  0  0  0  0  0  0  0  0  0  0  0
   -3.0920   -0.3000   -0.0900 C   0  0  0  0  0  0  0  0  0  0  0  0
   -2.0510   -0.5010   -1.1020 C   0  0  0  0  0  0  0  0  0  0  0  0
   -1.0310   -1.4480   -0.7900 N   0  0  0  0  0  0  0  0  0  0  0  0
   -0.0940   -1.1530    0.2420 C   0  0  0  0  0  0  0  0  0  0  0  0
    1.0730   -1.5670   -0.6760 C   0  0  2  0  0  0  0  0  0  0  0  0
    2.0970   -0.6550   -0.6040 O   0  0  0  0  0  0  0  0  0  0  0  0
    3.4450   -0.9170   -0.4740 C   0  0  0  0  0  0  0  0  0  0  0  0
    3.8810   -2.2160   -0.4110 C   0  0  0  0  0  0  0  0  0  0  0  0
    5.2570   -2.4310   -0.2790 C   0  0  0  0  0  0  0  0  0  0  0  0
    6.1010   -1.3900   -0.2190 N   0  0  0  0  0  0  0  0  0  0  0  0
    5.6870   -0.1130   -0.2790 C   0  0  0  0  0  0  0  0  0  0  0  0
    6.6400    0.9080   -0.2080 O   0  0  0  0  0  0  0  0  0  0  0  0
    8.0160    0.6140   -0.0770 C   0  0  0  0  0  0  0  0  0  0  0  0
    4.3510    0.1570   -0.4080 C   0  0  0  0  0  0  0  0  0  0  0  0
    3.8700    1.4440   -0.4750 O   0  0  0  0  0  0  0  0  0  0  0  0
    3.4960    2.1730    0.7030 C   0  0  0  0  0  0  0  0  0  0  0  0
    0.0380   -1.3250   -1.7650 C   0  0  0  0  0  0  0  0  0  0  0  0
   -4.1030    0.6650   -0.3420 N   0  0  0  0  0  0  0  0  0  0  0  0
   -4.3820    1.0530   -1.6960 C   0  0  0  0  0  0  0  0  0  0  0  0
   -3.9670    2.4780   -1.9860 C   0  0  0  0  0  0  0  0  0  0  0  0
   -4.8590    1.2770    0.7660 C   0  0  0  0  0  0  0  0  0  0  0  0
   -5.2190    0.2260    1.7700 C   0  0  0  0  0  0  0  0  0  0  0  0
   -6.4020    0.1960    2.3320 C   0  0  0  0  0  0  0  0  0  0  0  0
  1  2  2  0
  2  3  1  0
  2 25  1  0
  3  4  2  0
  4  5  1  0
  4 21  1  0
  5  6  1  0
  6  7  1  0
  6 20  1  0
  7  8  1  0
  8  9  1  6
  8 20  1  0
  9 10  1  0
 10 11  2  0
 10 17  1  0
 11 12  1  0
 12 13  2  0
 13 14  1  0
 14 15  1  0
 14 17  2  0
 15 16  1  0
 17 18  1  0
 18 19  1  0
 21 22  1  0
 21 24  1  0
 22 23  1  0
 24 25  1  0
 25 26  2  0
M  CHG  1  13   1
M  END
