
     RDKit          3D

 26 28  0  0  0  0  0  0  0  0999 V2000
   -3.0180   -5.3400    1.4240 C   0  0  0  0  0  0  0  0  0  0  0  0
   -2.2570   -4.3400    0.6290 C   0  0  0  0  0  0  0  0  0  0  0  0
   -2.2470   -3.0980    1.0290 C   0  0  0  0  0  0  0  0  0  0  0  0
   -1.5220   -2.0010    0.3170 C   0  0  0  0  0  0  0  0  0  0  0  0
   -1.5560   -0.7870    0.7950 C   0  0  0  0  0  0  0  0  0  0  0  0
   -0.9410    0.3820    0.2850 C   0  0  0  0  0  0  0  0  0  0  0  0
   -0.0710    0.4990   -0.9090 C   0  0  0  0  0  0  0  0  0  0  0  0
    1.1630   -0.2150   -0.8460 N   0  0  1  0  0  0  0  0  0  0  0  0
    1.5100   -0.7780   -2.1260 C   0  0  0  0  0  0  0  0  0  0  0  0
    2.7580   -0.1870   -2.7120 C   0  0  0  0  0  0  0  0  0  0  0  0
    3.8750   -0.2030   -1.8200 N   0  0  0  0  0  0  0  0  0  0  0  0
    4.7370   -1.3420   -1.9680 C   0  0  0  0  0  0  0  0  0  0  0  0
    3.5220    0.0500   -0.4380 C   0  0  0  0  0  0  0  0  0  0  0  0
    2.1910    0.7440   -0.4120 C   0  0  0  0  0  0  0  0  0  0  0  0
   -1.1730    1.5520    0.9820 C   0  0  0  0  0  0  0  0  0  0  0  0
   -2.0230    1.4930    2.1730 C   0  0  0  0  0  0  0  0  0  0  0  0
   -2.2980    2.7540    2.6860 O   0  0  0  0  0  0  0  0  0  0  0  0
   -1.7190    3.9070    2.2300 C   0  0  0  0  0  0  0  0  0  0  0  0
   -2.0290    5.0990    2.9030 C   0  0  0  0  0  0  0  0  0  0  0  0
   -1.4980    6.2680    2.5120 N   0  0  0  0  0  0  0  0  0  0  0  0
   -0.6540    6.2970    1.4540 C   0  0  0  0  0  0  0  0  0  0  0  0
   -0.3420    5.1340    0.7840 C   0  0  0  0  0  0  0  0  0  0  0  0
   -0.8620    3.9150    1.1510 C   0  0  0  0  0  0  0  0  0  0  0  0
   -0.6100    2.7120    0.5470 O   0  0  0  0  0  0  0  0  0  0  0  0
   -0.8730   -2.4320   -0.8250 O   0  0  0  0  0  0  0  0  0  0  0  0
   -1.4350   -2.6020   -2.0880 C   0  0  0  0  0  0  0  0  0  0  0  0
  1  2  1  0
  2  3  2  3
  3  4  1  0
  4  5  2  3
  4 25  1  0
  5  6  1  0
  6  7  1  0
  6 15  2  3
  8  7  1  6
  8  9  1  0
  8 14  1  0
  9 10  1  0
 10 11  1  0
 11 12  1  0
 11 13  1  0
 13 14  1  0
 15 16  1  0
 15 24  1  0
 16 17  1  0
 17 18  1  0
 18 19  2  0
 18 23  1  0
 19 20  1  0
 20 21  2  0
 21 22  1  0
 22 23  2  0
 23 24  1  0
 25 26  1  0
M  CHG  1   8   1
M  END
