
     RDKit          3D

 26 28  0  0  0  0  0  0  0  0999 V2000
    6.7440   -0.1140   -2.2160 C   0  0  0  0  0  0  0  0  0  0  0  0
    6.1330    0.1260   -1.0690 C   0  0  0  0  0  0  0  0  0  0  0  0
    6.7220    1.1030   -0.1050 C   0  0  0  0  0  0  0  0  0  0  0  0
    6.6400    0.4300    1.2340 C   0  0  0  0  0  0  0  0  0  0  0  0
    7.6170    0.4150    2.0220 O   0  0  0  0  0  0  0  0  0  0  0  0
    5.3810   -0.2190    1.6060 C   0  0  0  0  0  0  0  0  0  0  0  0
    4.5840   -0.6500    0.6390 C   0  0  0  0  0  0  0  0  0  0  0  0
    3.3100   -1.3060    1.0240 C   0  0  0  0  0  0  0  0  0  0  0  0
    2.1580   -0.6060    0.5070 N   0  0  0  0  0  0  0  0  0  0  0  0
    1.9690    0.6850    1.1300 C   0  0  0  0  0  0  0  0  0  0  0  0
    0.8850    1.4050    0.3550 C   0  0  0  0  0  0  0  0  0  0  0  0
    0.0210    0.4770   -0.3220 N   0  0  2  0  0  0  0  0  0  0  0  0
   -0.5500   -0.4500    0.6130 C   0  0  0  0  0  0  0  0  0  0  0  0
   -1.9910   -0.7340    0.1670 C   0  0  1  0  0  0  0  0  0  0  0  0
   -2.5800   -1.7410    1.1710 C   0  0  0  0  0  0  0  0  0  0  0  0
   -2.8050    0.4960    0.1460 C   0  0  0  0  0  0  0  0  0  0  0  0
   -2.3940    1.5520    0.6750 O   0  0  0  0  0  0  0  0  0  0  0  0
   -4.0770    0.5270   -0.4670 N   0  0  0  0  0  0  0  0  0  0  0  0
   -4.5920   -0.6500   -1.1060 C   0  0  0  0  0  0  0  0  0  0  0  0
   -6.0980   -0.7860   -0.8730 C   0  0  0  0  0  0  0  0  0  0  0  0
   -6.4450   -0.0580    0.4140 C   0  0  0  0  0  0  0  0  0  0  0  0
   -6.1890    1.4170    0.2640 C   0  0  0  0  0  0  0  0  0  0  0  0
   -4.9070    1.7150   -0.4800 C   0  0  0  0  0  0  0  0  0  0  0  0
    0.7160   -0.2600   -1.3680 C   0  0  0  0  0  0  0  0  0  0  0  0
    2.1360   -0.5230   -0.9190 C   0  0  0  0  0  0  0  0  0  0  0  0
    4.9510   -0.4810   -0.6870 O   0  0  0  0  0  0  0  0  0  0  0  0
  1  2  2  0
  2  3  1  0
  2 26  1  0
  3  4  1  0
  4  5  2  0
  4  6  1  0
  6  7  2  0
  7  8  1  0
  7 26  1  0
  8  9  1  0
  9 10  1  0
  9 25  1  0
 10 11  1  0
 11 12  1  0
 12 13  1  1
 12 24  1  0
 13 14  1  0
 14 15  1  1
 14 16  1  0
 16 17  2  0
 16 18  1  0
 18 19  1  0
 18 23  1  0
 19 20  1  0
 20 21  1  0
 21 22  1  0
 22 23  1  0
 24 25  1  0
M  CHG  1  12   1
M  END
