
     RDKit          3D

 19 20  0  0  0  0  0  0  0  0999 V2000
    0.2580   -1.1860   -0.2110 O   0  0  0  0  0  0  0  0  0  0  0  0
    0.2720   -1.1670    1.0540 C   0  0  0  0  0  0  0  0  0  0  0  0
   -0.8990   -0.9620    1.8130 N   0  0  0  0  0  0  0  0  0  0  0  0
   -2.1920   -0.7550    1.2010 C   0  0  0  0  0  0  0  0  0  0  0  0
   -2.2000    0.4540    0.3450 C   0  0  0  0  0  0  0  0  0  0  0  0
   -3.4860    0.7620   -0.3300 C   0  0  2  0  0  0  0  0  0  0  0  0
   -3.3700    1.9190   -1.1060 O   0  0  0  0  0  0  0  0  0  0  0  0
   -4.7220    0.8340    0.5120 C   0  0  0  0  0  0  0  0  0  0  0  0
   -5.4640    0.2720   -0.6890 C   0  0  0  0  0  0  0  0  0  0  0  0
   -4.1380   -0.3250   -1.1190 C   0  0  0  0  0  0  0  0  0  0  0  0
    1.5560   -1.3680    1.6380 N   0  0  0  0  0  0  0  0  0  0  0  0
    2.7530   -1.5770    0.8490 C   0  0  0  0  0  0  0  0  0  0  0  0
    3.0640   -0.4320   -0.0690 C   0  0  2  0  0  0  0  0  0  0  0  0
    4.3410   -0.8100   -0.8200 C   0  0  0  0  0  0  0  0  0  0  0  0
    4.5670    0.3980   -1.7400 C   0  0  0  0  0  0  0  0  0  0  0  0
    4.3710    1.7170   -0.5310 S   0  0  1  0  0  0  0  0  0  0  0  0
    5.7210    2.0640    0.0160 O   0  0  0  0  0  0  0  0  0  0  0  0
    3.6390    2.8740   -1.0930 O   0  0  0  0  0  0  0  0  0  0  0  0
    3.3900    0.8330    0.6920 C   0  0  0  0  0  0  0  0  0  0  0  0
  1  2  2  0
  2  3  1  0
  2 11  1  0
  3  4  1  0
  4  5  1  0
  5  6  1  0
  6  7  1  6
  6  8  1  0
  6 10  1  0
  8  9  1  0
  9 10  1  0
 11 12  1  0
 13 12  1  1
 13 14  1  0
 13 19  1  0
 14 15  1  0
 16 15  1  6
 16 17  2  0
 16 18  2  0
 16 19  1  0
M  END
