
     RDKit          3D

 20 21  0  0  0  0  0  0  0  0999 V2000
    4.5670   -0.9630    0.2620 C   0  0  0  0  0  0  0  0  0  0  0  0
    3.4700    0.0530    0.5180 C   0  0  0  0  0  0  0  0  0  0  0  0
    2.1790   -0.5460    0.0740 C   0  0  0  0  0  0  0  0  0  0  0  0
    1.0730    0.3150    0.2640 O   0  0  0  0  0  0  0  0  0  0  0  0
   -0.1800   -0.1750   -0.1280 C   0  0  0  0  0  0  0  0  0  0  0  0
   -0.3510   -1.4260   -0.6740 C   0  0  0  0  0  0  0  0  0  0  0  0
   -1.6190   -1.8850   -1.0550 C   0  0  0  0  0  0  0  0  0  0  0  0
   -1.6870   -3.2230   -1.6210 C   0  0  0  0  0  0  0  0  0  0  0  0
   -0.6480   -3.9350   -1.7600 O   0  0  0  0  0  0  0  0  0  0  0  0
   -2.8660   -3.8110   -2.0430 O   0  0  0  0  0  0  0  0  0  0  0  0
   -2.6750   -1.0380   -0.8640 C   0  0  0  0  0  0  0  0  0  0  0  0
   -3.9320   -1.4130   -1.2090 O   0  0  0  0  0  0  0  0  0  0  0  0
   -2.4850    0.2420   -0.3040 C   0  0  0  0  0  0  0  0  0  0  0  0
   -4.1280    1.5090   -0.0260 I   0  0  0  0  0  0  0  0  0  0  0  0
   -1.2420    0.6820    0.0670 C   0  0  0  0  0  0  0  0  0  0  0  0
   -1.0630    1.9840    0.6340 N   0  0  0  0  0  0  0  0  0  0  0  0
   -0.2250    2.9450    0.2450 C   0  0  0  0  0  0  0  0  0  0  0  0
   -0.3790    4.0310    1.0660 C   0  0  0  0  0  0  0  0  0  0  0  0
   -1.3460    3.7390    2.0000 C   0  0  0  0  0  0  0  0  0  0  0  0
   -1.7420    2.4560    1.6920 C   0  0  0  0  0  0  0  0  0  0  0  0
  1  2  1  0
  2  3  1  0
  3  4  1  0
  4  5  1  0
  5  6  2  0
  5 15  1  0
  6  7  1  0
  7  8  1  0
  7 11  2  0
  8  9  2  0
  8 10  1  0
 11 12  1  0
 11 13  1  0
 13 14  1  0
 13 15  2  0
 15 16  1  0
 16 17  1  0
 16 20  1  0
 17 18  2  0
 18 19  1  0
 19 20  2  0
M  END
