
     RDKit          3D

 24 27  0  0  0  0  0  0  0  0999 V2000
    5.9390    0.0050    0.0200 C   0  0  0  0  0  0  0  0  0  0  0  0
    4.4940    0.0760    0.3570 C   0  0  0  0  0  0  0  0  0  0  0  0
    4.1290    0.4220    1.6400 C   0  0  0  0  0  0  0  0  0  0  0  0
    2.7870    0.4930    1.9720 C   0  0  0  0  0  0  0  0  0  0  0  0
    1.8160    0.2200    1.0260 C   0  0  0  0  0  0  0  0  0  0  0  0
    2.1640   -0.1260   -0.2600 C   0  0  0  0  0  0  0  0  0  0  0  0
    1.1700   -0.4320   -1.3230 C   0  0  0  0  0  0  0  0  0  0  0  0
   -0.1800   -0.3280   -0.8720 N   0  0  0  0  0  0  0  0  0  0  0  0
   -0.8860    0.9010   -0.9630 C   0  0  0  0  0  0  0  0  0  0  0  0
   -0.2970    1.9020   -1.4520 O   0  0  0  0  0  0  0  0  0  0  0  0
   -2.2770    1.0640   -0.5150 C   0  0  0  0  0  0  0  0  0  0  0  0
   -2.8660    2.2410   -0.6330 C   0  0  0  0  0  0  0  0  0  0  0  0
   -4.2520    2.4110   -0.1880 C   0  0  0  0  0  0  0  0  0  0  0  0
   -4.8420    1.2700    0.3400 O   0  0  0  0  0  0  0  0  0  0  0  0
   -4.2360    0.0410    0.4670 C   0  0  0  0  0  0  0  0  0  0  0  0
   -4.9130   -1.0460    1.0100 C   0  0  0  0  0  0  0  0  0  0  0  0
   -4.2490   -2.2430    1.1080 C   0  0  0  0  0  0  0  0  0  0  0  0
   -2.9330   -2.3860    0.6800 C   0  0  0  0  0  0  0  0  0  0  0  0
   -2.2650   -1.3100    0.1430 C   0  0  0  0  0  0  0  0  0  0  0  0
   -2.9390   -0.1050    0.0460 C   0  0  0  0  0  0  0  0  0  0  0  0
   -0.8670   -1.4410   -0.3180 C   0  0  0  0  0  0  0  0  0  0  0  0
   -0.3300   -2.5670   -0.1950 O   0  0  0  0  0  0  0  0  0  0  0  0
    3.4970   -0.1900   -0.5650 C   0  0  0  0  0  0  0  0  0  0  0  0
    3.9180   -0.5330   -1.8400 O   0  0  0  0  0  0  0  0  0  0  0  0
  1  2  1  0
  2  3  2  0
  2 23  1  0
  3  4  1  0
  4  5  2  0
  5  6  1  0
  6  7  1  0
  6 23  2  0
  7  8  1  0
  8  9  1  0
  8 21  1  0
  9 10  2  0
  9 11  1  0
 11 12  2  0
 11 20  1  0
 12 13  1  0
 13 14  1  0
 14 15  1  0
 15 16  2  0
 15 20  1  0
 16 17  1  0
 17 18  2  0
 18 19  1  0
 19 20  2  0
 19 21  1  0
 21 22  2  0
 23 24  1  0
M  END
