
     RDKit          3D

 24 27  0  0  0  0  0  0  0  0999 V2000
   -2.0370    2.6080    0.6000 C   0  0  0  0  0  0  0  0  0  0  0  0
   -2.1170    1.1780    0.3210 C   0  0  0  0  0  0  0  0  0  0  0  0
   -3.2930    0.5730   -0.1220 C   0  0  0  0  0  0  0  0  0  0  0  0
   -3.3240   -0.8040   -0.3940 C   0  0  0  0  0  0  0  0  0  0  0  0
   -2.1880   -1.5610   -0.2220 C   0  0  0  0  0  0  0  0  0  0  0  0
   -1.0220   -0.9890    0.2130 C   0  0  0  0  0  0  0  0  0  0  0  0
    0.0540   -1.7070    0.3770 O   0  0  0  0  0  0  0  0  0  0  0  0
    1.2080   -1.2610    0.7860 C   0  0  0  0  0  0  0  0  0  0  0  0
    2.3770   -2.1960    0.9350 C   0  0  0  0  0  0  0  0  0  0  0  0
    3.5710   -1.5020    1.1070 O   0  0  0  0  0  0  0  0  0  0  0  0
    4.1630   -0.6160    0.2560 C   0  0  0  0  0  0  0  0  0  0  0  0
    3.6580   -0.2470   -0.9730 C   0  0  0  0  0  0  0  0  0  0  0  0
    4.3680    0.6670   -1.7370 C   0  0  0  0  0  0  0  0  0  0  0  0
    5.5200    1.2040   -1.3310 N   0  0  0  0  0  0  0  0  0  0  0  0
    6.0480    0.8650   -0.1270 C   0  0  0  0  0  0  0  0  0  0  0  0
    5.3670   -0.0320    0.6390 C   0  0  0  0  0  0  0  0  0  0  0  0
    1.2890    0.0780    1.0660 C   0  0  0  0  0  0  0  0  0  0  0  0
    0.1770    0.9080    0.9130 C   0  0  0  0  0  0  0  0  0  0  0  0
    0.2810    2.1340    1.1780 O   0  0  0  0  0  0  0  0  0  0  0  0
   -0.9920    0.3700    0.4810 C   0  0  0  0  0  0  0  0  0  0  0  0
   -4.4370   -1.4130   -0.8220 C   0  0  0  0  0  0  0  0  0  0  0  0
   -5.6730   -0.6580   -1.0240 C   0  0  0  0  0  0  0  0  0  0  0  0
   -5.5490    0.6890   -0.7150 O   0  0  0  0  0  0  0  0  0  0  0  0
   -4.3780    1.3020   -0.2700 C   0  0  0  0  0  0  0  0  0  0  0  0
  1  2  1  0
  2  3  1  0
  2 20  2  0
  3  4  1  0
  3 24  2  0
  4  5  1  0
  4 21  2  0
  5  6  2  0
  6  7  1  0
  6 20  1  0
  7  8  1  0
  8  9  1  0
  8 17  2  0
  9 10  1  0
 10 11  1  0
 11 12  2  0
 11 16  1  0
 12 13  1  0
 13 14  2  0
 14 15  1  0
 15 16  2  0
 17 18  1  0
 18 19  2  0
 18 20  1  0
 21 22  1  0
 22 23  1  0
 23 24  1  0
M  END
