
     RDKit          3D

 24 27  0  0  0  0  0  0  0  0999 V2000
   -5.4450   -0.2740   -0.8440 C   0  0  0  0  0  0  0  0  0  0  0  0
   -4.1730    0.2310   -0.5660 O   0  0  0  0  0  0  0  0  0  0  0  0
   -2.9810   -0.4280   -0.8030 C   0  0  0  0  0  0  0  0  0  0  0  0
   -3.0240   -1.6830   -1.3620 C   0  0  0  0  0  0  0  0  0  0  0  0
   -1.8220   -2.3480   -1.6020 C   0  0  0  0  0  0  0  0  0  0  0  0
   -0.6450   -1.7240   -1.2720 C   0  0  0  0  0  0  0  0  0  0  0  0
   -0.5620   -0.4670   -0.7100 C   0  0  0  0  0  0  0  0  0  0  0  0
    0.7080    0.1950   -0.3980 C   0  0  0  0  0  0  0  0  0  0  0  0
    1.0050    1.4430   -0.9610 C   0  0  0  0  0  0  0  0  0  0  0  0
    2.2170    2.0490   -0.7240 C   0  0  0  0  0  0  0  0  0  0  0  0
    2.7820    3.2590   -1.1390 C   0  0  0  0  0  0  0  0  0  0  0  0
    3.9840    3.3710   -0.6300 O   0  0  0  0  0  0  0  0  0  0  0  0
    4.2700    2.3240    0.1000 C   0  0  0  0  0  0  0  0  0  0  0  0
    3.1850    1.4670    0.0680 C   0  0  0  0  0  0  0  0  0  0  0  0
    2.9040    0.2510    0.6220 C   0  0  0  0  0  0  0  0  0  0  0  0
    3.8740   -0.3060    1.4210 C   0  0  0  0  0  0  0  0  0  0  0  0
    3.6370   -1.4910    2.0010 N   0  0  0  0  0  0  0  0  0  0  0  0
    2.4400   -2.1140    1.7830 C   0  0  0  0  0  0  0  0  0  0  0  0
    2.2250   -3.3480    2.4020 O   0  0  0  0  0  0  0  0  0  0  0  0
    1.4560   -1.5810    0.9900 C   0  0  0  0  0  0  0  0  0  0  0  0
    1.6710   -0.3720    0.3850 C   0  0  0  0  0  0  0  0  0  0  0  0
   -1.7770    0.1590   -0.4880 C   0  0  0  0  0  0  0  0  0  0  0  0
   -1.7570    1.4350    0.0800 O   0  0  0  0  0  0  0  0  0  0  0  0
   -1.7990    1.6190    1.4840 C   0  0  0  0  0  0  0  0  0  0  0  0
  1  2  1  0
  2  3  1  0
  3  4  2  0
  3 22  1  0
  4  5  1  0
  5  6  2  0
  6  7  1  0
  7  8  1  0
  7 22  2  0
  8  9  2  0
  8 21  1  0
  9 10  1  0
 10 11  2  0
 10 14  1  0
 11 12  1  0
 12 13  1  0
 13 14  2  0
 14 15  1  0
 15 16  2  0
 15 21  1  0
 16 17  1  0
 17 18  2  0
 18 19  1  0
 18 20  1  0
 20 21  2  0
 22 23  1  0
 23 24  1  0
M  END
