
     RDKit          3D

 24 27  0  0  0  0  0  0  0  0999 V2000
    7.9930    0.2300    0.1570 C   0  0  0  0  0  0  0  0  0  0  0  0
    6.8500   -0.4580   -0.5420 C   0  0  0  0  0  0  0  0  0  0  0  0
    5.7040   -0.6370    0.0950 C   0  0  0  0  0  0  0  0  0  0  0  0
    5.5650   -0.1550    1.4920 C   0  0  0  0  0  0  0  0  0  0  0  0
    4.1540   -0.0700    1.9300 C   0  0  0  0  0  0  0  0  0  0  0  0
    3.9320    0.1200    3.1470 O   0  0  0  0  0  0  0  0  0  0  0  0
    3.0430   -0.2000    1.0070 C   0  0  0  0  0  0  0  0  0  0  0  0
    1.7840    0.1370    1.0490 O   0  0  0  0  0  0  0  0  0  0  0  0
    1.1640   -0.1940   -0.0490 C   0  0  0  0  0  0  0  0  0  0  0  0
   -0.2640    0.0320   -0.3520 C   0  0  0  0  0  0  0  0  0  0  0  0
   -0.8940   -0.3280   -1.5230 C   0  0  0  0  0  0  0  0  0  0  0  0
   -2.2150    0.0520   -1.4190 C   0  0  0  0  0  0  0  0  0  0  0  0
   -2.3440    0.6360   -0.1770 C   0  0  0  0  0  0  0  0  0  0  0  0
   -3.5760    1.2130    0.4200 C   0  0  0  0  0  0  0  0  0  0  0  0
   -4.7050    0.8800   -0.3710 N   0  0  0  0  0  0  0  0  0  0  0  0
   -4.9900   -0.5060   -0.5170 C   0  0  0  0  0  0  0  0  0  0  0  0
   -6.0860   -1.0110    0.3790 C   0  0  0  0  0  0  0  0  0  0  0  0
   -7.0380   -0.0730    0.6820 O   0  0  0  0  0  0  0  0  0  0  0  0
   -7.1380    0.9590   -0.2330 C   0  0  0  0  0  0  0  0  0  0  0  0
   -5.8410    1.7270   -0.2060 C   0  0  0  0  0  0  0  0  0  0  0  0
   -1.1530    0.6000    0.4200 O   0  0  0  0  0  0  0  0  0  0  0  0
    2.0770   -0.7970   -0.8870 C   0  0  0  0  0  0  0  0  0  0  0  0
    3.2890   -0.8010   -0.2060 C   0  0  0  0  0  0  0  0  0  0  0  0
    4.6000   -1.3210   -0.6300 C   0  0  0  0  0  0  0  0  0  0  0  0
  1  2  1  0
  2  3  2  3
  3  4  1  0
  3 24  1  0
  4  5  1  0
  5  6  2  0
  5  7  1  0
  7  8  1  0
  7 23  2  0
  8  9  1  0
  9 10  1  0
  9 22  2  0
 10 11  2  0
 10 21  1  0
 11 12  1  0
 12 13  2  0
 13 14  1  0
 13 21  1  0
 14 15  1  0
 15 16  1  0
 15 20  1  0
 16 17  1  0
 17 18  1  0
 18 19  1  0
 19 20  1  0
 22 23  1  0
 23 24  1  0
M  END
