
     RDKit          3D

 24 26  0  0  0  0  0  0  0  0999 V2000
   -1.6750    2.7720    1.8550 C   0  0  0  0  0  0  0  0  0  0  0  0
   -1.7480    1.6740    0.8570 C   0  0  0  0  0  0  0  0  0  0  0  0
   -0.7190    0.9030    0.3470 C   0  0  0  0  0  0  0  0  0  0  0  0
    0.6710    1.0310    0.7100 C   0  0  0  0  0  0  0  0  0  0  0  0
    1.0340    1.8840    1.5400 O   0  0  0  0  0  0  0  0  0  0  0  0
    1.6050    0.2030    0.1320 O   0  0  0  0  0  0  0  0  0  0  0  0
    2.9540    0.3190    0.4760 C   0  0  0  0  0  0  0  0  0  0  0  0
    3.7790   -0.6660   -0.2620 C   0  0  0  0  0  0  0  0  0  0  0  0
    3.2180   -1.4480   -1.0640 O   0  0  0  0  0  0  0  0  0  0  0  0
    5.2090   -0.7390   -0.0720 C   0  0  0  0  0  0  0  0  0  0  0  0
    5.9390    0.0330    0.7510 C   0  0  0  0  0  0  0  0  0  0  0  0
    7.3710   -0.3290    0.6800 C   0  0  0  0  0  0  0  0  0  0  0  0
    7.4440   -0.9690   -0.7100 C   0  0  0  0  0  0  0  0  0  0  0  0
    6.1180   -1.6900   -0.7650 C   0  0  0  0  0  0  0  0  0  0  0  0
   -1.2480    0.0160   -0.5430 N   0  0  0  0  0  0  0  0  0  0  0  0
   -2.5720    0.1810   -0.6310 C   0  0  0  0  0  0  0  0  0  0  0  0
   -2.9060    1.2120    0.2360 C   0  0  0  0  0  0  0  0  0  0  0  0
   -4.3090    1.5910    0.3270 C   0  0  0  0  0  0  0  0  0  0  0  0
   -4.5730    2.7620    0.7100 O   0  0  0  0  0  0  0  0  0  0  0  0
   -5.4320    0.6760   -0.0050 C   0  0  0  0  0  0  0  0  0  0  0  0
   -4.8690   -0.6510   -0.4690 C   0  0  2  0  0  0  0  0  0  0  0  0
   -5.9570   -1.3790   -1.2130 C   0  0  0  0  0  0  0  0  0  0  0  0
   -4.3690   -1.4420    0.7290 C   0  0  0  0  0  0  0  0  0  0  0  0
   -3.6780   -0.4490   -1.3930 C   0  0  0  0  0  0  0  0  0  0  0  0
  1  2  1  0
  2  3  2  0
  2 17  1  0
  3  4  1  0
  3 15  1  0
  4  5  2  0
  4  6  1  0
  6  7  1  0
  7  8  1  0
  8  9  2  0
  8 10  1  0
 10 11  2  0
 10 14  1  0
 11 12  1  0
 12 13  1  0
 13 14  1  0
 15 16  1  0
 16 17  2  0
 16 24  1  0
 17 18  1  0
 18 19  2  0
 18 20  1  0
 20 21  1  0
 21 22  1  6
 21 23  1  0
 21 24  1  0
M  END
