
     RDKit          3D

 21 22  0  0  0  0  0  0  0  0999 V2000
    4.7810    0.3680   -0.3960 C   0  0  0  0  0  0  0  0  0  0  0  0
    4.0420   -0.8580    0.0130 C   0  0  0  0  0  0  0  0  0  0  0  0
    2.6230   -0.5420    0.4940 C   0  0  0  0  0  0  0  0  0  0  0  0
    1.8640    0.1150   -0.6110 C   0  0  0  0  0  0  0  0  0  0  0  0
    0.5650    0.4710   -0.3670 O   0  0  0  0  0  0  0  0  0  0  0  0
   -0.5550   -0.2180   -0.0530 C   0  0  0  0  0  0  0  0  0  0  0  0
   -0.6340   -1.5720    0.0920 C   0  0  0  0  0  0  0  0  0  0  0  0
   -1.8170   -2.2320    0.4160 C   0  0  0  0  0  0  0  0  0  0  0  0
   -1.8640   -3.6780    0.5630 C   0  0  0  0  0  0  0  0  0  0  0  0
   -2.9340   -4.2670    0.8550 O   0  0  0  0  0  0  0  0  0  0  0  0
   -0.7410   -4.4770    0.3900 O   0  0  0  0  0  0  0  0  0  0  0  0
   -2.9630   -1.5120    0.6010 C   0  0  0  0  0  0  0  0  0  0  0  0
   -4.1550   -2.1680    0.9270 O   0  0  0  0  0  0  0  0  0  0  0  0
   -2.8990   -0.1360    0.4570 C   0  0  0  0  0  0  0  0  0  0  0  0
   -4.6770    0.9870    0.7440 I   0  0  0  0  0  0  0  0  0  0  0  0
   -1.7310    0.5140    0.1380 C   0  0  0  0  0  0  0  0  0  0  0  0
   -1.7670    1.9300    0.0110 N   0  0  0  0  0  0  0  0  0  0  0  0
   -1.8560    2.5780   -1.1740 C   0  0  0  0  0  0  0  0  0  0  0  0
   -1.8680    3.9540   -0.9620 C   0  0  0  0  0  0  0  0  0  0  0  0
   -1.7810    4.1090    0.4260 C   0  0  0  0  0  0  0  0  0  0  0  0
   -1.7220    2.8570    0.9800 C   0  0  0  0  0  0  0  0  0  0  0  0
  1  2  1  0
  2  3  1  0
  3  4  1  0
  4  5  1  0
  5  6  1  0
  6  7  2  0
  6 16  1  0
  7  8  1  0
  8  9  1  0
  8 12  2  0
  9 10  2  0
  9 11  1  0
 12 13  1  0
 12 14  1  0
 14 15  1  0
 14 16  2  0
 16 17  1  0
 17 18  1  0
 17 21  1  0
 18 19  2  0
 19 20  1  0
 20 21  2  0
M  END
