
     RDKit          3D

 24 27  0  0  0  0  0  0  0  0999 V2000
    6.8860   -0.9970   -1.7230 N   0  0  0  0  0  0  0  0  0  0  0  0
    5.6660   -0.6630   -1.0830 C   0  0  0  0  0  0  0  0  0  0  0  0
    5.5200   -0.6890    0.2910 C   0  0  0  0  0  0  0  0  0  0  0  0
    4.3330   -0.3640    0.9060 C   0  0  0  0  0  0  0  0  0  0  0  0
    3.2260    0.0040    0.1670 C   0  0  0  0  0  0  0  0  0  0  0  0
    1.9720    0.3470    0.8270 C   0  0  0  0  0  0  0  0  0  0  0  0
    1.9910    0.9390    2.0730 C   0  0  0  0  0  0  0  0  0  0  0  0
    0.8430    1.2860    2.7490 C   0  0  0  0  0  0  0  0  0  0  0  0
   -0.3900    1.0220    2.1350 C   0  0  0  0  0  0  0  0  0  0  0  0
   -0.4590    0.4340    0.8970 C   0  0  0  0  0  0  0  0  0  0  0  0
   -1.7080    0.1410    0.2200 C   0  0  0  0  0  0  0  0  0  0  0  0
   -2.9310    0.4350    0.7750 C   0  0  0  0  0  0  0  0  0  0  0  0
   -4.1210    0.1480    0.1140 C   0  0  0  0  0  0  0  0  0  0  0  0
   -4.0790   -0.4470   -1.1300 C   0  0  0  0  0  0  0  0  0  0  0  0
   -2.8110   -0.7150   -1.6300 C   0  0  0  0  0  0  0  0  0  0  0  0
   -2.7310   -1.2570   -2.7630 O   0  0  0  0  0  0  0  0  0  0  0  0
   -1.7320   -0.4240   -0.9680 O   0  0  0  0  0  0  0  0  0  0  0  0
   -5.2430   -0.7450   -1.8110 O   0  0  0  0  0  0  0  0  0  0  0  0
   -6.4840   -0.6660   -1.0910 C   0  0  0  0  0  0  0  0  0  0  0  0
   -6.4170    0.6320   -0.3020 C   0  0  0  0  0  0  0  0  0  0  0  0
   -5.3700    0.4380    0.6620 O   0  0  0  0  0  0  0  0  0  0  0  0
    0.7420    0.1040    0.2580 C   0  0  0  0  0  0  0  0  0  0  0  0
    3.3780    0.0280   -1.2140 C   0  0  0  0  0  0  0  0  0  0  0  0
    4.5650   -0.2960   -1.8330 C   0  0  0  0  0  0  0  0  0  0  0  0
  1  2  1  0
  2  3  2  0
  2 24  1  0
  3  4  1  0
  4  5  2  0
  5  6  1  0
  5 23  1  0
  6  7  2  0
  6 22  1  0
  7  8  1  0
  8  9  2  0
  9 10  1  0
 10 11  1  0
 10 22  2  0
 11 12  2  0
 11 17  1  0
 12 13  1  0
 13 14  2  0
 13 21  1  0
 14 15  1  0
 14 18  1  0
 15 16  2  0
 15 17  1  0
 18 19  1  0
 19 20  1  0
 20 21  1  0
 23 24  2  0
M  END
