
     RDKit          3D

 25 28  0  0  0  0  0  0  0  0999 V2000
    0.5090   -1.0060   -2.3090 O   0  0  0  0  0  0  0  0  0  0  0  0
   -0.1590   -0.5610   -1.3660 C   0  0  0  0  0  0  0  0  0  0  0  0
   -1.5460   -0.5990   -1.5010 O   0  0  0  0  0  0  0  0  0  0  0  0
   -2.3460   -0.1150   -0.4790 C   0  0  0  0  0  0  0  0  0  0  0  0
   -1.8440    0.3840    0.6220 C   0  0  0  0  0  0  0  0  0  0  0  0
   -2.7050    0.8940    1.6970 C   0  0  0  0  0  0  0  0  0  0  0  0
   -4.1450    0.8340    1.5160 C   0  0  0  0  0  0  0  0  0  0  0  0
   -4.6460    0.2660    0.2640 C   0  0  0  0  0  0  0  0  0  0  0  0
   -6.0220    0.1810    0.0280 C   0  0  0  0  0  0  0  0  0  0  0  0
   -6.4480   -0.3550   -1.1540 C   0  0  0  0  0  0  0  0  0  0  0  0
   -5.6160   -0.8260   -2.1450 C   0  0  0  0  0  0  0  0  0  0  0  0
   -4.2650   -0.7360   -1.9000 C   0  0  0  0  0  0  0  0  0  0  0  0
   -3.7980   -0.1920   -0.7000 C   0  0  0  0  0  0  0  0  0  0  0  0
   -0.4530    0.4420    0.7990 O   0  0  0  0  0  0  0  0  0  0  0  0
    0.4550   -0.0260   -0.1820 C   0  0  0  0  0  0  0  0  0  0  0  0
    1.7410    0.0720    0.0780 C   0  0  0  0  0  0  0  0  0  0  0  0
    2.8830   -0.2970   -0.6820 C   0  0  0  0  0  0  0  0  0  0  0  0
    2.7580   -0.8280   -1.8400 O   0  0  0  0  0  0  0  0  0  0  0  0
    4.2650   -0.0990   -0.2010 C   0  0  0  0  0  0  0  0  0  0  0  0
    4.4960    0.4560    1.0140 C   0  0  0  0  0  0  0  0  0  0  0  0
    5.8280    0.6100    1.3970 C   0  0  0  0  0  0  0  0  0  0  0  0
    6.8960    0.2440    0.6410 C   0  0  0  0  0  0  0  0  0  0  0  0
    6.6140   -0.3230   -0.5990 C   0  0  0  0  0  0  0  0  0  0  0  0
    7.6630   -0.7120   -1.4060 O   0  0  0  0  0  0  0  0  0  0  0  0
    5.3170   -0.4950   -1.0220 C   0  0  0  0  0  0  0  0  0  0  0  0
  1  2  2  0
  2  3  1  0
  2 15  1  0
  3  4  1  0
  4  5  2  0
  4 13  1  0
  5  6  1  0
  5 14  1  0
  6  7  1  0
  7  8  1  0
  8  9  2  0
  8 13  1  0
  9 10  1  0
 10 11  2  0
 11 12  1  0
 12 13  2  0
 14 15  1  0
 15 16  2  3
 16 17  1  0
 17 18  2  0
 17 19  1  0
 19 20  2  0
 19 25  1  0
 20 21  1  0
 21 22  2  0
 22 23  1  0
 23 24  1  0
 23 25  2  0
M  END
