
     RDKit          3D

 24 27  0  0  0  0  0  0  0  0999 V2000
    4.2460    1.8570    0.0780 C   0  0  0  0  0  0  0  0  0  0  0  0
    3.6680    0.6340   -0.5750 C   0  0  0  0  0  0  0  0  0  0  0  0
    4.0520    0.2740   -1.8470 C   0  0  0  0  0  0  0  0  0  0  0  0
    3.5040   -0.8510   -2.4080 C   0  0  0  0  0  0  0  0  0  0  0  0
    2.5890   -1.5900   -1.6920 C   0  0  0  0  0  0  0  0  0  0  0  0
    2.2160   -1.2180   -0.4240 C   0  0  0  0  0  0  0  0  0  0  0  0
    1.2260   -2.0380    0.3040 C   0  0  1  0  0  0  0  0  0  0  0  0
    1.7560   -2.1960    1.6060 O   0  0  0  0  0  0  0  0  0  0  0  0
   -0.1010   -1.3780    0.3770 C   0  0  0  0  0  0  0  0  0  0  0  0
   -1.0470   -1.7650    1.3030 C   0  0  0  0  0  0  0  0  0  0  0  0
   -2.2790   -1.1500    1.3560 C   0  0  0  0  0  0  0  0  0  0  0  0
   -2.6340   -0.1240    0.4950 C   0  0  0  0  0  0  0  0  0  0  0  0
   -1.6860    0.2620   -0.4310 C   0  0  0  0  0  0  0  0  0  0  0  0
   -0.4510   -0.3550   -0.4820 C   0  0  0  0  0  0  0  0  0  0  0  0
   -2.3260    1.3400   -1.1900 C   0  0  0  0  0  0  0  0  0  0  0  0
   -1.7790    1.9560   -2.1310 O   0  0  0  0  0  0  0  0  0  0  0  0
   -3.6680    1.5510   -0.6630 C   0  0  0  0  0  0  0  0  0  0  0  0
   -3.8570    0.6790    0.3430 C   0  0  0  0  0  0  0  0  0  0  0  0
   -5.1910    0.8660    0.8880 C   0  0  0  0  0  0  0  0  0  0  0  0
   -5.6850    0.3390    1.9020 O   0  0  0  0  0  0  0  0  0  0  0  0
   -5.8730    1.8190   -0.0010 C   0  0  0  0  0  0  0  0  0  0  0  0
   -4.8320    2.3300   -0.8230 O   0  0  0  0  0  0  0  0  0  0  0  0
    2.7530   -0.0920    0.1580 C   0  0  0  0  0  0  0  0  0  0  0  0
    2.3600    0.2600    1.4380 O   0  0  0  0  0  0  0  0  0  0  0  0
  1  2  1  0
  2  3  2  0
  2 23  1  0
  3  4  1  0
  4  5  2  0
  5  6  1  0
  6  7  1  0
  6 23  2  0
  7  8  1  1
  7  9  1  0
  9 10  2  0
  9 14  1  0
 10 11  1  0
 11 12  2  0
 12 13  1  0
 12 18  1  0
 13 14  2  0
 13 15  1  0
 15 16  2  0
 15 17  1  0
 17 18  2  0
 17 22  1  0
 18 19  1  0
 19 20  2  0
 19 21  1  0
 21 22  1  0
 23 24  1  0
M  END
