
     RDKit          3D

 25 28  0  0  0  0  0  0  0  0999 V2000
    4.5070   -0.5160    2.4090 C   0  0  0  0  0  0  0  0  0  0  0  0
    5.1780    0.2740    1.4510 O   0  0  0  0  0  0  0  0  0  0  0  0
    4.5270    0.6770    0.3130 C   0  0  0  0  0  0  0  0  0  0  0  0
    3.2120    0.2980    0.1220 C   0  0  0  0  0  0  0  0  0  0  0  0
    2.5040    0.6660   -0.9930 C   0  0  0  0  0  0  0  0  0  0  0  0
    1.1300    0.2480   -1.1540 C   0  0  0  0  0  0  0  0  0  0  0  0
    0.4660    0.5820   -2.1800 O   0  0  0  0  0  0  0  0  0  0  0  0
    0.5250   -0.5280   -0.1790 O   0  0  0  0  0  0  0  0  0  0  0  0
   -0.7880   -0.9210   -0.3440 C   0  0  0  0  0  0  0  0  0  0  0  0
   -1.0730   -2.0870   -0.9750 C   0  0  0  0  0  0  0  0  0  0  0  0
   -2.3960   -2.4980   -1.1500 C   0  0  0  0  0  0  0  0  0  0  0  0
   -2.6500   -3.7730   -1.8420 C   0  0  0  0  0  0  0  0  0  0  0  0
   -3.4360   -1.7250   -0.6840 C   0  0  0  0  0  0  0  0  0  0  0  0
   -3.1520   -0.5450   -0.0440 C   0  0  0  0  0  0  0  0  0  0  0  0
   -3.8910    0.4700    0.5440 C   0  0  0  0  0  0  0  0  0  0  0  0
   -3.0250    1.4230    1.0350 C   0  0  0  0  0  0  0  0  0  0  0  0
   -1.8120    1.0110    0.7600 O   0  0  0  0  0  0  0  0  0  0  0  0
   -1.8210   -0.1390    0.1270 C   0  0  0  0  0  0  0  0  0  0  0  0
   -3.7000    2.4210    1.6110 C   0  0  0  0  0  0  0  0  0  0  0  0
   -5.1290    2.1200    1.5010 C   0  0  0  0  0  0  0  0  0  0  0  0
   -5.1360    0.8210    0.7860 C   0  0  0  0  0  0  0  0  0  0  0  0
    3.1140    1.4360   -1.9550 C   0  0  0  0  0  0  0  0  0  0  0  0
    4.4420    1.8240   -1.7720 C   0  0  0  0  0  0  0  0  0  0  0  0
    5.1360    1.4500   -0.6550 C   0  0  0  0  0  0  0  0  0  0  0  0
    6.4610    1.8220   -0.4440 O   0  0  0  0  0  0  0  0  0  0  0  0
  1  2  1  0
  2  3  1  0
  3  4  2  0
  3 24  1  0
  4  5  1  0
  5  6  1  0
  5 22  2  0
  6  7  2  0
  6  8  1  0
  8  9  1  0
  9 10  2  0
  9 18  1  0
 10 11  1  0
 11 12  1  0
 11 13  2  0
 13 14  1  0
 14 15  1  0
 14 18  2  0
 15 16  1  0
 15 21  2  0
 16 17  1  0
 16 19  2  0
 17 18  1  0
 19 20  1  0
 20 21  1  0
 22 23  1  0
 23 24  2  0
 24 25  1  0
M  END
