
     RDKit          3D

 25 28  0  0  0  0  0  0  0  0999 V2000
   -6.8880    1.0910    2.2880 C   0  0  0  0  0  0  0  0  0  0  0  0
   -5.5150    1.2030    2.6650 O   0  0  0  0  0  0  0  0  0  0  0  0
   -4.5330    0.6520    1.8460 C   0  0  0  0  0  0  0  0  0  0  0  0
   -4.8360   -0.0100    0.6650 C   0  0  0  0  0  0  0  0  0  0  0  0
   -3.8400   -0.5470   -0.1300 C   0  0  0  0  0  0  0  0  0  0  0  0
   -2.5080   -0.4500    0.2110 C   0  0  0  0  0  0  0  0  0  0  0  0
   -2.1980    0.2060    1.3830 C   0  0  0  0  0  0  0  0  0  0  0  0
   -3.2030    0.7530    2.1930 C   0  0  0  0  0  0  0  0  0  0  0  0
   -0.9470    0.4400    1.9480 O   0  0  0  0  0  0  0  0  0  0  0  0
    0.3230    0.3230    1.3710 C   0  0  0  0  0  0  0  0  0  0  0  0
    1.3020    0.7600    1.9840 O   0  0  0  0  0  0  0  0  0  0  0  0
    0.6130   -0.2800    0.0830 C   0  0  0  0  0  0  0  0  0  0  0  0
    1.8710   -0.1280   -0.2850 C   0  0  0  0  0  0  0  0  0  0  0  0
    2.7690    0.5640    0.5470 O   0  0  0  0  0  0  0  0  0  0  0  0
    2.3970   -0.6490   -1.5350 C   0  0  0  0  0  0  0  0  0  0  0  0
    3.6730   -0.8610   -1.7940 C   0  0  0  0  0  0  0  0  0  0  0  0
    4.7750   -0.6150   -0.8830 C   0  0  0  0  0  0  0  0  0  0  0  0
    5.9830   -0.0210   -1.2870 C   0  0  0  0  0  0  0  0  0  0  0  0
    6.7880    0.0510   -0.1760 C   0  0  0  0  0  0  0  0  0  0  0  0
    6.0520   -0.4940    0.8520 C   0  0  0  0  0  0  0  0  0  0  0  0
    4.8820   -0.8740    0.4050 O   0  0  0  0  0  0  0  0  0  0  0  0
    1.3620   -0.9680   -2.6000 C   0  0  0  0  0  0  0  0  0  0  0  0
    0.2340   -1.7710   -1.9690 C   0  0  0  0  0  0  0  0  0  0  0  0
   -0.3030   -0.9860   -0.7970 C   0  0  0  0  0  0  0  0  0  0  0  0
   -1.6220   -1.0870   -0.7880 C   0  0  0  0  0  0  0  0  0  0  0  0
  1  2  1  0
  2  3  1  0
  3  4  2  0
  3  8  1  0
  4  5  1  0
  5  6  2  0
  6  7  1  0
  6 25  1  0
  7  8  2  0
  7  9  1  0
  9 10  1  0
 10 11  2  0
 10 12  1  0
 12 13  2  0
 12 24  1  0
 13 14  1  0
 13 15  1  0
 15 16  2  3
 15 22  1  0
 16 17  1  0
 17 18  2  0
 17 21  1  0
 18 19  1  0
 19 20  2  0
 20 21  1  0
 22 23  1  0
 23 24  1  0
 24 25  2  0
M  END
