
     RDKit          3D

 33 36  0  0  0  0  0  0  0  0999 V2000
    9.0900    2.7090   -1.1590 C   0  0  0  0  0  0  0  0  0  0  0  0
    7.9200    2.0270   -0.8820 C   0  0  0  0  0  0  0  0  0  0  0  0
    7.9430    1.2000    0.2680 C   0  0  0  0  0  0  0  0  0  0  0  0
    7.1130    0.4280    0.8660 C   0  0  0  0  0  0  0  0  0  0  0  0
    7.6130   -0.2730    2.1080 C   0  0  0  0  0  0  0  0  0  0  0  0
    6.7900   -1.0640    2.7530 C   0  0  0  0  0  0  0  0  0  0  0  0
    5.4370   -1.3170    2.3640 C   0  0  0  0  0  0  0  0  0  0  0  0
    4.9190   -0.7560    1.3060 C   0  0  0  0  0  0  0  0  0  0  0  0
    5.7540    0.1590    0.4960 C   0  0  0  0  0  0  0  0  0  0  0  0
    5.1870    0.6690   -0.5250 N   0  0  0  0  0  0  0  0  0  0  0  0
    3.8030    0.3480   -0.8330 C   0  0  0  0  0  0  0  0  0  0  0  0
    2.8220    0.9130   -0.1560 C   0  0  0  0  0  0  0  0  0  0  0  0
    1.4430    0.5730   -0.4860 C   0  0  0  0  0  0  0  0  0  0  0  0
    0.5000    0.5640    0.3850 N   0  0  0  0  0  0  0  0  0  0  0  0
   -0.8390    0.2640    0.2130 C   0  0  0  0  0  0  0  0  0  0  0  0
   -1.5730   -0.3270    1.1500 N   0  0  0  0  0  0  0  0  0  0  0  0
   -2.8940   -0.6310    1.0030 C   0  0  0  0  0  0  0  0  0  0  0  0
   -3.5320   -0.3290   -0.1550 C   0  0  0  0  0  0  0  0  0  0  0  0
   -4.9080   -0.5870   -0.4450 N   0  0  0  0  0  0  0  0  0  0  0  0
   -5.8050   -1.2160    0.4410 C   0  0  0  0  0  0  0  0  0  0  0  0
   -5.4790   -1.6140    1.5800 O   0  0  0  0  0  0  0  0  0  0  0  0
   -7.2300   -1.4020   -0.0480 C   0  0  2  0  0  0  0  0  0  0  0  0
   -7.7510    0.0010   -0.2960 C   0  0  0  0  0  0  0  0  0  0  0  0
   -8.0790    0.4230    1.1320 C   0  0  0  0  0  0  0  0  0  0  0  0
   -8.7550   -0.7500    1.6460 N   0  0  0  0  0  0  0  0  0  0  0  0
   -8.6210   -0.7800    3.4210 S   0  0  0  0  0  0  0  0  0  0  0  0
   -8.0350   -1.8880    1.1190 C   0  0  0  0  0  0  0  0  0  0  0  0
   -2.7630    0.2900   -1.1370 C   0  0  0  0  0  0  0  0  0  0  0  0
   -3.4010    0.6420   -2.4180 C   0  0  0  0  0  0  0  0  0  0  0  0
   -1.4820    0.5620   -0.9390 N   0  0  0  0  0  0  0  0  0  0  0  0
    1.1590    0.2250   -1.8970 C   0  0  0  0  0  0  0  0  0  0  0  0
    2.3560   -0.0050   -2.6640 N   0  0  0  0  0  0  0  0  0  0  0  0
    3.4240   -0.6070   -1.8960 C   0  0  0  0  0  0  0  0  0  0  0  0
  1  2  2  0
  2  3  1  0
  3  4  2  3
  4  5  1  0
  4  9  1  0
  5  6  2  0
  6  7  1  0
  7  8  2  0
  8  9  1  0
  9 10  2  3
 10 11  1  0
 11 12  2  0
 11 33  1  0
 12 13  1  0
 13 14  2  3
 13 31  1  0
 14 15  1  0
 15 16  2  0
 15 30  1  0
 16 17  1  0
 17 18  2  0
 18 19  1  0
 18 28  1  0
 19 20  1  0
 20 21  2  0
 22 20  1  1
 22 23  1  0
 22 27  1  0
 23 24  1  0
 24 25  1  0
 25 26  1  0
 25 27  1  0
 28 29  1  0
 28 30  2  0
 31 32  1  0
 32 33  1  0
M  CHG  1  10   1
M  END
