
     RDKit          3D

 33 37  0  0  0  0  0  0  0  0999 V2000
    6.2630   -1.1570    2.1630 C   0  0  0  0  0  0  0  0  0  0  0  0
    6.7580   -0.2070    1.3930 C   0  0  0  0  0  0  0  0  0  0  0  0
    7.8640    0.5360    1.8870 N   0  0  0  0  0  0  0  0  0  0  0  0
    8.8230    1.3660    0.6470 S   0  0  0  0  0  0  0  0  0  0  0  0
    9.3630    2.6350    1.2660 O   0  0  0  0  0  0  0  0  0  0  0  0
    7.6190    1.8520   -0.5590 N   0  0  0  0  0  0  0  0  0  0  0  0
    6.5430    0.9450   -0.7570 C   0  0  0  0  0  0  0  0  0  0  0  0
    6.1400    0.0330    0.0780 C   0  0  0  0  0  0  0  0  0  0  0  0
    4.9620   -0.8380   -0.2380 C   0  0  0  0  0  0  0  0  0  0  0  0
    4.3450   -0.4180   -1.4890 N   0  0  0  0  0  0  0  0  0  0  0  0
    3.5290   -1.4880   -1.9640 C   0  0  0  0  0  0  0  0  0  0  0  0
    2.3960   -1.7270   -0.9960 C   0  0  0  0  0  0  0  0  0  0  0  0
    1.6090   -0.5050   -1.0730 N   0  0  0  0  0  0  0  0  0  0  0  0
    0.2390   -0.2750   -1.3140 C   0  0  0  0  0  0  0  0  0  0  0  0
   -0.8340   -1.1990   -1.2090 N   0  0  0  0  0  0  0  0  0  0  0  0
   -2.1000   -0.8690   -0.6920 C   0  0  0  0  0  0  0  0  0  0  0  0
   -3.1500   -1.7360   -0.9180 C   0  0  0  0  0  0  0  0  0  0  0  0
   -4.4240   -1.5170   -0.4400 C   0  0  0  0  0  0  0  0  0  0  0  0
   -4.6980   -0.3870    0.3030 C   0  0  0  0  0  0  0  0  0  0  0  0
   -6.0080   -0.1410    0.8040 N   0  0  0  0  0  0  0  0  0  0  0  0
   -6.7580    0.9690    0.6330 C   0  0  0  0  0  0  0  0  0  0  0  0
   -6.3000    2.1670   -0.1410 C   0  0  0  0  0  0  0  0  0  0  0  0
   -7.9700    0.8350    1.2610 C   0  0  0  0  0  0  0  0  0  0  0  0
   -7.9850   -0.4130    1.8540 C   0  0  0  0  0  0  0  0  0  0  0  0
   -8.9660   -0.9330    2.5540 C   0  0  0  0  0  0  0  0  0  0  0  0
   -6.7570   -0.9850    1.5500 C   0  0  0  0  0  0  0  0  0  0  0  0
   -6.3810   -2.1890    1.9450 C   0  0  0  0  0  0  0  0  0  0  0  0
   -3.6540    0.4820    0.5310 C   0  0  0  0  0  0  0  0  0  0  0  0
   -2.3590    0.2590    0.0460 C   0  0  0  0  0  0  0  0  0  0  0  0
    0.0570    0.9610   -1.6820 N   0  0  0  0  0  0  0  0  0  0  0  0
    1.3200    1.6680   -1.7170 C   0  0  0  0  0  0  0  0  0  0  0  0
    2.2290    0.7800   -0.9060 C   0  0  2  0  0  0  0  0  0  0  0  0
    3.6460    0.8410   -1.3140 C   0  0  0  0  0  0  0  0  0  0  0  0
  1  2  2  0
  2  3  1  0
  2  8  1  0
  4  3  1  1
  4  5  2  0
  4  6  1  0
  6  7  1  0
  7  8  2  0
  8  9  1  0
  9 10  1  0
 10 11  1  0
 10 33  1  0
 11 12  1  0
 12 13  1  0
 13 14  1  0
 13 32  1  0
 14 15  1  0
 14 30  2  0
 15 16  1  0
 16 17  2  0
 16 29  1  0
 17 18  1  0
 18 19  2  0
 19 20  1  0
 19 28  1  0
 20 21  1  0
 20 26  1  0
 21 22  1  0
 21 23  2  0
 23 24  1  0
 24 25  2  0
 24 26  1  0
 26 27  2  0
 28 29  2  0
 30 31  1  0
 32 31  1  6
 32 33  1  0
M  CHG  1  30   1
M  END
