
     RDKit          3D

 33 37  0  0  0  0  0  0  0  0999 V2000
    3.1520   -4.6070    0.5060 C   0  0  0  0  0  0  0  0  0  0  0  0
    2.2710   -3.4230    0.7720 C   0  0  0  0  0  0  0  0  0  0  0  0
    0.9590   -3.3990    0.3790 C   0  0  0  0  0  0  0  0  0  0  0  0
    0.0990   -2.3190    0.6040 C   0  0  0  0  0  0  0  0  0  0  0  0
    0.6150   -1.2350    1.2560 C   0  0  0  0  0  0  0  0  0  0  0  0
    1.9490   -1.2120    1.6770 C   0  0  0  0  0  0  0  0  0  0  0  0
    2.5090   -0.1030    2.3530 N   0  0  0  0  0  0  0  0  0  0  0  0
    3.9060   -0.0810    2.7670 C   0  0  0  0  0  0  0  0  0  0  0  0
    4.8520   -0.1150    1.6320 C   0  0  0  0  0  0  0  0  0  0  0  0
    6.0850   -0.6900    1.7200 N   0  0  0  0  0  0  0  0  0  0  0  0
    6.6720   -0.5410    0.5230 N   0  0  0  0  0  0  0  0  0  0  0  0
    5.8700    0.0960   -0.3070 C   0  0  0  0  0  0  0  0  0  0  0  0
    4.7390    0.3640    0.3700 N   0  0  0  0  0  0  0  0  0  0  0  0
    3.6560    1.0440   -0.2200 N   0  0  0  0  0  0  0  0  0  0  0  0
    3.6290    1.5060   -1.5410 C   0  0  0  0  0  0  0  0  0  0  0  0
    2.5050    1.5260   -2.1360 O   0  0  0  0  0  0  0  0  0  0  0  0
    4.8690    1.9650   -2.2470 C   0  0  0  0  0  0  0  0  0  0  0  0
    6.0680    0.5920   -2.0050 S   0  0  0  0  0  0  0  0  0  0  0  0
    2.7680   -2.3210    1.4260 C   0  0  0  0  0  0  0  0  0  0  0  0
   -0.0330    0.0170    1.6300 C   0  0  0  0  0  0  0  0  0  0  0  0
   -1.4960    0.1260    1.3820 C   0  0  0  0  0  0  0  0  0  0  0  0
   -1.8000   -0.3990   -0.0030 C   0  0  2  0  0  0  0  0  0  0  0  0
   -2.7520    0.4940   -0.6450 C   0  0  0  0  0  0  0  0  0  0  0  0
   -3.5270    0.1700   -1.7390 C   0  0  0  0  0  0  0  0  0  0  0  0
   -4.4080    1.0810   -2.2930 C   0  0  0  0  0  0  0  0  0  0  0  0
   -5.2460    0.7440   -3.4710 C   0  0  0  0  0  0  0  0  0  0  0  0
   -4.5430    2.3530   -1.7640 C   0  0  0  0  0  0  0  0  0  0  0  0
   -5.4920    3.3260   -2.3650 C   0  0  0  0  0  0  0  0  0  0  0  0
   -3.7500    2.6460   -0.6660 C   0  0  0  0  0  0  0  0  0  0  0  0
   -3.8680    3.9870   -0.0790 C   0  0  0  0  0  0  0  0  0  0  0  0
   -2.9050    1.7350   -0.1550 N   0  0  0  0  0  0  0  0  0  0  0  0
   -2.2710   -1.7430    0.2050 N   0  0  0  0  0  0  0  0  0  0  0  0
   -1.1910   -2.6450    0.0550 C   0  0  0  0  0  0  0  0  0  0  0  0
  1  2  1  0
  2  3  2  0
  2 19  1  0
  3  4  1  0
  4  5  2  0
  4 33  1  0
  5  6  1  0
  5 20  1  0
  6  7  1  0
  6 19  2  0
  7  8  1  0
  8  9  1  0
  9 10  2  0
  9 13  1  0
 10 11  1  0
 11 12  2  0
 12 13  1  0
 12 18  1  0
 13 14  1  0
 14 15  1  0
 15 16  2  0
 15 17  1  0
 17 18  1  0
 20 21  1  0
 21 22  1  0
 22 23  1  1
 22 32  1  0
 23 24  2  0
 23 31  1  0
 24 25  1  0
 25 26  1  0
 25 27  2  0
 27 28  1  0
 27 29  1  0
 29 30  1  0
 29 31  2  0
 32 33  1  0
M  CHG  1  32   1
M  END
