
     RDKit          3D

 33 37  0  0  0  0  0  0  0  0999 V2000
   -3.8810   -3.5880   -1.4720 O   0  0  0  0  0  0  0  0  0  0  0  0
   -3.3630   -2.4530   -1.5000 C   0  0  0  0  0  0  0  0  0  0  0  0
   -2.7590   -1.9720   -2.7640 C   0  0  0  0  0  0  0  0  0  0  0  0
   -1.4280   -2.5190   -2.9100 N   0  0  0  0  0  0  0  0  0  0  0  0
   -1.1140   -3.7870   -3.0680 N   0  0  0  0  0  0  0  0  0  0  0  0
    0.1910   -3.9070   -3.1830 C   0  0  0  0  0  0  0  0  0  0  0  0
    0.7300   -2.6200   -3.0890 C   0  0  0  0  0  0  0  0  0  0  0  0
   -0.3000   -1.7300   -2.9150 C   0  0  0  0  0  0  0  0  0  0  0  0
   -0.4680   -0.3890   -2.7700 N   0  0  0  0  0  0  0  0  0  0  0  0
   -0.3200    0.5260   -1.9140 C   0  0  0  0  0  0  0  0  0  0  0  0
    0.1820    0.4050   -0.5220 C   0  0  0  0  0  0  0  0  0  0  0  0
    1.2310    1.1690   -0.1510 C   0  0  0  0  0  0  0  0  0  0  0  0
    1.8550    1.1750    1.1770 C   0  0  0  0  0  0  0  0  0  0  0  0
    3.2730    0.7910    1.0340 C   0  0  0  0  0  0  0  0  0  0  0  0
    3.7370   -0.5240    1.0890 C   0  0  0  0  0  0  0  0  0  0  0  0
    5.0830   -0.4890    0.9210 C   0  0  0  0  0  0  0  0  0  0  0  0
    5.4650    0.7910    0.7650 N   0  0  0  0  0  0  0  0  0  0  0  0
    4.3730    1.5310    0.8360 N   0  0  0  0  0  0  0  0  0  0  0  0
    6.8800    1.0200    0.5790 C   0  0  0  0  0  0  0  0  0  0  0  0
    7.4790    0.3010   -0.5830 C   0  0  0  0  0  0  0  0  0  0  0  0
    7.5320   -1.2020   -0.4160 C   0  0  0  0  0  0  0  0  0  0  0  0
    6.3440   -1.7350    0.8560 S   0  0  0  0  0  0  0  0  0  0  0  0
   -0.3740   -0.4850    0.4800 C   0  0  0  0  0  0  0  0  0  0  0  0
   -1.5400   -0.5380    1.0380 C   0  0  0  0  0  0  0  0  0  0  0  0
   -2.7470    0.2910    0.8700 C   0  0  2  0  0  0  0  0  0  0  0  0
   -2.4740    1.7610    0.6620 C   0  0  0  0  0  0  0  0  0  0  0  0
   -2.6820    2.4760    1.9860 C   0  0  0  0  0  0  0  0  0  0  0  0
   -4.0850    3.0140    2.0990 C   0  0  0  0  0  0  0  0  0  0  0  0
   -5.1210    2.0460    1.6050 C   0  0  0  0  0  0  0  0  0  0  0  0
   -4.8900    0.6300    1.9920 C   0  0  0  0  0  0  0  0  0  0  0  0
   -3.5750    0.1580    2.0450 N   0  0  0  0  0  0  0  0  0  0  0  0
   -3.5140   -0.2380   -0.3170 C   0  0  0  0  0  0  0  0  0  0  0  0
   -3.3800   -1.6760   -0.3120 N   0  0  0  0  0  0  0  0  0  0  0  0
  1  2  2  0
  2  3  1  0
  2 33  1  0
  3  4  1  0
  4  5  1  0
  4  8  1  0
  5  6  2  0
  6  7  1  0
  7  8  2  0
  8  9  1  0
  9 10  2  0
 10 11  1  0
 11 12  2  3
 11 23  1  0
 12 13  1  0
 13 14  1  0
 14 15  1  0
 14 18  2  0
 15 16  2  0
 16 17  1  0
 16 22  1  0
 17 18  1  0
 17 19  1  0
 19 20  1  0
 20 21  1  0
 21 22  1  0
 23 24  2  0
 24 25  1  0
 25 26  1  6
 25 31  1  0
 25 32  1  0
 26 27  1  0
 27 28  1  0
 28 29  1  0
 29 30  1  0
 30 31  1  0
 32 33  1  0
M  END
