
     RDKit          3D

 33 37  0  0  0  0  0  0  0  0999 V2000
   -0.5090   -4.7240    2.0410 C   0  0  0  0  0  0  0  0  0  0  0  0
   -0.9140   -3.3520    1.5790 C   0  0  0  0  0  0  0  0  0  0  0  0
   -2.0770   -3.0150    1.8650 O   0  0  0  0  0  0  0  0  0  0  0  0
    0.0030   -2.5680    0.8840 N   0  0  0  0  0  0  0  0  0  0  0  0
    1.3780   -3.0520    0.7160 C   0  0  0  0  0  0  0  0  0  0  0  0
    2.3230   -1.9780    1.2370 C   0  0  0  0  0  0  0  0  0  0  0  0
    2.2110   -0.6930    0.4320 C   0  0  1  0  0  0  0  0  0  0  0  0
    2.9150   -0.7730   -0.7990 N   0  0  0  0  0  0  0  0  0  0  0  0
    3.8150    0.2800   -1.1310 C   0  0  2  0  0  0  0  0  0  0  0  0
    4.9190   -0.2070   -2.0820 C   0  0  0  0  0  0  0  0  0  0  0  0
    4.3870    1.0220    0.0020 C   0  0  0  0  0  0  0  0  0  0  0  0
    4.9480    0.3690    1.0890 C   0  0  0  0  0  0  0  0  0  0  0  0
    5.4830    1.0580    2.1580 C   0  0  0  0  0  0  0  0  0  0  0  0
    5.4770    2.3990    2.1780 N   0  0  0  0  0  0  0  0  0  0  0  0
    4.9340    3.0320    1.1230 C   0  0  0  0  0  0  0  0  0  0  0  0
    4.9460    4.6740    1.1840 S   0  0  0  0  0  0  0  0  0  0  0  0
    4.4120    2.3660    0.0800 N   0  0  0  0  0  0  0  0  0  0  0  0
    0.7710   -0.4270    0.1200 C   0  0  0  0  0  0  0  0  0  0  0  0
    0.4660    0.8030   -0.4230 C   0  0  0  0  0  0  0  0  0  0  0  0
   -0.8510    1.1380   -0.7550 C   0  0  0  0  0  0  0  0  0  0  0  0
   -1.8850    0.2580   -0.5520 C   0  0  0  0  0  0  0  0  0  0  0  0
   -3.2150    0.6250   -0.8950 N   0  0  0  0  0  0  0  0  0  0  0  0
   -3.8740    0.3300   -1.9910 N   0  0  0  0  0  0  0  0  0  0  0  0
   -5.1140    0.8520   -1.9720 C   0  0  0  0  0  0  0  0  0  0  0  0
   -6.1750    0.7530   -3.0070 C   0  0  0  0  0  0  0  0  0  0  0  0
   -5.1960    1.5190   -0.7460 C   0  0  0  0  0  0  0  0  0  0  0  0
   -4.0040    1.3740   -0.0770 C   0  0  0  0  0  0  0  0  0  0  0  0
   -4.0300    2.0480    1.2100 C   0  0  0  0  0  0  0  0  0  0  0  0
   -3.1370    2.1270    2.1350 N   0  0  0  0  0  0  0  0  0  0  0  0
   -5.3660    2.6890    1.3030 C   0  0  0  0  0  0  0  0  0  0  0  0
   -6.1200    2.3230    0.0690 C   0  0  0  0  0  0  0  0  0  0  0  0
   -1.5560   -0.9800   -0.0020 C   0  0  0  0  0  0  0  0  0  0  0  0
   -0.2520   -1.2910    0.3180 C   0  0  0  0  0  0  0  0  0  0  0  0
  1  2  1  0
  2  3  2  0
  2  4  1  0
  4  5  1  0
  4 33  1  0
  5  6  1  0
  6  7  1  0
  7  8  1  6
  7 18  1  0
  8  9  1  0
  9 10  1  1
  9 11  1  0
 11 12  2  0
 11 17  1  0
 12 13  1  0
 13 14  2  0
 14 15  1  0
 15 16  2  0
 15 17  1  0
 18 19  2  0
 18 33  1  0
 19 20  1  0
 20 21  2  0
 21 22  1  0
 21 32  1  0
 22 23  1  0
 22 27  1  0
 23 24  2  0
 24 25  1  0
 24 26  1  0
 26 27  2  0
 26 31  1  0
 27 28  1  0
 28 29  2  0
 28 30  1  0
 30 31  1  0
 32 33  2  0
M  CHG  1   8   1
M  END
