
     RDKit          3D

 12 12  0  0  0  0  0  0  0  0999 V2000
   -3.9820    0.4730    1.5740 C   0  0  0  0  0  0  0  0  0  0  0  0
   -3.3960   -0.3010    0.6740 C   0  0  0  0  0  0  0  0  0  0  0  0
   -2.5790    0.2750   -0.4160 C   0  0  0  0  0  0  0  0  0  0  0  0
   -1.1360   -0.2400   -0.3540 C   0  0  2  0  0  0  0  0  0  0  0  0
   -1.1690   -1.6120   -0.4800 O   0  0  0  0  0  0  0  0  0  0  0  0
   -0.4920    0.2000    0.9200 C   0  0  0  0  0  0  0  0  0  0  0  0
    0.9330    0.6620    0.7030 C   0  0  0  0  0  0  0  0  0  0  0  0
    1.6330   -0.2600   -0.2770 C   0  0  2  0  0  0  0  0  0  0  0  0
    3.0900    0.0590   -0.3730 C   0  0  0  0  0  0  0  0  0  0  0  0
    3.8060   -0.0640    0.8610 N   0  0  0  0  0  0  0  0  0  0  0  0
    1.0140   -0.0650   -1.6340 C   0  0  0  0  0  0  0  0  0  0  0  0
   -0.4400    0.3190   -1.5740 C   0  0  0  0  0  0  0  0  0  0  0  0
  1  2  2  0
  2  3  1  0
  3  4  1  0
  4  5  1  6
  4  6  1  0
  4 12  1  0
  6  7  1  0
  7  8  1  0
  8  9  1  6
  8 11  1  0
  9 10  1  0
 11 12  1  0
M  CHG  1  10   1
M  END
