
     RDKit          3D

 15 16  0  0  0  0  0  0  0  0999 V2000
   -2.9640    1.0600    0.0910 C   0  0  0  0  0  0  0  0  0  0  0  0
   -2.7460   -0.2070    0.7220 N   0  0  0  0  0  0  0  0  0  0  0  0
   -1.8710   -1.0790    0.0050 C   0  0  0  0  0  0  0  0  0  0  0  0
   -0.5850   -0.4270   -0.4240 C   0  0  1  0  0  0  0  0  0  0  0  0
    0.2280    0.0870    0.7250 C   0  0  0  0  0  0  0  0  0  0  0  0
    1.6480   -0.0720    0.2110 C   0  0  2  0  0  0  0  0  0  0  0  0
    1.5930   -1.3950   -0.3790 N   0  0  0  0  0  0  0  0  0  0  0  0
    0.3080   -1.4770   -0.9970 C   0  0  0  0  0  0  0  0  0  0  0  0
   -0.0200   -2.3090   -1.8890 O   0  0  0  0  0  0  0  0  0  0  0  0
    2.6010    0.0540    1.2150 O   0  0  0  0  0  0  0  0  0  0  0  0
    3.7240    0.6590    0.6700 C   0  0  0  0  0  0  0  0  0  0  0  0
    4.8960    0.7240    1.1690 O   0  0  0  0  0  0  0  0  0  0  0  0
    3.3830    1.2290   -0.5870 N   0  0  0  0  0  0  0  0  0  0  0  0
    2.0050    0.9440   -0.7810 C   0  0  0  0  0  0  0  0  0  0  0  0
    1.2960    1.4970   -1.6550 O   0  0  0  0  0  0  0  0  0  0  0  0
  1  2  1  0
  2  3  1  0
  4  3  1  1
  4  5  1  0
  4  8  1  0
  6  5  1  1
  6  7  1  0
  6 10  1  0
  6 14  1  0
  7  8  1  0
  8  9  2  0
 10 11  1  0
 11 12  2  0
 11 13  1  0
 13 14  1  0
 14 15  2  0
M  CHG  1   2   1
M  END
