
     RDKit          3D

 15 16  0  0  0  0  0  0  0  0999 V2000
    2.6670   -1.2870    0.9340 C   0  0  0  0  0  0  0  0  0  0  0  0
    1.8200   -0.3020    0.3010 N   0  0  0  0  0  0  0  0  0  0  0  0
    1.6580    1.0330    0.6760 N   0  0  0  0  0  0  0  0  0  0  0  0
    0.5880    1.5270    0.1620 C   0  0  0  0  0  0  0  0  0  0  0  0
    0.1600    2.8950    0.3750 C   0  0  0  0  0  0  0  0  0  0  0  0
   -0.8980    3.3760   -0.1370 O   0  0  0  0  0  0  0  0  0  0  0  0
    0.8910    3.7630    1.1600 O   0  0  0  0  0  0  0  0  0  0  0  0
   -0.1310    0.5500   -0.6500 C   0  0  2  0  0  0  0  0  0  0  0  0
   -1.1250   -0.3050    0.0880 C   0  0  1  0  0  0  0  0  0  0  0  0
   -2.4710    0.2060    0.2180 C   0  0  0  0  0  0  0  0  0  0  0  0
   -2.7310    1.1670    0.9800 O   0  0  0  0  0  0  0  0  0  0  0  0
   -3.5090   -0.3600   -0.5010 O   0  0  0  0  0  0  0  0  0  0  0  0
   -1.1200   -1.4580   -0.8350 N   0  0  0  0  0  0  0  0  0  0  0  0
    0.2670   -1.8490   -0.6800 C   0  0  0  0  0  0  0  0  0  0  0  0
    0.9690   -0.5170   -0.8520 C   0  0  2  0  0  0  0  0  0  0  0  0
  1  2  1  0
  2  3  1  0
  2 15  1  0
  3  4  2  0
  4  5  1  0
  8  4  1  1
  5  6  2  0
  5  7  1  0
  8  9  1  0
  8 15  1  0
  9 10  1  6
  9 13  1  0
 10 11  2  0
 10 12  1  0
 13 14  1  0
 15 14  1  1
M  CHG  1  13   1
M  END
