
     RDKit          3D

 31 34  0  0  0  0  0  0  0  0999 V2000
   -6.3530   -2.1710   -2.0210 C   0  0  0  0  0  0  0  0  0  0  0  0
   -6.1650   -1.2550   -2.9490 C   0  0  0  0  0  0  0  0  0  0  0  0
   -4.9810   -0.4760   -3.2610 C   0  0  0  0  0  0  0  0  0  0  0  0
   -3.8310   -0.5220   -2.3350 C   0  0  0  0  0  0  0  0  0  0  0  0
   -4.0540    0.0150   -0.9670 C   0  0  2  0  0  0  0  0  0  0  0  0
   -4.4590    1.4930   -1.0030 C   0  0  0  0  0  0  0  0  0  0  0  0
   -4.6440    2.0070    0.3780 C   0  0  0  0  0  0  0  0  0  0  0  0
   -4.0930    1.1680    1.4780 C   0  0  0  0  0  0  0  0  0  0  0  0
   -2.7960    0.5960    1.0380 C   0  0  0  0  0  0  0  0  0  0  0  0
   -2.7750    0.0080   -0.2060 C   0  0  0  0  0  0  0  0  0  0  0  0
   -1.6290   -0.5240   -0.6490 N   0  0  0  0  0  0  0  0  0  0  0  0
   -0.4990   -0.4810    0.1260 C   0  0  0  0  0  0  0  0  0  0  0  0
   -0.4850    0.0970    1.3690 C   0  0  0  0  0  0  0  0  0  0  0  0
    0.6260    0.1650    2.1790 O   0  0  0  0  0  0  0  0  0  0  0  0
    1.8860   -0.3260    1.7870 C   0  0  0  0  0  0  0  0  0  0  0  0
    2.4740    0.4130    0.6510 C   0  0  0  0  0  0  0  0  0  0  0  0
    1.9130    1.4410    0.0450 C   0  0  0  0  0  0  0  0  0  0  0  0
    2.7940    1.8930   -1.0210 C   0  0  0  0  0  0  0  0  0  0  0  0
    2.5500    2.9180   -1.8490 C   0  0  0  0  0  0  0  0  0  0  0  0
    3.9570    1.0260   -1.0000 C   0  0  0  0  0  0  0  0  0  0  0  0
    5.0800    1.0230   -1.7890 C   0  0  0  0  0  0  0  0  0  0  0  0
    6.0530    0.0780   -1.5520 C   0  0  0  0  0  0  0  0  0  0  0  0
    5.9230   -0.8560   -0.5480 C   0  0  0  0  0  0  0  0  0  0  0  0
    4.7770   -0.8130    0.2180 C   0  0  0  0  0  0  0  0  0  0  0  0
    4.6370   -1.8220    1.2980 C   0  0  0  0  0  0  0  0  0  0  0  0
    5.8400   -2.7440    1.3700 C   0  0  0  0  0  0  0  0  0  0  0  0
    5.5970   -3.6810    2.4720 N   0  0  0  0  0  0  0  0  0  0  0  0
    3.7590    0.1110    0.0330 C   0  0  0  0  0  0  0  0  0  0  0  0
   -1.6800    0.6590    1.8460 C   0  0  0  0  0  0  0  0  0  0  0  0
   -1.7810    1.2610    3.0720 O   0  0  0  0  0  0  0  0  0  0  0  0
   -1.5600    2.6160    3.3400 C   0  0  0  0  0  0  0  0  0  0  0  0
  1  2  2  0
  2  3  1  0
  3  4  1  0
  5  4  1  6
  5  6  1  0
  5 10  1  0
  6  7  1  0
  7  8  1  0
  8  9  1  0
  9 10  2  0
  9 29  1  0
 10 11  1  0
 11 12  2  0
 12 13  1  0
 13 14  1  0
 13 29  2  0
 14 15  1  0
 15 16  1  0
 16 17  2  0
 16 28  1  0
 17 18  1  0
 18 19  2  0
 18 20  1  0
 20 21  2  0
 20 28  1  0
 21 22  1  0
 22 23  2  0
 23 24  1  0
 24 25  1  0
 24 28  2  0
 25 26  1  0
 26 27  1  0
 29 30  1  0
 30 31  1  0
M  CHG  1  27   1
M  END
