
     RDKit          3D

 31 34  0  0  0  0  0  0  0  0999 V2000
    7.6010   -1.5160    1.8120 C   0  0  0  0  0  0  0  0  0  0  0  0
    6.3350   -1.1860    1.9120 C   0  0  0  0  0  0  0  0  0  0  0  0
    5.5680   -1.0490    3.0550 O   0  0  0  0  0  0  0  0  0  0  0  0
    4.4180   -0.2750    2.7420 C   0  0  0  0  0  0  0  0  0  0  0  0
    4.0990   -0.8580    1.3510 C   0  0  1  0  0  0  0  0  0  0  0  0
    3.1190   -0.0970    0.7180 O   0  0  0  0  0  0  0  0  0  0  0  0
    1.8450   -0.5990    0.4490 C   0  0  0  0  0  0  0  0  0  0  0  0
    1.6150   -1.7830    0.8050 O   0  0  0  0  0  0  0  0  0  0  0  0
    0.8060    0.2250   -0.2280 C   0  0  1  0  0  0  0  0  0  0  0  0
   -0.4340   -0.6030   -0.3660 C   0  0  0  0  0  0  0  0  0  0  0  0
   -1.6640    0.2500   -0.5640 C   0  0  1  0  0  0  0  0  0  0  0  0
   -2.8850   -0.6030   -0.6190 C   0  0  2  0  0  0  0  0  0  0  0  0
   -3.1300   -1.4170    0.6130 C   0  0  0  0  0  0  0  0  0  0  0  0
   -4.5270   -2.0020    0.5060 C   0  0  0  0  0  0  0  0  0  0  0  0
   -4.6920   -2.8650   -0.7210 C   0  0  2  0  0  0  0  0  0  0  0  0
   -4.1210   -4.1180   -0.5240 O   0  0  0  0  0  0  0  0  0  0  0  0
   -4.1970   -2.1920   -1.9800 C   0  0  1  0  0  0  0  0  0  0  0  0
   -5.1660   -1.1710   -2.5000 C   0  0  0  0  0  0  0  0  0  0  0  0
   -2.8350   -1.5720   -1.7960 C   0  0  0  0  0  0  0  0  0  0  0  0
   -1.7510    1.1270    0.4890 O   0  0  0  0  0  0  0  0  0  0  0  0
   -0.7360    2.0840    0.4660 C   0  0  2  0  0  0  0  0  0  0  0  0
   -0.9530    2.9690    1.6970 C   0  0  0  0  0  0  0  0  0  0  0  0
   -1.6240    4.2260    1.2170 C   0  0  0  0  0  0  0  0  0  0  0  0
   -0.6910    4.9460    0.4690 O   0  0  0  0  0  0  0  0  0  0  0  0
   -0.3150    4.2800   -0.6840 C   0  0  0  0  0  0  0  0  0  0  0  0
   -0.9020    2.9020   -0.7860 C   0  0  0  0  0  0  0  0  0  0  0  0
    0.6160    1.4670    0.5990 C   0  0  0  0  0  0  0  0  0  0  0  0
    5.4270   -0.8760    0.7550 C   0  0  0  0  0  0  0  0  0  0  0  0
    5.8590   -0.6850   -0.4630 C   0  0  0  0  0  0  0  0  0  0  0  0
    5.0010   -0.3830   -1.6130 C   0  0  0  0  0  0  0  0  0  0  0  0
    5.3320    0.8460   -2.1760 F   0  0  0  0  0  0  0  0  0  0  0  0
  1  2  2  0
  2  3  1  0
  2 28  1  0
  3  4  1  0
  4  5  1  0
  5  6  1  6
  5 28  1  0
  6  7  1  0
  7  8  2  0
  9  7  1  1
  9 10  1  0
  9 27  1  0
 11 10  1  1
 11 12  1  0
 11 20  1  0
 12 13  1  1
 12 19  1  0
 13 14  1  0
 14 15  1  0
 15 16  1  1
 15 17  1  0
 17 18  1  1
 17 19  1  0
 20 21  1  0
 21 22  1  1
 21 26  1  0
 21 27  1  0
 22 23  1  0
 23 24  1  0
 24 25  1  0
 25 26  1  0
 28 29  2  3
 29 30  1  0
 30 31  1  0
M  END
