
     RDKit          3D

 30 33  0  0  0  0  0  0  0  0999 V2000
   -7.5140   -0.0150    0.0310 C   0  0  0  0  0  0  0  0  0  0  0  0
   -6.0170   -0.3660    0.1160 C   0  0  1  0  0  0  0  0  0  0  0  0
   -5.9540   -1.4890    1.1450 C   0  0  0  0  0  0  0  0  0  0  0  0
   -6.7430   -2.5460    0.6460 O   0  0  0  0  0  0  0  0  0  0  0  0
   -5.6150   -0.8280   -1.2440 C   0  0  0  0  0  0  0  0  0  0  0  0
   -4.2320   -0.4160   -1.6580 C   0  0  0  0  0  0  0  0  0  0  0  0
   -3.9600    0.9140   -1.3480 O   0  0  0  0  0  0  0  0  0  0  0  0
   -3.9480    1.0940    0.0210 C   0  0  2  0  0  0  0  0  0  0  0  0
   -3.6570    2.5830    0.2500 C   0  0  0  0  0  0  0  0  0  0  0  0
   -2.3200    2.9870   -0.2700 C   0  0  0  0  0  0  0  0  0  0  0  0
   -1.2400    2.1330    0.3720 C   0  0  0  0  0  0  0  0  0  0  0  0
   -1.5420    0.7070    0.0310 C   0  0  1  0  0  0  0  0  0  0  0  0
   -0.4520   -0.2290    0.4060 C   0  0  0  0  0  0  0  0  0  0  0  0
   -0.6860   -1.1540    1.2150 O   0  0  0  0  0  0  0  0  0  0  0  0
    0.8190   -0.0910   -0.1300 O   0  0  0  0  0  0  0  0  0  0  0  0
    1.8540   -0.9980    0.2400 C   0  0  2  0  0  0  0  0  0  0  0  0
    3.0320   -0.2720    0.8630 C   0  0  0  0  0  0  0  0  0  0  0  0
    4.0970   -0.1900   -0.1870 C   0  0  1  0  0  0  0  0  0  0  0  0
    5.4770   -0.3920    0.4000 C   0  0  2  0  0  0  0  0  0  0  0  0
    5.7470    0.6770    1.4360 C   0  0  0  0  0  0  0  0  0  0  0  0
    7.2230    0.7330    1.7120 C   0  0  0  0  0  0  0  0  0  0  0  0
    7.8350   -0.6250    1.3750 C   0  0  0  0  0  0  0  0  0  0  0  0
    7.8100   -0.8600   -0.1290 C   0  0  0  0  0  0  0  0  0  0  0  0
    6.4990   -0.3430   -0.7120 C   0  0  0  0  0  0  0  0  0  0  0  0
    3.8020   -1.2890   -1.1680 C   0  0  2  0  0  0  0  0  0  0  0  0
    3.9630   -0.7810   -2.4590 O   0  0  0  0  0  0  0  0  0  0  0  0
    2.3910   -1.7440   -0.9390 C   0  0  0  0  0  0  0  0  0  0  0  0
   -2.8500    0.3290    0.7020 C   0  0  0  0  0  0  0  0  0  0  0  0
   -5.3140    0.8600    0.5760 C   0  0  2  0  0  0  0  0  0  0  0  0
   -5.3240    0.9220    1.9770 O   0  0  0  0  0  0  0  0  0  0  0  0
  2  1  1  6
  2  3  1  0
  2  5  1  0
  2 29  1  0
  3  4  1  0
  5  6  1  0
  6  7  1  0
  7  8  1  0
  8  9  1  6
  8 28  1  0
  8 29  1  0
  9 10  1  0
 10 11  1  0
 11 12  1  0
 12 13  1  1
 12 28  1  0
 13 14  2  0
 13 15  1  0
 16 15  1  6
 16 17  1  0
 16 27  1  0
 18 17  1  1
 18 19  1  0
 18 25  1  0
 19 20  1  1
 19 24  1  0
 20 21  1  0
 21 22  1  0
 22 23  1  0
 23 24  1  0
 25 26  1  6
 25 27  1  0
 29 30  1  1
M  END
