
     RDKit          3D

 31 35  0  0  0  0  0  0  0  0999 V2000
   -3.5780    3.0060    1.3300 C   0  0  0  0  0  0  0  0  0  0  0  0
   -4.0300    1.5720    1.0470 C   0  0  2  0  0  0  0  0  0  0  0  0
   -2.8490    0.6780    1.3900 C   0  0  0  0  0  0  0  0  0  0  0  0
   -2.1670    0.3380    0.0630 C   0  0  1  0  0  0  0  0  0  0  0  0
   -0.9480   -0.4430    0.4100 C   0  0  0  0  0  0  0  0  0  0  0  0
   -0.7490   -1.6020    0.0160 O   0  0  0  0  0  0  0  0  0  0  0  0
   -0.0020    0.1680    1.2120 O   0  0  0  0  0  0  0  0  0  0  0  0
    1.1950   -0.4020    1.6380 C   0  0  0  0  0  0  0  0  0  0  0  0
    2.0590   -0.7670    0.4780 C   0  0  1  0  0  0  0  0  0  0  0  0
    2.3940    0.5220   -0.2670 C   0  0  0  0  0  0  0  0  0  0  0  0
    3.9020    0.4670   -0.1980 C   0  0  0  0  0  0  0  0  0  0  0  0
    4.8970    1.2960   -0.1660 C   0  0  0  0  0  0  0  0  0  0  0  0
    6.3360    0.9180   -0.0940 C   0  0  2  0  0  0  0  0  0  0  0  0
    6.9360    1.8280    0.7610 F   0  0  0  0  0  0  0  0  0  0  0  0
    6.9410    1.1130   -1.4460 C   0  0  0  0  0  0  0  0  0  0  0  0
    7.7930    0.0810   -1.8260 O   0  0  0  0  0  0  0  0  0  0  0  0
    8.6720   -0.1120   -0.7590 C   0  0  0  0  0  0  0  0  0  0  0  0
    7.8980   -1.0220    0.2050 C   0  0  0  0  0  0  0  0  0  0  0  0
    6.5270   -0.4500    0.4870 C   0  0  2  0  0  0  0  0  0  0  0  0
    5.5200   -1.4500   -0.0200 C   0  0  0  0  0  0  0  0  0  0  0  0
    4.1370   -0.9960   -0.1670 C   0  0  1  0  0  0  0  0  0  0  0  0
    3.2710   -1.3400    0.8720 O   0  0  0  0  0  0  0  0  0  0  0  0
   -3.1590   -0.5240   -0.7080 C   0  0  0  0  0  0  0  0  0  0  0  0
   -4.4590    0.2410   -0.7930 C   0  0  1  0  0  0  0  0  0  0  0  0
   -5.5880   -0.5280   -0.1020 C   0  0  2  0  0  0  0  0  0  0  0  0
   -5.7960   -1.8620   -0.7400 C   0  0  0  0  0  0  0  0  0  0  0  0
   -7.1300   -1.9830   -1.4380 C   0  0  0  0  0  0  0  0  0  0  0  0
   -7.3400   -0.7870   -2.1300 O   0  0  0  0  0  0  0  0  0  0  0  0
   -7.7410    0.1550   -1.2080 C   0  0  0  0  0  0  0  0  0  0  0  0
   -6.8050    0.3380   -0.0580 C   0  0  0  0  0  0  0  0  0  0  0  0
   -4.3770    1.5170   -0.2820 O   0  0  0  0  0  0  0  0  0  0  0  0
  2  1  1  6
  2  3  1  0
  2 31  1  0
  3  4  1  0
  4  5  1  1
  4 23  1  0
  5  6  2  0
  5  7  1  0
  7  8  1  0
  9  8  1  1
  9 10  1  0
  9 22  1  0
 10 11  1  0
 11 12  2  0
 11 21  1  0
 12 13  1  0
 13 14  1  1
 13 15  1  0
 13 19  1  0
 15 16  1  0
 16 17  1  0
 17 18  1  0
 19 18  1  6
 19 20  1  0
 21 20  1  1
 21 22  1  0
 24 23  1  1
 24 25  1  0
 24 31  1  0
 25 26  1  6
 25 30  1  0
 26 27  1  0
 27 28  1  0
 28 29  1  0
 29 30  1  0
M  END
