
     RDKit          3D

 11 11  0  0  0  0  0  0  0  0999 V2000
    2.9010    0.2810   -1.8040 O   0  0  0  0  0  0  0  0  0  0  0  0
    2.5700    0.7420   -0.5410 C   0  0  0  0  0  0  0  0  0  0  0  0
    1.7300   -0.2800    0.1940 C   0  0  2  0  0  0  0  0  0  0  0  0
    2.4990   -1.4420    0.2880 O   0  0  0  0  0  0  0  0  0  0  0  0
    0.5130   -0.4880   -0.4180 O   0  0  0  0  0  0  0  0  0  0  0  0
   -0.5560   -0.2080    0.4090 C   0  0  2  0  0  0  0  0  0  0  0  0
   -1.4820   -1.3820    0.5940 C   0  0  0  0  0  0  0  0  0  0  0  0
   -2.6360   -0.7740    1.0780 O   0  0  0  0  0  0  0  0  0  0  0  0
   -2.8220    0.3990    0.3890 C   0  0  0  0  0  0  0  0  0  0  0  0
   -1.4850    0.8430   -0.1480 C   0  0  2  0  0  0  0  0  0  0  0  0
   -1.4210    0.8540   -1.5220 O   0  0  0  0  0  0  0  0  0  0  0  0
  1  2  1  0
  2  3  1  0
  3  4  1  6
  3  5  1  0
  6  5  1  6
  6  7  1  0
  6 10  1  0
  7  8  1  0
  8  9  1  0
  9 10  1  0
 10 11  1  6
M  END
