
     RDKit          3D

 11 10  0  0  0  0  0  0  0  0999 V2000
   -2.3740    0.8790    1.2320 C   0  0  0  0  0  0  0  0  0  0  0  0
   -1.8860    0.3510   -0.1030 C   0  0  1  0  0  0  0  0  0  0  0  0
   -2.7690    0.8340   -1.0690 O   0  0  0  0  0  0  0  0  0  0  0  0
   -0.5740    0.6750   -0.3650 O   0  0  0  0  0  0  0  0  0  0  0  0
    0.2240   -0.4510   -0.5650 C   0  0  1  0  0  0  0  0  0  0  0  0
    0.2560   -1.3650    0.6390 C   0  0  0  0  0  0  0  0  0  0  0  0
   -0.3290   -1.1230   -1.6640 O   0  0  0  0  0  0  0  0  0  0  0  0
    1.6570   -0.0670   -0.8770 C   0  0  1  0  0  0  0  0  0  0  0  0
    1.6930    0.7050   -2.0340 O   0  0  0  0  0  0  0  0  0  0  0  0
    2.2750    0.7330    0.2470 C   0  0  0  0  0  0  0  0  0  0  0  0
    2.2800    0.0320    1.4510 O   0  0  0  0  0  0  0  0  0  0  0  0
  2  1  1  1
  2  3  1  0
  2  4  1  0
  4  5  1  0
  5  6  1  1
  5  7  1  0
  5  8  1  0
  8  9  1  6
  8 10  1  0
 10 11  1  0
M  END
