
     RDKit          3D

 11 11  0  0  0  0  0  0  0  0999 V2000
    3.2400    1.4090   -0.5220 O   0  0  0  0  0  0  0  0  0  0  0  0
    1.9400    0.9150   -0.7930 C   0  0  0  0  0  0  0  0  0  0  0  0
    1.7570   -0.2900    0.0720 C   0  0  2  0  0  0  0  0  0  0  0  0
    2.7770   -1.2020   -0.2940 O   0  0  0  0  0  0  0  0  0  0  0  0
    0.4230   -0.9850   -0.1150 C   0  0  1  0  0  0  0  0  0  0  0  0
    0.4600   -2.1200    0.7360 O   0  0  0  0  0  0  0  0  0  0  0  0
   -0.7400   -0.1480    0.3750 C   0  0  2  0  0  0  0  0  0  0  0  0
   -1.9120   -0.8980    0.2960 O   0  0  0  0  0  0  0  0  0  0  0  0
   -2.9500   -0.0200    0.0750 C   0  0  0  0  0  0  0  0  0  0  0  0
   -2.2870    1.1240   -0.6220 C   0  0  0  0  0  0  0  0  0  0  0  0
   -0.9370    0.9610   -0.4420 O   0  0  0  0  0  0  0  0  0  0  0  0
  1  2  1  0
  2  3  1  0
  3  4  1  6
  3  5  1  0
  5  6  1  1
  5  7  1  0
  7  8  1  6
  7 11  1  0
  8  9  1  0
  9 10  1  0
 10 11  1  0
M  END
