
     RDKit          3D

 11 11  0  0  0  0  0  0  0  0999 V2000
    3.1730   -0.4330    1.2080 O   0  0  0  0  0  0  0  0  0  0  0  0
    2.5210    0.1010    0.0890 C   0  0  2  0  0  0  0  0  0  0  0  0
    3.0100    1.4000   -0.1540 O   0  0  0  0  0  0  0  0  0  0  0  0
    1.1400    0.1450    0.2730 O   0  0  0  0  0  0  0  0  0  0  0  0
    0.4970   -0.5630   -0.7380 C   0  0  0  0  0  0  0  0  0  0  0  0
   -0.9890   -0.4780   -0.4810 C   0  0  2  0  0  0  0  0  0  0  0  0
   -1.6750   -1.1660   -1.4580 O   0  0  0  0  0  0  0  0  0  0  0  0
   -1.4540    0.9720   -0.5080 C   0  0  0  0  0  0  0  0  0  0  0  0
   -2.5840    0.9020    0.5290 C   0  0  0  0  0  0  0  0  0  0  0  0
   -1.9510    0.1720    1.5380 O   0  0  0  0  0  0  0  0  0  0  0  0
   -1.3760   -0.9100    0.8900 C   0  0  0  0  0  0  0  0  0  0  0  0
  2  1  1  1
  2  3  1  0
  2  4  1  0
  4  5  1  0
  5  6  1  0
  6  7  1  6
  6  8  1  0
  6 11  1  0
  8  9  1  0
  9 10  1  0
 10 11  1  0
M  END
