
     RDKit          3D

 12 12  0  0  0  0  0  0  0  0999 V2000
    3.0000    0.7420   -0.5700 O   0  0  0  0  0  0  0  0  0  0  0  0
    1.8230    1.4360   -0.9220 C   0  0  0  0  0  0  0  0  0  0  0  0
    0.6500    0.7370   -0.2550 C   0  0  1  0  0  0  0  0  0  0  0  0
   -0.5280    1.3880   -0.5750 O   0  0  0  0  0  0  0  0  0  0  0  0
   -1.6060    0.8520    0.0760 C   0  0  2  0  0  0  0  0  0  0  0  0
   -2.1200    1.8010    0.9550 O   0  0  0  0  0  0  0  0  0  0  0  0
   -1.3390   -0.3970    0.8360 C   0  0  2  0  0  0  0  0  0  0  0  0
   -0.8650   -0.1430    2.1410 O   0  0  0  0  0  0  0  0  0  0  0  0
   -0.4770   -1.3920    0.1200 C   0  0  1  0  0  0  0  0  0  0  0  0
   -1.3030   -2.1320   -0.7470 O   0  0  0  0  0  0  0  0  0  0  0  0
    0.5700   -0.7010   -0.7030 C   0  0  2  0  0  0  0  0  0  0  0  0
    1.8120   -1.3070   -0.6470 O   0  0  0  0  0  0  0  0  0  0  0  0
  1  2  1  0
  3  2  1  6
  3  4  1  0
  3 11  1  0
  4  5  1  0
  5  6  1  1
  5  7  1  0
  7  8  1  1
  7  9  1  0
  9 10  1  6
  9 11  1  0
 11 12  1  1
M  END
