
     RDKit          3D

 12 11  0  0  0  0  0  0  0  0999 V2000
    3.9540    0.7120    0.0080 O   0  0  0  0  0  0  0  0  0  0  0  0
    2.9930    0.1210   -0.7840 C   0  0  0  0  0  0  0  0  0  0  0  0
    1.7060   -0.1550    0.0260 C   0  0  2  0  0  0  0  0  0  0  0  0
    2.0130   -1.0130    1.0860 O   0  0  0  0  0  0  0  0  0  0  0  0
    0.7780   -0.6170   -0.8220 O   0  0  0  0  0  0  0  0  0  0  0  0
   -0.3550    0.0720   -1.0210 C   0  0  0  0  0  0  0  0  0  0  0  0
   -1.3500    0.1730    0.0830 C   0  0  2  0  0  0  0  0  0  0  0  0
   -2.4170    0.9580   -0.4740 O   0  0  0  0  0  0  0  0  0  0  0  0
   -0.9120    0.8830    1.3010 C   0  0  0  0  0  0  0  0  0  0  0  0
   -2.0400    1.0440    2.1710 O   0  0  0  0  0  0  0  0  0  0  0  0
   -1.9260   -1.1990    0.3770 C   0  0  0  0  0  0  0  0  0  0  0  0
   -2.4020   -1.7960   -0.7750 O   0  0  0  0  0  0  0  0  0  0  0  0
  1  2  1  0
  2  3  1  0
  3  4  1  1
  3  5  1  0
  5  6  1  0
  6  7  1  0
  7  8  1  6
  7  9  1  0
  7 11  1  0
  9 10  1  0
 11 12  1  0
M  END
