
     RDKit          3D

 11 11  0  0  0  0  0  0  0  0999 V2000
   -2.2090    0.6380    0.6410 C   0  0  0  0  0  0  0  0  0  0  0  0
   -1.0370    0.0030   -0.0310 C   0  0  1  0  0  0  0  0  0  0  0  0
   -1.1970   -0.1370   -1.3870 O   0  0  0  0  0  0  0  0  0  0  0  0
    0.2490    0.8150    0.1870 C   0  0  0  0  0  0  0  0  0  0  0  0
    1.2480   -0.2920   -0.1180 C   0  0  1  0  0  0  0  0  0  0  0  0
    2.6170    0.0810    0.2820 C   0  0  0  0  0  0  0  0  0  0  0  0
    3.1580   -0.5790    1.2030 O   0  0  0  0  0  0  0  0  0  0  0  0
    3.3180    1.1140   -0.3090 O   0  0  0  0  0  0  0  0  0  0  0  0
    0.7500   -1.3530    0.6100 O   0  0  0  0  0  0  0  0  0  0  0  0
   -0.6200   -1.3020    0.5870 C   0  0  2  0  0  0  0  0  0  0  0  0
   -1.2090   -2.3820   -0.0720 O   0  0  0  0  0  0  0  0  0  0  0  0
  2  1  1  1
  2  3  1  0
  2  4  1  0
  2 10  1  0
  4  5  1  0
  5  6  1  1
  5  9  1  0
  6  7  2  0
  6  8  1  0
  9 10  1  0
 10 11  1  6
M  END
