
     RDKit          3D

 37 37  0  0  0  0  0  0  0  0999 V2000
    9.0820   -1.9980   -1.1250 C   0  0  0  0  0  0  0  0  0  0  0  0
    8.6380   -0.9490   -0.2860 O   0  0  0  0  0  0  0  0  0  0  0  0
    8.1250    0.2450   -0.7450 C   0  0  0  0  0  0  0  0  0  0  0  0
    8.0340    0.4400   -1.9800 O   0  0  0  0  0  0  0  0  0  0  0  0
    7.6800    1.2960    0.2100 C   0  0  2  0  0  0  0  0  0  0  0  0
    7.1540    2.5080   -0.5080 C   0  0  0  0  0  0  0  0  0  0  0  0
    8.8550    1.7390    1.0910 C   0  0  0  0  0  0  0  0  0  0  0  0
    6.4060    0.6740    1.3310 S   0  0  0  0  0  0  0  0  0  0  0  0
    4.9250    0.3030    0.3780 C   0  0  0  0  0  0  0  0  0  0  0  0
    4.6130   -0.8700   -0.2170 N   0  0  0  0  0  0  0  0  0  0  0  0
    3.4220   -0.7270   -0.8240 C   0  0  0  0  0  0  0  0  0  0  0  0
    2.6520   -1.7200   -1.6100 C   0  0  0  0  0  0  0  0  0  0  0  0
    1.8780   -2.5680   -0.7880 O   0  0  0  0  0  0  0  0  0  0  0  0
    0.8890   -2.0100    0.0480 C   0  0  0  0  0  0  0  0  0  0  0  0
    0.7550   -0.7570    0.0060 O   0  0  0  0  0  0  0  0  0  0  0  0
    0.1200   -2.8250    0.8640 O   0  0  0  0  0  0  0  0  0  0  0  0
   -0.8620   -2.2000    1.6820 C   0  0  0  0  0  0  0  0  0  0  0  0
   -1.8220   -1.5190    0.7960 C   0  0  0  0  0  0  0  0  0  0  0  0
   -1.6960   -1.5340   -0.4500 O   0  0  0  0  0  0  0  0  0  0  0  0
   -2.9400   -0.8140    1.2990 O   0  0  0  0  0  0  0  0  0  0  0  0
   -3.8230   -0.1960    0.4200 C   0  0  1  0  0  0  0  0  0  0  0  0
   -4.9870   -1.2070    0.3120 C   0  0  0  0  0  0  0  0  0  0  0  0
   -4.9120   -2.2690    0.9570 O   0  0  0  0  0  0  0  0  0  0  0  0
   -6.0830   -0.9610   -0.4680 O   0  0  0  0  0  0  0  0  0  0  0  0
   -7.1570   -1.8890   -0.5760 C   0  0  0  0  0  0  0  0  0  0  0  0
   -8.1870   -1.3030   -1.5070 C   0  0  1  0  0  0  0  0  0  0  0  0
   -9.2660   -2.1770   -1.6700 O   0  0  0  0  0  0  0  0  0  0  0  0
   -8.6660    0.0180   -0.9000 C   0  0  0  0  0  0  0  0  0  0  0  0
   -9.6130    0.5900   -1.7620 O   0  0  0  0  0  0  0  0  0  0  0  0
   -4.3640    1.1300    0.6840 C   0  0  2  0  0  0  0  0  0  0  0  0
   -5.2010    1.4530   -0.4410 O   0  0  0  0  0  0  0  0  0  0  0  0
   -3.5470    2.3160    0.9270 C   0  0  0  0  0  0  0  0  0  0  0  0
   -2.4830    2.4240    2.2970 S   0  0  0  0  0  0  0  0  0  0  0  0
   -1.1800    1.2810    2.4920 C   0  0  0  0  0  0  0  0  0  0  0  0
   -2.1920    3.8430    2.7460 O   0  0  0  0  0  0  0  0  0  0  0  0
    3.0150    0.5300   -0.5970 N   0  0  0  0  0  0  0  0  0  0  0  0
    3.9260    1.1070    0.1150 O   0  0  0  0  0  0  0  0  0  0  0  0
  1  2  1  0
  2  3  1  0
  3  4  2  0
  3  5  1  0
  5  6  1  6
  5  7  1  0
  5  8  1  0
  8  9  1  0
  9 10  2  0
  9 37  1  0
 10 11  1  0
 11 12  1  0
 11 36  2  0
 12 13  1  0
 13 14  1  0
 14 15  2  0
 14 16  1  0
 16 17  1  0
 17 18  1  0
 18 19  2  0
 18 20  1  0
 21 20  1  1
 21 22  1  0
 21 30  1  0
 22 23  2  0
 22 24  1  0
 24 25  1  0
 25 26  1  0
 26 27  1  1
 26 28  1  0
 28 29  1  0
 30 31  1  6
 30 32  1  0
 32 33  1  0
 33 34  1  6
 33 35  2  0
 36 37  1  0
M  END
