
     RDKit          3D

 37 37  0  0  0  0  0  0  0  0999 V2000
    8.4110    4.1120    2.0220 C   0  0  0  0  0  0  0  0  0  0  0  0
    8.3390    2.7600    2.3340 O   0  0  0  0  0  0  0  0  0  0  0  0
    8.7790    1.7650    1.0640 S   0  0  1  0  0  0  0  0  0  0  0  0
    9.6470    2.5030    0.0690 O   0  0  0  0  0  0  0  0  0  0  0  0
    9.5510    0.5630    1.5520 O   0  0  0  0  0  0  0  0  0  0  0  0
    7.3470    1.2450    0.2390 N   0  0  0  0  0  0  0  0  0  0  0  0
    6.8260    0.0380    0.8040 C   0  0  0  0  0  0  0  0  0  0  0  0
    5.5850   -0.3720    0.0550 C   0  0  2  0  0  0  0  0  0  0  0  0
    5.7960   -0.5960   -1.4120 C   0  0  0  0  0  0  0  0  0  0  0  0
    4.8840    0.2220   -2.0690 O   0  0  0  0  0  0  0  0  0  0  0  0
    4.0120    0.7010   -1.1240 C   0  0  1  0  0  0  0  0  0  0  0  0
    3.6830    2.1630   -1.4350 C   0  0  0  0  0  0  0  0  0  0  0  0
    2.7820   -0.1200   -1.0980 C   0  0  0  0  0  0  0  0  0  0  0  0
    1.8240    0.0910   -0.3180 O   0  0  0  0  0  0  0  0  0  0  0  0
    2.6680   -1.2100   -2.0020 N   0  0  0  0  0  0  0  0  0  0  0  0
    1.5300   -2.0730   -2.0680 C   0  0  0  0  0  0  0  0  0  0  0  0
    1.2120   -2.9370   -0.5150 S   0  0  0  0  0  0  0  0  0  0  0  0
   -0.2460   -3.9880   -0.7330 C   0  0  1  0  0  0  0  0  0  0  0  0
   -0.5840   -4.7500    0.5260 C   0  0  0  0  0  0  0  0  0  0  0  0
   -1.3930   -3.1340   -1.1810 C   0  0  0  0  0  0  0  0  0  0  0  0
   -1.9980   -3.3240   -2.2570 O   0  0  0  0  0  0  0  0  0  0  0  0
   -1.8420   -2.0690   -0.3960 O   0  0  0  0  0  0  0  0  0  0  0  0
   -2.9210   -1.2500   -0.7950 C   0  0  2  0  0  0  0  0  0  0  0  0
   -2.3480    0.1550   -1.0310 C   0  0  0  0  0  0  0  0  0  0  0  0
   -3.9940   -1.2080    0.2280 C   0  0  0  0  0  0  0  0  0  0  0  0
   -3.9380   -1.8250    1.3120 O   0  0  0  0  0  0  0  0  0  0  0  0
   -5.1330   -0.4510   -0.0090 O   0  0  0  0  0  0  0  0  0  0  0  0
   -6.1960   -0.3640    0.9200 C   0  0  0  0  0  0  0  0  0  0  0  0
   -7.2230    0.5270    0.3100 C   0  0  0  0  0  0  0  0  0  0  0  0
   -7.0890    1.0570   -0.8220 O   0  0  0  0  0  0  0  0  0  0  0  0
   -8.3920    0.7990    1.0060 O   0  0  0  0  0  0  0  0  0  0  0  0
   -9.3670    1.6380    0.4360 C   0  0  1  0  0  0  0  0  0  0  0  0
  -10.6440    0.8150    0.2510 C   0  0  0  0  0  0  0  0  0  0  0  0
   -9.6830    2.7880    1.3140 C   0  0  0  0  0  0  0  0  0  0  0  0
  -10.5450    3.6200    0.9230 O   0  0  0  0  0  0  0  0  0  0  0  0
   -9.0640    2.9720    2.5400 O   0  0  0  0  0  0  0  0  0  0  0  0
    4.6180    0.6110    0.1080 O   0  0  0  0  0  0  0  0  0  0  0  0
  1  2  1  0
  2  3  1  0
  3  4  2  0
  3  5  2  0
  3  6  1  6
  6  7  1  0
  8  7  1  6
  8  9  1  0
  8 37  1  0
  9 10  1  0
 10 11  1  0
 11 12  1  6
 11 13  1  0
 11 37  1  0
 13 14  2  0
 13 15  1  0
 15 16  1  0
 16 17  1  0
 17 18  1  0
 18 19  1  1
 18 20  1  0
 20 21  2  0
 20 22  1  0
 22 23  1  0
 23 24  1  1
 23 25  1  0
 25 26  2  0
 25 27  1  0
 27 28  1  0
 28 29  1  0
 29 30  2  0
 29 31  1  0
 31 32  1  0
 32 33  1  1
 32 34  1  0
 34 35  2  0
 34 36  1  0
M  END
