
     RDKit          3D

 37 37  0  0  0  0  0  0  0  0999 V2000
   -6.2110   -0.1670    3.3690 C   0  0  0  0  0  0  0  0  0  0  0  0
   -5.8960   -1.5680    2.9340 C   0  0  0  0  0  0  0  0  0  0  0  0
   -5.7250   -1.6010    1.5570 O   0  0  0  0  0  0  0  0  0  0  0  0
   -4.7510   -0.8770    0.8970 C   0  0  0  0  0  0  0  0  0  0  0  0
   -3.9740   -0.1490    1.5050 O   0  0  0  0  0  0  0  0  0  0  0  0
   -4.7090   -1.0310   -0.5920 C   0  0  2  0  0  0  0  0  0  0  0  0
   -4.4450   -2.4910   -0.8410 C   0  0  0  0  0  0  0  0  0  0  0  0
   -3.7500   -0.1760   -1.2160 O   0  0  0  0  0  0  0  0  0  0  0  0
   -4.2630    0.9310   -1.9780 C   0  0  0  0  0  0  0  0  0  0  0  0
   -5.4850    1.0020   -1.9360 O   0  0  0  0  0  0  0  0  0  0  0  0
   -3.4290    1.8460   -2.7030 C   0  0  0  0  0  0  0  0  0  0  0  0
   -3.9100    2.9140   -3.3700 C   0  0  0  0  0  0  0  0  0  0  0  0
   -5.1200    3.5240   -3.6410 C   0  0  0  0  0  0  0  0  0  0  0  0
   -6.4790    3.2150   -3.2580 C   0  0  0  0  0  0  0  0  0  0  0  0
   -5.0160    4.6150   -4.4060 O   0  0  0  0  0  0  0  0  0  0  0  0
   -1.7420    1.5670   -2.9890 S   0  0  0  0  0  0  0  0  0  0  0  0
   -0.7000    0.3320   -2.6280 C   0  0  0  0  0  0  0  0  0  0  0  0
   -0.0540    0.1800   -1.3640 N   0  0  0  0  0  0  0  0  0  0  0  0
    0.9200   -0.9520   -1.3120 C   0  0  0  0  0  0  0  0  0  0  0  0
    0.9130   -1.7030   -2.2910 O   0  0  0  0  0  0  0  0  0  0  0  0
    1.6970   -0.9120   -0.1190 N   0  0  0  0  0  0  0  0  0  0  0  0
    2.5960   -2.3610   -0.4060 C   0  0  0  0  0  0  0  0  0  0  0  0
    2.1590   -3.0300   -1.2590 O   0  0  0  0  0  0  0  0  0  0  0  0
    3.7600   -2.4910    0.4730 C   0  0  0  0  0  0  0  0  0  0  0  0
    4.1830   -1.4610    1.0670 O   0  0  0  0  0  0  0  0  0  0  0  0
    4.2350   -0.4710    1.8260 C   0  0  2  0  0  0  0  0  0  0  0  0
    4.2000    0.7540    1.0330 O   0  0  0  0  0  0  0  0  0  0  0  0
    5.2110    1.5690    1.4720 C   0  0  0  0  0  0  0  0  0  0  0  0
    6.5730    1.0480    0.9930 C   0  0  2  0  0  0  0  0  0  0  0  0
    6.4230    0.8270   -0.3650 O   0  0  0  0  0  0  0  0  0  0  0  0
    6.7790   -0.2750    1.7560 C   0  0  1  0  0  0  0  0  0  0  0  0
    6.9170   -1.2630    0.7980 O   0  0  0  0  0  0  0  0  0  0  0  0
    7.8650   -0.1940    2.6160 O   0  0  0  0  0  0  0  0  0  0  0  0
    9.3100    0.1030    1.7720 S   0  0  0  0  0  0  0  0  0  0  0  0
    9.6880    1.5360    1.9850 O   0  0  0  0  0  0  0  0  0  0  0  0
    5.5410   -0.4260    2.5830 C   0  0  0  0  0  0  0  0  0  0  0  0
    5.4990   -0.5160    3.7820 O   0  0  0  0  0  0  0  0  0  0  0  0
  1  2  1  0
  2  3  1  0
  3  4  1  0
  4  5  2  0
  4  6  1  0
  6  7  1  1
  6  8  1  0
  8  9  1  0
  9 10  2  0
  9 11  1  0
 11 12  2  3
 11 16  1  0
 12 13  1  0
 13 14  1  0
 13 15  2  0
 16 17  1  0
 17 18  1  0
 18 19  1  0
 19 20  2  0
 19 21  1  0
 21 22  1  0
 22 23  2  0
 22 24  1  0
 24 25  1  0
 26 25  1  6
 26 27  1  0
 26 36  1  0
 27 28  1  0
 28 29  1  0
 29 30  1  6
 29 31  1  0
 31 32  1  6
 31 33  1  0
 31 36  1  0
 33 34  1  0
 34 35  2  0
 36 37  2  0
M  END
