
     RDKit          3D

 36 39  0  0  0  0  0  0  0  0999 V2000
    7.2850   -1.4780   -2.3620 C   0  0  0  0  0  0  0  0  0  0  0  0
    5.8540   -1.8120   -2.6370 C   0  0  0  0  0  0  0  0  0  0  0  0
    5.5860   -2.5070   -3.6450 O   0  0  0  0  0  0  0  0  0  0  0  0
    4.8070   -1.3620   -1.7870 N   0  0  0  0  0  0  0  0  0  0  0  0
    3.4490   -1.6790   -2.0470 C   0  0  0  0  0  0  0  0  0  0  0  0
    2.4580   -1.1630   -1.1070 C   0  0  0  0  0  0  0  0  0  0  0  0
    1.2470   -1.4510   -1.3470 O   0  0  0  0  0  0  0  0  0  0  0  0
    2.6900   -0.3790    0.0420 N   0  0  0  0  0  0  0  0  0  0  0  0
    1.6570    0.0530    0.8630 N   0  0  0  0  0  0  0  0  0  0  0  0
    1.4890   -0.5210    2.0400 C   0  0  0  0  0  0  0  0  0  0  0  0
    0.4010   -0.0540    2.8850 C   0  0  0  0  0  0  0  0  0  0  0  0
   -0.4700    0.9240    2.7630 C   0  0  0  0  0  0  0  0  0  0  0  0
   -0.6050    1.8740    1.7010 C   0  0  0  0  0  0  0  0  0  0  0  0
   -1.7860    1.9120    0.9540 C   0  0  0  0  0  0  0  0  0  0  0  0
   -2.0140    2.8100   -0.0570 C   0  0  0  0  0  0  0  0  0  0  0  0
   -3.2590    2.8880   -0.8590 C   0  0  0  0  0  0  0  0  0  0  0  0
   -4.2440    1.9080   -0.5350 N   0  0  0  0  0  0  0  0  0  0  0  0
   -4.0410    0.4980   -0.7790 C   0  0  0  0  0  0  0  0  0  0  0  0
   -2.8810    0.0500   -1.3960 C   0  0  0  0  0  0  0  0  0  0  0  0
   -2.6710   -1.2840   -1.6510 C   0  0  0  0  0  0  0  0  0  0  0  0
   -3.6550   -2.1710   -1.2710 C   0  0  0  0  0  0  0  0  0  0  0  0
   -3.5120   -3.6450   -1.5080 C   0  0  0  0  0  0  0  0  0  0  0  0
   -4.7790   -1.7450   -0.6740 N   0  0  0  0  0  0  0  0  0  0  0  0
   -4.9810   -0.4380   -0.4270 C   0  0  0  0  0  0  0  0  0  0  0  0
   -6.2580   -0.0060    0.2460 C   0  0  0  0  0  0  0  0  0  0  0  0
   -0.9970    3.7190   -0.3300 C   0  0  0  0  0  0  0  0  0  0  0  0
   -1.2430    4.6960   -1.4320 C   0  0  0  0  0  0  0  0  0  0  0  0
    0.1750    3.7130    0.3820 C   0  0  0  0  0  0  0  0  0  0  0  0
    0.3700    2.7840    1.4040 C   0  0  0  0  0  0  0  0  0  0  0  0
    1.5760    2.8230    2.1050 O   0  0  0  0  0  0  0  0  0  0  0  0
    0.4810   -1.1550    4.3210 S   0  0  0  0  0  0  0  0  0  0  0  0
    1.9070   -2.0610    3.7910 C   0  0  0  0  0  0  0  0  0  0  0  0
    2.7410   -3.0340    4.1370 N   0  0  0  0  0  0  0  0  0  0  0  0
    3.6230   -3.2110    3.1800 N   0  0  0  0  0  0  0  0  0  0  0  0
    3.3810   -2.3560    2.1950 C   0  0  0  0  0  0  0  0  0  0  0  0
    2.2710   -1.5940    2.5620 C   0  0  0  0  0  0  0  0  0  0  0  0
  1  2  1  0
  2  3  2  0
  2  4  1  0
  4  5  1  0
  5  6  1  0
  6  7  2  0
  6  8  1  0
  8  9  1  0
  9 10  2  3
 10 11  1  0
 10 36  1  0
 11 12  2  3
 11 31  1  0
 12 13  1  0
 13 14  2  0
 13 29  1  0
 14 15  1  0
 15 16  1  0
 15 26  2  0
 16 17  1  0
 17 18  1  0
 18 19  2  0
 18 24  1  0
 19 20  1  0
 20 21  2  0
 21 22  1  0
 21 23  1  0
 23 24  2  0
 24 25  1  0
 26 27  1  0
 26 28  1  0
 28 29  2  0
 29 30  1  0
 31 32  1  0
 32 33  1  0
 32 36  2  0
 33 34  1  0
 34 35  2  0
 35 36  1  0
M  END
