
     RDKit          3D

 35 39  0  0  0  0  0  0  0  0999 V2000
   -7.8190    2.7910    1.6440 C   0  0  0  0  0  0  0  0  0  0  0  0
   -6.6020    2.0860    1.2070 C   0  0  0  0  0  0  0  0  0  0  0  0
   -6.7320    0.8130    0.6670 C   0  0  0  0  0  0  0  0  0  0  0  0
   -5.6240    0.1120    0.2440 C   0  0  0  0  0  0  0  0  0  0  0  0
   -4.3360    0.7010    0.3630 C   0  0  0  0  0  0  0  0  0  0  0  0
   -3.2180   -0.0080   -0.0770 C   0  0  0  0  0  0  0  0  0  0  0  0
   -1.9340    0.5470    0.1150 N   0  0  0  0  0  0  0  0  0  0  0  0
   -0.7580    0.0620   -0.5690 C   0  0  0  0  0  0  0  0  0  0  0  0
   -0.7900   -0.8710   -1.3850 O   0  0  0  0  0  0  0  0  0  0  0  0
    0.5520    0.6990   -0.2950 C   0  0  0  0  0  0  0  0  0  0  0  0
    0.8350    1.7390    0.5600 C   0  0  0  0  0  0  0  0  0  0  0  0
    2.1590    1.9970    0.4970 N   0  0  0  0  0  0  0  0  0  0  0  0
    2.7090    1.1390   -0.3780 C   0  0  0  0  0  0  0  0  0  0  0  0
    4.1670    1.0920   -0.7390 C   0  0  0  0  0  0  0  0  0  0  0  0
    4.8500    0.1380    0.2140 C   0  0  0  0  0  0  0  0  0  0  0  0
    6.2910    0.0720   -0.1200 C   0  0  0  0  0  0  0  0  0  0  0  0
    6.7300    0.7570   -1.0730 O   0  0  0  0  0  0  0  0  0  0  0  0
    7.2140   -0.7400    0.5950 N   0  0  0  0  0  0  0  0  0  0  0  0
    8.5870   -0.8130    0.2880 C   0  0  0  0  0  0  0  0  0  0  0  0
    9.4150   -1.6190    1.0240 C   0  0  0  0  0  0  0  0  0  0  0  0
   10.7520   -1.6780    0.7100 C   0  0  0  0  0  0  0  0  0  0  0  0
   11.2430   -0.9110   -0.3560 C   0  0  0  0  0  0  0  0  0  0  0  0
   10.4100   -0.1410   -1.0460 N   0  0  0  0  0  0  0  0  0  0  0  0
    9.1340   -0.1140   -0.7120 N   0  0  0  0  0  0  0  0  0  0  0  0
    1.7160    0.3500   -0.8570 N   0  0  0  0  0  0  0  0  0  0  0  0
   -3.4150   -1.2580   -0.6160 C   0  0  0  0  0  0  0  0  0  0  0  0
   -4.6700   -1.8280   -0.7320 C   0  0  0  0  0  0  0  0  0  0  0  0
   -4.7710   -3.1130   -1.2980 C   0  0  0  0  0  0  0  0  0  0  0  0
   -6.0290   -3.6630   -1.4040 C   0  0  0  0  0  0  0  0  0  0  0  0
   -7.1270   -2.9630   -0.9680 C   0  0  0  0  0  0  0  0  0  0  0  0
   -7.0280   -1.6790   -0.4030 C   0  0  0  0  0  0  0  0  0  0  0  0
   -5.7740   -1.1380   -0.3000 C   0  0  0  0  0  0  0  0  0  0  0  0
   -4.2540    1.9610    0.9010 C   0  0  0  0  0  0  0  0  0  0  0  0
   -3.1560    2.5390    1.0320 O   0  0  0  0  0  0  0  0  0  0  0  0
   -5.3850    2.6200    1.3090 N   0  0  0  0  0  0  0  0  0  0  0  0
  1  2  1  0
  2  3  2  0
  2 35  1  0
  3  4  1  0
  4  5  2  0
  4 32  1  0
  5  6  1  0
  5 33  1  0
  6  7  1  0
  6 26  2  0
  7  8  1  0
  8  9  2  0
  8 10  1  0
 10 11  2  0
 10 25  1  0
 11 12  1  0
 12 13  1  0
 13 14  1  0
 13 25  2  0
 14 15  1  0
 15 16  1  0
 16 17  2  0
 16 18  1  0
 18 19  1  0
 19 20  2  0
 19 24  1  0
 20 21  1  0
 21 22  2  0
 22 23  1  0
 23 24  2  0
 26 27  1  0
 27 28  2  0
 27 32  1  0
 28 29  1  0
 29 30  2  0
 30 31  1  0
 31 32  2  0
 33 34  2  0
 33 35  1  0
M  END
