
     RDKit          3D

 36 40  0  0  0  0  0  0  0  0999 V2000
   -9.5040    0.3840   -1.2480 C   0  0  0  0  0  0  0  0  0  0  0  0
   -8.7030    0.3200   -0.1420 O   0  0  0  0  0  0  0  0  0  0  0  0
   -7.5970    1.1980   -0.1750 C   0  0  1  0  0  0  0  0  0  0  0  0
   -7.7240    2.2540    0.8660 C   0  0  0  0  0  0  0  0  0  0  0  0
   -6.4250    2.7450    1.4420 C   0  0  0  0  0  0  0  0  0  0  0  0
   -5.3450    2.6820    0.3520 C   0  0  0  0  0  0  0  0  0  0  0  0
   -5.1770    1.2680    0.0590 N   0  0  0  0  0  0  0  0  0  0  0  0
   -3.8660    0.6880    0.0290 C   0  0  0  0  0  0  0  0  0  0  0  0
   -2.9010    1.4250    0.2610 O   0  0  0  0  0  0  0  0  0  0  0  0
   -3.7170   -0.7120   -0.2660 C   0  0  0  0  0  0  0  0  0  0  0  0
   -4.6210   -1.6590   -0.5420 N   0  0  0  0  0  0  0  0  0  0  0  0
   -4.0550   -2.8350   -0.7610 N   0  0  0  0  0  0  0  0  0  0  0  0
   -2.7090   -2.7050   -0.6330 C   0  0  0  0  0  0  0  0  0  0  0  0
   -1.6530   -3.5880   -0.7490 C   0  0  0  0  0  0  0  0  0  0  0  0
   -0.3860   -3.1260   -0.5490 C   0  0  0  0  0  0  0  0  0  0  0  0
    0.6410   -4.0370   -0.6730 O   0  0  0  0  0  0  0  0  0  0  0  0
   -0.0760   -1.7820   -0.2270 C   0  0  0  0  0  0  0  0  0  0  0  0
    1.2980   -1.4100   -0.0540 C   0  0  0  0  0  0  0  0  0  0  0  0
    2.1660   -2.3480   -0.3000 O   0  0  0  0  0  0  0  0  0  0  0  0
    1.8700   -0.2030    0.3370 N   0  0  0  0  0  0  0  0  0  0  0  0
    1.1240    0.9500    0.7680 C   0  0  0  0  0  0  0  0  0  0  0  0
    3.3260   -0.0670    0.3470 C   0  0  0  0  0  0  0  0  0  0  0  0
    4.0900   -0.9700    1.0250 C   0  0  0  0  0  0  0  0  0  0  0  0
    5.4890   -0.8850    1.0590 C   0  0  0  0  0  0  0  0  0  0  0  0
    6.1320    0.1250    0.3990 C   0  0  0  0  0  0  0  0  0  0  0  0
    7.5370    0.2330    0.3960 N   0  0  0  0  0  0  0  0  0  0  0  0
    8.4320   -0.8180    0.8230 C   0  0  0  0  0  0  0  0  0  0  0  0
    9.2390   -1.1770   -0.4150 C   0  0  0  0  0  0  0  0  0  0  0  0
    9.9410   -0.0270   -0.7770 O   0  0  0  0  0  0  0  0  0  0  0  0
    9.1030    0.9980   -1.2200 C   0  0  0  0  0  0  0  0  0  0  0  0
    8.2550    1.4270   -0.0410 C   0  0  0  0  0  0  0  0  0  0  0  0
    5.3630    1.0360   -0.2850 C   0  0  0  0  0  0  0  0  0  0  0  0
    3.9670    0.9520   -0.3190 C   0  0  0  0  0  0  0  0  0  0  0  0
   -1.1740   -0.9720   -0.1320 C   0  0  0  0  0  0  0  0  0  0  0  0
   -2.4920   -1.3850   -0.3240 C   0  0  0  0  0  0  0  0  0  0  0  0
   -6.3210    0.4510   -0.1900 C   0  0  0  0  0  0  0  0  0  0  0  0
  1  2  1  0
  3  2  1  1
  3  4  1  0
  3 36  1  0
  4  5  1  0
  5  6  1  0
  6  7  1  0
  7  8  1  0
  7 36  1  0
  8  9  2  0
  8 10  1  0
 10 11  2  0
 10 35  1  0
 11 12  1  0
 12 13  1  0
 13 14  2  0
 13 35  1  0
 14 15  1  0
 15 16  1  0
 15 17  2  0
 17 18  1  0
 17 34  1  0
 18 19  2  0
 18 20  1  0
 20 21  1  0
 20 22  1  0
 22 23  2  0
 22 33  1  0
 23 24  1  0
 24 25  2  0
 25 26  1  0
 25 32  1  0
 26 27  1  0
 26 31  1  0
 27 28  1  0
 28 29  1  0
 29 30  1  0
 30 31  1  0
 32 33  2  0
 34 35  2  0
M  END
