
     RDKit          3D

 37 37  0  0  0  0  0  0  0  0999 V2000
   -9.9180   -2.4300    2.4370 C   0  0  0  0  0  0  0  0  0  0  0  0
   -9.1640   -1.6700    1.4890 O   0  0  0  0  0  0  0  0  0  0  0  0
   -9.0380   -2.0690    0.1670 C   0  0  0  0  0  0  0  0  0  0  0  0
   -9.6130   -3.1310   -0.1780 O   0  0  0  0  0  0  0  0  0  0  0  0
   -8.2570   -1.2820   -0.8220 C   0  0  1  0  0  0  0  0  0  0  0  0
   -9.1310   -0.9410   -2.0260 C   0  0  0  0  0  0  0  0  0  0  0  0
   -7.6930   -0.1380   -0.2500 O   0  0  0  0  0  0  0  0  0  0  0  0
   -6.3370    0.0940   -0.2570 C   0  0  0  0  0  0  0  0  0  0  0  0
   -5.5760   -0.7400   -0.7910 O   0  0  0  0  0  0  0  0  0  0  0  0
   -5.7980    1.3170    0.3610 C   0  0  0  0  0  0  0  0  0  0  0  0
   -4.3880    1.3910    0.2440 O   0  0  0  0  0  0  0  0  0  0  0  0
   -3.6500    2.4470    0.7530 C   0  0  0  0  0  0  0  0  0  0  0  0
   -4.2280    3.3750    1.3410 O   0  0  0  0  0  0  0  0  0  0  0  0
   -2.2160    2.4720    0.6030 N   0  0  0  0  0  0  0  0  0  0  0  0
   -1.3230    3.4760    1.0630 C   0  0  0  0  0  0  0  0  0  0  0  0
   -1.6590    4.5270    1.6930 O   0  0  0  0  0  0  0  0  0  0  0  0
   -0.0220    3.1350    0.7200 O   0  0  0  0  0  0  0  0  0  0  0  0
    0.0100    1.7800    0.3250 C   0  0  1  0  0  0  0  0  0  0  0  0
    0.9180    1.5630   -0.8660 C   0  0  0  0  0  0  0  0  0  0  0  0
    0.4460    0.6820    1.7010 S   0  0  0  0  0  0  0  0  0  0  0  0
    2.1460    0.9560    2.2630 C   0  0  2  0  0  0  0  0  0  0  0  0
    2.3170    2.3220    2.8810 C   0  0  0  0  0  0  0  0  0  0  0  0
    3.1150    0.7110    1.1760 C   0  0  0  0  0  0  0  0  0  0  0  0
    3.8640    1.6490    0.8140 O   0  0  0  0  0  0  0  0  0  0  0  0
    3.2410   -0.5370    0.5200 N   0  0  0  0  0  0  0  0  0  0  0  0
    4.1930   -0.7180   -0.5260 C   0  0  0  0  0  0  0  0  0  0  0  0
    5.5910   -0.4740   -0.0790 C   0  0  0  0  0  0  0  0  0  0  0  0
    5.7600   -0.1530    1.1240 O   0  0  0  0  0  0  0  0  0  0  0  0
    6.6820   -0.5780   -0.8910 O   0  0  0  0  0  0  0  0  0  0  0  0
    8.0110   -0.3520   -0.4920 C   0  0  0  0  0  0  0  0  0  0  0  0
    8.9900   -0.5450   -1.6270 C   0  0  1  0  0  0  0  0  0  0  0  0
   10.2880   -0.3090   -1.1750 O   0  0  0  0  0  0  0  0  0  0  0  0
    8.9230   -2.0100   -2.0220 C   0  0  0  0  0  0  0  0  0  0  0  0
    9.3830   -3.0250   -0.5760 S   0  0  0  0  0  0  0  0  0  0  0  0
    9.3180   -4.6900   -0.9760 O   0  0  0  0  0  0  0  0  0  0  0  0
   -1.3990    1.5070   -0.0350 C   0  0  0  0  0  0  0  0  0  0  0  0
   -1.7750    0.5810   -0.7720 O   0  0  0  0  0  0  0  0  0  0  0  0
  1  2  1  0
  2  3  1  0
  3  4  2  0
  3  5  1  0
  5  6  1  6
  5  7  1  0
  7  8  1  0
  8  9  2  0
  8 10  1  0
 10 11  1  0
 11 12  1  0
 12 13  2  0
 12 14  1  0
 14 15  1  0
 14 36  1  0
 15 16  2  0
 15 17  1  0
 17 18  1  0
 18 19  1  6
 18 20  1  0
 18 36  1  0
 20 21  1  0
 21 22  1  6
 21 23  1  0
 23 24  2  0
 23 25  1  0
 25 26  1  0
 26 27  1  0
 27 28  2  0
 27 29  1  0
 29 30  1  0
 30 31  1  0
 31 32  1  1
 31 33  1  0
 33 34  1  0
 34 35  1  0
 36 37  2  0
M  END
