
     RDKit          3D

 11 10  0  0  0  0  0  0  0  0999 V2000
    3.2920    0.3610   -0.5670 C   0  0  0  0  0  0  0  0  0  0  0  0
    2.0640    0.5790    0.0540 O   0  0  0  0  0  0  0  0  0  0  0  0
    1.5470   -0.6880    0.3560 C   0  0  0  0  0  0  0  0  0  0  0  0
    0.3330   -0.6420    0.9750 O   0  0  0  0  0  0  0  0  0  0  0  0
   -0.6710   -0.0030    0.2230 C   0  0  1  0  0  0  0  0  0  0  0  0
   -0.4310    1.3500   -0.1440 C   0  0  0  0  0  0  0  0  0  0  0  0
   -0.2150    2.5640   -0.4720 O   0  0  0  0  0  0  0  0  0  0  0  0
   -0.9120   -0.9840   -0.9470 C   0  0  0  0  0  0  0  0  0  0  0  0
   -1.9220   -0.4850   -1.7750 O   0  0  0  0  0  0  0  0  0  0  0  0
   -1.9640   -0.1750    1.0720 C   0  0  0  0  0  0  0  0  0  0  0  0
   -2.2410   -1.5040    1.2530 O   0  0  0  0  0  0  0  0  0  0  0  0
  1  2  1  0
  2  3  1  0
  3  4  1  0
  4  5  1  0
  5  6  1  6
  5  8  1  0
  5 10  1  0
  6  7  1  0
  8  9  1  0
 10 11  1  0
M  END
