
     RDKit          3D

 11 10  0  0  0  0  0  0  0  0999 V2000
    3.6910    0.5370   -0.1770 C   0  0  0  0  0  0  0  0  0  0  0  0
    3.3510   -0.7610    0.2000 O   0  0  0  0  0  0  0  0  0  0  0  0
    2.0880   -1.1220   -0.1980 C   0  0  0  0  0  0  0  0  0  0  0  0
    1.0890   -0.2900    0.3420 O   0  0  0  0  0  0  0  0  0  0  0  0
   -0.1230   -0.7590   -0.1350 C   0  0  0  0  0  0  0  0  0  0  0  0
   -1.3070    0.0120    0.3400 C   0  0  1  0  0  0  0  0  0  0  0  0
   -1.4350    0.0060    1.7140 O   0  0  0  0  0  0  0  0  0  0  0  0
   -1.1930    1.4620   -0.1060 C   0  0  0  0  0  0  0  0  0  0  0  0
   -2.3480    2.1610    0.2820 O   0  0  0  0  0  0  0  0  0  0  0  0
   -2.5390   -0.5550   -0.3210 C   0  0  0  0  0  0  0  0  0  0  0  0
   -2.3950   -0.5420   -1.7000 O   0  0  0  0  0  0  0  0  0  0  0  0
  1  2  1  0
  2  3  1  0
  3  4  1  0
  4  5  1  0
  5  6  1  0
  6  7  1  1
  6  8  1  0
  6 10  1  0
  8  9  1  0
 10 11  1  0
M  END
