
     RDKit          3D

 39 43  0  0  0  0  0  0  0  0999 V2000
   -0.6710    6.1330    1.2990 C   0  0  0  0  0  0  0  0  0  0  0  0
   -0.4820    4.7330    0.8730 C   0  0  0  0  0  0  0  0  0  0  0  0
   -0.5460    3.7390    1.8230 C   0  0  0  0  0  0  0  0  0  0  0  0
   -0.3760    2.4280    1.4760 C   0  0  0  0  0  0  0  0  0  0  0  0
   -0.1380    2.1200    0.1420 C   0  0  0  0  0  0  0  0  0  0  0  0
    0.0350    0.7660   -0.2110 N   0  0  0  0  0  0  0  0  0  0  0  0
   -0.8620   -0.0850   -0.8940 C   0  0  0  0  0  0  0  0  0  0  0  0
   -1.8040   -0.9320   -0.0900 C   0  0  1  0  0  0  0  0  0  0  0  0
   -2.6900   -0.1440    0.6810 N   0  0  0  0  0  0  0  0  0  0  0  0
   -2.7900   -0.4600    2.0740 C   0  0  1  0  0  0  0  0  0  0  0  0
   -4.1880   -0.0690    2.5390 C   0  0  0  0  0  0  0  0  0  0  0  0
   -4.2670   -0.3960    4.0150 C   0  0  0  0  0  0  0  0  0  0  0  0
   -3.3740   -2.0040    4.0380 S   0  0  0  0  0  0  0  0  0  0  0  0
   -2.6330   -1.9320    2.3690 C   0  0  0  0  0  0  0  0  0  0  0  0
   -2.5290   -1.7940   -1.0910 C   0  0  0  0  0  0  0  0  0  0  0  0
   -3.5550   -1.4710   -1.9440 C   0  0  0  0  0  0  0  0  0  0  0  0
   -4.0220   -2.4620   -2.7470 C   0  0  0  0  0  0  0  0  0  0  0  0
   -3.5110   -3.6700   -2.7040 C   0  0  0  0  0  0  0  0  0  0  0  0
   -2.2180   -3.4760   -1.4110 S   0  0  0  0  0  0  0  0  0  0  0  0
   -3.9890   -4.5500   -3.4780 N   0  0  0  0  0  0  0  0  0  0  0  0
   -5.0280   -3.9060   -4.2250 C   0  0  0  0  0  0  0  0  0  0  0  0
   -5.0040   -2.5250   -3.7000 C   0  0  0  0  0  0  0  0  0  0  0  0
    1.3160    0.1980    0.1500 C   0  0  0  0  0  0  0  0  0  0  0  0
    1.5660   -1.0130   -0.1330 O   0  0  0  0  0  0  0  0  0  0  0  0
    2.3330    1.0150    0.8430 C   0  0  0  0  0  0  0  0  0  0  0  0
    3.5180    0.2830    1.0770 O   0  0  0  0  0  0  0  0  0  0  0  0
    4.1980   -0.2180   -0.0510 C   0  0  0  0  0  0  0  0  0  0  0  0
    3.7540   -0.0110   -1.1930 O   0  0  0  0  0  0  0  0  0  0  0  0
    5.4210   -0.9750    0.1840 C   0  0  0  0  0  0  0  0  0  0  0  0
    5.8990   -1.1780    1.4620 C   0  0  0  0  0  0  0  0  0  0  0  0
    7.0590   -1.8940    1.6570 C   0  0  0  0  0  0  0  0  0  0  0  0
    7.7630   -2.4170    0.6170 C   0  0  0  0  0  0  0  0  0  0  0  0
    7.2900   -2.2160   -0.6570 C   0  0  0  0  0  0  0  0  0  0  0  0
    6.1290   -1.5010   -0.8740 C   0  0  0  0  0  0  0  0  0  0  0  0
    5.6440   -1.3020   -2.2580 C   0  0  0  0  0  0  0  0  0  0  0  0
   -0.0640    3.0840   -0.8430 C   0  0  0  0  0  0  0  0  0  0  0  0
    0.2330    2.8090   -2.2440 C   0  0  0  0  0  0  0  0  0  0  0  0
    0.4810    1.7080   -2.7450 O   0  0  0  0  0  0  0  0  0  0  0  0
   -0.2450    4.4130   -0.4420 C   0  0  0  0  0  0  0  0  0  0  0  0
  1  2  1  0
  2  3  2  0
  2 39  1  0
  3  4  1  0
  4  5  2  0
  5  6  1  0
  5 36  1  0
  6  7  1  0
  6 23  1  0
  8  7  1  6
  8  9  1  0
  8 15  1  0
 10  9  1  6
 10 11  1  0
 10 14  1  0
 11 12  1  0
 12 13  1  0
 13 14  1  0
 15 16  2  0
 15 19  1  0
 16 17  1  0
 17 18  1  0
 17 22  2  0
 18 19  1  0
 18 20  2  0
 20 21  1  0
 21 22  1  0
 23 24  2  0
 23 25  1  0
 25 26  1  0
 26 27  1  0
 27 28  2  0
 27 29  1  0
 29 30  2  0
 29 34  1  0
 30 31  1  0
 31 32  2  0
 32 33  1  0
 33 34  2  0
 34 35  1  0
 36 37  1  0
 36 39  2  0
 37 38  2  0
M  CHG  1   9   1
M  END
