
     RDKit          3D

 43 46  0  0  0  0  0  0  0  0999 V2000
    9.5590    3.0390   -2.1230 C   0  0  0  0  0  0  0  0  0  0  0  0
    9.5760    3.3690   -0.6480 C   0  0  0  0  0  0  0  0  0  0  0  0
    8.2420    3.3790   -0.1580 O   0  0  0  0  0  0  0  0  0  0  0  0
    7.5160    2.1910   -0.2580 C   0  0  0  0  0  0  0  0  0  0  0  0
    8.0590    1.1950   -0.7650 O   0  0  0  0  0  0  0  0  0  0  0  0
    6.1340    2.1710    0.2440 C   0  0  0  0  0  0  0  0  0  0  0  0
    5.6340    0.8380    0.1440 O   0  0  0  0  0  0  0  0  0  0  0  0
    4.3510    0.5160    0.5280 C   0  0  0  0  0  0  0  0  0  0  0  0
    3.6230    1.4280    0.9660 O   0  0  0  0  0  0  0  0  0  0  0  0
    3.8570   -0.8340    0.4280 C   0  0  0  0  0  0  0  0  0  0  0  0
    2.5940   -1.0300    0.7930 C   0  0  0  0  0  0  0  0  0  0  0  0
    1.9800   -2.2890    0.7620 N   0  0  0  0  0  0  0  0  0  0  0  0
    0.5000   -2.3500    0.8620 C   0  0  2  0  0  0  0  0  0  0  0  0
    0.0020   -1.5140   -0.3000 C   0  0  0  0  0  0  0  0  0  0  0  0
    0.1620   -1.7540    2.1730 C   0  0  0  0  0  0  0  0  0  0  0  0
   -1.2690   -1.7480    2.5470 C   0  0  0  0  0  0  0  0  0  0  0  0
   -2.2060   -1.0370    1.6530 C   0  0  0  0  0  0  0  0  0  0  0  0
   -2.9570   -1.6190    0.6590 C   0  0  0  0  0  0  0  0  0  0  0  0
   -3.7310   -0.6190    0.0170 C   0  0  0  0  0  0  0  0  0  0  0  0
   -4.5840   -0.8670   -1.1620 C   0  0  1  0  0  0  0  0  0  0  0  0
   -5.1170   -2.2680   -1.2200 C   0  0  0  0  0  0  0  0  0  0  0  0
   -6.6160   -2.3490   -1.0840 C   0  0  0  0  0  0  0  0  0  0  0  0
   -7.3620   -1.2120   -1.7120 C   0  0  0  0  0  0  0  0  0  0  0  0
   -6.7980    0.0520   -1.0250 C   0  0  0  0  0  0  0  0  0  0  0  0
   -5.4540    0.1450   -1.5450 N   0  0  0  0  0  0  0  0  0  0  0  0
   -3.3820    0.5250    0.6890 C   0  0  0  0  0  0  0  0  0  0  0  0
   -3.8780    1.8770    0.4610 C   0  0  0  0  0  0  0  0  0  0  0  0
   -3.2060    2.7670   -0.1020 O   0  0  0  0  0  0  0  0  0  0  0  0
   -5.1850    2.2130    0.9060 N   0  0  0  0  0  0  0  0  0  0  0  0
   -5.6830    3.5240    0.6950 C   0  0  2  0  0  0  0  0  0  0  0  0
   -6.0450    4.1410    2.0390 C   0  0  0  0  0  0  0  0  0  0  0  0
   -6.3530    5.4770    1.7470 O   0  0  0  0  0  0  0  0  0  0  0  0
   -7.4770    5.2900    0.4450 S   0  0  0  0  0  0  0  0  0  0  0  0
   -8.9010    5.3350    0.9730 O   0  0  0  0  0  0  0  0  0  0  0  0
   -7.0100    3.5920   -0.0440 C   0  0  0  0  0  0  0  0  0  0  0  0
   -2.4920    0.2150    1.6250 O   0  0  0  0  0  0  0  0  0  0  0  0
    4.5890   -1.9190   -0.1980 C   0  0  0  0  0  0  0  0  0  0  0  0
    3.9340   -2.7530   -1.1220 C   0  0  0  0  0  0  0  0  0  0  0  0
    4.5050   -3.8480   -1.7040 C   0  0  0  0  0  0  0  0  0  0  0  0
    5.7880   -4.1690   -1.3830 C   0  0  0  0  0  0  0  0  0  0  0  0
    6.4750   -3.3970   -0.4920 C   0  0  0  0  0  0  0  0  0  0  0  0
    5.8750   -2.2710    0.1040 C   0  0  0  0  0  0  0  0  0  0  0  0
    6.6430   -1.5200    1.1400 C   0  0  0  0  0  0  0  0  0  0  0  0
  1  2  1  0
  2  3  1  0
  3  4  1  0
  4  5  2  0
  4  6  1  0
  6  7  1  0
  7  8  1  0
  8  9  2  0
  8 10  1  0
 10 11  2  3
 10 37  1  0
 11 12  1  0
 12 13  1  0
 13 14  1  6
 13 15  1  0
 15 16  1  0
 16 17  1  0
 17 18  2  0
 17 36  1  0
 18 19  1  0
 20 19  1  1
 19 26  2  0
 20 21  1  0
 20 25  1  0
 21 22  1  0
 22 23  1  0
 23 24  1  0
 24 25  1  0
 26 27  1  0
 26 36  1  0
 27 28  2  0
 27 29  1  0
 30 29  1  1
 30 31  1  0
 30 35  1  0
 31 32  1  0
 32 33  1  0
 33 34  2  0
 33 35  1  1
 37 38  2  0
 37 42  1  0
 38 39  1  0
 39 40  2  0
 40 41  1  0
 41 42  2  0
 42 43  1  0
M  CHG  1  25   1
M  END
