
     RDKit          3D

 43 46  0  0  0  0  0  0  0  0999 V2000
    5.5070    2.0410    2.0750 C   0  0  0  0  0  0  0  0  0  0  0  0
    5.8050    1.4170    0.8430 O   0  0  0  0  0  0  0  0  0  0  0  0
    7.1090    1.3100    0.3750 C   0  0  0  0  0  0  0  0  0  0  0  0
    8.1250    1.8500    1.1770 C   0  0  0  0  0  0  0  0  0  0  0  0
    9.4340    1.7730    0.7620 C   0  0  0  0  0  0  0  0  0  0  0  0
    9.7010    1.1650   -0.4340 C   0  0  0  0  0  0  0  0  0  0  0  0
    8.7070    0.6400   -1.2110 C   0  0  0  0  0  0  0  0  0  0  0  0
    7.3420    0.6960   -0.8240 C   0  0  0  0  0  0  0  0  0  0  0  0
    6.4230    0.1590   -1.6450 O   0  0  0  0  0  0  0  0  0  0  0  0
    5.0620    0.0250   -1.5670 C   0  0  2  0  0  0  0  0  0  0  0  0
    4.7030   -1.3970   -1.9340 C   0  0  0  0  0  0  0  0  0  0  0  0
    3.6520   -1.3970   -2.7930 O   0  0  0  0  0  0  0  0  0  0  0  0
    3.3480   -0.1260   -3.1730 C   0  0  1  0  0  0  0  0  0  0  0  0
    3.1790   -0.0280   -4.6890 C   0  0  0  0  0  0  0  0  0  0  0  0
    2.0240    0.3300   -2.6190 C   0  0  0  0  0  0  0  0  0  0  0  0
    1.6050    1.4760   -2.8860 O   0  0  0  0  0  0  0  0  0  0  0  0
    1.2800   -0.5350   -1.8140 N   0  0  0  0  0  0  0  0  0  0  0  0
    0.0090   -0.2680   -1.2140 C   0  0  0  0  0  0  0  0  0  0  0  0
   -0.6290    0.9380   -1.2380 C   0  0  0  0  0  0  0  0  0  0  0  0
   -1.8850    1.0780   -0.6380 C   0  0  0  0  0  0  0  0  0  0  0  0
   -2.5270    0.0410   -0.0120 C   0  0  0  0  0  0  0  0  0  0  0  0
   -3.7420    0.0960    0.5920 O   0  0  0  0  0  0  0  0  0  0  0  0
   -4.6580    1.1130    0.7390 C   0  0  0  0  0  0  0  0  0  0  0  0
   -5.2350    1.6090   -0.5580 C   0  0  0  0  0  0  0  0  0  0  0  0
   -6.1840    2.6670   -0.3140 N   0  0  0  0  0  0  0  0  0  0  0  0
   -5.7730    3.8650    0.3050 C   0  0  0  0  0  0  0  0  0  0  0  0
   -4.5870    4.0510    0.6520 O   0  0  0  0  0  0  0  0  0  0  0  0
   -6.7890    4.9360    0.5460 C   0  0  2  0  0  0  0  0  0  0  0  0
   -8.2140    4.6210    0.0980 C   0  0  0  0  0  0  0  0  0  0  0  0
   -6.2740    6.3280    0.2450 C   0  0  0  0  0  0  0  0  0  0  0  0
   -6.6060    5.9840    1.9380 S   0  0  1  0  0  0  0  0  0  0  0  0
   -7.8190    6.6170    2.5400 O   0  0  0  0  0  0  0  0  0  0  0  0
   -5.4530    5.7980    2.8660 O   0  0  0  0  0  0  0  0  0  0  0  0
   -1.8830   -1.2140    0.0230 C   0  0  0  0  0  0  0  0  0  0  0  0
   -2.5420   -2.3640    0.6920 C   0  0  0  0  0  0  0  0  0  0  0  0
   -1.6900   -3.5100    0.5920 N   0  0  0  0  0  0  0  0  0  0  0  0
   -2.2160   -4.6780    1.2600 C   0  0  2  0  0  0  0  0  0  0  0  0
   -3.1880   -4.3200    2.3530 C   0  0  0  0  0  0  0  0  0  0  0  0
   -1.1040   -5.5790    1.7580 C   0  0  1  0  0  0  0  0  0  0  0  0
   -0.1830   -4.9320    2.7310 C   0  0  0  0  0  0  0  0  0  0  0  0
   -1.6650   -6.8720    2.3050 C   0  0  0  0  0  0  0  0  0  0  0  0
   -0.6580   -1.3080   -0.5730 C   0  0  0  0  0  0  0  0  0  0  0  0
    4.4470    0.7960   -2.7510 C   0  0  0  0  0  0  0  0  0  0  0  0
  1  2  1  0
  2  3  1  0
  3  4  2  0
  3  8  1  0
  4  5  1  0
  5  6  2  0
  6  7  1  0
  7  8  2  0
  8  9  1  0
 10  9  1  6
 10 11  1  0
 10 43  1  0
 11 12  1  0
 12 13  1  0
 13 14  1  6
 13 15  1  0
 13 43  1  0
 15 16  2  0
 15 17  1  0
 17 18  1  0
 18 19  2  0
 18 42  1  0
 19 20  1  0
 20 21  2  0
 21 22  1  0
 21 34  1  0
 22 23  1  0
 23 24  1  0
 24 25  1  0
 25 26  1  0
 26 27  2  0
 26 28  1  0
 28 29  1  6
 28 30  1  0
 28 31  1  0
 31 30  1  6
 31 32  2  0
 31 33  2  0
 34 35  1  0
 34 42  2  0
 35 36  1  0
 36 37  1  0
 37 38  1  1
 37 39  1  0
 39 40  1  1
 39 41  1  0
M  CHG  1  36   1
M  END
