
     RDKit          3D

 39 43  0  0  0  0  0  0  0  0999 V2000
    9.5930    1.6260   -2.3680 C   0  0  0  0  0  0  0  0  0  0  0  0
    8.5690    1.3220   -3.4330 C   0  0  0  0  0  0  0  0  0  0  0  0
    7.3770    0.6250   -2.7950 C   0  0  0  0  0  0  0  0  0  0  0  0
    6.7910    1.5450   -1.7720 C   0  0  0  0  0  0  0  0  0  0  0  0
    5.6110    0.9970   -1.0710 C   0  0  0  0  0  0  0  0  0  0  0  0
    3.9650    1.4560   -1.4230 S   0  0  0  0  0  0  0  0  0  0  0  0
    3.1890    0.4080   -0.2300 C   0  0  0  0  0  0  0  0  0  0  0  0
    1.7870    0.2960   -0.0040 N   0  0  0  0  0  0  0  0  0  0  0  0
    1.1960   -0.7520   -0.5030 C   0  0  0  0  0  0  0  0  0  0  0  0
    2.0400   -2.0090   -1.4220 S   0  0  0  0  0  0  0  0  0  0  0  0
    0.5830   -2.9710   -1.7250 C   0  0  0  0  0  0  0  0  0  0  0  0
   -0.4350   -2.2360   -1.0870 C   0  0  0  0  0  0  0  0  0  0  0  0
   -1.7670   -2.9090   -1.1900 C   0  0  0  0  0  0  0  0  0  0  0  0
   -1.8590   -4.0150   -1.8760 O   0  0  0  0  0  0  0  0  0  0  0  0
   -2.9470   -2.5520   -0.6660 O   0  0  0  0  0  0  0  0  0  0  0  0
   -4.1660   -3.2440   -0.8070 C   0  0  0  0  0  0  0  0  0  0  0  0
   -0.0990   -1.1260   -0.4840 N   0  0  0  0  0  0  0  0  0  0  0  0
   -0.9910   -0.1570    0.1220 C   0  0  0  0  0  0  0  0  0  0  0  0
   -0.3910    0.7960    0.7600 O   0  0  0  0  0  0  0  0  0  0  0  0
   -2.4210   -0.0400    0.1440 C   0  0  0  0  0  0  0  0  0  0  0  0
   -2.8820    1.3310    0.6320 C   0  0  2  0  0  0  0  0  0  0  0  0
   -2.5130    1.6680    1.8830 O   0  0  0  0  0  0  0  0  0  0  0  0
   -1.9840    2.8970    2.1230 C   0  0  0  0  0  0  0  0  0  0  0  0
   -4.4070    1.2460    0.5290 C   0  0  0  0  0  0  0  0  0  0  0  0
   -5.0390    1.7500   -0.5850 C   0  0  0  0  0  0  0  0  0  0  0  0
   -6.4120    1.7190   -0.7210 C   0  0  0  0  0  0  0  0  0  0  0  0
   -7.1920    1.1650    0.2930 C   0  0  0  0  0  0  0  0  0  0  0  0
   -6.5750    0.6590    1.4090 C   0  0  0  0  0  0  0  0  0  0  0  0
   -5.1740    0.7010    1.5270 C   0  0  0  0  0  0  0  0  0  0  0  0
   -7.2600    0.0450    2.5730 C   0  0  0  0  0  0  0  0  0  0  0  0
   -8.7590    0.1170    2.4570 C   0  0  0  0  0  0  0  0  0  0  0  0
   -9.2090    0.0220    1.0140 C   0  0  0  0  0  0  0  0  0  0  0  0
   -8.6670    1.1340    0.1770 C   0  0  0  0  0  0  0  0  0  0  0  0
    4.2510   -0.2280    0.3650 C   0  0  0  0  0  0  0  0  0  0  0  0
    5.4890    0.0740   -0.0670 C   0  0  0  0  0  0  0  0  0  0  0  0
    6.7110   -0.6030    0.5510 C   0  0  0  0  0  0  0  0  0  0  0  0
    6.3600   -1.3540    1.7720 C   0  0  0  0  0  0  0  0  0  0  0  0
    5.1770   -2.1640    1.5370 N   0  0  0  0  0  0  0  0  0  0  0  0
    4.0490   -1.2540    1.4900 C   0  0  0  0  0  0  0  0  0  0  0  0
  1  2  1  0
  2  3  1  0
  3  4  1  0
  4  5  1  0
  5  6  1  0
  5 35  2  0
  6  7  1  0
  7  8  1  0
  7 34  2  0
  8  9  2  3
  9 10  1  0
  9 17  1  0
 10 11  1  0
 11 12  2  0
 12 13  1  0
 12 17  1  0
 13 14  2  0
 13 15  1  0
 15 16  1  0
 17 18  1  0
 18 19  2  0
 18 20  1  0
 21 20  1  1
 21 22  1  0
 21 24  1  0
 22 23  1  0
 24 25  2  0
 24 29  1  0
 25 26  1  0
 26 27  2  0
 27 28  1  0
 27 33  1  0
 28 29  2  0
 28 30  1  0
 30 31  1  0
 31 32  1  0
 32 33  1  0
 34 35  1  0
 34 39  1  0
 35 36  1  0
 36 37  1  0
 37 38  1  0
 38 39  1  0
M  CHG  1  38   1
M  END
