
     RDKit          3D

 39 43  0  0  0  0  0  0  0  0999 V2000
    7.7020    2.1620   -2.3620 C   0  0  0  0  0  0  0  0  0  0  0  0
    7.2840    0.7380   -2.1570 C   0  0  0  0  0  0  0  0  0  0  0  0
    7.5800   -0.3150   -2.9910 C   0  0  0  0  0  0  0  0  0  0  0  0
    6.9810   -1.4180   -2.3860 C   0  0  0  0  0  0  0  0  0  0  0  0
    6.3630   -0.9860   -1.2350 C   0  0  0  0  0  0  0  0  0  0  0  0
    5.5980   -1.8860   -0.2890 C   0  0  0  0  0  0  0  0  0  0  0  0
    5.6200   -3.2660   -0.5810 C   0  0  0  0  0  0  0  0  0  0  0  0
    4.6740   -3.9570    0.8150 S   0  0  0  0  0  0  0  0  0  0  0  0
    4.3600   -2.3480    1.6170 C   0  0  0  0  0  0  0  0  0  0  0  0
    3.7390   -2.1560    2.6550 O   0  0  0  0  0  0  0  0  0  0  0  0
    4.9940   -1.4510    0.7580 N   0  0  0  0  0  0  0  0  0  0  0  0
    4.9030    0.0110    1.1720 C   0  0  0  0  0  0  0  0  0  0  0  0
    3.5990    0.5730    0.7420 C   0  0  0  0  0  0  0  0  0  0  0  0
    2.5570    0.6840    1.6700 C   0  0  0  0  0  0  0  0  0  0  0  0
    1.3200    1.1750    1.3280 C   0  0  0  0  0  0  0  0  0  0  0  0
    1.0480    1.5840    0.0440 C   0  0  0  0  0  0  0  0  0  0  0  0
   -0.3170    2.1030   -0.3340 C   0  0  0  0  0  0  0  0  0  0  0  0
   -1.2220    2.0260    0.7640 N   0  0  0  0  0  0  0  0  0  0  0  0
   -1.2960    3.2930    1.5630 C   0  0  0  0  0  0  0  0  0  0  0  0
   -2.0290    0.9810    1.1990 C   0  0  0  0  0  0  0  0  0  0  0  0
   -2.7460    1.2260    2.2520 O   0  0  0  0  0  0  0  0  0  0  0  0
   -2.2120   -0.3580    0.6750 C   0  0  2  0  0  0  0  0  0  0  0  0
   -1.6690   -0.7510   -0.5680 N   0  0  0  0  0  0  0  0  0  0  0  0
   -2.4810   -0.4310   -1.7410 C   0  0  2  0  0  0  0  0  0  0  0  0
   -3.6520   -1.3230   -2.0920 C   0  0  0  0  0  0  0  0  0  0  0  0
   -2.4210   -1.3120   -2.9320 C   0  0  0  0  0  0  0  0  0  0  0  0
   -3.5700   -0.9180    0.9360 C   0  0  0  0  0  0  0  0  0  0  0  0
   -3.6870   -2.2330    1.3620 C   0  0  0  0  0  0  0  0  0  0  0  0
   -4.8700   -2.8460    1.6190 C   0  0  0  0  0  0  0  0  0  0  0  0
   -6.0360   -2.1400    1.4530 C   0  0  0  0  0  0  0  0  0  0  0  0
   -5.9710   -0.8510    1.0370 C   0  0  0  0  0  0  0  0  0  0  0  0
   -7.4890    0.0550    0.8200 S   0  0  0  0  0  0  0  0  0  0  0  0
   -7.9330    0.7740    2.4060 C   0  0  0  0  0  0  0  0  0  0  0  0
   -8.5650   -0.9580    0.4560 O   0  0  0  0  0  0  0  0  0  0  0  0
   -4.7380   -0.2260    0.7740 C   0  0  0  0  0  0  0  0  0  0  0  0
   -4.7900    1.1760    0.3330 C   0  0  0  0  0  0  0  0  0  0  0  0
    2.0760    1.4720   -0.8570 C   0  0  0  0  0  0  0  0  0  0  0  0
    3.3310    0.9760   -0.5180 C   0  0  0  0  0  0  0  0  0  0  0  0
    6.5860    0.2730   -1.1760 O   0  0  0  0  0  0  0  0  0  0  0  0
  1  2  1  0
  2  3  2  0
  2 39  1  0
  3  4  1  0
  4  5  2  0
  5  6  1  0
  5 39  1  0
  6  7  2  0
  6 11  1  0
  7  8  1  0
  8  9  1  0
  9 10  2  0
  9 11  1  0
 11 12  1  0
 12 13  1  0
 13 14  2  0
 13 38  1  0
 14 15  1  0
 15 16  2  0
 16 17  1  0
 16 37  1  0
 17 18  1  0
 18 19  1  0
 18 20  1  0
 20 21  2  0
 20 22  1  0
 22 23  1  6
 22 27  1  0
 24 23  1  1
 24 25  1  0
 24 26  1  0
 25 26  1  0
 27 28  2  0
 27 35  1  0
 28 29  1  0
 29 30  2  0
 30 31  1  0
 31 32  1  0
 31 35  2  0
 32 33  1  1
 32 34  2  0
 35 36  1  0
 37 38  2  0
M  CHG  1  23   1
M  END
