
     RDKit          3D

 24 26  0  0  0  0  0  0  0  0999 V2000
   -6.4320    1.3800    0.1000 C   0  0  0  0  0  0  0  0  0  0  0  0
   -4.9910    1.1640    0.0400 C   0  0  0  0  0  0  0  0  0  0  0  0
   -4.1380    2.1880   -0.2720 C   0  0  0  0  0  0  0  0  0  0  0  0
   -2.7590    1.9430   -0.3200 C   0  0  0  0  0  0  0  0  0  0  0  0
   -2.2000    0.7240   -0.0700 C   0  0  0  0  0  0  0  0  0  0  0  0
   -0.8150    0.4070   -0.1010 N   0  0  0  0  0  0  0  0  0  0  0  0
    0.2550    1.2670   -0.4010 C   0  0  0  0  0  0  0  0  0  0  0  0
    0.0130    2.4590   -0.6790 O   0  0  0  0  0  0  0  0  0  0  0  0
    1.6560    0.8510   -0.4090 C   0  0  0  0  0  0  0  0  0  0  0  0
    2.6340    1.7800   -0.7170 C   0  0  0  0  0  0  0  0  0  0  0  0
    3.9830    1.5030   -0.7550 C   0  0  0  0  0  0  0  0  0  0  0  0
    4.4010    0.2050   -0.4670 C   0  0  0  0  0  0  0  0  0  0  0  0
    3.4570   -0.7460   -0.1560 C   0  0  0  0  0  0  0  0  0  0  0  0
    2.1010   -0.4130   -0.1310 C   0  0  0  0  0  0  0  0  0  0  0  0
    3.6900   -2.1710    0.1790 C   0  0  0  0  0  0  0  0  0  0  0  0
    4.8890   -2.3340    1.0530 C   0  0  0  0  0  0  0  0  0  0  0  0
    4.8460   -3.1900    1.9720 O   0  0  0  0  0  0  0  0  0  0  0  0
    6.0720   -1.6440    0.9750 O   0  0  0  0  0  0  0  0  0  0  0  0
    6.6970   -0.9800   -0.1170 C   0  0  0  0  0  0  0  0  0  0  0  0
    5.8180    0.1100   -0.5550 N   0  0  0  0  0  0  0  0  0  0  0  0
   -3.1100   -0.3010    0.2470 C   0  0  0  0  0  0  0  0  0  0  0  0
   -4.4690   -0.0840    0.3000 C   0  0  0  0  0  0  0  0  0  0  0  0
   -5.3990   -1.1700    0.6340 C   0  0  0  0  0  0  0  0  0  0  0  0
   -4.4680   -2.6880    0.9270 S   0  0  0  0  0  0  0  0  0  0  0  0
  1  2  1  0
  2  3  2  0
  2 22  1  0
  3  4  1  0
  4  5  2  0
  5  6  1  0
  5 21  1  0
  6  7  1  0
  7  8  2  0
  7  9  1  0
  9 10  2  0
  9 14  1  0
 10 11  1  0
 11 12  2  0
 12 13  1  0
 12 20  1  0
 13 14  2  0
 13 15  1  0
 15 16  1  0
 16 17  2  0
 16 18  1  0
 18 19  1  0
 19 20  1  0
 21 22  2  0
 22 23  1  0
 23 24  1  0
M  END
