
     RDKit          3D

 24 26  0  0  0  0  0  0  0  0999 V2000
    7.2910    1.7540   -0.4880 C   0  0  0  0  0  0  0  0  0  0  0  0
    6.0540    1.3050   -1.2060 C   0  0  0  0  0  0  0  0  0  0  0  0
    6.0440    1.3810   -2.4480 O   0  0  0  0  0  0  0  0  0  0  0  0
    4.9500    0.8120   -0.4360 C   0  0  0  0  0  0  0  0  0  0  0  0
    5.0500    0.7220    1.4240 S   0  0  0  0  0  0  0  0  0  0  0  0
    3.3960    0.0450    1.5980 C   0  0  0  0  0  0  0  0  0  0  0  0
    2.7730   -0.2900    2.8110 N   0  0  0  0  0  0  0  0  0  0  0  0
    2.8980   -0.0620    0.2760 C   0  0  0  0  0  0  0  0  0  0  0  0
    1.5060   -0.6190    0.0890 C   0  0  0  0  0  0  0  0  0  0  0  0
    0.9970   -0.7500   -1.0340 O   0  0  0  0  0  0  0  0  0  0  0  0
    0.7460   -1.0060    1.1720 O   0  0  0  0  0  0  0  0  0  0  0  0
   -0.5380   -1.5200    1.0750 C   0  0  0  0  0  0  0  0  0  0  0  0
   -1.5370   -0.6180    0.4730 C   0  0  0  0  0  0  0  0  0  0  0  0
   -1.3730    0.6670    0.0240 C   0  0  0  0  0  0  0  0  0  0  0  0
   -2.5980    1.1000   -0.4420 C   0  0  0  0  0  0  0  0  0  0  0  0
   -2.9070    2.4530   -1.0330 C   0  0  0  0  0  0  0  0  0  0  0  0
   -3.4790    0.1150   -0.2840 N   0  0  0  0  0  0  0  0  0  0  0  0
   -2.8590   -0.9380    0.2700 C   0  0  0  0  0  0  0  0  0  0  0  0
   -3.7030   -2.1500    0.5250 C   0  0  0  0  0  0  0  0  0  0  0  0
   -4.9420   -1.6090    1.2510 C   0  0  0  0  0  0  0  0  0  0  0  0
   -5.7140   -0.8100    0.2390 C   0  0  0  0  0  0  0  0  0  0  0  0
   -4.8940    0.0860   -0.6220 C   0  0  0  0  0  0  0  0  0  0  0  0
    3.7150    0.3350   -0.7010 C   0  0  0  0  0  0  0  0  0  0  0  0
    3.2500    0.2650   -2.1630 C   0  0  0  0  0  0  0  0  0  0  0  0
  1  2  1  0
  2  3  2  0
  2  4  1  0
  4  5  1  0
  4 23  2  0
  5  6  1  0
  6  7  1  0
  6  8  2  0
  8  9  1  0
  8 23  1  0
  9 10  2  0
  9 11  1  0
 11 12  1  0
 12 13  1  0
 13 14  1  0
 13 18  2  0
 14 15  2  0
 15 16  1  0
 15 17  1  0
 17 18  1  0
 17 22  1  0
 18 19  1  0
 19 20  1  0
 20 21  1  0
 21 22  1  0
 23 24  1  0
M  END
