
     RDKit          3D

 24 26  0  0  0  0  0  0  0  0999 V2000
    2.7070   -2.1990   -0.3170 C   0  0  0  0  0  0  0  0  0  0  0  0
    3.7030   -1.1240   -0.0970 C   0  0  0  0  0  0  0  0  0  0  0  0
    5.0340   -1.5180    0.1060 C   0  0  0  0  0  0  0  0  0  0  0  0
    6.0250   -0.5970    0.3580 C   0  0  0  0  0  0  0  0  0  0  0  0
    5.7320    0.7510    0.4180 C   0  0  0  0  0  0  0  0  0  0  0  0
    7.0230    1.8850    0.7410 S   0  0  1  0  0  0  0  0  0  0  0  0
    8.2030    1.4790   -0.0950 O   0  0  0  0  0  0  0  0  0  0  0  0
    6.6260    3.2890    0.4020 O   0  0  0  0  0  0  0  0  0  0  0  0
    4.4410    1.1100    0.2180 C   0  0  0  0  0  0  0  0  0  0  0  0
    3.3970    0.2050   -0.0430 C   0  0  0  0  0  0  0  0  0  0  0  0
    2.0970    0.7570   -0.2830 C   0  0  0  0  0  0  0  0  0  0  0  0
    1.8170    1.9150    0.2320 O   0  0  0  0  0  0  0  0  0  0  0  0
    1.0330    0.2110   -1.0290 N   0  0  0  0  0  0  0  0  0  0  0  0
   -0.2090    0.8890   -1.1660 N   0  0  0  0  0  0  0  0  0  0  0  0
   -1.3930    0.4270   -0.5530 C   0  0  0  0  0  0  0  0  0  0  0  0
   -1.4450   -0.7090    0.2250 C   0  0  0  0  0  0  0  0  0  0  0  0
   -2.5880   -1.1640    0.8230 C   0  0  0  0  0  0  0  0  0  0  0  0
   -3.7600   -0.4600    0.6480 C   0  0  0  0  0  0  0  0  0  0  0  0
   -3.7290    0.6900   -0.1340 C   0  0  0  0  0  0  0  0  0  0  0  0
   -2.5540    1.1250   -0.7270 C   0  0  0  0  0  0  0  0  0  0  0  0
   -5.0220    1.4010   -0.2830 C   0  0  0  0  0  0  0  0  0  0  0  0
   -6.0450    0.3630   -0.7360 C   0  0  0  0  0  0  0  0  0  0  0  0
   -6.1180   -0.8260    0.1580 C   0  0  0  0  0  0  0  0  0  0  0  0
   -5.0540   -0.8440    1.2360 C   0  0  0  0  0  0  0  0  0  0  0  0
  1  2  1  0
  2  3  2  0
  2 10  1  0
  3  4  1  0
  4  5  2  0
  6  5  1  6
  5  9  1  0
  6  7  2  0
  6  8  2  0
  9 10  2  0
 10 11  1  0
 11 12  2  0
 11 13  1  0
 13 14  1  0
 14 15  1  0
 15 16  2  0
 15 20  1  0
 16 17  1  0
 17 18  2  0
 18 19  1  0
 18 24  1  0
 19 20  2  0
 19 21  1  0
 21 22  1  0
 22 23  1  0
 23 24  1  0
M  END
