
     RDKit          3D

 15 15  0  0  0  0  0  0  0  0999 V2000
   -2.5670    3.0610   -0.8660 C   0  0  0  0  0  0  0  0  0  0  0  0
   -3.3430    2.3020   -0.1510 C   0  0  0  0  0  0  0  0  0  0  0  0
   -2.9420    1.0750    0.5400 C   0  0  0  0  0  0  0  0  0  0  0  0
   -3.8480    0.4340    1.2150 C   0  0  0  0  0  0  0  0  0  0  0  0
   -1.6100    0.6510    0.4430 N   0  0  0  0  0  0  0  0  0  0  0  0
   -1.0180   -0.4970    1.0280 C   0  0  0  0  0  0  0  0  0  0  0  0
   -1.7290   -1.2510    1.7220 O   0  0  0  0  0  0  0  0  0  0  0  0
    0.4330   -0.8140    0.8270 C   0  0  1  0  0  0  0  0  0  0  0  0
    0.5000   -2.1920    0.1710 C   0  0  0  0  0  0  0  0  0  0  0  0
    2.2530   -2.5850   -0.0710 S   0  0  0  0  0  0  0  0  0  0  0  0
    3.1390   -1.0040    0.0460 C   0  0  1  0  0  0  0  0  0  0  0  0
    4.4860   -1.0730   -0.6300 C   0  0  0  0  0  0  0  0  0  0  0  0
    2.2580    0.0190   -0.5750 C   0  0  0  0  0  0  0  0  0  0  0  0
    2.6340    0.6900   -1.5690 O   0  0  0  0  0  0  0  0  0  0  0  0
    1.0060    0.1760    0.0170 O   0  0  0  0  0  0  0  0  0  0  0  0
  1  2  2  0
  2  3  1  0
  3  4  2  0
  3  5  1  0
  5  6  1  0
  6  7  2  0
  8  6  1  6
  8  9  1  0
  8 15  1  0
  9 10  1  0
 10 11  1  0
 11 12  1  6
 11 13  1  0
 13 14  2  0
 13 15  1  0
M  END
