
     RDKit          3D

 10 10  0  0  0  0  0  0  0  0999 V2000
    3.9290   -0.2820    0.4190 C   0  0  0  0  0  0  0  0  0  0  0  0
    2.7390   -0.4200   -0.2880 O   0  0  0  0  0  0  0  0  0  0  0  0
    1.7040    0.3200    0.2730 C   0  0  0  0  0  0  0  0  0  0  0  0
    0.4800    0.1050   -0.5560 C   0  0  2  0  0  0  0  0  0  0  0  0
   -0.6800    0.9860   -0.1490 C   0  0  0  0  0  0  0  0  0  0  0  0
   -1.8980    0.2390   -0.5020 N   0  0  0  0  0  0  0  0  0  0  0  0
   -3.0530    1.0770   -0.5660 C   0  0  0  0  0  0  0  0  0  0  0  0
   -2.0060   -0.8410    0.4500 C   0  0  0  0  0  0  0  0  0  0  0  0
   -0.7080   -1.6110    0.4330 C   0  0  0  0  0  0  0  0  0  0  0  0
    0.1500   -1.2270   -0.5690 O   0  0  0  0  0  0  0  0  0  0  0  0
  1  2  1  0
  2  3  1  0
  4  3  1  1
  4  5  1  0
  4 10  1  0
  5  6  1  0
  6  7  1  0
  6  8  1  0
  8  9  1  0
  9 10  1  0
M  END
