
     RDKit          3D

 10 10  0  0  0  0  0  0  0  0999 V2000
    2.2040   -0.4440    0.2750 C   0  0  0  0  0  0  0  0  0  0  0  0
    1.0090   -0.4160   -0.6060 C   0  0  0  0  0  0  0  0  0  0  0  0
   -0.1540    0.3610   -0.0570 C   0  0  1  0  0  0  0  0  0  0  0  0
    0.1310    1.7930    0.2040 C   0  0  0  0  0  0  0  0  0  0  0  0
   -1.3480    0.2340   -0.9720 C   0  0  0  0  0  0  0  0  0  0  0  0
   -1.9100   -1.0970   -0.5610 C   0  0  0  0  0  0  0  0  0  0  0  0
   -2.5280   -1.9370   -1.2600 O   0  0  0  0  0  0  0  0  0  0  0  0
   -1.5920   -1.2290    0.8360 N   0  0  0  0  0  0  0  0  0  0  0  0
   -0.6220   -0.2680    1.1940 C   0  0  0  0  0  0  0  0  0  0  0  0
   -0.2200    0.0140    2.3400 O   0  0  0  0  0  0  0  0  0  0  0  0
  1  2  1  0
  2  3  1  0
  3  4  1  1
  3  5  1  0
  3  9  1  0
  5  6  1  0
  6  7  2  0
  6  8  1  0
  8  9  1  0
  9 10  2  0
M  END
