
     RDKit          3D

 10 10  0  0  0  0  0  0  0  0999 V2000
   -2.7030   -0.6440    0.1830 C   0  0  0  0  0  0  0  0  0  0  0  0
   -1.6840   -0.2040   -0.8200 C   0  0  0  0  0  0  0  0  0  0  0  0
   -1.9990   -0.1380   -1.9730 O   0  0  0  0  0  0  0  0  0  0  0  0
   -0.3260    0.1260   -0.2930 C   0  0  1  0  0  0  0  0  0  0  0  0
   -0.5310    1.2360    0.7210 C   0  0  0  0  0  0  0  0  0  0  0  0
    0.2370   -1.1220    0.3180 C   0  0  0  0  0  0  0  0  0  0  0  0
    1.6640   -1.2400    0.1920 N   0  0  0  0  0  0  0  0  0  0  0  0
    2.3420    0.0280    0.1890 C   0  0  0  0  0  0  0  0  0  0  0  0
    1.7240    0.9440   -0.8160 C   0  0  0  0  0  0  0  0  0  0  0  0
    0.5230    0.5200   -1.3220 O   0  0  0  0  0  0  0  0  0  0  0  0
  1  2  1  0
  2  3  2  0
  2  4  1  0
  4  5  1  1
  4  6  1  0
  4 10  1  0
  6  7  1  0
  7  8  1  0
  8  9  1  0
  9 10  1  0
M  END
