
     RDKit          3D

 28 31  0  0  0  0  0  0  0  0999 V2000
    0.3970   -2.2460   -2.3780 C   0  0  0  0  0  0  0  0  0  0  0  0
    0.5880   -1.7500   -1.0380 N   0  0  0  0  0  0  0  0  0  0  0  0
    1.8080   -1.1260   -0.6950 N   0  0  0  0  0  0  0  0  0  0  0  0
    1.9580   -0.4250    0.3520 C   0  0  0  0  0  0  0  0  0  0  0  0
    3.2570    0.2200    0.6890 C   0  0  0  0  0  0  0  0  0  0  0  0
    3.3650    0.9040    1.7290 O   0  0  0  0  0  0  0  0  0  0  0  0
    4.3640    0.0660   -0.1570 N   0  0  0  0  0  0  0  0  0  0  0  0
    5.6490    0.6050    0.0090 C   0  0  0  0  0  0  0  0  0  0  0  0
    6.0150    1.5150    0.9640 C   0  0  0  0  0  0  0  0  0  0  0  0
    7.3280    2.0040    1.0770 C   0  0  0  0  0  0  0  0  0  0  0  0
    8.2970    1.5690    0.2110 C   0  0  0  0  0  0  0  0  0  0  0  0
    7.9270    0.6780   -0.7200 N   0  0  0  0  0  0  0  0  0  0  0  0
    6.6910    0.1980   -0.8500 C   0  0  0  0  0  0  0  0  0  0  0  0
    0.8260   -0.2250    1.2830 C   0  0  0  0  0  0  0  0  0  0  0  0
    0.0140   -1.4990    1.3250 C   0  0  0  0  0  0  0  0  0  0  0  0
   -0.4640   -1.8940   -0.0600 C   0  0  1  0  0  0  0  0  0  0  0  0
   -1.5700   -0.9480   -0.4420 C   0  0  0  0  0  0  0  0  0  0  0  0
   -1.3790   -0.2420   -1.4510 O   0  0  0  0  0  0  0  0  0  0  0  0
   -2.7260   -0.9310    0.3600 N   0  0  0  0  0  0  0  0  0  0  0  0
   -3.8160   -0.0800    0.0890 C   0  0  0  0  0  0  0  0  0  0  0  0
   -3.8910    0.8940   -0.8570 C   0  0  0  0  0  0  0  0  0  0  0  0
   -5.0180    1.6840   -1.0580 C   0  0  0  0  0  0  0  0  0  0  0  0
   -6.1220    1.4620   -0.2480 C   0  0  0  0  0  0  0  0  0  0  0  0
   -6.0780    0.4800    0.7230 C   0  0  0  0  0  0  0  0  0  0  0  0
   -4.9470   -0.2760    0.8880 C   0  0  0  0  0  0  0  0  0  0  0  0
   -7.3230    0.5040    1.3590 O   0  0  0  0  0  0  0  0  0  0  0  0
   -8.2490    1.1730    0.5060 C   0  0  0  0  0  0  0  0  0  0  0  0
   -7.3770    2.0500   -0.1770 O   0  0  0  0  0  0  0  0  0  0  0  0
  1  2  1  0
  2  3  1  0
  2 16  1  0
  3  4  2  0
  4  5  1  0
  4 14  1  0
  5  6  2  0
  5  7  1  0
  7  8  1  0
  8  9  2  0
  8 13  1  0
  9 10  1  0
 10 11  2  0
 11 12  1  0
 12 13  2  0
 14 15  1  0
 15 16  1  0
 16 17  1  6
 17 18  2  0
 17 19  1  0
 19 20  1  0
 20 21  2  0
 20 25  1  0
 21 22  1  0
 22 23  2  0
 23 24  1  0
 23 28  1  0
 24 25  2  0
 24 26  1  0
 26 27  1  0
 27 28  1  0
M  END
