
     RDKit          3D

 13 13  0  0  0  0  0  0  0  0999 V2000
   -2.8350    0.1940   -2.0310 C   0  0  0  0  0  0  0  0  0  0  0  0
   -1.4860    0.4080   -1.4270 C   0  0  0  0  0  0  0  0  0  0  0  0
   -1.0700   -0.3420   -0.3870 C   0  0  0  0  0  0  0  0  0  0  0  0
   -2.0290   -1.3440    0.0780 C   0  0  0  0  0  0  0  0  0  0  0  0
    0.2700   -0.1240    0.1270 C   0  0  0  0  0  0  0  0  0  0  0  0
    0.6700   -0.8290    1.1670 C   0  0  0  0  0  0  0  0  0  0  0  0
   -0.1700   -1.7840    1.7830 N   0  0  0  0  0  0  0  0  0  0  0  0
    2.2640   -0.7410    2.0170 S   0  0  0  0  0  0  0  0  0  0  0  0
    3.2790    0.6150    1.4720 C   0  0  0  0  0  0  0  0  0  0  0  0
    2.5090    1.8870    1.2150 C   0  0  0  0  0  0  0  0  0  0  0  0
    1.8990    1.8940   -0.0610 O   0  0  0  0  0  0  0  0  0  0  0  0
    1.1230    0.8630   -0.5880 C   0  0  0  0  0  0  0  0  0  0  0  0
    1.1020    0.6930   -1.8440 O   0  0  0  0  0  0  0  0  0  0  0  0
  1  2  1  0
  2  3  2  3
  3  4  1  0
  3  5  1  0
  5  6  2  0
  5 12  1  0
  6  7  1  0
  6  8  1  0
  8  9  1  0
  9 10  1  0
 10 11  1  0
 11 12  1  0
 12 13  2  0
M  END
