
     RDKit          3D

 28 31  0  0  0  0  0  0  0  0999 V2000
    8.4660    1.4450   -1.9130 C   0  0  0  0  0  0  0  0  0  0  0  0
    7.1680    1.4830   -2.4700 O   0  0  0  0  0  0  0  0  0  0  0  0
    6.0520    0.9870   -1.8330 C   0  0  0  0  0  0  0  0  0  0  0  0
    6.1680    0.4750   -0.7070 O   0  0  0  0  0  0  0  0  0  0  0  0
    4.7650    1.0660   -2.4760 C   0  0  0  0  0  0  0  0  0  0  0  0
    3.7020    0.5740   -1.8260 C   0  0  0  0  0  0  0  0  0  0  0  0
    3.8220   -0.0120   -0.5440 N   0  0  0  0  0  0  0  0  0  0  0  0
    2.8370   -0.4970    0.1160 C   0  0  0  0  0  0  0  0  0  0  0  0
    2.9200   -1.1180    1.4600 C   0  0  0  0  0  0  0  0  0  0  0  0
    1.9130   -0.3910    2.3220 C   0  0  0  0  0  0  0  0  0  0  0  0
    0.6100   -0.5160    1.7180 N   0  0  0  0  0  0  0  0  0  0  0  0
   -0.5280   -0.1140    2.4830 C   0  0  0  0  0  0  0  0  0  0  0  0
   -0.3580    0.3290    3.6400 O   0  0  0  0  0  0  0  0  0  0  0  0
   -1.8580   -0.2240    1.9120 C   0  0  0  0  0  0  0  0  0  0  0  0
   -2.4150    0.8130    1.2020 C   0  0  0  0  0  0  0  0  0  0  0  0
   -3.6500    0.6500    0.7000 N   0  0  0  0  0  0  0  0  0  0  0  0
   -4.3650   -0.4800    0.8610 C   0  0  0  0  0  0  0  0  0  0  0  0
   -5.6970   -0.5510    0.2740 C   0  0  2  0  0  0  0  0  0  0  0  0
   -5.6840   -0.1330   -1.1880 C   0  0  0  0  0  0  0  0  0  0  0  0
   -7.0700    0.4510   -0.9380 C   0  0  0  0  0  0  0  0  0  0  0  0
   -6.6340    0.5880    0.5280 C   0  0  0  0  0  0  0  0  0  0  0  0
   -3.7950   -1.4760    1.5590 N   0  0  0  0  0  0  0  0  0  0  0  0
   -2.5590   -1.3870    2.0940 C   0  0  0  0  0  0  0  0  0  0  0  0
   -2.0890   -2.3600    2.7360 O   0  0  0  0  0  0  0  0  0  0  0  0
    0.4190   -1.0380    0.3560 C   0  0  0  0  0  0  0  0  0  0  0  0
    1.5090   -0.4460   -0.4810 C   0  0  0  0  0  0  0  0  0  0  0  0
    1.3130    0.0810   -1.6680 C   0  0  0  0  0  0  0  0  0  0  0  0
    2.4010    0.6190   -2.4030 N   0  0  0  0  0  0  0  0  0  0  0  0
  1  2  1  0
  2  3  1  0
  3  4  2  0
  3  5  1  0
  5  6  2  3
  6  7  1  0
  6 28  1  0
  7  8  2  0
  8  9  1  0
  8 26  1  0
  9 10  1  0
 10 11  1  0
 11 12  1  0
 11 25  1  0
 12 13  2  0
 12 14  1  0
 14 15  2  0
 14 23  1  0
 15 16  1  0
 16 17  2  0
 18 17  1  1
 17 22  1  0
 18 19  1  0
 18 21  1  0
 19 20  1  0
 20 21  1  0
 22 23  1  0
 23 24  2  0
 25 26  1  0
 26 27  2  0
 27 28  1  0
M  END
