
     RDKit          3D

 15 14  0  0  0  0  0  0  0  0999 V2000
    6.0000   -0.6600   -0.4260 C   0  0  0  0  0  0  0  0  0  0  0  0
    4.6370   -0.8660    0.1130 C   0  0  0  0  0  0  0  0  0  0  0  0
    3.6670   -0.0160   -0.1280 C   0  0  0  0  0  0  0  0  0  0  0  0
    3.9400    1.1730   -0.9550 C   0  0  0  0  0  0  0  0  0  0  0  0
    2.4220   -0.2210    0.3760 O   0  0  0  0  0  0  0  0  0  0  0  0
    1.2140    0.0090   -0.3130 C   0  0  0  0  0  0  0  0  0  0  0  0
    0.0720   -0.3550    0.6310 C   0  0  2  0  0  0  0  0  0  0  0  0
    0.1940    0.5000    1.8700 C   0  0  0  0  0  0  0  0  0  0  0  0
    0.1570   -1.6760    1.0010 O   0  0  0  0  0  0  0  0  0  0  0  0
   -1.2140   -0.0640   -0.1250 C   0  0  0  0  0  0  0  0  0  0  0  0
   -2.4390   -0.3810    0.6970 C   0  0  2  0  0  0  0  0  0  0  0  0
   -2.4130   -1.8510    1.0570 C   0  0  0  0  0  0  0  0  0  0  0  0
   -3.6460   -0.1580   -0.1800 C   0  0  0  0  0  0  0  0  0  0  0  0
   -3.7530    1.2550   -0.6820 C   0  0  0  0  0  0  0  0  0  0  0  0
   -5.0020    1.3310   -1.5440 C   0  0  0  0  0  0  0  0  0  0  0  0
  1  2  1  0
  2  3  2  3
  3  4  1  0
  3  5  1  0
  5  6  1  0
  6  7  1  0
  7  8  1  1
  7  9  1  0
  7 10  1  0
 10 11  1  0
 11 12  1  6
 11 13  1  0
 13 14  1  0
 14 15  1  0
M  END
