
     RDKit          3D

 19 21  0  0  0  0  0  0  0  0999 V2000
    4.7980   -0.6450    1.5060 C   0  0  0  0  0  0  0  0  0  0  0  0
    3.8270   -0.2900    0.6800 C   0  0  0  0  0  0  0  0  0  0  0  0
    2.4360   -0.2460    0.9590 N   0  0  0  0  0  0  0  0  0  0  0  0
    1.7580    0.1360   -0.0380 C   0  0  0  0  0  0  0  0  0  0  0  0
    0.3260    0.3020   -0.1300 C   0  0  0  0  0  0  0  0  0  0  0  0
   -0.2040    1.4030   -0.8020 C   0  0  0  0  0  0  0  0  0  0  0  0
   -1.5390    1.6420   -0.9430 C   0  0  0  0  0  0  0  0  0  0  0  0
   -2.0520    2.7640   -1.6280 N   0  0  0  0  0  0  0  0  0  0  0  0
   -2.4060    0.7490   -0.3920 C   0  0  0  0  0  0  0  0  0  0  0  0
   -3.8750    0.9150   -0.4870 C   0  0  0  0  0  0  0  0  0  0  0  0
   -1.9450   -0.3730    0.2930 C   0  0  0  0  0  0  0  0  0  0  0  0
   -2.8310   -1.2650    0.8380 C   0  0  0  0  0  0  0  0  0  0  0  0
   -2.4060   -2.3810    1.5120 C   0  0  0  0  0  0  0  0  0  0  0  0
   -1.0560   -2.6060    1.6430 C   0  0  0  0  0  0  0  0  0  0  0  0
   -0.1590   -1.7070    1.0950 C   0  0  0  0  0  0  0  0  0  0  0  0
   -0.5650   -0.5860    0.4180 C   0  0  0  0  0  0  0  0  0  0  0  0
    2.6170    0.4100   -1.1580 N   0  0  0  0  0  0  0  0  0  0  0  0
    3.9460    0.1400   -0.7070 C   0  0  0  0  0  0  0  0  0  0  0  0
    5.0610    0.2380   -1.3500 N   0  0  0  0  0  0  0  0  0  0  0  0
  1  2  2  0
  2  3  1  0
  2 18  1  0
  3  4  2  0
  4  5  1  0
  4 17  1  0
  5  6  2  0
  5 16  1  0
  6  7  1  0
  7  8  1  0
  7  9  2  0
  9 10  1  0
  9 11  1  0
 11 12  2  0
 11 16  1  0
 12 13  1  0
 13 14  2  0
 14 15  1  0
 15 16  2  0
 17 18  1  0
 18 19  2  0
M  END
