
     RDKit          3D

 11 12  0  0  0  0  0  0  0  0999 V2000
    0.5320    2.0660    1.0800 C   0  0  0  0  0  0  0  0  0  0  0  0
    0.0760    1.0380    0.3730 C   0  0  0  0  0  0  0  0  0  0  0  0
   -1.3000    0.8610   -0.1560 C   0  0  0  0  0  0  0  0  0  0  0  0
   -1.4010   -0.5720   -0.3560 N   0  0  0  0  0  0  0  0  0  0  0  0
   -2.6760   -1.2800   -0.4150 C   0  0  0  0  0  0  0  0  0  0  0  0
   -0.0910   -1.0580   -0.4670 C   0  0  0  0  0  0  0  0  0  0  0  0
    0.5960   -2.1550   -0.8580 N   0  0  0  0  0  0  0  0  0  0  0  0
    1.8580   -1.8760   -0.6700 N   0  0  0  0  0  0  0  0  0  0  0  0
    2.0260   -0.6480   -0.1740 C   0  0  0  0  0  0  0  0  0  0  0  0
    3.2630   -0.0250    0.1490 N   0  0  0  0  0  0  0  0  0  0  0  0
    0.7870   -0.1220   -0.0420 N   0  0  0  0  0  0  0  0  0  0  0  0
  1  2  2  0
  2  3  1  0
  2 11  1  0
  3  4  1  0
  4  5  1  0
  4  6  1  0
  6  7  2  0
  6 11  1  0
  7  8  1  0
  8  9  2  0
  9 10  1  0
  9 11  1  0
M  END
