
     RDKit          3D

 11 12  0  0  0  0  0  0  0  0999 V2000
    2.5270   -0.9780    0.1200 C   0  0  0  0  0  0  0  0  0  0  0  0
    1.1080   -0.5280    0.0610 C   0  0  0  0  0  0  0  0  0  0  0  0
    0.0840   -1.3950    0.1410 N   0  0  0  0  0  0  0  0  0  0  0  0
   -1.1890   -0.9170    0.0800 C   0  0  0  0  0  0  0  0  0  0  0  0
   -2.3710   -1.5570    0.1360 N   0  0  0  0  0  0  0  0  0  0  0  0
   -3.3970   -0.6950    0.0380 C   0  0  0  0  0  0  0  0  0  0  0  0
   -2.8160    0.5460   -0.0850 C   0  0  0  0  0  0  0  0  0  0  0  0
   -1.4820    0.3850   -0.0570 N   0  0  0  0  0  0  0  0  0  0  0  0
   -0.4620    1.2520   -0.1370 N   0  0  0  0  0  0  0  0  0  0  0  0
    0.7850    0.8060   -0.0800 C   0  0  0  0  0  0  0  0  0  0  0  0
    1.8720    1.7190   -0.1640 N   0  0  0  0  0  0  0  0  0  0  0  0
  1  2  1  0
  2  3  2  0
  2 10  1  0
  3  4  1  0
  4  5  2  0
  4  8  1  0
  5  6  1  0
  6  7  2  0
  7  8  1  0
  8  9  1  0
  9 10  2  0
 10 11  1  0
M  END
