
     RDKit          3D

 11 12  0  0  0  0  0  0  0  0999 V2000
    3.2320    0.0150    0.0190 C   0  0  0  0  0  0  0  0  0  0  0  0
    1.7850   -0.3020   -0.0400 C   0  0  0  0  0  0  0  0  0  0  0  0
    0.7400    0.5790    0.0970 C   0  0  0  0  0  0  0  0  0  0  0  0
   -0.4050   -0.1170   -0.0210 N   0  0  0  0  0  0  0  0  0  0  0  0
   -1.7220    0.2420    0.0290 C   0  0  0  0  0  0  0  0  0  0  0  0
   -2.0550    1.6090    0.2470 N   0  0  0  0  0  0  0  0  0  0  0  0
   -2.7350   -0.6830   -0.1250 C   0  0  0  0  0  0  0  0  0  0  0  0
   -2.3690   -1.9630   -0.3290 N   0  0  0  0  0  0  0  0  0  0  0  0
   -1.0960   -2.3280   -0.3810 N   0  0  0  0  0  0  0  0  0  0  0  0
   -0.1230   -1.4030   -0.2270 C   0  0  0  0  0  0  0  0  0  0  0  0
    1.2220   -1.5070   -0.2360 N   0  0  0  0  0  0  0  0  0  0  0  0
  1  2  1  0
  2  3  2  0
  2 11  1  0
  3  4  1  0
  4  5  1  0
  4 10  1  0
  5  6  1  0
  5  7  2  0
  7  8  1  0
  8  9  2  0
  9 10  1  0
 10 11  2  0
M  END
