
     RDKit          3D

 11 12  0  0  0  0  0  0  0  0999 V2000
    1.5680   -1.4620   -0.1020 C   0  0  0  0  0  0  0  0  0  0  0  0
    0.7190   -0.2280    0.0110 C   0  0  0  0  0  0  0  0  0  0  0  0
    1.1320    1.0690    0.2120 C   0  0  0  0  0  0  0  0  0  0  0  0
    2.4660    1.5210    0.3580 N   0  0  0  0  0  0  0  0  0  0  0  0
    0.0340    1.8440    0.2470 N   0  0  0  0  0  0  0  0  0  0  0  0
   -1.0840    1.0770    0.0720 C   0  0  0  0  0  0  0  0  0  0  0  0
   -2.3930    1.3750    0.0290 N   0  0  0  0  0  0  0  0  0  0  0  0
   -3.2900    0.3970   -0.1600 C   0  0  0  0  0  0  0  0  0  0  0  0
   -2.8510   -0.8620   -0.3020 N   0  0  0  0  0  0  0  0  0  0  0  0
   -1.5430   -1.1370   -0.2560 C   0  0  0  0  0  0  0  0  0  0  0  0
   -0.6230   -0.1730   -0.0670 N   0  0  0  0  0  0  0  0  0  0  0  0
  1  2  1  0
  2  3  2  0
  2 11  1  0
  3  4  1  0
  3  5  1  0
  5  6  2  0
  6  7  1  0
  6 11  1  0
  7  8  2  0
  8  9  1  0
  9 10  2  0
 10 11  1  0
M  END
