
     RDKit          3D

  7  7  0  0  0  0  0  0  0  0999 V2000
    2.7810    1.0010    0.1750 S   0  0  0  0  0  0  0  0  0  0  0  0
    1.1940    0.6020    0.1450 C   0  0  0  0  0  0  0  0  0  0  0  0
    0.2140    1.6030   -0.0760 N   0  0  0  0  0  0  0  0  0  0  0  0
   -1.0380    1.3020   -0.1020 C   0  0  0  0  0  0  0  0  0  0  0  0
   -1.4310   -0.0130    0.0870 O   0  0  0  0  0  0  0  0  0  0  0  0
   -0.5510   -1.0910   -0.2010 C   0  0  0  0  0  0  0  0  0  0  0  0
    0.7490   -0.7360    0.3350 N   0  0  0  0  0  0  0  0  0  0  0  0
  1  2  2  0
  2  3  1  0
  2  7  1  0
  3  4  2  0
  4  5  1  0
  5  6  1  0
  6  7  1  0
M  END
