
     RDKit          3D

  7  7  0  0  0  0  0  0  0  0999 V2000
    3.0560   -1.1960   -0.2370 S   0  0  0  0  0  0  0  0  0  0  0  0
    1.5570   -0.5440   -0.0790 C   0  0  0  0  0  0  0  0  0  0  0  0
    1.3510    0.8580    0.0590 N   0  0  0  0  0  0  0  0  0  0  0  0
    0.1850    1.3960    0.1840 C   0  0  0  0  0  0  0  0  0  0  0  0
   -0.9810    0.5780    0.1900 N   0  0  0  0  0  0  0  0  0  0  0  0
   -0.8930   -0.8310   -0.1500 C   0  0  0  0  0  0  0  0  0  0  0  0
    0.4110   -1.3250   -0.0710 O   0  0  0  0  0  0  0  0  0  0  0  0
  1  2  2  0
  2  3  1  0
  2  7  1  0
  3  4  2  0
  4  5  1  0
  5  6  1  0
  6  7  1  0
M  END
