
     RDKit          3D

 25 27  0  0  0  0  0  0  0  0999 V2000
   -2.6490    0.2260    1.6560 C   0  0  0  0  0  0  0  0  0  0  0  0
   -2.0580   -0.3880    0.4410 C   0  0  0  0  0  0  0  0  0  0  0  0
   -2.7350   -1.0300   -0.4350 C   0  0  0  0  0  0  0  0  0  0  0  0
   -1.7800   -1.6770   -1.8090 Cl  0  0  0  0  0  0  0  0  0  0  0  0
   -4.1420   -1.3050   -0.4970 C   0  0  0  0  0  0  0  0  0  0  0  0
   -4.5710   -2.0160   -1.5210 O   0  0  0  0  0  0  0  0  0  0  0  0
   -5.2200   -0.9260    0.4020 C   0  0  0  0  0  0  0  0  0  0  0  0
   -5.9810    0.3120    0.1310 C   0  0  0  0  0  0  0  0  0  0  0  0
   -6.6740    0.3200   -1.2000 C   0  0  0  0  0  0  0  0  0  0  0  0
   -5.6080    0.2390   -2.5940 Cl  0  0  0  0  0  0  0  0  0  0  0  0
   -0.5810   -0.1940    0.2980 C   0  0  0  0  0  0  0  0  0  0  0  0
    0.1390    0.1110   -0.8290 C   0  0  0  0  0  0  0  0  0  0  0  0
    1.4920    0.1800   -0.4600 C   0  0  0  0  0  0  0  0  0  0  0  0
    2.6260    0.4480   -1.1890 C   0  0  0  0  0  0  0  0  0  0  0  0
    2.5360    0.6880   -2.4190 O   0  0  0  0  0  0  0  0  0  0  0  0
    3.8660    0.4600   -0.6050 N   0  0  0  0  0  0  0  0  0  0  0  0
    3.9510    0.2040    0.7010 C   0  0  0  0  0  0  0  0  0  0  0  0
    2.7950   -0.0640    1.4190 C   0  0  0  0  0  0  0  0  0  0  0  0
    1.5700   -0.0800    0.8610 N   0  0  0  0  0  0  0  0  0  0  0  0
    0.3260   -0.3060    1.3240 C   0  0  0  0  0  0  0  0  0  0  0  0
    5.2600    0.2100    1.3390 C   0  0  0  0  0  0  0  0  0  0  0  0
    5.3580    0.4560    2.5680 O   0  0  0  0  0  0  0  0  0  0  0  0
    6.4340   -0.0830    0.4770 C   0  0  0  0  0  0  0  0  0  0  0  0
    6.3320    0.6330   -0.8260 C   0  0  0  0  0  0  0  0  0  0  0  0
    4.9910    0.7500   -1.4280 C   0  0  0  0  0  0  0  0  0  0  0  0
  1  2  1  0
  2  3  2  3
  2 11  1  0
  3  4  1  0
  3  5  1  0
  5  6  2  0
  5  7  1  0
  7  8  1  0
  8  9  1  0
  9 10  1  0
 11 12  1  0
 11 20  2  0
 12 13  2  0
 13 14  1  0
 13 19  1  0
 14 15  2  0
 14 16  1  0
 16 17  1  0
 16 25  1  0
 17 18  2  0
 17 21  1  0
 18 19  1  0
 19 20  1  0
 21 22  2  0
 21 23  1  0
 23 24  1  0
 24 25  1  0
M  END
