
     RDKit          3D

  7  7  0  0  0  0  0  0  0  0999 V2000
   -1.9290    1.6400    0.0330 O   0  0  0  0  0  0  0  0  0  0  0  0
   -1.0790    0.7210   -0.0240 C   0  0  0  0  0  0  0  0  0  0  0  0
   -1.3080   -0.7290    0.0920 C   0  0  0  0  0  0  0  0  0  0  0  0
    0.0150   -1.2800   -0.0490 N   0  0  0  0  0  0  0  0  0  0  0  0
    0.8950   -0.3730   -0.2180 C   0  0  0  0  0  0  0  0  0  0  0  0
    2.6730   -0.6050   -0.4370 S   0  0  0  0  0  0  0  0  0  0  0  0
    0.3070    0.9220   -0.2170 N   0  0  0  0  0  0  0  0  0  0  0  0
  1  2  2  0
  2  3  1  0
  2  7  1  0
  3  4  1  0
  4  5  2  0
  5  6  1  0
  5  7  1  0
M  END
