
     RDKit          3D

  7  7  0  0  0  0  0  0  0  0999 V2000
    2.5560   -0.0580   -0.1090 C   0  0  0  0  0  0  0  0  0  0  0  0
    1.6370   -0.8470    0.3230 N   0  0  0  0  0  0  0  0  0  0  0  0
    0.2660   -0.6190    0.0330 C   0  0  0  0  0  0  0  0  0  0  0  0
   -0.5680   -1.2100   -0.6940 N   0  0  0  0  0  0  0  0  0  0  0  0
   -1.8110   -0.7890   -0.7950 O   0  0  0  0  0  0  0  0  0  0  0  0
   -2.1340    0.4880   -0.3480 C   0  0  0  0  0  0  0  0  0  0  0  0
   -0.6710    0.7520    0.7460 S   0  0  0  0  0  0  0  0  0  0  0  0
  1  2  2  0
  2  3  1  0
  3  4  2  0
  3  7  1  0
  4  5  1  0
  5  6  1  0
  6  7  1  0
M  END
