
     RDKit          3D

 30 31  0  0  0  0  0  0  0  0999 V2000
    3.7620   -0.7270    2.6710 C   0  0  0  0  0  0  0  0  0  0  0  0
    3.7690   -0.3620    1.2020 C   0  0  2  0  0  0  0  0  0  0  0  0
    2.3820   -0.6810    0.7060 C   0  0  0  0  0  0  0  0  0  0  0  0
    1.9100   -1.8030    0.7560 O   0  0  0  0  0  0  0  0  0  0  0  0
    1.6250    0.3710    0.1700 N   0  0  0  0  0  0  0  0  0  0  0  0
    0.3420    0.4060   -0.3680 C   0  0  0  0  0  0  0  0  0  0  0  0
    0.0230    1.7890   -0.8170 N   0  0  0  0  0  0  0  0  0  0  0  0
   -0.5250    2.7570   -0.0510 N   0  0  0  0  0  0  0  0  0  0  0  0
   -0.3430    3.0270    1.3240 C   0  0  0  0  0  0  0  0  0  0  0  0
   -1.0250    4.1290    1.9710 N   0  0  0  0  0  0  0  0  0  0  0  0
    0.4270    2.2900    1.9850 O   0  0  0  0  0  0  0  0  0  0  0  0
   -0.5630   -0.4860   -0.5670 C   0  0  0  0  0  0  0  0  0  0  0  0
   -0.5620   -1.8720   -0.3000 C   0  0  0  0  0  0  0  0  0  0  0  0
   -0.5410   -3.0460   -0.0670 N   0  0  0  0  0  0  0  0  0  0  0  0
   -1.8930   -0.0320   -1.1410 C   0  0  1  0  0  0  0  0  0  0  0  0
   -1.9560   -0.1650   -2.6060 C   0  0  0  0  0  0  0  0  0  0  0  0
   -1.7480   -1.4730   -3.2000 C   0  0  0  0  0  0  0  0  0  0  0  0
   -2.5960   -2.2600   -3.9920 N   0  0  0  0  0  0  0  0  0  0  0  0
   -0.5940   -2.0070   -2.9680 O   0  0  0  0  0  0  0  0  0  0  0  0
   -3.0520   -0.4170   -0.3800 C   0  0  0  0  0  0  0  0  0  0  0  0
   -4.1240   -0.8760   -0.9940 C   0  0  0  0  0  0  0  0  0  0  0  0
   -5.3730   -1.3050   -0.3520 C   0  0  0  0  0  0  0  0  0  0  0  0
   -5.3010   -1.2250    1.0280 O   0  0  0  0  0  0  0  0  0  0  0  0
   -4.2290   -0.7530    1.7180 C   0  0  0  0  0  0  0  0  0  0  0  0
   -3.1400   -0.3590    1.0740 C   0  0  0  0  0  0  0  0  0  0  0  0
   -2.0870    0.1430    1.8370 N   0  0  0  0  0  0  0  0  0  0  0  0
    4.7870   -1.2430    0.5160 C   0  0  0  0  0  0  0  0  0  0  0  0
    5.1460   -0.3070   -0.6540 C   0  0  0  0  0  0  0  0  0  0  0  0
    5.1920    1.0160    0.1190 C   0  0  0  0  0  0  0  0  0  0  0  0
    4.1000    0.9320    0.9340 O   0  0  0  0  0  0  0  0  0  0  0  0
  2  1  1  1
  2  3  1  0
  2 27  1  0
  2 30  1  0
  3  4  2  0
  3  5  1  0
  5  6  1  0
  6  7  1  0
  6 12  2  3
  7  8  1  0
  8  9  1  0
  9 10  1  0
  9 11  2  0
 12 13  1  0
 12 15  1  0
 13 14  3  0
 15 16  1  6
 15 20  1  0
 16 17  1  0
 17 18  1  0
 17 19  2  0
 20 21  2  0
 20 25  1  0
 21 22  1  0
 22 23  1  0
 23 24  1  0
 24 25  2  0
 25 26  1  0
 27 28  1  0
 28 29  1  0
 29 30  1  0
M  END
