
     RDKit          3D

 29 31  0  0  0  0  0  0  0  0999 V2000
   -3.5350   -1.4920    0.7530 C   0  0  0  0  0  0  0  0  0  0  0  0
   -2.1900   -2.0990    1.0070 C   0  0  0  0  0  0  0  0  0  0  0  0
   -1.2200   -1.9760   -0.1510 C   0  0  2  0  0  0  0  0  0  0  0  0
   -1.8470   -2.6570   -1.3330 C   0  0  1  0  0  0  0  0  0  0  0  0
   -1.0330   -2.6040   -2.5940 C   0  0  0  0  0  0  0  0  0  0  0  0
   -1.9870   -4.1400   -1.0210 C   0  0  0  0  0  0  0  0  0  0  0  0
    0.0090   -2.7290    0.3070 C   0  0  0  0  0  0  0  0  0  0  0  0
    1.2920   -2.0710   -0.0870 C   0  0  0  0  0  0  0  0  0  0  0  0
    1.3900   -0.7390    0.5130 N   0  0  0  0  0  0  0  0  0  0  0  0
    2.6110   -0.3850    1.0960 C   0  0  0  0  0  0  0  0  0  0  0  0
    3.5280   -1.3350    0.9930 O   0  0  0  0  0  0  0  0  0  0  0  0
    3.0710    0.7780    1.7730 C   0  0  0  0  0  0  0  0  0  0  0  0
    2.3340    1.9010    2.0750 C   0  0  0  0  0  0  0  0  0  0  0  0
    2.8870    2.9900    2.7660 C   0  0  0  0  0  0  0  0  0  0  0  0
    4.1910    2.9870    3.1740 C   0  0  0  0  0  0  0  0  0  0  0  0
    4.9490    1.8790    2.8860 C   0  0  0  0  0  0  0  0  0  0  0  0
    4.4060    0.8150    2.2100 C   0  0  0  0  0  0  0  0  0  0  0  0
    5.2830   -0.2970    1.9530 N   0  0  0  0  0  0  0  0  0  0  0  0
    0.2260    0.1200    0.4440 C   0  0  0  0  0  0  0  0  0  0  0  0
   -0.8850   -0.5380   -0.3600 C   0  0  0  0  0  0  0  0  0  0  0  0
   -1.4390    0.1600   -1.3010 C   0  0  0  0  0  0  0  0  0  0  0  0
   -1.3700    1.5080   -1.7580 C   0  0  0  0  0  0  0  0  0  0  0  0
   -2.0220    1.9290   -2.8840 C   0  0  0  0  0  0  0  0  0  0  0  0
   -1.8350    3.3130   -3.2670 C   0  0  0  0  0  0  0  0  0  0  0  0
   -1.0830    4.2160   -2.6810 C   0  0  0  0  0  0  0  0  0  0  0  0
   -0.2760    3.8250   -1.4680 C   0  0  0  0  0  0  0  0  0  0  0  0
   -1.0020    2.6600   -0.9130 C   0  0  0  0  0  0  0  0  0  0  0  0
   -1.4290    2.7640    0.2830 N   0  0  0  0  0  0  0  0  0  0  0  0
   -2.2390    1.9620    1.0220 N   0  0  0  0  0  0  0  0  0  0  0  0
  1  2  1  0
  3  2  1  1
  3  4  1  0
  3  7  1  0
  3 20  1  0
  4  5  1  6
  4  6  1  0
  7  8  1  0
  8  9  1  0
  9 10  1  0
  9 19  1  0
 10 11  2  0
 10 12  1  0
 12 13  2  0
 12 17  1  0
 13 14  1  0
 14 15  2  0
 15 16  1  0
 16 17  2  0
 17 18  1  0
 19 20  1  0
 20 21  2  3
 21 22  1  0
 22 23  2  0
 22 27  1  0
 23 24  1  0
 24 25  2  0
 25 26  1  0
 26 27  1  0
 27 28  2  3
 28 29  1  0
M  END
