
     RDKit          3D

 31 35  0  0  0  0  0  0  0  0999 V2000
    8.0110    1.8460   -0.0830 C   0  0  0  0  0  0  0  0  0  0  0  0
    6.9010    0.8890    0.0000 C   0  0  0  0  0  0  0  0  0  0  0  0
    7.0980   -0.4230   -0.3410 C   0  0  0  0  0  0  0  0  0  0  0  0
    6.0970   -1.3520   -0.2810 C   0  0  0  0  0  0  0  0  0  0  0  0
    4.8020   -1.0250    0.1330 C   0  0  0  0  0  0  0  0  0  0  0  0
    3.7450   -1.7770    0.2470 N   0  0  0  0  0  0  0  0  0  0  0  0
    2.6490   -1.5100    0.5950 C   0  0  0  0  0  0  0  0  0  0  0  0
    1.3380   -2.0470    0.8240 N   0  0  0  0  0  0  0  0  0  0  0  0
    0.2550   -1.2790    1.2750 C   0  0  0  0  0  0  0  0  0  0  0  0
    0.3950   -0.0660    1.4980 O   0  0  0  0  0  0  0  0  0  0  0  0
   -1.0570   -1.9450    1.4780 C   0  0  0  0  0  0  0  0  0  0  0  0
   -2.3370   -0.8270    2.0480 S   0  0  0  0  0  0  0  0  0  0  0  0
   -2.7720    0.4040    0.8250 C   0  0  0  0  0  0  0  0  0  0  0  0
   -2.1100    1.5430    0.8190 N   0  0  0  0  0  0  0  0  0  0  0  0
   -2.3930    2.5310   -0.0910 C   0  0  0  0  0  0  0  0  0  0  0  0
   -3.3930    2.2450   -0.9720 C   0  0  0  0  0  0  0  0  0  0  0  0
   -4.0720    1.0610   -0.9560 C   0  0  0  0  0  0  0  0  0  0  0  0
   -5.0040    0.8010   -1.7800 O   0  0  0  0  0  0  0  0  0  0  0  0
   -3.7420    0.1190   -0.0240 N   0  0  0  0  0  0  0  0  0  0  0  0
   -4.4670   -1.1070   -0.0300 C   0  0  0  0  0  0  0  0  0  0  0  0
   -5.5720   -1.3070    0.7620 C   0  0  0  0  0  0  0  0  0  0  0  0
   -6.2760   -2.5100    0.7480 C   0  0  0  0  0  0  0  0  0  0  0  0
   -5.8670   -3.5360   -0.0750 C   0  0  0  0  0  0  0  0  0  0  0  0
   -4.7610   -3.3460   -0.8730 C   0  0  0  0  0  0  0  0  0  0  0  0
   -4.0600   -2.1340   -0.8520 C   0  0  0  0  0  0  0  0  0  0  0  0
   -3.5350    3.6680   -2.0380 S   0  0  0  0  0  0  0  0  0  0  0  0
   -1.8710    4.3590   -1.6200 C   0  0  0  0  0  0  0  0  0  0  0  0
   -1.7640    3.8340   -0.2080 C   0  0  0  0  0  0  0  0  0  0  0  0
    2.8990    0.3390    0.9360 S   0  0  0  0  0  0  0  0  0  0  0  0
    4.6280    0.3100    0.4730 C   0  0  0  0  0  0  0  0  0  0  0  0
    5.6240    1.2500    0.4170 C   0  0  0  0  0  0  0  0  0  0  0  0
  1  2  1  0
  2  3  2  0
  2 31  1  0
  3  4  1  0
  4  5  2  0
  5  6  1  0
  5 30  1  0
  6  7  2  0
  7  8  1  0
  7 29  1  0
  8  9  1  0
  9 10  2  0
  9 11  1  0
 11 12  1  0
 12 13  1  0
 13 14  2  0
 13 19  1  0
 14 15  1  0
 15 16  2  0
 15 28  1  0
 16 17  1  0
 16 26  1  0
 17 18  2  0
 17 19  1  0
 19 20  1  0
 20 21  2  0
 20 25  1  0
 21 22  1  0
 22 23  2  0
 23 24  1  0
 24 25  2  0
 26 27  1  0
 27 28  1  0
 29 30  1  0
 30 31  2  0
M  END
