
     RDKit          3D

 30 31  0  0  0  0  0  0  0  0999 V2000
    1.8850    5.3530    1.8970 C   0  0  0  0  0  0  0  0  0  0  0  0
    2.5640    5.3160    0.6990 O   0  0  0  0  0  0  0  0  0  0  0  0
    1.6590    5.3720   -0.3670 C   0  0  0  0  0  0  0  0  0  0  0  0
    0.7530    4.2410   -0.3010 N   0  0  0  0  0  0  0  0  0  0  0  0
    1.2870    2.8700   -0.3630 C   0  0  0  0  0  0  0  0  0  0  0  0
    2.5100    2.8400   -0.4690 O   0  0  0  0  0  0  0  0  0  0  0  0
    0.3440    1.7860   -0.2930 C   0  0  0  0  0  0  0  0  0  0  0  0
    0.5250    0.5220   -0.3230 C   0  0  0  0  0  0  0  0  0  0  0  0
   -0.5910   -0.3950   -0.2370 N   0  0  0  0  0  0  0  0  0  0  0  0
   -1.9480   -0.0990   -0.1180 C   0  0  0  0  0  0  0  0  0  0  0  0
   -2.3520    1.0700   -0.0720 O   0  0  0  0  0  0  0  0  0  0  0  0
   -2.9190   -1.1830   -0.0460 N   0  0  0  0  0  0  0  0  0  0  0  0
   -4.3110   -0.7750    0.0730 C   0  0  2  0  0  0  0  0  0  0  0  0
   -4.7220    0.0300   -1.1120 C   0  0  0  0  0  0  0  0  0  0  0  0
   -6.0300    0.5400   -1.1970 N   0  0  0  0  0  0  0  0  0  0  0  0
   -3.8960    0.2350   -2.0090 O   0  0  0  0  0  0  0  0  0  0  0  0
   -4.4120    0.0180    1.3200 C   0  0  0  0  0  0  0  0  0  0  0  0
   -4.8460   -0.7640    2.2900 C   0  0  0  0  0  0  0  0  0  0  0  0
   -5.0800   -2.1500    1.8040 C   0  0  2  0  0  0  0  0  0  0  0  0
   -4.0030   -2.9870    2.0510 O   0  0  0  0  0  0  0  0  0  0  0  0
   -5.2170   -1.9410    0.2970 C   0  0  0  0  0  0  0  0  0  0  0  0
    1.8280   -0.1320   -0.4430 C   0  0  0  0  0  0  0  0  0  0  0  0
    3.0860    0.4170   -0.5460 N   0  0  0  0  0  0  0  0  0  0  0  0
    1.7900   -1.4610   -0.4540 N   0  0  0  0  0  0  0  0  0  0  0  0
    3.0050   -2.1640   -0.5670 C   0  0  0  0  0  0  0  0  0  0  0  0
    3.6280   -2.1870   -1.7300 C   0  0  0  0  0  0  0  0  0  0  0  0
    4.9080   -2.9140   -1.8970 C   0  0  0  0  0  0  0  0  0  0  0  0
    5.6040   -3.1230   -0.5800 C   0  0  0  0  0  0  0  0  0  0  0  0
    4.6690   -3.6710    0.4720 C   0  0  0  0  0  0  0  0  0  0  0  0
    3.5000   -2.8200    0.5940 N   0  0  0  0  0  0  0  0  0  0  0  0
  1  2  1  0
  2  3  1  0
  3  4  1  0
  4  5  1  0
  5  6  2  0
  5  7  1  0
  7  8  2  3
  8  9  1  0
  8 22  1  0
  9 10  1  0
 10 11  2  0
 10 12  1  0
 13 12  1  6
 13 14  1  0
 13 17  1  0
 13 21  1  0
 14 15  1  0
 14 16  2  0
 17 18  2  0
 18 19  1  0
 19 20  1  6
 19 21  1  0
 22 23  1  0
 22 24  2  3
 24 25  1  0
 25 26  2  0
 25 30  1  0
 26 27  1  0
 27 28  1  0
 28 29  1  0
 29 30  1  0
M  END
