
     RDKit          3D

 29 31  0  0  0  0  0  0  0  0999 V2000
   -1.4900    6.3980   -0.1060 C   0  0  0  0  0  0  0  0  0  0  0  0
   -1.7420    5.0610   -0.5970 N   0  0  0  0  0  0  0  0  0  0  0  0
   -0.7410    4.0790   -0.4580 C   0  0  0  0  0  0  0  0  0  0  0  0
    0.3890    4.3100    0.0840 O   0  0  0  0  0  0  0  0  0  0  0  0
   -0.9270    2.7570   -0.9170 N   0  0  0  0  0  0  0  0  0  0  0  0
    0.0450    1.7060   -0.8100 C   0  0  2  0  0  0  0  0  0  0  0  0
    0.4650    1.0910   -2.0750 C   0  0  0  0  0  0  0  0  0  0  0  0
    1.7530    0.3110   -1.8170 C   0  0  0  0  0  0  0  0  0  0  0  0
    1.7790   -0.1470   -0.4420 N   0  0  0  0  0  0  0  0  0  0  0  0
    2.9960   -0.3470    0.2450 C   0  0  0  0  0  0  0  0  0  0  0  0
    3.2080    0.4180    1.3490 N   0  0  0  0  0  0  0  0  0  0  0  0
    4.3120    0.3250    2.0750 C   0  0  0  0  0  0  0  0  0  0  0  0
    5.3210   -0.5580    1.7540 C   0  0  0  0  0  0  0  0  0  0  0  0
    5.1060   -1.3340    0.6330 C   0  0  0  0  0  0  0  0  0  0  0  0
    5.9150   -2.2780    0.0860 N   0  0  0  0  0  0  0  0  0  0  0  0
    5.2570   -2.7380   -0.9810 C   0  0  0  0  0  0  0  0  0  0  0  0
    5.7080   -3.6580   -1.7690 N   0  0  0  0  0  0  0  0  0  0  0  0
    4.0560   -2.1020   -1.1110 N   0  0  0  0  0  0  0  0  0  0  0  0
    3.9570   -1.2330   -0.1160 C   0  0  0  0  0  0  0  0  0  0  0  0
    0.5430   -0.4170    0.2840 C   0  0  0  0  0  0  0  0  0  0  0  0
   -0.4810    0.6720    0.1500 C   0  0  2  0  0  0  0  0  0  0  0  0
   -1.7850    0.0820   -0.2750 C   0  0  0  0  0  0  0  0  0  0  0  0
   -2.2370   -0.9180    0.7590 C   0  0  0  0  0  0  0  0  0  0  0  0
   -3.5740   -1.5440    0.3630 C   0  0  2  0  0  0  0  0  0  0  0  0
   -4.5170   -0.5500    0.2570 O   0  0  0  0  0  0  0  0  0  0  0  0
   -3.9470   -2.5290    1.4560 C   0  0  2  0  0  0  0  0  0  0  0  0
   -2.9630   -3.5240    1.5300 O   0  0  0  0  0  0  0  0  0  0  0  0
   -5.2370   -3.2260    1.0780 C   0  0  0  0  0  0  0  0  0  0  0  0
   -5.0090   -3.8410   -0.1610 O   0  0  0  0  0  0  0  0  0  0  0  0
  1  2  1  0
  2  3  1  0
  3  4  2  0
  3  5  1  0
  6  5  1  6
  6  7  1  0
  6 21  1  0
  7  8  1  0
  8  9  1  0
  9 10  1  0
  9 20  1  0
 10 11  2  0
 10 19  1  0
 11 12  1  0
 12 13  2  0
 13 14  1  0
 14 15  1  0
 14 19  2  0
 15 16  1  0
 16 17  2  0
 16 18  1  0
 18 19  1  0
 20 21  1  0
 21 22  1  6
 22 23  1  0
 23 24  1  0
 24 25  1  1
 24 26  1  0
 26 27  1  6
 26 28  1  0
 28 29  1  0
M  END
