
     RDKit          3D

 29 31  0  0  0  0  0  0  0  0999 V2000
    3.0940   -2.4380   -0.4240 C   0  0  0  0  0  0  0  0  0  0  0  0
    3.7500   -1.3030   -1.1440 C   0  0  0  0  0  0  0  0  0  0  0  0
    3.0550   -0.1910   -1.4210 C   0  0  0  0  0  0  0  0  0  0  0  0
    1.6890   -0.1200   -1.0160 C   0  0  0  0  0  0  0  0  0  0  0  0
    0.9210    0.9200   -1.2400 C   0  0  0  0  0  0  0  0  0  0  0  0
    1.4550    2.0990   -1.9460 C   0  0  0  0  0  0  0  0  0  0  0  0
   -0.4880    0.8580   -0.7800 C   0  0  0  0  0  0  0  0  0  0  0  0
   -1.1010   -0.2340   -0.2250 C   0  0  0  0  0  0  0  0  0  0  0  0
   -2.4170    0.0930    0.1000 C   0  0  0  0  0  0  0  0  0  0  0  0
   -3.3310   -0.8510    0.7070 C   0  0  0  0  0  0  0  0  0  0  0  0
   -2.8350   -2.0420    0.9290 O   0  0  0  0  0  0  0  0  0  0  0  0
   -4.6480   -0.6680    1.0810 N   0  0  0  0  0  0  0  0  0  0  0  0
   -5.3510   -1.8220    1.6860 C   0  0  0  0  0  0  0  0  0  0  0  0
   -6.5200   -2.2420    0.8110 C   0  0  0  0  0  0  0  0  0  0  0  0
   -7.3120   -1.0090    0.3950 C   0  0  0  0  0  0  0  0  0  0  0  0
   -6.8770    0.1770    1.2360 C   0  0  0  0  0  0  0  0  0  0  0  0
   -5.3930    0.5290    0.9410 C   0  0  1  0  0  0  0  0  0  0  0  0
   -5.0260    1.5230    2.0400 C   0  0  0  0  0  0  0  0  0  0  0  0
   -2.5710    1.3650   -0.2620 N   0  0  0  0  0  0  0  0  0  0  0  0
   -1.4210    1.8490   -0.7950 C   0  0  0  0  0  0  0  0  0  0  0  0
   -1.3000    3.2560   -1.2730 C   0  0  0  0  0  0  0  0  0  0  0  0
    5.0970   -1.4250   -1.5230 N   0  0  0  0  0  0  0  0  0  0  0  0
    6.0890   -0.6600   -0.8760 C   0  0  0  0  0  0  0  0  0  0  0  0
    5.7550    0.2100    0.1410 C   0  0  0  0  0  0  0  0  0  0  0  0
    6.7050    0.9680    0.7900 C   0  0  0  0  0  0  0  0  0  0  0  0
    8.0220    0.8570    0.4170 C   0  0  0  0  0  0  0  0  0  0  0  0
    8.3950    0.0020   -0.5900 C   0  0  0  0  0  0  0  0  0  0  0  0
    7.4220   -0.7400   -1.2170 C   0  0  0  0  0  0  0  0  0  0  0  0
    7.8040   -1.6310   -2.2660 N   0  0  0  0  0  0  0  0  0  0  0  0
  1  2  1  0
  2  3  2  3
  2 22  1  0
  3  4  1  0
  4  5  2  3
  5  6  1  0
  5  7  1  0
  7  8  1  0
  7 20  2  0
  8  9  2  0
  9 10  1  0
  9 19  1  0
 10 11  2  0
 10 12  1  0
 12 13  1  0
 12 17  1  0
 13 14  1  0
 14 15  1  0
 15 16  1  0
 16 17  1  0
 17 18  1  1
 19 20  1  0
 20 21  1  0
 22 23  1  0
 23 24  2  0
 23 28  1  0
 24 25  1  0
 25 26  2  0
 26 27  1  0
 27 28  2  0
 28 29  1  0
M  END
