
     RDKit          3D

 30 32  0  0  0  0  0  0  0  0999 V2000
   -5.7980    1.8340   -0.2400 C   0  0  0  0  0  0  0  0  0  0  0  0
   -4.4830    1.0720   -0.4470 C   0  0  1  0  0  0  0  0  0  0  0  0
   -3.4060    1.7490    0.3230 C   0  0  0  0  0  0  0  0  0  0  0  0
   -3.2510    2.9440    0.9370 N   0  0  0  0  0  0  0  0  0  0  0  0
   -2.0490    3.0020    1.4770 N   0  0  0  0  0  0  0  0  0  0  0  0
   -1.3970    1.8560    1.2300 C   0  0  0  0  0  0  0  0  0  0  0  0
   -2.2350    1.0450    0.5010 C   0  0  0  0  0  0  0  0  0  0  0  0
   -2.1950   -0.3010   -0.0980 C   0  0  1  0  0  0  0  0  0  0  0  0
   -0.9160   -1.0320    0.0970 C   0  0  0  0  0  0  0  0  0  0  0  0
    0.2650   -0.3780   -0.4600 C   0  0  0  0  0  0  0  0  0  0  0  0
    0.2370    0.7170   -1.0620 O   0  0  0  0  0  0  0  0  0  0  0  0
    1.5240   -1.0120   -0.3150 N   0  0  0  0  0  0  0  0  0  0  0  0
    2.7230   -0.4400   -0.8290 C   0  0  2  0  0  0  0  0  0  0  0  0
    3.3970   -1.2620   -1.8820 C   0  0  0  0  0  0  0  0  0  0  0  0
    3.8040   -2.6010   -1.4500 C   0  0  0  0  0  0  0  0  0  0  0  0
    3.6260   -3.1550   -0.1680 N   0  0  0  0  0  0  0  0  0  0  0  0
    4.3700   -3.3310   -2.3120 O   0  0  0  0  0  0  0  0  0  0  0  0
    3.6570   -0.0850    0.2650 C   0  0  0  0  0  0  0  0  0  0  0  0
    3.3060   -0.3190    1.4620 O   0  0  0  0  0  0  0  0  0  0  0  0
    4.9140    0.4990   -0.0030 N   0  0  0  0  0  0  0  0  0  0  0  0
    5.8170    0.8390    1.1030 C   0  0  2  0  0  0  0  0  0  0  0  0
    6.1640    2.2250    0.9910 N   0  0  0  0  0  0  0  0  0  0  0  0
    7.5240    2.3100    0.7700 N   0  0  0  0  0  0  0  0  0  0  0  0
    7.9690    1.0980    0.3650 O   0  0  0  0  0  0  0  0  0  0  0  0
    7.0940    0.1430    0.8550 C   0  0  0  0  0  0  0  0  0  0  0  0
    7.3100   -1.0600    1.0560 O   0  0  0  0  0  0  0  0  0  0  0  0
   -3.4010   -1.0490    0.4020 C   0  0  0  0  0  0  0  0  0  0  0  0
   -4.6360   -0.3800   -0.1480 C   0  0  2  0  0  0  0  0  0  0  0  0
   -5.0020   -1.1460   -1.4260 C   0  0  0  0  0  0  0  0  0  0  0  0
   -5.8040   -0.5750    0.7980 C   0  0  0  0  0  0  0  0  0  0  0  0
  2  1  1  1
  2  3  1  0
  2 28  1  0
  3  4  1  0
  3  7  2  0
  4  5  1  0
  5  6  2  0
  6  7  1  0
  7  8  1  0
  8  9  1  1
  8 27  1  0
  9 10  1  0
 10 11  2  0
 10 12  1  0
 12 13  1  0
 13 14  1  6
 13 18  1  0
 14 15  1  0
 15 16  1  0
 15 17  2  0
 18 19  2  0
 18 20  1  0
 21 20  1  6
 21 22  1  0
 21 25  1  0
 22 23  1  0
 23 24  1  0
 24 25  1  0
 25 26  2  0
 27 28  1  0
 28 29  1  6
 28 30  1  0
M  END
