
     RDKit          3D

 19 19  0  0  0  0  0  0  0  0999 V2000
   -3.9820   -0.9030    2.8860 C   0  0  0  0  0  0  0  0  0  0  0  0
   -2.5430   -0.7180    2.5780 C   0  0  0  0  0  0  0  0  0  0  0  0
   -2.1810   -0.3750    1.3720 C   0  0  0  0  0  0  0  0  0  0  0  0
   -3.1870   -0.1970    0.4190 O   0  0  0  0  0  0  0  0  0  0  0  0
   -3.6670   -1.2670   -0.3700 C   0  0  0  0  0  0  0  0  0  0  0  0
   -0.7760   -0.1720    0.9880 C   0  0  0  0  0  0  0  0  0  0  0  0
    0.3160   -0.3470    1.9550 C   0  0  0  0  0  0  0  0  0  0  0  0
   -0.5130    0.1720   -0.2480 C   0  0  0  0  0  0  0  0  0  0  0  0
    0.8620    0.3950   -0.7190 C   0  0  0  0  0  0  0  0  0  0  0  0
    1.0510    0.7470   -2.0070 C   0  0  0  0  0  0  0  0  0  0  0  0
   -0.0490    0.8820   -2.8250 O   0  0  0  0  0  0  0  0  0  0  0  0
    2.4020    0.9700   -2.4820 C   0  0  0  0  0  0  0  0  0  0  0  0
    2.5820    1.3340   -3.8190 O   0  0  0  0  0  0  0  0  0  0  0  0
    3.4460    0.8370   -1.6890 C   0  0  0  0  0  0  0  0  0  0  0  0
    4.7820    1.0640   -2.1840 N   0  0  0  0  0  0  0  0  0  0  0  0
    5.5400    0.0940   -2.1880 O   0  0  0  0  0  0  0  0  0  0  0  0
    5.1030    2.3110   -2.6040 O   0  0  0  0  0  0  0  0  0  0  0  0
    3.2710    0.4570   -0.2930 C   0  0  0  0  0  0  0  0  0  0  0  0
    1.9550    0.2660    0.0720 O   0  0  0  0  0  0  0  0  0  0  0  0
  1  2  1  0
  2  3  2  3
  3  4  1  0
  3  6  1  0
  4  5  1  0
  6  7  1  0
  6  8  2  3
  8  9  1  0
  9 10  2  0
  9 19  1  0
 10 11  1  0
 10 12  1  0
 12 13  1  0
 12 14  2  0
 14 15  1  0
 14 18  1  0
 15 16  2  0
 15 17  1  0
 18 19  1  0
M  CHG  2  15   1  17  -1
M  END
