
     RDKit          3D

 19 19  0  0  0  0  0  0  0  0999 V2000
    5.1730   -0.3820    0.9850 C   0  0  0  0  0  0  0  0  0  0  0  0
    3.8720    0.0580    1.3130 O   0  0  0  0  0  0  0  0  0  0  0  0
    2.9410    0.1920    0.2910 C   0  0  0  0  0  0  0  0  0  0  0  0
    3.2780   -0.0970   -1.0190 C   0  0  0  0  0  0  0  0  0  0  0  0
    2.3280    0.0450   -2.0270 C   0  0  0  0  0  0  0  0  0  0  0  0
    1.0360    0.4710   -1.7680 C   0  0  0  0  0  0  0  0  0  0  0  0
    0.1630    0.5820   -2.8360 O   0  0  0  0  0  0  0  0  0  0  0  0
    0.6870    0.7610   -0.4760 C   0  0  0  0  0  0  0  0  0  0  0  0
   -0.6370    1.2030   -0.0800 C   0  0  0  0  0  0  0  0  0  0  0  0
   -1.6990    0.1180    0.0200 C   0  0  1  0  0  0  0  0  0  0  0  0
   -1.2990   -0.9400    1.0050 C   0  0  0  0  0  0  0  0  0  0  0  0
   -0.1880   -1.6680    0.5370 O   0  0  0  0  0  0  0  0  0  0  0  0
   -2.9090    0.8550    0.5520 C   0  0  0  0  0  0  0  0  0  0  0  0
   -4.1390    0.0770    0.7560 C   0  0  0  0  0  0  0  0  0  0  0  0
   -4.1270   -0.9560    1.6440 O   0  0  0  0  0  0  0  0  0  0  0  0
   -2.0890   -0.4360   -1.2480 N   0  0  0  0  0  0  0  0  0  0  0  0
   -1.8800   -1.5980   -1.6180 O   0  0  0  0  0  0  0  0  0  0  0  0
   -2.7570    0.4300   -2.1130 O   0  0  0  0  0  0  0  0  0  0  0  0
    1.6470    0.6130    0.5080 C   0  0  0  0  0  0  0  0  0  0  0  0
  1  2  1  0
  2  3  1  0
  3  4  2  0
  3 19  1  0
  4  5  1  0
  5  6  2  0
  6  7  1  0
  6  8  1  0
  8  9  1  0
  8 19  2  0
 10  9  1  6
 10 11  1  0
 10 13  1  0
 10 16  1  0
 11 12  1  0
 13 14  1  0
 14 15  1  0
 16 17  2  0
 16 18  1  0
M  CHG  2  16   1  18  -1
M  END
