
     RDKit          3D

 19 19  0  0  0  0  0  0  0  0999 V2000
   -3.3720    2.8030   -1.0080 C   0  0  0  0  0  0  0  0  0  0  0  0
   -2.4800    2.0070   -0.3030 O   0  0  0  0  0  0  0  0  0  0  0  0
   -2.8150    0.6760   -0.5270 C   0  0  0  0  0  0  0  0  0  0  0  0
   -1.9050   -0.2810    0.1960 C   0  0  1  0  0  0  0  0  0  0  0  0
   -0.4720   -0.0160   -0.2670 C   0  0  0  0  0  0  0  0  0  0  0  0
    0.3860   -0.9530    0.3710 O   0  0  0  0  0  0  0  0  0  0  0  0
    1.7580   -0.8450    0.0490 C   0  0  0  0  0  0  0  0  0  0  0  0
    2.4740    0.1740    0.4450 C   0  0  0  0  0  0  0  0  0  0  0  0
    3.8630    0.4260    0.2030 C   0  0  0  0  0  0  0  0  0  0  0  0
    4.5480    1.4590    0.6170 C   0  0  0  0  0  0  0  0  0  0  0  0
    4.0920    2.5640    1.3940 C   0  0  0  0  0  0  0  0  0  0  0  0
    4.9100    3.5010    1.7140 O   0  0  0  0  0  0  0  0  0  0  0  0
    2.8190    2.7420    1.8560 O   0  0  0  0  0  0  0  0  0  0  0  0
    2.3000   -1.9510   -0.7530 C   0  0  0  0  0  0  0  0  0  0  0  0
    1.5220   -1.9590   -2.0020 N   0  0  0  0  0  0  0  0  0  0  0  0
   -1.9160   -0.1190    1.5610 O   0  0  0  0  0  0  0  0  0  0  0  0
   -2.2550   -1.3500    2.1270 C   0  0  0  0  0  0  0  0  0  0  0  0
   -3.1030   -1.9250    0.9840 C   0  0  0  0  0  0  0  0  0  0  0  0
   -2.3070   -1.5630   -0.1020 O   0  0  0  0  0  0  0  0  0  0  0  0
  1  2  1  0
  2  3  1  0
  4  3  1  6
  4  5  1  0
  4 16  1  0
  4 19  1  0
  5  6  1  0
  6  7  1  0
  7  8  2  3
  7 14  1  0
  8  9  1  0
  9 10  2  3
 10 11  1  0
 11 12  2  0
 11 13  1  0
 14 15  1  0
 16 17  1  0
 17 18  1  0
 18 19  1  0
M  CHG  2  13  -1  15   1
M  END
