
     RDKit          3D

 19 18  0  0  0  0  0  0  0  0999 V2000
   -3.3430   -0.9550    1.4440 C   0  0  0  0  0  0  0  0  0  0  0  0
   -2.5240   -1.2430    0.5090 C   0  0  0  0  0  0  0  0  0  0  0  0
   -1.4410   -0.6680   -0.1630 C   0  0  0  0  0  0  0  0  0  0  0  0
   -0.9400   -1.5470   -1.1310 C   0  0  0  0  0  0  0  0  0  0  0  0
   -1.4940   -2.8680   -1.3530 C   0  0  0  0  0  0  0  0  0  0  0  0
   -0.6390    0.5100   -0.0030 C   0  0  0  0  0  0  0  0  0  0  0  0
    0.8170    0.3430   -0.4640 C   0  0  0  0  0  0  0  0  0  0  0  0
    1.6490    1.2300   -0.5080 O   0  0  0  0  0  0  0  0  0  0  0  0
    1.3030   -0.9100   -0.8650 O   0  0  0  0  0  0  0  0  0  0  0  0
    2.6090   -1.1590   -1.2780 C   0  0  0  0  0  0  0  0  0  0  0  0
    3.6760   -0.8760   -0.2700 C   0  0  0  0  0  0  0  0  0  0  0  0
    4.9130   -1.1910   -0.8780 O   0  0  0  0  0  0  0  0  0  0  0  0
   -0.8420    1.5920    0.6720 C   0  0  0  0  0  0  0  0  0  0  0  0
    0.0050    2.7860    0.8130 C   0  0  0  0  0  0  0  0  0  0  0  0
   -0.4570    3.7910    1.5940 C   0  0  0  0  0  0  0  0  0  0  0  0
    1.2050    3.0410    0.2630 O   0  0  0  0  0  0  0  0  0  0  0  0
   -2.0870    1.7660    1.4100 N   0  0  0  0  0  0  0  0  0  0  0  0
   -1.9540    1.6350    2.6380 O   0  0  0  0  0  0  0  0  0  0  0  0
   -3.2360    2.0950    0.7750 O   0  0  0  0  0  0  0  0  0  0  0  0
  1  2  2  0
  2  3  1  0
  3  4  2  3
  3  6  1  0
  4  5  1  0
  6  7  1  0
  6 13  2  3
  7  8  2  0
  7  9  1  0
  9 10  1  0
 10 11  1  0
 11 12  1  0
 13 14  1  0
 13 17  1  0
 14 15  2  0
 14 16  1  0
 17 18  2  0
 17 19  1  0
M  CHG  2  17   1  19  -1
M  END
