
     RDKit          3D

 33 36  0  0  0  0  0  0  0  0999 V2000
   -5.3810    0.6260    2.3130 C   0  0  0  0  0  0  0  0  0  0  0  0
   -5.0020   -0.3680    1.4100 O   0  0  0  0  0  0  0  0  0  0  0  0
   -5.7190   -0.7400    0.2820 C   0  0  0  0  0  0  0  0  0  0  0  0
   -6.9180   -0.0850    0.0040 C   0  0  0  0  0  0  0  0  0  0  0  0
   -7.6180   -0.4640   -1.1160 C   0  0  0  0  0  0  0  0  0  0  0  0
   -9.1570    0.3590   -1.4960 S   0  0  0  0  0  0  0  0  0  0  0  0
   -9.5210    1.6160   -0.2460 C   0  0  0  0  0  0  0  0  0  0  0  0
   -7.1590   -1.4610   -1.9490 C   0  0  0  0  0  0  0  0  0  0  0  0
   -5.9820   -2.0960   -1.6640 C   0  0  0  0  0  0  0  0  0  0  0  0
   -5.2380   -1.7360   -0.5270 C   0  0  0  0  0  0  0  0  0  0  0  0
   -4.0590   -2.4200   -0.3030 O   0  0  0  0  0  0  0  0  0  0  0  0
   -2.8640   -1.7210   -0.2600 C   0  0  0  0  0  0  0  0  0  0  0  0
   -2.2790   -1.3890    0.9420 C   0  0  0  0  0  0  0  0  0  0  0  0
   -1.0800   -0.6840    0.9120 C   0  0  0  0  0  0  0  0  0  0  0  0
   -0.4410   -0.2970   -0.2410 C   0  0  0  0  0  0  0  0  0  0  0  0
    0.8260    0.4460   -0.2380 C   0  0  0  0  0  0  0  0  0  0  0  0
    1.3890    0.7860   -1.3120 O   0  0  0  0  0  0  0  0  0  0  0  0
    1.4560    0.8060    0.9430 O   0  0  0  0  0  0  0  0  0  0  0  0
    2.6560    1.4950    1.0730 C   0  0  0  0  0  0  0  0  0  0  0  0
    3.8520    0.8290    0.5420 C   0  0  0  0  0  0  0  0  0  0  0  0
    3.8070   -0.4180    0.0170 C   0  0  0  0  0  0  0  0  0  0  0  0
    5.0000   -0.9840   -0.4430 C   0  0  0  0  0  0  0  0  0  0  0  0
    6.1720   -0.2880   -0.3580 C   0  0  0  0  0  0  0  0  0  0  0  0
    6.2090    0.9850    0.1800 C   0  0  0  0  0  0  0  0  0  0  0  0
    5.0510    1.5410    0.6280 C   0  0  0  0  0  0  0  0  0  0  0  0
    5.0640    2.8490    1.1850 N   0  0  0  0  0  0  0  0  0  0  0  0
    7.5600    1.4990    0.1540 C   0  0  0  0  0  0  0  0  0  0  0  0
    7.9970    2.5060    0.7270 O   0  0  0  0  0  0  0  0  0  0  0  0
    8.3500    0.5850   -0.7010 C   0  0  0  0  0  0  0  0  0  0  0  0
    7.5450   -0.6870   -0.7790 C   0  0  1  0  0  0  0  0  0  0  0  0
    8.0430   -1.7120    0.2080 C   0  0  0  0  0  0  0  0  0  0  0  0
   -1.0420   -0.6400   -1.4320 C   0  0  0  0  0  0  0  0  0  0  0  0
   -2.2320   -1.3390   -1.4570 C   0  0  0  0  0  0  0  0  0  0  0  0
  1  2  1  0
  2  3  1  0
  3  4  2  0
  3 10  1  0
  4  5  1  0
  5  6  1  0
  5  8  2  0
  6  7  1  0
  8  9  1  0
  9 10  2  0
 10 11  1  0
 11 12  1  0
 12 13  2  0
 12 33  1  0
 13 14  1  0
 14 15  2  0
 15 16  1  0
 15 32  1  0
 16 17  2  0
 16 18  1  0
 18 19  1  0
 19 20  1  0
 20 21  2  0
 20 25  1  0
 21 22  1  0
 22 23  2  0
 23 24  1  0
 23 30  1  0
 24 25  2  0
 24 27  1  0
 25 26  1  0
 27 28  2  0
 27 29  1  0
 29 30  1  0
 30 31  1  1
 32 33  2  0
M  END
