
     RDKit          3D

 33 36  0  0  0  0  0  0  0  0999 V2000
   -4.0500   -0.9050    2.8550 C   0  0  0  0  0  0  0  0  0  0  0  0
   -4.7530   -0.5960    1.5780 C   0  0  0  0  0  0  0  0  0  0  0  0
   -4.0010   -1.1810    0.3710 C   0  0  0  0  0  0  0  0  0  0  0  0
   -2.8930   -0.5510   -0.0690 C   0  0  0  0  0  0  0  0  0  0  0  0
   -2.1880    0.6650    0.3800 C   0  0  0  0  0  0  0  0  0  0  0  0
   -1.0310    0.8890   -0.4620 N   0  0  0  0  0  0  0  0  0  0  0  0
   -1.1250    1.1020   -1.8590 C   0  0  0  0  0  0  0  0  0  0  0  0
   -2.2630    1.0950   -2.3850 O   0  0  0  0  0  0  0  0  0  0  0  0
    0.0690    1.3250   -2.6770 C   0  0  1  0  0  0  0  0  0  0  0  0
    0.0900    2.7040   -3.3070 C   0  0  0  0  0  0  0  0  0  0  0  0
    0.8630    3.4890   -2.2870 C   0  0  0  0  0  0  0  0  0  0  0  0
    0.9690    4.8480   -2.0820 C   0  0  0  0  0  0  0  0  0  0  0  0
    1.7680    5.2870   -1.0440 C   0  0  0  0  0  0  0  0  0  0  0  0
    2.4420    4.3680   -0.2350 C   0  0  0  0  0  0  0  0  0  0  0  0
    2.3350    3.0100   -0.4400 C   0  0  0  0  0  0  0  0  0  0  0  0
    3.0430    2.0540    0.4090 C   0  0  0  0  0  0  0  0  0  0  0  0
    3.7660    2.4240    1.3700 O   0  0  0  0  0  0  0  0  0  0  0  0
    2.9590    0.6810    0.2060 O   0  0  0  0  0  0  0  0  0  0  0  0
    3.6350   -0.2320    1.0180 C   0  0  0  0  0  0  0  0  0  0  0  0
    4.9380   -0.6050    0.7150 C   0  0  0  0  0  0  0  0  0  0  0  0
    5.6550   -1.4930    1.4680 C   0  0  0  0  0  0  0  0  0  0  0  0
    7.0520   -1.9010    1.1570 C   0  0  0  0  0  0  0  0  0  0  0  0
    5.0400   -2.0420    2.5870 C   0  0  0  0  0  0  0  0  0  0  0  0
    3.7360   -1.7010    2.9330 C   0  0  0  0  0  0  0  0  0  0  0  0
    3.0440   -0.7910    2.1350 C   0  0  0  0  0  0  0  0  0  0  0  0
    1.7480   -0.4070    2.4190 O   0  0  0  0  0  0  0  0  0  0  0  0
    1.5380    2.5780   -1.4760 C   0  0  0  0  0  0  0  0  0  0  0  0
    1.2650    1.2720   -1.8910 O   0  0  0  0  0  0  0  0  0  0  0  0
   -2.3680   -1.6050   -1.4780 S   0  0  0  0  0  0  0  0  0  0  0  0
   -3.6820   -2.7500   -1.3100 C   0  0  0  0  0  0  0  0  0  0  0  0
   -3.8980   -3.9510   -2.1810 C   0  0  0  0  0  0  0  0  0  0  0  0
   -4.4320   -2.3000   -0.2340 C   0  0  0  0  0  0  0  0  0  0  0  0
   -5.6620   -3.1300    0.1540 C   0  0  0  0  0  0  0  0  0  0  0  0
  1  2  1  0
  2  3  1  0
  3  4  2  0
  3 32  1  0
  4  5  1  0
  4 29  1  0
  5  6  1  0
  6  7  1  0
  7  8  2  0
  9  7  1  1
  9 10  1  0
  9 28  1  0
 10 11  1  0
 11 12  2  0
 11 27  1  0
 12 13  1  0
 13 14  2  0
 14 15  1  0
 15 16  1  0
 15 27  2  0
 16 17  2  0
 16 18  1  0
 18 19  1  0
 19 20  2  0
 19 25  1  0
 20 21  1  0
 21 22  1  0
 21 23  2  0
 23 24  1  0
 24 25  2  0
 25 26  1  0
 27 28  1  0
 29 30  1  0
 30 31  1  0
 30 32  2  0
 32 33  1  0
M  END
