
     RDKit          3D

 33 36  0  0  0  0  0  0  0  0999 V2000
    9.3990   -1.7780    0.6560 C   0  0  0  0  0  0  0  0  0  0  0  0
    9.6150   -0.3560    0.2530 C   0  0  0  0  0  0  0  0  0  0  0  0
    8.2580    0.6620    0.8940 S   0  0  0  0  0  0  0  0  0  0  0  0
    6.7320    0.1410    0.0270 C   0  0  0  0  0  0  0  0  0  0  0  0
    6.7790   -0.7570   -0.8000 O   0  0  0  0  0  0  0  0  0  0  0  0
    5.5200    0.7660    0.3080 N   0  0  0  0  0  0  0  0  0  0  0  0
    4.2220    0.6810   -0.0980 C   0  0  0  0  0  0  0  0  0  0  0  0
    3.7000   -0.1130   -0.9750 C   0  0  0  0  0  0  0  0  0  0  0  0
    4.3150   -1.1380   -1.7840 C   0  0  0  0  0  0  0  0  0  0  0  0
    2.1840    0.1070   -1.1540 C   0  0  0  0  0  0  0  0  0  0  0  0
    1.6160   -0.1700    0.2140 C   0  0  2  0  0  0  0  0  0  0  0  0
    2.1870   -1.5110    0.6900 C   0  0  0  0  0  0  0  0  0  0  0  0
    0.1320   -0.1940    0.2110 C   0  0  0  0  0  0  0  0  0  0  0  0
   -0.4740    1.0590   -0.2050 C   0  0  0  0  0  0  0  0  0  0  0  0
    0.2420    2.0490   -0.4850 O   0  0  0  0  0  0  0  0  0  0  0  0
   -1.9530    1.1830   -0.3040 C   0  0  0  0  0  0  0  0  0  0  0  0
   -2.7990    0.1350   -0.0250 C   0  0  0  0  0  0  0  0  0  0  0  0
   -4.1800    0.2990   -0.1310 C   0  0  0  0  0  0  0  0  0  0  0  0
   -5.0730   -0.7150    0.1360 C   0  0  0  0  0  0  0  0  0  0  0  0
   -6.4470   -0.5280    0.0230 C   0  0  0  0  0  0  0  0  0  0  0  0
   -6.9440    0.6970   -0.3640 C   0  0  0  0  0  0  0  0  0  0  0  0
   -6.0450    1.7050   -0.6290 C   0  0  0  0  0  0  0  0  0  0  0  0
   -4.6700    1.5270   -0.5190 C   0  0  0  0  0  0  0  0  0  0  0  0
   -3.8320    2.5110   -0.7790 O   0  0  0  0  0  0  0  0  0  0  0  0
   -2.5200    2.3760   -0.6850 C   0  0  0  0  0  0  0  0  0  0  0  0
   -1.7360    3.3350   -0.9400 O   0  0  0  0  0  0  0  0  0  0  0  0
   -8.4050    0.8730   -0.4760 C   0  0  0  0  0  0  0  0  0  0  0  0
   -9.0250    0.0740    0.6760 C   0  0  0  0  0  0  0  0  0  0  0  0
   -8.7510   -1.3860    0.4330 C   0  0  0  0  0  0  0  0  0  0  0  0
   -7.2940   -1.7050    0.3400 C   0  0  0  0  0  0  0  0  0  0  0  0
    2.1070    0.9010    1.1570 C   0  0  0  0  0  0  0  0  0  0  0  0
    3.2650    1.6630    0.6070 C   0  0  1  0  0  0  0  0  0  0  0  0
    3.8940    2.3220    1.6300 O   0  0  0  0  0  0  0  0  0  0  0  0
  1  2  1  0
  2  3  1  0
  3  4  1  0
  4  5  2  0
  4  6  1  0
  6  7  1  0
  7  8  2  0
  7 32  1  0
  8  9  1  0
  8 10  1  0
 10 11  1  0
 11 12  1  1
 11 13  1  0
 11 31  1  0
 13 14  1  0
 14 15  2  0
 14 16  1  0
 16 17  2  0
 16 25  1  0
 17 18  1  0
 18 19  2  0
 18 23  1  0
 19 20  1  0
 20 21  2  0
 20 30  1  0
 21 22  1  0
 21 27  1  0
 22 23  2  0
 23 24  1  0
 24 25  1  0
 25 26  2  0
 27 28  1  0
 28 29  1  0
 29 30  1  0
 31 32  1  0
 32 33  1  1
M  END
