
     RDKit          3D

 33 36  0  0  0  0  0  0  0  0999 V2000
   -7.3830    2.6630   -0.7180 C   0  0  0  0  0  0  0  0  0  0  0  0
   -6.3480    1.7160   -0.6320 O   0  0  0  0  0  0  0  0  0  0  0  0
   -6.1310    0.7190   -1.5640 C   0  0  0  0  0  0  0  0  0  0  0  0
   -6.8960    0.6420   -2.5490 O   0  0  0  0  0  0  0  0  0  0  0  0
   -5.0340   -0.2260   -1.4050 C   0  0  0  0  0  0  0  0  0  0  0  0
   -4.2000   -0.1760   -0.2980 C   0  0  0  0  0  0  0  0  0  0  0  0
   -3.1470   -1.0370   -0.0820 C   0  0  0  0  0  0  0  0  0  0  0  0
   -2.3170   -0.9120    1.1170 C   0  0  0  0  0  0  0  0  0  0  0  0
   -2.5040    0.0730    1.8680 O   0  0  0  0  0  0  0  0  0  0  0  0
   -1.3150   -1.8300    1.4900 N   0  0  0  0  0  0  0  0  0  0  0  0
   -0.4510   -1.8110    2.6030 C   0  0  0  0  0  0  0  0  0  0  0  0
    0.5530   -0.7650    2.7820 C   0  0  2  0  0  0  0  0  0  0  0  0
    1.2650   -1.1360    4.1390 C   0  0  0  0  0  0  0  0  0  0  0  0
    0.0860    0.6480    3.0270 C   0  0  0  0  0  0  0  0  0  0  0  0
    1.8370    1.2950    3.3230 S   0  0  0  0  0  0  0  0  0  0  0  0
    2.5070    0.2930    1.9620 C   0  0  0  0  0  0  0  0  0  0  0  0
    3.6240    0.4510    1.1440 C   0  0  0  0  0  0  0  0  0  0  0  0
    3.9040   -0.4290    0.1430 C   0  0  0  0  0  0  0  0  0  0  0  0
    4.9820   -0.2580   -0.7710 C   0  0  0  0  0  0  0  0  0  0  0  0
    5.3170   -1.3510   -1.3960 O   0  0  0  0  0  0  0  0  0  0  0  0
    5.7360    0.8950   -1.1050 C   0  0  0  0  0  0  0  0  0  0  0  0
    6.7890    0.7430   -1.9250 C   0  0  0  0  0  0  0  0  0  0  0  0
    7.6570    1.8450   -2.3550 C   0  0  0  0  0  0  0  0  0  0  0  0
    7.1870    3.1010   -1.9610 O   0  0  0  0  0  0  0  0  0  0  0  0
    6.1040    3.2700   -1.1260 C   0  0  0  0  0  0  0  0  0  0  0  0
    5.3950    2.2320   -0.7030 C   0  0  0  0  0  0  0  0  0  0  0  0
    3.0050   -1.4990   -0.0070 C   0  0  0  0  0  0  0  0  0  0  0  0
    1.9170   -1.6660    0.7830 C   0  0  0  0  0  0  0  0  0  0  0  0
    1.6430   -0.7490    1.8070 C   0  0  0  0  0  0  0  0  0  0  0  0
   -2.9430   -1.9920   -1.0470 C   0  0  0  0  0  0  0  0  0  0  0  0
   -3.7530   -2.0770   -2.1670 C   0  0  0  0  0  0  0  0  0  0  0  0
   -4.7950   -1.2000   -2.3500 C   0  0  0  0  0  0  0  0  0  0  0  0
   -5.6370   -1.3180   -3.5540 C   0  0  0  0  0  0  0  0  0  0  0  0
  1  2  1  0
  2  3  1  0
  3  4  2  0
  3  5  1  0
  5  6  2  0
  5 32  1  0
  6  7  1  0
  7  8  1  0
  7 30  2  0
  8  9  2  0
  8 10  1  0
 10 11  1  0
 11 12  1  0
 12 13  1  1
 12 14  1  0
 12 29  1  0
 14 15  1  0
 15 16  1  0
 16 17  2  0
 16 29  1  0
 17 18  1  0
 18 19  1  0
 18 27  2  0
 19 20  2  0
 19 21  1  0
 21 22  2  0
 21 26  1  0
 22 23  1  0
 23 24  1  0
 24 25  1  0
 25 26  2  0
 27 28  1  0
 28 29  2  0
 30 31  1  0
 31 32  2  0
 32 33  1  0
M  END
