
     RDKit          3D

 32 32  0  0  0  0  0  0  0  0999 V2000
    0.4620    5.6570   -1.5620 C   0  0  0  0  0  0  0  0  0  0  0  0
    0.1550    4.2700   -1.6380 O   0  0  0  0  0  0  0  0  0  0  0  0
   -0.6910    3.7060   -0.7150 C   0  0  0  0  0  0  0  0  0  0  0  0
   -1.1780    4.4310    0.1830 O   0  0  0  0  0  0  0  0  0  0  0  0
   -1.0850    2.2580   -0.6980 C   0  0  2  0  0  0  0  0  0  0  0  0
   -0.9430    1.7950    0.7090 C   0  0  0  0  0  0  0  0  0  0  0  0
   -2.2820    1.8620    1.4440 C   0  0  1  0  0  0  0  0  0  0  0  0
   -3.2040    2.6220    0.7130 O   0  0  0  0  0  0  0  0  0  0  0  0
   -2.8790    0.5120    1.6620 C   0  0  0  0  0  0  0  0  0  0  0  0
   -2.1980   -0.4560    0.9290 O   0  0  0  0  0  0  0  0  0  0  0  0
   -3.0110   -1.5160    0.5790 C   0  0  2  0  0  0  0  0  0  0  0  0
   -3.6390   -2.0440    1.8690 C   0  0  0  0  0  0  0  0  0  0  0  0
   -2.5860   -2.4420    2.6900 O   0  0  0  0  0  0  0  0  0  0  0  0
   -2.1750   -2.5930   -0.0620 C   0  0  1  0  0  0  0  0  0  0  0  0
   -2.9290   -3.1060   -1.2630 C   0  0  0  0  0  0  0  0  0  0  0  0
   -2.2710   -4.1020   -1.9450 O   0  0  0  0  0  0  0  0  0  0  0  0
   -0.7930   -2.1270   -0.3870 C   0  0  0  0  0  0  0  0  0  0  0  0
   -0.7020   -1.2620   -1.6010 C   0  0  1  0  0  0  0  0  0  0  0  0
   -1.7060   -0.2970   -1.6540 O   0  0  0  0  0  0  0  0  0  0  0  0
    0.6840   -0.6230   -1.6390 C   0  0  2  0  0  0  0  0  0  0  0  0
    1.4170   -1.3160   -2.7760 C   0  0  0  0  0  0  0  0  0  0  0  0
    1.2870   -0.7700   -0.4320 O   0  0  0  0  0  0  0  0  0  0  0  0
    2.5300   -0.2680   -0.2600 C   0  0  0  0  0  0  0  0  0  0  0  0
    3.0210   -0.5510    1.1670 C   0  0  1  0  0  0  0  0  0  0  0  0
    3.0440   -1.9110    1.3650 O   0  0  0  0  0  0  0  0  0  0  0  0
    4.3930    0.0900    1.2630 C   0  0  1  0  0  0  0  0  0  0  0  0
    4.1960    1.4640    1.0400 O   0  0  0  0  0  0  0  0  0  0  0  0
    4.9380   -0.0360    2.5360 O   0  0  0  0  0  0  0  0  0  0  0  0
    6.1980   -0.6160    2.4070 C   0  0  0  0  0  0  0  0  0  0  0  0
    0.5930    0.8360   -1.9450 C   0  0  0  0  0  0  0  0  0  0  0  0
    1.6880    1.2830   -2.4500 O   0  0  0  0  0  0  0  0  0  0  0  0
   -0.5240    1.5220   -1.6970 O   0  0  0  0  0  0  0  0  0  0  0  0
  1  2  1  0
  2  3  1  0
  3  4  2  0
  5  3  1  1
  5  6  1  0
  5 32  1  0
  6  7  1  0
  7  8  1  6
  7  9  1  0
  9 10  1  0
 10 11  1  0
 11 12  1  1
 11 14  1  0
 12 13  1  0
 14 15  1  6
 14 17  1  0
 15 16  1  0
 17 18  1  0
 18 19  1  1
 18 20  1  0
 20 21  1  6
 20 22  1  0
 20 30  1  0
 22 23  1  0
 23 24  1  0
 24 25  1  6
 24 26  1  0
 26 27  1  1
 26 28  1  0
 28 29  1  0
 30 31  2  0
 30 32  1  0
M  END
