
     RDKit          3D

 33 34  0  0  0  0  0  0  0  0999 V2000
   -6.7080    1.5160   -3.0290 C   0  0  0  0  0  0  0  0  0  0  0  0
   -5.2040    1.3850   -3.2160 C   0  0  0  0  0  0  0  0  0  0  0  0
   -4.5060    1.2570   -1.9200 C   0  0  0  0  0  0  0  0  0  0  0  0
   -4.6410    2.3070   -1.0000 O   0  0  0  0  0  0  0  0  0  0  0  0
   -3.7800    0.2040   -1.6230 C   0  0  0  0  0  0  0  0  0  0  0  0
   -3.6380   -0.8210   -2.5010 O   0  0  0  0  0  0  0  0  0  0  0  0
   -3.1030    0.1530   -0.2820 C   0  0  0  0  0  0  0  0  0  0  0  0
   -3.2580    1.0880    0.4670 O   0  0  0  0  0  0  0  0  0  0  0  0
   -2.3300   -0.9210    0.0880 N   0  0  0  0  0  0  0  0  0  0  0  0
   -1.5580   -1.5170    1.0180 C   0  0  0  0  0  0  0  0  0  0  0  0
   -1.2290   -1.1320    2.1880 C   0  0  0  0  0  0  0  0  0  0  0  0
   -1.6600    0.0840    2.7400 C   0  0  0  0  0  0  0  0  0  0  0  0
   -1.1310    0.2770    3.9580 O   0  0  0  0  0  0  0  0  0  0  0  0
   -2.4390    1.1340    2.4500 O   0  0  0  0  0  0  0  0  0  0  0  0
   -0.3380   -2.0100    3.0990 C   0  0  1  0  0  0  0  0  0  0  0  0
   -0.5710   -1.8090    4.5330 C   0  0  0  0  0  0  0  0  0  0  0  0
   -0.5710   -3.4200    2.8090 N   0  0  0  0  0  0  0  0  0  0  0  0
    1.0610   -1.6110    2.7020 C   0  0  0  0  0  0  0  0  0  0  0  0
    1.3020   -2.1730    1.3330 C   0  0  0  0  0  0  0  0  0  0  0  0
    2.4700   -1.9320    0.8020 C   0  0  0  0  0  0  0  0  0  0  0  0
    3.5050   -1.1540    1.4930 C   0  0  0  0  0  0  0  0  0  0  0  0
    3.8860    0.0070    0.7810 O   0  0  0  0  0  0  0  0  0  0  0  0
    4.4230    0.0040   -0.4870 C   0  0  0  0  0  0  0  0  0  0  0  0
    4.5760   -1.1270   -1.0330 O   0  0  0  0  0  0  0  0  0  0  0  0
    4.7980    1.2400   -1.1740 C   0  0  0  0  0  0  0  0  0  0  0  0
    4.6790    2.5160   -0.6800 C   0  0  0  0  0  0  0  0  0  0  0  0
    5.1380    3.4080   -1.6220 C   0  0  0  0  0  0  0  0  0  0  0  0
    5.1740    4.7840   -1.4780 O   0  0  0  0  0  0  0  0  0  0  0  0
    5.5390    2.6520   -2.6980 C   0  0  0  0  0  0  0  0  0  0  0  0
    6.0850    3.1470   -3.9130 N   0  0  0  0  0  0  0  0  0  0  0  0
    5.3250    1.3520   -2.4050 N   0  0  0  0  0  0  0  0  0  0  0  0
    0.3630   -2.9180    0.6220 O   0  0  0  0  0  0  0  0  0  0  0  0
   -0.9890   -2.8640    0.4000 C   0  0  0  0  0  0  0  0  0  0  0  0
  1  2  1  0
  2  3  1  0
  3  4  1  0
  3  5  2  3
  5  6  1  0
  5  7  1  0
  7  8  2  0
  7  9  1  0
  9 10  1  0
 10 11  2  0
 10 33  1  0
 11 12  1  0
 11 15  1  0
 12 13  2  0
 12 14  1  0
 15 16  1  1
 15 17  1  0
 15 18  1  0
 18 19  1  0
 19 20  2  3
 19 32  1  0
 20 21  1  0
 21 22  1  0
 22 23  1  0
 23 24  2  0
 23 25  1  0
 25 26  2  0
 25 31  1  0
 26 27  1  0
 27 28  1  0
 27 29  2  0
 29 30  1  0
 29 31  1  0
 32 33  1  0
M  END
