
     RDKit          3D

 32 35  0  0  0  0  0  0  0  0999 V2000
    2.2900    2.1140   -1.2200 C   0  0  0  0  0  0  0  0  0  0  0  0
    2.2800    0.7130   -0.6660 C   0  0  1  0  0  0  0  0  0  0  0  0
    3.6530    0.2940   -0.3930 C   0  0  0  0  0  0  0  0  0  0  0  0
    4.6630    0.8810   -1.1710 C   0  0  0  0  0  0  0  0  0  0  0  0
    5.9810    0.5220   -0.9740 C   0  0  0  0  0  0  0  0  0  0  0  0
    6.2920   -0.4110   -0.0140 C   0  0  0  0  0  0  0  0  0  0  0  0
    5.2850   -0.9920    0.7560 C   0  0  0  0  0  0  0  0  0  0  0  0
    5.5690   -1.9370    1.7330 O   0  0  0  0  0  0  0  0  0  0  0  0
    3.9770   -0.6390    0.5660 C   0  0  0  0  0  0  0  0  0  0  0  0
    2.9080   -1.2150    1.3580 C   0  0  0  0  0  0  0  0  0  0  0  0
    3.1300   -2.0890    2.2640 O   0  0  0  0  0  0  0  0  0  0  0  0
    1.5280   -0.7550    1.0820 C   0  0  0  0  0  0  0  0  0  0  0  0
    0.5350   -1.5340    1.3130 C   0  0  0  0  0  0  0  0  0  0  0  0
    0.7620   -2.8270    1.8310 O   0  0  0  0  0  0  0  0  0  0  0  0
   -0.8310   -1.1570    1.0680 C   0  0  2  0  0  0  0  0  0  0  0  0
   -1.6150   -1.6720    2.1270 O   0  0  0  0  0  0  0  0  0  0  0  0
   -1.2660   -1.9300   -0.1610 C   0  0  0  0  0  0  0  0  0  0  0  0
   -0.4740   -2.4090   -0.9370 O   0  0  0  0  0  0  0  0  0  0  0  0
   -2.7320   -2.0220   -0.2880 C   0  0  2  0  0  0  0  0  0  0  0  0
   -3.1670   -2.6230   -1.5560 C   0  0  0  0  0  0  0  0  0  0  0  0
   -4.5260   -2.8160   -1.9060 N   0  0  0  0  0  0  0  0  0  0  0  0
   -2.2880   -2.9850   -2.3770 O   0  0  0  0  0  0  0  0  0  0  0  0
   -3.3340   -0.7100    0.0190 C   0  0  2  0  0  0  0  0  0  0  0  0
   -4.3130   -0.4470   -0.9620 O   0  0  0  0  0  0  0  0  0  0  0  0
   -2.4100    0.4630    0.0170 C   0  0  1  0  0  0  0  0  0  0  0  0
   -3.1760    1.6290    0.3960 N   0  0  1  0  0  0  0  0  0  0  0  0
   -3.1880    1.8530    1.8260 C   0  0  0  0  0  0  0  0  0  0  0  0
   -2.8420    2.8010   -0.3550 C   0  0  0  0  0  0  0  0  0  0  0  0
   -1.1450    0.2710    0.8100 C   0  0  2  0  0  0  0  0  0  0  0  0
    0.0020    1.0690    0.2570 C   0  0  1  0  0  0  0  0  0  0  0  0
   -0.0660    2.4140    0.6960 O   0  0  0  0  0  0  0  0  0  0  0  0
    1.3580    0.5860    0.5600 C   0  0  2  0  0  0  0  0  0  0  0  0
  2  1  1  1
  2  3  1  0
  2 32  1  0
  3  4  2  0
  3  9  1  0
  4  5  1  0
  5  6  2  0
  6  7  1  0
  7  8  1  0
  7  9  2  0
  9 10  1  0
 10 11  2  0
 10 12  1  0
 12 13  2  0
 32 12  1  6
 13 14  1  0
 13 15  1  0
 15 16  1  1
 15 17  1  0
 29 15  1  6
 17 18  2  0
 17 19  1  0
 19 20  1  6
 19 23  1  0
 20 21  1  0
 20 22  2  0
 23 24  1  6
 23 25  1  0
 25 26  1  1
 25 29  1  0
 26 27  1  1
 26 28  1  0
 29 30  1  0
 30 31  1  1
 30 32  1  0
M  CHG  1  26   1
M  END
