
     RDKit          3D

 33 33  0  0  0  0  0  0  0  0999 V2000
    5.7820   -0.2360    2.3580 C   0  0  0  0  0  0  0  0  0  0  0  0
    5.9400    0.1530    1.1090 C   0  0  0  0  0  0  0  0  0  0  0  0
    7.2000    0.0520    0.5440 O   0  0  0  0  0  0  0  0  0  0  0  0
    4.8850    0.6640    0.3320 N   0  0  0  0  0  0  0  0  0  0  0  0
    3.8870   -0.0660    0.0370 C   0  0  0  0  0  0  0  0  0  0  0  0
    3.8550   -1.4090    0.5040 O   0  0  0  0  0  0  0  0  0  0  0  0
    2.7340    0.3280   -0.7550 C   0  0  0  0  0  0  0  0  0  0  0  0
    2.6910    1.5700   -1.2360 C   0  0  0  0  0  0  0  0  0  0  0  0
    3.8050    2.5610   -0.9870 C   0  0  0  0  0  0  0  0  0  0  0  0
    1.5730    2.0850   -2.0020 N   0  0  0  0  0  0  0  0  0  0  0  0
    0.1880    2.1030   -1.5840 C   0  0  0  0  0  0  0  0  0  0  0  0
   -0.6000    1.3730   -2.3300 O   0  0  0  0  0  0  0  0  0  0  0  0
   -0.4070    2.7670   -0.5270 N   0  0  0  0  0  0  0  0  0  0  0  0
   -1.1190    3.9970   -0.3150 C   0  0  0  0  0  0  0  0  0  0  0  0
   -2.4440    3.7520    0.4220 C   0  0  0  0  0  0  0  0  0  0  0  0
   -3.1130    2.6070    0.0740 O   0  0  0  0  0  0  0  0  0  0  0  0
   -2.6450    1.4550    0.6520 C   0  0  0  0  0  0  0  0  0  0  0  0
   -3.6420    0.5760    1.3220 C   0  0  0  0  0  0  0  0  0  0  0  0
   -4.5980    1.2360    1.8680 O   0  0  0  0  0  0  0  0  0  0  0  0
   -3.5910   -0.8360    1.3860 N   0  0  0  0  0  0  0  0  0  0  0  0
   -3.6370   -1.8020    0.3400 C   0  0  0  0  0  0  0  0  0  0  0  0
   -4.4990   -2.8290    0.5340 C   0  0  0  0  0  0  0  0  0  0  0  0
   -4.5880   -3.8110   -0.4600 O   0  0  0  0  0  0  0  0  0  0  0  0
   -5.3250   -2.9480    1.7130 C   0  0  0  0  0  0  0  0  0  0  0  0
   -5.3630   -2.1700    2.6550 O   0  0  0  0  0  0  0  0  0  0  0  0
   -6.1830   -4.0670    1.8140 O   0  0  0  0  0  0  0  0  0  0  0  0
   -2.8960   -1.8310   -0.9220 C   0  0  0  0  0  0  0  0  0  0  0  0
   -1.6390   -1.8920   -1.2750 C   0  0  0  0  0  0  0  0  0  0  0  0
   -1.5430   -1.8860   -2.7490 O   0  0  0  0  0  0  0  0  0  0  0  0
   -0.3160   -1.9700   -0.7490 C   0  0  0  0  0  0  0  0  0  0  0  0
    0.3920   -3.1420   -0.8120 C   0  0  0  0  0  0  0  0  0  0  0  0
    0.5610   -0.8960   -0.1180 C   0  0  0  0  0  0  0  0  0  0  0  0
    1.6940   -0.6150   -1.0660 C   0  0  0  0  0  0  0  0  0  0  0  0
  1  2  2  0
  2  3  1  0
  2  4  1  0
  4  5  2  3
  5  6  1  0
  5  7  1  0
  7  8  2  0
  7 33  1  0
  8  9  1  0
  8 10  1  0
 10 11  1  0
 11 12  2  0
 11 13  1  0
 13 14  1  0
 14 15  1  0
 15 16  1  0
 16 17  1  0
 17 18  1  0
 18 19  2  0
 18 20  1  0
 20 21  1  0
 21 22  2  3
 21 27  1  0
 22 23  1  0
 22 24  1  0
 24 25  2  0
 24 26  1  0
 27 28  2  0
 28 29  1  0
 28 30  1  0
 30 31  2  0
 30 32  1  0
 32 33  1  0
M  END
