
     RDKit          3D

 39 41  0  0  0  0  0  0  0  0999 V2000
    6.4380   -2.9750    0.1710 C   0  0  0  0  0  0  0  0  0  0  0  0
    5.4160   -3.3330   -0.7120 O   0  0  0  0  0  0  0  0  0  0  0  0
    4.1440   -2.7690   -0.7080 C   0  0  0  0  0  0  0  0  0  0  0  0
    3.7740   -1.7850    0.1900 C   0  0  0  0  0  0  0  0  0  0  0  0
    2.4980   -1.1990    0.2170 C   0  0  0  0  0  0  0  0  0  0  0  0
    1.6170   -1.6800   -0.7310 C   0  0  0  0  0  0  0  0  0  0  0  0
    2.0010   -2.6730   -1.6320 C   0  0  0  0  0  0  0  0  0  0  0  0
    3.2470   -3.2170   -1.6280 C   0  0  0  0  0  0  0  0  0  0  0  0
    3.6380   -4.2190   -2.5350 O   0  0  0  0  0  0  0  0  0  0  0  0
    0.1920   -1.2060   -0.8580 C   0  0  1  0  0  0  0  0  0  0  0  0
   -0.1970   -1.4050   -2.2090 O   0  0  0  0  0  0  0  0  0  0  0  0
   -0.7100   -2.0790   -0.0720 C   0  0  0  0  0  0  0  0  0  0  0  0
   -0.1620   -3.4470    0.2620 C   0  0  0  0  0  0  0  0  0  0  0  0
   -1.0940   -4.2240    1.0580 N   0  0  0  0  0  0  0  0  0  0  0  0
   -1.9070   -1.7890    0.3680 C   0  0  0  0  0  0  0  0  0  0  0  0
   -2.6650   -0.5200    0.1970 C   0  0  2  0  0  0  0  0  0  0  0  0
   -3.4430   -0.5430   -1.0980 C   0  0  2  0  0  0  0  0  0  0  0  0
   -4.4190    0.4490   -1.1720 O   0  0  0  0  0  0  0  0  0  0  0  0
   -4.1250   -1.8550   -1.1950 C   0  0  0  0  0  0  0  0  0  0  0  0
   -3.4040   -3.0530   -1.2430 O   0  0  0  0  0  0  0  0  0  0  0  0
   -5.4280   -1.9340   -1.2380 C   0  0  0  0  0  0  0  0  0  0  0  0
   -6.1770   -0.7750   -1.1930 O   0  0  0  0  0  0  0  0  0  0  0  0
   -1.9330    0.5620    0.4790 O   0  0  0  0  0  0  0  0  0  0  0  0
   -2.0260    1.7330   -0.1650 C   0  0  0  0  0  0  0  0  0  0  0  0
   -2.2040    2.8540    0.8390 C   0  0  0  0  0  0  0  0  0  0  0  0
   -2.8340    2.5110    2.0130 C   0  0  0  0  0  0  0  0  0  0  0  0
   -3.0790    3.4400    3.0130 C   0  0  0  0  0  0  0  0  0  0  0  0
   -2.6820    4.7410    2.8270 C   0  0  0  0  0  0  0  0  0  0  0  0
   -2.0540    5.0660    1.6460 C   0  0  0  0  0  0  0  0  0  0  0  0
   -1.7930    4.1450    0.6180 C   0  0  0  0  0  0  0  0  0  0  0  0
   -1.1630    4.5790   -0.5080 O   0  0  0  0  0  0  0  0  0  0  0  0
    0.0260    4.2500   -1.1280 C   0  0  0  0  0  0  0  0  0  0  0  0
    1.1270    3.7520   -0.2180 C   0  0  0  0  0  0  0  0  0  0  0  0
    1.6300    2.6080   -0.7810 O   0  0  0  0  0  0  0  0  0  0  0  0
    2.4360    1.8350    0.0040 C   0  0  1  0  0  0  0  0  0  0  0  0
    3.5720    2.6700    0.5840 C   0  0  0  0  0  0  0  0  0  0  0  0
    4.3040    3.1870   -0.5040 O   0  0  0  0  0  0  0  0  0  0  0  0
    1.7450    1.0590    1.0890 C   0  0  0  0  0  0  0  0  0  0  0  0
    2.2250   -0.2270    1.1460 O   0  0  0  0  0  0  0  0  0  0  0  0
  1  2  1  0
  2  3  1  0
  3  4  2  0
  3  8  1  0
  4  5  1  0
  5  6  2  0
  5 39  1  0
  6  7  1  0
  6 10  1  0
  7  8  2  0
  8  9  1  0
 10 11  1  6
 10 12  1  0
 12 13  1  0
 12 15  2  0
 13 14  1  0
 15 16  1  0
 16 17  1  0
 16 23  1  6
 17 18  1  1
 17 19  1  0
 19 20  1  0
 19 21  2  3
 21 22  1  0
 23 24  1  0
 24 25  1  0
 25 26  2  0
 25 30  1  0
 26 27  1  0
 27 28  2  0
 28 29  1  0
 29 30  2  0
 30 31  1  0
 31 32  1  0
 32 33  1  0
 33 34  1  0
 34 35  1  0
 35 36  1  1
 35 38  1  0
 36 37  1  0
 38 39  1  0
M  CHG  1  14   1
M  END
