
     RDKit          3D

 39 43  0  0  0  0  0  0  0  0999 V2000
    5.8730   -4.4960    1.0190 C   0  0  0  0  0  0  0  0  0  0  0  0
    5.0070   -3.3850    0.8070 O   0  0  0  0  0  0  0  0  0  0  0  0
    5.4280   -2.0870    1.0730 C   0  0  0  0  0  0  0  0  0  0  0  0
    6.7090   -1.8240    1.5550 C   0  0  0  0  0  0  0  0  0  0  0  0
    7.1200   -0.5350    1.8170 C   0  0  0  0  0  0  0  0  0  0  0  0
    6.2200    0.4840    1.5840 C   0  0  0  0  0  0  0  0  0  0  0  0
    4.9370    0.2190    1.1010 C   0  0  0  0  0  0  0  0  0  0  0  0
    4.5250   -1.0720    0.8390 C   0  0  0  0  0  0  0  0  0  0  0  0
    3.1890   -1.3930    0.3320 C   0  0  0  0  0  0  0  0  0  0  0  0
    2.8320   -2.5810    0.0990 O   0  0  0  0  0  0  0  0  0  0  0  0
    2.2500   -0.3030    0.0910 C   0  0  0  0  0  0  0  0  0  0  0  0
    0.9750   -0.6310   -0.3960 C   0  0  0  0  0  0  0  0  0  0  0  0
    0.6370   -1.9420   -0.6310 O   0  0  0  0  0  0  0  0  0  0  0  0
    0.0950    0.3920   -0.6230 C   0  0  0  0  0  0  0  0  0  0  0  0
    0.4980    1.7210   -0.3600 C   0  0  0  0  0  0  0  0  0  0  0  0
    1.7460    2.0340    0.1160 C   0  0  0  0  0  0  0  0  0  0  0  0
    2.1570    3.3210    0.3780 O   0  0  0  0  0  0  0  0  0  0  0  0
    2.6460    0.9810    0.3470 C   0  0  0  0  0  0  0  0  0  0  0  0
    3.9860    1.3020    0.8560 C   0  0  0  0  0  0  0  0  0  0  0  0
    4.3230    2.4830    1.0810 O   0  0  0  0  0  0  0  0  0  0  0  0
   -0.5330    2.7310   -0.6380 C   0  0  0  0  0  0  0  0  0  0  0  0
   -1.0480    2.5350   -2.0500 C   0  0  1  0  0  0  0  0  0  0  0  0
   -2.0950    3.4230   -2.3040 O   0  0  0  0  0  0  0  0  0  0  0  0
    0.0720    2.8970   -2.9610 C   0  0  0  0  0  0  0  0  0  0  0  0
    1.1150    2.2720   -2.9420 O   0  0  0  0  0  0  0  0  0  0  0  0
   -0.0340    4.0290   -3.9270 C   0  0  0  0  0  0  0  0  0  0  0  0
    1.1260    4.1820   -4.6690 O   0  0  0  0  0  0  0  0  0  0  0  0
   -1.4620    1.1370   -2.3280 C   0  0  0  0  0  0  0  0  0  0  0  0
   -1.2880    0.2120   -1.1390 C   0  0  2  0  0  0  0  0  0  0  0  0
   -2.1770    0.4740   -0.1270 O   0  0  0  0  0  0  0  0  0  0  0  0
   -2.9830   -0.6370    0.0910 C   0  0  1  0  0  0  0  0  0  0  0  0
   -2.8030   -1.0760    1.5010 C   0  0  0  0  0  0  0  0  0  0  0  0
   -3.9540   -1.7490    2.1400 C   0  0  2  0  0  0  0  0  0  0  0  0
   -3.7790   -3.1830    2.2940 N   0  0  0  0  0  0  0  0  0  0  0  0
   -5.2920   -1.4410    1.4580 C   0  0  2  0  0  0  0  0  0  0  0  0
   -5.4410   -2.3890    0.4510 O   0  0  0  0  0  0  0  0  0  0  0  0
   -5.0740   -0.0560    0.8310 C   0  0  2  0  0  0  0  0  0  0  0  0
   -6.3540    0.6330    0.5160 C   0  0  0  0  0  0  0  0  0  0  0  0
   -4.2690   -0.2800   -0.2570 O   0  0  0  0  0  0  0  0  0  0  0  0
  1  2  1  0
  2  3  1  0
  3  4  2  0
  3  8  1  0
  4  5  1  0
  5  6  2  0
  6  7  1  0
  7  8  2  0
  7 19  1  0
  8  9  1  0
  9 10  2  0
  9 11  1  0
 11 12  2  0
 11 18  1  0
 12 13  1  0
 12 14  1  0
 14 15  2  0
 14 29  1  0
 15 16  1  0
 15 21  1  0
 16 17  1  0
 16 18  2  0
 18 19  1  0
 19 20  2  0
 21 22  1  0
 22 23  1  6
 22 24  1  0
 22 28  1  0
 24 25  2  0
 24 26  1  0
 26 27  1  0
 28 29  1  0
 29 30  1  1
 31 30  1  1
 31 32  1  0
 31 39  1  0
 32 33  1  0
 33 34  1  6
 33 35  1  0
 35 36  1  6
 35 37  1  0
 37 38  1  6
 37 39  1  0
M  CHG  1  34   1
M  END
