
     RDKit          3D

 39 42  0  0  0  0  0  0  0  0999 V2000
    4.4530   -3.7170    2.0580 C   0  0  0  0  0  0  0  0  0  0  0  0
    4.7490   -3.5530    0.6000 C   0  0  2  0  0  0  0  0  0  0  0  0
    6.1270   -3.4200    0.4380 O   0  0  0  0  0  0  0  0  0  0  0  0
    4.0270   -2.3890    0.0090 C   0  0  0  0  0  0  0  0  0  0  0  0
    3.1930   -1.5920    0.7480 C   0  0  0  0  0  0  0  0  0  0  0  0
    2.5140   -0.5120    0.2280 C   0  0  0  0  0  0  0  0  0  0  0  0
    1.6440    0.2890    1.0770 C   0  0  0  0  0  0  0  0  0  0  0  0
    1.5100   -0.0040    2.2930 O   0  0  0  0  0  0  0  0  0  0  0  0
    0.9350    1.3830    0.6160 O   0  0  0  0  0  0  0  0  0  0  0  0
    0.0880    2.1440    1.4940 C   0  0  1  0  0  0  0  0  0  0  0  0
    0.5650    3.5560    1.4220 C   0  0  0  0  0  0  0  0  0  0  0  0
   -0.4160    4.5680    1.9410 C   0  0  1  0  0  0  0  0  0  0  0  0
    0.1230    5.8270    1.8490 O   0  0  0  0  0  0  0  0  0  0  0  0
   -1.6820    4.4180    1.1170 C   0  0  2  0  0  0  0  0  0  0  0  0
   -1.4790    4.7400   -0.3220 C   0  0  0  0  0  0  0  0  0  0  0  0
   -2.6700    5.4410    1.6760 C   0  0  0  0  0  0  0  0  0  0  0  0
   -2.0790    6.7010    1.5210 O   0  0  0  0  0  0  0  0  0  0  0  0
   -2.2430    3.0660    1.3970 C   0  0  0  0  0  0  0  0  0  0  0  0
   -1.3270    1.9700    0.9290 C   0  0  2  0  0  0  0  0  0  0  0  0
   -1.7740    0.6920    1.1540 O   0  0  0  0  0  0  0  0  0  0  0  0
   -2.0070   -0.2050    0.1260 C   0  0  0  0  0  0  0  0  0  0  0  0
   -1.7830    0.2230   -1.0130 O   0  0  0  0  0  0  0  0  0  0  0  0
   -2.4750   -1.5480    0.3200 C   0  0  0  0  0  0  0  0  0  0  0  0
   -2.6590   -2.1530    1.5450 C   0  0  0  0  0  0  0  0  0  0  0  0
   -3.0880   -3.4420    1.3110 C   0  0  0  0  0  0  0  0  0  0  0  0
   -3.4160   -4.4770    2.3520 C   0  0  0  0  0  0  0  0  0  0  0  0
   -2.3250   -5.2760    2.6410 O   0  0  0  0  0  0  0  0  0  0  0  0
   -3.1500   -3.5740    0.0230 O   0  0  0  0  0  0  0  0  0  0  0  0
   -2.7980   -2.4820   -0.6250 C   0  0  0  0  0  0  0  0  0  0  0  0
   -2.7780   -2.3470   -2.1240 C   0  0  0  0  0  0  0  0  0  0  0  0
   -4.0080   -1.6280   -2.6310 C   0  0  0  0  0  0  0  0  0  0  0  0
   -3.9870   -1.4910   -4.0710 N   0  0  0  0  0  0  0  0  0  0  0  0
    2.6960   -0.2310   -1.1180 C   0  0  0  0  0  0  0  0  0  0  0  0
    2.0470    0.8360   -1.7090 O   0  0  0  0  0  0  0  0  0  0  0  0
    3.5280   -1.0060   -1.9110 C   0  0  0  0  0  0  0  0  0  0  0  0
    4.1840   -2.0800   -1.3260 C   0  0  0  0  0  0  0  0  0  0  0  0
    4.9600   -2.7150   -2.2940 O   0  0  0  0  0  0  0  0  0  0  0  0
    5.1450   -1.8090   -3.3910 C   0  0  0  0  0  0  0  0  0  0  0  0
    3.9060   -0.9400   -3.3580 C   0  0  0  0  0  0  0  0  0  0  0  0
  2  1  1  1
  2  3  1  0
  2  4  1  0
  4  5  2  0
  4 36  1  0
  5  6  1  0
  6  7  1  0
  6 33  2  0
  7  8  2  0
  7  9  1  0
 10  9  1  6
 10 11  1  0
 10 19  1  0
 11 12  1  0
 12 13  1  6
 12 14  1  0
 14 15  1  6
 14 16  1  0
 14 18  1  0
 16 17  1  0
 18 19  1  0
 19 20  1  1
 20 21  1  0
 21 22  2  0
 21 23  1  0
 23 24  1  0
 23 29  2  0
 24 25  2  0
 25 26  1  0
 25 28  1  0
 26 27  1  0
 28 29  1  0
 29 30  1  0
 30 31  1  0
 31 32  1  0
 33 34  1  0
 33 35  1  0
 35 36  2  0
 35 39  1  0
 36 37  1  0
 37 38  1  0
 38 39  1  0
M  CHG  1  32   1
M  END
