
     RDKit          3D

 39 42  0  0  0  0  0  0  0  0999 V2000
    4.0130    0.1470   -2.0920 C   0  0  0  0  0  0  0  0  0  0  0  0
    4.7390   -0.6500   -1.0930 C   0  0  0  0  0  0  0  0  0  0  0  0
    6.1000   -0.8860   -1.2340 C   0  0  0  0  0  0  0  0  0  0  0  0
    6.8180   -0.3870   -2.3080 O   0  0  0  0  0  0  0  0  0  0  0  0
    6.7660   -1.6350   -0.2890 C   0  0  0  0  0  0  0  0  0  0  0  0
    6.0930   -2.1630    0.8140 C   0  0  0  0  0  0  0  0  0  0  0  0
    4.7200   -1.9070    0.9300 C   0  0  0  0  0  0  0  0  0  0  0  0
    4.0390   -2.4220    2.0190 O   0  0  0  0  0  0  0  0  0  0  0  0
    4.0550   -1.1600   -0.0140 C   0  0  0  0  0  0  0  0  0  0  0  0
    2.7070   -0.9260    0.1270 O   0  0  0  0  0  0  0  0  0  0  0  0
    2.1880    0.1880    0.8450 C   0  0  0  0  0  0  0  0  0  0  0  0
    0.6690    0.1900    0.8150 C   0  0  2  0  0  0  0  0  0  0  0  0
    0.1490    1.2250    1.5180 O   0  0  0  0  0  0  0  0  0  0  0  0
    0.9850    2.0520    2.1980 C   0  0  0  0  0  0  0  0  0  0  0  0
    0.4900    3.4860    1.9660 C   0  0  0  0  0  0  0  0  0  0  0  0
    0.2960    3.7250    0.4730 C   0  0  0  0  0  0  0  0  0  0  0  0
   -0.9380    4.5380    0.2490 C   0  0  2  0  0  0  0  0  0  0  0  0
   -1.8940    4.3150    1.2600 O   0  0  0  0  0  0  0  0  0  0  0  0
   -1.5450    4.3660   -1.0940 C   0  0  0  0  0  0  0  0  0  0  0  0
   -1.2150    5.2300   -1.9520 O   0  0  0  0  0  0  0  0  0  0  0  0
   -2.3940    3.3130   -1.2950 O   0  0  0  0  0  0  0  0  0  0  0  0
   -2.1490    1.9470   -1.3350 C   0  0  0  0  0  0  0  0  0  0  0  0
   -2.7870    1.3080   -0.1340 C   0  0  1  0  0  0  0  0  0  0  0  0
   -4.1530    1.6890   -0.2020 O   0  0  0  0  0  0  0  0  0  0  0  0
   -2.7520   -0.2050   -0.1500 C   0  0  1  0  0  0  0  0  0  0  0  0
   -2.7840   -0.6670    1.3000 C   0  0  0  0  0  0  0  0  0  0  0  0
   -4.2410   -0.6440    1.7950 C   0  0  0  0  0  0  0  0  0  0  0  0
   -4.8820   -1.8400    1.3050 N   0  0  0  0  0  0  0  0  0  0  0  0
   -4.4270   -2.0460   -0.0610 C   0  0  0  0  0  0  0  0  0  0  0  0
   -4.0860   -0.7250   -0.7280 C   0  0  2  0  0  0  0  0  0  0  0  0
   -3.9090   -0.9590   -2.0730 O   0  0  0  0  0  0  0  0  0  0  0  0
   -1.7330   -0.7570   -0.9170 O   0  0  0  0  0  0  0  0  0  0  0  0
   -1.0160   -1.9350   -0.7810 C   0  0  0  0  0  0  0  0  0  0  0  0
   -1.1760   -2.9950   -1.6670 C   0  0  0  0  0  0  0  0  0  0  0  0
   -0.4930   -4.1880   -1.5720 C   0  0  0  0  0  0  0  0  0  0  0  0
    0.3940   -4.3660   -0.5640 C   0  0  0  0  0  0  0  0  0  0  0  0
    0.5670   -3.3280    0.3220 C   0  0  0  0  0  0  0  0  0  0  0  0
   -0.1000   -2.1200    0.2530 C   0  0  0  0  0  0  0  0  0  0  0  0
    0.1350   -1.0950    1.1930 O   0  0  0  0  0  0  0  0  0  0  0  0
  1  2  1  0
  2  3  2  0
  2  9  1  0
  3  4  1  0
  3  5  1  0
  5  6  2  0
  6  7  1  0
  7  8  1  0
  7  9  2  0
  9 10  1  0
 10 11  1  0
 12 11  1  1
 12 13  1  0
 12 39  1  0
 13 14  1  0
 14 15  1  0
 15 16  1  0
 16 17  1  0
 17 18  1  1
 17 19  1  0
 19 20  2  0
 19 21  1  0
 21 22  1  0
 22 23  1  0
 23 24  1  6
 23 25  1  0
 25 26  1  1
 25 30  1  0
 25 32  1  0
 26 27  1  0
 27 28  1  0
 28 29  1  0
 29 30  1  0
 30 31  1  6
 32 33  1  0
 33 34  2  0
 33 38  1  0
 34 35  1  0
 35 36  2  0
 36 37  1  0
 37 38  2  0
 38 39  1  0
M  CHG  1  28   1
M  END
