
     RDKit          3D

 39 43  0  0  0  0  0  0  0  0999 V2000
   -3.3500   -3.8920    2.5370 C   0  0  0  0  0  0  0  0  0  0  0  0
   -3.2860   -2.6240    2.2370 C   0  0  0  0  0  0  0  0  0  0  0  0
   -2.9960   -1.6450    3.2130 C   0  0  0  0  0  0  0  0  0  0  0  0
   -3.0030   -0.4500    2.5790 C   0  0  0  0  0  0  0  0  0  0  0  0
   -3.2730   -0.6080    1.2870 N   0  0  0  0  0  0  0  0  0  0  0  0
   -3.3510    0.4560    0.3680 C   0  0  0  0  0  0  0  0  0  0  0  0
   -4.4620    1.3080    0.3370 C   0  0  0  0  0  0  0  0  0  0  0  0
   -4.5460    2.3440   -0.5480 C   0  0  0  0  0  0  0  0  0  0  0  0
   -3.5400    2.6010   -1.4550 C   0  0  0  0  0  0  0  0  0  0  0  0
   -3.6680    3.7450   -2.4090 C   0  0  0  0  0  0  0  0  0  0  0  0
   -2.4490    1.7750   -1.4340 C   0  0  0  0  0  0  0  0  0  0  0  0
   -2.3410    0.7090   -0.5380 C   0  0  0  0  0  0  0  0  0  0  0  0
   -1.2000   -0.1170   -0.5550 N   0  0  0  0  0  0  0  0  0  0  0  0
   -0.3440   -0.2730    0.5870 C   0  0  0  0  0  0  0  0  0  0  0  0
    1.1090   -0.4500    0.1360 C   0  0  0  0  0  0  0  0  0  0  0  0
    1.2810    0.1940   -1.1110 N   0  0  0  0  0  0  0  0  0  0  0  0
    2.6000    0.6170   -1.4290 C   0  0  1  0  0  0  0  0  0  0  0  0
    3.6320   -0.4720   -1.5850 C   0  0  0  0  0  0  0  0  0  0  0  0
    2.4980    1.2830   -2.7700 N   0  0  0  0  0  0  0  0  0  0  0  0
    1.8200    2.3850   -2.3940 O   0  0  0  0  0  0  0  0  0  0  0  0
    2.4970    2.8200   -1.2470 C   0  0  0  0  0  0  0  0  0  0  0  0
    2.6230    4.2270   -0.8280 C   0  0  0  0  0  0  0  0  0  0  0  0
    3.0120    1.7410   -0.5930 C   0  0  0  0  0  0  0  0  0  0  0  0
    3.7840    1.8870    0.5990 C   0  0  0  0  0  0  0  0  0  0  0  0
    4.3800    1.2150    1.4900 C   0  0  0  0  0  0  0  0  0  0  0  0
    4.6240   -0.1560    1.8280 C   0  0  0  0  0  0  0  0  0  0  0  0
    5.5640   -0.4280    2.8500 C   0  0  0  0  0  0  0  0  0  0  0  0
    5.8050   -1.6830    3.2680 N   0  0  0  0  0  0  0  0  0  0  0  0
    5.1780   -2.7410    2.7480 C   0  0  0  0  0  0  0  0  0  0  0  0
    4.2440   -2.5010    1.7350 C   0  0  0  0  0  0  0  0  0  0  0  0
    4.0320   -1.2410    1.3480 N   0  0  0  0  0  0  0  0  0  0  0  0
    0.4890   -0.2360   -2.2010 C   0  0  0  0  0  0  0  0  0  0  0  0
   -0.8530   -0.8350   -1.7510 C   0  0  0  0  0  0  0  0  0  0  0  0
   -3.4510   -1.9520    1.0620 C   0  0  0  0  0  0  0  0  0  0  0  0
   -3.7410   -2.3800   -0.1320 C   0  0  0  0  0  0  0  0  0  0  0  0
   -3.9820   -3.7460   -0.5780 C   0  0  1  0  0  0  0  0  0  0  0  0
   -5.0710   -4.3420    0.0040 F   0  0  0  0  0  0  0  0  0  0  0  0
   -4.2720   -3.7200   -1.9800 F   0  0  0  0  0  0  0  0  0  0  0  0
   -2.8860   -4.5610   -0.4730 F   0  0  0  0  0  0  0  0  0  0  0  0
  1  2  2  0
  2  3  1  0
  2 34  1  0
  3  4  2  0
  4  5  1  0
  5  6  1  0
  5 34  1  0
  6  7  2  0
  6 12  1  0
  7  8  1  0
  8  9  2  0
  9 10  1  0
  9 11  1  0
 11 12  2  0
 12 13  1  0
 13 14  1  0
 13 33  1  0
 14 15  1  0
 15 16  1  0
 16 17  1  0
 16 32  1  0
 17 18  1  6
 17 19  1  0
 17 23  1  0
 19 20  1  0
 20 21  1  0
 21 22  1  0
 21 23  2  0
 23 24  1  0
 24 25  2  3
 25 26  1  0
 26 27  2  0
 26 31  1  0
 27 28  1  0
 28 29  2  0
 29 30  1  0
 30 31  2  0
 32 33  1  0
 34 35  2  3
 35 36  1  0
 36 37  1  1
 36 38  1  0
 36 39  1  0
M  END
