
     RDKit          3D

 41 44  0  0  0  0  0  0  0  0999 V2000
   -3.9010   -1.9140   -4.0270 C   0  0  0  0  0  0  0  0  0  0  0  0
   -4.5480   -1.3770   -2.8690 O   0  0  0  0  0  0  0  0  0  0  0  0
   -3.7950   -0.8160   -1.8490 C   0  0  0  0  0  0  0  0  0  0  0  0
   -2.5630   -0.7920   -1.9660 O   0  0  0  0  0  0  0  0  0  0  0  0
   -4.4820   -0.2820   -0.6880 C   0  0  1  0  0  0  0  0  0  0  0  0
   -5.1310   -1.4080    0.1370 C   0  0  2  0  0  0  0  0  0  0  0  0
   -6.2920   -2.0130   -0.6050 C   0  0  0  0  0  0  0  0  0  0  0  0
   -7.1570   -2.7440    0.3990 C   0  0  1  0  0  0  0  0  0  0  0  0
   -6.3630   -3.7020    1.2420 C   0  0  0  0  0  0  0  0  0  0  0  0
   -7.7760   -1.7030    1.2990 C   0  0  0  0  0  0  0  0  0  0  0  0
   -6.7230   -0.9940    2.0780 C   0  0  0  0  0  0  0  0  0  0  0  0
   -5.5330   -0.6820    1.3160 N   0  0  0  0  0  0  0  0  0  0  0  0
   -4.5740    0.3280    1.5510 C   0  0  0  0  0  0  0  0  0  0  0  0
   -4.4520    1.0680    2.5530 O   0  0  0  0  0  0  0  0  0  0  0  0
   -3.6500    0.4040    0.3520 C   0  0  1  0  0  0  0  0  0  0  0  0
   -2.4310   -0.3950    0.7570 C   0  0  0  0  0  0  0  0  0  0  0  0
   -3.2940    2.1130   -0.0270 S   0  0  0  0  0  0  0  0  0  0  0  0
   -2.1860    2.4300   -1.3630 C   0  0  0  0  0  0  0  0  0  0  0  0
   -0.7530    2.0890   -1.1050 C   0  0  0  0  0  0  0  0  0  0  0  0
   -0.2430    1.0670   -1.6110 O   0  0  0  0  0  0  0  0  0  0  0  0
    0.0840    2.9310   -0.2610 C   0  0  0  0  0  0  0  0  0  0  0  0
    1.3720    2.7550    0.0530 C   0  0  0  0  0  0  0  0  0  0  0  0
    2.2200    1.7030   -0.3670 N   0  0  0  0  0  0  0  0  0  0  0  0
    3.5880    1.5550   -0.0190 C   0  0  0  0  0  0  0  0  0  0  0  0
    4.1270    2.3950    0.7070 O   0  0  0  0  0  0  0  0  0  0  0  0
    4.3940    0.3860   -0.5200 C   0  0  0  0  0  0  0  0  0  0  0  0
    5.7990    0.5480   -0.0090 C   0  0  1  0  0  0  0  0  0  0  0  0
    5.8730    0.5790    1.3790 O   0  0  0  0  0  0  0  0  0  0  0  0
    6.7100   -0.4910   -0.5590 C   0  0  0  0  0  0  0  0  0  0  0  0
    6.7760   -0.7010   -1.7940 O   0  0  0  0  0  0  0  0  0  0  0  0
    7.5060   -1.2540    0.2780 O   0  0  0  0  0  0  0  0  0  0  0  0
    8.3480   -2.2230   -0.2720 C   0  0  1  0  0  0  0  0  0  0  0  0
    7.5880   -3.2740   -1.0380 C   0  0  0  0  0  0  0  0  0  0  0  0
    9.3660   -1.6310   -1.2250 C   0  0  0  0  0  0  0  0  0  0  0  0
    9.1610   -2.9420    0.8040 C   0  0  0  0  0  0  0  0  0  0  0  0
    1.7780    3.8990    0.9850 C   0  0  0  0  0  0  0  0  0  0  0  0
    0.4720    4.1740    1.6310 C   0  0  1  0  0  0  0  0  0  0  0  0
    0.1270    5.3740    2.3010 C   0  0  0  0  0  0  0  0  0  0  0  0
   -0.8250    6.0120    1.5950 C   0  0  0  0  0  0  0  0  0  0  0  0
   -1.1090    5.2250    0.4040 C   0  0  0  0  0  0  0  0  0  0  0  0
   -0.3700    4.1670    0.3650 C   0  0  0  0  0  0  0  0  0  0  0  0
  1  2  1  0
  2  3  1  0
  3  4  2  0
  5  3  1  6
  5  6  1  0
  5 15  1  0
  6  7  1  6
  6 12  1  0
  7  8  1  0
  8  9  1  1
  8 10  1  0
 10 11  1  0
 11 12  1  0
 12 13  1  0
 13 14  2  0
 13 15  1  0
 15 16  1  1
 15 17  1  0
 17 18  1  0
 18 19  1  0
 19 20  2  0
 19 21  1  0
 21 22  2  0
 21 41  1  0
 22 23  1  0
 22 36  1  0
 23 24  1  0
 24 25  2  0
 24 26  1  0
 26 27  1  0
 27 28  1  1
 27 29  1  0
 29 30  2  0
 29 31  1  0
 31 32  1  0
 32 33  1  6
 32 34  1  0
 32 35  1  0
 37 36  1  6
 37 38  1  0
 37 41  1  0
 38 39  2  0
 39 40  1  0
 40 41  2  0
M  END
