
     RDKit          3D

 42 46  0  0  0  0  0  0  0  0999 V2000
   -4.1470    5.8100   -1.1240 C   0  0  0  0  0  0  0  0  0  0  0  0
   -4.3470    4.4110   -1.0700 O   0  0  0  0  0  0  0  0  0  0  0  0
   -3.3380    3.5630   -0.6160 C   0  0  0  0  0  0  0  0  0  0  0  0
   -2.1020    4.0260   -0.1990 C   0  0  0  0  0  0  0  0  0  0  0  0
   -1.1170    3.1670    0.2460 C   0  0  0  0  0  0  0  0  0  0  0  0
   -1.3330    1.8060    0.2910 C   0  0  0  0  0  0  0  0  0  0  0  0
   -2.5640    1.3360   -0.1240 C   0  0  0  0  0  0  0  0  0  0  0  0
   -2.8150   -0.1260   -0.0650 C   0  0  1  0  0  0  0  0  0  0  0  0
   -1.5410   -0.9280    0.1250 C   0  0  0  0  0  0  0  0  0  0  0  0
   -0.5820   -0.7170   -0.9710 C   0  0  0  0  0  0  0  0  0  0  0  0
   -0.8530    0.1090   -1.8740 O   0  0  0  0  0  0  0  0  0  0  0  0
    0.6370   -1.4180   -1.0400 N   0  0  0  0  0  0  0  0  0  0  0  0
    1.7940   -0.9270   -0.8600 C   0  0  0  0  0  0  0  0  0  0  0  0
    2.1710    0.8210   -0.4650 S   0  0  0  0  0  0  0  0  0  0  0  0
    3.9210    0.5940   -0.3990 C   0  0  0  0  0  0  0  0  0  0  0  0
    4.9030    1.6490   -0.1090 C   0  0  0  0  0  0  0  0  0  0  0  0
    4.5050    2.7900    0.1090 O   0  0  0  0  0  0  0  0  0  0  0  0
    6.2600    1.3160   -0.0920 N   0  0  0  0  0  0  0  0  0  0  0  0
    7.3580    2.1770    0.1640 C   0  0  0  0  0  0  0  0  0  0  0  0
    7.1830    3.5030    0.4370 C   0  0  0  0  0  0  0  0  0  0  0  0
    8.2860    4.3350    0.6880 C   0  0  0  0  0  0  0  0  0  0  0  0
    8.0380    6.0400    1.0360 Cl  0  0  0  0  0  0  0  0  0  0  0  0
    9.5590    3.8340    0.6630 C   0  0  0  0  0  0  0  0  0  0  0  0
    9.6710    2.4820    0.3790 C   0  0  0  0  0  0  0  0  0  0  0  0
    8.6230    1.7050    0.1450 N   0  0  0  0  0  0  0  0  0  0  0  0
    4.0500   -0.6930   -0.6630 C   0  0  0  0  0  0  0  0  0  0  0  0
    3.0170   -1.4650   -0.8950 N   0  0  0  0  0  0  0  0  0  0  0  0
    3.1020   -2.8920   -1.1980 C   0  0  0  0  0  0  0  0  0  0  0  0
    3.6740   -3.7930   -0.3530 C   0  0  0  0  0  0  0  0  0  0  0  0
    3.7390   -5.1540   -0.6710 C   0  0  0  0  0  0  0  0  0  0  0  0
    3.2210   -5.5660   -1.8400 N   0  0  0  0  0  0  0  0  0  0  0  0
    2.6580   -4.6930   -2.6760 C   0  0  0  0  0  0  0  0  0  0  0  0
    2.5770   -3.3190   -2.3860 C   0  0  0  0  0  0  0  0  0  0  0  0
   -3.6760   -0.3400    1.0780 N   0  0  0  0  0  0  0  0  0  0  0  0
   -3.9220   -1.7050    1.4040 C   0  0  2  0  0  0  0  0  0  0  0  0
   -4.5780   -2.5250    0.3720 C   0  0  0  0  0  0  0  0  0  0  0  0
   -6.0320   -2.4770    0.6980 C   0  0  0  0  0  0  0  0  0  0  0  0
   -6.0140   -2.5300    2.1540 N   0  0  0  0  0  0  0  0  0  0  0  0
   -5.7300   -3.9040    2.5230 C   0  0  0  0  0  0  0  0  0  0  0  0
   -4.8930   -1.7230    2.5730 C   0  0  0  0  0  0  0  0  0  0  0  0
   -3.5590    2.1970   -0.5730 C   0  0  0  0  0  0  0  0  0  0  0  0
   -4.8830    1.7150   -1.0320 C   0  0  0  0  0  0  0  0  0  0  0  0
  1  2  1  0
  2  3  1  0
  3  4  2  0
  3 41  1  0
  4  5  1  0
  5  6  2  0
  6  7  1  0
  7  8  1  0
  7 41  2  0
  8  9  1  1
  8 34  1  0
  9 10  1  0
 10 11  2  0
 10 12  1  0
 12 13  2  3
 13 14  1  0
 13 27  1  0
 14 15  1  0
 15 16  1  0
 15 26  2  0
 16 17  2  0
 16 18  1  0
 18 19  1  0
 19 20  2  0
 19 25  1  0
 20 21  1  0
 21 22  1  0
 21 23  2  0
 23 24  1  0
 24 25  2  0
 26 27  1  0
 27 28  1  0
 28 29  2  0
 28 33  1  0
 29 30  1  0
 30 31  2  0
 31 32  1  0
 32 33  2  0
 35 34  1  6
 35 36  1  0
 35 40  1  0
 36 37  1  0
 37 38  1  0
 38 39  1  0
 38 40  1  0
 41 42  1  0
M  CHG  2  31   1  34   1
M  END
