
     RDKit          3D

 41 45  0  0  0  0  0  0  0  0999 V2000
   -8.0820    3.1500    1.1270 C   0  0  0  0  0  0  0  0  0  0  0  0
   -6.9140    2.3240    1.4530 N   0  0  0  0  0  0  0  0  0  0  0  0
   -5.9810    2.0030    0.4260 C   0  0  0  0  0  0  0  0  0  0  0  0
   -5.9750    2.5870   -0.7240 N   0  0  0  0  0  0  0  0  0  0  0  0
   -4.9660    2.0760   -1.5140 N   0  0  2  0  0  0  0  0  0  0  0  0
   -5.5510    1.3510   -2.6310 C   0  0  0  0  0  0  0  0  0  0  0  0
   -4.3010    1.0600   -0.7150 C   0  0  0  0  0  0  0  0  0  0  0  0
   -4.8940    0.9990    0.4550 C   0  0  0  0  0  0  0  0  0  0  0  0
   -4.6530    0.1690    1.6470 C   0  0  0  0  0  0  0  0  0  0  0  0
   -3.2040   -0.1850    1.7770 C   0  0  0  0  0  0  0  0  0  0  0  0
   -2.3920    0.6360    0.9240 N   0  0  1  0  0  0  0  0  0  0  0  0
   -1.2070    1.0570    1.5700 C   0  0  0  0  0  0  0  0  0  0  0  0
   -0.1050   -0.2270    2.0920 S   0  0  0  0  0  0  0  0  0  0  0  0
    0.6790   -1.1290    0.8070 C   0  0  0  0  0  0  0  0  0  0  0  0
    0.4040   -2.3560    0.2570 C   0  0  0  0  0  0  0  0  0  0  0  0
   -0.5760   -3.3930    0.7420 C   0  0  0  0  0  0  0  0  0  0  0  0
    0.0820   -4.1390    1.8610 C   0  0  0  0  0  0  0  0  0  0  0  0
    0.8200   -5.2620    1.5820 C   0  0  0  0  0  0  0  0  0  0  0  0
    1.4450   -5.9810    2.6080 C   0  0  0  0  0  0  0  0  0  0  0  0
    1.3000   -5.5340    3.8950 C   0  0  0  0  0  0  0  0  0  0  0  0
    2.0780   -6.4250    5.1930 Cl  0  0  0  0  0  0  0  0  0  0  0  0
    0.5560   -4.3950    4.2160 C   0  0  0  0  0  0  0  0  0  0  0  0
   -0.0410   -3.7220    3.1630 C   0  0  0  0  0  0  0  0  0  0  0  0
    1.2270   -2.5680   -0.7830 N   0  0  0  0  0  0  0  0  0  0  0  0
    2.0130   -1.5240   -0.9110 N   0  0  0  0  0  0  0  0  0  0  0  0
    3.0450   -1.3290   -1.9000 C   0  0  0  0  0  0  0  0  0  0  0  0
    3.2660   -2.2180   -2.7560 O   0  0  0  0  0  0  0  0  0  0  0  0
    3.8030   -0.1540   -1.9150 N   0  0  0  0  0  0  0  0  0  0  0  0
    4.8890    0.0250   -1.2350 C   0  0  0  0  0  0  0  0  0  0  0  0
    5.3760   -1.0780   -0.3800 C   0  0  0  0  0  0  0  0  0  0  0  0
    5.6200    1.2870   -1.2890 C   0  0  0  0  0  0  0  0  0  0  0  0
    5.1610    2.3310   -2.0650 C   0  0  0  0  0  0  0  0  0  0  0  0
    5.8370    3.5480   -2.1270 C   0  0  0  0  0  0  0  0  0  0  0  0
    6.9980    3.7480   -1.4090 C   0  0  0  0  0  0  0  0  0  0  0  0
    7.7320    5.0560   -1.4670 C   0  0  0  0  0  0  0  0  0  0  0  0
    7.4620    2.7110   -0.6330 C   0  0  0  0  0  0  0  0  0  0  0  0
    6.7780    1.5000   -0.5780 C   0  0  0  0  0  0  0  0  0  0  0  0
    1.7250   -0.6190    0.0300 C   0  0  0  0  0  0  0  0  0  0  0  0
    2.2840    0.4930    0.1980 O   0  0  0  0  0  0  0  0  0  0  0  0
   -2.1050    0.0020   -0.3370 C   0  0  0  0  0  0  0  0  0  0  0  0
   -3.1690    0.3400   -1.3450 C   0  0  0  0  0  0  0  0  0  0  0  0
  1  2  1  0
  2  3  1  0
  3  4  2  0
  3  8  1  0
  4  5  1  0
  5  6  1  6
  5  7  1  0
  7  8  2  0
  7 41  1  0
  8  9  1  0
  9 10  1  0
 10 11  1  0
 11 12  1  1
 11 40  1  0
 12 13  1  0
 13 14  1  0
 14 15  2  0
 14 38  1  0
 15 16  1  0
 15 24  1  0
 16 17  1  0
 17 18  2  0
 17 23  1  0
 18 19  1  0
 19 20  2  0
 20 21  1  0
 20 22  1  0
 22 23  2  0
 24 25  1  0
 25 26  1  0
 25 38  1  0
 26 27  2  0
 26 28  1  0
 28 29  2  3
 29 30  1  0
 29 31  1  0
 31 32  2  0
 31 37  1  0
 32 33  1  0
 33 34  2  0
 34 35  1  0
 34 36  1  0
 36 37  2  0
 38 39  2  0
 40 41  1  0
M  CHG  2   5   1  11   1
M  END
