
     RDKit          3D

 42 46  0  0  0  0  0  0  0  0999 V2000
   -0.4800   -5.1650   -3.4810 C   0  0  0  0  0  0  0  0  0  0  0  0
   -0.6310   -3.8950   -2.6170 C   0  0  0  0  0  0  0  0  0  0  0  0
   -1.8480   -4.0650   -1.8770 N   0  0  0  0  0  0  0  0  0  0  0  0
   -2.3170   -3.0030   -1.0230 C   0  0  0  0  0  0  0  0  0  0  0  0
   -1.6720   -2.0940   -0.5260 N   0  0  0  0  0  0  0  0  0  0  0  0
   -0.4220   -1.5480   -0.4180 C   0  0  0  0  0  0  0  0  0  0  0  0
    0.2080   -1.2580   -1.4680 O   0  0  0  0  0  0  0  0  0  0  0  0
    0.1160   -1.3270    0.9400 C   0  0  0  0  0  0  0  0  0  0  0  0
    1.4530   -0.7450    1.0880 C   0  0  1  0  0  0  0  0  0  0  0  0
    2.5920   -1.4760    0.5280 C   0  0  0  0  0  0  0  0  0  0  0  0
    2.4570   -2.7140   -0.0370 C   0  0  0  0  0  0  0  0  0  0  0  0
    3.5920   -3.3190   -0.5370 C   0  0  0  0  0  0  0  0  0  0  0  0
    4.7890   -2.7150   -0.4720 N   0  0  0  0  0  0  0  0  0  0  0  0
    4.9510   -1.4760    0.0880 C   0  0  0  0  0  0  0  0  0  0  0  0
    6.2230   -0.9110    0.1210 O   0  0  0  0  0  0  0  0  0  0  0  0
    6.6040    0.3040    0.6550 C   0  0  1  0  0  0  0  0  0  0  0  0
    7.6950    0.1800    1.7040 C   0  0  0  0  0  0  0  0  0  0  0  0
    7.7620    1.5120    2.4440 C   0  0  0  0  0  0  0  0  0  0  0  0
    8.2100    2.5250    1.4160 C   0  0  0  0  0  0  0  0  0  0  0  0
    8.8770    3.6440    1.6600 N   0  0  0  0  0  0  0  0  0  0  0  0
    9.2390    4.4440    0.9290 C   0  0  0  0  0  0  0  0  0  0  0  0
    8.6010    3.6860   -0.6940 S   0  0  0  0  0  0  0  0  0  0  0  0
    7.8990    2.2660    0.1390 C   0  0  0  0  0  0  0  0  0  0  0  0
    7.1860    1.1470   -0.4600 C   0  0  0  0  0  0  0  0  0  0  0  0
    3.8260   -0.8740    0.5850 C   0  0  0  0  0  0  0  0  0  0  0  0
    1.5320    0.6590    0.7300 N   0  0  1  0  0  0  0  0  0  0  0  0
    1.9850    0.9450   -0.5830 C   0  0  0  0  0  0  0  0  0  0  0  0
    0.2330    1.3320    0.8960 C   0  0  0  0  0  0  0  0  0  0  0  0
   -3.7440   -3.0720   -0.7320 N   0  0  0  0  0  0  0  0  0  0  0  0
   -4.5610   -1.9100   -0.7030 C   0  0  0  0  0  0  0  0  0  0  0  0
   -4.1390   -0.6460   -1.0150 C   0  0  0  0  0  0  0  0  0  0  0  0
   -5.0150    0.4490   -0.9780 C   0  0  0  0  0  0  0  0  0  0  0  0
   -6.3380    0.3010   -0.6260 C   0  0  0  0  0  0  0  0  0  0  0  0
   -7.2670    1.3750   -0.5780 N   0  0  0  0  0  0  0  0  0  0  0  0
   -7.2570    2.0810    0.6910 C   0  0  0  0  0  0  0  0  0  0  0  0
   -7.9170    3.4380    0.5720 C   0  0  2  0  0  0  0  0  0  0  0  0
   -7.2770    4.3750   -0.4150 C   0  0  0  0  0  0  0  0  0  0  0  0
   -6.8940    5.2690    0.5960 O   0  0  0  0  0  0  0  0  0  0  0  0
   -7.3690    4.4140    1.5890 C   0  0  0  0  0  0  0  0  0  0  0  0
   -6.7480   -0.9780   -0.3140 C   0  0  0  0  0  0  0  0  0  0  0  0
   -5.9080   -2.0600   -0.3450 C   0  0  0  0  0  0  0  0  0  0  0  0
   -6.5140   -3.6700    0.0690 Cl  0  0  0  0  0  0  0  0  0  0  0  0
  1  2  1  0
  2  3  1  0
  3  4  1  0
  4  5  2  3
  4 29  1  0
  5  6  1  0
  6  7  2  0
  6  8  1  0
  9  8  1  6
  9 10  1  0
  9 26  1  0
 10 11  2  0
 10 25  1  0
 11 12  1  0
 12 13  2  0
 13 14  1  0
 14 15  1  0
 14 25  2  0
 16 15  1  6
 16 17  1  0
 16 24  1  0
 17 18  1  0
 18 19  1  0
 19 20  1  0
 19 23  2  0
 20 21  2  0
 21 22  1  0
 22 23  1  0
 23 24  1  0
 26 27  1  6
 26 28  1  0
 29 30  1  0
 30 31  2  0
 30 41  1  0
 31 32  1  0
 32 33  2  0
 33 34  1  0
 33 40  1  0
 34 35  1  0
 36 35  1  1
 36 37  1  0
 36 39  1  0
 37 38  1  0
 38 39  1  0
 40 41  2  0
 41 42  1  0
M  CHG  2  26   1  34   1
M  END
