
     RDKit          3D

 42 46  0  0  0  0  0  0  0  0999 V2000
    7.8430   -2.9590    0.2880 C   0  0  0  0  0  0  0  0  0  0  0  0
    6.9380   -1.7030    0.1910 C   0  0  2  0  0  0  0  0  0  0  0  0
    6.3530   -1.7400   -1.0820 N   0  0  0  0  0  0  0  0  0  0  0  0
    4.9930   -1.3960   -1.3340 C   0  0  0  0  0  0  0  0  0  0  0  0
    4.5850   -0.0530   -1.0470 C   0  0  0  0  0  0  0  0  0  0  0  0
    5.0840    1.0170   -1.7440 C   0  0  0  0  0  0  0  0  0  0  0  0
    6.0700    0.9200   -2.4450 O   0  0  0  0  0  0  0  0  0  0  0  0
    4.3980    2.1720   -1.5900 N   0  0  0  0  0  0  0  0  0  0  0  0
    4.9350    3.3340   -2.3060 C   0  0  0  0  0  0  0  0  0  0  0  0
    3.3420    2.3510   -0.8600 N   0  0  0  0  0  0  0  0  0  0  0  0
    2.7790    1.3360   -0.1320 C   0  0  0  0  0  0  0  0  0  0  0  0
    1.6840    1.3250    0.5830 N   0  0  0  0  0  0  0  0  0  0  0  0
    1.1450    0.4540    1.1590 C   0  0  0  0  0  0  0  0  0  0  0  0
    0.1220   -0.0590    1.9230 O   0  0  0  0  0  0  0  0  0  0  0  0
   -1.1780    0.4370    2.1040 C   0  0  0  0  0  0  0  0  0  0  0  0
   -1.8270    0.5610    0.7350 C   0  0  1  0  0  0  0  0  0  0  0  0
   -1.3090   -0.3720   -0.2980 C   0  0  0  0  0  0  0  0  0  0  0  0
   -3.2830    0.5780    0.7560 N   0  0  0  0  0  0  0  0  0  0  0  0
   -3.8740   -0.7020    0.6080 C   0  0  0  0  0  0  0  0  0  0  0  0
   -3.0160   -1.6980    0.5060 O   0  0  0  0  0  0  0  0  0  0  0  0
   -5.2180   -1.0820    0.5520 C   0  0  0  0  0  0  0  0  0  0  0  0
   -6.3640   -0.5840    0.6390 C   0  0  0  0  0  0  0  0  0  0  0  0
   -7.4820   -1.5980    0.4630 C   0  0  0  0  0  0  0  0  0  0  0  0
   -8.6170   -1.5280    1.2170 C   0  0  0  0  0  0  0  0  0  0  0  0
   -9.6250   -2.4570    0.9470 C   0  0  0  0  0  0  0  0  0  0  0  0
   -9.5010   -3.3830   -0.0150 N   0  0  0  0  0  0  0  0  0  0  0  0
   -8.3670   -3.4180   -0.7450 C   0  0  0  0  0  0  0  0  0  0  0  0
   -7.3370   -2.5330   -0.5300 C   0  0  0  0  0  0  0  0  0  0  0  0
   -6.8490    0.7130    0.7450 N   0  0  0  0  0  0  0  0  0  0  0  0
   -7.6890    1.2530   -0.3700 C   0  0  0  0  0  0  0  0  0  0  0  0
   -7.3460    2.6970   -0.3840 C   0  0  0  0  0  0  0  0  0  0  0  0
   -7.1550    3.0410    1.0720 C   0  0  0  0  0  0  0  0  0  0  0  0
   -6.7770    1.7210    1.7490 C   0  0  0  0  0  0  0  0  0  0  0  0
    2.4450   -0.9320    0.6870 S   0  0  0  0  0  0  0  0  0  0  0  0
    3.4340    0.1520   -0.2520 C   0  0  0  0  0  0  0  0  0  0  0  0
    7.8780   -0.5720    0.3430 C   0  0  0  0  0  0  0  0  0  0  0  0
    8.9230   -0.4410   -0.5320 C   0  0  0  0  0  0  0  0  0  0  0  0
    9.8330    0.6210   -0.4230 C   0  0  0  0  0  0  0  0  0  0  0  0
    9.6720    1.5560    0.5950 C   0  0  0  0  0  0  0  0  0  0  0  0
    8.6300    1.4190    1.4620 C   0  0  0  0  0  0  0  0  0  0  0  0
    8.4540    2.6120    2.7280 Cl  0  0  0  0  0  0  0  0  0  0  0  0
    7.7340    0.3590    1.3320 C   0  0  0  0  0  0  0  0  0  0  0  0
  2  1  1  6
  2  3  1  0
  2 36  1  0
  3  4  1  0
  4  5  1  0
  5  6  1  0
  5 35  2  0
  6  7  2  0
  6  8  1  0
  8  9  1  0
  8 10  1  0
 10 11  2  0
 11 12  1  0
 11 35  1  0
 12 13  2  0
 13 14  1  0
 13 34  1  0
 14 15  1  0
 15 16  1  0
 16 17  1  6
 16 18  1  0
 18 19  1  0
 19 20  2  0
 19 21  1  0
 21 22  2  3
 22 23  1  0
 22 29  1  0
 23 24  2  0
 23 28  1  0
 24 25  1  0
 25 26  2  0
 26 27  1  0
 27 28  2  0
 29 30  1  0
 29 33  1  0
 30 31  1  0
 31 32  1  0
 32 33  1  0
 34 35  1  0
 36 37  2  0
 36 42  1  0
 37 38  1  0
 38 39  2  0
 39 40  1  0
 40 41  1  0
 40 42  2  0
M  CHG  2   3   1  26   1
M  END
