
     RDKit          3D

 42 46  0  0  0  0  0  0  0  0999 V2000
   -6.5140   -6.8640   -0.3430 C   0  0  0  0  0  0  0  0  0  0  0  0
   -6.7960   -5.4000   -0.1700 C   0  0  0  0  0  0  0  0  0  0  0  0
   -7.9950   -5.0660    0.0610 N   0  0  0  0  0  0  0  0  0  0  0  0
   -8.3070   -3.7110    0.2300 C   0  0  0  0  0  0  0  0  0  0  0  0
   -9.5090   -3.4090    0.4590 O   0  0  0  0  0  0  0  0  0  0  0  0
   -7.2320   -2.6650    0.1370 C   0  0  0  0  0  0  0  0  0  0  0  0
   -7.6360   -1.4760    0.4120 C   0  0  0  0  0  0  0  0  0  0  0  0
   -7.0160    0.1210    0.5130 Cl  0  0  0  0  0  0  0  0  0  0  0  0
   -5.9050   -3.1300   -0.1350 C   0  0  0  0  0  0  0  0  0  0  0  0
   -4.6970   -2.3750   -0.2550 C   0  0  0  0  0  0  0  0  0  0  0  0
   -3.5780   -3.0720   -0.3100 O   0  0  0  0  0  0  0  0  0  0  0  0
   -4.4330   -1.0060   -0.3420 N   0  0  0  0  0  0  0  0  0  0  0  0
   -3.0650   -0.4490   -0.4330 C   0  0  1  0  0  0  0  0  0  0  0  0
   -2.8560    0.3850   -1.6220 C   0  0  0  0  0  0  0  0  0  0  0  0
   -2.6840    0.2120    0.8480 C   0  0  0  0  0  0  0  0  0  0  0  0
   -1.3130    0.7940    0.7760 C   0  0  0  0  0  0  0  0  0  0  0  0
   -0.2440    0.0520    1.0440 N   0  0  0  0  0  0  0  0  0  0  0  0
    0.8520    0.3190    1.0010 C   0  0  0  0  0  0  0  0  0  0  0  0
    2.2430   -0.1960    1.1950 N   0  0  0  0  0  0  0  0  0  0  0  0
    2.2790   -1.5770    1.5380 C   0  0  0  0  0  0  0  0  0  0  0  0
    3.3730    0.6640    1.0480 C   0  0  0  0  0  0  0  0  0  0  0  0
    4.6190   -0.0660    1.2450 C   0  0  0  0  0  0  0  0  0  0  0  0
    4.9330   -0.5850    2.4830 C   0  0  0  0  0  0  0  0  0  0  0  0
    6.1340   -1.2790    2.6680 C   0  0  0  0  0  0  0  0  0  0  0  0
    6.9390   -1.4130    1.6210 N   0  0  0  0  0  0  0  0  0  0  0  0
    6.7090   -0.9410    0.3870 C   0  0  0  0  0  0  0  0  0  0  0  0
    7.6190   -1.1180   -0.6880 N   0  0  0  0  0  0  0  0  0  0  0  0
    7.5160   -0.6470   -2.0540 C   0  0  0  0  0  0  0  0  0  0  0  0
    8.9700   -0.2840   -2.3310 C   0  0  0  0  0  0  0  0  0  0  0  0
    9.7020   -1.4760   -1.7610 C   0  0  0  0  0  0  0  0  0  0  0  0
    8.8740   -1.8470   -0.5630 C   0  0  0  0  0  0  0  0  0  0  0  0
    5.5140   -0.2530    0.2150 C   0  0  0  0  0  0  0  0  0  0  0  0
    0.7160    2.1160    0.4400 S   0  0  0  0  0  0  0  0  0  0  0  0
   -1.0580    2.0690    0.3920 C   0  0  0  0  0  0  0  0  0  0  0  0
   -1.8660    3.2400    0.0440 C   0  0  0  0  0  0  0  0  0  0  0  0
   -1.0450    4.3930   -0.2940 N   0  0  2  0  0  0  0  0  0  0  0  0
   -0.3540    4.9520    0.8220 C   0  0  0  0  0  0  0  0  0  0  0  0
   -1.8700    5.3390   -1.0030 C   0  0  2  0  0  0  0  0  0  0  0  0
   -1.1960    6.6020   -1.4250 C   0  0  0  0  0  0  0  0  0  0  0  0
   -1.6880    7.3230   -0.3570 O   0  0  0  0  0  0  0  0  0  0  0  0
   -2.6520    6.3130   -0.1720 C   0  0  0  0  0  0  0  0  0  0  0  0
   -5.7090   -4.4800   -0.2800 C   0  0  0  0  0  0  0  0  0  0  0  0
  1  2  1  0
  2  3  2  0
  2 42  1  0
  3  4  1  0
  4  5  2  0
  4  6  1  0
  6  7  2  3
  6  9  1  0
  7  8  1  0
  9 10  1  0
  9 42  2  0
 10 11  2  0
 10 12  1  0
 12 13  1  0
 13 14  1  6
 13 15  1  0
 15 16  1  0
 16 17  1  0
 16 34  2  0
 17 18  2  0
 18 19  1  0
 18 33  1  0
 19 20  1  0
 19 21  1  0
 21 22  1  0
 22 23  2  0
 22 32  1  0
 23 24  1  0
 24 25  2  0
 25 26  1  0
 26 27  1  0
 26 32  2  0
 27 28  1  0
 27 31  1  0
 28 29  1  0
 29 30  1  0
 30 31  1  0
 33 34  1  0
 34 35  1  0
 35 36  1  0
 36 37  1  1
 36 38  1  0
 38 39  1  6
 38 41  1  0
 39 40  1  0
 40 41  1  0
M  CHG  2   3   1  36   1
M  END
