
     RDKit          3D

 42 46  0  0  0  0  0  0  0  0999 V2000
  -10.5950    2.8500   -1.2220 C   0  0  0  0  0  0  0  0  0  0  0  0
   -9.8300    2.1450   -0.1210 C   0  0  0  0  0  0  0  0  0  0  0  0
   -8.3660    2.4110   -0.3670 C   0  0  2  0  0  0  0  0  0  0  0  0
   -7.8930    1.9010   -1.6990 C   0  0  0  0  0  0  0  0  0  0  0  0
   -6.4950    1.6210   -1.4500 N   0  0  0  0  0  0  0  0  0  0  0  0
   -6.3030    1.4770   -0.1690 C   0  0  0  0  0  0  0  0  0  0  0  0
   -5.0230    1.1880    0.4150 N   0  0  0  0  0  0  0  0  0  0  0  0
   -4.1060    0.2740   -0.1330 C   0  0  0  0  0  0  0  0  0  0  0  0
   -4.4560   -0.5930   -1.1270 C   0  0  0  0  0  0  0  0  0  0  0  0
   -3.5660   -1.5040   -1.6320 C   0  0  0  0  0  0  0  0  0  0  0  0
   -2.2500   -1.5640   -1.1240 C   0  0  0  0  0  0  0  0  0  0  0  0
   -1.4080   -2.5580   -1.6800 N   0  0  0  0  0  0  0  0  0  0  0  0
    0.2980   -2.5520   -1.7670 S   0  0  2  0  0  0  0  0  0  0  0  0
    0.7620   -1.3500   -2.5690 O   0  0  0  0  0  0  0  0  0  0  0  0
    0.7350   -3.7570   -2.6000 O   0  0  0  0  0  0  0  0  0  0  0  0
    1.0030   -2.6130   -0.1920 C   0  0  0  0  0  0  0  0  0  0  0  0
    0.2030   -2.9830    0.8930 C   0  0  0  0  0  0  0  0  0  0  0  0
    0.7470   -3.1460    2.1270 C   0  0  0  0  0  0  0  0  0  0  0  0
    2.0840   -2.9460    2.3060 C   0  0  0  0  0  0  0  0  0  0  0  0
    2.9120   -2.5830    1.2780 C   0  0  0  0  0  0  0  0  0  0  0  0
    2.3430   -2.4150    0.0020 C   0  0  0  0  0  0  0  0  0  0  0  0
    3.2020   -2.0240   -1.0250 N   0  0  0  0  0  0  0  0  0  0  0  0
    3.2730   -0.6700   -1.5020 C   0  0  0  0  0  0  0  0  0  0  0  0
    4.6610   -0.1560   -0.9900 C   0  0  0  0  0  0  0  0  0  0  0  0
    5.6350   -1.1910   -1.2030 N   0  0  0  0  0  0  0  0  0  0  0  0
    6.8590   -1.3210   -0.5340 C   0  0  0  0  0  0  0  0  0  0  0  0
    7.5940   -2.3470   -0.8640 O   0  0  0  0  0  0  0  0  0  0  0  0
    7.3530   -0.4180    0.4760 C   0  0  0  0  0  0  0  0  0  0  0  0
    8.5400   -0.5630    1.1240 C   0  0  0  0  0  0  0  0  0  0  0  0
    8.7440    0.5230    2.0880 C   0  0  0  0  0  0  0  0  0  0  0  0
    7.8110    1.5310    1.6910 N   0  0  1  0  0  0  0  0  0  0  0  0
    8.3820    2.4370    0.7150 C   0  0  0  0  0  0  0  0  0  0  0  0
    7.7930    3.8090    0.9670 C   0  0  0  0  0  0  0  0  0  0  0  0
    6.7350    0.8000    1.0020 C   0  0  0  0  0  0  0  0  0  0  0  0
    5.2800   -2.2000   -2.2480 C   0  0  0  0  0  0  0  0  0  0  0  0
    4.1010   -2.9840   -1.6740 C   0  0  0  0  0  0  0  0  0  0  0  0
   -1.9190   -0.6940   -0.1360 C   0  0  0  0  0  0  0  0  0  0  0  0
   -2.8270    0.2310    0.3760 C   0  0  0  0  0  0  0  0  0  0  0  0
   -2.3340    1.3320    1.6620 Cl  0  0  0  0  0  0  0  0  0  0  0  0
   -7.4990    1.6840    0.5600 N   0  0  0  0  0  0  0  0  0  0  0  0
   -7.7810    1.2900    1.9060 C   0  0  0  0  0  0  0  0  0  0  0  0
   -6.7380    0.5170    2.6200 C   0  0  0  0  0  0  0  0  0  0  0  0
  1  2  1  0
  3  2  1  1
  3  4  1  0
  3 40  1  0
  4  5  1  0
  5  6  2  0
  6  7  1  0
  6 40  1  0
  7  8  1  0
  8  9  2  0
  8 38  1  0
  9 10  1  0
 10 11  2  0
 11 12  1  0
 11 37  1  0
 13 12  1  1
 13 14  2  0
 13 15  2  0
 13 16  1  0
 16 17  2  0
 16 21  1  0
 17 18  1  0
 18 19  2  0
 19 20  1  0
 20 21  2  0
 21 22  1  0
 22 23  1  0
 22 36  1  0
 23 24  1  0
 24 25  1  0
 25 26  1  0
 25 35  1  0
 26 27  2  0
 26 28  1  0
 28 29  2  0
 28 34  1  0
 29 30  1  0
 30 31  1  0
 31 32  1  6
 31 34  1  0
 32 33  1  0
 35 36  1  0
 37 38  2  0
 38 39  1  0
 40 41  1  0
 41 42  1  0
M  CHG  2   5   1  31   1
M  END
