
     RDKit          3D

 30 33  0  0  0  0  0  0  0  0999 V2000
   -4.7180   -0.3370    2.7000 C   0  0  0  0  0  0  0  0  0  0  0  0
   -3.8770   -1.2650    1.8470 C   0  0  0  0  0  0  0  0  0  0  0  0
   -2.4350   -1.2150    2.3180 C   0  0  2  0  0  0  0  0  0  0  0  0
   -1.8550    0.1600    2.2200 C   0  0  0  0  0  0  0  0  0  0  0  0
   -0.9940    0.3960    1.0040 C   0  0  0  0  0  0  0  0  0  0  0  0
   -1.3380   -0.4700   -0.0910 N   0  0  0  0  0  0  0  0  0  0  0  0
   -1.3980    0.0410   -1.3920 C   0  0  0  0  0  0  0  0  0  0  0  0
   -2.6540    0.2630   -1.9130 C   0  0  0  0  0  0  0  0  0  0  0  0
   -2.8190    0.7980   -3.1480 C   0  0  0  0  0  0  0  0  0  0  0  0
   -4.4480    1.0660   -3.7790 Cl  0  0  0  0  0  0  0  0  0  0  0  0
   -1.7100    1.1160   -3.8770 C   0  0  0  0  0  0  0  0  0  0  0  0
   -1.8260    1.6980   -5.2210 C   0  0  0  0  0  0  0  0  0  0  0  0
   -0.4290    0.8940   -3.3610 C   0  0  0  0  0  0  0  0  0  0  0  0
   -0.2610    0.3500   -2.1040 C   0  0  0  0  0  0  0  0  0  0  0  0
    0.9880    0.0460   -1.5200 N   0  0  0  0  0  0  0  0  0  0  0  0
    2.2700    0.3520   -1.9980 C   0  0  0  0  0  0  0  0  0  0  0  0
    2.4000    0.9720   -3.0700 O   0  0  0  0  0  0  0  0  0  0  0  0
    3.5210   -0.0280   -1.2860 C   0  0  2  0  0  0  0  0  0  0  0  0
    3.6490   -1.4960   -1.0730 C   0  0  0  0  0  0  0  0  0  0  0  0
    4.5750   -1.5340    0.0690 N   0  0  0  0  0  0  0  0  0  0  0  0
    4.2530   -0.3700    0.8550 C   0  0  0  0  0  0  0  0  0  0  0  0
    4.5110   -0.1500    2.1900 C   0  0  0  0  0  0  0  0  0  0  0  0
    4.1150    1.0320    2.7510 C   0  0  0  0  0  0  0  0  0  0  0  0
    3.4660    1.9920    1.9940 C   0  0  0  0  0  0  0  0  0  0  0  0
    3.0660    3.2260    2.6360 C   0  0  0  0  0  0  0  0  0  0  0  0
    3.2990    3.4260    3.8420 O   0  0  0  0  0  0  0  0  0  0  0  0
    3.2210    1.7400    0.6560 C   0  0  0  0  0  0  0  0  0  0  0  0
    3.6110    0.5490    0.0550 C   0  0  0  0  0  0  0  0  0  0  0  0
   -1.6310   -1.8790    0.1120 C   0  0  0  0  0  0  0  0  0  0  0  0
   -1.5680   -2.1980    1.6000 C   0  0  0  0  0  0  0  0  0  0  0  0
  1  2  1  0
  3  2  1  6
  3  4  1  0
  3 30  1  0
  4  5  1  0
  5  6  1  0
  6  7  1  0
  6 29  1  0
  7  8  2  0
  7 14  1  0
  8  9  1  0
  9 10  1  0
  9 11  2  0
 11 12  1  0
 11 13  1  0
 13 14  2  0
 14 15  1  0
 15 16  1  0
 16 17  2  0
 18 16  1  1
 18 19  1  0
 18 28  1  0
 19 20  1  0
 20 21  1  0
 21 22  2  0
 21 28  1  0
 22 23  1  0
 23 24  2  0
 24 25  1  0
 24 27  1  0
 25 26  2  0
 27 28  2  0
 29 30  1  0
M  END
