
     RDKit          3D

 31 34  0  0  0  0  0  0  0  0999 V2000
    3.9850   -2.1840    2.0410 C   0  0  0  0  0  0  0  0  0  0  0  0
    3.1010   -1.2010    2.7760 C   0  0  0  0  0  0  0  0  0  0  0  0
    2.9790    0.0920    1.9700 C   0  0  0  0  0  0  0  0  0  0  0  0
    3.8850    1.1170    2.1670 C   0  0  0  0  0  0  0  0  0  0  0  0
    3.3140    2.3660    1.0140 S   0  0  0  0  0  0  0  0  0  0  0  0
    1.9480    1.4490    0.3790 C   0  0  0  0  0  0  0  0  0  0  0  0
    1.0870    1.9700   -0.6960 C   0  0  0  0  0  0  0  0  0  0  0  0
    1.5940    3.0740   -1.4160 C   0  0  0  0  0  0  0  0  0  0  0  0
    0.8290    3.5880   -2.4320 C   0  0  0  0  0  0  0  0  0  0  0  0
   -0.3940    3.0290   -2.7230 C   0  0  0  0  0  0  0  0  0  0  0  0
   -1.2510    3.5550   -3.8160 C   0  0  0  0  0  0  0  0  0  0  0  0
   -0.8190    2.0000   -2.0180 N   0  0  0  0  0  0  0  0  0  0  0  0
   -0.0960    1.4510   -0.9940 C   0  0  0  0  0  0  0  0  0  0  0  0
   -0.7440    0.3930   -0.1900 C   0  0  0  0  0  0  0  0  0  0  0  0
   -1.0720    0.7900    1.1570 C   0  0  0  0  0  0  0  0  0  0  0  0
   -0.7350    1.9850    1.5380 O   0  0  0  0  0  0  0  0  0  0  0  0
   -1.7110    0.0490    2.0920 O   0  0  0  0  0  0  0  0  0  0  0  0
   -2.0260    0.4710    3.4050 C   0  0  1  0  0  0  0  0  0  0  0  0
   -3.3980    0.3920    3.5770 F   0  0  0  0  0  0  0  0  0  0  0  0
   -1.3920   -0.3720    4.3030 F   0  0  0  0  0  0  0  0  0  0  0  0
   -1.0920   -0.7220   -0.7420 C   0  0  0  0  0  0  0  0  0  0  0  0
   -0.8730   -0.9900   -2.2220 C   0  0  0  0  0  0  0  0  0  0  0  0
   -1.9400   -1.9680   -2.6860 C   0  0  0  0  0  0  0  0  0  0  0  0
   -3.1700   -1.9850   -1.7970 C   0  0  0  0  0  0  0  0  0  0  0  0
   -2.7190   -2.5360   -0.4840 C   0  0  0  0  0  0  0  0  0  0  0  0
   -2.9980   -3.4660    0.3670 O   0  0  0  0  0  0  0  0  0  0  0  0
   -2.1930   -3.4640    1.4090 C   0  0  0  0  0  0  0  0  0  0  0  0
   -2.2230   -4.2970    2.4540 F   0  0  0  0  0  0  0  0  0  0  0  0
   -1.3030   -2.4370    1.2260 C   0  0  0  0  0  0  0  0  0  0  0  0
   -1.6230   -1.8370    0.0350 C   0  0  0  0  0  0  0  0  0  0  0  0
    2.0200    0.3040    1.0580 C   0  0  0  0  0  0  0  0  0  0  0  0
  1  2  1  0
  2  3  1  0
  3  4  2  0
  3 31  1  0
  4  5  1  0
  5  6  1  0
  6  7  1  0
  6 31  2  0
  7  8  2  0
  7 13  1  0
  8  9  1  0
  9 10  2  0
 10 11  1  0
 10 12  1  0
 12 13  2  0
 13 14  1  0
 14 15  1  0
 14 21  2  3
 15 16  2  0
 15 17  1  0
 17 18  1  0
 18 19  1  1
 18 20  1  0
 21 22  1  0
 21 30  1  0
 22 23  1  0
 23 24  1  0
 24 25  1  0
 25 26  1  0
 25 30  2  0
 26 27  1  0
 27 28  1  0
 27 29  2  0
 29 30  1  0
M  END
