
     RDKit          3D

 30 33  0  0  0  0  0  0  0  0999 V2000
   -9.5520    3.0090   -0.0850 O   0  0  0  0  0  0  0  0  0  0  0  0
   -9.0630    2.1020   -0.8060 C   0  0  0  0  0  0  0  0  0  0  0  0
   -7.8600    1.4030   -0.3930 C   0  0  0  0  0  0  0  0  0  0  0  0
   -7.2080    0.3800   -1.0850 C   0  0  0  0  0  0  0  0  0  0  0  0
   -6.1170    0.0020   -0.3480 C   0  0  0  0  0  0  0  0  0  0  0  0
   -5.1660   -1.0240   -0.6930 C   0  0  0  0  0  0  0  0  0  0  0  0
   -5.5570   -2.1520   -1.4220 C   0  0  0  0  0  0  0  0  0  0  0  0
   -4.6050   -3.1070   -1.7280 C   0  0  0  0  0  0  0  0  0  0  0  0
   -3.3110   -2.9790   -1.3420 N   0  0  0  0  0  0  0  0  0  0  0  0
   -2.9160   -1.9010   -0.6390 C   0  0  0  0  0  0  0  0  0  0  0  0
   -1.4810   -1.8540   -0.2630 C   0  0  0  0  0  0  0  0  0  0  0  0
   -1.1120   -0.6340    0.5070 C   0  0  0  0  0  0  0  0  0  0  0  0
    0.3320   -0.6340    0.8650 C   0  0  0  0  0  0  0  0  0  0  0  0
    1.2610   -0.6460   -0.2880 C   0  0  0  0  0  0  0  0  0  0  0  0
    0.8590   -0.5230   -1.4700 O   0  0  0  0  0  0  0  0  0  0  0  0
    2.6760   -0.7990   -0.0870 N   0  0  0  0  0  0  0  0  0  0  0  0
    3.2250   -0.9450    1.2420 C   0  0  0  0  0  0  0  0  0  0  0  0
    4.4960   -0.1390    1.3740 C   0  0  0  0  0  0  0  0  0  0  0  0
    5.1040    0.4290    0.3690 C   0  0  0  0  0  0  0  0  0  0  0  0
    6.3320    1.2000    0.5400 C   0  0  0  0  0  0  0  0  0  0  0  0
    7.0020    1.8090   -0.4590 C   0  0  0  0  0  0  0  0  0  0  0  0
    8.2020    2.5040    0.0490 C   0  0  0  0  0  0  0  0  0  0  0  0
    8.1670    2.2340    1.4810 C   0  0  0  0  0  0  0  0  0  0  0  0
    7.0950    1.4890    1.7430 C   0  0  0  0  0  0  0  0  0  0  0  0
    6.7190    0.9610    3.3890 Cl  0  0  0  0  0  0  0  0  0  0  0  0
    4.5580    0.3100   -1.0330 C   0  0  0  0  0  0  0  0  0  0  0  0
    3.5960   -0.8160   -1.1830 C   0  0  0  0  0  0  0  0  0  0  0  0
   -3.8370   -0.9530   -0.3300 C   0  0  0  0  0  0  0  0  0  0  0  0
   -6.1050    0.7840    0.7770 C   0  0  0  0  0  0  0  0  0  0  0  0
   -7.1760    1.6370    0.7380 N   0  0  0  0  0  0  0  0  0  0  0  0
  1  2  2  0
  2  3  1  0
  3  4  2  0
  3 30  1  0
  4  5  1  0
  5  6  1  0
  5 29  2  0
  6  7  2  0
  6 28  1  0
  7  8  1  0
  8  9  2  0
  9 10  1  0
 10 11  1  0
 10 28  2  0
 11 12  1  0
 12 13  1  0
 13 14  1  0
 14 15  2  0
 14 16  1  0
 16 17  1  0
 16 27  1  0
 17 18  1  0
 18 19  2  0
 19 20  1  0
 19 26  1  0
 20 21  2  0
 20 24  1  0
 21 22  1  0
 22 23  1  0
 23 24  2  0
 24 25  1  0
 26 27  1  0
 29 30  1  0
M  END
