
     RDKit          3D

 31 34  0  0  0  0  0  0  0  0999 V2000
   -3.6570   -1.7890   -1.6280 C   0  0  0  0  0  0  0  0  0  0  0  0
   -2.4510   -1.3390   -1.0250 N   0  0  0  0  0  0  0  0  0  0  0  0
   -1.1660   -1.8530   -1.4670 C   0  0  0  0  0  0  0  0  0  0  0  0
   -1.1570   -2.6220   -2.4640 O   0  0  0  0  0  0  0  0  0  0  0  0
    0.0920   -1.5160   -0.8100 C   0  0  0  0  0  0  0  0  0  0  0  0
    1.2160   -2.0600   -1.2450 C   0  0  0  0  0  0  0  0  0  0  0  0
    2.5320   -1.8020   -0.6820 C   0  0  0  0  0  0  0  0  0  0  0  0
    3.4580   -2.7480   -0.2680 C   0  0  0  0  0  0  0  0  0  0  0  0
    4.5660   -2.0330    0.1950 C   0  0  0  0  0  0  0  0  0  0  0  0
    4.2650   -0.7110    0.0420 C   0  0  0  0  0  0  0  0  0  0  0  0
    5.1740    0.3990    0.4150 C   0  0  0  0  0  0  0  0  0  0  0  0
    4.8020    1.6190    0.1300 C   0  0  0  0  0  0  0  0  0  0  0  0
    5.4770    2.8970    0.3690 C   0  0  0  0  0  0  0  0  0  0  0  0
    6.9800    2.7050    1.3240 S   0  0  0  0  0  0  0  0  0  0  0  0
    7.2390    0.9600    1.5670 C   0  0  0  0  0  0  0  0  0  0  0  0
    6.4000    0.0510    1.1370 C   0  0  0  0  0  0  0  0  0  0  0  0
    3.0840   -0.6350   -0.4680 O   0  0  0  0  0  0  0  0  0  0  0  0
    0.0460   -0.6430    0.3170 C   0  0  0  0  0  0  0  0  0  0  0  0
    1.0860   -0.3050    0.9430 O   0  0  0  0  0  0  0  0  0  0  0  0
   -1.2690   -0.1290    0.7510 C   0  0  0  0  0  0  0  0  0  0  0  0
   -1.2650    0.6760    1.8590 C   0  0  0  0  0  0  0  0  0  0  0  0
   -2.4210    1.1670    2.3510 C   0  0  0  0  0  0  0  0  0  0  0  0
   -3.5790    0.8490    1.7210 C   0  0  0  0  0  0  0  0  0  0  0  0
   -3.6670    0.0240    0.5660 C   0  0  0  0  0  0  0  0  0  0  0  0
   -4.9180   -0.1270   -0.1400 C   0  0  0  0  0  0  0  0  0  0  0  0
   -5.2220    0.9510   -1.1750 C   0  0  0  0  0  0  0  0  0  0  0  0
   -5.3270    2.3430   -0.6140 C   0  0  1  0  0  0  0  0  0  0  0  0
   -4.1780    2.7990   -0.0120 F   0  0  0  0  0  0  0  0  0  0  0  0
   -5.7390    3.2570   -1.5450 F   0  0  0  0  0  0  0  0  0  0  0  0
   -6.2930    2.3580    0.4090 F   0  0  0  0  0  0  0  0  0  0  0  0
   -2.4730   -0.4650    0.0980 C   0  0  0  0  0  0  0  0  0  0  0  0
  1  2  1  0
  2  3  1  0
  2 31  1  0
  3  4  2  0
  3  5  1  0
  5  6  2  3
  5 18  1  0
  6  7  1  0
  7  8  2  0
  7 17  1  0
  8  9  1  0
  9 10  2  0
 10 11  1  0
 10 17  1  0
 11 12  2  0
 11 16  1  0
 12 13  1  0
 13 14  1  0
 14 15  1  0
 15 16  2  0
 18 19  2  0
 18 20  1  0
 20 21  2  0
 20 31  1  0
 21 22  1  0
 22 23  2  0
 23 24  1  0
 24 25  1  0
 24 31  2  0
 25 26  1  0
 26 27  1  0
 27 28  1  1
 27 29  1  0
 27 30  1  0
M  END
