
     RDKit          3D

 31 34  0  0  0  0  0  0  0  0999 V2000
    8.9140    1.8460   -1.4550 C   0  0  0  0  0  0  0  0  0  0  0  0
    7.5710    1.5330   -1.1190 O   0  0  0  0  0  0  0  0  0  0  0  0
    7.2830    0.4600   -0.2470 C   0  0  0  0  0  0  0  0  0  0  0  0
    8.2550   -0.1760    0.1860 O   0  0  0  0  0  0  0  0  0  0  0  0
    5.8950    0.1580    0.0960 C   0  0  0  0  0  0  0  0  0  0  0  0
    4.8450    0.8630   -0.4420 C   0  0  0  0  0  0  0  0  0  0  0  0
    3.5120    0.5740   -0.0760 C   0  0  0  0  0  0  0  0  0  0  0  0
    3.1910   -0.4020    0.8170 C   0  0  0  0  0  0  0  0  0  0  0  0
    1.8650   -0.7620    1.2660 C   0  0  0  0  0  0  0  0  0  0  0  0
    1.7220   -1.4680    2.3280 O   0  0  0  0  0  0  0  0  0  0  0  0
    0.6480   -0.3940    0.6150 C   0  0  0  0  0  0  0  0  0  0  0  0
    0.2220    0.8500    0.2440 C   0  0  0  0  0  0  0  0  0  0  0  0
   -1.0380    1.0740   -0.3330 C   0  0  0  0  0  0  0  0  0  0  0  0
   -1.4490    2.3050   -0.6970 F   0  0  0  0  0  0  0  0  0  0  0  0
   -1.8950    0.0290   -0.5430 C   0  0  0  0  0  0  0  0  0  0  0  0
   -1.4670   -1.2270   -0.1690 C   0  0  0  0  0  0  0  0  0  0  0  0
   -0.2560   -1.4560    0.3870 C   0  0  0  0  0  0  0  0  0  0  0  0
    0.0940   -2.7380    0.7320 F   0  0  0  0  0  0  0  0  0  0  0  0
   -2.4550   -2.3460   -0.4060 C   0  0  0  0  0  0  0  0  0  0  0  0
   -3.8060   -1.9490    0.1800 C   0  0  0  0  0  0  0  0  0  0  0  0
   -4.1500   -0.6400   -0.2650 N   0  0  0  0  0  0  0  0  0  0  0  0
   -5.3940    0.0020    0.1200 C   0  0  0  0  0  0  0  0  0  0  0  0
   -5.3090    1.2180    0.5770 C   0  0  0  0  0  0  0  0  0  0  0  0
   -6.3280    2.1480    1.0470 C   0  0  0  0  0  0  0  0  0  0  0  0
   -7.9530    1.4370    0.9420 S   0  0  0  0  0  0  0  0  0  0  0  0
   -7.8060   -0.2040    0.3000 C   0  0  0  0  0  0  0  0  0  0  0  0
   -6.6400   -0.7250   -0.0250 C   0  0  0  0  0  0  0  0  0  0  0  0
   -6.6330   -2.0160   -0.5180 F   0  0  0  0  0  0  0  0  0  0  0  0
   -3.2460    0.1060   -1.1300 C   0  0  0  0  0  0  0  0  0  0  0  0
    4.2900   -1.1170    1.3570 C   0  0  0  0  0  0  0  0  0  0  0  0
    5.5810   -0.8360    1.0010 C   0  0  0  0  0  0  0  0  0  0  0  0
  1  2  1  0
  2  3  1  0
  3  4  2  0
  3  5  1  0
  5  6  2  0
  5 31  1  0
  6  7  1  0
  7  8  2  0
  8  9  1  0
  8 30  1  0
  9 10  2  0
  9 11  1  0
 11 12  2  0
 11 17  1  0
 12 13  1  0
 13 14  1  0
 13 15  2  0
 15 16  1  0
 15 29  1  0
 16 17  2  0
 16 19  1  0
 17 18  1  0
 19 20  1  0
 20 21  1  0
 21 22  1  0
 21 29  1  0
 22 23  2  0
 22 27  1  0
 23 24  1  0
 24 25  1  0
 25 26  1  0
 26 27  2  0
 27 28  1  0
 30 31  2  0
M  END
