
     RDKit          3D

 30 33  0  0  0  0  0  0  0  0999 V2000
    9.5660    1.2460    1.3350 C   0  0  0  0  0  0  0  0  0  0  0  0
    8.1970    1.4530    1.1690 O   0  0  0  0  0  0  0  0  0  0  0  0
    7.3580    0.6600    0.4280 C   0  0  0  0  0  0  0  0  0  0  0  0
    7.7720   -0.4590   -0.2550 C   0  0  0  0  0  0  0  0  0  0  0  0
    6.9090   -1.2310   -0.9850 C   0  0  0  0  0  0  0  0  0  0  0  0
    5.5740   -0.8720   -1.0380 C   0  0  0  0  0  0  0  0  0  0  0  0
    5.1180    0.2380   -0.3710 C   0  0  0  0  0  0  0  0  0  0  0  0
    3.7720    0.5910   -0.4310 N   0  0  0  0  0  0  0  0  0  0  0  0
    2.7840   -0.2080   -0.2000 C   0  0  0  0  0  0  0  0  0  0  0  0
    2.7750   -1.5660    0.1520 N   0  0  0  0  0  0  0  0  0  0  0  0
    1.4260   -1.9930    0.2950 C   0  0  0  0  0  0  0  0  0  0  0  0
    1.0460   -3.1640    0.6080 O   0  0  0  0  0  0  0  0  0  0  0  0
    0.5640   -0.8420    0.0180 C   0  0  0  0  0  0  0  0  0  0  0  0
   -0.8320   -0.7140    0.0180 C   0  0  0  0  0  0  0  0  0  0  0  0
   -1.3990    0.4810   -0.2790 C   0  0  0  0  0  0  0  0  0  0  0  0
   -2.8320    0.7250   -0.3080 C   0  0  0  0  0  0  0  0  0  0  0  0
   -3.6020   -0.4390    0.0120 N   0  0  0  0  0  0  0  0  0  0  0  0
   -5.0380   -0.2860    0.0070 C   0  0  0  0  0  0  0  0  0  0  0  0
   -5.6460    0.9210   -0.2910 C   0  0  0  0  0  0  0  0  0  0  0  0
   -7.0150    1.0840   -0.3010 C   0  0  0  0  0  0  0  0  0  0  0  0
   -7.6330    2.4070   -0.6290 C   0  0  0  0  0  0  0  0  0  0  0  0
   -7.7960   -0.0200    0.0040 C   0  0  0  0  0  0  0  0  0  0  0  0
   -7.2270   -1.2320    0.3050 C   0  0  0  0  0  0  0  0  0  0  0  0
   -5.8350   -1.3670    0.3070 C   0  0  0  0  0  0  0  0  0  0  0  0
   -5.1960   -2.6690    0.6290 C   0  0  0  0  0  0  0  0  0  0  0  0
   -0.5770    1.5710   -0.5810 C   0  0  0  0  0  0  0  0  0  0  0  0
   -1.2660    3.1170   -0.9660 Cl  0  0  0  0  0  0  0  0  0  0  0  0
    0.7920    1.4250   -0.5760 C   0  0  0  0  0  0  0  0  0  0  0  0
    1.3900    0.2110   -0.2750 C   0  0  0  0  0  0  0  0  0  0  0  0
    6.0090    0.9900    0.3520 C   0  0  0  0  0  0  0  0  0  0  0  0
  1  2  1  0
  2  3  1  0
  3  4  2  0
  3 30  1  0
  4  5  1  0
  5  6  2  0
  6  7  1  0
  7  8  1  0
  7 30  2  0
  8  9  2  3
  9 10  1  0
  9 29  1  0
 10 11  1  0
 11 12  2  0
 11 13  1  0
 13 14  2  0
 13 29  1  0
 14 15  1  0
 15 16  1  0
 15 26  2  0
 16 17  1  0
 17 18  1  0
 18 19  2  0
 18 24  1  0
 19 20  1  0
 20 21  1  0
 20 22  2  0
 22 23  1  0
 23 24  2  0
 24 25  1  0
 26 27  1  0
 26 28  1  0
 28 29  2  0
M  END
