
     RDKit          3D

 31 34  0  0  0  0  0  0  0  0999 V2000
    3.1050   -2.7720    1.5360 C   0  0  0  0  0  0  0  0  0  0  0  0
    2.9110   -1.4980    0.9820 O   0  0  0  0  0  0  0  0  0  0  0  0
    1.6370   -1.0790    0.6890 C   0  0  0  0  0  0  0  0  0  0  0  0
    0.5600   -1.8890    0.9330 C   0  0  0  0  0  0  0  0  0  0  0  0
   -0.7150   -1.4070    0.6130 C   0  0  0  0  0  0  0  0  0  0  0  0
   -0.8900   -0.1800    0.0790 C   0  0  0  0  0  0  0  0  0  0  0  0
   -2.2180    0.3950   -0.2540 C   0  0  0  0  0  0  0  0  0  0  0  0
   -2.4780    1.9040   -1.0350 S   0  0  0  0  0  0  0  0  0  0  0  0
   -4.2610    1.8690   -1.0290 C   0  0  0  0  0  0  0  0  0  0  0  0
   -5.1010    2.9630   -1.6070 C   0  0  0  0  0  0  0  0  0  0  0  0
   -4.5280    0.6720   -0.4110 C   0  0  0  0  0  0  0  0  0  0  0  0
   -3.4840   -0.0740   -0.0200 C   0  0  0  0  0  0  0  0  0  0  0  0
   -3.9750   -1.3610    0.6200 C   0  0  0  0  0  0  0  0  0  0  0  0
   -5.4290   -1.2350    0.6360 C   0  0  0  0  0  0  0  0  0  0  0  0
   -6.2430   -2.1470    1.2010 C   0  0  0  0  0  0  0  0  0  0  0  0
   -5.6860   -3.2550    1.7950 F   0  0  0  0  0  0  0  0  0  0  0  0
   -5.8160   -0.0060   -0.0280 C   0  0  0  0  0  0  0  0  0  0  0  0
   -7.0420    0.3720   -0.2190 C   0  0  0  0  0  0  0  0  0  0  0  0
   -7.3420    1.5200   -0.8390 F   0  0  0  0  0  0  0  0  0  0  0  0
   -8.1010   -0.3700    0.1940 F   0  0  0  0  0  0  0  0  0  0  0  0
    0.2340    0.6280   -0.1610 C   0  0  0  0  0  0  0  0  0  0  0  0
    1.5020    0.1910    0.1400 C   0  0  0  0  0  0  0  0  0  0  0  0
    2.6080    0.9900   -0.0950 O   0  0  0  0  0  0  0  0  0  0  0  0
    3.4190    0.9050   -1.2120 C   0  0  0  0  0  0  0  0  0  0  0  0
    3.1580    0.0480   -2.0940 O   0  0  0  0  0  0  0  0  0  0  0  0
    4.5950    1.7850   -1.4200 C   0  0  0  0  0  0  0  0  0  0  0  0
    5.7650    1.3110   -0.7100 N   0  0  0  0  0  0  0  0  0  0  0  0
    6.0460    1.6900    0.5370 C   0  0  0  0  0  0  0  0  0  0  0  0
    7.2040    1.1000    0.9780 C   0  0  0  0  0  0  0  0  0  0  0  0
    7.6390    0.3210   -0.0680 C   0  0  0  0  0  0  0  0  0  0  0  0
    6.7320    0.4710   -1.0950 C   0  0  0  0  0  0  0  0  0  0  0  0
  1  2  1  0
  2  3  1  0
  3  4  2  0
  3 22  1  0
  4  5  1  0
  5  6  2  0
  6  7  1  0
  6 21  1  0
  7  8  1  0
  7 12  2  0
  8  9  1  0
  9 10  1  0
  9 11  2  0
 11 12  1  0
 11 17  1  0
 12 13  1  0
 13 14  1  0
 14 15  2  3
 14 17  1  0
 15 16  1  0
 17 18  2  3
 18 19  1  0
 18 20  1  0
 21 22  2  0
 22 23  1  0
 23 24  1  0
 24 25  2  0
 24 26  1  0
 26 27  1  0
 27 28  1  0
 27 31  1  0
 28 29  2  0
 29 30  1  0
 30 31  2  0
M  END
