
     RDKit          3D

 31 34  0  0  0  0  0  0  0  0999 V2000
    5.5700    2.3240    3.9150 C   0  0  0  0  0  0  0  0  0  0  0  0
    6.5280    2.0580    3.0630 C   0  0  0  0  0  0  0  0  0  0  0  0
    7.8150    2.2640    3.4610 F   0  0  0  0  0  0  0  0  0  0  0  0
    6.2730    1.5400    1.7510 C   0  0  0  0  0  0  0  0  0  0  0  0
    7.3070    1.3220    0.9450 C   0  0  0  0  0  0  0  0  0  0  0  0
    7.0590    0.8350   -0.2880 F   0  0  0  0  0  0  0  0  0  0  0  0
    8.5920    1.5590    1.2870 F   0  0  0  0  0  0  0  0  0  0  0  0
    4.9210    1.2600    1.2950 C   0  0  0  0  0  0  0  0  0  0  0  0
    4.4790    1.7530    0.0740 C   0  0  0  0  0  0  0  0  0  0  0  0
    3.2240    1.4730   -0.3940 C   0  0  0  0  0  0  0  0  0  0  0  0
    2.3310    0.7010    0.2950 C   0  0  0  0  0  0  0  0  0  0  0  0
    0.9870    0.3730   -0.1740 C   0  0  0  0  0  0  0  0  0  0  0  0
    0.4540    0.7720   -1.3700 C   0  0  0  0  0  0  0  0  0  0  0  0
   -0.8130    0.4230   -1.7490 C   0  0  0  0  0  0  0  0  0  0  0  0
   -1.6310   -0.3630   -0.9280 C   0  0  0  0  0  0  0  0  0  0  0  0
   -1.0480   -0.7290    0.2470 C   0  0  0  0  0  0  0  0  0  0  0  0
    0.2140   -0.3750    0.6120 N   0  0  0  0  0  0  0  0  0  0  0  0
   -2.2820   -1.7200    1.1210 S   0  0  0  0  0  0  0  0  0  0  0  0
   -3.5380   -1.6110   -0.1320 C   0  0  0  0  0  0  0  0  0  0  0  0
   -4.7190   -2.1630   -0.0740 C   0  0  0  0  0  0  0  0  0  0  0  0
   -5.7520   -2.0760   -1.1000 C   0  0  0  0  0  0  0  0  0  0  0  0
   -6.5520   -3.1760   -1.4410 C   0  0  0  0  0  0  0  0  0  0  0  0
   -7.4110   -2.7530   -2.4280 C   0  0  0  0  0  0  0  0  0  0  0  0
   -7.1180   -1.4430   -2.6540 C   0  0  0  0  0  0  0  0  0  0  0  0
   -7.7690   -0.5750   -3.6140 C   0  0  0  0  0  0  0  0  0  0  0  0
   -8.7110   -0.9700   -4.3640 O   0  0  0  0  0  0  0  0  0  0  0  0
   -6.1420   -1.0880   -1.8560 O   0  0  0  0  0  0  0  0  0  0  0  0
   -2.9610   -0.8110   -1.1730 C   0  0  0  0  0  0  0  0  0  0  0  0
   -3.6390   -0.5490   -2.2310 O   0  0  0  0  0  0  0  0  0  0  0  0
    2.7600    0.2000    1.5180 C   0  0  0  0  0  0  0  0  0  0  0  0
    4.0270    0.4750    2.0030 C   0  0  0  0  0  0  0  0  0  0  0  0
  1  2  2  0
  2  3  1  0
  2  4  1  0
  4  5  2  3
  4  8  1  0
  5  6  1  0
  5  7  1  0
  8  9  2  0
  8 31  1  0
  9 10  1  0
 10 11  2  0
 11 12  1  0
 11 30  1  0
 12 13  2  0
 12 17  1  0
 13 14  1  0
 14 15  2  0
 15 16  1  0
 15 28  1  0
 16 17  2  0
 16 18  1  0
 18 19  1  0
 19 20  2  3
 19 28  1  0
 20 21  1  0
 21 22  2  0
 21 27  1  0
 22 23  1  0
 23 24  2  0
 24 25  1  0
 24 27  1  0
 25 26  2  0
 28 29  2  0
 30 31  2  0
M  END
