
     RDKit          3D

 12 13  0  0  0  0  0  0  0  0999 V2000
   -3.2260   -1.5280   -0.4250 N   0  0  0  0  0  0  0  0  0  0  0  0
   -2.4310   -0.5670   -0.1230 C   0  0  0  0  0  0  0  0  0  0  0  0
   -2.8810    0.8000   -0.2590 C   0  0  0  0  0  0  0  0  0  0  0  0
   -2.0680    1.7820    0.0510 C   0  0  0  0  0  0  0  0  0  0  0  0
   -0.7290    1.5410    0.5260 C   0  0  0  0  0  0  0  0  0  0  0  0
   -0.2450    0.3230    0.6770 C   0  0  0  0  0  0  0  0  0  0  0  0
    1.0800    0.1820    1.1490 O   0  0  0  0  0  0  0  0  0  0  0  0
    2.1190    0.4790    0.2510 C   0  0  2  0  0  0  0  0  0  0  0  0
    2.1360   -0.3570   -0.9880 C   0  0  0  0  0  0  0  0  0  0  0  0
    3.2620   -0.4340    0.0380 C   0  0  0  0  0  0  0  0  0  0  0  0
   -1.0640   -0.8180    0.3620 C   0  0  0  0  0  0  0  0  0  0  0  0
   -0.6440   -2.0090    0.4910 N   0  0  0  0  0  0  0  0  0  0  0  0
  1  2  2  0
  2  3  1  0
  2 11  1  0
  3  4  2  0
  4  5  1  0
  5  6  2  0
  6  7  1  0
  6 11  1  0
  8  7  1  1
  8  9  1  0
  8 10  1  0
  9 10  1  0
 11 12  2  0
M  END
