
     RDKit          3D

 11 12  0  0  0  0  0  0  0  0999 V2000
    3.6170   -0.4090    0.4830 C   0  0  0  0  0  0  0  0  0  0  0  0
    2.1530   -0.2460    0.3230 C   0  0  0  0  0  0  0  0  0  0  0  0
    1.1330   -1.1520    0.5160 C   0  0  0  0  0  0  0  0  0  0  0  0
   -0.0530   -0.5210    0.2370 C   0  0  0  0  0  0  0  0  0  0  0  0
   -1.3680   -0.9500    0.2650 C   0  0  0  0  0  0  0  0  0  0  0  0
   -2.3980   -0.1090   -0.0640 C   0  0  0  0  0  0  0  0  0  0  0  0
   -3.7410   -0.5590   -0.0320 N   0  0  0  0  0  0  0  0  0  0  0  0
   -2.1050    1.1920   -0.4290 C   0  0  0  0  0  0  0  0  0  0  0  0
   -0.7980    1.6430   -0.4640 C   0  0  0  0  0  0  0  0  0  0  0  0
    0.2410    0.7770   -0.1270 C   0  0  0  0  0  0  0  0  0  0  0  0
    1.5650    0.8990   -0.0630 N   0  0  0  0  0  0  0  0  0  0  0  0
  1  2  1  0
  2  3  2  0
  2 11  1  0
  3  4  1  0
  4  5  2  0
  4 10  1  0
  5  6  1  0
  6  7  1  0
  6  8  2  0
  8  9  1  0
  9 10  2  0
 10 11  1  0
M  END
