
     RDKit          3D

 12 13  0  0  0  0  0  0  0  0999 V2000
    3.3490   -0.8050   -0.2690 N   0  0  0  0  0  0  0  0  0  0  0  0
    2.0390   -0.2900   -0.1450 C   0  0  0  0  0  0  0  0  0  0  0  0
    1.8150    1.0860   -0.0310 C   0  0  0  0  0  0  0  0  0  0  0  0
    0.5790    1.5960    0.0890 N   0  0  0  0  0  0  0  0  0  0  0  0
   -0.5220    0.8120    0.1060 C   0  0  0  0  0  0  0  0  0  0  0  0
   -1.7890    1.3490    0.2300 C   0  0  0  0  0  0  0  0  0  0  0  0
   -2.9030    0.5370    0.2460 C   0  0  0  0  0  0  0  0  0  0  0  0
   -2.7510   -0.8290    0.1380 C   0  0  0  0  0  0  0  0  0  0  0  0
   -1.4860   -1.3620    0.0150 C   0  0  0  0  0  0  0  0  0  0  0  0
   -0.3460   -0.5510   -0.0030 C   0  0  0  0  0  0  0  0  0  0  0  0
    0.9140   -1.0960   -0.1270 C   0  0  0  0  0  0  0  0  0  0  0  0
    1.0440   -2.3270   -0.2240 O   0  0  0  0  0  0  0  0  0  0  0  0
  1  2  1  0
  2  3  2  0
  2 11  1  0
  3  4  1  0
  4  5  1  0
  5  6  2  0
  5 10  1  0
  6  7  1  0
  7  8  2  0
  8  9  1  0
  9 10  2  0
 10 11  1  0
 11 12  2  0
M  END
