
     RDKit          3D

 18 19  0  0  0  0  0  0  0  0999 V2000
    1.4470   -3.5950    0.6450 N   0  0  0  0  0  0  0  0  0  0  0  0
    2.2800   -2.1830    0.1740 S   0  0  2  0  0  0  0  0  0  0  0  0
    2.2860   -2.0900   -1.3220 O   0  0  0  0  0  0  0  0  0  0  0  0
    3.6970   -2.2890    0.7150 O   0  0  0  0  0  0  0  0  0  0  0  0
    1.5690   -0.7180    0.8670 C   0  0  2  0  0  0  0  0  0  0  0  0
    0.1540   -0.5530    0.4680 C   0  0  0  0  0  0  0  0  0  0  0  0
   -0.5490    0.5260    0.6710 C   0  0  0  0  0  0  0  0  0  0  0  0
    0.1820    1.8940    1.4630 Cl  0  0  0  0  0  0  0  0  0  0  0  0
   -1.9290    0.6110    0.2520 C   0  0  0  0  0  0  0  0  0  0  0  0
   -2.7690    1.6460    0.3920 C   0  0  0  0  0  0  0  0  0  0  0  0
   -4.0980    1.3280   -0.1730 C   0  0  0  0  0  0  0  0  0  0  0  0
   -4.1210   -0.1860   -0.0880 C   0  0  0  0  0  0  0  0  0  0  0  0
   -2.6640   -0.4920   -0.4340 C   0  0  0  0  0  0  0  0  0  0  0  0
    2.4100    0.4530    0.3730 C   0  0  0  0  0  0  0  0  0  0  0  0
    3.0730    1.3000    1.1000 C   0  0  0  0  0  0  0  0  0  0  0  0
    3.9540    2.5520    0.2150 S   0  0  0  0  0  0  0  0  0  0  0  0
    3.6080    2.2110   -1.5150 C   0  0  0  0  0  0  0  0  0  0  0  0
    2.5450    0.7540   -1.3790 S   0  0  0  0  0  0  0  0  0  0  0  0
  2  1  1  6
  2  3  2  0
  2  4  2  0
  2  5  1  0
  5  6  1  6
  5 14  1  0
  6  7  2  3
  7  8  1  0
  7  9  1  0
  9 10  2  0
  9 13  1  0
 10 11  1  0
 11 12  1  0
 12 13  1  0
 14 15  2  0
 14 18  1  0
 15 16  1  0
 16 17  1  0
 17 18  1  0
M  END
