
     RDKit          3D

 12 12  0  0  0  0  0  0  0  0999 V2000
   -3.3700   -1.6200    0.0400 C   0  0  0  0  0  0  0  0  0  0  0  0
   -2.6860   -0.6910   -0.8330 N   0  0  0  0  0  0  0  0  0  0  0  0
   -1.5530    0.0180   -0.3490 C   0  0  0  0  0  0  0  0  0  0  0  0
   -0.3450   -0.4300   -0.6540 C   0  0  0  0  0  0  0  0  0  0  0  0
    0.9420    0.0950   -0.2970 N   0  0  0  0  0  0  0  0  0  0  0  0
    2.0200   -0.6870   -0.8000 C   0  0  0  0  0  0  0  0  0  0  0  0
    3.3920   -0.2700   -0.4100 C   0  0  0  0  0  0  0  0  0  0  0  0
    3.5840   -0.3050    0.9850 O   0  0  0  0  0  0  0  0  0  0  0  0
    1.1990    1.2610    0.4510 C   0  0  0  0  0  0  0  0  0  0  0  0
    0.3440    2.1150    1.0200 C   0  0  0  0  0  0  0  0  0  0  0  0
   -1.1080    2.0670    1.0200 C   0  0  0  0  0  0  0  0  0  0  0  0
   -1.9320    1.1990    0.4540 C   0  0  0  0  0  0  0  0  0  0  0  0
  1  2  1  0
  2  3  1  0
  3  4  2  0
  3 12  1  0
  4  5  1  0
  5  6  1  0
  5  9  1  0
  6  7  1  0
  7  8  1  0
  9 10  2  0
 10 11  1  0
 11 12  2  0
M  END
