
     RDKit          3D

 12 13  0  0  0  0  0  0  0  0999 V2000
   -0.6180    2.8350    0.8740 O   0  0  0  0  0  0  0  0  0  0  0  0
   -1.4130    1.7420    0.6210 C   0  0  0  0  0  0  0  0  0  0  0  0
   -0.9180    0.6490    0.0890 C   0  0  0  0  0  0  0  0  0  0  0  0
   -1.9150   -0.4340   -0.1110 C   0  0  0  0  0  0  0  0  0  0  0  0
   -1.2860   -1.7720   -0.3690 C   0  0  0  0  0  0  0  0  0  0  0  0
   -0.2350   -2.2020    0.5860 C   0  0  0  0  0  0  0  0  0  0  0  0
    1.0970   -1.7210    0.2970 N   0  0  0  0  0  0  0  0  0  0  0  0
    1.3910   -0.3740   -0.1160 C   0  0  0  0  0  0  0  0  0  0  0  0
    2.5630    0.1160   -0.4930 N   0  0  0  0  0  0  0  0  0  0  0  0
    2.5000    1.4120   -0.8270 C   0  0  0  0  0  0  0  0  0  0  0  0
    1.1750    1.8130   -0.6560 C   0  0  0  0  0  0  0  0  0  0  0  0
    0.5010    0.6980   -0.2150 C   0  0  0  0  0  0  0  0  0  0  0  0
  1  2  1  0
  2  3  2  3
  3  4  1  0
  3 12  1  0
  4  5  1  0
  5  6  1  0
  6  7  1  0
  7  8  1  0
  8  9  1  0
  8 12  2  0
  9 10  1  0
 10 11  2  0
 11 12  1  0
M  END
