
     RDKit          3D

 31 34  0  0  0  0  0  0  0  0999 V2000
   -0.9450    2.3020   -3.0810 N   0  0  0  0  0  0  0  0  0  0  0  0
   -1.1320    1.3880   -1.9340 C   0  0  0  0  0  0  0  0  0  0  0  0
   -2.3970    1.3170   -1.5530 C   0  0  0  0  0  0  0  0  0  0  0  0
   -3.3610    2.1340   -2.3490 N   0  0  0  0  0  0  0  0  0  0  0  0
   -3.0220    0.6090   -0.4930 N   0  0  0  0  0  0  0  0  0  0  0  0
   -3.5910   -0.6260   -0.9180 N   0  0  0  0  0  0  0  0  0  0  0  0
   -4.1620   -1.4910   -0.2240 C   0  0  0  0  0  0  0  0  0  0  0  0
   -4.2970   -1.2740    1.2070 C   0  0  0  0  0  0  0  0  0  0  0  0
   -3.8070   -0.1590    1.7070 C   0  0  0  0  0  0  0  0  0  0  0  0
   -3.1280    0.8860    0.8930 C   0  0  0  0  0  0  0  0  0  0  0  0
   -2.8480    2.0170    1.5340 C   0  0  0  0  0  0  0  0  0  0  0  0
   -2.3780    3.2720    1.0410 C   0  0  0  0  0  0  0  0  0  0  0  0
   -3.1380    4.3100    1.2670 O   0  0  0  0  0  0  0  0  0  0  0  0
   -1.2250    3.6570    0.3350 N   0  0  0  0  0  0  0  0  0  0  0  0
    0.1020    3.1240    0.6230 C   0  0  0  0  0  0  0  0  0  0  0  0
   -0.0340    1.8800    1.4300 C   0  0  0  0  0  0  0  0  0  0  0  0
    0.2090    0.6900    0.9230 C   0  0  0  0  0  0  0  0  0  0  0  0
    0.6180    0.3560   -0.3920 N   0  0  0  0  0  0  0  0  0  0  0  0
    0.0550    0.6770   -1.5450 C   0  0  0  0  0  0  0  0  0  0  0  0
    0.8860    0.0820   -2.4970 N   0  0  0  0  0  0  0  0  0  0  0  0
    1.8840   -0.5600   -1.9690 C   0  0  0  0  0  0  0  0  0  0  0  0
    1.7490   -0.4100   -0.6110 C   0  0  0  0  0  0  0  0  0  0  0  0
    2.7880   -1.0830    0.2150 C   0  0  1  0  0  0  0  0  0  0  0  0
    2.4860   -2.3930    0.4920 O   0  0  0  0  0  0  0  0  0  0  0  0
    2.3890   -2.5540    1.8620 C   0  0  0  0  0  0  0  0  0  0  0  0
    2.0570   -3.9740    2.2680 C   0  0  0  0  0  0  0  0  0  0  0  0
    3.0230   -4.8680    1.8330 O   0  0  0  0  0  0  0  0  0  0  0  0
    4.1580   -0.9740   -0.4540 C   0  0  0  0  0  0  0  0  0  0  0  0
    4.1100   -1.8190   -1.6820 C   0  0  0  0  0  0  0  0  0  0  0  0
    2.9850   -1.3210   -2.5470 C   0  0  0  0  0  0  0  0  0  0  0  0
    2.9860   -1.5610   -3.7940 O   0  0  0  0  0  0  0  0  0  0  0  0
  1  2  1  0
  2  3  2  0
  2 19  1  0
  3  4  1  0
  3  5  1  0
  5  6  1  0
  5 10  1  0
  6  7  2  0
  7  8  1  0
  8  9  2  0
  9 10  1  0
 10 11  2  0
 11 12  1  0
 12 13  2  0
 12 14  1  0
 14 15  1  0
 15 16  1  0
 16 17  2  0
 17 18  1  0
 18 19  1  0
 18 22  1  0
 19 20  2  0
 20 21  1  0
 21 22  2  0
 21 30  1  0
 22 23  1  0
 23 24  1  6
 23 28  1  0
 24 25  1  0
 25 26  1  0
 26 27  1  0
 28 29  1  0
 29 30  1  0
 30 31  2  0
M  END
