
     RDKit          3D

 31 34  0  0  0  0  0  0  0  0999 V2000
    5.5290   -1.2750    2.7670 C   0  0  0  0  0  0  0  0  0  0  0  0
    6.1000   -1.0730    1.4140 C   0  0  0  0  0  0  0  0  0  0  0  0
    7.4120   -0.8880    1.1540 N   0  0  0  0  0  0  0  0  0  0  0  0
    7.5190   -0.7470   -0.1560 N   0  0  0  0  0  0  0  0  0  0  0  0
    6.3100   -0.8360   -0.7470 C   0  0  0  0  0  0  0  0  0  0  0  0
    6.0350   -0.7270   -2.2030 C   0  0  0  0  0  0  0  0  0  0  0  0
    5.3810   -1.0470    0.2440 C   0  0  0  0  0  0  0  0  0  0  0  0
    3.9380   -1.2100    0.1110 C   0  0  0  0  0  0  0  0  0  0  0  0
    3.1530    0.0190    0.5200 C   0  0  0  0  0  0  0  0  0  0  0  0
    1.7140   -0.3160    0.3240 C   0  0  0  0  0  0  0  0  0  0  0  0
    1.3070   -1.4230   -0.1000 O   0  0  0  0  0  0  0  0  0  0  0  0
    0.6790    0.6590    0.6270 N   0  0  0  0  0  0  0  0  0  0  0  0
   -0.6840    0.3190    0.4050 C   0  0  0  0  0  0  0  0  0  0  0  0
   -0.9990   -0.8620   -0.1530 N   0  0  0  0  0  0  0  0  0  0  0  0
   -2.2900   -1.1570   -0.4060 C   0  0  0  0  0  0  0  0  0  0  0  0
   -2.5330   -2.4830   -0.9880 C   0  0  0  0  0  0  0  0  0  0  0  0
   -1.5290   -3.2460   -1.2380 O   0  0  0  0  0  0  0  0  0  0  0  0
   -3.7590   -3.0130   -1.2990 O   0  0  0  0  0  0  0  0  0  0  0  0
   -3.9640   -4.2460   -1.8350 N   0  0  0  0  0  0  0  0  0  0  0  0
   -3.3170   -0.2810   -0.1120 C   0  0  0  0  0  0  0  0  0  0  0  0
   -3.0400    0.9710    0.4790 C   0  0  0  0  0  0  0  0  0  0  0  0
   -1.6740    1.2040    0.7110 C   0  0  0  0  0  0  0  0  0  0  0  0
   -1.1270    2.3960    1.3240 N   0  0  0  0  0  0  0  0  0  0  0  0
   -1.7120    3.7050    1.2040 C   0  0  0  0  0  0  0  0  0  0  0  0
   -0.9230    4.6650    1.2480 O   0  0  0  0  0  0  0  0  0  0  0  0
   -3.1140    3.9490    1.0420 N   0  0  0  0  0  0  0  0  0  0  0  0
   -4.1680    3.0580    1.4010 C   0  0  0  0  0  0  0  0  0  0  0  0
   -4.2520    1.7560    0.7480 C   0  0  1  0  0  0  0  0  0  0  0  0
   -5.0820    1.7550   -0.5240 C   0  0  0  0  0  0  0  0  0  0  0  0
   -5.7190    0.3660   -0.5520 C   0  0  0  0  0  0  0  0  0  0  0  0
   -4.6720   -0.7120   -0.4950 C   0  0  0  0  0  0  0  0  0  0  0  0
  1  2  1  0
  2  3  2  0
  2  7  1  0
  3  4  1  0
  4  5  1  0
  5  6  1  0
  5  7  2  0
  7  8  1  0
  8  9  1  0
  9 10  1  0
 10 11  2  0
 10 12  1  0
 12 13  1  0
 13 14  2  0
 13 22  1  0
 14 15  1  0
 15 16  1  0
 15 20  2  0
 16 17  2  0
 16 18  1  0
 18 19  1  0
 20 21  1  0
 20 31  1  0
 21 22  2  0
 21 28  1  0
 22 23  1  0
 23 24  1  0
 24 25  2  0
 24 26  1  0
 26 27  1  0
 28 27  1  6
 28 29  1  0
 29 30  1  0
 30 31  1  0
M  END
