
     RDKit          3D

 31 34  0  0  0  0  0  0  0  0999 V2000
   -7.3200    3.5570    0.4330 C   0  0  0  0  0  0  0  0  0  0  0  0
   -6.1910    2.5450    0.4250 C   0  0  0  0  0  0  0  0  0  0  0  0
   -4.9600    3.1670    0.2070 O   0  0  0  0  0  0  0  0  0  0  0  0
   -3.8070    2.4250    0.1630 C   0  0  0  0  0  0  0  0  0  0  0  0
   -2.5910    3.0250   -0.0500 C   0  0  0  0  0  0  0  0  0  0  0  0
   -1.4100    2.2700   -0.0950 C   0  0  0  0  0  0  0  0  0  0  0  0
   -1.4880    0.9120    0.0790 C   0  0  0  0  0  0  0  0  0  0  0  0
   -0.3190    0.1210    0.0980 N   0  0  0  0  0  0  0  0  0  0  0  0
    0.9840    0.5120   -0.2110 C   0  0  0  0  0  0  0  0  0  0  0  0
    1.2490    1.6680   -0.5600 O   0  0  0  0  0  0  0  0  0  0  0  0
    2.0940   -0.4160   -0.1390 N   0  0  0  0  0  0  0  0  0  0  0  0
    3.3910    0.0640   -0.4710 C   0  0  1  0  0  0  0  0  0  0  0  0
    4.3700   -0.0700    0.7040 C   0  0  0  0  0  0  0  0  0  0  0  0
    5.6130    0.6800    0.3040 C   0  0  1  0  0  0  0  0  0  0  0  0
    6.7210    0.4990    1.2570 C   0  0  0  0  0  0  0  0  0  0  0  0
    6.6590    0.3930    2.5090 O   0  0  0  0  0  0  0  0  0  0  0  0
    7.9170    0.4640    0.4880 N   0  0  0  0  0  0  0  0  0  0  0  0
    7.5260    0.0130   -0.8390 C   0  0  0  0  0  0  0  0  0  0  0  0
    6.1290    0.2920   -0.9700 N   0  0  0  0  0  0  0  0  0  0  0  0
    5.4440   -0.7230   -1.6030 N   0  0  0  0  0  0  0  0  0  0  0  0
    4.0210   -0.6980   -1.5910 C   0  0  0  0  0  0  0  0  0  0  0  0
    3.3420   -1.2720   -2.4550 O   0  0  0  0  0  0  0  0  0  0  0  0
   -2.7230    0.3230    0.2920 C   0  0  0  0  0  0  0  0  0  0  0  0
   -2.8960   -1.0990    0.4840 C   0  0  0  0  0  0  0  0  0  0  0  0
   -3.6270   -1.5600    1.5840 C   0  0  0  0  0  0  0  0  0  0  0  0
   -3.8320   -2.9100    1.7680 C   0  0  0  0  0  0  0  0  0  0  0  0
   -3.3230   -3.8170    0.8810 C   0  0  0  0  0  0  0  0  0  0  0  0
   -3.5290   -5.2060    1.0640 N   0  0  0  0  0  0  0  0  0  0  0  0
   -2.6070   -3.3930   -0.1990 C   0  0  0  0  0  0  0  0  0  0  0  0
   -2.4080   -2.0310   -0.3750 C   0  0  0  0  0  0  0  0  0  0  0  0
   -3.8330    1.1100    0.3250 N   0  0  0  0  0  0  0  0  0  0  0  0
  1  2  1  0
  2  3  1  0
  3  4  1  0
  4  5  2  0
  4 31  1  0
  5  6  1  0
  6  7  2  0
  7  8  1  0
  7 23  1  0
  8  9  1  0
  9 10  2  0
  9 11  1  0
 12 11  1  1
 12 13  1  0
 12 21  1  0
 14 13  1  1
 14 15  1  0
 14 19  1  0
 15 16  2  0
 15 17  1  0
 17 18  1  0
 18 19  1  0
 19 20  1  0
 20 21  1  0
 21 22  2  0
 23 24  1  0
 23 31  2  0
 24 25  2  0
 24 30  1  0
 25 26  1  0
 26 27  2  0
 27 28  1  0
 27 29  1  0
 29 30  2  0
M  END
