
     RDKit          3D

 30 33  0  0  0  0  0  0  0  0999 V2000
   10.7790    1.0330   -0.0650 C   0  0  0  0  0  0  0  0  0  0  0  0
   10.1850   -0.2640   -0.6150 C   0  0  0  0  0  0  0  0  0  0  0  0
    8.7340   -0.0580   -0.8380 C   0  0  0  0  0  0  0  0  0  0  0  0
    7.7580   -0.2990    0.1020 C   0  0  0  0  0  0  0  0  0  0  0  0
    6.5620    0.0150   -0.4990 C   0  0  0  0  0  0  0  0  0  0  0  0
    5.2930   -0.0850    0.1130 N   0  0  0  0  0  0  0  0  0  0  0  0
    4.0580    0.2320   -0.4860 C   0  0  0  0  0  0  0  0  0  0  0  0
    4.0360    0.6450   -1.6690 O   0  0  0  0  0  0  0  0  0  0  0  0
    2.7940    0.0950    0.2280 C   0  0  0  0  0  0  0  0  0  0  0  0
    2.6610   -0.3470    1.5350 C   0  0  0  0  0  0  0  0  0  0  0  0
    1.3170   -0.3410    1.8590 C   0  0  0  0  0  0  0  0  0  0  0  0
    0.6670    0.0970    0.7660 N   0  0  0  0  0  0  0  0  0  0  0  0
   -0.7590    0.2520    0.6820 C   0  0  0  0  0  0  0  0  0  0  0  0
   -1.3490    1.5000    0.7260 C   0  0  0  0  0  0  0  0  0  0  0  0
   -2.7190    1.6280    0.6430 C   0  0  0  0  0  0  0  0  0  0  0  0
   -3.5610    0.5180    0.5150 C   0  0  0  0  0  0  0  0  0  0  0  0
   -5.0310    0.6850    0.4340 C   0  0  0  0  0  0  0  0  0  0  0  0
   -5.6560   -0.4950   -0.0590 N   0  0  0  0  0  0  0  0  0  0  0  0
   -5.2570   -0.8760   -1.3780 C   0  0  0  0  0  0  0  0  0  0  0  0
   -6.2410   -0.4370   -2.4400 C   0  0  0  0  0  0  0  0  0  0  0  0
   -6.9640    0.6280   -1.9230 O   0  0  0  0  0  0  0  0  0  0  0  0
   -7.8220    0.1320   -0.9460 C   0  0  2  0  0  0  0  0  0  0  0  0
   -8.5960    1.2810   -0.2930 C   0  0  0  0  0  0  0  0  0  0  0  0
   -7.0680   -0.5630    0.1700 C   0  0  0  0  0  0  0  0  0  0  0  0
   -2.9640   -0.7220    0.4720 C   0  0  0  0  0  0  0  0  0  0  0  0
   -1.5940   -0.8390    0.5550 C   0  0  0  0  0  0  0  0  0  0  0  0
   -0.9860   -2.1830    0.5070 C   0  0  0  0  0  0  0  0  0  0  0  0
    1.5570    0.3540   -0.2000 N   0  0  0  0  0  0  0  0  0  0  0  0
    6.8130    0.4260   -1.7430 N   0  0  0  0  0  0  0  0  0  0  0  0
    8.1430    0.3830   -1.9590 N   0  0  0  0  0  0  0  0  0  0  0  0
  1  2  1  0
  2  3  1  0
  3  4  1  0
  3 30  2  0
  4  5  2  0
  5  6  1  0
  5 29  1  0
  6  7  1  0
  7  8  2  0
  7  9  1  0
  9 10  1  0
  9 28  2  0
 10 11  2  0
 11 12  1  0
 12 13  1  0
 12 28  1  0
 13 14  2  0
 13 26  1  0
 14 15  1  0
 15 16  2  0
 16 17  1  0
 16 25  1  0
 17 18  1  0
 18 19  1  0
 18 24  1  0
 19 20  1  0
 20 21  1  0
 21 22  1  0
 22 23  1  1
 22 24  1  0
 25 26  2  0
 26 27  1  0
 29 30  1  0
M  END
