
     RDKit          3D

 17 18  0  0  0  0  0  0  0  0999 V2000
    3.5170    0.2610    1.3120 C   0  0  0  0  0  0  0  0  0  0  0  0
    2.6870   -0.3920    0.1980 C   0  0  2  0  0  0  0  0  0  0  0  0
    3.6060   -1.2490   -0.6030 C   0  0  0  0  0  0  0  0  0  0  0  0
    2.0700    0.6250   -0.6320 N   0  0  0  0  0  0  0  0  0  0  0  0
    0.8000    1.0900   -0.1290 C   0  0  0  0  0  0  0  0  0  0  0  0
   -0.3160    0.2060   -0.3670 C   0  0  0  0  0  0  0  0  0  0  0  0
   -0.1410   -0.9870   -1.0270 C   0  0  0  0  0  0  0  0  0  0  0  0
   -1.1810   -1.8570   -1.2730 C   0  0  0  0  0  0  0  0  0  0  0  0
   -2.4690   -1.5250   -0.8380 C   0  0  0  0  0  0  0  0  0  0  0  0
   -3.4940   -2.4010   -1.0890 O   0  0  0  0  0  0  0  0  0  0  0  0
   -2.6980   -0.3260   -0.1630 C   0  0  0  0  0  0  0  0  0  0  0  0
   -3.9610    0.0180    0.2730 C   0  0  0  0  0  0  0  0  0  0  0  0
   -4.1460    1.2080    0.9340 C   0  0  0  0  0  0  0  0  0  0  0  0
   -3.0700    2.0410    1.1530 C   0  0  0  0  0  0  0  0  0  0  0  0
   -3.3210    3.5520    1.9950 Cl  0  0  0  0  0  0  0  0  0  0  0  0
   -1.8040    1.6830    0.7080 C   0  0  0  0  0  0  0  0  0  0  0  0
   -1.6130    0.4950    0.0470 C   0  0  0  0  0  0  0  0  0  0  0  0
  2  1  1  1
  2  3  1  0
  2  4  1  0
  4  5  1  0
  5  6  1  0
  6  7  2  0
  6 17  1  0
  7  8  1  0
  8  9  2  0
  9 10  1  0
  9 11  1  0
 11 12  2  0
 11 17  1  0
 12 13  1  0
 13 14  2  0
 14 15  1  0
 14 16  1  0
 16 17  2  0
M  CHG  1   4   1
M  END
