
     RDKit          3D

 16 16  0  0  0  0  0  0  0  0999 V2000
    0.0150   -3.0140    0.5370 C   0  0  0  0  0  0  0  0  0  0  0  0
   -1.0240   -1.9890    0.4910 C   0  0  0  0  0  0  0  0  0  0  0  0
   -1.1250   -0.7480    0.3150 C   0  0  0  0  0  0  0  0  0  0  0  0
   -0.5090    0.5260    0.0610 C   0  0  0  0  0  0  0  0  0  0  0  0
    0.9320    0.7620   -0.2120 C   0  0  0  0  0  0  0  0  0  0  0  0
    1.8310   -0.1910   -0.0190 C   0  0  0  0  0  0  0  0  0  0  0  0
    3.2730   -0.1310   -0.2420 C   0  0  0  0  0  0  0  0  0  0  0  0
    3.6800    1.1140   -0.8820 C   0  0  0  0  0  0  0  0  0  0  0  0
    4.9060    1.2790   -1.2470 O   0  0  0  0  0  0  0  0  0  0  0  0
    2.7180    2.1510   -1.1040 C   0  0  0  0  0  0  0  0  0  0  0  0
    1.4120    2.0140   -0.7970 C   0  0  0  0  0  0  0  0  0  0  0  0
   -1.3370    1.5530   -0.0430 C   0  0  0  0  0  0  0  0  0  0  0  0
   -2.8350    1.3340    0.0960 C   0  0  0  0  0  0  0  0  0  0  0  0
   -1.0360    2.9140   -0.1760 N   0  0  0  0  0  0  0  0  0  0  0  0
   -2.4240   -2.6850    0.7440 C   0  0  0  0  0  0  0  0  0  0  0  0
   -2.3470   -3.4420    2.3310 Cl  0  0  0  0  0  0  0  0  0  0  0  0
  1  2  1  0
  2  3  2  3
  2 15  1  0
  3  4  1  0
  4  5  1  0
  4 12  2  3
  5  6  2  0
  5 11  1  0
  6  7  1  0
  7  8  1  0
  8  9  2  0
  8 10  1  0
 10 11  2  0
 12 13  1  0
 12 14  1  0
 15 16  1  0
M  END
