
     RDKit          3D

 17 18  0  0  0  0  0  0  0  0999 V2000
   -2.7010   -1.8830    1.3500 C   0  0  0  0  0  0  0  0  0  0  0  0
   -1.7420   -1.5520    0.2840 N   0  0  0  0  0  0  0  0  0  0  0  0
   -1.9240   -0.1770   -0.0080 C   0  0  0  0  0  0  0  0  0  0  0  0
   -3.2000    0.3550    0.0470 C   0  0  0  0  0  0  0  0  0  0  0  0
   -3.4720    1.6870   -0.2200 C   0  0  0  0  0  0  0  0  0  0  0  0
   -2.4070    2.4850   -0.5490 C   0  0  0  0  0  0  0  0  0  0  0  0
   -1.1260    1.9780   -0.6110 C   0  0  0  0  0  0  0  0  0  0  0  0
   -0.8680    0.6410   -0.3420 C   0  0  0  0  0  0  0  0  0  0  0  0
    0.4900    0.1490   -0.4220 C   0  0  0  0  0  0  0  0  0  0  0  0
    1.5080    0.8620    0.1740 C   0  0  0  0  0  0  0  0  0  0  0  0
    2.8310    0.4610    0.1390 C   0  0  0  0  0  0  0  0  0  0  0  0
    3.8790    1.2800    0.8040 C   0  0  0  0  0  0  0  0  0  0  0  0
    3.1710   -0.7090   -0.5200 C   0  0  0  0  0  0  0  0  0  0  0  0
    4.4880   -1.0950   -0.5460 O   0  0  0  0  0  0  0  0  0  0  0  0
    2.1380   -1.4050   -1.1070 C   0  0  0  0  0  0  0  0  0  0  0  0
    2.5860   -2.8930   -1.9430 Cl  0  0  0  0  0  0  0  0  0  0  0  0
    0.8180   -1.0150   -1.0790 C   0  0  0  0  0  0  0  0  0  0  0  0
  1  2  1  0
  2  3  1  0
  3  4  2  0
  3  8  1  0
  4  5  1  0
  5  6  2  0
  6  7  1  0
  7  8  2  0
  8  9  1  0
  9 10  2  0
  9 17  1  0
 10 11  1  0
 11 12  1  0
 11 13  2  0
 13 14  1  0
 13 15  1  0
 15 16  1  0
 15 17  2  0
M  CHG  1   2   1
M  END
