
     RDKit          3D

 17 18  0  0  0  0  0  0  0  0999 V2000
    4.5880    0.0590    0.3030 C   0  0  0  0  0  0  0  0  0  0  0  0
    3.6680   -1.0860    0.1840 C   0  0  0  0  0  0  0  0  0  0  0  0
    2.3980   -0.6630   -0.4520 N   0  0  0  0  0  0  0  0  0  0  0  0
    1.6580    0.1510    0.5620 C   0  0  0  0  0  0  0  0  0  0  0  0
    0.2050   -0.0420    0.3800 C   0  0  0  0  0  0  0  0  0  0  0  0
   -0.3770   -1.1280    1.0490 C   0  0  0  0  0  0  0  0  0  0  0  0
    0.4980   -1.9480    1.7790 O   0  0  0  0  0  0  0  0  0  0  0  0
   -1.7070   -1.3340    0.9720 C   0  0  0  0  0  0  0  0  0  0  0  0
   -2.3830   -2.7110    1.7930 Cl  0  0  0  0  0  0  0  0  0  0  0  0
   -2.5540   -0.5120    0.2490 C   0  0  0  0  0  0  0  0  0  0  0  0
   -3.9100   -0.7710    0.2230 C   0  0  0  0  0  0  0  0  0  0  0  0
   -4.7960    0.0580   -0.4830 C   0  0  0  0  0  0  0  0  0  0  0  0
   -4.2220    1.1230   -1.1450 C   0  0  0  0  0  0  0  0  0  0  0  0
   -2.8500    1.3770   -1.1170 C   0  0  0  0  0  0  0  0  0  0  0  0
   -1.9850    0.5530   -0.4080 C   0  0  0  0  0  0  0  0  0  0  0  0
   -0.6070    0.7940   -0.3420 C   0  0  0  0  0  0  0  0  0  0  0  0
   -0.1460    2.0650   -1.0110 C   0  0  0  0  0  0  0  0  0  0  0  0
  1  2  1  0
  2  3  1  0
  3  4  1  0
  4  5  1  0
  5  6  2  0
  5 16  1  0
  6  7  1  0
  6  8  1  0
  8  9  1  0
  8 10  2  0
 10 11  1  0
 10 15  1  0
 11 12  2  0
 12 13  1  0
 13 14  2  0
 14 15  1  0
 15 16  2  0
 16 17  1  0
M  CHG  1   3   1
M  END
