
     RDKit          3D

 17 18  0  0  0  0  0  0  0  0999 V2000
   -4.1600    1.1300    1.0860 C   0  0  0  0  0  0  0  0  0  0  0  0
   -3.4610    0.1920    0.1630 C   0  0  0  0  0  0  0  0  0  0  0  0
   -4.0520   -0.4240   -0.8430 C   0  0  0  0  0  0  0  0  0  0  0  0
   -3.0630   -1.2890   -1.5620 C   0  0  0  0  0  0  0  0  0  0  0  0
   -1.8310   -1.0560   -0.7970 C   0  0  0  0  0  0  0  0  0  0  0  0
   -2.0590   -0.2080    0.1910 C   0  0  0  0  0  0  0  0  0  0  0  0
   -1.1120    0.3190    1.2190 C   0  0  0  0  0  0  0  0  0  0  0  0
    0.2190   -0.2190    1.0450 N   0  0  0  0  0  0  0  0  0  0  0  0
    0.9230    0.6740    0.1510 C   0  0  0  0  0  0  0  0  0  0  0  0
    2.3370    0.2440   -0.0610 C   0  0  0  0  0  0  0  0  0  0  0  0
    2.8040   -0.8760    0.5670 C   0  0  0  0  0  0  0  0  0  0  0  0
    4.1100   -1.3280    0.4110 C   0  0  0  0  0  0  0  0  0  0  0  0
    4.7140   -2.7590    1.2100 Cl  0  0  0  0  0  0  0  0  0  0  0  0
    4.9340   -0.5980   -0.4110 C   0  0  0  0  0  0  0  0  0  0  0  0
    4.4770    0.5280   -1.0470 C   0  0  0  0  0  0  0  0  0  0  0  0
    3.1790    0.9600   -0.8800 C   0  0  0  0  0  0  0  0  0  0  0  0
    2.6870    2.0900   -1.5050 O   0  0  0  0  0  0  0  0  0  0  0  0
  1  2  1  0
  2  3  2  0
  2  6  1  0
  3  4  1  0
  4  5  1  0
  5  6  2  0
  6  7  1  0
  7  8  1  0
  8  9  1  0
  9 10  1  0
 10 11  2  0
 10 16  1  0
 11 12  1  0
 12 13  1  0
 12 14  2  0
 14 15  1  0
 15 16  2  0
 16 17  1  0
M  CHG  1   8   1
M  END
