
     RDKit          3D

 17 16  0  0  0  0  0  0  0  0999 V2000
    5.7030   -0.2150    1.3710 C   0  0  0  0  0  0  0  0  0  0  0  0
    4.5220   -0.7850    0.5900 C   0  0  0  0  0  0  0  0  0  0  0  0
    4.2960    0.0200   -0.5720 N   0  0  0  0  0  0  0  0  0  0  0  0
    3.8280    1.3340   -0.3010 C   0  0  0  0  0  0  0  0  0  0  0  0
    2.4580    1.6030   -0.0730 C   0  0  0  0  0  0  0  0  0  0  0  0
    1.8630    2.5680    0.1570 O   0  0  0  0  0  0  0  0  0  0  0  0
    1.4160    0.1870   -0.1590 N   0  0  0  0  0  0  0  0  0  0  0  0
    0.2140    0.8450    0.0730 C   0  0  0  0  0  0  0  0  0  0  0  0
   -0.0660    2.0250    0.3510 O   0  0  0  0  0  0  0  0  0  0  0  0
   -0.9230   -0.0730   -0.0740 N   0  0  0  0  0  0  0  0  0  0  0  0
   -2.2160    0.4030    0.0870 C   0  0  0  0  0  0  0  0  0  0  0  0
   -3.2590   -0.6410   -0.0700 C   0  0  1  0  0  0  0  0  0  0  0  0
   -3.2490   -1.6610    0.8440 O   0  0  0  0  0  0  0  0  0  0  0  0
   -4.5910    0.0600   -0.0670 C   0  0  0  0  0  0  0  0  0  0  0  0
   -4.9750    0.6020    1.2080 N   0  0  0  0  0  0  0  0  0  0  0  0
   -3.1220   -1.2980   -1.4740 C   0  0  0  0  0  0  0  0  0  0  0  0
   -4.2470   -2.1280   -1.5790 O   0  0  0  0  0  0  0  0  0  0  0  0
  1  2  1  0
  2  3  1  0
  3  4  1  0
  4  5  1  0
  5  6  2  0
  5  7  1  0
  7  8  1  0
  8  9  2  0
  8 10  1  0
 10 11  1  0
 11 12  1  0
 12 13  1  1
 12 14  1  0
 12 16  1  0
 14 15  1  0
 16 17  1  0
M  CHG  2   3   1  15   1
M  END
