
     RDKit          3D

 17 16  0  0  0  0  0  0  0  0999 V2000
   -4.3990   -3.3850   -0.1720 N   0  0  0  0  0  0  0  0  0  0  0  0
   -3.3410   -2.4480    0.1990 C   0  0  0  0  0  0  0  0  0  0  0  0
   -2.3500   -2.7270    0.8950 O   0  0  0  0  0  0  0  0  0  0  0  0
   -3.5020   -1.1320   -0.3340 O   0  0  0  0  0  0  0  0  0  0  0  0
   -2.5930   -0.1090   -0.1100 C   0  0  0  0  0  0  0  0  0  0  0  0
   -1.1340   -0.4170   -0.4860 C   0  0  0  0  0  0  0  0  0  0  0  0
   -0.4320    0.8970   -0.2600 C   0  0  0  0  0  0  0  0  0  0  0  0
   -1.0120    2.0030    0.0420 C   0  0  0  0  0  0  0  0  0  0  0  0
   -1.5310    3.2450    0.3660 C   0  0  0  0  0  0  0  0  0  0  0  0
   -0.6890    4.4520    0.6410 N   0  0  0  0  0  0  0  0  0  0  0  0
   -2.7510    3.4660    0.4580 O   0  0  0  0  0  0  0  0  0  0  0  0
    0.9600    0.8730   -0.5450 N   0  0  0  0  0  0  0  0  0  0  0  0
    1.9070   -0.1780   -0.6250 C   0  0  0  0  0  0  0  0  0  0  0  0
    2.3530   -0.7440    0.6020 C   0  0  0  0  0  0  0  0  0  0  0  0
    1.6370   -0.5230    1.6340 O   0  0  0  0  0  0  0  0  0  0  0  0
    3.5640   -1.5640    0.9110 C   0  0  0  0  0  0  0  0  0  0  0  0
    4.3990   -1.8740   -0.2280 N   0  0  0  0  0  0  0  0  0  0  0  0
  1  2  1  0
  2  3  2  0
  2  4  1  0
  4  5  1  0
  5  6  1  0
  6  7  1  0
  7  8  2  3
  7 12  1  0
  8  9  1  0
  9 10  1  0
  9 11  2  0
 12 13  1  0
 13 14  1  0
 14 15  2  0
 14 16  1  0
 16 17  1  0
M  CHG  2  10   1  17   1
M  END
