
     RDKit          3D

 17 16  0  0  0  0  0  0  0  0999 V2000
   -3.9410    0.4920   -0.1030 C   0  0  0  0  0  0  0  0  0  0  0  0
   -2.6530    1.0240   -0.6000 C   0  0  0  0  0  0  0  0  0  0  0  0
   -1.4140    0.6940    0.1250 C   0  0  1  0  0  0  0  0  0  0  0  0
   -1.4470    1.0990    1.4280 O   0  0  0  0  0  0  0  0  0  0  0  0
   -0.5390    2.0580    1.6660 N   0  0  0  0  0  0  0  0  0  0  0  0
   -0.8790   -0.7030   -0.0920 C   0  0  1  0  0  0  0  0  0  0  0  0
   -1.0230   -1.1420   -1.5100 C   0  0  0  0  0  0  0  0  0  0  0  0
   -0.3290   -0.3940   -2.4380 O   0  0  0  0  0  0  0  0  0  0  0  0
    0.5120   -0.7570    0.3670 N   0  0  0  0  0  0  0  0  0  0  0  0
    1.4650   -0.2190   -0.5360 C   0  0  0  0  0  0  0  0  0  0  0  0
    2.7880   -0.1120    0.1600 C   0  0  0  0  0  0  0  0  0  0  0  0
    2.9120   -0.4700    1.3470 O   0  0  0  0  0  0  0  0  0  0  0  0
    3.9220    0.3990   -0.5180 N   0  0  0  0  0  0  0  0  0  0  0  0
    5.2220    0.5300    0.0870 C   0  0  0  0  0  0  0  0  0  0  0  0
   -1.5760   -1.6680    0.7640 C   0  0  0  0  0  0  0  0  0  0  0  0
   -0.9820   -2.1150    1.9610 N   0  0  0  0  0  0  0  0  0  0  0  0
   -2.6920   -2.1010    0.4520 O   0  0  0  0  0  0  0  0  0  0  0  0
  1  2  1  0
  3  2  1  1
  3  4  1  0
  3  6  1  0
  4  5  1  0
  6  7  1  6
  6  9  1  0
  6 15  1  0
  7  8  1  0
  9 10  1  0
 10 11  1  0
 11 12  2  0
 11 13  1  0
 13 14  1  0
 15 16  1  0
 15 17  2  0
M  CHG  2   5   1   9   1
M  END
