
     RDKit          3D

 20 22  0  0  0  0  0  0  0  0999 V2000
   -1.0470   -3.1140    0.6770 C   0  0  0  0  0  0  0  0  0  0  0  0
   -0.6430   -1.7160    0.4030 C   0  0  0  0  0  0  0  0  0  0  0  0
    0.6830   -1.3970    0.3480 C   0  0  0  0  0  0  0  0  0  0  0  0
    1.1620   -0.0900    0.0920 C   0  0  0  0  0  0  0  0  0  0  0  0
    2.5890    0.1270    0.0920 C   0  0  0  0  0  0  0  0  0  0  0  0
    3.1940    1.2100   -0.4380 C   0  0  0  0  0  0  0  0  0  0  0  0
    4.5820    1.3090   -0.4210 C   0  0  0  0  0  0  0  0  0  0  0  0
    5.3150    0.3020    0.1340 C   0  0  0  0  0  0  0  0  0  0  0  0
    7.0670    0.4520    0.1430 Cl  0  0  0  0  0  0  0  0  0  0  0  0
    4.6960   -0.7960    0.6710 C   0  0  0  0  0  0  0  0  0  0  0  0
    3.3670   -0.8530    0.6360 N   0  0  0  0  0  0  0  0  0  0  0  0
    0.2690    0.9200   -0.1110 C   0  0  0  0  0  0  0  0  0  0  0  0
    0.5860    2.2870   -0.3420 N   0  0  0  0  0  0  0  0  0  0  0  0
   -1.0930    0.5830   -0.0530 C   0  0  0  0  0  0  0  0  0  0  0  0
   -1.5410   -0.6920    0.1960 C   0  0  0  0  0  0  0  0  0  0  0  0
   -2.9820   -1.0460    0.2570 C   0  0  1  0  0  0  0  0  0  0  0  0
   -3.2650   -1.7020    1.4790 O   0  0  0  0  0  0  0  0  0  0  0  0
   -3.8900    0.1530    0.2060 C   0  0  0  0  0  0  0  0  0  0  0  0
   -3.2220    1.4170    0.7010 C   0  0  0  0  0  0  0  0  0  0  0  0
   -2.0700    1.6880   -0.2760 C   0  0  0  0  0  0  0  0  0  0  0  0
  1  2  1  0
  2  3  2  0
  2 15  1  0
  3  4  1  0
  4  5  1  0
  4 12  2  0
  5  6  2  0
  5 11  1  0
  6  7  1  0
  7  8  2  0
  8  9  1  0
  8 10  1  0
 10 11  2  0
 12 13  1  0
 12 14  1  0
 14 15  2  0
 14 20  1  0
 15 16  1  0
 16 17  1  1
 16 18  1  0
 18 19  1  0
 19 20  1  0
M  END
