
     RDKit          3D

 20 22  0  0  0  0  0  0  0  0999 V2000
    4.5200    2.3950    0.1460 C   0  0  0  0  0  0  0  0  0  0  0  0
    3.2910    1.5610    0.1620 C   0  0  0  0  0  0  0  0  0  0  0  0
    2.0770    2.2060    0.2690 C   0  0  0  0  0  0  0  0  0  0  0  0
    0.9140    1.4670    0.2850 C   0  0  0  0  0  0  0  0  0  0  0  0
    0.9990    0.1020    0.1900 C   0  0  0  0  0  0  0  0  0  0  0  0
    2.2190   -0.5330    0.0880 C   0  0  0  0  0  0  0  0  0  0  0  0
    3.3290    0.2190    0.0750 N   0  0  0  0  0  0  0  0  0  0  0  0
    2.0310   -1.8100    0.0300 O   0  0  0  0  0  0  0  0  0  0  0  0
    0.7610   -2.1120    0.0850 C   0  0  0  0  0  0  0  0  0  0  0  0
    0.0890   -3.3130    0.0760 C   0  0  0  0  0  0  0  0  0  0  0  0
    0.8780   -4.5640   -0.0290 C   0  0  0  0  0  0  0  0  0  0  0  0
   -1.2740   -3.3360    0.1630 C   0  0  0  0  0  0  0  0  0  0  0  0
   -2.0000   -2.1900    0.2540 C   0  0  0  0  0  0  0  0  0  0  0  0
   -3.7400   -2.1520    0.3700 Cl  0  0  0  0  0  0  0  0  0  0  0  0
   -1.3150   -0.9440    0.2580 C   0  0  0  0  0  0  0  0  0  0  0  0
   -2.1720    0.2130    0.3200 C   0  0  0  0  0  0  0  0  0  0  0  0
   -2.1620    1.3270   -0.3330 C   0  0  0  0  0  0  0  0  0  0  0  0
   -3.1940    2.3670   -0.0420 C   0  0  0  0  0  0  0  0  0  0  0  0
   -3.9420    2.6170   -1.2470 N   0  0  0  0  0  0  0  0  0  0  0  0
    0.0430   -0.9100    0.1810 C   0  0  0  0  0  0  0  0  0  0  0  0
  1  2  1  0
  2  3  2  0
  2  7  1  0
  3  4  1  0
  4  5  2  0
  5  6  1  0
  5 20  1  0
  6  7  2  0
  6  8  1  0
  8  9  1  0
  9 10  2  0
  9 20  1  0
 10 11  1  0
 10 12  1  0
 12 13  2  0
 13 14  1  0
 13 15  1  0
 15 16  1  0
 15 20  2  0
 16 17  2  3
 17 18  1  0
 18 19  1  0
M  END
