
     RDKit          3D

 20 21  0  0  0  0  0  0  0  0999 V2000
    3.0290   -1.4690   -0.8330 C   0  0  0  0  0  0  0  0  0  0  0  0
    3.1870   -0.7790    0.2800 C   0  0  0  0  0  0  0  0  0  0  0  0
    4.5110   -0.8560    0.9710 C   0  0  0  0  0  0  0  0  0  0  0  0
    5.5280   -1.1860    0.2420 N   0  0  0  0  0  0  0  0  0  0  0  0
    4.6380   -0.5680    2.4000 C   0  0  0  0  0  0  0  0  0  0  0  0
    3.6970    0.4940    2.7370 N   0  0  0  0  0  0  0  0  0  0  0  0
    2.4440    0.5890    2.0860 C   0  0  0  0  0  0  0  0  0  0  0  0
    2.1590   -0.0000    0.9200 C   0  0  0  0  0  0  0  0  0  0  0  0
    0.8110    0.1470    0.3850 C   0  0  0  0  0  0  0  0  0  0  0  0
   -0.2620    0.5290    1.1430 N   0  0  0  0  0  0  0  0  0  0  0  0
   -1.3680    0.6760    0.4090 C   0  0  0  0  0  0  0  0  0  0  0  0
   -2.7240    1.0870    0.9240 C   0  0  0  0  0  0  0  0  0  0  0  0
   -1.0300    0.3840   -0.8810 C   0  0  0  0  0  0  0  0  0  0  0  0
   -1.8480    0.3810   -2.0930 C   0  0  0  0  0  0  0  0  0  0  0  0
   -1.1610    0.0120   -3.3350 N   0  0  0  0  0  0  0  0  0  0  0  0
   -3.0300    0.6470   -2.2010 N   0  0  0  0  0  0  0  0  0  0  0  0
   -4.1730    1.0080   -1.6720 N   0  0  0  0  0  0  0  0  0  0  0  0
   -5.2390    0.0270   -1.4270 C   0  0  0  0  0  0  0  0  0  0  0  0
   -6.3600    0.5920   -0.8650 O   0  0  0  0  0  0  0  0  0  0  0  0
    0.3100    0.0680   -0.8420 N   0  0  0  0  0  0  0  0  0  0  0  0
  1  2  2  0
  2  3  1  0
  2  8  1  0
  3  4  2  0
  3  5  1  0
  5  6  1  0
  6  7  1  0
  7  8  2  0
  8  9  1  0
  9 10  1  0
  9 20  2  0
 10 11  1  0
 11 12  1  0
 11 13  2  0
 13 14  1  0
 13 20  1  0
 14 15  1  0
 14 16  2  3
 16 17  1  0
 17 18  1  0
 18 19  1  0
M  CHG  1  20   1
M  END
