
     RDKit          3D

 20 22  0  0  0  0  0  0  0  0999 V2000
    1.2290    1.7690   -2.3990 C   0  0  0  0  0  0  0  0  0  0  0  0
    0.9030    0.9020   -1.2260 C   0  0  0  0  0  0  0  0  0  0  0  0
   -0.3870    0.6790   -0.9210 N   0  0  0  0  0  0  0  0  0  0  0  0
   -0.7640   -0.1000    0.1330 C   0  0  0  0  0  0  0  0  0  0  0  0
   -2.1790   -0.3150    0.4270 C   0  0  0  0  0  0  0  0  0  0  0  0
   -2.6580   -1.0780    1.4590 C   0  0  0  0  0  0  0  0  0  0  0  0
   -3.9960   -1.2700    1.7220 C   0  0  0  0  0  0  0  0  0  0  0  0
   -4.9310   -0.6710    0.9130 C   0  0  0  0  0  0  0  0  0  0  0  0
   -6.6280   -0.9260    1.2630 Cl  0  0  0  0  0  0  0  0  0  0  0  0
   -4.5030    0.1150   -0.1500 C   0  0  0  0  0  0  0  0  0  0  0  0
   -5.5050    0.7060   -0.9480 N   0  0  0  0  0  0  0  0  0  0  0  0
   -3.1550    0.2830   -0.3800 C   0  0  0  0  0  0  0  0  0  0  0  0
    0.2420   -0.6540    0.8800 C   0  0  0  0  0  0  0  0  0  0  0  0
    1.5880   -0.4300    0.5740 C   0  0  0  0  0  0  0  0  0  0  0  0
    1.9200    0.3620   -0.4980 C   0  0  0  0  0  0  0  0  0  0  0  0
    3.3200    0.6540   -0.8960 C   0  0  0  0  0  0  0  0  0  0  0  0
    4.3350   -0.0710   -0.0790 C   0  0  0  0  0  0  0  0  0  0  0  0
    3.7790   -1.4090    0.4140 C   0  0  0  0  0  0  0  0  0  0  0  0
    2.6580   -1.0380    1.3930 C   0  0  2  0  0  0  0  0  0  0  0  0
    2.2520   -2.1090    2.1440 O   0  0  0  0  0  0  0  0  0  0  0  0
  1  2  1  0
  2  3  2  0
  2 15  1  0
  3  4  1  0
  4  5  1  0
  4 13  2  0
  5  6  2  0
  5 12  1  0
  6  7  1  0
  7  8  2  0
  8  9  1  0
  8 10  1  0
 10 11  1  0
 10 12  2  0
 13 14  1  0
 14 15  2  0
 14 19  1  0
 15 16  1  0
 16 17  1  0
 17 18  1  0
 18 19  1  0
 19 20  1  6
M  END
