
     RDKit          3D

 20 21  0  0  0  0  0  0  0  0999 V2000
   -3.7620   -3.2380    1.1130 C   0  0  0  0  0  0  0  0  0  0  0  0
   -2.5910   -2.6510    0.8910 N   0  0  0  0  0  0  0  0  0  0  0  0
   -1.6810   -1.9000    0.6370 C   0  0  0  0  0  0  0  0  0  0  0  0
   -1.8810   -0.5020    0.2550 C   0  0  0  0  0  0  0  0  0  0  0  0
   -3.1180    0.0200    0.1700 C   0  0  0  0  0  0  0  0  0  0  0  0
   -4.3170   -0.6420    0.4140 O   0  0  0  0  0  0  0  0  0  0  0  0
   -3.0410    1.3740   -0.2120 N   0  0  0  0  0  0  0  0  0  0  0  0
   -1.6840    1.7070   -0.3720 C   0  0  0  0  0  0  0  0  0  0  0  0
   -1.1540    2.8230   -0.7100 N   0  0  0  0  0  0  0  0  0  0  0  0
   -1.8940    4.0080   -1.0050 C   0  0  0  0  0  0  0  0  0  0  0  0
   -0.8680    0.4830   -0.0690 C   0  0  0  0  0  0  0  0  0  0  0  0
    0.4260    0.4230   -0.1160 C   0  0  0  0  0  0  0  0  0  0  0  0
    1.3750   -0.6020    0.1250 C   0  0  0  0  0  0  0  0  0  0  0  0
    2.6910   -0.3670   -0.0050 C   0  0  0  0  0  0  0  0  0  0  0  0
    3.2730    0.8640   -0.3780 N   0  0  0  0  0  0  0  0  0  0  0  0
    4.7050    0.6600   -0.3900 C   0  0  0  0  0  0  0  0  0  0  0  0
    5.5710    1.5610   -0.6840 N   0  0  0  0  0  0  0  0  0  0  0  0
    4.9150   -0.6930   -0.0220 N   0  0  0  0  0  0  0  0  0  0  0  0
    3.8010   -1.2870    0.1980 C   0  0  0  0  0  0  0  0  0  0  0  0
    3.6300   -2.6580    0.5900 N   0  0  0  0  0  0  0  0  0  0  0  0
  1  2  1  0
  2  3  2  3
  3  4  1  0
  4  5  2  0
  4 11  1  0
  5  6  1  0
  5  7  1  0
  7  8  1  0
  8  9  2  3
  8 11  1  0
  9 10  1  0
 11 12  2  3
 12 13  1  0
 13 14  2  3
 14 15  1  0
 14 19  1  0
 15 16  1  0
 16 17  2  0
 16 18  1  0
 18 19  2  0
 19 20  1  0
M  CHG  1  17   1
M  END
