
     RDKit          3D

 16 17  0  0  0  0  0  0  0  0999 V2000
   -2.1040   -1.2920    1.4840 C   0  0  0  0  0  0  0  0  0  0  0  0
   -2.5510   -0.2570    0.5480 C   0  0  0  0  0  0  0  0  0  0  0  0
   -3.9220    0.0180    0.5230 C   0  0  0  0  0  0  0  0  0  0  0  0
   -4.4390    0.9680   -0.3230 C   0  0  0  0  0  0  0  0  0  0  0  0
   -3.5640    1.6440   -1.1490 C   0  0  0  0  0  0  0  0  0  0  0  0
   -2.2050    1.3590   -1.1130 C   0  0  0  0  0  0  0  0  0  0  0  0
   -1.6870    0.4050   -0.2630 C   0  0  0  0  0  0  0  0  0  0  0  0
   -0.2680    0.0940   -0.2160 C   0  0  0  0  0  0  0  0  0  0  0  0
    0.6440    1.0140    0.2650 C   0  0  0  0  0  0  0  0  0  0  0  0
    2.0020    0.7670    0.3180 C   0  0  0  0  0  0  0  0  0  0  0  0
    2.4660   -0.4640   -0.1340 C   0  0  0  0  0  0  0  0  0  0  0  0
    3.9150   -0.7730   -0.1070 C   0  0  0  0  0  0  0  0  0  0  0  0
    4.6750    0.4500    0.0650 N   0  0  0  0  0  0  0  0  0  0  0  0
    1.5480   -1.3650   -0.6060 C   0  0  0  0  0  0  0  0  0  0  0  0
    0.1970   -1.1350   -0.6650 C   0  0  0  0  0  0  0  0  0  0  0  0
   -0.9280   -2.3520   -1.2900 Cl  0  0  0  0  0  0  0  0  0  0  0  0
  1  2  1  0
  2  3  2  0
  2  7  1  0
  3  4  1  0
  4  5  2  0
  5  6  1  0
  6  7  2  0
  7  8  1  0
  8  9  2  0
  8 15  1  0
  9 10  1  0
 10 11  2  0
 11 12  1  0
 11 14  1  0
 12 13  1  0
 14 15  2  0
 15 16  1  0
M  CHG  1  13   1
M  END
