
     RDKit          3D

 20 22  0  0  0  0  0  0  0  0999 V2000
   -0.4880    2.7880   -2.2070 N   0  0  0  0  0  0  0  0  0  0  0  0
    0.3650    2.0860   -1.3770 C   0  0  0  0  0  0  0  0  0  0  0  0
    1.5460    2.7050   -1.5050 O   0  0  0  0  0  0  0  0  0  0  0  0
    0.3450    0.9750   -0.4920 C   0  0  0  0  0  0  0  0  0  0  0  0
    1.5110    0.5520    0.2190 C   0  0  0  0  0  0  0  0  0  0  0  0
    2.7860    1.1360    0.1610 N   0  0  0  0  0  0  0  0  0  0  0  0
    3.8260    0.5130    0.9890 C   0  0  0  0  0  0  0  0  0  0  0  0
    4.0430   -0.8670    0.6210 N   0  0  0  0  0  0  0  0  0  0  0  0
    1.1640   -0.5070    0.9570 N   0  0  0  0  0  0  0  0  0  0  0  0
   -0.1230   -0.7940    0.7760 C   0  0  0  0  0  0  0  0  0  0  0  0
   -0.8390   -1.8230    1.3710 C   0  0  0  0  0  0  0  0  0  0  0  0
   -0.2090   -2.7020    2.2760 N   0  0  0  0  0  0  0  0  0  0  0  0
   -2.1510   -1.9240    1.0330 C   0  0  0  0  0  0  0  0  0  0  0  0
   -2.6950   -1.0210    0.1360 C   0  0  0  0  0  0  0  0  0  0  0  0
   -4.0280   -1.1130   -0.2170 C   0  0  0  0  0  0  0  0  0  0  0  0
   -4.5590   -0.2420   -1.0850 N   0  0  0  0  0  0  0  0  0  0  0  0
   -3.8490    0.7360   -1.6420 C   0  0  0  0  0  0  0  0  0  0  0  0
   -2.4960    0.8680   -1.3140 C   0  0  0  0  0  0  0  0  0  0  0  0
   -1.9350   -0.0090   -0.4310 C   0  0  0  0  0  0  0  0  0  0  0  0
   -0.6140    0.1080   -0.1030 N   0  0  0  0  0  0  0  0  0  0  0  0
  1  2  1  0
  2  3  2  0
  2  4  1  0
  4  5  2  0
  4 20  1  0
  5  6  1  0
  5  9  1  0
  6  7  1  0
  7  8  1  0
  9 10  2  0
 10 11  1  0
 10 20  1  0
 11 12  1  0
 11 13  2  0
 13 14  1  0
 14 15  2  0
 14 19  1  0
 15 16  1  0
 16 17  2  0
 17 18  1  0
 18 19  2  0
 19 20  1  0
M  CHG  1   8   1
M  END
