
     RDKit          3D

 20 22  0  0  0  0  0  0  0  0999 V2000
   -3.6030    3.0000    0.0380 C   0  0  0  0  0  0  0  0  0  0  0  0
   -2.9550    1.6680    0.0290 C   0  0  0  0  0  0  0  0  0  0  0  0
   -3.5630    0.4480    0.0180 C   0  0  0  0  0  0  0  0  0  0  0  0
   -2.6270   -0.5410    0.0120 C   0  0  0  0  0  0  0  0  0  0  0  0
   -2.9260   -1.9930   -0.0000 C   0  0  0  0  0  0  0  0  0  0  0  0
   -4.2940   -2.2140   -0.0050 O   0  0  0  0  0  0  0  0  0  0  0  0
   -1.3620    0.0880    0.0190 C   0  0  0  0  0  0  0  0  0  0  0  0
   -0.1620   -0.7340    0.0150 C   0  0  0  0  0  0  0  0  0  0  0  0
   -0.3330   -2.1100    0.0040 N   0  0  0  0  0  0  0  0  0  0  0  0
    0.6270   -2.9980   -0.0010 C   0  0  0  0  0  0  0  0  0  0  0  0
    1.9250   -2.5590    0.0050 C   0  0  0  0  0  0  0  0  0  0  0  0
    2.1630   -1.2010    0.0160 C   0  0  0  0  0  0  0  0  0  0  0  0
    3.4590   -0.7020    0.0230 C   0  0  0  0  0  0  0  0  0  0  0  0
    3.7790    0.6240    0.0340 C   0  0  0  0  0  0  0  0  0  0  0  0
    5.1990    1.0860    0.0410 C   0  0  0  0  0  0  0  0  0  0  0  0
    2.7190    1.5030    0.0390 C   0  0  0  0  0  0  0  0  0  0  0  0
    3.0450    3.2080    0.0530 Cl  0  0  0  0  0  0  0  0  0  0  0  0
    1.3950    1.0670    0.0330 C   0  0  0  0  0  0  0  0  0  0  0  0
    1.1180   -0.2710    0.0220 C   0  0  0  0  0  0  0  0  0  0  0  0
   -1.6040    1.3850    0.0290 N   0  0  0  0  0  0  0  0  0  0  0  0
  1  2  1  0
  2  3  2  0
  2 20  1  0
  3  4  1  0
  4  5  1  0
  4  7  2  0
  5  6  1  0
  7  8  1  0
  7 20  1  0
  8  9  2  0
  8 19  1  0
  9 10  1  0
 10 11  2  0
 11 12  1  0
 12 13  2  0
 12 19  1  0
 13 14  1  0
 14 15  1  0
 14 16  2  0
 16 17  1  0
 16 18  1  0
 18 19  2  0
M  END
