
     RDKit          3D

 11 11  0  0  0  0  0  0  0  0999 V2000
    3.5580    0.7990    0.9300 C   0  0  0  0  0  0  0  0  0  0  0  0
    2.1280    0.3690    0.7080 C   0  0  0  0  0  0  0  0  0  0  0  0
    1.6170   -0.8940    0.5030 C   0  0  0  0  0  0  0  0  0  0  0  0
    0.3040   -1.0080    0.3310 C   0  0  0  0  0  0  0  0  0  0  0  0
   -0.4760    0.0990    0.3610 C   0  0  0  0  0  0  0  0  0  0  0  0
   -1.9540    0.2360    0.1970 C   0  0  2  0  0  0  0  0  0  0  0  0
   -2.4250   -1.0890   -0.4050 C   0  0  0  0  0  0  0  0  0  0  0  0
   -2.2860    1.3160   -0.6670 N   0  0  0  0  0  0  0  0  0  0  0  0
   -2.9810    2.2560   -0.2390 O   0  0  0  0  0  0  0  0  0  0  0  0
   -1.8840    1.4070   -1.9840 O   0  0  0  0  0  0  0  0  0  0  0  0
    0.6900    1.3730    0.6460 S   0  0  0  0  0  0  0  0  0  0  0  0
  1  2  1  0
  2  3  2  0
  2 11  1  0
  3  4  1  0
  4  5  2  0
  5  6  1  0
  5 11  1  0
  6  7  1  6
  6  8  1  0
  8  9  2  0
  8 10  1  0
M  CHG  2   8   1  10  -1
M  END
