
     RDKit          3D

 17 18  0  0  0  0  0  0  0  0999 V2000
   -2.4680   -0.5260   -2.0730 C   0  0  0  0  0  0  0  0  0  0  0  0
   -2.3030    0.7570   -1.2310 C   0  0  0  0  0  0  0  0  0  0  0  0
   -2.3720    0.3930    0.2090 C   0  0  0  0  0  0  0  0  0  0  0  0
   -3.6100    0.5090    0.8510 C   0  0  0  0  0  0  0  0  0  0  0  0
   -3.8060    0.1550    2.1650 C   0  0  0  0  0  0  0  0  0  0  0  0
   -2.7560   -0.3390    2.9060 C   0  0  0  0  0  0  0  0  0  0  0  0
   -1.5500   -0.4500    2.2780 C   0  0  0  0  0  0  0  0  0  0  0  0
   -1.3280   -0.0930    0.9430 C   0  0  0  0  0  0  0  0  0  0  0  0
   -0.0060   -0.1740    0.3630 C   0  0  0  0  0  0  0  0  0  0  0  0
    0.6130   -1.3600   -0.0210 C   0  0  0  0  0  0  0  0  0  0  0  0
    1.9010   -1.3620   -0.5320 C   0  0  0  0  0  0  0  0  0  0  0  0
    2.5770   -0.1810   -0.6630 C   0  0  0  0  0  0  0  0  0  0  0  0
    3.9760   -0.1730   -1.1640 C   0  0  0  0  0  0  0  0  0  0  0  0
    4.8630    0.3900   -0.1400 N   0  0  0  0  0  0  0  0  0  0  0  0
    1.9580    1.0140   -0.2830 C   0  0  0  0  0  0  0  0  0  0  0  0
    0.6780    1.0200    0.2270 C   0  0  0  0  0  0  0  0  0  0  0  0
   -0.0290    2.5770    0.7060 Cl  0  0  0  0  0  0  0  0  0  0  0  0
  1  2  1  0
  2  3  1  0
  3  4  2  0
  3  8  1  0
  4  5  1  0
  5  6  2  0
  6  7  1  0
  7  8  2  0
  8  9  1  0
  9 10  2  0
  9 16  1  0
 10 11  1  0
 11 12  2  0
 12 13  1  0
 12 15  1  0
 13 14  1  0
 15 16  2  0
 16 17  1  0
M  CHG  1  14   1
M  END
