
     RDKit          3D

 26 29  0  0  0  0  0  0  0  0999 V2000
    6.4670    0.4410    2.0810 C   0  0  0  0  0  0  0  0  0  0  0  0
    5.5710   -0.4890    1.4280 N   0  0  2  0  0  0  0  0  0  0  0  0
    6.2070   -1.0600    0.2800 C   0  0  0  0  0  0  0  0  0  0  0  0
    4.2860    0.1200    1.1530 C   0  0  2  0  0  0  0  0  0  0  0  0
    3.2150   -0.8940    0.9290 C   0  0  0  0  0  0  0  0  0  0  0  0
    2.1070   -0.4620    0.0260 C   0  0  0  0  0  0  0  0  0  0  0  0
    2.4730    0.3920   -1.0580 N   0  0  0  0  0  0  0  0  0  0  0  0
    1.5280    1.0290   -1.9060 C   0  0  0  0  0  0  0  0  0  0  0  0
    1.9360    1.7640   -2.8300 O   0  0  0  0  0  0  0  0  0  0  0  0
    0.1110    0.8380   -1.7130 C   0  0  0  0  0  0  0  0  0  0  0  0
   -0.8910    1.4170   -2.4870 C   0  0  0  0  0  0  0  0  0  0  0  0
   -2.0710    1.0000   -1.9980 N   0  0  0  0  0  0  0  0  0  0  0  0
   -3.3030    1.3100   -2.4370 C   0  0  0  0  0  0  0  0  0  0  0  0
   -4.3890    0.7510   -1.7630 C   0  0  0  0  0  0  0  0  0  0  0  0
   -4.1920   -0.0760   -0.7020 C   0  0  0  0  0  0  0  0  0  0  0  0
   -5.2610   -0.6570   -0.0020 N   0  0  0  0  0  0  0  0  0  0  0  0
   -5.0090   -1.5270    1.1610 C   0  0  0  0  0  0  0  0  0  0  0  0
   -6.2360   -1.3380    2.0490 C   0  0  0  0  0  0  0  0  0  0  0  0
   -6.6880   -0.0220    2.0260 O   0  0  0  0  0  0  0  0  0  0  0  0
   -7.2550    0.3420    0.8120 C   0  0  0  0  0  0  0  0  0  0  0  0
   -6.6660   -0.4910   -0.3080 C   0  0  0  0  0  0  0  0  0  0  0  0
   -2.9390   -0.3490   -0.3100 N   0  0  0  0  0  0  0  0  0  0  0  0
   -1.8710    0.1810   -0.9470 C   0  0  0  0  0  0  0  0  0  0  0  0
   -0.5480    0.1040   -0.8020 N   0  0  0  0  0  0  0  0  0  0  0  0
    3.9150    0.5910   -1.2790 C   0  0  0  0  0  0  0  0  0  0  0  0
    4.4500    1.1050    0.0330 C   0  0  0  0  0  0  0  0  0  0  0  0
  2  1  1  6
  2  3  1  0
  2  4  1  0
  4  5  1  6
  4 26  1  0
  5  6  1  0
  6  7  1  0
  7  8  1  0
  7 25  1  0
  8  9  2  0
  8 10  1  0
 10 11  2  0
 10 24  1  0
 11 12  1  0
 12 13  1  0
 12 23  1  0
 13 14  2  0
 14 15  1  0
 15 16  1  0
 15 22  2  0
 16 17  1  0
 16 21  1  0
 17 18  1  0
 18 19  1  0
 19 20  1  0
 20 21  1  0
 22 23  1  0
 23 24  2  0
 25 26  1  0
M  CHG  1   2   1
M  END
