
     RDKit          3D

 26 28  0  0  0  0  0  0  0  0999 V2000
    7.0880    1.9810   -0.9220 C   0  0  0  0  0  0  0  0  0  0  0  0
    7.0570    0.7100   -1.2590 N   0  0  0  0  0  0  0  0  0  0  0  0
    6.2140   -0.1450   -0.5160 N   0  0  0  0  0  0  0  0  0  0  0  0
    6.7500   -1.1670    0.1340 C   0  0  0  0  0  0  0  0  0  0  0  0
    8.1920   -1.5280    0.0980 C   0  0  0  0  0  0  0  0  0  0  0  0
    5.9220   -1.9450    0.8900 N   0  0  0  0  0  0  0  0  0  0  0  0
    4.6090   -1.6960    0.9830 C   0  0  0  0  0  0  0  0  0  0  0  0
    4.0680   -0.6300    0.3000 C   0  0  0  0  0  0  0  0  0  0  0  0
    2.6250   -0.3150    0.3600 C   0  0  0  0  0  0  0  0  0  0  0  0
    2.1520   -0.2020    1.4960 O   0  0  0  0  0  0  0  0  0  0  0  0
    1.8280   -0.1520   -0.7720 N   0  0  0  0  0  0  0  0  0  0  0  0
    0.5010    0.2060   -0.9320 C   0  0  0  0  0  0  0  0  0  0  0  0
   -0.4500    0.5660   -0.1430 C   0  0  0  0  0  0  0  0  0  0  0  0
   -1.7920    0.8370   -0.8330 C   0  0  0  0  0  0  0  0  0  0  0  0
   -2.8740    0.9530    0.1690 C   0  0  1  0  0  0  0  0  0  0  0  0
   -4.1920    0.5910   -0.2550 N   0  0  0  0  0  0  0  0  0  0  0  0
   -4.3570   -0.7800   -0.5780 C   0  0  0  0  0  0  0  0  0  0  0  0
   -5.7470   -1.0670   -1.0820 C   0  0  0  0  0  0  0  0  0  0  0  0
   -6.8150   -0.2620   -0.4140 C   0  0  0  0  0  0  0  0  0  0  0  0
   -6.2830    0.1680    0.9530 C   0  0  0  0  0  0  0  0  0  0  0  0
   -5.1530    1.1230    0.6540 C   0  0  0  0  0  0  0  0  0  0  0  0
   -2.5340   -0.0070    1.3460 C   0  0  0  0  0  0  0  0  0  0  0  0
   -1.3540    0.6020    2.0470 C   0  0  0  0  0  0  0  0  0  0  0  0
   -0.3690    0.8590    1.2440 N   0  0  0  0  0  0  0  0  0  0  0  0
    4.9050    0.1460   -0.4590 C   0  0  0  0  0  0  0  0  0  0  0  0
    4.4250    1.1280   -1.0940 O   0  0  0  0  0  0  0  0  0  0  0  0
  1  2  2  0
  2  3  1  0
  3  4  1  0
  3 25  1  0
  4  5  1  0
  4  6  2  0
  6  7  1  0
  7  8  2  0
  8  9  1  0
  8 25  1  0
  9 10  2  0
  9 11  1  0
 11 12  1  0
 12 13  2  3
 13 14  1  0
 13 24  1  0
 14 15  1  0
 15 16  1  6
 15 22  1  0
 16 17  1  0
 16 21  1  0
 17 18  1  0
 18 19  1  0
 19 20  1  0
 20 21  1  0
 22 23  1  0
 23 24  2  0
 25 26  2  0
M  CHG  1  24   1
M  END
