
     RDKit          3D

 26 29  0  0  0  0  0  0  0  0999 V2000
   -6.7580    2.2500   -0.9420 C   0  0  0  0  0  0  0  0  0  0  0  0
   -5.9340    1.3970   -0.0200 C   0  0  0  0  0  0  0  0  0  0  0  0
   -6.3350    1.1580    1.2690 C   0  0  0  0  0  0  0  0  0  0  0  0
   -5.5660    0.3900    2.0560 N   0  0  0  0  0  0  0  0  0  0  0  0
   -4.4170   -0.1430    1.6010 C   0  0  0  0  0  0  0  0  0  0  0  0
   -3.6310   -0.9160    2.3750 N   0  0  0  0  0  0  0  0  0  0  0  0
   -2.4760   -1.4630    1.9480 C   0  0  0  0  0  0  0  0  0  0  0  0
   -1.7950   -2.1710    2.7200 O   0  0  0  0  0  0  0  0  0  0  0  0
   -2.0610   -1.2290    0.6500 C   0  0  0  0  0  0  0  0  0  0  0  0
   -0.8100   -1.7930    0.1130 C   0  0  0  0  0  0  0  0  0  0  0  0
    0.4230   -1.0800    0.5970 C   0  0  0  0  0  0  0  0  0  0  0  0
    1.6130   -1.7230    0.0020 C   0  0  0  0  0  0  0  0  0  0  0  0
    1.4470   -2.7060   -0.7610 O   0  0  0  0  0  0  0  0  0  0  0  0
    2.9260   -1.2610    0.2670 N   0  0  0  0  0  0  0  0  0  0  0  0
    4.1040   -1.8750   -0.3030 C   0  0  0  0  0  0  0  0  0  0  0  0
    5.3670   -1.1340    0.1040 C   0  0  0  0  0  0  0  0  0  0  0  0
    5.1110    0.3490   -0.0690 C   0  0  0  0  0  0  0  0  0  0  0  0
    3.9960    0.8310    0.4460 C   0  0  0  0  0  0  0  0  0  0  0  0
    3.9110    2.2630    0.1900 C   0  0  0  0  0  0  0  0  0  0  0  0
    5.0160    2.5410   -0.4820 C   0  0  0  0  0  0  0  0  0  0  0  0
    5.8080    1.3920   -0.6770 N   0  0  0  0  0  0  0  0  0  0  0  0
    3.1000   -0.1270    1.1460 C   0  0  0  0  0  0  0  0  0  0  0  0
   -2.8830   -0.4360   -0.1180 C   0  0  0  0  0  0  0  0  0  0  0  0
   -2.4630   -0.1660   -1.5170 C   0  0  0  0  0  0  0  0  0  0  0  0
   -4.0410    0.1020    0.3380 N   0  0  0  0  0  0  0  0  0  0  0  0
   -4.7850    0.8550   -0.4490 N   0  0  0  0  0  0  0  0  0  0  0  0
  1  2  1  0
  2  3  1  0
  2 26  2  0
  3  4  2  0
  4  5  1  0
  5  6  2  0
  5 25  1  0
  6  7  1  0
  7  8  2  0
  7  9  1  0
  9 10  1  0
  9 23  2  0
 10 11  1  0
 11 12  1  0
 12 13  2  0
 12 14  1  0
 14 15  1  0
 14 22  1  0
 15 16  1  0
 16 17  1  0
 17 18  2  0
 17 21  1  0
 18 19  1  0
 18 22  1  0
 19 20  2  0
 20 21  1  0
 23 24  1  0
 23 25  1  0
 25 26  1  0
M  CHG  1  21   1
M  END
