
     RDKit          3D

 26 29  0  0  0  0  0  0  0  0999 V2000
   -6.1520    0.4780    0.9110 C   0  0  0  0  0  0  0  0  0  0  0  0
   -4.8490    0.5200    0.2600 N   0  0  1  0  0  0  0  0  0  0  0  0
   -4.6760    1.8230   -0.3380 C   0  0  0  0  0  0  0  0  0  0  0  0
   -3.4090    1.8200   -1.1790 C   0  0  0  0  0  0  0  0  0  0  0  0
   -2.2760    1.3600   -0.3190 C   0  0  2  0  0  0  0  0  0  0  0  0
   -1.7600    0.0560   -0.7040 N   0  0  0  0  0  0  0  0  0  0  0  0
   -0.3960   -0.1470   -1.0550 C   0  0  0  0  0  0  0  0  0  0  0  0
    0.3430    0.8820   -1.0120 O   0  0  0  0  0  0  0  0  0  0  0  0
    0.1380   -1.4450   -1.4420 C   0  0  0  0  0  0  0  0  0  0  0  0
   -0.6290   -2.3160   -2.1960 C   0  0  0  0  0  0  0  0  0  0  0  0
   -0.0460   -3.5240   -2.5180 C   0  0  0  0  0  0  0  0  0  0  0  0
    1.2190   -3.8440   -2.1150 N   0  0  0  0  0  0  0  0  0  0  0  0
    1.9610   -2.9890   -1.3800 C   0  0  0  0  0  0  0  0  0  0  0  0
    3.2340   -3.2460   -0.9440 C   0  0  0  0  0  0  0  0  0  0  0  0
    3.8940   -2.3220   -0.2120 N   0  0  0  0  0  0  0  0  0  0  0  0
    3.3620   -1.1340    0.1240 C   0  0  0  0  0  0  0  0  0  0  0  0
    4.1040   -0.2120    0.8910 N   0  0  0  0  0  0  0  0  0  0  0  0
    3.5220    1.0550    1.2420 C   0  0  0  0  0  0  0  0  0  0  0  0
    4.5440    2.1580    1.3750 C   0  0  0  0  0  0  0  0  0  0  0  0
    5.7380    1.7230    1.8930 O   0  0  0  0  0  0  0  0  0  0  0  0
    6.2800    0.7310    1.1150 C   0  0  0  0  0  0  0  0  0  0  0  0
    5.4370   -0.5240    1.3260 C   0  0  0  0  0  0  0  0  0  0  0  0
    2.0970   -0.8750   -0.3090 N   0  0  0  0  0  0  0  0  0  0  0  0
    1.4100   -1.7700   -1.0380 C   0  0  0  0  0  0  0  0  0  0  0  0
   -2.7180    1.2140    1.1430 C   0  0  0  0  0  0  0  0  0  0  0  0
   -3.8430    0.2270    1.2550 C   0  0  0  0  0  0  0  0  0  0  0  0
  2  1  1  1
  2  3  1  0
  2 26  1  0
  3  4  1  0
  4  5  1  0
  5  6  1  6
  5 25  1  0
  6  7  1  0
  7  8  2  0
  7  9  1  0
  9 10  2  0
  9 24  1  0
 10 11  1  0
 11 12  2  0
 12 13  1  0
 13 14  2  0
 13 24  1  0
 14 15  1  0
 15 16  2  0
 16 17  1  0
 16 23  1  0
 17 18  1  0
 17 22  1  0
 18 19  1  0
 19 20  1  0
 20 21  1  0
 21 22  1  0
 23 24  2  0
 25 26  1  0
M  CHG  1   2   1
M  END
