
     RDKit          3D

 26 28  0  0  0  0  0  0  0  0999 V2000
   -5.3640    1.4800    0.7730 C   0  0  0  0  0  0  0  0  0  0  0  0
   -4.7910    0.4390    0.2450 C   0  0  0  0  0  0  0  0  0  0  0  0
   -5.5710   -0.8060   -0.0220 C   0  0  0  0  0  0  0  0  0  0  0  0
   -4.7500   -1.8920   -0.6320 C   0  0  0  0  0  0  0  0  0  0  0  0
   -3.3560   -2.0420   -0.1380 C   0  0  0  0  0  0  0  0  0  0  0  0
   -2.6830   -0.7730    0.1420 N   0  0  0  0  0  0  0  0  0  0  0  0
   -1.3730   -0.7980    0.6620 C   0  0  0  0  0  0  0  0  0  0  0  0
   -0.8730   -1.9620    0.8010 O   0  0  0  0  0  0  0  0  0  0  0  0
   -0.5690    0.3560    1.0400 C   0  0  0  0  0  0  0  0  0  0  0  0
    0.4400    0.1520    2.1340 C   0  0  0  0  0  0  0  0  0  0  0  0
    1.4440   -0.8400    1.8970 N   0  0  0  0  0  0  0  0  0  0  0  0
    1.3500   -2.0840    2.3900 C   0  0  0  0  0  0  0  0  0  0  0  0
    2.3790   -2.9730    2.1510 C   0  0  0  0  0  0  0  0  0  0  0  0
    3.4700   -2.5630    1.4190 C   0  0  0  0  0  0  0  0  0  0  0  0
    4.3900   -3.3880    1.2170 O   0  0  0  0  0  0  0  0  0  0  0  0
    3.5340   -1.3110    0.9410 N   0  0  0  0  0  0  0  0  0  0  0  0
    4.4500   -0.6510    0.2140 N   0  0  0  0  0  0  0  0  0  0  0  0
    4.0390    0.6150   -0.0140 C   0  0  0  0  0  0  0  0  0  0  0  0
    4.6900    1.5110   -0.6820 N   0  0  0  0  0  0  0  0  0  0  0  0
    5.9760    1.2580   -1.2830 C   0  0  0  0  0  0  0  0  0  0  0  0
    6.1950    2.0820   -2.5320 C   0  0  0  0  0  0  0  0  0  0  0  0
    2.8470    0.7210    0.5890 N   0  0  0  0  0  0  0  0  0  0  0  0
    2.5350   -0.4550    1.1740 C   0  0  0  0  0  0  0  0  0  0  0  0
   -3.3710    0.4440   -0.1250 C   0  0  0  0  0  0  0  0  0  0  0  0
   -2.7970    1.4690   -0.6960 C   0  0  0  0  0  0  0  0  0  0  0  0
   -3.4980    2.7210   -1.0310 C   0  0  0  0  0  0  0  0  0  0  0  0
  1  2  2  0
  2  3  1  0
  2 24  1  0
  3  4  1  0
  4  5  1  0
  5  6  1  0
  6  7  1  0
  6 24  1  0
  7  8  2  0
  7  9  1  0
  9 10  1  0
 10 11  1  0
 11 12  1  0
 11 23  1  0
 12 13  2  0
 13 14  1  0
 14 15  2  0
 14 16  1  0
 16 17  1  0
 16 23  1  0
 17 18  1  0
 18 19  2  3
 18 22  1  0
 19 20  1  0
 20 21  1  0
 22 23  2  0
 24 25  2  3
 25 26  1  0
M  CHG  1  19   1
M  END
