
     RDKit          3D

 11 11  0  0  0  0  0  0  0  0999 V2000
   -3.6180    1.0320   -0.4510 C   0  0  0  0  0  0  0  0  0  0  0  0
   -3.3590   -0.7120   -0.9570 S   0  0  0  0  0  0  0  0  0  0  0  0
   -2.2400   -1.5230    0.2090 C   0  0  0  0  0  0  0  0  0  0  0  0
   -0.8370   -0.9200    0.1230 C   0  0  0  0  0  0  0  0  0  0  0  0
   -0.4820    0.1230    0.8830 C   0  0  0  0  0  0  0  0  0  0  0  0
    1.2750    0.5510    0.4940 S   0  0  0  0  0  0  0  0  0  0  0  0
    1.7340   -0.6140   -0.7270 C   0  0  0  0  0  0  0  0  0  0  0  0
    2.9750   -0.5790   -1.2330 N   0  0  0  0  0  0  0  0  0  0  0  0
    3.9350    0.4070   -0.7820 C   0  0  0  0  0  0  0  0  0  0  0  0
    3.9460    0.3700    0.6280 O   0  0  0  0  0  0  0  0  0  0  0  0
    0.4220   -1.4690   -0.9060 S   0  0  0  0  0  0  0  0  0  0  0  0
  1  2  1  0
  2  3  1  0
  3  4  1  0
  4  5  2  0
  4 11  1  0
  5  6  1  0
  6  7  1  0
  7  8  2  3
  7 11  1  0
  8  9  1  0
  9 10  1  0
M  END
