
     RDKit          3D

 11 11  0  0  0  0  0  0  0  0999 V2000
    2.7900    1.2330    0.1050 N   0  0  0  0  0  0  0  0  0  0  0  0
    2.8930   -0.0650   -0.4150 C   0  0  0  0  0  0  0  0  0  0  0  0
    3.9340   -0.3560   -1.6370 S   0  0  0  0  0  0  0  0  0  0  0  0
    2.0890   -1.1820    0.1050 C   0  0  0  0  0  0  0  0  0  0  0  0
    0.7450   -1.1250   -0.0890 O   0  0  0  0  0  0  0  0  0  0  0  0
    0.1070   -0.0470    0.4720 C   0  0  0  0  0  0  0  0  0  0  0  0
   -1.3860   -0.1230    0.2090 C   0  0  0  0  0  0  0  0  0  0  0  0
   -1.9580   -1.0780   -0.4540 C   0  0  0  0  0  0  0  0  0  0  0  0
   -3.7190   -0.9010   -0.6030 S   0  0  0  0  0  0  0  0  0  0  0  0
   -3.9320    0.8830   -0.2950 C   0  0  0  0  0  0  0  0  0  0  0  0
   -2.5030    1.1170    0.8000 S   0  0  0  0  0  0  0  0  0  0  0  0
  1  2  1  0
  2  3  2  0
  2  4  1  0
  4  5  1  0
  5  6  1  0
  6  7  1  0
  7  8  2  0
  7 11  1  0
  8  9  1  0
  9 10  1  0
 10 11  1  0
M  END
