
     RDKit          3D

 11 11  0  0  0  0  0  0  0  0999 V2000
   -3.4960    1.1400   -0.4920 C   0  0  0  0  0  0  0  0  0  0  0  0
   -3.4310   -0.2670   -0.1050 N   0  0  0  0  0  0  0  0  0  0  0  0
   -2.1850   -0.8910    0.1510 C   0  0  0  0  0  0  0  0  0  0  0  0
   -2.1880   -2.4610    0.5780 S   0  0  0  0  0  0  0  0  0  0  0  0
   -0.6360   -0.0320    0.0250 S   0  0  0  0  0  0  0  0  0  0  0  0
    0.7110   -1.1450    0.4210 C   0  0  0  0  0  0  0  0  0  0  0  0
    2.0510   -0.4480    0.3250 C   0  0  0  0  0  0  0  0  0  0  0  0
    2.9650   -0.8810   -0.5140 C   0  0  0  0  0  0  0  0  0  0  0  0
    4.3550    0.2410   -0.2780 S   0  0  0  0  0  0  0  0  0  0  0  0
    3.3320    1.4970    0.6100 C   0  0  0  0  0  0  0  0  0  0  0  0
    2.3430    0.6210    1.0840 O   0  0  0  0  0  0  0  0  0  0  0  0
  1  2  1  0
  2  3  1  0
  3  4  2  0
  3  5  1  0
  5  6  1  0
  6  7  1  0
  7  8  2  0
  7 11  1  0
  8  9  1  0
  9 10  1  0
 10 11  1  0
M  END
