
     RDKit          3D

 18 18  0  0  0  0  0  0  0  0999 V2000
    0.4180   -0.7310   -1.3990 C   0  0  0  0  0  0  0  0  0  0  0  0
    1.1320   -0.4900   -0.1360 C   0  0  0  0  0  0  0  0  0  0  0  0
    0.2930   -0.7440    1.4110 S   0  0  0  0  0  0  0  0  0  0  0  0
   -1.4100   -1.2710    1.1130 C   0  0  0  0  0  0  0  0  0  0  0  0
   -2.2160   -0.2000    0.4820 C   0  0  0  0  0  0  0  0  0  0  0  0
   -1.6230    0.9050    0.2530 O   0  0  0  0  0  0  0  0  0  0  0  0
   -3.5830   -0.3760    0.1400 N   0  0  0  0  0  0  0  0  0  0  0  0
   -4.2110   -1.6520    0.4190 C   0  0  0  0  0  0  0  0  0  0  0  0
   -4.3740    0.6560   -0.4700 C   0  0  0  0  0  0  0  0  0  0  0  0
   -5.0670    1.5300    0.5530 C   0  0  0  0  0  0  0  0  0  0  0  0
   -5.7930    2.4820   -0.1590 F   0  0  0  0  0  0  0  0  0  0  0  0
    2.4130   -0.0770   -0.1820 C   0  0  0  0  0  0  0  0  0  0  0  0
    3.0660    0.1210   -1.4800 C   0  0  0  0  0  0  0  0  0  0  0  0
    4.5410    0.3030   -1.4450 C   0  0  0  0  0  0  0  0  0  0  0  0
    4.9950    1.1840   -0.2990 C   0  0  0  0  0  0  0  0  0  0  0  0
    4.5320    0.6720    1.0240 C   0  0  0  0  0  0  0  0  0  0  0  0
    3.1510    0.1720    1.0410 C   0  0  0  0  0  0  0  0  0  0  0  0
    2.5980   -0.0430    2.1520 O   0  0  0  0  0  0  0  0  0  0  0  0
  1  2  1  0
  2  3  1  0
  2 12  2  3
  3  4  1  0
  4  5  1  0
  5  6  2  0
  5  7  1  0
  7  8  1  0
  7  9  1  0
  9 10  1  0
 10 11  1  0
 12 13  1  0
 12 17  1  0
 13 14  1  0
 14 15  1  0
 15 16  1  0
 16 17  1  0
 17 18  2  0
M  END
