
     RDKit          3D

 16 17  0  0  0  0  0  0  0  0999 V2000
    5.1850    0.3430    0.0320 C   0  0  0  0  0  0  0  0  0  0  0  0
    3.9000    0.3400    0.7770 C   0  0  0  0  0  0  0  0  0  0  0  0
    2.8110   -0.2410   -0.0130 N   0  0  0  0  0  0  0  0  0  0  0  0
    1.4580    0.0260    0.3750 C   0  0  0  0  0  0  0  0  0  0  0  0
    1.1520    0.8630    1.3730 C   0  0  0  0  0  0  0  0  0  0  0  0
   -0.1710    1.1710    1.6560 C   0  0  0  0  0  0  0  0  0  0  0  0
   -1.2030    0.5820    0.9310 C   0  0  0  0  0  0  0  0  0  0  0  0
   -0.9050   -0.2840   -0.0550 C   0  0  0  0  0  0  0  0  0  0  0  0
    0.4310   -0.6240   -0.4280 C   0  0  0  0  0  0  0  0  0  0  0  0
    0.8270   -1.3430   -1.5830 C   0  0  0  0  0  0  0  0  0  0  0  0
    0.2390   -2.6020   -1.8620 O   0  0  0  0  0  0  0  0  0  0  0  0
   -1.8770   -1.0790   -0.8120 C   0  0  0  0  0  0  0  0  0  0  0  0
   -3.0120   -0.3710   -1.3140 N   0  0  0  0  0  0  0  0  0  0  0  0
   -3.8810   -0.1240   -0.1470 C   0  0  0  0  0  0  0  0  0  0  0  0
   -3.5150    1.2430    0.3030 C   0  0  0  0  0  0  0  0  0  0  0  0
   -2.4180    1.2600    1.3960 C   0  0  0  0  0  0  0  0  0  0  0  0
  1  2  1  0
  2  3  1  0
  3  4  1  0
  4  5  2  0
  4  9  1  0
  5  6  1  0
  6  7  2  0
  7  8  1  0
  7 16  1  0
  8  9  2  0
  8 12  1  0
  9 10  1  0
 10 11  1  0
 12 13  1  0
 13 14  1  0
 14 15  1  0
 15 16  1  0
M  CHG  1  13   1
M  END
