
     RDKit          3D

 19 21  0  0  0  0  0  0  0  0999 V2000
   -3.3270    1.2620   -1.3490 C   0  0  0  0  0  0  0  0  0  0  0  0
   -2.8690    0.5590   -0.0610 C   0  0  1  0  0  0  0  0  0  0  0  0
   -3.1930    1.5490    1.0490 C   0  0  0  0  0  0  0  0  0  0  0  0
   -3.6930   -0.6270    0.1490 C   0  0  0  0  0  0  0  0  0  0  0  0
   -3.2530   -1.8520    0.2340 C   0  0  0  0  0  0  0  0  0  0  0  0
   -1.8380   -2.0730    0.1190 C   0  0  0  0  0  0  0  0  0  0  0  0
   -1.1440   -3.1840    0.1450 O   0  0  0  0  0  0  0  0  0  0  0  0
    0.1090   -2.9660   -0.0080 C   0  0  0  0  0  0  0  0  0  0  0  0
    1.0890   -3.9460   -0.0260 O   0  0  0  0  0  0  0  0  0  0  0  0
    0.3120   -1.5740   -0.1530 C   0  0  0  0  0  0  0  0  0  0  0  0
    1.6570   -1.0510   -0.3980 C   0  0  0  0  0  0  0  0  0  0  0  0
    1.8770    0.3240   -0.5120 N   0  0  0  0  0  0  0  0  0  0  0  0
    1.7590    1.1230    0.6770 C   0  0  0  0  0  0  0  0  0  0  0  0
    3.1070    1.7110    1.0700 C   0  0  0  0  0  0  0  0  0  0  0  0
    4.1150    0.7710    1.0630 O   0  0  0  0  0  0  0  0  0  0  0  0
    4.3040    0.3010   -0.2220 C   0  0  0  0  0  0  0  0  0  0  0  0
    3.1420    0.6420   -1.1460 C   0  0  0  0  0  0  0  0  0  0  0  0
   -0.9220   -1.0330   -0.0660 C   0  0  0  0  0  0  0  0  0  0  0  0
   -1.3970    0.3570   -0.0740 C   0  0  0  0  0  0  0  0  0  0  0  0
  2  1  1  6
  2  3  1  0
  2  4  1  0
  2 19  1  0
  4  5  2  0
  5  6  1  0
  6  7  1  0
  6 18  2  0
  7  8  1  0
  8  9  1  0
  8 10  2  0
 10 11  1  0
 10 18  1  0
 11 12  1  0
 12 13  1  0
 12 17  1  0
 13 14  1  0
 14 15  1  0
 15 16  1  0
 16 17  1  0
 18 19  1  0
M  END
