
     RDKit          3D

 19 20  0  0  0  0  0  0  0  0999 V2000
   -3.0650    2.6970    2.3360 C   0  0  0  0  0  0  0  0  0  0  0  0
   -2.9970    1.7570    1.1540 C   0  0  0  0  0  0  0  0  0  0  0  0
   -2.1300    0.7700    1.1280 C   0  0  0  0  0  0  0  0  0  0  0  0
   -2.0450   -0.1510    0.0010 C   0  0  0  0  0  0  0  0  0  0  0  0
   -1.1580   -1.1230    0.0040 C   0  0  0  0  0  0  0  0  0  0  0  0
   -0.1980   -1.3780    1.0950 C   0  0  0  0  0  0  0  0  0  0  0  0
    1.1810   -1.2720    0.6270 N   0  0  0  0  0  0  0  0  0  0  0  0
    1.6930   -0.0710    0.0690 C   0  0  0  0  0  0  0  0  0  0  0  0
    0.9500    0.9320   -0.0310 O   0  0  0  0  0  0  0  0  0  0  0  0
    3.0890    0.0250   -0.4010 C   0  0  0  0  0  0  0  0  0  0  0  0
    3.9960   -0.9300   -0.3690 C   0  0  0  0  0  0  0  0  0  0  0  0
    5.2470   -0.4020   -0.9360 C   0  0  0  0  0  0  0  0  0  0  0  0
    4.9350    0.9850   -1.2980 C   0  0  0  0  0  0  0  0  0  0  0  0
    3.6780    1.2180   -0.9810 C   0  0  0  0  0  0  0  0  0  0  0  0
   -1.1260   -1.9980   -1.1930 C   0  0  0  0  0  0  0  0  0  0  0  0
   -0.2780   -2.9330   -1.2010 O   0  0  0  0  0  0  0  0  0  0  0  0
   -2.0130   -1.7590   -2.2380 O   0  0  0  0  0  0  0  0  0  0  0  0
   -3.2600   -1.2270   -1.8640 C   0  0  0  0  0  0  0  0  0  0  0  0
   -3.0150    0.0620   -1.1210 C   0  0  0  0  0  0  0  0  0  0  0  0
  1  2  1  0
  2  3  2  3
  3  4  1  0
  4  5  2  0
  4 19  1  0
  5  6  1  0
  5 15  1  0
  6  7  1  0
  7  8  1  0
  8  9  2  0
  8 10  1  0
 10 11  2  0
 10 14  1  0
 11 12  1  0
 12 13  1  0
 13 14  2  0
 15 16  2  0
 15 17  1  0
 17 18  1  0
 18 19  1  0
M  END
