
     RDKit          3D

 17 19  0  0  0  0  0  0  0  0999 V2000
    4.7270    1.1340   -0.5650 O   0  0  0  0  0  0  0  0  0  0  0  0
    3.8050    0.4840   -0.0200 C   0  0  0  0  0  0  0  0  0  0  0  0
    3.9660   -0.8220    0.5100 N   0  0  0  0  0  0  0  0  0  0  0  0
    2.7160   -1.2420    1.0370 C   0  0  0  0  0  0  0  0  0  0  0  0
    2.4400   -2.4130    1.4020 O   0  0  0  0  0  0  0  0  0  0  0  0
    1.7650   -0.0710    1.0960 C   0  0  2  0  0  0  0  0  0  0  0  0
    0.4130   -0.5570    0.8240 C   0  0  0  0  0  0  0  0  0  0  0  0
   -0.2480   -0.1050   -0.4330 C   0  0  1  0  0  0  0  0  0  0  0  0
   -1.7160   -0.2030   -0.3150 C   0  0  0  0  0  0  0  0  0  0  0  0
   -2.4410    0.4810    0.6430 C   0  0  0  0  0  0  0  0  0  0  0  0
   -3.8170    0.3580    0.7160 C   0  0  0  0  0  0  0  0  0  0  0  0
   -4.5120   -0.4490   -0.1610 C   0  0  0  0  0  0  0  0  0  0  0  0
   -3.8070   -1.1300   -1.1130 C   0  0  0  0  0  0  0  0  0  0  0  0
   -2.4230   -1.0010   -1.1800 C   0  0  0  0  0  0  0  0  0  0  0  0
    0.2060    1.2980   -0.7810 C   0  0  0  0  0  0  0  0  0  0  0  0
    1.6810    1.1620   -1.1040 C   0  0  0  0  0  0  0  0  0  0  0  0
    2.3810    0.9110    0.1910 C   0  0  2  0  0  0  0  0  0  0  0  0
  1  2  2  0
  2  3  1  0
  2 17  1  0
  3  4  1  0
  4  5  2  0
  4  6  1  0
  6  7  1  6
  6 17  1  0
  7  8  1  0
  8  9  1  1
  8 15  1  0
  9 10  2  0
  9 14  1  0
 10 11  1  0
 11 12  2  0
 12 13  1  0
 13 14  2  0
 15 16  1  0
 17 16  1  6
M  END
