
     RDKit          3D

 19 20  0  0  0  0  0  0  0  0999 V2000
   -5.9250    0.2560   -0.5120 C   0  0  0  0  0  0  0  0  0  0  0  0
   -4.8120   -0.0210    0.4190 C   0  0  0  0  0  0  0  0  0  0  0  0
   -3.6190   -0.2770   -0.0420 C   0  0  0  0  0  0  0  0  0  0  0  0
   -3.3930   -0.2860   -1.5100 C   0  0  0  0  0  0  0  0  0  0  0  0
   -2.2440    0.6180   -1.8050 C   0  0  0  0  0  0  0  0  0  0  0  0
   -1.1340    0.2810   -0.9410 N   0  0  0  0  0  0  0  0  0  0  0  0
   -1.2820   -0.2810    0.3590 C   0  0  0  0  0  0  0  0  0  0  0  0
   -0.0860   -0.5230    1.1360 C   0  0  0  0  0  0  0  0  0  0  0  0
   -0.1950   -1.0150    2.2790 O   0  0  0  0  0  0  0  0  0  0  0  0
    1.1800   -0.2320    0.6640 O   0  0  0  0  0  0  0  0  0  0  0  0
    2.3470   -0.4720    1.4290 C   0  0  0  0  0  0  0  0  0  0  0  0
    3.5520   -0.0440    0.6210 C   0  0  1  0  0  0  0  0  0  0  0  0
    3.6610   -0.8030   -0.6710 C   0  0  0  0  0  0  0  0  0  0  0  0
    4.9370   -0.3760   -1.3610 C   0  0  0  0  0  0  0  0  0  0  0  0
    5.0200    0.9800   -1.5490 O   0  0  0  0  0  0  0  0  0  0  0  0
    4.8310    1.7380   -0.4230 C   0  0  0  0  0  0  0  0  0  0  0  0
    3.4940    1.4350    0.2670 C   0  0  0  0  0  0  0  0  0  0  0  0
   -2.4660   -0.5590    0.8160 C   0  0  0  0  0  0  0  0  0  0  0  0
   -2.7150   -1.1420    2.1480 C   0  0  0  0  0  0  0  0  0  0  0  0
  1  2  1  0
  2  3  2  3
  3  4  1  0
  3 18  1  0
  4  5  1  0
  5  6  1  0
  6  7  1  0
  7  8  1  0
  7 18  2  0
  8  9  2  0
  8 10  1  0
 10 11  1  0
 12 11  1  6
 12 13  1  0
 12 17  1  0
 13 14  1  0
 14 15  1  0
 15 16  1  0
 16 17  1  0
 18 19  1  0
M  END
