
     RDKit          3D

 19 19  0  0  0  0  0  0  0  0999 V2000
   -1.6760    3.1540    1.5360 C   0  0  0  0  0  0  0  0  0  0  0  0
   -1.1000    2.2490    0.8000 C   0  0  0  0  0  0  0  0  0  0  0  0
    0.2140    1.8750    1.1940 N   0  0  0  0  0  0  0  0  0  0  0  0
    1.2110    0.9270    0.6790 C   0  0  0  0  0  0  0  0  0  0  0  0
    2.5830    1.3860    0.9230 C   0  0  0  0  0  0  0  0  0  0  0  0
    1.1340   -0.2470    0.0690 C   0  0  0  0  0  0  0  0  0  0  0  0
    2.3760   -0.8850   -0.2980 C   0  0  0  0  0  0  0  0  0  0  0  0
    2.4030   -1.9980   -0.9120 O   0  0  0  0  0  0  0  0  0  0  0  0
    3.6060   -0.3710   -0.0310 O   0  0  0  0  0  0  0  0  0  0  0  0
    4.8240   -0.9870   -0.3860 C   0  0  0  0  0  0  0  0  0  0  0  0
   -0.0500   -1.0780   -0.3150 C   0  0  0  0  0  0  0  0  0  0  0  0
    0.2070   -2.5010   -0.1080 C   0  0  0  0  0  0  0  0  0  0  0  0
   -1.2820   -0.7990   -0.7290 C   0  0  0  0  0  0  0  0  0  0  0  0
   -2.1380   -1.9670   -1.0120 C   0  0  0  0  0  0  0  0  0  0  0  0
   -3.2960   -1.9600   -0.0630 C   0  0  0  0  0  0  0  0  0  0  0  0
   -2.0400    0.4540   -0.9420 C   0  0  0  0  0  0  0  0  0  0  0  0
   -2.9380    0.4050   -1.7940 O   0  0  0  0  0  0  0  0  0  0  0  0
   -1.9340    1.7750   -0.3280 C   0  0  0  0  0  0  0  0  0  0  0  0
   -2.6780    2.7210   -0.8600 C   0  0  0  0  0  0  0  0  0  0  0  0
  1  2  2  0
  2  3  1  0
  2 18  1  0
  3  4  1  0
  4  5  1  0
  4  6  2  0
  6  7  1  0
  6 11  1  0
  7  8  2  0
  7  9  1  0
  9 10  1  0
 11 12  1  0
 11 13  2  0
 13 14  1  0
 13 16  1  0
 14 15  1  0
 16 17  2  0
 16 18  1  0
 18 19  2  0
M  END
