
     RDKit          3D

 28 31  0  0  0  0  0  0  0  0999 V2000
   -0.5290    2.5510    3.6130 C   0  0  0  0  0  0  0  0  0  0  0  0
   -1.7400    2.0500    2.8690 C   0  0  0  0  0  0  0  0  0  0  0  0
   -1.3490    0.9420    1.9940 N   0  0  0  0  0  0  0  0  0  0  0  0
   -2.3420    0.2970    1.1800 C   0  0  0  0  0  0  0  0  0  0  0  0
   -3.6270    0.7560    1.2640 N   0  0  0  0  0  0  0  0  0  0  0  0
   -4.6260    0.2310    0.5540 C   0  0  0  0  0  0  0  0  0  0  0  0
   -4.3270   -0.8100   -0.2850 C   0  0  0  0  0  0  0  0  0  0  0  0
   -3.0060   -1.2890   -0.3780 C   0  0  0  0  0  0  0  0  0  0  0  0
   -1.9740   -0.7450    0.3560 C   0  0  0  0  0  0  0  0  0  0  0  0
   -0.6270   -1.1770    0.3110 N   0  0  0  0  0  0  0  0  0  0  0  0
   -0.1300   -2.2310   -0.4870 C   0  0  0  0  0  0  0  0  0  0  0  0
   -0.8800   -2.8900   -1.2500 O   0  0  0  0  0  0  0  0  0  0  0  0
    1.2610   -2.6060   -0.4690 N   0  0  0  0  0  0  0  0  0  0  0  0
    1.7270   -3.6800   -1.3300 C   0  0  0  0  0  0  0  0  0  0  0  0
    2.2120   -1.9660    0.3890 C   0  0  0  0  0  0  0  0  0  0  0  0
    2.8300   -0.7810   -0.2590 C   0  0  0  0  0  0  0  0  0  0  0  0
    3.7790    0.0710    0.2610 C   0  0  0  0  0  0  0  0  0  0  0  0
    4.0320    1.0140   -0.7170 C   0  0  0  0  0  0  0  0  0  0  0  0
    4.8580    2.1130   -0.8230 C   0  0  0  0  0  0  0  0  0  0  0  0
    4.8600    2.8620   -1.9900 C   0  0  0  0  0  0  0  0  0  0  0  0
    5.9130    4.2620   -2.1220 Cl  0  0  0  0  0  0  0  0  0  0  0  0
    4.0470    2.5300   -3.0560 C   0  0  0  0  0  0  0  0  0  0  0  0
    3.2190    1.4260   -2.9460 C   0  0  0  0  0  0  0  0  0  0  0  0
    3.2330    0.6940   -1.7750 C   0  0  0  0  0  0  0  0  0  0  0  0
    2.5320   -0.3770   -1.4690 O   0  0  0  0  0  0  0  0  0  0  0  0
   -5.4330   -1.2030   -0.9060 C   0  0  0  0  0  0  0  0  0  0  0  0
   -6.5630   -0.3620   -0.4480 C   0  0  0  0  0  0  0  0  0  0  0  0
   -5.9090    0.5200    0.4890 N   0  0  0  0  0  0  0  0  0  0  0  0
  1  2  1  0
  2  3  1  0
  3  4  1  0
  4  5  2  0
  4  9  1  0
  5  6  1  0
  6  7  1  0
  6 28  2  0
  7  8  1  0
  7 26  2  0
  8  9  2  0
  9 10  1  0
 10 11  1  0
 11 12  2  0
 11 13  1  0
 13 14  1  0
 13 15  1  0
 15 16  1  0
 16 17  2  0
 16 25  1  0
 17 18  1  0
 18 19  2  0
 18 24  1  0
 19 20  1  0
 20 21  1  0
 20 22  2  0
 22 23  1  0
 23 24  2  0
 24 25  1  0
 26 27  1  0
 27 28  1  0
M  END
