
     RDKit          3D

 28 31  0  0  0  0  0  0  0  0999 V2000
    6.9380   -2.3770    1.1660 C   0  0  0  0  0  0  0  0  0  0  0  0
    5.6810   -1.7290    0.6430 C   0  0  0  0  0  0  0  0  0  0  0  0
    4.9410   -0.9010    1.4370 C   0  0  0  0  0  0  0  0  0  0  0  0
    3.8010   -0.3190    0.9430 C   0  0  0  0  0  0  0  0  0  0  0  0
    3.3440   -0.5200   -0.3230 C   0  0  0  0  0  0  0  0  0  0  0  0
    2.1810    0.0440   -0.8950 N   0  0  0  0  0  0  0  0  0  0  0  0
    1.2700    0.9160   -0.2740 C   0  0  0  0  0  0  0  0  0  0  0  0
    0.1630    1.3770   -1.0030 C   0  0  0  0  0  0  0  0  0  0  0  0
   -0.7670    2.2280   -0.4690 C   0  0  0  0  0  0  0  0  0  0  0  0
   -1.9190    2.7510   -1.1590 C   0  0  0  0  0  0  0  0  0  0  0  0
   -1.7210    3.8840   -1.7410 O   0  0  0  0  0  0  0  0  0  0  0  0
   -3.2000    2.1500   -1.2500 N   0  0  0  0  0  0  0  0  0  0  0  0
   -4.2750    2.6450   -1.9190 C   0  0  0  0  0  0  0  0  0  0  0  0
   -4.2040    3.7490   -2.5570 O   0  0  0  0  0  0  0  0  0  0  0  0
   -5.3330    1.8380   -1.8020 N   0  0  0  0  0  0  0  0  0  0  0  0
   -4.9670    0.7760   -1.0380 C   0  0  0  0  0  0  0  0  0  0  0  0
   -5.6680   -0.3330   -0.6140 C   0  0  0  0  0  0  0  0  0  0  0  0
   -5.0090   -1.2560    0.1700 C   0  0  0  0  0  0  0  0  0  0  0  0
   -3.6880   -1.0600    0.5110 C   0  0  0  0  0  0  0  0  0  0  0  0
   -2.9850   -2.0610    1.3570 C   0  0  0  0  0  0  0  0  0  0  0  0
   -2.9990    0.0490    0.0830 C   0  0  0  0  0  0  0  0  0  0  0  0
   -3.6240    0.9970   -0.7050 C   0  0  0  0  0  0  0  0  0  0  0  0
   -0.5760    2.6300    0.8550 C   0  0  0  0  0  0  0  0  0  0  0  0
    0.4900    2.1770    1.5370 N   0  0  0  0  0  0  0  0  0  0  0  0
    1.3610    1.3570    0.9770 N   0  0  0  0  0  0  0  0  0  0  0  0
    4.1130   -1.3690   -1.1200 C   0  0  0  0  0  0  0  0  0  0  0  0
    3.6510   -1.7180   -2.7640 Cl  0  0  0  0  0  0  0  0  0  0  0  0
    5.2480   -1.9510   -0.6370 C   0  0  0  0  0  0  0  0  0  0  0  0
  1  2  1  0
  2  3  2  0
  2 28  1  0
  3  4  1  0
  4  5  2  0
  5  6  1  0
  5 26  1  0
  6  7  1  0
  7  8  2  0
  7 25  1  0
  8  9  1  0
  9 10  1  0
  9 23  2  0
 10 11  2  0
 10 12  1  0
 12 13  1  0
 12 22  1  0
 13 14  2  0
 13 15  1  0
 15 16  1  0
 16 17  2  0
 16 22  1  0
 17 18  1  0
 18 19  2  0
 19 20  1  0
 19 21  1  0
 21 22  2  0
 23 24  1  0
 24 25  2  0
 26 27  1  0
 26 28  2  0
M  END
