
     RDKit          3D

 28 31  0  0  0  0  0  0  0  0999 V2000
    3.4840    3.5030   -1.1370 C   0  0  0  0  0  0  0  0  0  0  0  0
    4.5170    2.5370   -1.6690 C   0  0  0  0  0  0  0  0  0  0  0  0
    4.1550    1.1280   -1.3890 C   0  0  0  0  0  0  0  0  0  0  0  0
    3.0130    0.7460   -0.7250 C   0  0  0  0  0  0  0  0  0  0  0  0
    2.7340   -0.6140   -0.4950 C   0  0  0  0  0  0  0  0  0  0  0  0
    1.5680   -0.9990    0.1580 N   0  0  0  0  0  0  0  0  0  0  0  0
    1.1880   -2.3030    0.4830 C   0  0  0  0  0  0  0  0  0  0  0  0
    2.0750   -3.3710    0.4740 C   0  0  0  0  0  0  0  0  0  0  0  0
    1.7270   -4.6600    0.8700 C   0  0  0  0  0  0  0  0  0  0  0  0
    0.4550   -4.8650    1.2820 C   0  0  0  0  0  0  0  0  0  0  0  0
   -0.0540   -6.4420    1.7920 Cl  0  0  0  0  0  0  0  0  0  0  0  0
   -0.4810   -3.8250    1.3100 C   0  0  0  0  0  0  0  0  0  0  0  0
   -0.1340   -2.5520    0.9170 C   0  0  0  0  0  0  0  0  0  0  0  0
   -1.0460   -1.4660    0.8410 N   0  0  0  0  0  0  0  0  0  0  0  0
   -2.3360   -1.3900    1.4100 C   0  0  0  0  0  0  0  0  0  0  0  0
   -2.7120   -2.4190    2.0910 O   0  0  0  0  0  0  0  0  0  0  0  0
   -3.2630   -0.2730    1.3030 C   0  0  0  0  0  0  0  0  0  0  0  0
   -4.3340   -0.0870    2.2120 C   0  0  0  0  0  0  0  0  0  0  0  0
   -5.0390    1.0210    1.8270 C   0  0  0  0  0  0  0  0  0  0  0  0
   -4.4270    1.4960    0.7280 C   0  0  0  0  0  0  0  0  0  0  0  0
   -3.3410    0.6880    0.4220 N   0  0  0  0  0  0  0  0  0  0  0  0
   -2.6790    1.1460   -0.7740 C   0  0  0  0  0  0  0  0  0  0  0  0
   -2.3710    2.6340   -0.4950 C   0  0  0  0  0  0  0  0  0  0  0  0
   -3.5350    3.3580   -0.5020 O   0  0  0  0  0  0  0  0  0  0  0  0
   -4.6570    2.6440   -0.1710 C   0  0  0  0  0  0  0  0  0  0  0  0
    3.6390   -1.4530   -0.9610 N   0  0  0  0  0  0  0  0  0  0  0  0
    4.7680   -1.1380   -1.6140 C   0  0  0  0  0  0  0  0  0  0  0  0
    4.9990    0.1730   -1.8140 N   0  0  0  0  0  0  0  0  0  0  0  0
  1  2  1  0
  2  3  1  0
  3  4  2  0
  3 28  1  0
  4  5  1  0
  5  6  1  0
  5 26  2  0
  6  7  1  0
  7  8  2  0
  7 13  1  0
  8  9  1  0
  9 10  2  0
 10 11  1  0
 10 12  1  0
 12 13  2  0
 13 14  1  0
 14 15  1  0
 15 16  2  0
 15 17  1  0
 17 18  2  0
 17 21  1  0
 18 19  1  0
 19 20  2  0
 20 21  1  0
 20 25  1  0
 21 22  1  0
 22 23  1  0
 23 24  1  0
 24 25  1  0
 26 27  1  0
 27 28  2  0
M  END
