
     RDKit          3D

 28 31  0  0  0  0  0  0  0  0999 V2000
   -0.9480    1.8260    1.9260 C   0  0  0  0  0  0  0  0  0  0  0  0
   -1.6660    1.0500    0.8690 C   0  0  0  0  0  0  0  0  0  0  0  0
   -2.9050    0.5680    1.0580 N   0  0  0  0  0  0  0  0  0  0  0  0
   -3.5860   -0.1320    0.1410 C   0  0  0  0  0  0  0  0  0  0  0  0
   -4.9310   -0.6110    0.4520 C   0  0  1  0  0  0  0  0  0  0  0  0
   -5.9860   -0.0570   -0.5020 C   0  0  0  0  0  0  0  0  0  0  0  0
   -7.1910   -0.9180   -0.1000 C   0  0  0  0  0  0  0  0  0  0  0  0
   -6.6170   -2.2420    0.3200 C   0  0  0  0  0  0  0  0  0  0  0  0
   -5.1100   -2.0990    0.2510 C   0  0  0  0  0  0  0  0  0  0  0  0
   -3.0350   -0.3900   -1.0520 N   0  0  0  0  0  0  0  0  0  0  0  0
   -1.7810    0.0740   -1.3020 C   0  0  0  0  0  0  0  0  0  0  0  0
   -1.0670    0.7970   -0.3650 C   0  0  0  0  0  0  0  0  0  0  0  0
    0.2440    1.2870   -0.6120 N   0  0  0  0  0  0  0  0  0  0  0  0
    1.3900    0.7040   -0.2970 N   0  0  0  0  0  0  0  0  0  0  0  0
    2.3980    1.4800   -0.6970 C   0  0  0  0  0  0  0  0  0  0  0  0
    3.8510    1.2280   -0.5530 C   0  0  0  0  0  0  0  0  0  0  0  0
    4.6620    2.0620   -0.9840 O   0  0  0  0  0  0  0  0  0  0  0  0
    4.3050    0.0510    0.0680 N   0  0  0  0  0  0  0  0  0  0  0  0
    5.6370   -0.3470    0.2880 C   0  0  0  0  0  0  0  0  0  0  0  0
    6.7110    0.3830   -0.0870 C   0  0  0  0  0  0  0  0  0  0  0  0
    8.0230   -0.0560    0.1530 C   0  0  0  0  0  0  0  0  0  0  0  0
    8.2270   -1.2490    0.7810 C   0  0  0  0  0  0  0  0  0  0  0  0
    7.1630   -2.0140    1.1740 C   0  0  0  0  0  0  0  0  0  0  0  0
    5.8910   -1.5670    0.9300 C   0  0  0  0  0  0  0  0  0  0  0  0
    4.5360   -2.5690    1.4450 Cl  0  0  0  0  0  0  0  0  0  0  0  0
    1.8520    2.5850   -1.2800 C   0  0  0  0  0  0  0  0  0  0  0  0
    0.4900    2.4590   -1.2250 C   0  0  0  0  0  0  0  0  0  0  0  0
   -0.3290    3.3100   -1.6780 O   0  0  0  0  0  0  0  0  0  0  0  0
  1  2  1  0
  2  3  2  0
  2 12  1  0
  3  4  1  0
  5  4  1  6
  4 10  2  0
  5  6  1  0
  5  9  1  0
  6  7  1  0
  7  8  1  0
  8  9  1  0
 10 11  1  0
 11 12  2  0
 12 13  1  0
 13 14  1  0
 13 27  1  0
 14 15  1  0
 15 16  1  0
 15 26  2  0
 16 17  2  0
 16 18  1  0
 18 19  1  0
 19 20  2  0
 19 24  1  0
 20 21  1  0
 21 22  2  0
 22 23  1  0
 23 24  2  0
 24 25  1  0
 26 27  1  0
 27 28  2  0
M  END
