
     RDKit          3D

 28 31  0  0  0  0  0  0  0  0999 V2000
   -4.4390    2.0420    0.8850 O   0  0  0  0  0  0  0  0  0  0  0  0
   -5.0540    1.1380    0.2520 C   0  0  0  0  0  0  0  0  0  0  0  0
   -6.4290    1.4420   -0.1880 C   0  0  0  0  0  0  0  0  0  0  0  0
   -7.0400    0.3670   -1.0220 C   0  0  0  0  0  0  0  0  0  0  0  0
   -6.5330   -0.9770   -0.5880 C   0  0  0  0  0  0  0  0  0  0  0  0
   -5.0240   -1.0520   -0.8480 C   0  0  0  0  0  0  0  0  0  0  0  0
   -4.3770   -0.0720    0.0250 N   0  0  0  0  0  0  0  0  0  0  0  0
   -3.1090   -0.3630    0.6090 C   0  0  0  0  0  0  0  0  0  0  0  0
   -1.9350    0.0550   -0.2060 C   0  0  0  0  0  0  0  0  0  0  0  0
   -0.7160   -0.3220    0.5450 N   0  0  0  0  0  0  0  0  0  0  0  0
    0.5480   -0.0360   -0.0080 C   0  0  0  0  0  0  0  0  0  0  0  0
    0.6340    0.6010   -1.2620 C   0  0  0  0  0  0  0  0  0  0  0  0
    1.8000    0.8970   -1.8360 N   0  0  0  0  0  0  0  0  0  0  0  0
    2.9480    0.6070   -1.2560 N   0  0  0  0  0  0  0  0  0  0  0  0
    2.9170    0.0010   -0.0610 C   0  0  0  0  0  0  0  0  0  0  0  0
    4.1050   -0.3180    0.5770 C   0  0  0  0  0  0  0  0  0  0  0  0
    5.3410    0.0410   -0.1230 C   0  0  0  0  0  0  0  0  0  0  0  0
    6.3750    0.6550    0.5510 C   0  0  0  0  0  0  0  0  0  0  0  0
    7.5550    1.0020   -0.0910 C   0  0  0  0  0  0  0  0  0  0  0  0
    7.7390    0.7440   -1.4330 C   0  0  0  0  0  0  0  0  0  0  0  0
    9.2350    1.1850   -2.2420 Cl  0  0  0  0  0  0  0  0  0  0  0  0
    6.7090    0.1290   -2.1160 C   0  0  0  0  0  0  0  0  0  0  0  0
    5.5370   -0.2120   -1.4640 C   0  0  0  0  0  0  0  0  0  0  0  0
    4.1650   -0.9400    1.8060 C   0  0  0  0  0  0  0  0  0  0  0  0
    3.0180   -1.2430    2.3930 N   0  0  0  0  0  0  0  0  0  0  0  0
    1.8100   -0.9620    1.8290 C   0  0  0  0  0  0  0  0  0  0  0  0
    0.7590   -1.2720    2.4310 O   0  0  0  0  0  0  0  0  0  0  0  0
    1.7330   -0.3410    0.6040 C   0  0  0  0  0  0  0  0  0  0  0  0
  1  2  2  0
  2  3  1  0
  2  7  1  0
  3  4  1  0
  4  5  1  0
  5  6  1  0
  6  7  1  0
  7  8  1  0
  8  9  1  0
  9 10  1  0
 10 11  1  0
 11 12  2  0
 11 28  1  0
 12 13  1  0
 13 14  2  0
 14 15  1  0
 15 16  1  0
 15 28  2  0
 16 17  1  0
 16 24  2  0
 17 18  2  0
 17 23  1  0
 18 19  1  0
 19 20  2  0
 20 21  1  0
 20 22  1  0
 22 23  2  0
 24 25  1  0
 25 26  1  0
 26 27  2  0
 26 28  1  0
M  END
