
     RDKit          3D

  9  9  0  0  0  0  0  0  0  0999 V2000
   -1.8720    0.0210    1.0450 O   0  0  0  0  0  0  0  0  0  0  0  0
   -1.4650   -0.5850   -0.1450 C   0  0  1  0  0  0  0  0  0  0  0  0
   -2.1300   -0.0230   -1.2080 O   0  0  0  0  0  0  0  0  0  0  0  0
    0.0040   -0.3900   -0.3240 C   0  0  1  0  0  0  0  0  0  0  0  0
    0.4500   -0.9780   -1.4970 O   0  0  0  0  0  0  0  0  0  0  0  0
    0.3800    1.0810   -0.3270 C   0  0  0  0  0  0  0  0  0  0  0  0
    1.8310    0.9710    0.1590 C   0  0  0  0  0  0  0  0  0  0  0  0
    1.6600    0.1030    1.2450 O   0  0  0  0  0  0  0  0  0  0  0  0
    0.8140   -0.8980    0.8510 C   0  0  0  0  0  0  0  0  0  0  0  0
  2  1  1  1
  2  3  1  0
  2  4  1  0
  4  5  1  6
  4  6  1  0
  4  9  1  0
  6  7  1  0
  7  8  1  0
  8  9  1  0
M  END
