
     RDKit          3D

 28 30  0  0  0  0  0  0  0  0999 V2000
   -4.4610    5.6440    2.2160 C   0  0  0  0  0  0  0  0  0  0  0  0
   -3.7440    3.9850    2.3210 S   0  0  0  0  0  0  0  0  0  0  0  0
   -3.3120    3.3870    0.6530 C   0  0  0  0  0  0  0  0  0  0  0  0
   -2.7290    2.0360    0.7420 C   0  0  0  0  0  0  0  0  0  0  0  0
   -2.5810    1.4400    1.8620 O   0  0  0  0  0  0  0  0  0  0  0  0
   -2.3140    1.3490   -0.3740 O   0  0  0  0  0  0  0  0  0  0  0  0
   -1.7410    0.0160   -0.2730 C   0  0  2  0  0  0  0  0  0  0  0  0
   -0.3610    0.0980   -0.9220 C   0  0  0  0  0  0  0  0  0  0  0  0
    0.2990   -1.1520   -0.8130 N   0  0  0  0  0  0  0  0  0  0  0  0
    1.8790   -1.1100   -1.5550 S   0  0  2  0  0  0  0  0  0  0  0  0
    1.8990   -0.2680   -2.7770 O   0  0  0  0  0  0  0  0  0  0  0  0
    2.1870   -2.5270   -1.9620 O   0  0  0  0  0  0  0  0  0  0  0  0
    3.0860   -0.6320   -0.4150 N   0  0  0  0  0  0  0  0  0  0  0  0
    3.4350   -1.3580    0.8160 C   0  0  0  0  0  0  0  0  0  0  0  0
    4.2850   -0.4200    1.6330 C   0  0  0  0  0  0  0  0  0  0  0  0
    4.2360    0.9090    0.9170 C   0  0  1  0  0  0  0  0  0  0  0  0
    2.9620    1.9680    1.4920 Cl  0  0  0  0  0  0  0  0  0  0  0  0
    5.5520    1.5730    0.7150 C   0  0  0  0  0  0  0  0  0  0  0  0
    5.2360    2.4010   -0.5480 C   0  0  0  0  0  0  0  0  0  0  0  0
    4.4650    1.3710   -1.3400 C   0  0  0  0  0  0  0  0  0  0  0  0
    3.9020    0.5230   -0.5130 C   0  0  0  0  0  0  0  0  0  0  0  0
   -2.5570   -0.9240   -1.0480 C   0  0  0  0  0  0  0  0  0  0  0  0
   -3.4100   -0.3680   -1.8420 O   0  0  0  0  0  0  0  0  0  0  0  0
   -2.4780   -2.3230   -0.9810 N   0  0  0  0  0  0  0  0  0  0  0  0
   -3.3280   -3.1910   -1.8410 C   0  0  0  0  0  0  0  0  0  0  0  0
   -3.8530   -4.1340   -0.7960 C   0  0  0  0  0  0  0  0  0  0  0  0
   -2.6790   -4.3480    0.1180 C   0  0  0  0  0  0  0  0  0  0  0  0
   -1.6990   -3.2080   -0.1530 C   0  0  0  0  0  0  0  0  0  0  0  0
  1  2  1  0
  2  3  1  0
  3  4  1  0
  4  5  2  0
  4  6  1  0
  6  7  1  0
  7  8  1  6
  7 22  1  0
  8  9  1  0
 10  9  1  1
 10 11  2  0
 10 12  2  0
 10 13  1  0
 13 14  1  0
 13 21  1  0
 14 15  1  0
 15 16  1  0
 16 17  1  1
 16 18  1  0
 16 21  1  0
 18 19  1  0
 19 20  1  0
 20 21  2  0
 22 23  2  0
 22 24  1  0
 24 25  1  0
 24 28  1  0
 25 26  1  0
 26 27  1  0
 27 28  1  0
M  END
