
     RDKit          3D

 27 29  0  0  0  0  0  0  0  0999 V2000
   -1.3040   -4.2210   -1.5660 C   0  0  0  0  0  0  0  0  0  0  0  0
   -1.0830   -2.8620   -1.3040 O   0  0  0  0  0  0  0  0  0  0  0  0
    0.1610   -2.3210   -1.0140 C   0  0  0  0  0  0  0  0  0  0  0  0
    1.1460   -3.0960   -0.9840 O   0  0  0  0  0  0  0  0  0  0  0  0
    0.3520   -0.8970   -0.7460 C   0  0  2  0  0  0  0  0  0  0  0  0
    1.0080   -0.6420    0.6120 C   0  0  0  0  0  0  0  0  0  0  0  0
    1.1930    0.8220    0.8550 C   0  0  0  0  0  0  0  0  0  0  0  0
    1.9670    1.1980    2.4350 S   0  0  0  0  0  0  0  0  0  0  0  0
    3.6630    0.6860    2.5090 C   0  0  0  0  0  0  0  0  0  0  0  0
    4.4660    0.8760    3.9140 S   0  0  0  0  0  0  0  0  0  0  0  0
    4.3400    0.1250    1.4100 N   0  0  0  0  0  0  0  0  0  0  0  0
    5.7440   -0.2910    1.5090 C   0  0  1  0  0  0  0  0  0  0  0  0
    6.3220   -0.8850    0.2380 C   0  0  0  0  0  0  0  0  0  0  0  0
    6.6900    0.5120    0.6990 C   0  0  0  0  0  0  0  0  0  0  0  0
   -0.9210   -0.1580   -0.8220 N   0  0  0  0  0  0  0  0  0  0  0  0
   -1.2040    0.9320   -1.6850 C   0  0  0  0  0  0  0  0  0  0  0  0
   -0.3690    1.4270   -2.5170 O   0  0  0  0  0  0  0  0  0  0  0  0
   -2.5390    1.3590   -1.4650 N   0  0  0  0  0  0  0  0  0  0  0  0
   -3.2760    2.2530   -2.3510 C   0  0  0  0  0  0  0  0  0  0  0  0
   -2.9970    0.7550   -0.2380 C   0  0  2  0  0  0  0  0  0  0  0  0
   -4.4490    0.3430   -0.3150 C   0  0  0  0  0  0  0  0  0  0  0  0
   -5.1500    1.4580    0.4740 C   0  0  0  0  0  0  0  0  0  0  0  0
   -4.1840    1.6330    1.5750 C   0  0  0  0  0  0  0  0  0  0  0  0
   -4.4470    1.7430    2.7400 O   0  0  0  0  0  0  0  0  0  0  0  0
   -2.8420    1.6470    0.9650 C   0  0  0  0  0  0  0  0  0  0  0  0
   -2.0950   -0.3980   -0.0680 C   0  0  0  0  0  0  0  0  0  0  0  0
   -2.3330   -1.4290    0.6360 O   0  0  0  0  0  0  0  0  0  0  0  0
  1  2  1  0
  2  3  1  0
  3  4  2  0
  3  5  1  0
  5  6  1  1
  5 15  1  0
  6  7  1  0
  7  8  1  0
  8  9  1  0
  9 10  2  0
  9 11  1  0
 12 11  1  6
 12 13  1  0
 12 14  1  0
 13 14  1  0
 15 16  1  0
 15 26  1  0
 16 17  2  0
 16 18  1  0
 18 19  1  0
 18 20  1  0
 20 21  1  6
 20 25  1  0
 20 26  1  0
 21 22  1  0
 22 23  1  0
 23 24  2  0
 23 25  1  0
 26 27  2  0
M  END
