
     RDKit          3D

  9  9  0  0  0  0  0  0  0  0999 V2000
   -2.1760   -1.1640   -1.1690 O   0  0  0  0  0  0  0  0  0  0  0  0
   -1.8000   -0.1060   -0.3610 C   0  0  1  0  0  0  0  0  0  0  0  0
   -2.5240   -0.0700    0.8350 O   0  0  0  0  0  0  0  0  0  0  0  0
   -0.3450   -0.3360    0.0320 C   0  0  2  0  0  0  0  0  0  0  0  0
    0.0990    0.6810    1.0220 C   0  0  0  0  0  0  0  0  0  0  0  0
    1.4380    0.8520    1.1490 O   0  0  0  0  0  0  0  0  0  0  0  0
    2.2070    0.5640    0.0650 C   0  0  0  0  0  0  0  0  0  0  0  0
    1.7450   -0.6820   -0.6710 C   0  0  0  0  0  0  0  0  0  0  0  0
    0.4360   -0.3790   -1.1210 O   0  0  0  0  0  0  0  0  0  0  0  0
  2  1  1  6
  2  3  1  0
  2  4  1  0
  4  5  1  1
  4  9  1  0
  5  6  1  0
  6  7  1  0
  7  8  1  0
  8  9  1  0
M  END
