
     RDKit          3D

 21 22  0  0  0  0  0  0  0  0999 V2000
   -2.1000   -2.0250    0.7650 C   0  0  0  0  0  0  0  0  0  0  0  0
   -1.7990   -0.5260    0.8530 C   0  0  1  0  0  0  0  0  0  0  0  0
   -0.8380   -0.2250   -0.2250 C   0  0  0  0  0  0  0  0  0  0  0  0
    0.5160   -0.7520   -0.3300 C   0  0  0  0  0  0  0  0  0  0  0  0
    1.0040   -1.5390    0.5210 O   0  0  0  0  0  0  0  0  0  0  0  0
    1.3570   -0.4100   -1.3930 O   0  0  0  0  0  0  0  0  0  0  0  0
    2.6620   -0.9260   -1.4810 C   0  0  0  0  0  0  0  0  0  0  0  0
    3.4930   -0.5510   -0.3050 C   0  0  0  0  0  0  0  0  0  0  0  0
    3.0670    0.1410    0.6380 O   0  0  0  0  0  0  0  0  0  0  0  0
    4.8040   -1.0060   -0.2800 O   0  0  0  0  0  0  0  0  0  0  0  0
    5.7070   -0.7260    0.7730 C   0  0  0  0  0  0  0  0  0  0  0  0
    5.9350    0.7590    0.9530 C   0  0  0  0  0  0  0  0  0  0  0  0
    6.8320    0.9170    2.0070 O   0  0  0  0  0  0  0  0  0  0  0  0
   -1.4520    0.5970   -1.0460 C   0  0  0  0  0  0  0  0  0  0  0  0
   -2.7980    0.8910   -0.6000 C   0  0  0  0  0  0  0  0  0  0  0  0
   -3.0180    0.2420    0.5120 C   0  0  0  0  0  0  0  0  0  0  0  0
   -4.4160    0.5310    1.0040 C   0  0  2  0  0  0  0  0  0  0  0  0
   -4.9510   -0.5760    1.6520 O   0  0  0  0  0  0  0  0  0  0  0  0
   -5.1190    0.8280   -0.3020 C   0  0  0  0  0  0  0  0  0  0  0  0
   -4.0350    1.6850   -0.9730 C   0  0  1  0  0  0  0  0  0  0  0  0
   -3.9770    2.8810   -0.2970 O   0  0  0  0  0  0  0  0  0  0  0  0
  2  1  1  6
  2  3  1  0
  2 16  1  0
  3  4  1  0
  3 14  2  0
  4  5  2  0
  4  6  1  0
  6  7  1  0
  7  8  1  0
  8  9  2  0
  8 10  1  0
 10 11  1  0
 11 12  1  0
 12 13  1  0
 14 15  1  0
 15 16  2  0
 15 20  1  0
 16 17  1  0
 17 18  1  6
 17 19  1  0
 19 20  1  0
 20 21  1  1
M  END
