
     RDKit          3D

 22 23  0  0  0  0  0  0  0  0999 V2000
    3.2810   -2.1140    0.6360 O   0  0  0  0  0  0  0  0  0  0  0  0
    3.2660   -1.0230    0.0190 C   0  0  0  0  0  0  0  0  0  0  0  0
    4.4420   -0.7510   -0.8870 C   0  0  0  0  0  0  0  0  0  0  0  0
    5.5900   -0.3850    0.0480 C   0  0  0  0  0  0  0  0  0  0  0  0
    6.8520   -0.0700   -0.7150 C   0  0  0  0  0  0  0  0  0  0  0  0
    6.6110    1.0170   -1.5720 O   0  0  0  0  0  0  0  0  0  0  0  0
    2.2360   -0.1510    0.1720 O   0  0  0  0  0  0  0  0  0  0  0  0
    1.1310   -0.4350    1.0420 C   0  0  1  0  0  0  0  0  0  0  0  0
    1.0900    0.7160    2.0140 C   0  0  0  0  0  0  0  0  0  0  0  0
    0.7410    1.8460    1.0730 C   0  0  0  0  0  0  0  0  0  0  0  0
   -0.1910    1.2160    0.0600 C   0  0  0  0  0  0  0  0  0  0  0  0
   -0.1740   -0.2810    0.2780 C   0  0  1  0  0  0  0  0  0  0  0  0
   -0.0650   -0.9640   -0.9360 O   0  0  0  0  0  0  0  0  0  0  0  0
   -1.2920   -0.7470    1.1180 C   0  0  0  0  0  0  0  0  0  0  0  0
   -2.6540   -0.7700    0.6040 C   0  0  1  0  0  0  0  0  0  0  0  0
   -3.3260    0.4590    0.1300 C   0  0  0  0  0  0  0  0  0  0  0  0
   -4.7130   -0.1740   -0.1750 C   0  0  1  0  0  0  0  0  0  0  0  0
   -5.4370   -0.0750    0.9970 O   0  0  0  0  0  0  0  0  0  0  0  0
   -5.3900    0.5770   -1.2930 C   0  0  0  0  0  0  0  0  0  0  0  0
   -5.4930    1.9100   -0.9510 O   0  0  0  0  0  0  0  0  0  0  0  0
   -4.3120   -1.5700   -0.5290 C   0  0  0  0  0  0  0  0  0  0  0  0
   -2.9000   -1.6360   -0.4590 O   0  0  0  0  0  0  0  0  0  0  0  0
  1  2  2  0
  2  3  1  0
  2  7  1  0
  3  4  1  0
  4  5  1  0
  5  6  1  0
  8  7  1  6
  8  9  1  0
  8 12  1  0
  9 10  1  0
 10 11  1  0
 11 12  1  0
 12 13  1  6
 12 14  1  0
 15 14  1  6
 15 16  1  0
 15 22  1  0
 16 17  1  0
 17 18  1  1
 17 19  1  0
 17 21  1  0
 19 20  1  0
 21 22  1  0
M  END
