
     RDKit          3D

 22 23  0  0  0  0  0  0  0  0999 V2000
   -2.9660   -1.9090    1.6740 O   0  0  0  0  0  0  0  0  0  0  0  0
   -3.7750   -1.0730    1.2060 C   0  0  0  0  0  0  0  0  0  0  0  0
   -5.1290   -1.2280    1.4580 O   0  0  0  0  0  0  0  0  0  0  0  0
   -5.9350   -0.0630    1.2350 C   0  0  0  0  0  0  0  0  0  0  0  0
   -5.7230    0.5320   -0.1170 C   0  0  0  0  0  0  0  0  0  0  0  0
   -4.3800    0.2360   -0.7230 C   0  0  0  0  0  0  0  0  0  0  0  0
   -3.3640    0.0940    0.3830 C   0  0  2  0  0  0  0  0  0  0  0  0
   -1.9800   -0.2010   -0.1480 C   0  0  1  0  0  0  0  0  0  0  0  0
   -2.0070   -1.3670   -0.9310 O   0  0  0  0  0  0  0  0  0  0  0  0
   -1.3640    0.9500   -0.8560 C   0  0  0  0  0  0  0  0  0  0  0  0
   -0.0820    0.7500   -1.2240 O   0  0  0  0  0  0  0  0  0  0  0  0
    0.8640    0.5190   -0.2760 C   0  0  2  0  0  0  0  0  0  0  0  0
    1.9350    1.5920   -0.2220 C   0  0  0  0  0  0  0  0  0  0  0  0
    2.9480    1.1920    0.6670 O   0  0  0  0  0  0  0  0  0  0  0  0
    3.4950   -0.0840    0.6650 C   0  0  0  0  0  0  0  0  0  0  0  0
    4.7820   -0.3180    0.7930 C   0  0  0  0  0  0  0  0  0  0  0  0
    5.7480    0.7470    0.9490 C   0  0  0  0  0  0  0  0  0  0  0  0
    7.0340    0.5640    1.0790 C   0  0  0  0  0  0  0  0  0  0  0  0
    7.5280   -0.7350    1.0700 O   0  0  0  0  0  0  0  0  0  0  0  0
    2.5260   -1.2070    0.5060 C   0  0  2  0  0  0  0  0  0  0  0  0
    3.2570   -2.2710   -0.0640 O   0  0  0  0  0  0  0  0  0  0  0  0
    1.4570   -0.8480   -0.4980 C   0  0  0  0  0  0  0  0  0  0  0  0
  1  2  2  0
  2  3  1  0
  2  7  1  0
  3  4  1  0
  4  5  1  0
  5  6  1  0
  7  6  1  6
  7  8  1  0
  8  9  1  6
  8 10  1  0
 10 11  1  0
 12 11  1  6
 12 13  1  0
 12 22  1  0
 13 14  1  0
 14 15  1  0
 15 16  2  3
 15 20  1  0
 16 17  1  0
 17 18  2  3
 18 19  1  0
 20 21  1  6
 20 22  1  0
M  END
