
     RDKit          3D

 22 23  0  0  0  0  0  0  0  0999 V2000
    3.6540    1.1380   -3.0390 C   0  0  0  0  0  0  0  0  0  0  0  0
    3.4080    0.7940   -1.6790 O   0  0  0  0  0  0  0  0  0  0  0  0
    2.7920   -0.3930   -1.3180 C   0  0  0  0  0  0  0  0  0  0  0  0
    2.4610   -1.1540   -2.2720 O   0  0  0  0  0  0  0  0  0  0  0  0
    2.5270   -0.7740    0.0630 C   0  0  2  0  0  0  0  0  0  0  0  0
    1.9420   -2.0440    0.0610 O   0  0  0  0  0  0  0  0  0  0  0  0
    1.6640    0.2090    0.8380 C   0  0  2  0  0  0  0  0  0  0  0  0
    2.3970    1.5160    0.9670 C   0  0  0  0  0  0  0  0  0  0  0  0
    3.6820    1.3570    1.4640 O   0  0  0  0  0  0  0  0  0  0  0  0
    1.5010   -0.4360    2.2180 C   0  0  0  0  0  0  0  0  0  0  0  0
    0.0960   -1.0410    2.0570 C   0  0  0  0  0  0  0  0  0  0  0  0
   -0.5480    0.0680    1.2640 C   0  0  2  0  0  0  0  0  0  0  0  0
   -0.8190    1.2140    2.2140 C   0  0  0  0  0  0  0  0  0  0  0  0
   -1.8260   -0.4680    0.6520 C   0  0  2  0  0  0  0  0  0  0  0  0
   -2.7330   -0.7460    1.7020 O   0  0  0  0  0  0  0  0  0  0  0  0
   -1.5730   -1.7980   -0.0110 C   0  0  0  0  0  0  0  0  0  0  0  0
   -2.8010   -2.1020   -0.8810 C   0  0  0  0  0  0  0  0  0  0  0  0
   -2.7660   -1.1730   -1.9190 O   0  0  0  0  0  0  0  0  0  0  0  0
   -3.2400    0.0230   -1.3950 C   0  0  2  0  0  0  0  0  0  0  0  0
   -3.2840    1.1010   -2.4600 C   0  0  0  0  0  0  0  0  0  0  0  0
   -2.4610    0.5340   -0.2440 C   0  0  0  0  0  0  0  0  0  0  0  0
    0.4060    0.3720    0.3320 O   0  0  0  0  0  0  0  0  0  0  0  0
  1  2  1  0
  2  3  1  0
  3  4  2  0
  3  5  1  0
  5  6  1  6
  5  7  1  0
  7  8  1  1
  7 10  1  0
  7 22  1  0
  8  9  1  0
 10 11  1  0
 11 12  1  0
 12 13  1  1
 12 14  1  0
 12 22  1  0
 14 15  1  1
 14 16  1  0
 14 21  1  0
 16 17  1  0
 17 18  1  0
 18 19  1  0
 19 20  1  6
 19 21  1  0
M  END
