
     RDKit          3D

 24 27  0  0  0  0  0  0  0  0999 V2000
   -4.3220    3.5220   -0.1570 O   0  0  0  0  0  0  0  0  0  0  0  0
   -4.1310    2.2800   -0.2390 C   0  0  0  0  0  0  0  0  0  0  0  0
   -2.9940    1.7620   -0.7720 N   0  0  0  0  0  0  0  0  0  0  0  0
   -2.7980    0.4440   -0.8560 C   0  0  0  0  0  0  0  0  0  0  0  0
   -1.3510   -0.3290   -1.5390 S   0  0  0  0  0  0  0  0  0  0  0  0
   -0.1570   -0.5280   -0.1060 C   0  0  0  0  0  0  0  0  0  0  0  0
    0.2390    0.8040    0.2970 C   0  0  0  0  0  0  0  0  0  0  0  0
    1.3680    1.3770    0.3950 C   0  0  0  0  0  0  0  0  0  0  0  0
    2.7360    0.9650    0.1620 C   0  0  0  0  0  0  0  0  0  0  0  0
    3.7150    1.9760    0.1000 C   0  0  0  0  0  0  0  0  0  0  0  0
    5.0470    1.6920   -0.0670 C   0  0  0  0  0  0  0  0  0  0  0  0
    5.4370    0.4050   -0.1770 C   0  0  0  0  0  0  0  0  0  0  0  0
    4.5440   -0.6220   -0.1240 C   0  0  0  0  0  0  0  0  0  0  0  0
    3.1860   -0.3050    0.0480 C   0  0  0  0  0  0  0  0  0  0  0  0
    5.1420   -1.9520   -0.2430 C   0  0  0  0  0  0  0  0  0  0  0  0
    6.3080   -1.9290   -0.9530 O   0  0  0  0  0  0  0  0  0  0  0  0
    7.0000   -0.4100   -0.4180 S   0  0  0  0  0  0  0  0  0  0  0  0
   -3.8000   -0.3860   -0.3790 C   0  0  0  0  0  0  0  0  0  0  0  0
   -3.6610   -1.7290   -0.4360 N   0  0  0  0  0  0  0  0  0  0  0  0
   -4.6100   -2.5770    0.0170 C   0  0  0  0  0  0  0  0  0  0  0  0
   -5.7450   -2.0070    0.5480 C   0  0  0  0  0  0  0  0  0  0  0  0
   -5.9180   -0.6890    0.6210 N   0  0  0  0  0  0  0  0  0  0  0  0
   -4.9500    0.1200    0.1600 C   0  0  0  0  0  0  0  0  0  0  0  0
   -5.0900    1.4550    0.2180 N   0  0  0  0  0  0  0  0  0  0  0  0
  1  2  2  0
  2  3  1  0
  2 24  1  0
  3  4  2  0
  4  5  1  0
  4 18  1  0
  5  6  1  0
  6  7  1  0
  7  8  2  3
  8  9  1  0
  9 10  2  0
  9 14  1  0
 10 11  1  0
 11 12  2  0
 12 13  1  0
 12 17  1  0
 13 14  2  0
 13 15  1  0
 15 16  1  0
 16 17  1  0
 18 19  2  0
 18 23  1  0
 19 20  1  0
 20 21  2  0
 21 22  1  0
 22 23  2  0
 23 24  1  0
M  END
