
     RDKit          3D

 24 26  0  0  0  0  0  0  0  0999 V2000
    6.3640   -1.9340   -0.8430 C   0  0  0  0  0  0  0  0  0  0  0  0
    5.4240   -0.8890   -0.3810 C   0  0  0  0  0  0  0  0  0  0  0  0
    4.0960   -0.8680   -0.2350 C   0  0  0  0  0  0  0  0  0  0  0  0
    3.4580    0.2170    0.2100 C   0  0  0  0  0  0  0  0  0  0  0  0
    2.0230    0.3870    0.4180 N   0  0  0  0  0  0  0  0  0  0  0  0
    1.0680   -0.6350    0.1610 C   0  0  0  0  0  0  0  0  0  0  0  0
    1.4220   -1.7370   -0.2600 O   0  0  0  0  0  0  0  0  0  0  0  0
   -0.3140   -0.4360    0.3740 N   0  0  0  0  0  0  0  0  0  0  0  0
   -1.3700   -1.3440    0.1800 C   0  0  0  0  0  0  0  0  0  0  0  0
   -1.0890   -2.7140    0.3330 C   0  0  0  0  0  0  0  0  0  0  0  0
   -2.1170   -3.5900    0.3490 N   0  0  0  0  0  0  0  0  0  0  0  0
   -3.3700   -3.1390    0.2200 C   0  0  0  0  0  0  0  0  0  0  0  0
   -3.6550   -1.8410    0.0700 N   0  0  0  0  0  0  0  0  0  0  0  0
   -2.6540   -0.9170    0.0440 C   0  0  0  0  0  0  0  0  0  0  0  0
   -2.9830    0.4770   -0.3070 C   0  0  0  0  0  0  0  0  0  0  0  0
   -2.1060    1.2380   -0.9050 C   0  0  0  0  0  0  0  0  0  0  0  0
   -2.6310    2.5590   -1.1500 C   0  0  0  0  0  0  0  0  0  0  0  0
   -3.8620    2.7110   -0.7230 C   0  0  0  0  0  0  0  0  0  0  0  0
   -4.4610    1.3470   -0.0240 S   0  0  0  0  0  0  0  0  0  0  0  0
   -5.3870    0.2190   -0.7420 C   0  0  0  0  0  0  0  0  0  0  0  0
   -3.9140    1.0430    1.6490 O   0  0  0  0  0  0  0  0  0  0  0  0
    4.2690    1.3230    0.5110 C   0  0  0  0  0  0  0  0  0  0  0  0
    3.9150    2.6700    1.0200 C   0  0  0  0  0  0  0  0  0  0  0  0
    5.9130    0.7050    0.1240 S   0  0  0  0  0  0  0  0  0  0  0  0
  1  2  1  0
  2  3  2  0
  2 24  1  0
  3  4  1  0
  4  5  1  0
  4 22  2  0
  5  6  1  0
  6  7  2  0
  6  8  1  0
  8  9  1  0
  9 10  2  0
  9 14  1  0
 10 11  1  0
 11 12  2  0
 12 13  1  0
 13 14  2  0
 14 15  1  0
 15 16  2  0
 15 19  1  0
 16 17  1  0
 17 18  2  0
 18 19  1  0
 19 20  1  0
 19 21  2  0
 22 23  1  0
 22 24  1  0
M  END
