
     RDKit          3D

 24 27  0  0  0  0  0  0  0  0999 V2000
   -4.9070   -1.8870   -0.3720 C   0  0  0  0  0  0  0  0  0  0  0  0
   -4.1410   -1.2690    0.6910 N   0  0  0  0  0  0  0  0  0  0  0  0
   -3.3400   -0.1320    0.3290 C   0  0  0  0  0  0  0  0  0  0  0  0
   -3.8370    1.1470    0.3830 C   0  0  0  0  0  0  0  0  0  0  0  0
   -3.1120    2.2700    0.0470 C   0  0  0  0  0  0  0  0  0  0  0  0
   -1.8020    2.0930   -0.3710 C   0  0  0  0  0  0  0  0  0  0  0  0
   -0.8240    2.9390   -0.7660 N   0  0  0  0  0  0  0  0  0  0  0  0
    0.2790    2.2320   -1.0700 C   0  0  0  0  0  0  0  0  0  0  0  0
    1.5510    2.5810   -1.5200 C   0  0  0  0  0  0  0  0  0  0  0  0
    2.4870    1.5940   -1.7440 C   0  0  0  0  0  0  0  0  0  0  0  0
    2.2340    0.2490   -1.5450 C   0  0  0  0  0  0  0  0  0  0  0  0
    3.2220   -0.7460   -1.7860 N   0  0  0  0  0  0  0  0  0  0  0  0
    4.1110   -1.0500   -0.9080 C   0  0  0  0  0  0  0  0  0  0  0  0
    4.3150   -0.5220    0.3950 N   0  0  0  0  0  0  0  0  0  0  0  0
    4.9010   -1.4680    1.2960 C   0  0  0  0  0  0  0  0  0  0  0  0
    6.1330   -2.0690    0.6040 C   0  0  0  0  0  0  0  0  0  0  0  0
    5.4190   -2.2880   -1.0810 S   0  0  0  0  0  0  0  0  0  0  0  0
    0.9730   -0.0890   -1.1000 C   0  0  0  0  0  0  0  0  0  0  0  0
    0.0290    0.8900   -0.8720 C   0  0  0  0  0  0  0  0  0  0  0  0
   -1.2890    0.8160   -0.4300 C   0  0  0  0  0  0  0  0  0  0  0  0
   -2.0360   -0.3020   -0.0870 C   0  0  0  0  0  0  0  0  0  0  0  0
   -4.1760   -1.8540    2.3110 S   0  0  2  0  0  0  0  0  0  0  0  0
   -5.5390   -2.3790    2.6250 O   0  0  0  0  0  0  0  0  0  0  0  0
   -3.9200   -0.6500    3.2070 O   0  0  0  0  0  0  0  0  0  0  0  0
  1  2  1  0
  2  3  1  0
 22  2  1  6
  3  4  2  0
  3 21  1  0
  4  5  1  0
  5  6  2  0
  6  7  1  0
  6 20  1  0
  7  8  1  0
  8  9  2  0
  8 19  1  0
  9 10  1  0
 10 11  2  0
 11 12  1  0
 11 18  1  0
 12 13  2  3
 13 14  1  0
 13 17  1  0
 14 15  1  0
 15 16  1  0
 16 17  1  0
 18 19  2  0
 19 20  1  0
 20 21  2  0
 22 23  2  0
 22 24  2  0
M  END
