
     RDKit          3D

 16 17  0  0  0  0  0  0  0  0999 V2000
   -0.7230    1.9190   -0.0500 C   0  0  0  0  0  0  0  0  0  0  0  0
   -1.1260    0.6860   -0.1110 C   0  0  0  0  0  0  0  0  0  0  0  0
   -0.4040   -0.3590   -0.8360 C   0  0  0  0  0  0  0  0  0  0  0  0
    0.7120    0.0270   -1.5560 O   0  0  0  0  0  0  0  0  0  0  0  0
    1.9530    0.0200   -0.9640 C   0  0  0  0  0  0  0  0  0  0  0  0
    3.0580    0.4040   -1.6820 C   0  0  0  0  0  0  0  0  0  0  0  0
    4.2980    0.4030   -1.1080 C   0  0  0  0  0  0  0  0  0  0  0  0
    4.4390    0.0130    0.2040 C   0  0  0  0  0  0  0  0  0  0  0  0
    6.0150    0.0110    0.9340 Cl  0  0  0  0  0  0  0  0  0  0  0  0
    3.3490   -0.3740    0.9400 C   0  0  0  0  0  0  0  0  0  0  0  0
    2.1080   -0.3660    0.3430 C   0  0  0  0  0  0  0  0  0  0  0  0
   -0.7620   -1.6280   -0.8350 C   0  0  0  0  0  0  0  0  0  0  0  0
   -1.9770   -2.0380   -0.0490 C   0  0  0  0  0  0  0  0  0  0  0  0
   -2.9630   -0.8750   -0.2100 C   0  0  0  0  0  0  0  0  0  0  0  0
   -2.3760    0.2780    0.5780 C   0  0  2  0  0  0  0  0  0  0  0  0
   -3.3100    1.3780    0.6930 N   0  0  0  0  0  0  0  0  0  0  0  0
  1  2  2  0
  2  3  1  0
  2 15  1  0
  3  4  1  0
  3 12  2  0
  4  5  1  0
  5  6  2  0
  5 11  1  0
  6  7  1  0
  7  8  2  0
  8  9  1  0
  8 10  1  0
 10 11  2  0
 12 13  1  0
 13 14  1  0
 14 15  1  0
 15 16  1  6
M  CHG  1  16   1
M  END
