
     RDKit          3D

 16 17  0  0  0  0  0  0  0  0999 V2000
    2.8250    1.4630   -1.0000 C   0  0  0  0  0  0  0  0  0  0  0  0
    3.0210   -0.0140   -1.0040 C   0  0  0  0  0  0  0  0  0  0  0  0
    2.5930   -0.7080    0.2530 C   0  0  1  0  0  0  0  0  0  0  0  0
    3.3180   -0.2300    1.4220 N   0  0  0  0  0  0  0  0  0  0  0  0
    1.1350   -0.6950    0.4790 C   0  0  0  0  0  0  0  0  0  0  0  0
    0.2950   -0.1340   -0.3520 C   0  0  0  0  0  0  0  0  0  0  0  0
   -1.1580   -0.1240   -0.1210 C   0  0  0  0  0  0  0  0  0  0  0  0
   -2.0560    0.4610   -0.9840 C   0  0  0  0  0  0  0  0  0  0  0  0
   -3.4290    0.4470   -0.7250 C   0  0  0  0  0  0  0  0  0  0  0  0
   -4.3630    1.0850   -1.6720 C   0  0  0  0  0  0  0  0  0  0  0  0
   -3.9140   -0.1610    0.4140 C   0  0  0  0  0  0  0  0  0  0  0  0
   -5.6410   -0.1680    0.7210 Cl  0  0  0  0  0  0  0  0  0  0  0  0
   -3.0110   -0.7440    1.2730 C   0  0  0  0  0  0  0  0  0  0  0  0
   -1.6500   -0.7300    1.0150 C   0  0  0  0  0  0  0  0  0  0  0  0
   -0.7450   -1.3090    1.8660 O   0  0  0  0  0  0  0  0  0  0  0  0
    0.6290   -1.3570    1.7100 C   0  0  0  0  0  0  0  0  0  0  0  0
  1  2  1  0
  2  3  1  0
  3  4  1  1
  3  5  1  0
  5  6  2  0
  5 16  1  0
  6  7  1  0
  7  8  2  0
  7 14  1  0
  8  9  1  0
  9 10  1  0
  9 11  2  0
 11 12  1  0
 11 13  1  0
 13 14  2  0
 14 15  1  0
 15 16  1  0
M  CHG  1   4   1
M  END
