
     RDKit          3D

 16 17  0  0  0  0  0  0  0  0999 V2000
   -4.3720    0.2370    1.0930 N   0  0  0  0  0  0  0  0  0  0  0  0
   -3.8230   -0.1820   -0.1550 C   0  0  0  0  0  0  0  0  0  0  0  0
   -2.3500    0.0500   -0.1860 C   0  0  0  0  0  0  0  0  0  0  0  0
   -1.7930    1.1020    0.4740 C   0  0  0  0  0  0  0  0  0  0  0  0
   -0.4200    1.3550    0.4840 C   0  0  0  0  0  0  0  0  0  0  0  0
    0.3770    0.4810   -0.2130 C   0  0  0  0  0  0  0  0  0  0  0  0
    1.8010    0.6540   -0.2830 C   0  0  0  0  0  0  0  0  0  0  0  0
    2.3190    1.4480   -1.2810 C   0  0  0  0  0  0  0  0  0  0  0  0
    3.6900    1.6000   -1.3430 C   0  0  0  0  0  0  0  0  0  0  0  0
    4.5190    0.9730   -0.4290 C   0  0  0  0  0  0  0  0  0  0  0  0
    3.9590    0.1860    0.5560 C   0  0  0  0  0  0  0  0  0  0  0  0
    2.6000    0.0050    0.6580 C   0  0  0  0  0  0  0  0  0  0  0  0
    1.9850   -0.7630    1.6120 O   0  0  0  0  0  0  0  0  0  0  0  0
   -0.1450   -0.6080   -0.9030 C   0  0  0  0  0  0  0  0  0  0  0  0
    0.9430   -1.6820   -1.7610 Cl  0  0  0  0  0  0  0  0  0  0  0  0
   -1.5040   -0.8130   -0.8830 C   0  0  0  0  0  0  0  0  0  0  0  0
  1  2  1  0
  2  3  1  0
  3  4  2  0
  3 16  1  0
  4  5  1  0
  5  6  2  0
  6  7  1  0
  6 14  1  0
  7  8  2  0
  7 12  1  0
  8  9  1  0
  9 10  2  0
 10 11  1  0
 11 12  2  0
 12 13  1  0
 14 15  1  0
 14 16  2  0
M  CHG  1   1   1
M  END
