
     RDKit          3D

 11 12  0  0  0  0  0  0  0  0999 V2000
   -2.8310   -1.1200    0.4390 C   0  0  0  0  0  0  0  0  0  0  0  0
   -1.6320   -0.3520    0.0800 C   0  0  0  0  0  0  0  0  0  0  0  0
   -1.7440    0.7320   -0.5800 N   0  0  0  0  0  0  0  0  0  0  0  0
   -0.6870    1.5840   -1.0010 C   0  0  0  0  0  0  0  0  0  0  0  0
    0.6840    1.1780   -0.6400 C   0  0  0  0  0  0  0  0  0  0  0  0
    0.7930   -0.0530    0.1070 N   0  0  0  0  0  0  0  0  0  0  0  0
    1.9130   -0.6510    0.5620 C   0  0  0  0  0  0  0  0  0  0  0  0
    3.2540   -0.1900    0.4000 N   0  0  0  0  0  0  0  0  0  0  0  0
    1.4850   -1.7620    1.1920 N   0  0  0  0  0  0  0  0  0  0  0  0
    0.1670   -1.8350    1.1230 N   0  0  0  0  0  0  0  0  0  0  0  0
   -0.2820   -0.7680    0.4450 C   0  0  0  0  0  0  0  0  0  0  0  0
  1  2  1  0
  2  3  2  0
  2 11  1  0
  3  4  1  0
  4  5  1  0
  5  6  1  0
  6  7  1  0
  6 11  1  0
  7  8  1  0
  7  9  2  0
  9 10  1  0
 10 11  2  0
M  END
