
     RDKit          3D

 11 12  0  0  0  0  0  0  0  0999 V2000
   -1.9010    1.4300    0.0840 C   0  0  0  0  0  0  0  0  0  0  0  0
   -1.0300    0.2490   -0.0070 N   0  0  0  0  0  0  0  0  0  0  0  0
   -1.4220   -1.0310   -0.1420 C   0  0  0  0  0  0  0  0  0  0  0  0
   -2.6390   -1.4540   -0.2170 N   0  0  0  0  0  0  0  0  0  0  0  0
   -0.3070   -1.8190   -0.1880 N   0  0  0  0  0  0  0  0  0  0  0  0
    0.7830   -1.0390   -0.0820 C   0  0  0  0  0  0  0  0  0  0  0  0
    2.1220   -1.3080   -0.0710 N   0  0  0  0  0  0  0  0  0  0  0  0
    3.0190   -0.3190    0.0500 C   0  0  0  0  0  0  0  0  0  0  0  0
    2.5570    0.9730    0.1630 C   0  0  0  0  0  0  0  0  0  0  0  0
    1.2370    1.2330    0.1520 N   0  0  0  0  0  0  0  0  0  0  0  0
    0.3130    0.2520    0.0310 C   0  0  0  0  0  0  0  0  0  0  0  0
  1  2  1  0
  2  3  1  0
  2 11  1  0
  3  4  2  0
  3  5  1  0
  5  6  1  0
  6  7  2  0
  6 11  1  0
  7  8  1  0
  8  9  2  0
  9 10  1  0
 10 11  2  0
M  END
