
     RDKit          3D

 11 12  0  0  0  0  0  0  0  0999 V2000
   -2.0960   -0.9650    0.2250 C   0  0  0  0  0  0  0  0  0  0  0  0
   -1.7950    0.3950   -0.1570 N   0  0  0  0  0  0  0  0  0  0  0  0
   -2.7560    1.3290   -0.4060 C   0  0  0  0  0  0  0  0  0  0  0  0
   -2.1150    2.4660   -0.7260 N   0  0  0  0  0  0  0  0  0  0  0  0
   -0.8130    2.2430   -0.6770 N   0  0  0  0  0  0  0  0  0  0  0  0
   -0.5950    0.9360   -0.3180 C   0  0  0  0  0  0  0  0  0  0  0  0
    0.7090    0.3090   -0.1650 C   0  0  0  0  0  0  0  0  0  0  0  0
    1.8850    0.9410   -0.3280 C   0  0  0  0  0  0  0  0  0  0  0  0
    2.9560    0.0360   -0.1030 N   0  0  0  0  0  0  0  0  0  0  0  0
    2.4180   -1.1240    0.6190 C   0  0  0  0  0  0  0  0  0  0  0  0
    1.0180   -1.0360    0.1600 N   0  0  0  0  0  0  0  0  0  0  0  0
  1  2  1  0
  2  3  1  0
  2  6  1  0
  3  4  2  0
  4  5  1  0
  5  6  2  0
  6  7  1  0
  7  8  2  0
  7 11  1  0
  8  9  1  0
  9 10  1  0
 10 11  1  0
M  END
