
     RDKit          3D

 11 12  0  0  0  0  0  0  0  0999 V2000
    2.7370   -0.9030   -0.2300 C   0  0  0  0  0  0  0  0  0  0  0  0
    1.5680    0.0040   -0.1070 C   0  0  0  0  0  0  0  0  0  0  0  0
    0.3080   -0.5550   -0.0440 C   0  0  0  0  0  0  0  0  0  0  0  0
   -0.8080    0.1920    0.0680 N   0  0  0  0  0  0  0  0  0  0  0  0
   -2.1250   -0.0610    0.1490 C   0  0  0  0  0  0  0  0  0  0  0  0
   -2.7160   -1.3620    0.1310 N   0  0  0  0  0  0  0  0  0  0  0  0
   -2.7900    1.1010    0.2490 N   0  0  0  0  0  0  0  0  0  0  0  0
   -1.8780    2.0710    0.2300 N   0  0  0  0  0  0  0  0  0  0  0  0
   -0.6520    1.5310    0.1190 C   0  0  0  0  0  0  0  0  0  0  0  0
    0.5990    2.1110    0.0580 C   0  0  0  0  0  0  0  0  0  0  0  0
    1.6990    1.3430   -0.0540 N   0  0  0  0  0  0  0  0  0  0  0  0
  1  2  1  0
  2  3  2  0
  2 11  1  0
  3  4  1  0
  4  5  1  0
  4  9  1  0
  5  6  1  0
  5  7  2  0
  7  8  1  0
  8  9  2  0
  9 10  1  0
 10 11  2  0
M  END
