
     RDKit          3D

 11 12  0  0  0  0  0  0  0  0999 V2000
   -1.7000   -1.4000    0.6850 C   0  0  0  0  0  0  0  0  0  0  0  0
   -1.8220   -0.0010    0.3420 N   0  0  0  0  0  0  0  0  0  0  0  0
   -3.0000    0.6950    0.3380 C   0  0  0  0  0  0  0  0  0  0  0  0
   -2.7170    1.9400   -0.0270 N   0  0  0  0  0  0  0  0  0  0  0  0
   -1.4130    2.0280   -0.2450 N   0  0  0  0  0  0  0  0  0  0  0  0
   -0.8280    0.8160   -0.0180 C   0  0  0  0  0  0  0  0  0  0  0  0
    0.5850    0.5070   -0.1470 C   0  0  0  0  0  0  0  0  0  0  0  0
    1.5280    1.3710   -0.5180 C   0  0  0  0  0  0  0  0  0  0  0  0
    2.8040    0.7620   -0.5470 N   0  0  0  0  0  0  0  0  0  0  0  0
    2.5680   -0.6840   -0.5770 C   0  0  0  0  0  0  0  0  0  0  0  0
    1.2580   -0.7210    0.0830 N   0  0  0  0  0  0  0  0  0  0  0  0
  1  2  1  0
  2  3  1  0
  2  6  1  0
  3  4  2  0
  4  5  1  0
  5  6  2  0
  6  7  1  0
  7  8  2  0
  7 11  1  0
  8  9  1  0
  9 10  1  0
 10 11  1  0
M  END
