
     RDKit          3D

 11 12  0  0  0  0  0  0  0  0999 V2000
   -2.7580   -0.5790    0.3750 C   0  0  0  0  0  0  0  0  0  0  0  0
   -1.3550   -0.8220    0.2370 N   0  0  0  0  0  0  0  0  0  0  0  0
   -0.4570    0.0770    0.2080 C   0  0  0  0  0  0  0  0  0  0  0  0
   -0.6800    1.3890    0.3010 N   0  0  0  0  0  0  0  0  0  0  0  0
    0.3300    2.2700    0.2610 C   0  0  0  0  0  0  0  0  0  0  0  0
    1.6160    1.9060    0.1260 N   0  0  0  0  0  0  0  0  0  0  0  0
    1.9000    0.5840    0.0270 C   0  0  0  0  0  0  0  0  0  0  0  0
    3.0330   -0.1230   -0.1130 N   0  0  0  0  0  0  0  0  0  0  0  0
    2.7580   -1.4260   -0.1620 C   0  0  0  0  0  0  0  0  0  0  0  0
    1.4290   -1.5530   -0.0510 N   0  0  0  0  0  0  0  0  0  0  0  0
    0.8760   -0.3370    0.0660 C   0  0  0  0  0  0  0  0  0  0  0  0
  1  2  1  0
  2  3  2  3
  3  4  1  0
  3 11  1  0
  4  5  1  0
  5  6  2  0
  6  7  1  0
  7  8  1  0
  7 11  2  0
  8  9  2  0
  9 10  1  0
 10 11  1  0
M  END
