
     RDKit          3D

 11 12  0  0  0  0  0  0  0  0999 V2000
   -2.9680   -1.2000   -0.3400 N   0  0  0  0  0  0  0  0  0  0  0  0
   -1.6980   -0.5380   -0.1590 C   0  0  0  0  0  0  0  0  0  0  0  0
   -1.6740    0.8050    0.1560 C   0  0  0  0  0  0  0  0  0  0  0  0
   -0.5040    1.4450    0.3300 N   0  0  0  0  0  0  0  0  0  0  0  0
    0.6810    0.8130    0.2060 C   0  0  0  0  0  0  0  0  0  0  0  0
    1.8870    1.4460    0.3790 C   0  0  0  0  0  0  0  0  0  0  0  0
    3.0260    0.7720    0.2440 N   0  0  0  0  0  0  0  0  0  0  0  0
    2.9960   -0.5220   -0.0600 C   0  0  0  0  0  0  0  0  0  0  0  0
    1.8210   -1.1380   -0.2280 N   0  0  0  0  0  0  0  0  0  0  0  0
    0.6220   -0.5370   -0.1120 C   0  0  0  0  0  0  0  0  0  0  0  0
   -0.5440   -1.1820   -0.2870 N   0  0  0  0  0  0  0  0  0  0  0  0
  1  2  1  0
  2  3  2  0
  2 11  1  0
  3  4  1  0
  4  5  2  0
  5  6  1  0
  5 10  1  0
  6  7  2  0
  7  8  1  0
  8  9  2  0
  9 10  1  0
 10 11  2  0
M  END
