
     RDKit          3D

 11 12  0  0  0  0  0  0  0  0999 V2000
    2.6720   -0.5990    0.0540 C   0  0  0  0  0  0  0  0  0  0  0  0
    1.2380   -0.7110   -0.0520 N   0  0  0  0  0  0  0  0  0  0  0  0
    0.6540   -1.9790   -0.0160 N   0  0  0  0  0  0  0  0  0  0  0  0
   -0.5870   -2.3090    0.0350 C   0  0  0  0  0  0  0  0  0  0  0  0
   -1.7490   -1.4620    0.0710 N   0  0  0  0  0  0  0  0  0  0  0  0
   -1.8710   -0.1220    0.5590 C   0  0  0  0  0  0  0  0  0  0  0  0
   -0.7770    0.7620    0.0790 C   0  0  0  0  0  0  0  0  0  0  0  0
   -0.9830    2.0580   -0.1850 N   0  0  0  0  0  0  0  0  0  0  0  0
    0.1790    2.6220   -0.6040 C   0  0  0  0  0  0  0  0  0  0  0  0
    1.1390    1.6730   -0.6060 N   0  0  0  0  0  0  0  0  0  0  0  0
    0.5550    0.5180   -0.1840 C   0  0  0  0  0  0  0  0  0  0  0  0
  1  2  1  0
  2  3  1  0
  2 11  1  0
  3  4  2  0
  4  5  1  0
  5  6  1  0
  6  7  1  0
  7  8  1  0
  7 11  2  0
  8  9  1  0
  9 10  2  0
 10 11  1  0
M  END
