
     RDKit          3D

 14 15  0  0  0  0  0  0  0  0999 V2000
    2.7780   -1.7360    0.0490 O   0  0  0  0  0  0  0  0  0  0  0  0
    2.1580   -0.6310   -0.5390 C   0  0  0  0  0  0  0  0  0  0  0  0
    0.9520   -0.2220    0.2930 C   0  0  1  0  0  0  0  0  0  0  0  0
    0.3070    0.9520   -0.3470 C   0  0  0  0  0  0  0  0  0  0  0  0
    0.8770    2.1150   -0.7160 N   0  0  0  0  0  0  0  0  0  0  0  0
   -0.0390    2.9310   -1.2630 C   0  0  0  0  0  0  0  0  0  0  0  0
   -1.1980    2.2480   -1.2260 N   0  0  0  0  0  0  0  0  0  0  0  0
   -1.0090    1.0370   -0.6700 C   0  0  0  0  0  0  0  0  0  0  0  0
   -1.9260   -0.1020   -0.3860 C   0  0  2  0  0  0  0  0  0  0  0  0
   -3.2310    0.2820   -0.2180 O   0  0  0  0  0  0  0  0  0  0  0  0
   -1.3520   -0.7930    0.8530 C   0  0  1  0  0  0  0  0  0  0  0  0
   -2.2090   -1.7390    1.3580 O   0  0  0  0  0  0  0  0  0  0  0  0
   -0.0100   -1.3540    0.4350 C   0  0  2  0  0  0  0  0  0  0  0  0
    0.4460   -2.3380    1.2840 O   0  0  0  0  0  0  0  0  0  0  0  0
  1  2  1  0
  3  2  1  6
  3  4  1  0
  3 13  1  0
  4  5  1  0
  4  8  2  0
  5  6  1  0
  6  7  2  0
  7  8  1  0
  8  9  1  0
  9 10  1  1
  9 11  1  0
 11 12  1  6
 11 13  1  0
 13 14  1  1
M  END
