
     RDKit          3D

 17 16  0  0  0  0  0  0  0  0999 V2000
   -3.6010   -0.7070    0.8640 C   0  0  0  0  0  0  0  0  0  0  0  0
   -2.7440    0.3680    0.1550 C   0  0  2  0  0  0  0  0  0  0  0  0
   -2.9430    0.2930   -1.3310 C   0  0  0  0  0  0  0  0  0  0  0  0
   -2.5050   -0.9750   -1.8900 N   0  0  0  0  0  0  0  0  0  0  0  0
   -1.4400    0.2120    0.4770 O   0  0  0  0  0  0  0  0  0  0  0  0
   -0.5080    1.0290   -0.0680 C   0  0  0  0  0  0  0  0  0  0  0  0
    0.9050    0.7240    0.4080 C   0  0  0  0  0  0  0  0  0  0  0  0
    1.2970   -0.5500    0.1010 O   0  0  0  0  0  0  0  0  0  0  0  0
    2.5620   -0.8500    0.5340 C   0  0  0  0  0  0  0  0  0  0  0  0
    3.6590   -0.0030   -0.0160 C   0  0  0  0  0  0  0  0  0  0  0  0
    4.9530   -0.3990    0.4990 N   0  0  0  0  0  0  0  0  0  0  0  0
    5.5300   -1.6920    0.3020 C   0  0  0  0  0  0  0  0  0  0  0  0
    6.8110   -1.9920    0.8530 N   0  0  0  0  0  0  0  0  0  0  0  0
    4.9020   -2.5360   -0.3490 O   0  0  0  0  0  0  0  0  0  0  0  0
   -3.3700    1.6510    0.6140 C   0  0  0  0  0  0  0  0  0  0  0  0
   -4.7140    1.9800    0.3230 N   0  0  0  0  0  0  0  0  0  0  0  0
   -2.6860    2.4170    1.2540 O   0  0  0  0  0  0  0  0  0  0  0  0
  2  1  1  1
  2  3  1  0
  2  5  1  0
  2 15  1  0
  3  4  1  0
  5  6  1  0
  6  7  1  0
  7  8  1  0
  8  9  1  0
  9 10  1  0
 10 11  1  0
 11 12  1  0
 12 13  1  0
 12 14  2  0
 15 16  1  0
 15 17  2  0
M  CHG  2   4   1  16   1
M  END
