
     RDKit          3D

 17 16  0  0  0  0  0  0  0  0999 V2000
    6.3090    1.6720   -0.6050 N   0  0  0  0  0  0  0  0  0  0  0  0
    4.9360    2.1000   -0.4090 C   0  0  0  0  0  0  0  0  0  0  0  0
    4.0940    0.8730   -0.1730 C   0  0  0  0  0  0  0  0  0  0  0  0
    4.6170   -0.2740   -0.1700 O   0  0  0  0  0  0  0  0  0  0  0  0
    2.7010    0.9880    0.0510 N   0  0  0  0  0  0  0  0  0  0  0  0
    1.8530   -0.1460    0.2810 C   0  0  0  0  0  0  0  0  0  0  0  0
    2.4020   -1.2630    0.2770 O   0  0  0  0  0  0  0  0  0  0  0  0
    0.4160    0.0470    0.5060 C   0  0  0  0  0  0  0  0  0  0  0  0
   -0.2730   -1.2900    0.5860 C   0  0  2  0  0  0  0  0  0  0  0  0
   -0.1350   -2.0240   -0.6260 N   0  0  0  0  0  0  0  0  0  0  0  0
   -1.7160   -1.0950    0.9260 C   0  0  0  0  0  0  0  0  0  0  0  0
   -1.9580   -0.4970    2.0090 O   0  0  0  0  0  0  0  0  0  0  0  0
   -2.6870   -1.5810    0.0340 N   0  0  0  0  0  0  0  0  0  0  0  0
   -4.0920   -1.3910    0.3650 C   0  0  0  0  0  0  0  0  0  0  0  0
   -4.4740    0.0540    0.5010 C   0  0  0  0  0  0  0  0  0  0  0  0
   -4.2320    0.8250   -0.7660 C   0  0  0  0  0  0  0  0  0  0  0  0
   -4.9660    0.3150   -1.8390 O   0  0  0  0  0  0  0  0  0  0  0  0
  1  2  1  0
  2  3  1  0
  3  4  2  0
  3  5  1  0
  5  6  1  0
  6  7  2  0
  6  8  1  0
  8  9  1  0
  9 10  1  6
  9 11  1  0
 11 12  2  0
 11 13  1  0
 13 14  1  0
 14 15  1  0
 15 16  1  0
 16 17  1  0
M  CHG  2   1   1  10   1
M  END
