
     RDKit          3D

 16 16  0  0  0  0  0  0  0  0999 V2000
   -4.5550   -0.8700    0.9460 C   0  0  0  0  0  0  0  0  0  0  0  0
   -3.8840    0.3290    0.6280 O   0  0  0  0  0  0  0  0  0  0  0  0
   -2.6750    0.3740   -0.0450 C   0  0  0  0  0  0  0  0  0  0  0  0
   -2.4750    1.3800   -0.8780 C   0  0  0  0  0  0  0  0  0  0  0  0
   -3.4380    2.3730   -1.0860 O   0  0  0  0  0  0  0  0  0  0  0  0
   -1.6600   -0.6730    0.1730 C   0  0  0  0  0  0  0  0  0  0  0  0
   -0.4670   -0.4890   -0.5930 N   0  0  0  0  0  0  0  0  0  0  0  0
    0.3780    0.5600   -0.1300 C   0  0  0  0  0  0  0  0  0  0  0  0
    1.5680    0.1510    0.6610 C   0  0  0  0  0  0  0  0  0  0  0  0
    2.5410   -0.7460   -0.0460 C   0  0  2  0  0  0  0  0  0  0  0  0
    3.6150   -1.0220    0.8860 N   0  0  0  0  0  0  0  0  0  0  0  0
    4.5160    0.0670    0.8140 C   0  0  0  0  0  0  0  0  0  0  0  0
    5.3600    0.4650    1.6620 O   0  0  0  0  0  0  0  0  0  0  0  0
    4.2910    0.6750   -0.4640 N   0  0  0  0  0  0  0  0  0  0  0  0
    3.2690   -0.0500   -1.1330 C   0  0  0  0  0  0  0  0  0  0  0  0
    3.0070   -0.1150   -2.3500 O   0  0  0  0  0  0  0  0  0  0  0  0
  1  2  1  0
  2  3  1  0
  3  4  2  3
  3  6  1  0
  4  5  1  0
  6  7  1  0
  7  8  1  0
  8  9  1  0
 10  9  1  1
 10 11  1  0
 10 15  1  0
 11 12  1  0
 12 13  2  0
 12 14  1  0
 14 15  1  0
 15 16  2  0
M  CHG  1   7   1
M  END
