
     RDKit          3D

 16 16  0  0  0  0  0  0  0  0999 V2000
   -3.4860    0.1490   -0.9940 C   0  0  0  0  0  0  0  0  0  0  0  0
   -2.1350   -0.4330   -0.5350 C   0  0  1  0  0  0  0  0  0  0  0  0
   -1.3720    0.6510   -0.0550 N   0  0  0  0  0  0  0  0  0  0  0  0
    0.0030    0.4130    0.2350 C   0  0  1  0  0  0  0  0  0  0  0  0
    0.7940   -0.1720   -0.8660 C   0  0  0  0  0  0  0  0  0  0  0  0
    2.2170   -0.4130   -0.5530 C   0  0  0  0  0  0  0  0  0  0  0  0
    3.3030    0.4160   -0.7390 C   0  0  0  0  0  0  0  0  0  0  0  0
    4.4160   -0.2110   -0.3060 N   0  0  0  0  0  0  0  0  0  0  0  0
    4.0620   -1.4200    0.1520 C   0  0  0  0  0  0  0  0  0  0  0  0
    2.7520   -1.5400    0.0050 N   0  0  0  0  0  0  0  0  0  0  0  0
    0.5870    1.6960    0.6880 C   0  0  0  0  0  0  0  0  0  0  0  0
    1.7760    1.7820    1.0770 O   0  0  0  0  0  0  0  0  0  0  0  0
   -0.1480    2.8730    0.7070 O   0  0  0  0  0  0  0  0  0  0  0  0
   -2.4750   -1.4350    0.5050 C   0  0  0  0  0  0  0  0  0  0  0  0
   -2.0660   -1.2300    1.6710 O   0  0  0  0  0  0  0  0  0  0  0  0
   -3.2140   -2.5770    0.2630 O   0  0  0  0  0  0  0  0  0  0  0  0
  2  1  1  1
  2  3  1  0
  2 14  1  0
  3  4  1  0
  4  5  1  6
  4 11  1  0
  5  6  1  0
  6  7  2  0
  6 10  1  0
  7  8  1  0
  8  9  1  0
  9 10  2  0
 11 12  2  0
 11 13  1  0
 14 15  2  0
 14 16  1  0
M  CHG  1   3   1
M  END
