
     RDKit          3D

 22 25  0  0  0  0  0  0  0  0999 V2000
    2.3760    3.8150   -0.8700 Cl  0  0  0  0  0  0  0  0  0  0  0  0
    2.8870    2.1920   -0.4630 C   0  0  0  0  0  0  0  0  0  0  0  0
    2.1190    1.1230   -0.6850 C   0  0  0  0  0  0  0  0  0  0  0  0
    2.5300   -0.1880   -0.3570 N   0  0  0  0  0  0  0  0  0  0  0  0
    1.5700   -1.2270   -0.1230 C   0  0  0  0  0  0  0  0  0  0  0  0
    2.0050   -2.5030    0.1810 C   0  0  0  0  0  0  0  0  0  0  0  0
    1.0950   -3.5060    0.4080 C   0  0  0  0  0  0  0  0  0  0  0  0
   -0.2440   -3.2010    0.3230 C   0  0  0  0  0  0  0  0  0  0  0  0
   -0.6940   -1.9130    0.0160 C   0  0  0  0  0  0  0  0  0  0  0  0
   -2.1260   -1.6480   -0.0590 C   0  0  0  0  0  0  0  0  0  0  0  0
   -3.1160   -2.5450    0.1410 N   0  0  0  0  0  0  0  0  0  0  0  0
   -4.2760   -1.9290   -0.0140 N   0  0  0  0  0  0  0  0  0  0  0  0
   -4.0470   -0.6330   -0.3150 C   0  0  0  0  0  0  0  0  0  0  0  0
   -2.6920   -0.4670   -0.3410 N   0  0  0  0  0  0  0  0  0  0  0  0
   -2.1570    0.8280   -0.6380 C   0  0  0  0  0  0  0  0  0  0  0  0
   -2.8930    1.8640    0.1840 C   0  0  0  0  0  0  0  0  0  0  0  0
   -4.3770    1.7880    0.0690 C   0  0  0  0  0  0  0  0  0  0  0  0
   -4.8780    0.5500   -0.6010 C   0  0  0  0  0  0  0  0  0  0  0  0
    0.2470   -0.9920   -0.1910 N   0  0  0  0  0  0  0  0  0  0  0  0
    3.9270   -0.4810   -0.2560 C   0  0  0  0  0  0  0  0  0  0  0  0
    4.8060    0.7200   -0.4530 C   0  0  0  0  0  0  0  0  0  0  0  0
    4.2230    1.9770    0.1540 C   0  0  0  0  0  0  0  0  0  0  0  0
  1  2  1  0
  2  3  2  0
  2 22  1  0
  3  4  1  0
  4  5  1  0
  4 20  1  0
  5  6  2  0
  5 19  1  0
  6  7  1  0
  7  8  2  0
  8  9  1  0
  9 10  1  0
  9 19  2  0
 10 11  2  0
 10 14  1  0
 11 12  1  0
 12 13  2  0
 13 14  1  0
 13 18  1  0
 14 15  1  0
 15 16  1  0
 16 17  1  0
 17 18  1  0
 20 21  1  0
 21 22  1  0
M  END
