
     RDKit          3D

 16 16  0  0  0  0  0  0  0  0999 V2000
    2.9820    1.5970   -1.1790 C   0  0  0  0  0  0  0  0  0  0  0  0
    2.7200    0.2170   -1.0730 O   0  0  0  0  0  0  0  0  0  0  0  0
    2.7000   -0.3600    0.1850 C   0  0  0  0  0  0  0  0  0  0  0  0
    1.4570   -0.3520    0.9450 C   0  0  0  0  0  0  0  0  0  0  0  0
    1.3640   -0.8570    2.0930 O   0  0  0  0  0  0  0  0  0  0  0  0
    0.2780    0.2380    0.4090 N   0  0  0  0  0  0  0  0  0  0  0  0
   -0.9200    0.2730    1.0820 N   0  0  0  0  0  0  0  0  0  0  0  0
   -1.9990   -0.3030    0.4060 C   0  0  1  0  0  0  0  0  0  0  0  0
   -3.2610   -0.1970    1.2710 C   0  0  0  0  0  0  0  0  0  0  0  0
   -4.3260   -0.4240    0.2160 C   0  0  0  0  0  0  0  0  0  0  0  0
   -3.7220   -0.2590   -1.0720 N   0  0  0  0  0  0  0  0  0  0  0  0
   -2.4710    0.4360   -0.8250 C   0  0  0  0  0  0  0  0  0  0  0  0
    3.7950   -0.8910    0.6480 C   0  0  0  0  0  0  0  0  0  0  0  0
    3.8010   -1.4710    1.8970 O   0  0  0  0  0  0  0  0  0  0  0  0
    5.0090   -0.8820   -0.1310 C   0  0  0  0  0  0  0  0  0  0  0  0
    6.0810   -1.3910    0.2990 O   0  0  0  0  0  0  0  0  0  0  0  0
  1  2  1  0
  2  3  1  0
  3  4  1  0
  3 13  2  3
  4  5  2  0
  4  6  1  0
  6  7  1  0
  8  7  1  1
  8  9  1  0
  8 12  1  0
  9 10  1  0
 10 11  1  0
 11 12  1  0
 13 14  1  0
 13 15  1  0
 15 16  2  0
M  CHG  1  11   1
M  END
