
     RDKit          3D

 23 26  0  0  0  0  0  0  0  0999 V2000
    4.7910   -1.3430    1.7290 Cl  0  0  0  0  0  0  0  0  0  0  0  0
    3.3140   -0.5760    2.2880 C   0  0  0  0  0  0  0  0  0  0  0  0
    2.8170    0.4840    1.3590 C   0  0  0  0  0  0  0  0  0  0  0  0
    3.1790    1.7600    1.4480 N   0  0  0  0  0  0  0  0  0  0  0  0
    2.5880    2.4340    0.5130 N   0  0  0  0  0  0  0  0  0  0  0  0
    1.8060    1.5830   -0.2230 C   0  0  0  0  0  0  0  0  0  0  0  0
    1.0150    1.9710   -1.2850 C   0  0  0  0  0  0  0  0  0  0  0  0
   -0.3540    2.0200   -1.3380 C   0  0  0  0  0  0  0  0  0  0  0  0
   -1.1940    2.4440   -0.3240 C   0  0  0  0  0  0  0  0  0  0  0  0
   -0.8760    2.4740    1.0190 C   0  0  0  0  0  0  0  0  0  0  0  0
   -0.4560    1.4230    1.7950 C   0  0  0  0  0  0  0  0  0  0  0  0
   -0.9860    0.1350    1.8040 C   0  0  0  0  0  0  0  0  0  0  0  0
   -1.5760   -0.5610    0.8220 N   0  0  0  0  0  0  0  0  0  0  0  0
   -2.9320   -0.7990    0.8170 C   0  0  0  0  0  0  0  0  0  0  0  0
   -3.3130   -1.4720   -0.3000 C   0  0  0  0  0  0  0  0  0  0  0  0
   -2.1200   -1.6470   -0.9950 C   0  0  0  0  0  0  0  0  0  0  0  0
   -1.0780   -1.0880   -0.2910 C   0  0  0  0  0  0  0  0  0  0  0  0
    0.2350   -1.1520   -0.7170 C   0  0  0  0  0  0  0  0  0  0  0  0
    1.3880   -0.7550   -0.1320 C   0  0  0  0  0  0  0  0  0  0  0  0
    1.9530    0.3660    0.3080 N   0  0  0  0  0  0  0  0  0  0  0  0
    0.4290   -1.8680   -2.0140 C   0  0  0  0  0  0  0  0  0  0  0  0
   -0.5500   -2.3580   -2.6470 N   0  0  0  0  0  0  0  0  0  0  0  0
   -1.9150   -2.3310   -2.2920 C   0  0  0  0  0  0  0  0  0  0  0  0
  1  2  1  0
  2  3  1  0
  3  4  2  0
  3 20  1  0
  4  5  1  0
  5  6  2  0
  6  7  1  0
  6 20  1  0
  7  8  2  0
  8  9  1  0
  9 10  2  0
 10 11  1  0
 11 12  2  0
 12 13  1  0
 13 14  1  0
 13 17  1  0
 14 15  2  0
 15 16  1  0
 16 17  2  0
 16 23  1  0
 17 18  1  0
 18 19  2  0
 18 21  1  0
 19 20  1  0
 21 22  2  0
 22 23  1  0
M  END
