
     RDKit          3D

 23 26  0  0  0  0  0  0  0  0999 V2000
    5.4520    0.1270   -1.0680 C   0  0  0  0  0  0  0  0  0  0  0  0
    4.4190    0.1990    0.0220 C   0  0  0  0  0  0  0  0  0  0  0  0
    4.7310    0.6850    1.2610 C   0  0  0  0  0  0  0  0  0  0  0  0
    3.7820    0.7420    2.2370 C   0  0  0  0  0  0  0  0  0  0  0  0
    4.2020    1.3720    3.8300 Cl  0  0  0  0  0  0  0  0  0  0  0  0
    2.4790    0.3040    1.9840 C   0  0  0  0  0  0  0  0  0  0  0  0
    2.1860   -0.1810    0.7310 C   0  0  0  0  0  0  0  0  0  0  0  0
    0.8620   -0.6500    0.3230 C   0  0  0  0  0  0  0  0  0  0  0  0
    0.5920   -1.8350   -0.2760 N   0  0  0  0  0  0  0  0  0  0  0  0
   -0.6980   -1.9740   -0.5400 N   0  0  0  0  0  0  0  0  0  0  0  0
   -1.2280   -3.1400   -1.1970 C   0  0  0  0  0  0  0  0  0  0  0  0
   -1.2800   -0.8660   -0.1080 C   0  0  0  0  0  0  0  0  0  0  0  0
   -0.3270   -0.0030    0.4420 C   0  0  0  0  0  0  0  0  0  0  0  0
   -0.4750    1.3450    0.9950 C   0  0  0  0  0  0  0  0  0  0  0  0
   -1.5140    2.1100    0.7820 N   0  0  0  0  0  0  0  0  0  0  0  0
   -2.6840    1.9010    0.0380 N   0  0  0  0  0  0  0  0  0  0  0  0
   -3.3760    2.9960   -0.5710 C   0  0  0  0  0  0  0  0  0  0  0  0
   -3.2660    0.5990   -0.1510 C   0  0  0  0  0  0  0  0  0  0  0  0
   -4.6230    0.4100   -0.2920 C   0  0  0  0  0  0  0  0  0  0  0  0
   -4.8140   -0.9480   -0.4200 C   0  0  0  0  0  0  0  0  0  0  0  0
   -3.5610   -1.5840   -0.3570 C   0  0  0  0  0  0  0  0  0  0  0  0
   -2.6700   -0.6320   -0.1980 N   0  0  0  0  0  0  0  0  0  0  0  0
    3.1610   -0.2330   -0.2520 C   0  0  0  0  0  0  0  0  0  0  0  0
  1  2  1  0
  2  3  2  0
  2 23  1  0
  3  4  1  0
  4  5  1  0
  4  6  2  0
  6  7  1  0
  7  8  1  0
  7 23  2  0
  8  9  2  0
  8 13  1  0
  9 10  1  0
 10 11  1  0
 10 12  1  0
 12 13  2  0
 12 22  1  0
 13 14  1  0
 14 15  2  0
 15 16  1  0
 16 17  1  0
 16 18  1  0
 18 19  2  0
 18 22  1  0
 19 20  1  0
 20 21  2  0
 21 22  1  0
M  END
