
     RDKit          3D

 14 14  0  0  0  0  0  0  0  0999 V2000
   -2.3600   -0.6720    1.0410 N   0  0  0  0  0  0  0  0  0  0  0  0
   -1.2730    0.0940    0.4590 C   0  0  2  0  0  0  0  0  0  0  0  0
   -1.7090    1.5430    0.4770 C   0  0  0  0  0  0  0  0  0  0  0  0
   -2.1500    1.8620   -0.8840 N   0  0  0  0  0  0  0  0  0  0  0  0
   -2.9590    0.8490   -1.2680 O   0  0  0  0  0  0  0  0  0  0  0  0
   -2.2340   -0.2420   -1.7500 C   0  0  0  0  0  0  0  0  0  0  0  0
   -0.9560   -0.3710   -0.9480 C   0  0  2  0  0  0  0  0  0  0  0  0
   -0.4760   -1.6450   -0.8900 O   0  0  0  0  0  0  0  0  0  0  0  0
    0.7870   -1.8680   -1.3510 C   0  0  0  0  0  0  0  0  0  0  0  0
    1.8920   -1.1280   -0.6820 C   0  0  0  0  0  0  0  0  0  0  0  0
    2.0210   -1.3760    0.6580 O   0  0  0  0  0  0  0  0  0  0  0  0
    3.0430   -0.7200    1.2780 C   0  0  0  0  0  0  0  0  0  0  0  0
    3.0030    0.7700    1.2300 C   0  0  0  0  0  0  0  0  0  0  0  0
    1.8680    1.3250    1.8170 O   0  0  0  0  0  0  0  0  0  0  0  0
  2  1  1  6
  2  3  1  0
  2  7  1  0
  3  4  1  0
  4  5  1  0
  5  6  1  0
  6  7  1  0
  7  8  1  1
  8  9  1  0
  9 10  1  0
 10 11  1  0
 11 12  1  0
 12 13  1  0
 13 14  1  0
M  CHG  2   1   1   4   1
M  END
