
     RDKit          3D

 14 13  0  0  0  0  0  0  0  0999 V2000
   -1.8620    1.5590    1.4290 C   0  0  0  0  0  0  0  0  0  0  0  0
   -1.0760    1.0250    0.2110 C   0  0  2  0  0  0  0  0  0  0  0  0
   -1.8650   -0.1670   -0.2930 C   0  0  0  0  0  0  0  0  0  0  0  0
   -1.9870   -1.2220    0.7500 C   0  0  0  0  0  0  0  0  0  0  0  0
   -2.7130   -2.3990    0.3890 N   0  0  0  0  0  0  0  0  0  0  0  0
   -1.5190   -1.1460    1.8590 O   0  0  0  0  0  0  0  0  0  0  0  0
    0.1060    0.5830    0.7120 O   0  0  0  0  0  0  0  0  0  0  0  0
    1.0110    0.0260   -0.1390 C   0  0  0  0  0  0  0  0  0  0  0  0
    2.2220   -0.3780    0.6870 C   0  0  0  0  0  0  0  0  0  0  0  0
    3.2970   -1.0110   -0.1590 C   0  0  0  0  0  0  0  0  0  0  0  0
    3.7960   -0.1600   -1.1910 N   0  0  0  0  0  0  0  0  0  0  0  0
   -1.0290    2.0630   -0.8120 C   0  0  0  0  0  0  0  0  0  0  0  0
    0.0590    2.5420   -1.1990 O   0  0  0  0  0  0  0  0  0  0  0  0
   -2.1860    2.5550   -1.3920 O   0  0  0  0  0  0  0  0  0  0  0  0
  2  1  1  1
  2  3  1  0
  2  7  1  0
  2 12  1  0
  3  4  1  0
  4  5  1  0
  4  6  2  0
  7  8  1  0
  8  9  1  0
  9 10  1  0
 10 11  1  0
 12 13  2  0
 12 14  1  0
M  CHG  2   5   1  11   1
M  END
