
     RDKit          3D

 14 13  0  0  0  0  0  0  0  0999 V2000
   -2.5230    1.3240    2.1390 N   0  0  0  0  0  0  0  0  0  0  0  0
   -1.1800    0.7260    2.1110 C   0  0  0  0  0  0  0  0  0  0  0  0
   -1.2910   -0.5260    1.3540 C   0  0  0  0  0  0  0  0  0  0  0  0
   -0.7230   -0.8850    0.2770 C   0  0  0  0  0  0  0  0  0  0  0  0
   -1.0810   -2.2880   -0.2340 C   0  0  0  0  0  0  0  0  0  0  0  0
   -1.9990   -2.9280    0.6160 N   0  0  0  0  0  0  0  0  0  0  0  0
    0.2060   -0.1590   -0.5500 C   0  0  0  0  0  0  0  0  0  0  0  0
    0.6460   -0.7790   -1.6280 O   0  0  0  0  0  0  0  0  0  0  0  0
    0.7090    1.1890   -0.3180 C   0  0  0  0  0  0  0  0  0  0  0  0
    1.6260    1.5680   -1.3890 O   0  0  0  0  0  0  0  0  0  0  0  0
    2.7890    0.8480   -1.5940 C   0  0  0  0  0  0  0  0  0  0  0  0
    3.0320   -0.1200   -0.8440 O   0  0  0  0  0  0  0  0  0  0  0  0
    3.7340    1.2130   -2.6810 C   0  0  0  0  0  0  0  0  0  0  0  0
    3.2190    2.3100   -3.3460 O   0  0  0  0  0  0  0  0  0  0  0  0
  1  2  1  0
  2  3  1  0
  3  4  2  3
  4  5  1  0
  4  7  1  0
  5  6  1  0
  7  8  2  0
  7  9  1  0
  9 10  1  0
 10 11  1  0
 11 12  2  0
 11 13  1  0
 13 14  1  0
M  CHG  2   1   1   6   1
M  END
