
     RDKit          3D

 14 13  0  0  0  0  0  0  0  0999 V2000
    5.1020    1.1730   -0.3800 C   0  0  0  0  0  0  0  0  0  0  0  0
    3.7280    1.2230   -0.4430 O   0  0  0  0  0  0  0  0  0  0  0  0
    3.1090    0.3000    0.3990 C   0  0  0  0  0  0  0  0  0  0  0  0
    1.5900    0.5190    0.1800 C   0  0  0  0  0  0  0  0  0  0  0  0
    0.8100   -0.4310    1.0430 C   0  0  0  0  0  0  0  0  0  0  0  0
   -0.5080   -0.3970    1.0440 O   0  0  0  0  0  0  0  0  0  0  0  0
   -1.3610   -0.5600    0.0640 C   0  0  1  0  0  0  0  0  0  0  0  0
   -1.3030   -1.8130   -0.7540 C   0  0  0  0  0  0  0  0  0  0  0  0
   -1.5020   -3.0160    0.0010 N   0  0  0  0  0  0  0  0  0  0  0  0
   -2.7720   -0.6580    0.7620 C   0  0  0  0  0  0  0  0  0  0  0  0
   -3.7380   -0.8310   -0.2030 O   0  0  0  0  0  0  0  0  0  0  0  0
   -1.5020    0.6380   -0.8300 C   0  0  0  0  0  0  0  0  0  0  0  0
   -1.9260    1.7710   -0.1200 O   0  0  0  0  0  0  0  0  0  0  0  0
   -2.0430    2.8240   -0.9420 N   0  0  0  0  0  0  0  0  0  0  0  0
  1  2  1  0
  2  3  1  0
  3  4  1  0
  4  5  1  0
  5  6  1  0
  6  7  1  0
  7  8  1  6
  7 10  1  0
  7 12  1  0
  8  9  1  0
 10 11  1  0
 12 13  1  0
 13 14  1  0
M  CHG  2   9   1  14   1
M  END
