
     RDKit          3D

 21 22  0  0  0  0  0  0  0  0999 V2000
    4.6150    1.6120   -1.3110 C   0  0  0  0  0  0  0  0  0  0  0  0
    4.5260    0.1440   -1.3100 C   0  0  0  0  0  0  0  0  0  0  0  0
    5.1440   -0.5010   -2.1230 O   0  0  0  0  0  0  0  0  0  0  0  0
    3.6850   -0.5490   -0.3220 C   0  0  0  0  0  0  0  0  0  0  0  0
    2.9070    0.6750    0.7330 S   0  0  0  0  0  0  0  0  0  0  0  0
    1.8430   -0.0720    1.9910 C   0  0  0  0  0  0  0  0  0  0  0  0
    0.7010   -0.7120    1.2450 C   0  0  0  0  0  0  0  0  0  0  0  0
   -0.4520    0.0060    0.9800 C   0  0  0  0  0  0  0  0  0  0  0  0
   -1.4960   -0.5830    0.2950 C   0  0  0  0  0  0  0  0  0  0  0  0
   -2.7220    0.1510    0.0040 C   0  0  0  0  0  0  0  0  0  0  0  0
   -3.3110    0.1050   -1.2570 C   0  0  0  0  0  0  0  0  0  0  0  0
   -4.4400    0.7850   -1.5170 N   0  0  0  0  0  0  0  0  0  0  0  0
   -4.9980    1.5140   -0.5410 C   0  0  0  0  0  0  0  0  0  0  0  0
   -6.0690    2.1480   -0.8140 O   0  0  0  0  0  0  0  0  0  0  0  0
   -4.4580    1.5940    0.7220 C   0  0  0  0  0  0  0  0  0  0  0  0
   -3.3110    0.9040    0.9880 C   0  0  0  0  0  0  0  0  0  0  0  0
   -2.7590    0.9670    2.2240 F   0  0  0  0  0  0  0  0  0  0  0  0
   -1.3310   -1.8920   -0.1000 C   0  0  0  0  0  0  0  0  0  0  0  0
   -0.1770   -2.5800    0.1760 C   0  0  0  0  0  0  0  0  0  0  0  0
   -0.0720   -3.7810   -0.2080 O   0  0  0  0  0  0  0  0  0  0  0  0
    0.8270   -1.9880    0.8430 N   0  0  0  0  0  0  0  0  0  0  0  0
  1  2  1  0
  2  3  2  0
  2  4  1  0
  4  5  1  0
  5  6  1  0
  6  7  1  0
  7  8  2  0
  7 21  1  0
  8  9  1  0
  9 10  1  0
  9 18  2  0
 10 11  2  0
 10 16  1  0
 11 12  1  0
 12 13  1  0
 13 14  2  0
 13 15  1  0
 15 16  2  0
 16 17  1  0
 18 19  1  0
 19 20  2  0
 19 21  1  0
M  END
