
     RDKit          3D

 21 23  0  0  0  0  0  0  0  0999 V2000
    4.6330    1.1080   -0.0900 C   0  0  0  0  0  0  0  0  0  0  0  0
    3.9550   -0.2360   -0.2270 C   0  0  0  0  0  0  0  0  0  0  0  0
    3.4310   -0.6680    1.1160 C   0  0  0  0  0  0  0  0  0  0  0  0
    2.7370   -2.0120    1.0510 C   0  0  1  0  0  0  0  0  0  0  0  0
    2.2630   -2.3140    2.4790 C   0  0  0  0  0  0  0  0  0  0  0  0
    1.5210   -1.1780    2.8840 O   0  0  0  0  0  0  0  0  0  0  0  0
    0.4830   -0.7720    2.0340 C   0  0  0  0  0  0  0  0  0  0  0  0
   -0.5570    0.0150    2.5020 C   0  0  0  0  0  0  0  0  0  0  0  0
   -1.5630    0.4030    1.6570 C   0  0  0  0  0  0  0  0  0  0  0  0
   -1.5990    0.0410    0.3220 C   0  0  0  0  0  0  0  0  0  0  0  0
   -2.6910    0.4790   -0.5370 C   0  0  0  0  0  0  0  0  0  0  0  0
   -3.3310   -0.3710   -1.4110 C   0  0  0  0  0  0  0  0  0  0  0  0
   -4.3770    0.0500   -2.2320 C   0  0  0  0  0  0  0  0  0  0  0  0
   -4.8070    1.3610   -2.1880 C   0  0  0  0  0  0  0  0  0  0  0  0
   -5.8510    1.7750   -3.0110 O   0  0  0  0  0  0  0  0  0  0  0  0
   -4.1750    2.2190   -1.3190 C   0  0  0  0  0  0  0  0  0  0  0  0
   -3.1430    1.8010   -0.5090 C   0  0  0  0  0  0  0  0  0  0  0  0
   -2.5020    2.6670    0.3710 O   0  0  0  0  0  0  0  0  0  0  0  0
   -0.5590   -0.7420   -0.1330 C   0  0  0  0  0  0  0  0  0  0  0  0
    0.4650   -1.1450    0.6980 C   0  0  0  0  0  0  0  0  0  0  0  0
    1.5440   -1.9570    0.2280 N   0  0  0  0  0  0  0  0  0  0  0  0
  1  2  1  0
  2  3  1  0
  4  3  1  1
  4  5  1  0
  4 21  1  0
  5  6  1  0
  6  7  1  0
  7  8  2  0
  7 20  1  0
  8  9  1  0
  9 10  2  0
 10 11  1  0
 10 19  1  0
 11 12  2  0
 11 17  1  0
 12 13  1  0
 13 14  2  0
 14 15  1  0
 14 16  1  0
 16 17  2  0
 17 18  1  0
 19 20  2  0
 20 21  1  0
M  END
