
     RDKit          3D

 13 12  0  0  0  0  0  0  0  0999 V2000
   -4.2450    1.5800    0.3280 N   0  0  0  0  0  0  0  0  0  0  0  0
   -3.6730    0.4320    1.0110 C   0  0  0  0  0  0  0  0  0  0  0  0
   -2.6150   -0.1630    0.0440 C   0  0  0  0  0  0  0  0  0  0  0  0
   -2.0520   -1.2350    0.6310 O   0  0  0  0  0  0  0  0  0  0  0  0
   -1.1170   -1.9760    0.0250 C   0  0  0  0  0  0  0  0  0  0  0  0
    0.1800   -1.2860   -0.2630 C   0  0  1  0  0  0  0  0  0  0  0  0
    0.0990   -0.1930   -1.0800 O   0  0  0  0  0  0  0  0  0  0  0  0
    1.0010   -1.0390    0.9710 C   0  0  0  0  0  0  0  0  0  0  0  0
    2.3180   -0.8460    0.7640 O   0  0  0  0  0  0  0  0  0  0  0  0
    2.6930    0.1810   -0.0170 C   0  0  0  0  0  0  0  0  0  0  0  0
    4.2070    0.2840   -0.0860 C   0  0  0  0  0  0  0  0  0  0  0  0
    4.7540    1.3220   -0.8750 N   0  0  0  0  0  0  0  0  0  0  0  0
    4.9330   -0.4740    0.4960 O   0  0  0  0  0  0  0  0  0  0  0  0
  1  2  1  0
  2  3  1  0
  3  4  1  0
  4  5  1  0
  5  6  1  0
  6  7  1  1
  6  8  1  0
  8  9  1  0
  9 10  1  0
 10 11  1  0
 11 12  1  0
 11 13  2  0
M  CHG  2   1   1  12   1
M  END
