
     RDKit          3D

 13 12  0  0  0  0  0  0  0  0999 V2000
   -2.6490    2.1760   -0.5930 C   0  0  0  0  0  0  0  0  0  0  0  0
   -1.8290    1.2720    0.3080 C   0  0  0  0  0  0  0  0  0  0  0  0
   -0.8300    0.5570   -0.5620 C   0  0  2  0  0  0  0  0  0  0  0  0
   -1.5880   -0.2150   -1.5450 N   0  0  0  0  0  0  0  0  0  0  0  0
    0.1050   -0.3230    0.2090 C   0  0  1  0  0  0  0  0  0  0  0  0
   -0.7720   -1.4790    0.7530 C   0  0  0  0  0  0  0  0  0  0  0  0
    0.0670   -2.4510    1.4460 N   0  0  0  0  0  0  0  0  0  0  0  0
    1.0120   -0.9210   -0.6560 O   0  0  0  0  0  0  0  0  0  0  0  0
    2.3130   -0.9110   -0.2560 C   0  0  0  0  0  0  0  0  0  0  0  0
    2.8950    0.4070   -0.0420 C   0  0  0  0  0  0  0  0  0  0  0  0
    2.2640    1.4590   -0.2020 O   0  0  0  0  0  0  0  0  0  0  0  0
    4.2430    0.5180    0.3690 O   0  0  0  0  0  0  0  0  0  0  0  0
    4.8070    1.7020    0.5730 O   0  0  0  0  0  0  0  0  0  0  0  0
  1  2  1  0
  2  3  1  0
  3  4  1  6
  3  5  1  0
  5  6  1  6
  5  8  1  0
  6  7  1  0
  8  9  1  0
  9 10  1  0
 10 11  2  0
 10 12  1  0
 12 13  1  0
M  CHG  2   4   1   7   1
M  END
