
     RDKit          3D

 13 12  0  0  0  0  0  0  0  0999 V2000
   -3.3990    1.5120    0.5780 N   0  0  0  0  0  0  0  0  0  0  0  0
   -3.4370    0.0820    0.6370 C   0  0  0  0  0  0  0  0  0  0  0  0
   -2.6130   -0.5750   -0.4450 C   0  0  2  0  0  0  0  0  0  0  0  0
   -2.7540   -2.0130   -0.2510 N   0  0  0  0  0  0  0  0  0  0  0  0
   -1.1300   -0.2680   -0.2440 C   0  0  0  0  0  0  0  0  0  0  0  0
   -0.3370   -0.9330   -1.1280 O   0  0  0  0  0  0  0  0  0  0  0  0
    0.9990   -0.6790   -0.8920 C   0  0  0  0  0  0  0  0  0  0  0  0
    1.3500    0.7730   -1.0230 C   0  0  0  0  0  0  0  0  0  0  0  0
    2.6980    1.0260   -0.7980 O   0  0  0  0  0  0  0  0  0  0  0  0
    3.0300    0.7250    0.4860 C   0  0  2  0  0  0  0  0  0  0  0  0
    3.5230    1.8980    1.0770 O   0  0  0  0  0  0  0  0  0  0  0  0
    4.0740   -0.3620    0.6040 C   0  0  0  0  0  0  0  0  0  0  0  0
    5.2630   -0.0210   -0.0210 O   0  0  0  0  0  0  0  0  0  0  0  0
  1  2  1  0
  2  3  1  0
  3  4  1  1
  3  5  1  0
  5  6  1  0
  6  7  1  0
  7  8  1  0
  8  9  1  0
  9 10  1  0
 10 11  1  6
 10 12  1  0
 12 13  1  0
M  CHG  2   1   1   4   1
M  END
