
     RDKit          3D

 12 11  0  0  0  0  0  0  0  0999 V2000
    4.0390    0.8460    1.1940 C   0  0  0  0  0  0  0  0  0  0  0  0
    4.1980    0.8190   -0.1750 O   0  0  0  0  0  0  0  0  0  0  0  0
    3.7230   -0.3520   -0.6960 C   0  0  0  0  0  0  0  0  0  0  0  0
    2.2360   -0.5020   -0.3870 C   0  0  0  0  0  0  0  0  0  0  0  0
    1.5290    0.5250   -0.9170 O   0  0  0  0  0  0  0  0  0  0  0  0
    0.1930    0.6210   -0.7150 C   0  0  0  0  0  0  0  0  0  0  0  0
   -0.6770   -0.4910   -1.1890 C   0  0  1  0  0  0  0  0  0  0  0  0
   -0.4750   -1.7740   -0.6040 N   0  0  0  0  0  0  0  0  0  0  0  0
   -2.1380   -0.0800   -1.2000 C   0  0  0  0  0  0  0  0  0  0  0  0
   -2.6230    0.3140    0.1730 C   0  0  0  0  0  0  0  0  0  0  0  0
   -3.9690    0.6700    0.0380 O   0  0  0  0  0  0  0  0  0  0  0  0
   -4.5300    1.0440    1.1910 N   0  0  0  0  0  0  0  0  0  0  0  0
  1  2  1  0
  2  3  1  0
  3  4  1  0
  4  5  1  0
  5  6  1  0
  6  7  1  0
  7  8  1  1
  7  9  1  0
  9 10  1  0
 10 11  1  0
 11 12  1  0
M  CHG  2   8   1  12   1
M  END
