
     RDKit          3D

 12 11  0  0  0  0  0  0  0  0999 V2000
   -1.0930   -0.3600   -1.4600 C   0  0  0  0  0  0  0  0  0  0  0  0
   -0.9960   -0.5550    0.0330 C   0  0  2  0  0  0  0  0  0  0  0  0
   -1.0730   -2.0490    0.2670 C   0  0  0  0  0  0  0  0  0  0  0  0
   -1.2530   -2.3640    1.6010 O   0  0  0  0  0  0  0  0  0  0  0  0
   -2.3250   -0.0070    0.6080 C   0  0  0  0  0  0  0  0  0  0  0  0
   -2.3130    1.3510    0.3220 O   0  0  0  0  0  0  0  0  0  0  0  0
   -3.4200    1.9810    0.7650 N   0  0  0  0  0  0  0  0  0  0  0  0
   -0.0240    0.0870    0.6500 O   0  0  0  0  0  0  0  0  0  0  0  0
    1.2780   -0.0480    0.4980 C   0  0  0  0  0  0  0  0  0  0  0  0
    1.8500    0.2310   -0.8590 C   0  0  0  0  0  0  0  0  0  0  0  0
    3.3770    0.0550   -0.8420 C   0  0  0  0  0  0  0  0  0  0  0  0
    3.9800    0.9620    0.1040 N   0  0  0  0  0  0  0  0  0  0  0  0
  2  1  1  6
  2  3  1  0
  2  5  1  0
  2  8  1  0
  3  4  1  0
  5  6  1  0
  6  7  1  0
  8  9  1  0
  9 10  1  0
 10 11  1  0
 11 12  1  0
M  CHG  2   7   1  12   1
M  END
