
     RDKit          3D

 13 12  0  0  0  0  0  0  0  0999 V2000
   -3.0880    0.4000    0.9100 N   0  0  0  0  0  0  0  0  0  0  0  0
   -2.7800   -0.5660   -0.1390 C   0  0  0  0  0  0  0  0  0  0  0  0
   -1.8300    0.0610   -1.1640 C   0  0  0  0  0  0  0  0  0  0  0  0
   -0.5500    0.4810   -0.5250 C   0  0  0  0  0  0  0  0  0  0  0  0
    0.2350   -0.6230    0.1120 C   0  0  2  0  0  0  0  0  0  0  0  0
    1.4400   -0.0610    0.6960 N   0  0  0  0  0  0  0  0  0  0  0  0
    2.1130    0.8680   -0.1370 C   0  0  0  0  0  0  0  0  0  0  0  0
    3.4780    1.0910    0.3970 C   0  0  0  0  0  0  0  0  0  0  0  0
    3.8190    0.4720    1.4350 O   0  0  0  0  0  0  0  0  0  0  0  0
    4.3820    1.9570   -0.2120 O   0  0  0  0  0  0  0  0  0  0  0  0
    0.5300   -1.7400   -0.7930 C   0  0  0  0  0  0  0  0  0  0  0  0
    1.7210   -2.1200   -1.0020 O   0  0  0  0  0  0  0  0  0  0  0  0
   -0.4510   -2.4420   -1.4690 O   0  0  0  0  0  0  0  0  0  0  0  0
  1  2  1  0
  2  3  1  0
  3  4  1  0
  5  4  1  6
  5  6  1  0
  5 11  1  0
  6  7  1  0
  7  8  1  0
  8  9  2  0
  8 10  1  0
 11 12  2  0
 11 13  1  0
M  CHG  2   1   1   6   1
M  END
