
     RDKit          3D

 16 17  0  0  0  0  0  0  0  0999 V2000
   -4.5020    0.2920    0.1660 N   0  0  0  0  0  0  0  0  0  0  0  0
   -3.7050   -0.8970   -0.0790 C   0  0  0  0  0  0  0  0  0  0  0  0
   -2.2610   -0.5780   -0.0390 C   0  0  0  0  0  0  0  0  0  0  0  0
   -1.7570    0.3730   -0.9020 C   0  0  0  0  0  0  0  0  0  0  0  0
   -0.4090    0.6550   -0.8870 C   0  0  0  0  0  0  0  0  0  0  0  0
    0.2360    1.8640   -1.9700 Cl  0  0  0  0  0  0  0  0  0  0  0  0
    0.4430   -0.0140   -0.0020 C   0  0  0  0  0  0  0  0  0  0  0  0
    1.8680    0.2510   -0.0060 C   0  0  0  0  0  0  0  0  0  0  0  0
    2.6820   -0.7530   -0.5260 C   0  0  0  0  0  0  0  0  0  0  0  0
    4.0450   -0.6170   -0.5840 C   0  0  0  0  0  0  0  0  0  0  0  0
    4.6440    0.5580   -0.1090 C   0  0  0  0  0  0  0  0  0  0  0  0
    3.8460    1.5580    0.4070 C   0  0  0  0  0  0  0  0  0  0  0  0
    2.4560    1.3980    0.4560 C   0  0  0  0  0  0  0  0  0  0  0  0
   -0.0370   -0.9740    0.8780 C   0  0  0  0  0  0  0  0  0  0  0  0
    1.0380   -1.8210    1.9590 Cl  0  0  0  0  0  0  0  0  0  0  0  0
   -1.3890   -1.2250    0.8270 C   0  0  0  0  0  0  0  0  0  0  0  0
  1  2  1  0
  2  3  1  0
  3  4  2  0
  3 16  1  0
  4  5  1  0
  5  6  1  0
  5  7  2  0
  7  8  1  0
  7 14  1  0
  8  9  2  0
  8 13  1  0
  9 10  1  0
 10 11  2  0
 11 12  1  0
 12 13  2  0
 14 15  1  0
 14 16  2  0
M  CHG  1   1   1
M  END
