
     RDKit          3D

 21 22  0  0  0  0  0  0  0  0999 V2000
    5.3960   -2.3700   -0.2320 C   0  0  0  0  0  0  0  0  0  0  0  0
    4.5750   -1.2450   -0.4910 O   0  0  0  0  0  0  0  0  0  0  0  0
    3.1980   -1.3990   -0.6340 C   0  0  0  0  0  0  0  0  0  0  0  0
    2.3630   -0.4350   -0.3030 C   0  0  0  0  0  0  0  0  0  0  0  0
    2.6340    0.8860    0.2350 C   0  0  0  0  0  0  0  0  0  0  0  0
    1.4810    1.5090    0.4120 C   0  0  0  0  0  0  0  0  0  0  0  0
    1.3720    2.7960    0.9140 O   0  0  0  0  0  0  0  0  0  0  0  0
    1.8510    3.9290    0.2130 C   0  0  0  0  0  0  0  0  0  0  0  0
    0.4050    0.6060   -0.0100 C   0  0  0  0  0  0  0  0  0  0  0  0
    0.9160   -0.5220   -0.4250 C   0  0  0  0  0  0  0  0  0  0  0  0
    0.0370   -1.5980   -0.9010 C   0  0  0  0  0  0  0  0  0  0  0  0
    0.5740   -2.6710   -1.2930 O   0  0  0  0  0  0  0  0  0  0  0  0
   -1.3420   -1.3670   -0.8910 N   0  0  0  0  0  0  0  0  0  0  0  0
   -1.9030   -0.3420   -0.0470 C   0  0  2  0  0  0  0  0  0  0  0  0
   -1.9190   -0.9230    1.3740 C   0  0  0  0  0  0  0  0  0  0  0  0
   -3.3090    0.0030   -0.4080 C   0  0  0  0  0  0  0  0  0  0  0  0
   -4.2470   -1.1770   -0.3040 C   0  0  0  0  0  0  0  0  0  0  0  0
   -4.3000   -1.7080    0.9830 O   0  0  0  0  0  0  0  0  0  0  0  0
   -1.0550    0.8960    0.0160 C   0  0  2  0  0  0  0  0  0  0  0  0
   -1.3360    1.8500   -1.1210 C   0  0  0  0  0  0  0  0  0  0  0  0
   -1.3510    1.5570    1.2080 O   0  0  0  0  0  0  0  0  0  0  0  0
  1  2  1  0
  2  3  1  0
  3  4  2  3
  4  5  1  0
  4 10  1  0
  5  6  2  0
  6  7  1  0
  6  9  1  0
  7  8  1  0
  9 10  2  0
  9 19  1  0
 10 11  1  0
 11 12  2  0
 11 13  1  0
 13 14  1  0
 14 15  1  1
 14 16  1  0
 14 19  1  0
 16 17  1  0
 17 18  1  0
 19 20  1  6
 19 21  1  0
M  END
