
     RDKit          3D

 22 24  0  0  0  0  0  0  0  0999 V2000
   -4.6390   -1.6660   -0.9170 C   0  0  0  0  0  0  0  0  0  0  0  0
   -4.0130   -0.3880   -0.4960 C   0  0  0  0  0  0  0  0  0  0  0  0
   -4.8320    0.6310   -0.0340 C   0  0  0  0  0  0  0  0  0  0  0  0
   -6.2070    0.4890    0.0460 O   0  0  0  0  0  0  0  0  0  0  0  0
   -4.2870    1.8310    0.3650 C   0  0  0  0  0  0  0  0  0  0  0  0
   -2.9240    1.9950    0.2960 C   0  0  0  0  0  0  0  0  0  0  0  0
   -2.0970    0.9990   -0.1590 C   0  0  0  0  0  0  0  0  0  0  0  0
   -2.6360   -0.1950   -0.5570 C   0  0  0  0  0  0  0  0  0  0  0  0
   -1.5210   -1.0450   -0.9880 C   0  0  0  0  0  0  0  0  0  0  0  0
   -0.4670   -0.1760   -1.1620 O   0  0  0  0  0  0  0  0  0  0  0  0
   -0.6320    0.9100   -0.3310 C   0  0  2  0  0  0  0  0  0  0  0  0
   -0.0270    0.7770    1.0290 C   0  0  0  0  0  0  0  0  0  0  0  0
    1.3780    0.5860    1.0890 N   0  0  0  0  0  0  0  0  0  0  0  0
    2.1390   -0.4620    0.5570 C   0  0  0  0  0  0  0  0  0  0  0  0
    1.5540   -1.3780   -0.0590 O   0  0  0  0  0  0  0  0  0  0  0  0
    3.6160   -0.5630    0.6760 C   0  0  1  0  0  0  0  0  0  0  0  0
    4.2820   -0.3450   -0.6800 C   0  0  0  0  0  0  0  0  0  0  0  0
    5.7190   -0.1140   -0.2230 C   0  0  2  0  0  0  0  0  0  0  0  0
    6.2660   -1.3510    0.0380 O   0  0  0  0  0  0  0  0  0  0  0  0
    5.4930    0.6400    1.0380 C   0  0  0  0  0  0  0  0  0  0  0  0
    6.4190    1.2510    1.6440 O   0  0  0  0  0  0  0  0  0  0  0  0
    4.1470    0.5490    1.4030 O   0  0  0  0  0  0  0  0  0  0  0  0
  1  2  1  0
  2  3  2  0
  2  8  1  0
  3  4  1  0
  3  5  1  0
  5  6  2  0
  6  7  1  0
  7  8  2  0
  7 11  1  0
  8  9  1  0
  9 10  1  0
 10 11  1  0
 11 12  1  1
 12 13  1  0
 13 14  1  0
 14 15  2  0
 16 14  1  6
 16 17  1  0
 16 22  1  0
 17 18  1  0
 18 19  1  1
 18 20  1  0
 20 21  2  0
 20 22  1  0
M  END
