
     RDKit          3D

 33 37  0  0  0  0  0  0  0  0999 V2000
    7.3980   -0.2340   -0.6740 C   0  0  0  0  0  0  0  0  0  0  0  0
    6.2350   -0.2300    0.3150 C   0  0  0  0  0  0  0  0  0  0  0  0
    5.6460   -1.5440    0.3760 N   0  0  0  0  0  0  0  0  0  0  0  0
    4.8020   -1.8460   -0.7540 C   0  0  0  0  0  0  0  0  0  0  0  0
    3.5660   -0.9960   -0.8130 C   0  0  0  0  0  0  0  0  0  0  0  0
    2.7400   -1.1970    0.4280 C   0  0  0  0  0  0  0  0  0  0  0  0
    1.5310   -0.3620    0.3630 C   0  0  0  0  0  0  0  0  0  0  0  0
    0.3450   -0.7410    0.3870 N   0  0  0  0  0  0  0  0  0  0  0  0
   -0.6670    0.1570    0.3190 N   0  0  0  0  0  0  0  0  0  0  0  0
   -0.3000    1.5210    0.2210 C   0  0  0  0  0  0  0  0  0  0  0  0
   -1.3000    2.3020    0.1610 N   0  0  0  0  0  0  0  0  0  0  0  0
   -2.5260    1.5690    0.2110 C   0  0  0  0  0  0  0  0  0  0  0  0
   -3.7440    2.0090    0.1750 N   0  0  0  0  0  0  0  0  0  0  0  0
   -4.0660    3.3770    0.0750 C   0  0  0  0  0  0  0  0  0  0  0  0
   -3.6730    4.3320    0.9760 C   0  0  0  0  0  0  0  0  0  0  0  0
   -4.0400    5.6410    0.7880 C   0  0  0  0  0  0  0  0  0  0  0  0
   -4.8030    6.0570   -0.2880 C   0  0  0  0  0  0  0  0  0  0  0  0
   -5.1920    7.4800   -0.4760 C   0  0  0  0  0  0  0  0  0  0  0  0
   -5.1890    5.0880   -1.1820 C   0  0  0  0  0  0  0  0  0  0  0  0
   -4.8330    3.7670   -1.0130 C   0  0  0  0  0  0  0  0  0  0  0  0
   -2.1120    0.1740    0.3140 C   0  0  0  0  0  0  0  0  0  0  0  0
   -2.9140   -0.8360    0.3850 N   0  0  0  0  0  0  0  0  0  0  0  0
   -2.3620   -2.1380    0.4810 C   0  0  0  0  0  0  0  0  0  0  0  0
   -1.5820   -2.4270    1.5840 C   0  0  0  0  0  0  0  0  0  0  0  0
   -1.0410   -3.6850    1.6880 C   0  0  0  0  0  0  0  0  0  0  0  0
   -1.2500   -4.6710    0.7300 C   0  0  0  0  0  0  0  0  0  0  0  0
   -0.8440   -5.9470    0.6010 N   0  0  0  0  0  0  0  0  0  0  0  0
   -1.3420   -6.4360   -0.5220 N   0  0  0  0  0  0  0  0  0  0  0  0
   -2.0740   -5.4900   -1.1350 C   0  0  0  0  0  0  0  0  0  0  0  0
   -2.7070   -5.5820   -2.2340 O   0  0  0  0  0  0  0  0  0  0  0  0
   -2.0420   -4.3270   -0.3580 C   0  0  0  0  0  0  0  0  0  0  0  0
   -2.5950   -3.0840   -0.4920 C   0  0  0  0  0  0  0  0  0  0  0  0
    1.5120    1.4150    0.2340 S   0  0  0  0  0  0  0  0  0  0  0  0
  1  2  1  0
  2  3  1  0
  3  4  1  0
  4  5  1  0
  5  6  1  0
  6  7  1  0
  7  8  2  0
  7 33  1  0
  8  9  1  0
  9 10  1  0
  9 21  1  0
 10 11  2  0
 10 33  1  0
 11 12  1  0
 12 13  2  3
 12 21  1  0
 13 14  1  0
 14 15  2  0
 14 20  1  0
 15 16  1  0
 16 17  2  0
 17 18  1  0
 17 19  1  0
 19 20  2  0
 21 22  2  3
 22 23  1  0
 23 24  2  0
 23 32  1  0
 24 25  1  0
 25 26  2  0
 26 27  1  0
 26 31  1  0
 27 28  1  0
 28 29  1  0
 29 30  2  0
 29 31  1  0
 31 32  2  0
M  CHG  1   3   1
M  END
