
     RDKit          3D

 33 37  0  0  0  0  0  0  0  0999 V2000
    9.0840    1.6600   -0.2220 O   0  0  0  0  0  0  0  0  0  0  0  0
   10.3780    1.3840   -0.1940 N   0  0  0  0  0  0  0  0  0  0  0  0
   10.9140    0.1030   -0.0760 C   0  0  0  0  0  0  0  0  0  0  0  0
   10.2950   -1.0060    0.0550 C   0  0  0  0  0  0  0  0  0  0  0  0
    8.8560   -1.1950    0.1120 C   0  0  0  0  0  0  0  0  0  0  0  0
    8.2440   -2.4500    0.1200 N   0  0  0  0  0  0  0  0  0  0  0  0
    6.9730   -2.2810    0.1940 O   0  0  0  0  0  0  0  0  0  0  0  0
    6.6640   -0.9600    0.2410 C   0  0  0  0  0  0  0  0  0  0  0  0
    5.3200   -0.4110    0.3380 C   0  0  0  0  0  0  0  0  0  0  0  0
    5.1180    0.9640    0.4630 C   0  0  0  0  0  0  0  0  0  0  0  0
    3.2940    1.1040    0.6150 S   0  0  0  0  0  0  0  0  0  0  0  0
    3.0990   -0.7710    0.4820 C   0  0  0  0  0  0  0  0  0  0  0  0
    1.8480   -1.4060    0.5570 N   0  0  0  0  0  0  0  0  0  0  0  0
    0.6090   -0.7320    0.8110 C   0  0  0  0  0  0  0  0  0  0  0  0
    0.2150    0.1900   -0.2650 C   0  0  0  0  0  0  0  0  0  0  0  0
   -1.0600    0.8590   -0.0430 N   0  0  2  0  0  0  0  0  0  0  0  0
   -1.7000    0.4220    1.1780 C   0  0  0  0  0  0  0  0  0  0  0  0
   -2.9190   -0.4360    0.8260 C   0  0  0  0  0  0  0  0  0  0  0  0
   -3.9790    0.5080    0.2690 C   0  0  2  0  0  0  0  0  0  0  0  0
   -5.1160   -0.2580   -0.2380 C   0  0  0  0  0  0  0  0  0  0  0  0
   -5.0030   -1.4550   -0.8810 C   0  0  0  0  0  0  0  0  0  0  0  0
   -6.1340   -2.0690   -1.3720 C   0  0  0  0  0  0  0  0  0  0  0  0
   -7.4050   -1.5370   -1.2480 C   0  0  0  0  0  0  0  0  0  0  0  0
   -7.5050   -0.3360   -0.5980 C   0  0  0  0  0  0  0  0  0  0  0  0
   -8.7780    0.1980   -0.3790 C   0  0  0  0  0  0  0  0  0  0  0  0
   -8.8520    1.3710    0.3450 C   0  0  0  0  0  0  0  0  0  0  0  0
   -7.7300    1.9880    0.8280 C   0  0  0  0  0  0  0  0  0  0  0  0
   -6.5220    1.4440    0.5950 N   0  0  0  0  0  0  0  0  0  0  0  0
   -6.4190    0.3190   -0.0940 C   0  0  0  0  0  0  0  0  0  0  0  0
   -3.2970    1.3430   -0.8290 C   0  0  0  0  0  0  0  0  0  0  0  0
   -1.9840    0.6810   -1.1640 C   0  0  0  0  0  0  0  0  0  0  0  0
    4.1980   -1.0660    0.3730 N   0  0  0  0  0  0  0  0  0  0  0  0
    7.8400   -0.3880    0.1890 N   0  0  0  0  0  0  0  0  0  0  0  0
  1  2  1  0
  2  3  1  0
  3  4  2  3
  4  5  1  0
  5  6  2  0
  5 33  1  0
  6  7  1  0
  7  8  1  0
  8  9  1  0
  8 33  2  0
  9 10  2  0
  9 32  1  0
 10 11  1  0
 11 12  1  0
 12 13  1  0
 12 32  2  0
 13 14  1  0
 14 15  1  0
 16 15  1  6
 16 17  1  0
 16 31  1  0
 17 18  1  0
 18 19  1  0
 19 20  1  6
 19 30  1  0
 20 21  2  0
 20 29  1  0
 21 22  1  0
 22 23  2  0
 23 24  1  0
 24 25  2  0
 24 29  1  0
 25 26  1  0
 26 27  2  0
 27 28  1  0
 28 29  2  0
 30 31  1  0
M  CHG  1  16   1
M  END
