
     RDKit          3D

 33 37  0  0  0  0  0  0  0  0999 V2000
   -1.0200    2.9830   -1.6740 C   0  0  0  0  0  0  0  0  0  0  0  0
   -2.0980    3.2760   -0.7000 C   0  0  1  0  0  0  0  0  0  0  0  0
   -3.2130    4.0010   -1.4240 C   0  0  0  0  0  0  0  0  0  0  0  0
   -3.8110    2.9220   -2.7320 Cl  0  0  0  0  0  0  0  0  0  0  0  0
   -2.7050    1.9440   -0.1000 C   0  0  0  0  0  0  0  0  0  0  0  0
   -1.5960    1.3690    0.5380 N   0  0  0  0  0  0  0  0  0  0  0  0
   -0.8410    1.8100    1.6860 C   0  0  0  0  0  0  0  0  0  0  0  0
    0.5930    2.1080    1.3140 C   0  0  0  0  0  0  0  0  0  0  0  0
    1.1900    0.9330    0.6560 C   0  0  0  0  0  0  0  0  0  0  0  0
    2.5210    0.7680    0.6620 N   0  0  0  0  0  0  0  0  0  0  0  0
    3.1710   -0.2960    0.1100 C   0  0  0  0  0  0  0  0  0  0  0  0
    4.6190   -0.3010    0.2430 C   0  0  0  0  0  0  0  0  0  0  0  0
    5.2050    0.6640    1.0890 C   0  0  0  0  0  0  0  0  0  0  0  0
    6.5630    0.7430    1.2640 C   0  0  0  0  0  0  0  0  0  0  0  0
    7.4180   -0.1270    0.6140 C   0  0  0  0  0  0  0  0  0  0  0  0
    6.8770   -1.0770   -0.2150 C   0  0  0  0  0  0  0  0  0  0  0  0
    5.4840   -1.1480   -0.3870 C   0  0  0  0  0  0  0  0  0  0  0  0
    5.0010   -2.1380   -1.2790 N   0  0  0  0  0  0  0  0  0  0  0  0
    2.4200   -1.2650   -0.4900 C   0  0  0  0  0  0  0  0  0  0  0  0
    1.0260   -1.1150   -0.5110 C   0  0  0  0  0  0  0  0  0  0  0  0
    0.3990   -0.0240    0.0580 C   0  0  0  0  0  0  0  0  0  0  0  0
   -1.0480    0.1440   -0.0240 C   0  0  0  0  0  0  0  0  0  0  0  0
   -1.8130   -0.7840   -0.4690 N   0  0  0  0  0  0  0  0  0  0  0  0
   -3.2110   -0.5710   -0.3770 C   0  0  0  0  0  0  0  0  0  0  0  0
   -3.6920   -1.7540    0.4750 C   0  0  0  0  0  0  0  0  0  0  0  0
   -4.0030   -1.7240    1.7800 C   0  0  0  0  0  0  0  0  0  0  0  0
   -3.9280   -0.6160    2.5450 F   0  0  0  0  0  0  0  0  0  0  0  0
   -4.4860   -3.0400    2.2600 C   0  0  0  0  0  0  0  0  0  0  0  0
   -4.4670   -3.8320    1.0390 C   0  0  0  0  0  0  0  0  0  0  0  0
   -4.0130   -3.0800    0.0600 C   0  0  0  0  0  0  0  0  0  0  0  0
   -3.9900   -3.6910   -1.5860 Cl  0  0  0  0  0  0  0  0  0  0  0  0
   -1.2750   -1.9460   -1.1030 C   0  0  0  0  0  0  0  0  0  0  0  0
    0.1900   -2.1020   -1.1840 C   0  0  0  0  0  0  0  0  0  0  0  0
  2  1  1  6
  2  3  1  0
  2  5  1  0
  3  4  1  0
  5  6  1  0
  6  7  1  0
  6 22  1  0
  7  8  1  0
  8  9  1  0
  9 10  2  0
  9 21  1  0
 10 11  1  0
 11 12  1  0
 11 19  2  0
 12 13  2  0
 12 17  1  0
 13 14  1  0
 14 15  2  0
 15 16  1  0
 16 17  2  0
 17 18  1  0
 19 20  1  0
 20 21  2  0
 20 33  1  0
 21 22  1  0
 22 23  2  0
 23 24  1  0
 23 32  1  0
 24 25  1  0
 25 26  2  0
 25 30  1  0
 26 27  1  0
 26 28  1  0
 28 29  1  0
 29 30  2  0
 30 31  1  0
 32 33  1  0
M  CHG  1  23   1
M  END
