
     RDKit          3D

 33 36  0  0  0  0  0  0  0  0999 V2000
    6.5560   -2.0780   -0.4330 C   0  0  0  0  0  0  0  0  0  0  0  0
    5.2070   -1.4850   -0.1910 C   0  0  2  0  0  0  0  0  0  0  0  0
    4.8740   -0.3640   -1.1530 C   0  0  0  0  0  0  0  0  0  0  0  0
    5.1460   -0.9820    1.2340 C   0  0  0  0  0  0  0  0  0  0  0  0
    3.8380   -0.3770    1.5550 C   0  0  0  0  0  0  0  0  0  0  0  0
    3.6440    0.9760    1.3410 C   0  0  0  0  0  0  0  0  0  0  0  0
    2.4300    1.5550    1.6360 C   0  0  0  0  0  0  0  0  0  0  0  0
    1.3880    0.7740    2.1540 C   0  0  0  0  0  0  0  0  0  0  0  0
   -0.0860    1.6330    2.4860 S   0  0  1  0  0  0  0  0  0  0  0  0
   -0.8140    0.9310    3.6100 O   0  0  0  0  0  0  0  0  0  0  0  0
    0.2800    2.9850    3.0220 O   0  0  0  0  0  0  0  0  0  0  0  0
   -1.1450    1.8000    1.1820 N   0  0  0  0  0  0  0  0  0  0  0  0
   -1.7800    0.7740    0.4620 C   0  0  0  0  0  0  0  0  0  0  0  0
   -1.8560   -0.4830    1.0230 C   0  0  0  0  0  0  0  0  0  0  0  0
   -2.4720   -1.5530    0.3840 C   0  0  0  0  0  0  0  0  0  0  0  0
   -3.0150   -1.3000   -0.8590 C   0  0  0  0  0  0  0  0  0  0  0  0
   -2.9390   -0.0390   -1.4210 C   0  0  0  0  0  0  0  0  0  0  0  0
   -2.3250    1.0150   -0.7780 C   0  0  0  0  0  0  0  0  0  0  0  0
   -2.2860    2.2800   -1.4170 N   0  0  0  0  0  0  0  0  0  0  0  0
   -1.2240    3.1310   -1.8360 C   0  0  0  0  0  0  0  0  0  0  0  0
   -1.7000    4.4990   -1.4650 C   0  0  0  0  0  0  0  0  0  0  0  0
   -3.1870    4.3710   -1.2080 C   0  0  0  0  0  0  0  0  0  0  0  0
   -3.4850    3.0090   -1.7980 C   0  0  0  0  0  0  0  0  0  0  0  0
   -3.6140   -2.3210   -1.4920 N   0  0  0  0  0  0  0  0  0  0  0  0
   -4.2080   -2.1310   -2.8020 C   0  0  0  0  0  0  0  0  0  0  0  0
   -3.6670   -3.5430   -0.9040 C   0  0  0  0  0  0  0  0  0  0  0  0
   -4.2260   -4.5040   -1.4910 O   0  0  0  0  0  0  0  0  0  0  0  0
   -3.1160   -3.7670    0.3380 C   0  0  0  0  0  0  0  0  0  0  0  0
   -3.1840   -4.9200    0.8550 O   0  0  0  0  0  0  0  0  0  0  0  0
   -2.5210   -2.7580    0.9710 N   0  0  0  0  0  0  0  0  0  0  0  0
   -1.9400   -3.0040    2.2860 C   0  0  0  0  0  0  0  0  0  0  0  0
    1.5750   -0.5660    2.3670 C   0  0  0  0  0  0  0  0  0  0  0  0
    2.8000   -1.1250    2.0650 C   0  0  0  0  0  0  0  0  0  0  0  0
  2  1  1  6
  2  3  1  0
  2  4  1  0
  4  5  1  0
  5  6  2  0
  5 33  1  0
  6  7  1  0
  7  8  2  0
  8  9  1  0
  8 32  1  0
  9 10  2  0
  9 11  2  0
  9 12  1  6
 12 13  1  0
 13 14  2  0
 13 18  1  0
 14 15  1  0
 15 16  2  0
 15 30  1  0
 16 17  1  0
 16 24  1  0
 17 18  2  0
 18 19  1  0
 19 20  1  0
 19 23  1  0
 20 21  1  0
 21 22  1  0
 22 23  1  0
 24 25  1  0
 24 26  1  0
 26 27  2  0
 26 28  1  0
 28 29  2  0
 28 30  1  0
 30 31  1  0
 32 33  2  0
M  END
