
     RDKit          3D

 15 14  0  0  0  0  0  0  0  0999 V2000
   -0.1120    1.9080    0.5200 N   0  0  0  0  0  0  0  0  0  0  0  0
   -1.1540    0.8920    0.4770 C   0  0  0  0  0  0  0  0  0  0  0  0
   -1.1930    0.3500   -0.9150 C   0  0  2  0  0  0  0  0  0  0  0  0
   -1.5240    1.4220   -1.7800 O   0  0  0  0  0  0  0  0  0  0  0  0
   -2.0430   -0.6790   -1.1670 O   0  0  0  0  0  0  0  0  0  0  0  0
   -3.3720   -0.4680   -0.9990 C   0  0  0  0  0  0  0  0  0  0  0  0
   -3.7240   -0.1180    0.2850 O   0  0  0  0  0  0  0  0  0  0  0  0
    0.1190    0.0220   -1.2880 O   0  0  0  0  0  0  0  0  0  0  0  0
    0.6660   -1.0180   -0.5760 C   0  0  0  0  0  0  0  0  0  0  0  0
    2.3900   -1.3360   -1.2100 P   0  0  0  0  0  0  0  0  0  0  0  0
    2.9480   -2.9090   -0.8000 O   0  0  0  0  0  0  0  0  0  0  0  0
    3.4910   -0.0690   -0.7780 O   0  0  0  0  0  0  0  0  0  0  0  0
    3.9930    0.1450    0.4800 C   0  0  0  0  0  0  0  0  0  0  0  0
    3.6330   -0.6340    1.4070 O   0  0  0  0  0  0  0  0  0  0  0  0
    4.8780    1.1840    0.7670 O   0  0  0  0  0  0  0  0  0  0  0  0
  1  2  1  0
  2  3  1  0
  3  4  1  6
  3  5  1  0
  3  8  1  0
  5  6  1  0
  6  7  1  0
  8  9  1  0
  9 10  1  0
 10 11  1  0
 10 12  1  0
 12 13  1  0
 13 14  2  0
 13 15  1  0
M  END
