
     RDKit          3D

 23 24  0  0  0  0  0  0  0  0999 V2000
    1.1030    5.0730   -0.7730 C   0  0  0  0  0  0  0  0  0  0  0  0
    1.5810    3.6990   -0.4940 N   0  0  0  0  0  0  0  0  0  0  0  0
    0.6350    2.6520   -0.3100 C   0  0  0  0  0  0  0  0  0  0  0  0
   -0.5600    3.0080   -0.4070 O   0  0  0  0  0  0  0  0  0  0  0  0
    1.0200    1.2930   -0.0350 C   0  0  0  0  0  0  0  0  0  0  0  0
    2.3790    0.9510    0.0620 C   0  0  0  0  0  0  0  0  0  0  0  0
    2.7480   -0.3170    0.3180 N   0  0  0  0  0  0  0  0  0  0  0  0
    1.8670   -1.3080    0.4920 C   0  0  0  0  0  0  0  0  0  0  0  0
    2.3010   -2.6080    0.7560 O   0  0  0  0  0  0  0  0  0  0  0  0
    4.0160   -2.9400    0.8600 P   0  0  0  0  0  0  0  0  0  0  0  0
    4.2520   -4.5180    1.5600 O   0  0  0  0  0  0  0  0  0  0  0  0
    4.7460   -2.9270   -0.7280 O   0  0  0  0  0  0  0  0  0  0  0  0
    0.5780   -0.9890    0.4010 N   0  0  0  0  0  0  0  0  0  0  0  0
    0.1230    0.2860    0.1420 C   0  0  0  0  0  0  0  0  0  0  0  0
   -1.2780    0.4940    0.0700 N   0  0  0  0  0  0  0  0  0  0  0  0
   -2.1740   -0.6420    0.2710 C   0  0  0  0  0  0  0  0  0  0  0  0
   -1.7540   -1.6840    0.8780 N   0  0  0  0  0  0  0  0  0  0  0  0
   -2.5470   -2.8380    1.1210 C   0  0  0  0  0  0  0  0  0  0  0  0
   -2.1460   -3.8630    1.7140 O   0  0  0  0  0  0  0  0  0  0  0  0
   -3.8700   -2.7280    0.6190 O   0  0  0  0  0  0  0  0  0  0  0  0
   -4.0160   -1.9540   -0.5930 C   0  0  0  0  0  0  0  0  0  0  0  0
   -3.5610   -0.5670   -0.2140 C   0  0  2  0  0  0  0  0  0  0  0  0
   -3.7090    0.3330   -1.2690 O   0  0  0  0  0  0  0  0  0  0  0  0
  1  2  1  0
  2  3  1  0
  3  4  2  0
  3  5  1  0
  5  6  2  0
  5 14  1  0
  6  7  1  0
  7  8  2  0
  8  9  1  0
  8 13  1  0
  9 10  1  0
 10 11  1  0
 10 12  1  0
 13 14  2  0
 14 15  1  0
 15 16  1  0
 16 17  2  0
 16 22  1  0
 17 18  1  0
 18 19  2  0
 18 20  1  0
 20 21  1  0
 21 22  1  0
 22 23  1  6
M  END
