
     RDKit          3D

 24 25  0  0  0  0  0  0  0  0999 V2000
    4.3040    1.8810   -0.4140 N   0  0  0  0  0  0  0  0  0  0  0  0
    4.2150    0.6210   -0.0740 C   0  0  0  0  0  0  0  0  0  0  0  0
    5.3530   -0.1760   -0.2350 N   0  0  0  0  0  0  0  0  0  0  0  0
    5.1780   -1.9740   -0.2760 P   0  0  0  0  0  0  0  0  0  0  0  0
    4.7610   -2.4290   -1.8750 O   0  0  0  0  0  0  0  0  0  0  0  0
    3.8110   -2.2510    0.8010 O   0  0  0  0  0  0  0  0  0  0  0  0
    2.8460   -1.2420    0.8430 C   0  0  0  0  0  0  0  0  0  0  0  0
    1.7510   -1.6950    1.2910 O   0  0  0  0  0  0  0  0  0  0  0  0
    2.9540    0.0980    0.4640 N   0  0  0  0  0  0  0  0  0  0  0  0
    1.8900    1.0120    0.4730 C   0  0  0  0  0  0  0  0  0  0  0  0
    2.1290    2.1210   -0.2190 O   0  0  0  0  0  0  0  0  0  0  0  0
    0.6310    1.0450    1.0360 N   0  0  0  0  0  0  0  0  0  0  0  0
   -0.3200    2.1440    0.6280 C   0  0  0  0  0  0  0  0  0  0  0  0
   -1.6900    1.7550    1.0610 C   0  0  0  0  0  0  0  0  0  0  0  0
   -1.9370    0.3390    1.0810 N   0  0  0  0  0  0  0  0  0  0  0  0
   -2.9340   -0.2460    0.2950 C   0  0  0  0  0  0  0  0  0  0  0  0
   -3.1550   -1.5060    0.3120 O   0  0  0  0  0  0  0  0  0  0  0  0
   -3.7610    0.4730   -0.5600 O   0  0  0  0  0  0  0  0  0  0  0  0
   -4.7580   -0.1520   -1.3390 C   0  0  0  0  0  0  0  0  0  0  0  0
   -4.1710   -1.0750   -2.1830 O   0  0  0  0  0  0  0  0  0  0  0  0
   -5.0500   -1.7130   -2.9570 N   0  0  0  0  0  0  0  0  0  0  0  0
   -1.1110   -0.4980    1.9550 C   0  0  0  0  0  0  0  0  0  0  0  0
    0.1680    0.2330    2.0840 C   0  0  0  0  0  0  0  0  0  0  0  0
    0.8390    0.1150    3.1750 O   0  0  0  0  0  0  0  0  0  0  0  0
  1  2  2  0
  2  3  1  0
  2  9  1  0
  3  4  1  0
  4  5  1  0
  4  6  1  0
  6  7  1  0
  7  8  2  0
  7  9  1  0
  9 10  1  0
 10 11  2  0
 10 12  1  0
 12 13  1  0
 12 23  1  0
 13 14  1  0
 14 15  1  0
 15 16  1  0
 15 22  1  0
 16 17  2  0
 16 18  1  0
 18 19  1  0
 19 20  1  0
 20 21  1  0
 22 23  1  0
 23 24  2  0
M  END
