
     RDKit          3D

 24 25  0  0  0  0  0  0  0  0999 V2000
    1.1530   -1.4250    0.7580 O   0  0  0  0  0  0  0  0  0  0  0  0
    1.0200   -0.3090    0.2300 C   0  0  0  0  0  0  0  0  0  0  0  0
    2.0820    0.2560   -0.4540 O   0  0  0  0  0  0  0  0  0  0  0  0
    3.2620   -0.3310   -0.5860 O   0  0  0  0  0  0  0  0  0  0  0  0
    3.9220   -0.3990    0.6400 C   0  0  0  0  0  0  0  0  0  0  0  0
    5.2710   -1.0770    0.4550 C   0  0  0  0  0  0  0  0  0  0  0  0
    6.0190   -0.3070   -0.4610 O   0  0  0  0  0  0  0  0  0  0  0  0
   -0.2720    0.3760    0.3540 C   0  0  0  0  0  0  0  0  0  0  0  0
   -0.4250    1.6290   -0.2370 C   0  0  0  0  0  0  0  0  0  0  0  0
   -1.6400    2.2580   -0.1130 C   0  0  0  0  0  0  0  0  0  0  0  0
   -2.6900    1.6770    0.5750 C   0  0  0  0  0  0  0  0  0  0  0  0
   -2.5030    0.4690    1.1300 N   0  0  0  0  0  0  0  0  0  0  0  0
   -1.3110   -0.1850    1.0280 C   0  0  0  0  0  0  0  0  0  0  0  0
   -1.1280   -1.4630    1.6200 N   0  0  0  0  0  0  0  0  0  0  0  0
   -1.7490   -2.4740    1.1240 C   0  0  0  0  0  0  0  0  0  0  0  0
   -2.6440   -2.3130   -0.0470 C   0  0  1  0  0  0  0  0  0  0  0  0
   -2.2410   -3.2720   -0.9890 O   0  0  0  0  0  0  0  0  0  0  0  0
   -3.9470   -2.5780    0.3940 O   0  0  0  0  0  0  0  0  0  0  0  0
   -4.7310   -1.5490    0.1890 O   0  0  0  0  0  0  0  0  0  0  0  0
   -3.7760    2.5700    0.5150 N   0  0  0  0  0  0  0  0  0  0  0  0
   -3.4850    3.6200   -0.1350 N   0  0  0  0  0  0  0  0  0  0  0  0
   -2.1330    3.5370   -0.5910 C   0  0  0  0  0  0  0  0  0  0  0  0
   -1.4830    4.4030   -1.2790 N   0  0  0  0  0  0  0  0  0  0  0  0
   -0.1940    4.1750   -1.6370 O   0  0  0  0  0  0  0  0  0  0  0  0
  1  2  2  0
  2  3  1  0
  2  8  1  0
  3  4  1  0
  4  5  1  0
  5  6  1  0
  6  7  1  0
  8  9  2  0
  8 13  1  0
  9 10  1  0
 10 11  2  0
 10 22  1  0
 11 12  1  0
 11 20  1  0
 12 13  2  0
 13 14  1  0
 14 15  2  3
 15 16  1  0
 16 17  1  6
 16 18  1  0
 18 19  1  0
 20 21  2  0
 21 22  1  0
 22 23  2  3
 23 24  1  0
M  END
