
     RDKit          3D

 28 30  0  0  0  0  0  0  0  0999 V2000
    4.9390    1.5660   -2.0700 O   0  0  0  0  0  0  0  0  0  0  0  0
    4.9090    0.3720   -1.3400 C   0  0  2  0  0  0  0  0  0  0  0  0
    3.5470    0.2940   -0.7520 C   0  0  0  0  0  0  0  0  0  0  0  0
    3.0240    1.4180   -0.1650 C   0  0  0  0  0  0  0  0  0  0  0  0
    1.7470    1.3730    0.4000 C   0  0  0  0  0  0  0  0  0  0  0  0
    0.9850    0.2250    0.3880 C   0  0  0  0  0  0  0  0  0  0  0  0
   -0.3440    0.1230    0.9610 C   0  0  0  0  0  0  0  0  0  0  0  0
   -0.6460    0.8850    2.0660 C   0  0  0  0  0  0  0  0  0  0  0  0
   -1.9180    0.8100    2.6470 C   0  0  0  0  0  0  0  0  0  0  0  0
   -2.8720   -0.0220    2.1200 C   0  0  0  0  0  0  0  0  0  0  0  0
   -2.5910   -0.7900    1.0180 C   0  0  0  0  0  0  0  0  0  0  0  0
   -3.6330   -1.6730    0.4690 C   0  0  1  0  0  0  0  0  0  0  0  0
   -4.3400   -2.3680    1.4380 O   0  0  0  0  0  0  0  0  0  0  0  0
   -4.6080   -0.8790   -0.3320 C   0  0  0  0  0  0  0  0  0  0  0  0
   -5.6600   -0.1870    0.2250 C   0  0  0  0  0  0  0  0  0  0  0  0
   -6.5480    0.5500   -0.5620 C   0  0  0  0  0  0  0  0  0  0  0  0
   -6.4070    0.6160   -1.9300 C   0  0  0  0  0  0  0  0  0  0  0  0
   -7.5130    1.5380   -2.9260 Cl  0  0  0  0  0  0  0  0  0  0  0  0
   -5.3510   -0.0770   -2.4900 C   0  0  0  0  0  0  0  0  0  0  0  0
   -5.1670    0.0060   -4.2450 Cl  0  0  0  0  0  0  0  0  0  0  0  0
   -4.4690   -0.8100   -1.7150 C   0  0  0  0  0  0  0  0  0  0  0  0
   -1.3190   -0.7020    0.4540 C   0  0  0  0  0  0  0  0  0  0  0  0
    1.5360   -0.9040   -0.2140 C   0  0  0  0  0  0  0  0  0  0  0  0
    2.8040   -0.8580   -0.7740 C   0  0  0  0  0  0  0  0  0  0  0  0
    6.0410    0.1600   -0.0520 P   0  0  0  0  0  0  0  0  0  0  0  0
    7.5730   -0.4550   -0.3660 O   0  0  0  0  0  0  0  0  0  0  0  0
    5.5300    0.3140    1.5280 O   0  0  0  0  0  0  0  0  0  0  0  0
    6.6330    1.5650    0.0050 O   0  0  0  0  0  0  0  0  0  0  0  0
  2  1  1  1
  2  3  1  0
  2 25  1  0
  3  4  2  0
  3 24  1  0
  4  5  1  0
  5  6  2  0
  6  7  1  0
  6 23  1  0
  7  8  2  0
  7 22  1  0
  8  9  1  0
  9 10  2  0
 10 11  1  0
 11 12  1  0
 11 22  2  0
 12 13  1  1
 12 14  1  0
 14 15  2  0
 14 21  1  0
 15 16  1  0
 16 17  2  0
 17 18  1  0
 17 19  1  0
 19 20  1  0
 19 21  2  0
 23 24  2  0
 25 26  1  0
 25 27  1  0
 25 28  1  0
M  END
