
     RDKit          3D

 24 25  0  0  0  0  0  0  0  0999 V2000
    4.5990    1.6220   -1.3980 N   0  0  0  0  0  0  0  0  0  0  0  0
    4.3880    0.4570   -0.9420 C   0  0  0  0  0  0  0  0  0  0  0  0
    5.5190   -0.4110   -0.8620 N   0  0  0  0  0  0  0  0  0  0  0  0
    6.7600    0.0020   -1.1610 O   0  0  0  0  0  0  0  0  0  0  0  0
    7.1630   -0.3730   -2.3530 O   0  0  0  0  0  0  0  0  0  0  0  0
    7.9410   -1.4310   -2.3080 O   0  0  0  0  0  0  0  0  0  0  0  0
    3.0740   -0.0150   -0.5100 C   0  0  0  0  0  0  0  0  0  0  0  0
    1.9590    0.7840   -0.5690 C   0  0  0  0  0  0  0  0  0  0  0  0
    0.7130    0.3040   -0.1480 C   0  0  0  0  0  0  0  0  0  0  0  0
   -0.3900    1.1310   -0.2190 O   0  0  0  0  0  0  0  0  0  0  0  0
   -1.6080    0.7920    0.1470 O   0  0  0  0  0  0  0  0  0  0  0  0
   -1.8430    1.0520    1.4730 C   0  0  0  0  0  0  0  0  0  0  0  0
   -3.1970    0.6700    1.8670 C   0  0  0  0  0  0  0  0  0  0  0  0
   -3.5690    0.9630    3.0830 O   0  0  0  0  0  0  0  0  0  0  0  0
   -4.1100    0.0190    1.0250 N   0  0  0  0  0  0  0  0  0  0  0  0
   -5.5140   -0.3220    1.4150 C   0  0  0  0  0  0  0  0  0  0  0  0
   -6.1760    0.0380    0.1120 C   0  0  0  0  0  0  0  0  0  0  0  0
   -7.2490    0.6690    0.0170 O   0  0  0  0  0  0  0  0  0  0  0  0
   -5.3270   -0.4900   -0.9130 N   0  0  0  0  0  0  0  0  0  0  0  0
   -4.0160   -0.4880   -0.2890 C   0  0  0  0  0  0  0  0  0  0  0  0
   -2.9930   -0.8900   -0.8730 O   0  0  0  0  0  0  0  0  0  0  0  0
    0.6620   -0.9890    0.3220 C   0  0  0  0  0  0  0  0  0  0  0  0
    1.7700   -1.7500    0.3680 N   0  0  0  0  0  0  0  0  0  0  0  0
    2.9260   -1.2760   -0.0320 N   0  0  0  0  0  0  0  0  0  0  0  0
  1  2  2  0
  2  3  1  0
  2  7  1  0
  3  4  1  0
  4  5  1  0
  5  6  1  0
  7  8  2  0
  7 24  1  0
  8  9  1  0
  9 10  1  0
  9 22  2  0
 10 11  1  0
 11 12  1  0
 12 13  1  0
 13 14  2  0
 13 15  1  0
 15 16  1  0
 15 20  1  0
 16 17  1  0
 17 18  2  0
 17 19  1  0
 19 20  1  0
 20 21  2  0
 22 23  1  0
 23 24  2  0
M  END
