
     RDKit          3D

 20 20  0  0  0  0  0  0  0  0999 V2000
    4.2500    0.7770   -0.3350 O   0  0  0  0  0  0  0  0  0  0  0  0
    4.1610    0.2520    0.8000 C   0  0  0  0  0  0  0  0  0  0  0  0
    5.3090   -0.3230    1.3460 O   0  0  0  0  0  0  0  0  0  0  0  0
    2.9880    0.2190    1.5260 O   0  0  0  0  0  0  0  0  0  0  0  0
    1.7820    0.7710    1.0530 C   0  0  0  0  0  0  0  0  0  0  0  0
    1.3490    0.0690   -0.1990 C   0  0  2  0  0  0  0  0  0  0  0  0
    0.1600    0.5540   -0.7140 O   0  0  0  0  0  0  0  0  0  0  0  0
   -0.3970    1.6100   -0.0470 C   0  0  0  0  0  0  0  0  0  0  0  0
   -1.8420    2.2080   -1.0930 P   0  0  0  0  0  0  0  0  0  0  0  0
   -2.5550    3.6020   -0.3880 O   0  0  0  0  0  0  0  0  0  0  0  0
   -2.9990    0.9610   -1.2910 O   0  0  0  0  0  0  0  0  0  0  0  0
   -3.5790    0.7060   -0.1410 O   0  0  0  0  0  0  0  0  0  0  0  0
   -3.7700   -0.6860   -0.0740 C   0  0  0  0  0  0  0  0  0  0  0  0
   -2.9820   -1.1540    0.9840 O   0  0  0  0  0  0  0  0  0  0  0  0
   -1.6490   -1.4670    0.8660 C   0  0  0  0  0  0  0  0  0  0  0  0
   -0.8930   -1.3340    1.8430 O   0  0  0  0  0  0  0  0  0  0  0  0
   -1.1370   -1.9560   -0.4220 C   0  0  0  0  0  0  0  0  0  0  0  0
    0.2860   -2.2690   -0.3680 N   0  0  0  0  0  0  0  0  0  0  0  0
    1.2770   -1.3960    0.0870 C   0  0  0  0  0  0  0  0  0  0  0  0
    2.2060   -1.8530    0.8040 O   0  0  0  0  0  0  0  0  0  0  0  0
  1  2  2  0
  2  3  1  0
  2  4  1  0
  4  5  1  0
  6  5  1  1
  6  7  1  0
  6 19  1  0
  7  8  1  0
  8  9  1  0
  9 10  1  0
  9 11  1  0
 11 12  1  0
 12 13  1  0
 13 14  1  0
 14 15  1  0
 15 16  2  0
 15 17  1  0
 17 18  1  0
 18 19  1  0
 19 20  2  0
M  END
