
     RDKit          3D

 20 20  0  0  0  0  0  0  0  0999 V2000
    3.9490    2.1730   -0.3550 O   0  0  0  0  0  0  0  0  0  0  0  0
    2.9650    1.5710    0.2110 C   0  0  0  0  0  0  0  0  0  0  0  0
    3.1500    0.1530    0.2380 N   0  0  0  0  0  0  0  0  0  0  0  0
    2.1420   -0.8280   -0.0470 C   0  0  0  0  0  0  0  0  0  0  0  0
    1.3830   -1.2270    1.2010 C   0  0  1  0  0  0  0  0  0  0  0  0
    1.4120   -0.1740    2.1100 O   0  0  0  0  0  0  0  0  0  0  0  0
   -0.4120   -1.4380    0.6840 P   0  0  0  0  0  0  0  0  0  0  0  0
   -0.5890   -3.1090    0.2230 O   0  0  0  0  0  0  0  0  0  0  0  0
    0.0900   -3.8250    1.0960 O   0  0  0  0  0  0  0  0  0  0  0  0
   -0.7070   -0.3700   -0.6180 O   0  0  0  0  0  0  0  0  0  0  0  0
   -1.9790    0.1250   -0.7090 C   0  0  2  0  0  0  0  0  0  0  0  0
   -2.4740    0.4410    0.5770 O   0  0  0  0  0  0  0  0  0  0  0  0
   -2.9570   -0.9130   -1.2480 C   0  0  0  0  0  0  0  0  0  0  0  0
   -3.0010   -2.0300   -0.4180 O   0  0  0  0  0  0  0  0  0  0  0  0
   -2.0010    1.3590   -1.5190 C   0  0  0  0  0  0  0  0  0  0  0  0
   -2.7950    1.4150   -2.4820 O   0  0  0  0  0  0  0  0  0  0  0  0
   -1.1860    2.3950   -1.2270 O   0  0  0  0  0  0  0  0  0  0  0  0
    0.2150    2.4080   -1.0550 C   0  0  0  0  0  0  0  0  0  0  0  0
    0.6010    2.4660    0.3990 C   0  0  0  0  0  0  0  0  0  0  0  0
    1.8700    2.1320    0.7350 O   0  0  0  0  0  0  0  0  0  0  0  0
  1  2  2  0
  2  3  1  0
  2 20  1  0
  3  4  1  0
  4  5  1  0
  5  6  1  1
  5  7  1  0
  7  8  1  0
  7 10  1  0
  8  9  1  0
 10 11  1  0
 11 12  1  1
 11 13  1  0
 11 15  1  0
 13 14  1  0
 15 16  2  0
 15 17  1  0
 17 18  1  0
 18 19  1  0
 19 20  1  0
M  END
