
     RDKit          3D

 20 20  0  0  0  0  0  0  0  0999 V2000
   -0.7540   -2.1210   -1.1570 O   0  0  0  0  0  0  0  0  0  0  0  0
    0.3320   -1.9670   -0.4910 C   0  0  0  0  0  0  0  0  0  0  0  0
    0.1580   -1.9430    0.9660 C   0  0  0  0  0  0  0  0  0  0  0  0
   -1.1640   -2.0130    1.3910 O   0  0  0  0  0  0  0  0  0  0  0  0
   -2.2640   -1.3920    0.8930 C   0  0  0  0  0  0  0  0  0  0  0  0
   -3.3370   -2.0090    0.7000 O   0  0  0  0  0  0  0  0  0  0  0  0
   -2.2450    0.0530    0.5530 C   0  0  1  0  0  0  0  0  0  0  0  0
   -3.4770    0.6210    0.8830 O   0  0  0  0  0  0  0  0  0  0  0  0
   -4.0090    1.1360   -0.1830 O   0  0  0  0  0  0  0  0  0  0  0  0
   -1.2410    0.7910    1.3650 C   0  0  0  0  0  0  0  0  0  0  0  0
   -1.4230    0.7990    2.6060 O   0  0  0  0  0  0  0  0  0  0  0  0
   -0.2040    1.4070    0.7540 O   0  0  0  0  0  0  0  0  0  0  0  0
   -0.1510    2.0030   -0.4990 C   0  0  0  0  0  0  0  0  0  0  0  0
    1.1450    1.5120   -1.1630 C   0  0  0  0  0  0  0  0  0  0  0  0
    2.3580    1.1970    0.1690 P   0  0  0  0  0  0  0  0  0  0  0  0
    3.4860    2.4560    0.4090 O   0  0  0  0  0  0  0  0  0  0  0  0
    3.0230   -0.3890    0.1990 O   0  0  0  0  0  0  0  0  0  0  0  0
    2.7930   -1.4440   -0.6510 C   0  0  0  0  0  0  0  0  0  0  0  0
    3.8300   -2.1270   -0.9920 O   0  0  0  0  0  0  0  0  0  0  0  0
    1.5440   -1.8400   -1.1740 N   0  0  0  0  0  0  0  0  0  0  0  0
  1  2  2  0
  2  3  1  0
  2 20  1  0
  3  4  1  0
  4  5  1  0
  5  6  2  0
  5  7  1  0
  7  8  1  1
  7 10  1  0
  8  9  1  0
 10 11  2  0
 10 12  1  0
 12 13  1  0
 13 14  1  0
 14 15  1  0
 15 16  1  0
 15 17  1  0
 17 18  1  0
 18 19  2  0
 18 20  1  0
M  END
