
     RDKit          3D

 20 20  0  0  0  0  0  0  0  0999 V2000
    0.4690    3.5900   -2.0570 O   0  0  0  0  0  0  0  0  0  0  0  0
    0.0520    2.4600   -1.5800 C   0  0  0  0  0  0  0  0  0  0  0  0
   -1.3320    2.5280   -1.2500 N   0  0  0  0  0  0  0  0  0  0  0  0
   -1.9390    2.0540   -0.0300 C   0  0  0  0  0  0  0  0  0  0  0  0
   -1.7570    0.5920    0.2100 C   0  0  0  0  0  0  0  0  0  0  0  0
   -2.9530   -0.1140    0.0770 O   0  0  0  0  0  0  0  0  0  0  0  0
   -2.8230   -1.1080   -0.7760 O   0  0  0  0  0  0  0  0  0  0  0  0
   -2.3320   -2.5500    0.0340 P   0  0  0  0  0  0  0  0  0  0  0  0
   -3.5970   -3.2410    0.9570 O   0  0  0  0  0  0  0  0  0  0  0  0
   -0.8980   -2.2500    0.9430 O   0  0  0  0  0  0  0  0  0  0  0  0
    0.2070   -2.3230    0.0800 C   0  0  0  0  0  0  0  0  0  0  0  0
    1.2570   -1.3010    0.4440 C   0  0  0  0  0  0  0  0  0  0  0  0
    1.7660   -0.6500   -0.8150 C   0  0  1  0  0  0  0  0  0  0  0  0
    1.0070   -0.9490   -1.9430 O   0  0  0  0  0  0  0  0  0  0  0  0
    1.8360    0.8800   -0.6730 C   0  0  2  0  0  0  0  0  0  0  0  0
    1.8490    1.1580    0.7560 C   0  0  0  0  0  0  0  0  0  0  0  0
    1.0110    1.9020    1.2950 O   0  0  0  0  0  0  0  0  0  0  0  0
    2.8240    0.5790    1.5440 O   0  0  0  0  0  0  0  0  0  0  0  0
    2.8720    0.8110    2.8740 O   0  0  0  0  0  0  0  0  0  0  0  0
    0.8720    1.4340   -1.4540 O   0  0  0  0  0  0  0  0  0  0  0  0
  1  2  2  0
  2  3  1  0
  2 20  1  0
  3  4  1  0
  4  5  1  0
  5  6  1  0
  6  7  1  0
  7  8  1  0
  8  9  1  0
  8 10  1  0
 10 11  1  0
 11 12  1  0
 12 13  1  0
 13 14  1  6
 13 15  1  0
 15 16  1  1
 15 20  1  0
 16 17  2  0
 16 18  1  0
 18 19  1  0
M  END
