
     RDKit          3D

 25 27  0  0  0  0  0  0  0  0999 V2000
    4.6470    0.1450    1.7180 C   0  0  0  0  0  0  0  0  0  0  0  0
    4.7200   -0.6690    0.4620 C   0  0  0  0  0  0  0  0  0  0  0  0
    5.0610    0.1150   -0.7910 C   0  0  1  0  0  0  0  0  0  0  0  0
    5.1010   -0.8940   -1.9140 C   0  0  0  0  0  0  0  0  0  0  0  0
    4.3210    1.2260   -1.0940 N   0  0  0  0  0  0  0  0  0  0  0  0
    4.3420    2.3630   -0.2050 C   0  0  0  0  0  0  0  0  0  0  0  0
    3.4130    1.3810   -2.1330 C   0  0  0  0  0  0  0  0  0  0  0  0
    2.1870    0.5480   -1.9380 C   0  0  0  0  0  0  0  0  0  0  0  0
    1.1560    0.9640   -1.2600 N   0  0  0  0  0  0  0  0  0  0  0  0
    0.1390   -0.0040   -1.2240 C   0  0  0  0  0  0  0  0  0  0  0  0
   -1.0390    0.1480   -0.5780 C   0  0  0  0  0  0  0  0  0  0  0  0
   -1.9710   -0.9420   -0.6430 C   0  0  0  0  0  0  0  0  0  0  0  0
   -3.1410   -1.1420   -0.1580 C   0  0  0  0  0  0  0  0  0  0  0  0
   -3.7600   -2.4190   -0.4730 N   0  0  0  0  0  0  0  0  0  0  0  0
   -4.9180   -2.7720   -0.0450 C   0  0  0  0  0  0  0  0  0  0  0  0
   -5.7170   -1.9030    0.8050 C   0  0  0  0  0  0  0  0  0  0  0  0
   -7.2880   -2.4110    1.3720 Cl  0  0  0  0  0  0  0  0  0  0  0  0
   -5.2110   -0.7300    1.1270 C   0  0  0  0  0  0  0  0  0  0  0  0
   -6.0510    0.1270    1.9960 C   0  0  0  0  0  0  0  0  0  0  0  0
   -5.0480    0.9280    2.8440 C   0  0  0  0  0  0  0  0  0  0  0  0
   -4.3510    1.8290    1.8540 C   0  0  0  0  0  0  0  0  0  0  0  0
   -3.3850    0.9890    1.0310 C   0  0  0  0  0  0  0  0  0  0  0  0
   -3.9140   -0.3000    0.6650 N   0  0  0  0  0  0  0  0  0  0  0  0
    0.6360   -1.1260   -1.9730 C   0  0  0  0  0  0  0  0  0  0  0  0
    1.8610   -0.7770   -2.3910 C   0  0  0  0  0  0  0  0  0  0  0  0
  1  2  1  0
  2  3  1  0
  3  4  1  6
  3  5  1  0
  5  6  1  0
  5  7  1  0
  7  8  1  0
  8  9  2  0
  8 25  1  0
  9 10  1  0
 10 11  2  3
 10 24  1  0
 11 12  1  0
 12 13  2  3
 13 14  1  0
 13 23  1  0
 14 15  2  0
 15 16  1  0
 16 17  1  0
 16 18  2  0
 18 19  1  0
 18 23  1  0
 19 20  1  0
 20 21  1  0
 21 22  1  0
 22 23  1  0
 24 25  2  0
M  CHG  1  14   1
M  END
