
     RDKit          3D

 13 12  0  0  0  0  0  0  0  0999 V2000
   -4.1640   -1.0830   -0.0300 C   0  0  0  0  0  0  0  0  0  0  0  0
   -2.6970   -1.0160    0.0420 C   0  0  0  0  0  0  0  0  0  0  0  0
   -1.9620    0.0300    0.3370 C   0  0  0  0  0  0  0  0  0  0  0  0
   -0.4850   -0.1630    0.3430 C   0  0  0  0  0  0  0  0  0  0  0  0
    0.3180    0.8280    0.6260 C   0  0  0  0  0  0  0  0  0  0  0  0
    1.7540    0.6230    0.6270 C   0  0  0  0  0  0  0  0  0  0  0  0
    2.5260    1.5710    0.8980 O   0  0  0  0  0  0  0  0  0  0  0  0
    2.2430   -0.6360    0.3220 O   0  0  0  0  0  0  0  0  0  0  0  0
    3.6330   -0.8490    0.3190 C   0  0  0  0  0  0  0  0  0  0  0  0
    4.2600    0.0720   -0.7040 C   0  0  0  0  0  0  0  0  0  0  0  0
   -2.4880    1.3660    0.6570 C   0  0  1  0  0  0  0  0  0  0  0  0
   -1.9570    2.4990   -0.6380 Cl  0  0  0  0  0  0  0  0  0  0  0  0
   -4.2110    1.4390    0.9050 Cl  0  0  0  0  0  0  0  0  0  0  0  0
  1  2  1  0
  2  3  2  3
  3  4  1  0
  3 11  1  0
  4  5  2  3
  5  6  1  0
  6  7  2  0
  6  8  1  0
  8  9  1  0
  9 10  1  0
 11 12  1  6
 11 13  1  0
M  END
