
     RDKit          3D

 26 28  0  0  0  0  0  0  0  0999 V2000
   -2.5560   -0.3750    0.9540 C   0  0  0  0  0  0  0  0  0  0  0  0
   -2.0980   -0.4280   -0.2740 C   0  0  0  0  0  0  0  0  0  0  0  0
   -2.1380    0.7920   -1.1110 C   0  0  0  0  0  0  0  0  0  0  0  0
   -2.1190    2.0080   -0.3320 N   0  0  0  0  0  0  0  0  0  0  0  0
   -3.2480    2.5150    0.3760 C   0  0  0  0  0  0  0  0  0  0  0  0
   -2.9470    3.6260    0.9940 C   0  0  0  0  0  0  0  0  0  0  0  0
   -1.6180    3.9170    0.7330 N   0  0  0  0  0  0  0  0  0  0  0  0
   -1.0270    2.8970   -0.1310 C   0  0  0  0  0  0  0  0  0  0  0  0
    0.1870    2.8590   -0.6490 C   0  0  0  0  0  0  0  0  0  0  0  0
    0.9530    2.0520   -1.5390 C   0  0  0  0  0  0  0  0  0  0  0  0
    1.8940    1.1950   -1.4890 N   0  0  0  0  0  0  0  0  0  0  0  0
    2.6720    0.6010   -0.4620 C   0  0  0  0  0  0  0  0  0  0  0  0
    4.0440    0.9330   -0.3480 C   0  0  0  0  0  0  0  0  0  0  0  0
    4.8850    0.4560    0.5950 C   0  0  0  0  0  0  0  0  0  0  0  0
    4.4200   -0.4290    1.5480 C   0  0  0  0  0  0  0  0  0  0  0  0
    5.2520   -0.9100    2.4980 F   0  0  0  0  0  0  0  0  0  0  0  0
    3.0950   -0.7890    1.4840 C   0  0  0  0  0  0  0  0  0  0  0  0
    2.2640   -0.2840    0.5070 C   0  0  0  0  0  0  0  0  0  0  0  0
    0.8790   -0.8550    0.5420 C   0  0  0  0  0  0  0  0  0  0  0  0
    0.7690   -2.1040   -0.1400 N   0  0  0  0  0  0  0  0  0  0  0  0
    2.0490   -2.4680   -0.7080 C   0  0  0  0  0  0  0  0  0  0  0  0
   -0.1650   -1.8980   -1.2460 C   0  0  0  0  0  0  0  0  0  0  0  0
   -1.5580   -1.7070   -0.7120 C   0  0  0  0  0  0  0  0  0  0  0  0
   -2.2990   -2.7830   -0.6550 C   0  0  0  0  0  0  0  0  0  0  0  0
   -3.6950   -2.9050   -0.1860 C   0  0  0  0  0  0  0  0  0  0  0  0
   -3.7220   -4.0140    1.2020 Cl  0  0  0  0  0  0  0  0  0  0  0  0
  1  2  2  0
  2  3  1  0
  2 23  1  0
  3  4  1  0
  4  5  1  0
  4  8  1  0
  5  6  2  0
  6  7  1  0
  7  8  1  0
  8  9  2  0
  9 10  1  0
 10 11  2  0
 11 12  1  0
 12 13  2  0
 12 18  1  0
 13 14  1  0
 14 15  2  0
 15 16  1  0
 15 17  1  0
 17 18  2  0
 18 19  1  0
 19 20  1  0
 20 21  1  0
 20 22  1  0
 22 23  1  0
 23 24  2  3
 24 25  1  0
 25 26  1  0
M  CHG  1  11   1
M  END
