
     RDKit          3D

 26 27  0  0  0  0  0  0  0  0999 V2000
   -8.4290    0.5070   -0.8800 C   0  0  0  0  0  0  0  0  0  0  0  0
   -7.6660    0.0180    0.3230 C   0  0  1  0  0  0  0  0  0  0  0  0
   -8.5030   -0.7560    1.2160 N   0  0  0  0  0  0  0  0  0  0  0  0
   -6.4940   -0.7530   -0.1440 C   0  0  0  0  0  0  0  0  0  0  0  0
   -6.2500   -1.9310    0.1890 O   0  0  0  0  0  0  0  0  0  0  0  0
   -5.5710   -0.1360   -1.0280 N   0  0  0  0  0  0  0  0  0  0  0  0
   -4.4350   -0.8260   -1.5040 C   0  0  0  0  0  0  0  0  0  0  0  0
   -3.4780   -1.3010   -0.4540 C   0  0  0  0  0  0  0  0  0  0  0  0
   -2.9310   -0.1770    0.3510 C   0  0  0  0  0  0  0  0  0  0  0  0
   -1.6540    0.1060    0.4240 C   0  0  0  0  0  0  0  0  0  0  0  0
   -0.6770   -0.6140   -0.2430 O   0  0  0  0  0  0  0  0  0  0  0  0
    0.6710   -0.2010   -0.2920 C   0  0  0  0  0  0  0  0  0  0  0  0
    1.0430    0.5250    0.9890 C   0  0  1  0  0  0  0  0  0  0  0  0
    2.4520    0.9860    0.9150 C   0  0  0  0  0  0  0  0  0  0  0  0
    2.6920    2.1970    1.1550 O   0  0  0  0  0  0  0  0  0  0  0  0
    3.5180    0.1070    0.5850 N   0  0  0  0  0  0  0  0  0  0  0  0
    4.9000    0.5400    0.5080 C   0  0  1  0  0  0  0  0  0  0  0  0
    5.7910   -0.1560    1.4830 C   0  0  0  0  0  0  0  0  0  0  0  0
    6.8860   -0.8560    0.7130 C   0  0  0  0  0  0  0  0  0  0  0  0
    7.6560    0.1220   -0.1610 C   0  0  2  0  0  0  0  0  0  0  0  0
    8.3150    1.0510    0.6370 O   0  0  0  0  0  0  0  0  0  0  0  0
    6.7760    0.8590   -1.1150 C   0  0  0  0  0  0  0  0  0  0  0  0
    5.3530    0.4130   -0.9220 C   0  0  0  0  0  0  0  0  0  0  0  0
    0.1550    1.5450    1.3280 O   0  0  0  0  0  0  0  0  0  0  0  0
   -1.2170    1.2270    1.2380 C   0  0  0  0  0  0  0  0  0  0  0  0
   -2.0820    1.8900    1.8490 O   0  0  0  0  0  0  0  0  0  0  0  0
  2  1  1  6
  2  3  1  0
  2  4  1  0
  4  5  2  0
  4  6  1  0
  6  7  1  0
  7  8  1  0
  8  9  1  0
  9 10  2  3
 10 11  1  0
 10 25  1  0
 11 12  1  0
 12 13  1  0
 13 14  1  6
 13 24  1  0
 14 15  2  0
 14 16  1  0
 17 16  1  6
 17 18  1  0
 17 23  1  0
 18 19  1  0
 19 20  1  0
 20 21  1  1
 20 22  1  0
 22 23  1  0
 24 25  1  0
 25 26  2  0
M  END
