
     RDKit          3D

 27 28  0  0  0  0  0  0  0  0999 V2000
   -0.1570    4.1790    2.0170 C   0  0  0  0  0  0  0  0  0  0  0  0
    0.3900    4.0410    0.6130 C   0  0  0  0  0  0  0  0  0  0  0  0
    0.7830    2.6970    0.3360 O   0  0  0  0  0  0  0  0  0  0  0  0
   -0.1040    1.6430    0.3880 C   0  0  0  0  0  0  0  0  0  0  0  0
   -1.2920    1.8810    0.6880 O   0  0  0  0  0  0  0  0  0  0  0  0
    0.3920    0.2900    0.0860 C   0  0  0  0  0  0  0  0  0  0  0  0
    1.6570    0.1840   -0.2120 C   0  0  0  0  0  0  0  0  0  0  0  0
    2.2930   -1.0360   -0.5260 N   0  0  0  0  0  0  0  0  0  0  0  0
    3.6950   -1.0670   -0.8460 C   0  0  0  0  0  0  0  0  0  0  0  0
    4.3220    0.0170   -0.8360 O   0  0  0  0  0  0  0  0  0  0  0  0
    4.3160   -2.2640   -1.1520 O   0  0  0  0  0  0  0  0  0  0  0  0
    5.7120   -2.2070   -1.4590 C   0  0  0  0  0  0  0  0  0  0  0  0
   -0.5450   -0.8620    0.1280 C   0  0  1  0  0  0  0  0  0  0  0  0
   -0.9430   -1.2110    1.4860 C   0  0  0  0  0  0  0  0  0  0  0  0
    0.0310   -1.3730    2.4150 C   0  0  0  0  0  0  0  0  0  0  0  0
   -0.3110   -1.7190    3.7770 C   0  0  0  0  0  0  0  0  0  0  0  0
   -1.6810   -1.8700    4.0530 O   0  0  0  0  0  0  0  0  0  0  0  0
   -2.6690   -1.7050    3.1030 C   0  0  0  0  0  0  0  0  0  0  0  0
   -2.3260   -1.3840    1.8510 C   0  0  0  0  0  0  0  0  0  0  0  0
   -3.3450   -1.2130    0.8680 N   0  0  0  0  0  0  0  0  0  0  0  0
   -2.8980   -0.8740   -0.4350 C   0  0  0  0  0  0  0  0  0  0  0  0
   -3.8930   -0.6950   -1.4440 O   0  0  0  0  0  0  0  0  0  0  0  0
   -1.6610   -0.7080   -0.8070 C   0  0  0  0  0  0  0  0  0  0  0  0
   -1.3910   -0.3530   -2.2250 C   0  0  0  0  0  0  0  0  0  0  0  0
   -0.1890   -0.1860   -2.6110 N   0  0  0  0  0  0  0  0  0  0  0  0
   -2.4200   -0.2070   -3.1040 O   0  0  0  0  0  0  0  0  0  0  0  0
   -2.2880    0.5980   -4.2860 C   0  0  0  0  0  0  0  0  0  0  0  0
  1  2  1  0
  2  3  1  0
  3  4  1  0
  4  5  2  0
  4  6  1  0
  6  7  2  3
 13  6  1  1
  7  8  1  0
  8  9  1  0
  9 10  2  0
  9 11  1  0
 11 12  1  0
 13 14  1  0
 13 23  1  0
 14 15  2  0
 14 19  1  0
 15 16  1  0
 16 17  1  0
 17 18  1  0
 18 19  2  0
 19 20  1  0
 20 21  1  0
 21 22  1  0
 21 23  2  0
 23 24  1  0
 24 25  2  0
 24 26  1  0
 26 27  1  0
M  END
