
     RDKit          3D

 16 17  0  0  0  0  0  0  0  0999 V2000
    3.3980    0.2650    2.5930 O   0  0  0  0  0  0  0  0  0  0  0  0
    3.6500    0.4110    1.3890 C   0  0  0  0  0  0  0  0  0  0  0  0
    4.9810    0.6260    1.0240 O   0  0  0  0  0  0  0  0  0  0  0  0
    2.6470    0.3700    0.3510 C   0  0  0  0  0  0  0  0  0  0  0  0
    3.0230    0.5520   -0.9770 C   0  0  0  0  0  0  0  0  0  0  0  0
    2.0680    0.5070   -1.9720 C   0  0  0  0  0  0  0  0  0  0  0  0
    0.7690    0.2800   -1.6030 C   0  0  0  0  0  0  0  0  0  0  0  0
    0.3460    0.0940   -0.3030 C   0  0  0  0  0  0  0  0  0  0  0  0
   -1.0610   -0.1460   -0.0020 C   0  0  0  0  0  0  0  0  0  0  0  0
   -1.8390   -0.8310   -0.9130 C   0  0  0  0  0  0  0  0  0  0  0  0
   -3.1850   -1.0910   -0.6980 C   0  0  0  0  0  0  0  0  0  0  0  0
   -3.8040   -0.6630    0.4580 C   0  0  0  0  0  0  0  0  0  0  0  0
   -5.1540   -0.9110    0.6970 O   0  0  0  0  0  0  0  0  0  0  0  0
   -3.0190    0.0230    1.3700 C   0  0  0  0  0  0  0  0  0  0  0  0
   -1.6800    0.2810    1.1550 C   0  0  0  0  0  0  0  0  0  0  0  0
    1.3050    0.1410    0.6850 C   0  0  0  0  0  0  0  0  0  0  0  0
  1  2  2  0
  2  3  1  0
  2  4  1  0
  4  5  2  0
  4 16  1  0
  5  6  1  0
  6  7  2  0
  7  8  1  0
  8  9  1  0
  8 16  2  0
  9 10  2  0
  9 15  1  0
 10 11  1  0
 11 12  2  0
 12 13  1  0
 12 14  1  0
 14 15  2  0
M  END
