
     RDKit          3D

 27 27  0  0  0  0  0  0  0  0999 V2000
    6.2310   -1.0810   -2.1200 C   0  0  0  0  0  0  0  0  0  0  0  0
    5.3910   -0.7210   -0.9170 C   0  0  1  0  0  0  0  0  0  0  0  0
    5.1770   -1.9770   -0.1030 C   0  0  0  0  0  0  0  0  0  0  0  0
    6.1510    0.2630   -0.0630 C   0  0  0  0  0  0  0  0  0  0  0  0
    4.1640   -0.1270   -1.2990 O   0  0  0  0  0  0  0  0  0  0  0  0
    3.2480    0.2740   -0.3500 C   0  0  0  0  0  0  0  0  0  0  0  0
    3.5720    0.0790    0.8620 O   0  0  0  0  0  0  0  0  0  0  0  0
    2.0070    0.8720   -0.6320 N   0  0  0  0  0  0  0  0  0  0  0  0
    1.1450    1.2430    0.4700 C   0  0  2  0  0  0  0  0  0  0  0  0
    1.8690    2.2580    1.3600 C   0  0  0  0  0  0  0  0  0  0  0  0
    0.7780    0.0890    1.3390 C   0  0  0  0  0  0  0  0  0  0  0  0
   -0.4310    0.6140    2.0230 C   0  0  0  0  0  0  0  0  0  0  0  0
   -0.7550    0.3030    3.1980 O   0  0  0  0  0  0  0  0  0  0  0  0
   -1.0780    1.4830    1.0990 N   0  0  0  0  0  0  0  0  0  0  0  0
   -2.4270    1.9540    1.2280 C   0  0  0  0  0  0  0  0  0  0  0  0
   -3.4980    1.1590    0.6320 C   0  0  0  0  0  0  0  0  0  0  0  0
   -4.6120    1.7440    0.6160 O   0  0  0  0  0  0  0  0  0  0  0  0
   -3.4740   -0.1950    0.0620 C   0  0  1  0  0  0  0  0  0  0  0  0
   -2.4410   -0.3000   -1.0280 C   0  0  0  0  0  0  0  0  0  0  0  0
   -3.4100   -1.2870    1.0820 C   0  0  0  0  0  0  0  0  0  0  0  0
   -4.5470   -1.1880    1.8850 O   0  0  0  0  0  0  0  0  0  0  0  0
   -4.8250   -0.3980   -0.6630 C   0  0  1  0  0  0  0  0  0  0  0  0
   -4.9740    0.5720   -1.7120 N   0  0  0  0  0  0  0  0  0  0  0  0
   -5.0350   -1.7830   -1.1730 C   0  0  0  0  0  0  0  0  0  0  0  0
   -6.3530   -1.8360   -1.7080 O   0  0  0  0  0  0  0  0  0  0  0  0
   -0.1270    1.8140    0.0590 C   0  0  0  0  0  0  0  0  0  0  0  0
   -0.4670    2.4730   -0.9510 O   0  0  0  0  0  0  0  0  0  0  0  0
  2  1  1  6
  2  3  1  0
  2  4  1  0
  2  5  1  0
  5  6  1  0
  6  7  2  0
  6  8  1  0
  8  9  1  0
  9 10  1  1
  9 11  1  0
  9 26  1  0
 11 12  1  0
 12 13  2  0
 12 14  1  0
 14 15  1  0
 14 26  1  0
 15 16  1  0
 16 17  2  0
 16 18  1  0
 18 19  1  6
 18 20  1  0
 18 22  1  0
 20 21  1  0
 22 23  1  6
 22 24  1  0
 24 25  1  0
 26 27  2  0
M  END
