
     RDKit          3D

 27 29  0  0  0  0  0  0  0  0999 V2000
   -1.9590   -2.7100   -4.4380 C   0  0  0  0  0  0  0  0  0  0  0  0
   -1.6750   -1.9920   -3.2420 O   0  0  0  0  0  0  0  0  0  0  0  0
   -2.6530   -1.8580   -2.2780 C   0  0  0  0  0  0  0  0  0  0  0  0
   -3.7670   -2.3810   -2.4990 O   0  0  0  0  0  0  0  0  0  0  0  0
   -2.3410   -1.1170   -1.0580 C   0  0  0  0  0  0  0  0  0  0  0  0
   -1.1180   -0.6110   -0.9480 C   0  0  0  0  0  0  0  0  0  0  0  0
   -0.6910    0.1470    0.2240 C   0  0  0  0  0  0  0  0  0  0  0  0
    0.6300    0.6680    0.2910 N   0  0  0  0  0  0  0  0  0  0  0  0
    1.7560   -0.1990    0.2350 C   0  0  0  0  0  0  0  0  0  0  0  0
    1.5240   -1.4290    0.1240 O   0  0  0  0  0  0  0  0  0  0  0  0
    3.1580    0.2660    0.2990 C   0  0  2  0  0  0  0  0  0  0  0  0
    3.3560    1.2080   -0.8910 C   0  0  0  0  0  0  0  0  0  0  0  0
    4.7770    1.6870   -0.8480 C   0  0  0  0  0  0  0  0  0  0  0  0
    5.6960    0.5140   -1.1630 C   0  0  0  0  0  0  0  0  0  0  0  0
    4.9260   -0.7810   -1.1470 C   0  0  0  0  0  0  0  0  0  0  0  0
    4.0950   -0.8890    0.1300 C   0  0  1  0  0  0  0  0  0  0  0  0
    4.9250   -1.0850    1.2200 O   0  0  0  0  0  0  0  0  0  0  0  0
   -1.5670    0.3240    1.1980 C   0  0  0  0  0  0  0  0  0  0  0  0
   -2.9370   -0.2150    1.1300 C   0  0  2  0  0  0  0  0  0  0  0  0
   -3.9740    0.9110    1.2790 C   0  0  0  0  0  0  0  0  0  0  0  0
   -3.9150    1.1350    2.7710 C   0  0  1  0  0  0  0  0  0  0  0  0
   -5.2970    1.1790    3.3130 C   0  0  0  0  0  0  0  0  0  0  0  0
   -5.7530    0.3170    4.1070 O   0  0  0  0  0  0  0  0  0  0  0  0
   -6.1280    2.2160    2.9290 O   0  0  0  0  0  0  0  0  0  0  0  0
   -3.2760   -0.0390    3.3310 N   0  0  0  0  0  0  0  0  0  0  0  0
   -3.2660   -0.9990    2.3220 N   0  0  0  0  0  0  0  0  0  0  0  0
   -3.2310   -0.9250   -0.0440 O   0  0  0  0  0  0  0  0  0  0  0  0
  1  2  1  0
  2  3  1  0
  3  4  2  0
  3  5  1  0
  5  6  2  0
  5 27  1  0
  6  7  1  0
  7  8  1  0
  7 18  2  0
  8  9  1  0
  9 10  2  0
 11  9  1  6
 11 12  1  0
 11 16  1  0
 12 13  1  0
 13 14  1  0
 14 15  1  0
 15 16  1  0
 16 17  1  1
 18 19  1  0
 19 20  1  6
 19 26  1  0
 19 27  1  0
 20 21  1  0
 21 22  1  1
 21 25  1  0
 22 23  2  0
 22 24  1  0
 25 26  1  0
M  END
