
     RDKit          3D

 18 18  0  0  0  0  0  0  0  0999 V2000
    4.1270   -0.4110    0.3860 N   0  0  0  0  0  0  0  0  0  0  0  0
    3.1520    0.3250    1.1910 C   0  0  0  0  0  0  0  0  0  0  0  0
    1.8110   -0.0080    0.5560 C   0  0  0  0  0  0  0  0  0  0  0  0
    0.9280   -0.6030    1.3650 C   0  0  0  0  0  0  0  0  0  0  0  0
    1.3370   -0.8440    2.6760 F   0  0  0  0  0  0  0  0  0  0  0  0
   -0.3070   -0.9540    0.9280 O   0  0  0  0  0  0  0  0  0  0  0  0
   -0.7990   -1.8440    0.0120 C   0  0  0  0  0  0  0  0  0  0  0  0
   -2.1690   -1.5710   -0.5010 C   0  0  2  0  0  0  0  0  0  0  0  0
   -2.2510   -2.0380   -1.8160 O   0  0  0  0  0  0  0  0  0  0  0  0
   -2.6040   -0.1170   -0.4330 C   0  0  0  0  0  0  0  0  0  0  0  0
   -2.1550    0.3950    0.8440 N   0  0  0  0  0  0  0  0  0  0  0  0
   -1.4890    1.6220    1.0730 C   0  0  0  0  0  0  0  0  0  0  0  0
   -1.8110    2.1260    2.2210 O   0  0  0  0  0  0  0  0  0  0  0  0
   -0.5770    2.2830    0.2190 N   0  0  0  0  0  0  0  0  0  0  0  0
   -0.1040    2.0010   -1.0480 C   0  0  0  0  0  0  0  0  0  0  0  0
   -0.3740    2.8700   -1.9790 O   0  0  0  0  0  0  0  0  0  0  0  0
    0.6790    0.8470   -1.5420 C   0  0  0  0  0  0  0  0  0  0  0  0
    1.6430    0.3240   -0.7470 O   0  0  0  0  0  0  0  0  0  0  0  0
  1  2  1  0
  2  3  1  0
  3  4  2  0
  3 18  1  0
  4  5  1  0
  4  6  1  0
  6  7  1  0
  7  8  1  0
  8  9  1  6
  8 10  1  0
 10 11  1  0
 11 12  1  0
 12 13  2  0
 12 14  1  0
 14 15  1  0
 15 16  2  0
 15 17  1  0
 17 18  1  0
M  END
