
     RDKit          3D

 18 18  0  0  0  0  0  0  0  0999 V2000
    4.7500   -0.1670   -1.1770 N   0  0  0  0  0  0  0  0  0  0  0  0
    3.5830   -0.9570   -1.0940 C   0  0  0  0  0  0  0  0  0  0  0  0
    3.6000   -2.1310   -1.5200 O   0  0  0  0  0  0  0  0  0  0  0  0
    2.3690   -0.4020   -0.5160 C   0  0  1  0  0  0  0  0  0  0  0  0
    1.2840   -1.2810   -0.4910 O   0  0  0  0  0  0  0  0  0  0  0  0
   -0.0200   -0.9890   -0.1200 C   0  0  0  0  0  0  0  0  0  0  0  0
   -0.8980   -1.8310   -0.4420 O   0  0  0  0  0  0  0  0  0  0  0  0
   -0.5100    0.1900    0.6060 C   0  0  0  0  0  0  0  0  0  0  0  0
   -1.7660    0.5370    0.4900 C   0  0  0  0  0  0  0  0  0  0  0  0
   -2.7990   -0.1370   -0.3170 C   0  0  1  0  0  0  0  0  0  0  0  0
   -3.3710   -1.3030    0.3490 N   0  0  0  0  0  0  0  0  0  0  0  0
   -3.9870    0.8230   -0.4870 C   0  0  0  0  0  0  0  0  0  0  0  0
   -4.4260    1.0890    0.8060 F   0  0  0  0  0  0  0  0  0  0  0  0
    0.3210    1.0240    1.4670 C   0  0  0  0  0  0  0  0  0  0  0  0
   -0.2540    1.8630    2.2110 O   0  0  0  0  0  0  0  0  0  0  0  0
    1.7580    1.0140    1.5810 N   0  0  0  0  0  0  0  0  0  0  0  0
    2.6480    0.2190    0.8090 C   0  0  0  0  0  0  0  0  0  0  0  0
    3.8110    0.0150    1.3000 O   0  0  0  0  0  0  0  0  0  0  0  0
  1  2  1  0
  2  3  2  0
  4  2  1  1
  4  5  1  0
  4 17  1  0
  5  6  1  0
  6  7  2  0
  6  8  1  0
  8  9  2  3
  8 14  1  0
  9 10  1  0
 10 11  1  1
 10 12  1  0
 12 13  1  0
 14 15  2  0
 14 16  1  0
 16 17  1  0
 17 18  2  0
M  END
