
     RDKit          3D

 17 17  0  0  0  0  0  0  0  0999 V2000
    3.7340   -0.9470    0.7650 O   0  0  0  0  0  0  0  0  0  0  0  0
    2.6480   -0.7150    0.1170 C   0  0  0  0  0  0  0  0  0  0  0  0
    1.9560    0.5440    0.5020 C   0  0  0  0  0  0  0  0  0  0  0  0
    1.9610    1.5040   -0.5820 N   0  0  0  0  0  0  0  0  0  0  0  0
    0.8550    2.2310   -1.0670 C   0  0  0  0  0  0  0  0  0  0  0  0
    1.1510    3.1910   -1.8660 O   0  0  0  0  0  0  0  0  0  0  0  0
   -0.5140    2.0460   -0.7960 N   0  0  0  0  0  0  0  0  0  0  0  0
   -1.1300    1.8320    0.4960 C   0  0  0  0  0  0  0  0  0  0  0  0
   -1.8380    0.5330    0.5930 C   0  0  2  0  0  0  0  0  0  0  0  0
   -1.6760   -0.0280    1.8690 O   0  0  0  0  0  0  0  0  0  0  0  0
   -1.4960   -0.5170   -0.3920 C   0  0  1  0  0  0  0  0  0  0  0  0
   -0.5710   -0.1340   -1.3720 O   0  0  0  0  0  0  0  0  0  0  0  0
   -1.0690   -1.8050    0.2110 C   0  0  0  0  0  0  0  0  0  0  0  0
   -1.9640   -2.3070    1.1810 O   0  0  0  0  0  0  0  0  0  0  0  0
    0.0070   -2.4980   -0.0520 C   0  0  0  0  0  0  0  0  0  0  0  0
    1.0850   -2.2430   -0.9700 C   0  0  0  0  0  0  0  0  0  0  0  0
    2.1190   -1.5240   -0.8610 N   0  0  0  0  0  0  0  0  0  0  0  0
  1  2  2  0
  2  3  1  0
  2 17  1  0
  3  4  1  0
  4  5  1  0
  5  6  2  0
  5  7  1  0
  7  8  1  0
  8  9  1  0
  9 10  1  1
  9 11  1  0
 11 12  1  6
 11 13  1  0
 13 14  1  0
 13 15  2  0
 15 16  1  0
 16 17  2  0
M  END
