
     RDKit          3D

 18 18  0  0  0  0  0  0  0  0999 V2000
   -3.4930    2.7720    1.3000 C   0  0  0  0  0  0  0  0  0  0  0  0
   -2.8440    1.6150    0.6630 N   0  0  0  0  0  0  0  0  0  0  0  0
   -1.4410    1.4670    0.6580 C   0  0  0  0  0  0  0  0  0  0  0  0
   -0.7250    2.3210    1.2000 O   0  0  0  0  0  0  0  0  0  0  0  0
   -0.7860    0.2840    0.0040 C   0  0  0  0  0  0  0  0  0  0  0  0
    0.5190    0.2790    0.0800 C   0  0  0  0  0  0  0  0  0  0  0  0
    1.4720   -0.6580   -0.4250 C   0  0  0  0  0  0  0  0  0  0  0  0
    2.7940   -0.5500   -0.2540 C   0  0  0  0  0  0  0  0  0  0  0  0
    3.7370   -1.4520   -0.7390 O   0  0  0  0  0  0  0  0  0  0  0  0
    4.9910   -0.8130   -0.6850 C   0  0  1  0  0  0  0  0  0  0  0  0
    5.2440   -0.2370   -1.9020 F   0  0  0  0  0  0  0  0  0  0  0  0
    4.8830    0.1370    0.3390 O   0  0  0  0  0  0  0  0  0  0  0  0
    3.5340    0.4800    0.4450 C   0  0  0  0  0  0  0  0  0  0  0  0
    3.1400    1.5060    1.0500 O   0  0  0  0  0  0  0  0  0  0  0  0
   -1.6370   -0.7200   -0.5080 N   0  0  0  0  0  0  0  0  0  0  0  0
   -1.5300   -2.0990   -0.4160 C   0  0  0  0  0  0  0  0  0  0  0  0
   -2.5130   -2.9530   -1.0480 N   0  0  0  0  0  0  0  0  0  0  0  0
   -0.6180   -2.6820    0.1920 O   0  0  0  0  0  0  0  0  0  0  0  0
  1  2  1  0
  2  3  1  0
  3  4  2  0
  3  5  1  0
  5  6  2  3
  5 15  1  0
  6  7  1  0
  7  8  2  3
  8  9  1  0
  8 13  1  0
  9 10  1  0
 10 11  1  6
 10 12  1  0
 12 13  1  0
 13 14  2  0
 15 16  1  0
 16 17  1  0
 16 18  2  0
M  END
