
     RDKit          3D

 18 18  0  0  0  0  0  0  0  0999 V2000
   -3.4240    1.7870   -0.3320 N   0  0  0  0  0  0  0  0  0  0  0  0
   -3.4390    0.3340   -0.4060 C   0  0  2  0  0  0  0  0  0  0  0  0
   -2.6140   -0.2410    0.6680 C   0  0  0  0  0  0  0  0  0  0  0  0
   -1.6430   -1.1150    0.4470 C   0  0  0  0  0  0  0  0  0  0  0  0
   -0.9440   -1.5770    1.5520 O   0  0  0  0  0  0  0  0  0  0  0  0
    0.2640   -2.2660    1.4420 C   0  0  0  0  0  0  0  0  0  0  0  0
    1.3180   -1.4680    0.7940 C   0  0  0  0  0  0  0  0  0  0  0  0
    2.4390   -2.0540    0.6030 O   0  0  0  0  0  0  0  0  0  0  0  0
    1.1430   -0.1250    0.3900 N   0  0  0  0  0  0  0  0  0  0  0  0
    2.2050    0.5320   -0.2170 N   0  0  0  0  0  0  0  0  0  0  0  0
    3.2890    0.9600    0.5950 C   0  0  0  0  0  0  0  0  0  0  0  0
    3.2910    0.7510    1.8420 O   0  0  0  0  0  0  0  0  0  0  0  0
    4.4150    1.6630   -0.0880 C   0  0  0  0  0  0  0  0  0  0  0  0
    4.1970    3.0220   -0.1230 F   0  0  0  0  0  0  0  0  0  0  0  0
   -1.3350   -1.5620   -0.9050 C   0  0  0  0  0  0  0  0  0  0  0  0
   -0.3290   -2.4730   -1.1580 O   0  0  0  0  0  0  0  0  0  0  0  0
   -2.0730   -1.0440   -1.8710 C   0  0  0  0  0  0  0  0  0  0  0  0
   -3.0690   -0.1440   -1.6460 O   0  0  0  0  0  0  0  0  0  0  0  0
  2  1  1  6
  2  3  1  0
  2 18  1  0
  3  4  2  0
  4  5  1  0
  4 15  1  0
  5  6  1  0
  6  7  1  0
  7  8  2  0
  7  9  1  0
  9 10  1  0
 10 11  1  0
 11 12  2  0
 11 13  1  0
 13 14  1  0
 15 16  1  0
 15 17  2  0
 17 18  1  0
M  END
