
     RDKit          3D

 15 16  0  0  0  0  0  0  0  0999 V2000
   -1.9090   -2.4940    0.1830 C   0  0  0  0  0  0  0  0  0  0  0  0
   -2.6790   -1.4430   -0.0680 C   0  0  0  0  0  0  0  0  0  0  0  0
   -2.2990   -0.1580    0.4800 C   0  0  0  0  0  0  0  0  0  0  0  0
   -3.0400    0.9020    0.2490 C   0  0  0  0  0  0  0  0  0  0  0  0
   -2.6470    2.2040    0.8100 C   0  0  0  0  0  0  0  0  0  0  0  0
   -1.1350   -0.0450    1.2610 N   0  0  0  0  0  0  0  0  0  0  0  0
    0.1280   -0.0930    0.5940 C   0  0  0  0  0  0  0  0  0  0  0  0
    0.2200   -0.2450   -0.7790 C   0  0  0  0  0  0  0  0  0  0  0  0
    1.4420   -0.2900   -1.4140 C   0  0  0  0  0  0  0  0  0  0  0  0
    2.6350   -0.1860   -0.7130 C   0  0  0  0  0  0  0  0  0  0  0  0
    2.5410   -0.0340    0.6540 C   0  0  0  0  0  0  0  0  0  0  0  0
    1.3180    0.0110    1.2850 C   0  0  0  0  0  0  0  0  0  0  0  0
    3.8580    0.0480    1.1330 O   0  0  0  0  0  0  0  0  0  0  0  0
    4.6650    0.3340    0.0320 C   0  0  0  0  0  0  0  0  0  0  0  0
    3.9790   -0.2010   -1.1040 O   0  0  0  0  0  0  0  0  0  0  0  0
  1  2  2  0
  2  3  1  0
  3  4  2  3
  3  6  1  0
  4  5  1  0
  6  7  1  0
  7  8  2  0
  7 12  1  0
  8  9  1  0
  9 10  2  0
 10 11  1  0
 10 15  1  0
 11 12  2  0
 11 13  1  0
 13 14  1  0
 14 15  1  0
M  END
