
     RDKit          3D

 15 16  0  0  0  0  0  0  0  0999 V2000
   -2.8870    0.6620   -1.4600 C   0  0  0  0  0  0  0  0  0  0  0  0
   -2.3110   -0.5380   -0.8820 N   0  0  0  0  0  0  0  0  0  0  0  0
   -2.9800   -1.7350   -0.7990 C   0  0  0  0  0  0  0  0  0  0  0  0
   -2.1380   -2.6400   -0.2270 C   0  0  0  0  0  0  0  0  0  0  0  0
   -0.9550   -1.9730    0.0340 C   0  0  0  0  0  0  0  0  0  0  0  0
   -1.0830   -0.6360   -0.3890 C   0  0  0  0  0  0  0  0  0  0  0  0
    0.0290    0.2920   -0.2540 C   0  0  0  0  0  0  0  0  0  0  0  0
   -0.0950    1.6270   -0.5370 C   0  0  0  0  0  0  0  0  0  0  0  0
    1.0270    2.4790   -0.4220 C   0  0  0  0  0  0  0  0  0  0  0  0
    2.2420    1.9880   -0.0290 C   0  0  0  0  0  0  0  0  0  0  0  0
    2.3940    0.6360    0.2650 C   0  0  0  0  0  0  0  0  0  0  0  0
    3.6770    0.0970    0.6830 C   0  0  0  0  0  0  0  0  0  0  0  0
    4.6490    0.8610    0.7770 O   0  0  0  0  0  0  0  0  0  0  0  0
    3.8100   -1.2360    0.9680 O   0  0  0  0  0  0  0  0  0  0  0  0
    1.2760   -0.1590    0.1400 C   0  0  0  0  0  0  0  0  0  0  0  0
  1  2  1  0
  2  3  1  0
  2  6  1  0
  3  4  2  0
  4  5  1  0
  5  6  2  0
  6  7  1  0
  7  8  2  0
  7 15  1  0
  8  9  1  0
  9 10  2  0
 10 11  1  0
 11 12  1  0
 11 15  2  0
 12 13  2  0
 12 14  1  0
M  END
