
     RDKit          3D

 15 16  0  0  0  0  0  0  0  0999 V2000
    3.7290    1.3980    0.4980 C   0  0  0  0  0  0  0  0  0  0  0  0
    2.6480    0.4210    0.2430 C   0  0  0  0  0  0  0  0  0  0  0  0
    2.9010   -0.9070   -0.0560 C   0  0  0  0  0  0  0  0  0  0  0  0
    1.8970   -1.7850   -0.2860 N   0  0  0  0  0  0  0  0  0  0  0  0
    0.5970   -1.4080   -0.2350 C   0  0  0  0  0  0  0  0  0  0  0  0
    0.2930   -0.0910    0.0590 C   0  0  0  0  0  0  0  0  0  0  0  0
    1.3030    0.7890    0.2910 C   0  0  0  0  0  0  0  0  0  0  0  0
    1.0020    1.9770    0.5600 O   0  0  0  0  0  0  0  0  0  0  0  0
   -1.1420    0.2770    0.0880 C   0  0  0  0  0  0  0  0  0  0  0  0
   -1.5070    1.4780   -0.2410 C   0  0  0  0  0  0  0  0  0  0  0  0
   -2.9110    1.9180   -0.2330 C   0  0  0  0  0  0  0  0  0  0  0  0
   -3.0790    3.0000    0.6600 O   0  0  0  0  0  0  0  0  0  0  0  0
   -2.0380   -0.8340    0.4720 C   0  0  0  0  0  0  0  0  0  0  0  0
   -1.8180   -1.8880   -0.6230 C   0  0  0  0  0  0  0  0  0  0  0  0
   -0.4290   -2.4330   -0.4830 C   0  0  0  0  0  0  0  0  0  0  0  0
  1  2  1  0
  2  3  2  0
  2  7  1  0
  3  4  1  0
  4  5  1  0
  5  6  2  0
  5 15  1  0
  6  7  1  0
  6  9  1  0
  7  8  2  0
  9 10  2  3
  9 13  1  0
 10 11  1  0
 11 12  1  0
 13 14  1  0
 14 15  1  0
M  END
