
     RDKit          3D

 15 15  0  0  0  0  0  0  0  0999 V2000
   -3.7970    0.2260    2.3710 C   0  0  0  0  0  0  0  0  0  0  0  0
   -2.4150    0.3710    1.8550 C   0  0  0  0  0  0  0  0  0  0  0  0
   -2.0970   -0.0840    0.6590 C   0  0  0  0  0  0  0  0  0  0  0  0
   -3.1240   -0.7440   -0.1750 C   0  0  0  0  0  0  0  0  0  0  0  0
   -0.7470    0.0510    0.1380 C   0  0  0  0  0  0  0  0  0  0  0  0
   -0.4080   -0.3950   -1.0520 C   0  0  0  0  0  0  0  0  0  0  0  0
   -1.2700   -1.0590   -1.9940 N   0  0  0  0  0  0  0  0  0  0  0  0
   -0.6030   -1.3560   -3.0520 C   0  0  0  0  0  0  0  0  0  0  0  0
    0.7720   -0.9100   -2.9020 C   0  0  0  0  0  0  0  0  0  0  0  0
    0.8890   -0.3310   -1.6950 C   0  0  0  0  0  0  0  0  0  0  0  0
    2.1200    0.2570   -1.1440 C   0  0  0  0  0  0  0  0  0  0  0  0
    3.1590    0.2220   -1.8520 O   0  0  0  0  0  0  0  0  0  0  0  0
    2.2140    0.8400    0.0850 O   0  0  0  0  0  0  0  0  0  0  0  0
    3.3860    1.4070    0.6250 C   0  0  0  0  0  0  0  0  0  0  0  0
    4.5130    0.4370    0.7600 C   0  0  0  0  0  0  0  0  0  0  0  0
  1  2  1  0
  2  3  2  3
  3  4  1  0
  3  5  1  0
  5  6  2  3
  6  7  1  0
  6 10  1  0
  7  8  2  0
  8  9  1  0
  9 10  2  0
 10 11  1  0
 11 12  2  0
 11 13  1  0
 13 14  1  0
 14 15  1  0
M  END
