
     RDKit          3D

 15 16  0  0  0  0  0  0  0  0999 V2000
   -3.0810   -0.2750   -1.5660 C   0  0  0  0  0  0  0  0  0  0  0  0
   -3.0440   -0.6890   -0.1070 C   0  0  2  0  0  0  0  0  0  0  0  0
   -3.3740    0.5180    0.7310 C   0  0  0  0  0  0  0  0  0  0  0  0
   -1.7860   -1.1780    0.2830 O   0  0  0  0  0  0  0  0  0  0  0  0
   -0.6110   -0.4910    0.1660 C   0  0  0  0  0  0  0  0  0  0  0  0
   -0.4540    0.7730   -0.3410 C   0  0  0  0  0  0  0  0  0  0  0  0
    0.7860    1.3660   -0.4090 C   0  0  0  0  0  0  0  0  0  0  0  0
    1.8980    0.6730    0.0420 C   0  0  0  0  0  0  0  0  0  0  0  0
    3.1650    1.2160   -0.0010 C   0  0  0  0  0  0  0  0  0  0  0  0
    4.2680    0.5030    0.4570 C   0  0  0  0  0  0  0  0  0  0  0  0
    4.1160   -0.7670    0.9670 C   0  0  0  0  0  0  0  0  0  0  0  0
    5.1240   -1.4280    1.3900 O   0  0  0  0  0  0  0  0  0  0  0  0
    2.8730   -1.2830    1.0020 N   0  0  0  0  0  0  0  0  0  0  0  0
    1.7900   -0.6060    0.5620 C   0  0  0  0  0  0  0  0  0  0  0  0
    0.5310   -1.1610    0.6120 C   0  0  0  0  0  0  0  0  0  0  0  0
  2  1  1  6
  2  3  1  0
  2  4  1  0
  4  5  1  0
  5  6  2  0
  5 15  1  0
  6  7  1  0
  7  8  2  0
  8  9  1  0
  8 14  1  0
  9 10  2  0
 10 11  1  0
 11 12  2  0
 11 13  1  0
 13 14  1  0
 14 15  2  0
M  END
