
     RDKit          3D

 15 16  0  0  0  0  0  0  0  0999 V2000
    4.8080    0.6310    0.1050 C   0  0  0  0  0  0  0  0  0  0  0  0
    3.7880   -0.4150    0.4770 C   0  0  0  0  0  0  0  0  0  0  0  0
    2.4040   -0.0480    0.0580 C   0  0  0  0  0  0  0  0  0  0  0  0
    1.3980   -1.0660    0.4180 C   0  0  0  0  0  0  0  0  0  0  0  0
    1.8450   -2.0980    1.0300 O   0  0  0  0  0  0  0  0  0  0  0  0
    0.0120   -0.9320    0.1160 N   0  0  0  0  0  0  0  0  0  0  0  0
   -0.8700   -1.9820    0.5140 C   0  0  0  0  0  0  0  0  0  0  0  0
   -2.3030   -1.7710    0.2050 C   0  0  0  0  0  0  0  0  0  0  0  0
   -2.7260   -0.3720    0.1660 C   0  0  0  0  0  0  0  0  0  0  0  0
   -3.9690    0.0230    0.4790 C   0  0  0  0  0  0  0  0  0  0  0  0
   -4.3100    1.3390    0.4260 O   0  0  0  0  0  0  0  0  0  0  0  0
   -3.4820    2.3840    0.0680 C   0  0  0  0  0  0  0  0  0  0  0  0
   -2.1260    1.9400   -0.2720 C   0  0  0  0  0  0  0  0  0  0  0  0
   -1.7910    0.6740   -0.2240 C   0  0  0  0  0  0  0  0  0  0  0  0
   -0.3940    0.2740   -0.5810 C   0  0  0  0  0  0  0  0  0  0  0  0
  1  2  1  0
  2  3  1  0
  3  4  1  0
  4  5  2  0
  4  6  1  0
  6  7  1  0
  6 15  1  0
  7  8  1  0
  8  9  1  0
  9 10  2  0
  9 14  1  0
 10 11  1  0
 11 12  1  0
 12 13  1  0
 13 14  2  0
 14 15  1  0
M  END
