
     RDKit          3D

 15 16  0  0  0  0  0  0  0  0999 V2000
    4.6320    1.2440    0.3110 C   0  0  0  0  0  0  0  0  0  0  0  0
    3.6760    0.3090    0.9430 C   0  0  0  0  0  0  0  0  0  0  0  0
    3.9640   -0.1540    2.0720 O   0  0  0  0  0  0  0  0  0  0  0  0
    2.4640   -0.0640    0.3050 N   0  0  0  0  0  0  0  0  0  0  0  0
    1.9630    0.3620   -0.9860 C   0  0  0  0  0  0  0  0  0  0  0  0
    0.4460    0.3120   -0.8600 C   0  0  0  0  0  0  0  0  0  0  0  0
    0.1350   -0.5530    0.2930 C   0  0  0  0  0  0  0  0  0  0  0  0
   -1.0060   -0.9500    0.8240 C   0  0  0  0  0  0  0  0  0  0  0  0
   -2.3170   -0.5930    0.3480 C   0  0  0  0  0  0  0  0  0  0  0  0
   -3.4300   -1.0430    0.9500 C   0  0  0  0  0  0  0  0  0  0  0  0
   -4.5860   -0.4970    0.2220 C   0  0  0  0  0  0  0  0  0  0  0  0
   -4.0280    0.3140   -0.8630 C   0  0  0  0  0  0  0  0  0  0  0  0
   -2.7100    0.2460   -0.7740 C   0  0  0  0  0  0  0  0  0  0  0  0
    1.4800   -0.9500    0.8170 C   0  0  0  0  0  0  0  0  0  0  0  0
    1.6570   -1.9250    1.5880 O   0  0  0  0  0  0  0  0  0  0  0  0
  1  2  1  0
  2  3  2  0
  2  4  1  0
  4  5  1  0
  4 14  1  0
  5  6  1  0
  6  7  1  0
  7  8  2  3
  7 14  1  0
  8  9  1  0
  9 10  2  0
  9 13  1  0
 10 11  1  0
 11 12  1  0
 12 13  2  0
 14 15  2  0
M  END
