
     RDKit          3D

 19 18  0  0  0  0  0  0  0  0999 V2000
   -1.5080   -4.0510   -2.6900 C   0  0  0  0  0  0  0  0  0  0  0  0
   -0.6580   -3.0870   -2.0220 C   0  0  0  0  0  0  0  0  0  0  0  0
   -1.1050   -1.7840   -1.7940 C   0  0  0  0  0  0  0  0  0  0  0  0
   -0.1700   -0.9430   -1.1290 C   0  0  0  0  0  0  0  0  0  0  0  0
   -0.1360    0.2710   -0.6770 C   0  0  0  0  0  0  0  0  0  0  0  0
   -1.1840    1.2670   -0.7100 C   0  0  0  0  0  0  0  0  0  0  0  0
   -2.3440    1.0940   -1.1480 O   0  0  0  0  0  0  0  0  0  0  0  0
   -0.9820    2.5870   -0.2290 N   0  0  0  0  0  0  0  0  0  0  0  0
   -2.1100    3.5120   -0.3070 C   0  0  0  0  0  0  0  0  0  0  0  0
   -3.2980    3.0610    0.4570 C   0  0  0  0  0  0  0  0  0  0  0  0
    1.1560    0.6620   -0.0370 C   0  0  0  0  0  0  0  0  0  0  0  0
    1.2600    1.8120    0.4300 O   0  0  0  0  0  0  0  0  0  0  0  0
    2.2660   -0.2120    0.0630 N   0  0  0  0  0  0  0  0  0  0  0  0
    3.4730    0.3030    0.7270 C   0  0  0  0  0  0  0  0  0  0  0  0
    3.2250    0.6600    2.1500 C   0  0  0  0  0  0  0  0  0  0  0  0
    2.7410   -0.5320    2.9580 C   0  0  0  0  0  0  0  0  0  0  0  0
    2.5180   -0.0600    4.3940 C   0  0  0  0  0  0  0  0  0  0  0  0
   -2.4360   -1.5050   -2.3000 C   0  0  0  0  0  0  0  0  0  0  0  0
   -2.4790   -0.4910   -3.2740 O   0  0  0  0  0  0  0  0  0  0  0  0
  1  2  1  0
  2  3  2  3
  3  4  1  0
  3 18  1  0
  4  5  2  3
  5  6  1  0
  5 11  1  0
  6  7  2  0
  6  8  1  0
  8  9  1  0
  9 10  1  0
 11 12  2  0
 11 13  1  0
 13 14  1  0
 14 15  1  0
 15 16  1  0
 16 17  1  0
 18 19  1  0
M  END
