
     RDKit          3D

 19 19  0  0  0  0  0  0  0  0999 V2000
    5.8090   -0.3270   -0.6960 C   0  0  0  0  0  0  0  0  0  0  0  0
    5.8390    0.0100    0.7630 C   0  0  0  0  0  0  0  0  0  0  0  0
    4.6270   -0.5550    1.4720 C   0  0  0  0  0  0  0  0  0  0  0  0
    3.3650    0.0060    0.8880 C   0  0  0  0  0  0  0  0  0  0  0  0
    3.2070    1.4110    0.9480 N   0  0  0  0  0  0  0  0  0  0  0  0
    2.5000   -0.7940    0.3690 C   0  0  0  0  0  0  0  0  0  0  0  0
    1.2340   -0.4630   -0.2400 C   0  0  0  0  0  0  0  0  0  0  0  0
    0.5120   -1.4260   -0.7020 O   0  0  0  0  0  0  0  0  0  0  0  0
    0.6750    0.8260   -0.3940 N   0  0  0  0  0  0  0  0  0  0  0  0
   -0.6230    1.0140   -1.0320 C   0  0  0  0  0  0  0  0  0  0  0  0
   -1.7410    0.3170   -0.3280 C   0  0  0  0  0  0  0  0  0  0  0  0
   -2.9280    0.5960   -1.0660 O   0  0  0  0  0  0  0  0  0  0  0  0
   -4.1500    0.0700   -0.6410 C   0  0  0  0  0  0  0  0  0  0  0  0
   -4.1940   -0.7130    0.4900 C   0  0  0  0  0  0  0  0  0  0  0  0
   -5.3990   -1.2280    0.9040 C   0  0  0  0  0  0  0  0  0  0  0  0
   -6.5760   -0.9910    0.2290 C   0  0  0  0  0  0  0  0  0  0  0  0
   -6.5260   -0.1980   -0.9130 C   0  0  0  0  0  0  0  0  0  0  0  0
   -5.3160    0.3190   -1.3300 C   0  0  0  0  0  0  0  0  0  0  0  0
   -5.2200    1.1210   -2.4730 O   0  0  0  0  0  0  0  0  0  0  0  0
  1  2  1  0
  2  3  1  0
  3  4  1  0
  4  5  1  0
  4  6  2  3
  6  7  1  0
  7  8  2  0
  7  9  1  0
  9 10  1  0
 10 11  1  0
 11 12  1  0
 12 13  1  0
 13 14  2  0
 13 18  1  0
 14 15  1  0
 15 16  2  0
 16 17  1  0
 17 18  2  0
 18 19  1  0
M  END
