
     RDKit          3D

 19 19  0  0  0  0  0  0  0  0999 V2000
    4.4080   -2.9160    0.4150 C   0  0  0  0  0  0  0  0  0  0  0  0
    3.8380   -1.8270   -0.0790 C   0  0  0  0  0  0  0  0  0  0  0  0
    4.6390   -0.6050   -0.1180 C   0  0  0  0  0  0  0  0  0  0  0  0
    4.1500    0.5230   -0.5960 C   0  0  0  0  0  0  0  0  0  0  0  0
    4.9770    1.7380   -0.6230 C   0  0  0  0  0  0  0  0  0  0  0  0
    2.4390   -1.8330   -0.5800 C   0  0  0  0  0  0  0  0  0  0  0  0
    1.6580   -0.8910    0.1920 N   0  0  0  0  0  0  0  0  0  0  0  0
    0.2720   -0.6640   -0.0480 C   0  0  0  0  0  0  0  0  0  0  0  0
   -0.2840   -1.3090   -0.9650 O   0  0  0  0  0  0  0  0  0  0  0  0
   -0.4900    0.2520    0.7020 N   0  0  0  0  0  0  0  0  0  0  0  0
   -1.9100    0.5030    0.4810 C   0  0  2  0  0  0  0  0  0  0  0  0
   -2.3290    1.5320    1.4470 C   0  0  0  0  0  0  0  0  0  0  0  0
   -1.5070    2.0040    2.2660 O   0  0  0  0  0  0  0  0  0  0  0  0
   -3.6190    1.9910    1.4670 O   0  0  0  0  0  0  0  0  0  0  0  0
   -2.6900   -0.7930    0.6230 C   0  0  0  0  0  0  0  0  0  0  0  0
   -4.1370   -0.4840    0.5830 C   0  0  0  0  0  0  0  0  0  0  0  0
   -4.5920    0.3790   -0.5330 C   0  0  0  0  0  0  0  0  0  0  0  0
   -3.6010    1.3250   -1.0950 C   0  0  0  0  0  0  0  0  0  0  0  0
   -2.1760    0.9880   -0.9050 C   0  0  0  0  0  0  0  0  0  0  0  0
  1  2  2  0
  2  3  1  0
  2  6  1  0
  3  4  2  3
  4  5  1  0
  6  7  1  0
  7  8  1  0
  8  9  2  0
  8 10  1  0
 11 10  1  6
 11 12  1  0
 11 15  1  0
 11 19  1  0
 12 13  2  0
 12 14  1  0
 15 16  1  0
 16 17  1  0
 17 18  1  0
 18 19  1  0
M  END
