
     RDKit          3D

  9  9  0  0  0  0  0  0  0  0999 V2000
   -1.8390   -0.8180    0.9760 C   0  0  0  0  0  0  0  0  0  0  0  0
   -0.8120   -0.7000   -0.0430 N   0  0  0  0  0  0  0  0  0  0  0  0
   -1.2930    0.2450   -1.0210 C   0  0  0  0  0  0  0  0  0  0  0  0
   -0.8170    1.6240   -0.6110 C   0  0  0  0  0  0  0  0  0  0  0  0
    0.5940    1.6280   -0.8920 O   0  0  0  0  0  0  0  0  0  0  0  0
    1.2670    0.5320   -0.3660 C   0  0  0  0  0  0  0  0  0  0  0  0
    2.5390    0.3520   -0.6160 N   0  0  0  0  0  0  0  0  0  0  0  0
    3.2360   -0.7390   -0.1000 N   0  0  0  0  0  0  0  0  0  0  0  0
    0.4830   -0.4050    0.4760 C   0  0  0  0  0  0  0  0  0  0  0  0
  1  2  1  0
  2  3  1  0
  2  9  1  0
  3  4  1  0
  4  5  1  0
  5  6  1  0
  6  7  2  3
  6  9  1  0
  7  8  1  0
M  END
