
     RDKit          3D

 19 18  0  0  0  0  0  0  0  0999 V2000
    7.3000    0.7890   -0.5670 C   0  0  0  0  0  0  0  0  0  0  0  0
    6.1930    0.7030    0.4700 C   0  0  0  0  0  0  0  0  0  0  0  0
    4.9180    0.4040   -0.2260 C   0  0  0  0  0  0  0  0  0  0  0  0
    4.8780    0.2660   -1.4700 O   0  0  0  0  0  0  0  0  0  0  0  0
    3.7300    0.2730    0.5380 N   0  0  0  0  0  0  0  0  0  0  0  0
    2.4660   -0.0170   -0.0820 C   0  0  0  0  0  0  0  0  0  0  0  0
    2.5100   -0.1410   -1.3290 O   0  0  0  0  0  0  0  0  0  0  0  0
    1.2910   -0.1370    0.7710 C   0  0  0  0  0  0  0  0  0  0  0  0
   -0.0160   -0.2820   -0.0440 C   0  0  1  0  0  0  0  0  0  0  0  0
   -0.1390    0.9620   -0.8350 C   0  0  0  0  0  0  0  0  0  0  0  0
    0.2200   -1.5030   -0.9380 C   0  0  0  0  0  0  0  0  0  0  0  0
   -1.0600   -0.6420    0.9240 C   0  0  0  0  0  0  0  0  0  0  0  0
   -2.4380   -0.9180    0.4950 C   0  0  0  0  0  0  0  0  0  0  0  0
   -3.1620    0.2270   -0.1070 C   0  0  2  0  0  0  0  0  0  0  0  0
   -3.2460    1.3410    0.9450 C   0  0  0  0  0  0  0  0  0  0  0  0
   -4.5650   -0.1400   -0.5650 C   0  0  0  0  0  0  0  0  0  0  0  0
   -5.4450   -0.5920    0.4970 C   0  0  0  0  0  0  0  0  0  0  0  0
   -6.7580   -1.0550    0.1330 N   0  0  0  0  0  0  0  0  0  0  0  0
   -5.1020   -0.5930    1.7030 O   0  0  0  0  0  0  0  0  0  0  0  0
  1  2  1  0
  2  3  1  0
  3  4  2  0
  3  5  1  0
  5  6  1  0
  6  7  2  0
  6  8  1  0
  8  9  1  0
  9 10  1  6
  9 11  1  0
  9 12  1  0
 12 13  1  0
 13 14  1  0
 14 15  1  1
 14 16  1  0
 16 17  1  0
 17 18  1  0
 17 19  2  0
M  END
