
     RDKit          3D

 16 17  0  0  0  0  0  0  0  0999 V2000
    4.9020   -0.5670    0.6650 N   0  0  0  0  0  0  0  0  0  0  0  0
    4.1410    0.3990   -0.5150 S   0  0  2  0  0  0  0  0  0  0  0  0
    4.4720   -0.1580   -1.8700 O   0  0  0  0  0  0  0  0  0  0  0  0
    4.5790    1.8350   -0.4520 O   0  0  0  0  0  0  0  0  0  0  0  0
    2.4100    0.2740   -0.3130 C   0  0  0  0  0  0  0  0  0  0  0  0
    1.7650    1.1690    0.5180 C   0  0  0  0  0  0  0  0  0  0  0  0
    0.3840    1.0960    0.7000 C   0  0  0  0  0  0  0  0  0  0  0  0
   -0.3720    0.1370    0.0620 C   0  0  0  0  0  0  0  0  0  0  0  0
   -1.8310    0.0330    0.2280 C   0  0  0  0  0  0  0  0  0  0  0  0
   -2.6190    1.1310    0.4470 C   0  0  0  0  0  0  0  0  0  0  0  0
   -3.9810    0.9970    0.5980 C   0  0  0  0  0  0  0  0  0  0  0  0
   -4.5960   -0.2480    0.5340 C   0  0  0  0  0  0  0  0  0  0  0  0
   -3.8020   -1.3530    0.3140 C   0  0  0  0  0  0  0  0  0  0  0  0
   -2.4390   -1.2020    0.1650 C   0  0  0  0  0  0  0  0  0  0  0  0
    0.2760   -0.7540   -0.7660 C   0  0  0  0  0  0  0  0  0  0  0  0
    1.6470   -0.6850   -0.9490 C   0  0  0  0  0  0  0  0  0  0  0  0
  2  1  1  1
  2  3  2  0
  2  4  2  0
  2  5  1  0
  5  6  2  0
  5 16  1  0
  6  7  1  0
  7  8  2  0
  8  9  1  0
  8 15  1  0
  9 10  2  0
  9 14  1  0
 10 11  1  0
 11 12  2  0
 12 13  1  0
 13 14  2  0
 15 16  2  0
M  END
