
     RDKit          3D

 23 26  0  0  0  0  0  0  0  0999 V2000
   -1.3230   -2.2350   -2.3900 O   0  0  0  0  0  0  0  0  0  0  0  0
   -0.2640   -1.7520   -1.8920 C   0  0  0  0  0  0  0  0  0  0  0  0
   -0.3010   -0.7890   -0.8460 C   0  0  0  0  0  0  0  0  0  0  0  0
    0.7050   -0.2030   -0.2320 C   0  0  0  0  0  0  0  0  0  0  0  0
    2.1220   -0.2880   -0.3580 C   0  0  0  0  0  0  0  0  0  0  0  0
    2.8510    0.4880    0.4620 C   0  0  0  0  0  0  0  0  0  0  0  0
    4.2990    0.5140    0.4530 C   0  0  0  0  0  0  0  0  0  0  0  0
    5.1910    1.2010    1.1750 O   0  0  0  0  0  0  0  0  0  0  0  0
    6.3880    0.8600    0.7760 C   0  0  0  0  0  0  0  0  0  0  0  0
    6.3000   -0.0730   -0.2320 C   0  0  0  0  0  0  0  0  0  0  0  0
    4.9620   -0.2870   -0.4320 C   0  0  0  0  0  0  0  0  0  0  0  0
    4.2720   -1.1570   -1.3690 C   0  0  0  0  0  0  0  0  0  0  0  0
    2.7890   -1.1830   -1.3140 C   0  0  0  0  0  0  0  0  0  0  0  0
   -1.6800   -0.3730   -0.3590 C   0  0  0  0  0  0  0  0  0  0  0  0
   -1.7460    0.4990    0.5880 N   0  0  0  0  0  0  0  0  0  0  0  0
   -2.9480    0.9850    1.1450 C   0  0  0  0  0  0  0  0  0  0  0  0
   -3.0430    1.9110    2.1600 C   0  0  0  0  0  0  0  0  0  0  0  0
   -4.2760    2.3300    2.6510 C   0  0  0  0  0  0  0  0  0  0  0  0
   -5.4360    1.8070    2.1110 C   0  0  0  0  0  0  0  0  0  0  0  0
   -5.3590    0.8790    1.0950 C   0  0  0  0  0  0  0  0  0  0  0  0
   -4.1070    0.4680    0.6120 C   0  0  0  0  0  0  0  0  0  0  0  0
   -4.1370   -0.4820   -0.4340 N   0  0  0  0  0  0  0  0  0  0  0  0
   -2.8830   -0.9380   -0.9300 C   0  0  0  0  0  0  0  0  0  0  0  0
  1  2  2  0
  2  3  1  0
  3  4  2  3
  3 14  1  0
  4  5  1  0
  5  6  2  0
  5 13  1  0
  6  7  1  0
  7  8  1  0
  7 11  2  0
  8  9  1  0
  9 10  2  0
 10 11  1  0
 11 12  1  0
 12 13  1  0
 14 15  2  0
 14 23  1  0
 15 16  1  0
 16 17  2  0
 16 21  1  0
 17 18  1  0
 18 19  2  0
 19 20  1  0
 20 21  2  0
 21 22  1  0
 22 23  1  0
M  CHG  1  22   1
M  END
