
     RDKit          3D

 12 12  0  0  0  0  0  0  0  0999 V2000
   -1.9970    1.5770   -1.3780 C   0  0  0  0  0  0  0  0  0  0  0  0
   -0.7800    1.0850   -0.6500 C   0  0  0  0  0  0  0  0  0  0  0  0
   -0.7920   -0.1910   -0.2090 C   0  0  0  0  0  0  0  0  0  0  0  0
   -2.0380   -0.9260   -0.5150 C   0  0  0  0  0  0  0  0  0  0  0  0
   -2.1650   -2.1600    0.2380 C   0  0  0  0  0  0  0  0  0  0  0  0
   -1.2140   -2.6230    0.9930 C   0  0  0  0  0  0  0  0  0  0  0  0
    0.0450   -1.9580    1.1730 C   0  0  0  0  0  0  0  0  0  0  0  0
    0.2750   -0.7560    0.5630 C   0  0  0  0  0  0  0  0  0  0  0  0
    1.5850   -0.1720    0.7280 C   0  0  0  0  0  0  0  0  0  0  0  0
    2.2800    0.8200    0.3760 C   0  0  0  0  0  0  0  0  0  0  0  0
    3.6840    0.8680    0.9340 N   0  0  0  0  0  0  0  0  0  0  0  0
    2.1360    1.9340   -0.4720 N   0  0  0  0  0  0  0  0  0  0  0  0
  1  2  1  0
  2  3  2  3
  3  4  1  0
  3  8  1  0
  4  5  1  0
  5  6  2  0
  6  7  1  0
  7  8  2  0
  8  9  1  0
  9 10  2  3
 10 11  1  0
 10 12  1  0
M  END
