
     RDKit          3D

 12 12  0  0  0  0  0  0  0  0999 V2000
   -2.5220   -2.3860    0.9010 C   0  0  0  0  0  0  0  0  0  0  0  0
   -1.8840   -1.3640    0.3560 C   0  0  0  0  0  0  0  0  0  0  0  0
   -0.5490   -1.2720   -0.1150 N   0  0  0  0  0  0  0  0  0  0  0  0
   -0.2880    0.0270   -0.6250 C   0  0  0  0  0  0  0  0  0  0  0  0
    0.9580    0.5430   -1.2250 C   0  0  0  0  0  0  0  0  0  0  0  0
    2.1330    0.6290   -0.3310 C   0  0  0  0  0  0  0  0  0  0  0  0
    2.6100   -0.6310    0.2950 C   0  0  0  0  0  0  0  0  0  0  0  0
    3.8250   -0.2930    1.1410 C   0  0  0  0  0  0  0  0  0  0  0  0
   -1.4090    0.7580   -0.4950 C   0  0  0  0  0  0  0  0  0  0  0  0
   -1.6370    2.1710   -0.8820 C   0  0  0  0  0  0  0  0  0  0  0  0
   -2.4690   -0.0520    0.1200 C   0  0  0  0  0  0  0  0  0  0  0  0
   -3.6730    0.3460    0.3870 N   0  0  0  0  0  0  0  0  0  0  0  0
  1  2  2  0
  2  3  1  0
  2 11  1  0
  3  4  1  0
  4  5  1  0
  4  9  2  0
  5  6  1  0
  6  7  1  0
  7  8  1  0
  9 10  1  0
  9 11  1  0
 11 12  2  0
M  CHG  1  12   1
M  END
