
     RDKit          3D

 24 26  0  0  0  0  0  0  0  0999 V2000
    3.3570   -3.3740   -1.1560 C   0  0  0  0  0  0  0  0  0  0  0  0
    2.3820   -3.0390   -0.3320 C   0  0  0  0  0  0  0  0  0  0  0  0
    1.2800   -2.2060   -0.8020 C   0  0  0  0  0  0  0  0  0  0  0  0
    1.1590   -0.9400   -0.0600 N   0  0  2  0  0  0  0  0  0  0  0  0
   -0.1590   -0.4380   -0.3430 C   0  0  0  0  0  0  0  0  0  0  0  0
   -1.2490   -1.0730    0.4840 C   0  0  1  0  0  0  0  0  0  0  0  0
   -1.0100   -0.8350    1.9660 C   0  0  0  0  0  0  0  0  0  0  0  0
   -0.7510    0.6150    2.2590 C   0  0  0  0  0  0  0  0  0  0  0  0
   -1.6210    1.4670    1.5000 O   0  0  0  0  0  0  0  0  0  0  0  0
   -2.6300    0.9100    0.7040 C   0  0  0  0  0  0  0  0  0  0  0  0
   -3.7920    1.6000    0.4220 C   0  0  0  0  0  0  0  0  0  0  0  0
   -3.9330    2.9640    0.9980 C   0  0  0  0  0  0  0  0  0  0  0  0
   -4.7950    1.0640   -0.3620 C   0  0  0  0  0  0  0  0  0  0  0  0
   -4.6770   -0.2010   -0.9030 C   0  0  0  0  0  0  0  0  0  0  0  0
   -5.7450   -0.8010   -1.7510 C   0  0  0  0  0  0  0  0  0  0  0  0
   -3.5130   -0.8880   -0.6180 C   0  0  0  0  0  0  0  0  0  0  0  0
   -2.5110   -0.3530    0.1640 C   0  0  0  0  0  0  0  0  0  0  0  0
    2.2210   -0.1000   -0.4840 C   0  0  1  0  0  0  0  0  0  0  0  0
    1.8430    1.3380   -0.6950 C   0  0  0  0  0  0  0  0  0  0  0  0
    3.0810    2.1150   -1.0920 C   0  0  0  0  0  0  0  0  0  0  0  0
    4.1960    1.9870   -0.1060 C   0  0  0  0  0  0  0  0  0  0  0  0
    4.5800    0.5020   -0.0580 C   0  0  0  0  0  0  0  0  0  0  0  0
    3.3450   -0.1950    0.5250 C   0  0  1  0  0  0  0  0  0  0  0  0
    2.9590    0.5170    1.6570 O   0  0  0  0  0  0  0  0  0  0  0  0
  1  2  2  0
  2  3  1  0
  4  3  1  6
  4  5  1  0
  4 18  1  0
  6  5  1  6
  6  7  1  0
  6 17  1  0
  7  8  1  0
  8  9  1  0
  9 10  1  0
 10 11  2  0
 10 17  1  0
 11 12  1  0
 11 13  1  0
 13 14  2  0
 14 15  1  0
 14 16  1  0
 16 17  2  0
 18 19  1  1
 18 23  1  0
 19 20  1  0
 20 21  1  0
 21 22  1  0
 22 23  1  0
 23 24  1  1
M  CHG  1   4   1
M  END
