
     RDKit          3D

 25 27  0  0  0  0  0  0  0  0999 V2000
    3.5960    2.8840    0.4050 C   0  0  0  0  0  0  0  0  0  0  0  0
    4.0600    1.7200    0.8170 C   0  0  0  0  0  0  0  0  0  0  0  0
    5.3920    1.3960    0.5960 O   0  0  0  0  0  0  0  0  0  0  0  0
    3.2050    0.7660    1.5000 C   0  0  0  0  0  0  0  0  0  0  0  0
    1.7980    1.1090    1.7790 C   0  0  0  0  0  0  0  0  0  0  0  0
    0.7360    0.4230    1.0760 C   0  0  0  0  0  0  0  0  0  0  0  0
    0.4920    0.4070   -0.3680 C   0  0  1  0  0  0  0  0  0  0  0  0
   -0.7550   -0.4510   -0.7490 C   0  0  1  0  0  0  0  0  0  0  0  0
   -0.9690   -0.4520   -2.2190 C   0  0  0  0  0  0  0  0  0  0  0  0
   -0.3060   -1.7190   -0.4020 O   0  0  0  0  0  0  0  0  0  0  0  0
   -1.2550   -2.6970   -0.3930 C   0  0  0  0  0  0  0  0  0  0  0  0
   -2.5290   -2.4190    0.3040 C   0  0  0  0  0  0  0  0  0  0  0  0
   -3.0920   -1.1120   -0.1350 C   0  0  1  0  0  0  0  0  0  0  0  0
   -3.8300   -1.2390   -1.3940 C   0  0  0  0  0  0  0  0  0  0  0  0
   -4.0920   -0.7230    0.9840 C   0  0  0  0  0  0  0  0  0  0  0  0
   -4.6240    0.6360    0.6070 C   0  0  0  0  0  0  0  0  0  0  0  0
   -3.5410    1.5640    0.7190 N   0  0  0  0  0  0  0  0  0  0  0  0
   -2.5670    1.2620   -0.3540 C   0  0  0  0  0  0  0  0  0  0  0  0
   -1.9980   -0.0700   -0.0530 C   0  0  2  0  0  0  0  0  0  0  0  0
    0.5950    1.6190   -1.2000 C   0  0  0  0  0  0  0  0  0  0  0  0
    1.7580    1.0960   -2.0120 C   0  0  0  0  0  0  0  0  0  0  0  0
    1.6650   -0.1400   -1.1540 C   0  0  0  0  0  0  0  0  0  0  0  0
    3.7370   -0.3830    1.9090 C   0  0  0  0  0  0  0  0  0  0  0  0
    5.1600   -0.7190    1.6940 C   0  0  0  0  0  0  0  0  0  0  0  0
    2.9130   -1.4110    2.6180 C   0  0  0  0  0  0  0  0  0  0  0  0
  1  2  2  0
  2  3  1  0
  2  4  1  0
  4  5  1  0
  4 23  2  3
  5  6  1  0
  7  6  1  1
  7  8  1  0
  7 20  1  0
  7 22  1  0
  8  9  1  6
  8 10  1  0
  8 19  1  0
 10 11  1  0
 11 12  1  0
 12 13  1  0
 13 14  1  6
 13 15  1  0
 13 19  1  0
 15 16  1  0
 16 17  1  0
 17 18  1  0
 19 18  1  6
 20 21  1  0
 21 22  1  0
 23 24  1  0
 23 25  1  0
M  CHG  1  17   1
M  END
