
     RDKit          3D

 25 27  0  0  0  0  0  0  0  0999 V2000
    1.1110    1.3320    1.7470 C   0  0  0  0  0  0  0  0  0  0  0  0
    0.8860    0.4900    0.4910 C   0  0  1  0  0  0  0  0  0  0  0  0
    1.2510    1.3720   -0.6620 C   0  0  0  0  0  0  0  0  0  0  0  0
    0.5050    2.5590   -0.7470 O   0  0  0  0  0  0  0  0  0  0  0  0
    1.7130   -0.7270    0.4850 C   0  0  0  0  0  0  0  0  0  0  0  0
    3.1870   -0.6460    0.5260 C   0  0  1  0  0  0  0  0  0  0  0  0
    3.7250   -2.1390    0.6710 C   0  0  0  0  0  0  0  0  0  0  0  0
    5.1340   -1.9840    1.0510 C   0  0  0  0  0  0  0  0  0  0  0  0
    5.8650   -1.0080    0.5610 C   0  0  0  0  0  0  0  0  0  0  0  0
    5.3530    0.0050   -0.3950 C   0  0  0  0  0  0  0  0  0  0  0  0
    3.9050   -0.2940   -0.7570 C   0  0  0  0  0  0  0  0  0  0  0  0
   -0.5570    0.1700    0.3900 N   0  0  1  0  0  0  0  0  0  0  0  0
   -0.9780   -0.9570    1.1450 C   0  0  0  0  0  0  0  0  0  0  0  0
   -1.5630   -2.1180    0.4520 C   0  0  2  0  0  0  0  0  0  0  0  0
   -0.7830   -2.8540   -0.5550 C   0  0  0  0  0  0  0  0  0  0  0  0
   -1.7840   -3.8810   -1.0630 C   0  0  0  0  0  0  0  0  0  0  0  0
   -3.1510   -3.2710   -0.8310 C   0  0  0  0  0  0  0  0  0  0  0  0
   -2.8710   -1.8940   -0.2510 C   0  0  0  0  0  0  0  0  0  0  0  0
   -1.3040    1.3300    0.8840 C   0  0  0  0  0  0  0  0  0  0  0  0
   -2.5970    1.6000    0.2040 C   0  0  2  0  0  0  0  0  0  0  0  0
   -2.5780    1.8680   -1.2530 C   0  0  0  0  0  0  0  0  0  0  0  0
   -2.5950    3.3540   -1.5390 C   0  0  0  0  0  0  0  0  0  0  0  0
   -3.8690    3.8250   -1.2320 O   0  0  0  0  0  0  0  0  0  0  0  0
   -4.2830    3.4400    0.0350 C   0  0  0  0  0  0  0  0  0  0  0  0
   -3.1470    2.8830    0.8630 C   0  0  0  0  0  0  0  0  0  0  0  0
  2  1  1  1
  2  3  1  0
  2  5  1  0
  2 12  1  0
  3  4  1  0
  6  5  1  6
  6  7  1  0
  6 11  1  0
  7  8  1  0
  8  9  2  0
  9 10  1  0
 10 11  1  0
 12 13  1  1
 12 19  1  0
 14 13  1  6
 14 15  1  0
 14 18  1  0
 15 16  1  0
 16 17  1  0
 17 18  1  0
 20 19  1  1
 20 21  1  0
 20 25  1  0
 21 22  1  0
 22 23  1  0
 23 24  1  0
 24 25  1  0
M  CHG  1  12   1
M  END
