
     RDKit          3D

 25 27  0  0  0  0  0  0  0  0999 V2000
    7.2850    0.0770   -1.8190 C   0  0  0  0  0  0  0  0  0  0  0  0
    6.0900    1.0070   -1.9260 C   0  0  0  0  0  0  0  0  0  0  0  0
    5.2440    0.9120   -0.8520 O   0  0  0  0  0  0  0  0  0  0  0  0
    4.6960   -0.3260   -0.6420 C   0  0  1  0  0  0  0  0  0  0  0  0
    4.9990   -0.9320    0.6900 C   0  0  0  0  0  0  0  0  0  0  0  0
    4.0080   -0.4640    1.7520 C   0  0  0  0  0  0  0  0  0  0  0  0
    3.3230    0.8190    1.3150 C   0  0  0  0  0  0  0  0  0  0  0  0
    2.5580    0.6420    0.1100 N   0  0  2  0  0  0  0  0  0  0  0  0
    1.2220    0.1910    0.3110 C   0  0  0  0  0  0  0  0  0  0  0  0
    0.6140    0.5190    1.6240 C   0  0  1  0  0  0  0  0  0  0  0  0
    0.5590    1.8950    1.8390 O   0  0  0  0  0  0  0  0  0  0  0  0
   -0.7840   -0.0240    1.6220 C   0  0  0  0  0  0  0  0  0  0  0  0
   -1.2930   -0.9290    2.4160 C   0  0  0  0  0  0  0  0  0  0  0  0
   -2.6650   -1.1620    2.0820 C   0  0  0  0  0  0  0  0  0  0  0  0
   -3.0430   -0.3870    1.0520 C   0  0  0  0  0  0  0  0  0  0  0  0
   -4.4040   -0.4410    0.5250 C   0  0  0  0  0  0  0  0  0  0  0  0
   -5.3210   -1.3860    0.9870 C   0  0  0  0  0  0  0  0  0  0  0  0
   -6.6160   -1.4760    0.5520 C   0  0  0  0  0  0  0  0  0  0  0  0
   -7.0740   -0.6010   -0.3970 C   0  0  0  0  0  0  0  0  0  0  0  0
   -8.4820   -0.7220   -0.8500 C   0  0  0  0  0  0  0  0  0  0  0  0
   -6.2080    0.3350   -0.8710 C   0  0  0  0  0  0  0  0  0  0  0  0
   -4.8720    0.4270   -0.4210 C   0  0  0  0  0  0  0  0  0  0  0  0
   -4.0050    1.4970   -0.9710 C   0  0  0  0  0  0  0  0  0  0  0  0
   -1.8620    0.3800    0.6440 C   0  0  0  0  0  0  0  0  0  0  0  0
    3.2110   -0.2470   -0.8050 C   0  0  0  0  0  0  0  0  0  0  0  0
  1  2  1  0
  2  3  1  0
  4  3  1  1
  4  5  1  0
  4 25  1  0
  5  6  1  0
  6  7  1  0
  7  8  1  0
  8  9  1  1
  8 25  1  0
  9 10  1  0
 10 11  1  6
 10 12  1  0
 12 13  2  0
 12 24  1  0
 13 14  1  0
 14 15  2  0
 15 16  1  0
 15 24  1  0
 16 17  2  0
 16 22  1  0
 17 18  1  0
 18 19  2  0
 19 20  1  0
 19 21  1  0
 21 22  2  0
 22 23  1  0
M  CHG  1   8   1
M  END
