
     RDKit          3D

 20 22  0  0  0  0  0  0  0  0999 V2000
   -6.5430    0.2910   -0.1850 C   0  0  0  0  0  0  0  0  0  0  0  0
   -5.3500   -0.4660    0.1340 N   0  0  0  0  0  0  0  0  0  0  0  0
   -4.2040    0.0850   -0.0780 C   0  0  0  0  0  0  0  0  0  0  0  0
   -3.9370    1.4120   -0.6120 C   0  0  0  0  0  0  0  0  0  0  0  0
   -2.6290    1.6110   -0.6800 C   0  0  0  0  0  0  0  0  0  0  0  0
   -1.9220    0.4400   -0.1990 C   0  0  0  0  0  0  0  0  0  0  0  0
   -0.6030    0.2830   -0.1220 C   0  0  0  0  0  0  0  0  0  0  0  0
   -0.0260   -0.9180    0.3700 C   0  0  0  0  0  0  0  0  0  0  0  0
    1.2050   -1.3150    0.5430 C   0  0  0  0  0  0  0  0  0  0  0  0
    1.5840   -2.6580    1.0910 C   0  0  0  0  0  0  0  0  0  0  0  0
    0.7510   -3.5230    1.4320 O   0  0  0  0  0  0  0  0  0  0  0  0
    2.9880   -2.7140    1.1270 N   0  0  0  0  0  0  0  0  0  0  0  0
    3.5480   -1.4910    0.6380 C   0  0  0  0  0  0  0  0  0  0  0  0
    4.8630   -1.1010    0.4930 C   0  0  0  0  0  0  0  0  0  0  0  0
    5.1260    0.1470   -0.0090 C   0  0  0  0  0  0  0  0  0  0  0  0
    4.1030    0.9820   -0.3580 C   0  0  0  0  0  0  0  0  0  0  0  0
    4.3680    2.3370   -0.9040 C   0  0  0  0  0  0  0  0  0  0  0  0
    2.7750    0.5910   -0.2130 C   0  0  0  0  0  0  0  0  0  0  0  0
    2.4670   -0.6620    0.2910 C   0  0  0  0  0  0  0  0  0  0  0  0
   -2.9040   -0.4970    0.1710 N   0  0  0  0  0  0  0  0  0  0  0  0
  1  2  1  0
  2  3  2  3
  3  4  1  0
  3 20  1  0
  4  5  2  0
  5  6  1  0
  6  7  2  3
  6 20  1  0
  7  8  1  0
  8  9  2  3
  9 10  1  0
  9 19  1  0
 10 11  2  0
 10 12  1  0
 12 13  1  0
 13 14  2  0
 13 19  1  0
 14 15  1  0
 15 16  2  0
 16 17  1  0
 16 18  1  0
 18 19  2  0
M  CHG  1   2   1
M  END
