
     RDKit          3D

 20 22  0  0  0  0  0  0  0  0999 V2000
    0.7740    3.2330    0.8600 O   0  0  0  0  0  0  0  0  0  0  0  0
   -0.2490    2.3280    0.7100 C   0  0  0  0  0  0  0  0  0  0  0  0
   -1.5200    2.6620    1.0170 C   0  0  0  0  0  0  0  0  0  0  0  0
   -2.5480    1.7230    0.8400 C   0  0  0  0  0  0  0  0  0  0  0  0
   -2.3240    0.4370    0.3460 C   0  0  0  0  0  0  0  0  0  0  0  0
   -3.5080   -0.3470    0.1290 C   0  0  0  0  0  0  0  0  0  0  0  0
   -4.7760    0.2940   -0.1480 C   0  0  0  0  0  0  0  0  0  0  0  0
   -5.9200   -0.3460   -0.3420 C   0  0  0  0  0  0  0  0  0  0  0  0
   -5.9610   -1.7180   -0.2760 C   0  0  0  0  0  0  0  0  0  0  0  0
   -4.8080   -2.3760   -0.0160 N   0  0  0  0  0  0  0  0  0  0  0  0
   -3.6090   -1.7520    0.1790 C   0  0  0  0  0  0  0  0  0  0  0  0
   -1.0170    0.1250    0.0530 C   0  0  0  0  0  0  0  0  0  0  0  0
    0.0340    0.9990    0.2120 C   0  0  0  0  0  0  0  0  0  0  0  0
    1.4110    0.8740   -0.1930 C   0  0  0  0  0  0  0  0  0  0  0  0
    2.1850   -0.3090    0.0900 N   0  0  1  0  0  0  0  0  0  0  0  0
    2.3760   -1.3840   -0.7110 C   0  0  0  0  0  0  0  0  0  0  0  0
    3.7230   -1.8900   -0.9510 C   0  0  0  0  0  0  0  0  0  0  0  0
    4.8380   -1.2540   -0.3090 N   0  0  0  0  0  0  0  0  0  0  0  0
    4.5010   -0.5520    0.9170 C   0  0  0  0  0  0  0  0  0  0  0  0
    3.4540    0.3930    0.5620 C   0  0  0  0  0  0  0  0  0  0  0  0
  1  2  1  0
  2  3  2  0
  2 13  1  0
  3  4  1  0
  4  5  2  0
  5  6  1  0
  5 12  1  0
  6  7  2  0
  6 11  1  0
  7  8  1  0
  8  9  2  0
  9 10  1  0
 10 11  2  0
 12 13  2  0
 13 14  1  0
 15 14  1  6
 15 16  1  0
 15 20  1  0
 16 17  1  0
 17 18  1  0
 18 19  1  0
 19 20  1  0
M  CHG  1  15   1
M  END
