
     RDKit          3D

 18 19  0  0  0  0  0  0  0  0999 V2000
    4.9440    1.7620    0.3360 N   0  0  0  0  0  0  0  0  0  0  0  0
    4.5120    0.3850   -0.5970 S   0  0  2  0  0  0  0  0  0  0  0  0
    5.2110   -0.8280   -0.0200 O   0  0  0  0  0  0  0  0  0  0  0  0
    4.8780    0.5510   -2.0420 O   0  0  0  0  0  0  0  0  0  0  0  0
    2.7930    0.1480   -0.4460 C   0  0  0  0  0  0  0  0  0  0  0  0
    2.3200   -0.6360    0.5670 C   0  0  0  0  0  0  0  0  0  0  0  0
    0.9800   -0.8330    0.7010 C   0  0  0  0  0  0  0  0  0  0  0  0
    0.0560   -0.2660   -0.1580 C   0  0  0  0  0  0  0  0  0  0  0  0
   -1.3930   -0.5080    0.0270 C   0  0  0  0  0  0  0  0  0  0  0  0
   -1.8460   -1.7060    0.5450 C   0  0  0  0  0  0  0  0  0  0  0  0
   -3.1850   -1.9850    0.7400 C   0  0  0  0  0  0  0  0  0  0  0  0
   -4.1230   -1.0330    0.4050 C   0  0  0  0  0  0  0  0  0  0  0  0
   -3.6810    0.1740   -0.1160 C   0  0  0  0  0  0  0  0  0  0  0  0
   -4.6710    1.1720   -0.4660 C   0  0  0  0  0  0  0  0  0  0  0  0
   -4.3100    2.2770   -0.9390 O   0  0  0  0  0  0  0  0  0  0  0  0
   -2.3310    0.4400   -0.3060 C   0  0  0  0  0  0  0  0  0  0  0  0
    0.5490    0.5170   -1.1670 C   0  0  0  0  0  0  0  0  0  0  0  0
    1.8990    0.7290   -1.3200 C   0  0  0  0  0  0  0  0  0  0  0  0
  2  1  1  1
  2  3  2  0
  2  4  2  0
  2  5  1  0
  5  6  2  0
  5 18  1  0
  6  7  1  0
  7  8  2  0
  8  9  1  0
  8 17  1  0
  9 10  2  0
  9 16  1  0
 10 11  1  0
 11 12  2  0
 12 13  1  0
 13 14  1  0
 13 16  2  0
 14 15  2  0
 17 18  2  0
M  END
