
     RDKit          3D

 20 22  0  0  0  0  0  0  0  0999 V2000
   -7.0440    0.2960    0.9520 O   0  0  0  0  0  0  0  0  0  0  0  0
   -6.0400   -0.0690    0.3000 C   0  0  0  0  0  0  0  0  0  0  0  0
   -4.7620    0.2100    0.8090 C   0  0  0  0  0  0  0  0  0  0  0  0
   -3.6410   -0.1680    0.1340 C   0  0  0  0  0  0  0  0  0  0  0  0
   -2.2690    0.0850    0.5980 C   0  0  0  0  0  0  0  0  0  0  0  0
   -1.2600   -0.2830   -0.0630 N   0  0  0  0  0  0  0  0  0  0  0  0
    0.1080   -0.0600    0.3420 C   0  0  0  0  0  0  0  0  0  0  0  0
    1.0680   -0.4780   -0.4870 C   0  0  0  0  0  0  0  0  0  0  0  0
    2.4690   -0.4130   -0.3870 C   0  0  0  0  0  0  0  0  0  0  0  0
    3.1770   -0.9270   -1.4020 N   0  0  0  0  0  0  0  0  0  0  0  0
    4.6140   -0.8530   -1.2880 C   0  0  0  0  0  0  0  0  0  0  0  0
    5.1380    0.5130   -0.9850 C   0  0  0  0  0  0  0  0  0  0  0  0
    4.2430    1.2190   -0.0100 C   0  0  0  0  0  0  0  0  0  0  0  0
    3.3630    0.1310    0.6500 C   0  0  0  0  0  0  0  0  0  0  0  0
    0.3620    0.5980    1.6080 C   0  0  0  0  0  0  0  0  0  0  0  0
   -0.8720    0.9970    2.3130 C   0  0  0  0  0  0  0  0  0  0  0  0
   -2.0620    0.7690    1.8640 C   0  0  0  0  0  0  0  0  0  0  0  0
   -3.8090   -0.8320   -1.0630 C   0  0  0  0  0  0  0  0  0  0  0  0
   -5.1010   -1.0910   -1.5370 C   0  0  0  0  0  0  0  0  0  0  0  0
   -6.1980   -0.7120   -0.8600 N   0  0  0  0  0  0  0  0  0  0  0  0
  1  2  2  0
  2  3  1  0
  2 20  1  0
  3  4  2  0
  4  5  1  0
  4 18  1  0
  5  6  2  0
  5 17  1  0
  6  7  1  0
  7  8  2  3
  7 15  1  0
  8  9  1  0
  9 10  2  0
  9 14  1  0
 10 11  1  0
 11 12  1  0
 12 13  1  0
 13 14  1  0
 15 16  1  0
 16 17  2  0
 18 19  2  0
 19 20  1  0
M  CHG  1  10   1
M  END
