
     RDKit          3D

 20 22  0  0  0  0  0  0  0  0999 V2000
    4.5880   -2.5190    0.8880 C   0  0  0  0  0  0  0  0  0  0  0  0
    3.4060   -1.6700    0.6830 N   0  0  0  0  0  0  0  0  0  0  0  0
    3.4800   -0.4520   -0.0150 C   0  0  0  0  0  0  0  0  0  0  0  0
    4.6200   -0.1310   -0.4570 O   0  0  0  0  0  0  0  0  0  0  0  0
    2.3530    0.4150   -0.2380 C   0  0  0  0  0  0  0  0  0  0  0  0
    2.6390    1.5240   -0.9320 C   0  0  0  0  0  0  0  0  0  0  0  0
    1.9070    2.6850   -1.4150 C   0  0  0  0  0  0  0  0  0  0  0  0
    2.1890    3.7640   -2.0450 N   0  0  0  0  0  0  0  0  0  0  0  0
    0.8340    4.1770   -2.0110 C   0  0  0  0  0  0  0  0  0  0  0  0
    0.5110    3.0510   -1.3480 C   0  0  0  0  0  0  0  0  0  0  0  0
   -0.7940    2.6180   -0.8690 C   0  0  0  0  0  0  0  0  0  0  0  0
   -0.9400    1.2400   -0.4460 C   0  0  0  0  0  0  0  0  0  0  0  0
   -0.2810    0.2020    0.0040 C   0  0  0  0  0  0  0  0  0  0  0  0
   -0.8910   -1.1070    0.3260 C   0  0  0  0  0  0  0  0  0  0  0  0
   -2.3400   -1.0820    0.6340 C   0  0  2  0  0  0  0  0  0  0  0  0
   -2.5260   -1.6750    2.0370 C   0  0  0  0  0  0  0  0  0  0  0  0
   -3.1110   -2.0170   -0.3030 C   0  0  0  0  0  0  0  0  0  0  0  0
   -2.9910    0.2580    0.5520 C   0  0  0  0  0  0  0  0  0  0  0  0
   -2.4270    1.0220   -0.6290 C   0  0  0  0  0  0  0  0  0  0  0  0
    1.1040   -0.0060    0.3080 N   0  0  0  0  0  0  0  0  0  0  0  0
  1  2  1  0
  2  3  1  0
  3  4  2  0
  3  5  1  0
  5  6  2  0
  5 20  1  0
  6  7  1  0
  7  8  2  0
  7 10  1  0
  8  9  1  0
  9 10  2  0
 10 11  1  0
 11 12  1  0
 12 13  2  0
 12 19  1  0
 13 14  1  0
 13 20  1  0
 14 15  1  0
 15 16  1  1
 15 17  1  0
 15 18  1  0
 18 19  1  0
M  END
