
     RDKit          3D

 16 17  0  0  0  0  0  0  0  0999 V2000
   -3.4620    0.1180    1.5580 C   0  0  0  0  0  0  0  0  0  0  0  0
   -2.6860   -0.0240    0.2790 C   0  0  0  0  0  0  0  0  0  0  0  0
   -3.3120   -0.3690   -0.8980 C   0  0  0  0  0  0  0  0  0  0  0  0
   -4.6740   -0.5870   -0.9010 O   0  0  0  0  0  0  0  0  0  0  0  0
   -2.5510   -0.4850   -2.0420 C   0  0  0  0  0  0  0  0  0  0  0  0
   -1.2270   -0.2590   -1.9700 N   0  0  0  0  0  0  0  0  0  0  0  0
   -0.5780    0.0770   -0.8510 C   0  0  0  0  0  0  0  0  0  0  0  0
    0.8240    0.3130   -0.7940 N   0  0  0  0  0  0  0  0  0  0  0  0
    1.5880   -0.5790   -0.2780 C   0  0  0  0  0  0  0  0  0  0  0  0
    3.0320   -0.3910   -0.1930 C   0  0  0  0  0  0  0  0  0  0  0  0
    3.7860    0.6770   -0.6100 C   0  0  0  0  0  0  0  0  0  0  0  0
    5.0990    0.6420   -0.4350 C   0  0  0  0  0  0  0  0  0  0  0  0
    5.6510   -0.4840    0.1670 C   0  0  0  0  0  0  0  0  0  0  0  0
    4.2260   -1.4730    0.4660 S   0  0  0  0  0  0  0  0  0  0  0  0
   -1.3240    0.1990    0.3050 C   0  0  0  0  0  0  0  0  0  0  0  0
   -0.6460    0.5730    1.5810 C   0  0  0  0  0  0  0  0  0  0  0  0
  1  2  1  0
  2  3  2  0
  2 15  1  0
  3  4  1  0
  3  5  1  0
  5  6  2  0
  6  7  1  0
  7  8  1  0
  7 15  2  0
  8  9  2  3
  9 10  1  0
 10 11  2  0
 10 14  1  0
 11 12  1  0
 12 13  2  0
 13 14  1  0
 15 16  1  0
M  END
