
     RDKit          3D

 16 17  0  0  0  0  0  0  0  0999 V2000
   -2.8160   -1.7240    1.4170 C   0  0  0  0  0  0  0  0  0  0  0  0
   -2.1750   -0.7560    0.7640 C   0  0  0  0  0  0  0  0  0  0  0  0
   -0.7320   -0.8320    0.6060 C   0  0  0  0  0  0  0  0  0  0  0  0
   -0.0140    0.0380    0.0040 N   0  0  0  0  0  0  0  0  0  0  0  0
    1.3940   -0.0910   -0.1190 C   0  0  0  0  0  0  0  0  0  0  0  0
    1.9200   -1.3520   -0.2860 C   0  0  0  0  0  0  0  0  0  0  0  0
    3.2900   -1.5170   -0.4090 C   0  0  0  0  0  0  0  0  0  0  0  0
    4.1290   -0.4140   -0.3640 C   0  0  0  0  0  0  0  0  0  0  0  0
    3.5940    0.8570   -0.1960 C   0  0  0  0  0  0  0  0  0  0  0  0
    4.4150    1.9590   -0.1500 O   0  0  0  0  0  0  0  0  0  0  0  0
    2.2230    1.0090   -0.0740 C   0  0  0  0  0  0  0  0  0  0  0  0
   -2.9430    0.3740    0.2290 C   0  0  0  0  0  0  0  0  0  0  0  0
   -2.3660    1.3690   -0.6320 C   0  0  0  0  0  0  0  0  0  0  0  0
   -3.7690    2.4560   -0.9170 S   0  0  0  0  0  0  0  0  0  0  0  0
   -4.9120    1.4080    0.1600 C   0  0  0  0  0  0  0  0  0  0  0  0
   -4.2020    0.6010    0.4790 N   0  0  0  0  0  0  0  0  0  0  0  0
  1  2  2  0
  2  3  1  0
  2 12  1  0
  3  4  2  3
  4  5  1  0
  5  6  2  0
  5 11  1  0
  6  7  1  0
  7  8  2  0
  8  9  1  0
  9 10  1  0
  9 11  2  0
 12 13  2  0
 12 16  1  0
 13 14  1  0
 14 15  1  0
 15 16  2  0
M  END
