
     RDKit          3D

 16 17  0  0  0  0  0  0  0  0999 V2000
   -4.6370   -0.3000    1.1840 C   0  0  0  0  0  0  0  0  0  0  0  0
   -3.7940    0.7170    0.4420 C   0  0  2  0  0  0  0  0  0  0  0  0
   -4.5770    1.1970   -0.7480 C   0  0  0  0  0  0  0  0  0  0  0  0
   -2.4970    0.0740    0.0180 C   0  0  0  0  0  0  0  0  0  0  0  0
   -2.5760   -1.0470   -0.8240 C   0  0  0  0  0  0  0  0  0  0  0  0
   -0.8300   -1.4550   -1.0520 S   0  0  0  0  0  0  0  0  0  0  0  0
   -0.2650   -0.0490    0.0250 C   0  0  0  0  0  0  0  0  0  0  0  0
    1.1460    0.1520    0.2370 N   0  0  0  0  0  0  0  0  0  0  0  0
    2.1280   -0.6670   -0.3330 C   0  0  0  0  0  0  0  0  0  0  0  0
    1.7570   -1.6320   -1.0720 O   0  0  0  0  0  0  0  0  0  0  0  0
    3.5340   -0.4010   -0.0720 C   0  0  0  0  0  0  0  0  0  0  0  0
    4.0070    0.5720    0.6770 C   0  0  0  0  0  0  0  0  0  0  0  0
    5.4800    0.5470    0.7240 C   0  0  0  0  0  0  0  0  0  0  0  0
    5.8240   -0.6120   -0.1290 C   0  0  0  0  0  0  0  0  0  0  0  0
    4.6980   -1.1370   -0.5710 C   0  0  0  0  0  0  0  0  0  0  0  0
   -1.2670    0.4120    0.3250 N   0  0  0  0  0  0  0  0  0  0  0  0
  2  1  1  6
  2  3  1  0
  2  4  1  0
  4  5  2  0
  4 16  1  0
  5  6  1  0
  6  7  1  0
  7  8  1  0
  7 16  2  0
  8  9  1  0
  9 10  2  0
  9 11  1  0
 11 12  2  0
 11 15  1  0
 12 13  1  0
 13 14  1  0
 14 15  2  0
M  END
