
     RDKit          3D

 16 17  0  0  0  0  0  0  0  0999 V2000
    3.4800    1.9490    0.0280 C   0  0  0  0  0  0  0  0  0  0  0  0
    3.2160    0.4750    0.0300 C   0  0  0  0  0  0  0  0  0  0  0  0
    4.1240   -0.4250   -0.3080 C   0  0  0  0  0  0  0  0  0  0  0  0
    3.5070   -1.7430   -0.1860 C   0  0  0  0  0  0  0  0  0  0  0  0
    2.1620   -1.4710    0.2550 N   0  0  0  0  0  0  0  0  0  0  0  0
    1.9750   -0.2030    0.3850 C   0  0  0  0  0  0  0  0  0  0  0  0
    0.7640    0.3770    0.8020 O   0  0  0  0  0  0  0  0  0  0  0  0
   -0.4580   -0.0290    0.3260 C   0  0  0  0  0  0  0  0  0  0  0  0
   -0.5730   -1.0280   -0.6030 C   0  0  0  0  0  0  0  0  0  0  0  0
   -1.8520   -1.3750   -1.0280 C   0  0  0  0  0  0  0  0  0  0  0  0
   -2.9530   -0.7270   -0.5230 C   0  0  0  0  0  0  0  0  0  0  0  0
   -2.8460    0.2820    0.4140 C   0  0  0  0  0  0  0  0  0  0  0  0
   -4.0060    0.9480    0.9310 N   0  0  0  0  0  0  0  0  0  0  0  0
   -5.3100    0.5910    0.4940 C   0  0  0  0  0  0  0  0  0  0  0  0
   -6.4150    1.7550    0.2050 S   0  0  0  0  0  0  0  0  0  0  0  0
   -1.5790    0.6130    0.8230 C   0  0  0  0  0  0  0  0  0  0  0  0
  1  2  1  0
  2  3  2  0
  2  6  1  0
  3  4  1  0
  4  5  1  0
  5  6  2  0
  6  7  1  0
  7  8  1  0
  8  9  2  0
  8 16  1  0
  9 10  1  0
 10 11  2  0
 11 12  1  0
 12 13  1  0
 12 16  2  0
 13 14  1  0
 14 15  2  0
M  END
