
     RDKit          3D

 23 26  0  0  0  0  0  0  0  0999 V2000
    4.9470    0.2590   -3.5490 C   0  0  0  0  0  0  0  0  0  0  0  0
    4.0030   -0.0480   -2.4590 C   0  0  0  0  0  0  0  0  0  0  0  0
    3.1950   -1.1810   -2.5470 C   0  0  0  0  0  0  0  0  0  0  0  0
    2.3280   -1.4330   -1.5120 C   0  0  0  0  0  0  0  0  0  0  0  0
    2.2210   -0.6260   -0.4000 C   0  0  0  0  0  0  0  0  0  0  0  0
    3.0190    0.4900   -0.3170 C   0  0  0  0  0  0  0  0  0  0  0  0
    3.9180    0.7760   -1.3610 C   0  0  0  0  0  0  0  0  0  0  0  0
    2.7710    1.2310    0.9330 C   0  0  0  0  0  0  0  0  0  0  0  0
    1.7540    0.4830    1.6170 N   0  0  0  0  0  0  0  0  0  0  0  0
    1.1720    0.8390    2.9270 C   0  0  0  0  0  0  0  0  0  0  0  0
   -0.0310    1.7290    2.7430 C   0  0  0  0  0  0  0  0  0  0  0  0
   -1.0920    1.0710    1.9410 C   0  0  0  0  0  0  0  0  0  0  0  0
   -2.1360    0.2930    2.3910 C   0  0  0  0  0  0  0  0  0  0  0  0
   -2.8780   -0.1100    1.2910 C   0  0  0  0  0  0  0  0  0  0  0  0
   -2.2320    0.4580    0.2080 C   0  0  0  0  0  0  0  0  0  0  0  0
   -1.1820    1.1480    0.6390 O   0  0  0  0  0  0  0  0  0  0  0  0
   -2.6410    0.3200   -1.1830 C   0  0  0  0  0  0  0  0  0  0  0  0
   -3.5120   -0.5430   -1.7090 C   0  0  0  0  0  0  0  0  0  0  0  0
   -4.2690   -1.5820   -0.9270 C   0  0  0  0  0  0  0  0  0  0  0  0
   -4.8760   -0.9130    0.1930 N   0  0  0  0  0  0  0  0  0  0  0  0
   -4.0880   -0.9670    1.3920 C   0  0  0  0  0  0  0  0  0  0  0  0
    1.4260   -0.6300    0.8150 C   0  0  0  0  0  0  0  0  0  0  0  0
    0.5640   -1.5060    1.1120 O   0  0  0  0  0  0  0  0  0  0  0  0
  1  2  1  0
  2  3  2  0
  2  7  1  0
  3  4  1  0
  4  5  2  0
  5  6  1  0
  5 22  1  0
  6  7  2  0
  6  8  1  0
  8  9  1  0
  9 10  1  0
  9 22  1  0
 10 11  1  0
 11 12  1  0
 12 13  2  0
 12 16  1  0
 13 14  1  0
 14 15  2  0
 14 21  1  0
 15 16  1  0
 15 17  1  0
 17 18  2  0
 18 19  1  0
 19 20  1  0
 20 21  1  0
 22 23  2  0
M  CHG  1  20   1
M  END
