
     RDKit          3D

 23 26  0  0  0  0  0  0  0  0999 V2000
   -0.9750   -2.4970    2.2930 O   0  0  0  0  0  0  0  0  0  0  0  0
   -0.1540   -2.2360    1.4140 C   0  0  0  0  0  0  0  0  0  0  0  0
    0.0310   -1.1040    0.6170 C   0  0  0  0  0  0  0  0  0  0  0  0
   -0.5860    0.0170    0.5410 C   0  0  0  0  0  0  0  0  0  0  0  0
   -1.6970    0.6630    1.1700 C   0  0  0  0  0  0  0  0  0  0  0  0
   -2.0340    1.9110    0.7760 C   0  0  0  0  0  0  0  0  0  0  0  0
   -3.1420    2.6460    1.3550 C   0  0  0  0  0  0  0  0  0  0  0  0
   -3.6290    3.8600    1.1120 O   0  0  0  0  0  0  0  0  0  0  0  0
   -4.6450    4.0790    1.8960 C   0  0  0  0  0  0  0  0  0  0  0  0
   -4.8580    2.9920    2.6910 C   0  0  0  0  0  0  0  0  0  0  0  0
   -3.8780    2.0760    2.3280 C   0  0  0  0  0  0  0  0  0  0  0  0
   -3.6030    0.7400    2.8340 C   0  0  0  0  0  0  0  0  0  0  0  0
   -2.4770   -0.0100    2.2200 C   0  0  0  0  0  0  0  0  0  0  0  0
    1.2270   -1.2400   -0.3740 C   0  0  0  0  0  0  0  0  0  0  0  0
    1.4560   -0.2510   -1.1290 N   0  0  0  0  0  0  0  0  0  0  0  0
    2.5240   -0.2760   -2.0640 C   0  0  0  0  0  0  0  0  0  0  0  0
    2.7800    0.7730   -2.9130 C   0  0  0  0  0  0  0  0  0  0  0  0
    3.8070    0.7010   -3.8170 C   0  0  0  0  0  0  0  0  0  0  0  0
    4.5450   -0.4580   -3.8200 C   0  0  0  0  0  0  0  0  0  0  0  0
    4.3280   -1.5100   -3.0040 C   0  0  0  0  0  0  0  0  0  0  0  0
    3.2680   -1.4290   -2.0730 C   0  0  0  0  0  0  0  0  0  0  0  0
    3.0870   -2.5380   -1.2220 N   0  0  0  0  0  0  0  0  0  0  0  0
    1.9630   -2.4740   -0.3760 C   0  0  0  0  0  0  0  0  0  0  0  0
  1  2  2  0
  2  3  1  0
  3  4  2  3
  3 14  1  0
  4  5  1  0
  5  6  2  0
  5 13  1  0
  6  7  1  0
  7  8  1  0
  7 11  2  0
  8  9  1  0
  9 10  2  0
 10 11  1  0
 11 12  1  0
 12 13  1  0
 14 15  2  0
 14 23  1  0
 15 16  1  0
 16 17  2  0
 16 21  1  0
 17 18  1  0
 18 19  2  0
 19 20  1  0
 20 21  2  0
 21 22  1  0
 22 23  1  0
M  CHG  1  22   1
M  END
