
     RDKit          3D

 12 12  0  0  0  0  0  0  0  0999 V2000
   -1.6690   -1.6610   -0.6910 C   0  0  0  0  0  0  0  0  0  0  0  0
   -1.6020   -0.2450   -0.5970 C   0  0  0  0  0  0  0  0  0  0  0  0
   -0.8430    0.7560   -0.2250 C   0  0  0  0  0  0  0  0  0  0  0  0
   -1.4120    2.1320   -0.3870 C   0  0  0  0  0  0  0  0  0  0  0  0
   -1.0530    3.0490    0.6960 C   0  0  0  0  0  0  0  0  0  0  0  0
   -0.0570    2.7820    1.5040 C   0  0  0  0  0  0  0  0  0  0  0  0
    0.6920    1.5680    1.4040 C   0  0  0  0  0  0  0  0  0  0  0  0
    0.3650    0.5580    0.5190 C   0  0  0  0  0  0  0  0  0  0  0  0
    1.3110   -0.4870    0.4240 C   0  0  0  0  0  0  0  0  0  0  0  0
    1.6020   -1.5400   -0.2200 C   0  0  0  0  0  0  0  0  0  0  0  0
    2.8280   -2.2580    0.2180 N   0  0  0  0  0  0  0  0  0  0  0  0
    1.0610   -2.0930   -1.3710 N   0  0  0  0  0  0  0  0  0  0  0  0
  1  2  1  0
  2  3  2  3
  3  4  1  0
  3  8  1  0
  4  5  1  0
  5  6  2  0
  6  7  1  0
  7  8  2  0
  8  9  1  0
  9 10  2  3
 10 11  1  0
 10 12  1  0
M  END
