
     RDKit          3D

 23 26  0  0  0  0  0  0  0  0999 V2000
    4.7970    3.1350    1.5010 C   0  0  0  0  0  0  0  0  0  0  0  0
    4.0220    2.0510    0.8030 C   0  0  0  0  0  0  0  0  0  0  0  0
    4.6500    1.1760   -0.0520 C   0  0  0  0  0  0  0  0  0  0  0  0
    3.9740    0.1670   -0.7120 C   0  0  0  0  0  0  0  0  0  0  0  0
    2.5980    0.0080   -0.5200 C   0  0  0  0  0  0  0  0  0  0  0  0
    1.9570    0.8760    0.3310 C   0  0  0  0  0  0  0  0  0  0  0  0
    0.5190    0.8010    0.6040 C   0  0  0  0  0  0  0  0  0  0  0  0
    0.0270    1.6410    1.3990 O   0  0  0  0  0  0  0  0  0  0  0  0
   -0.3110   -0.1620    0.0170 N   0  0  0  0  0  0  0  0  0  0  0  0
   -1.6910   -0.2600    0.2690 C   0  0  0  0  0  0  0  0  0  0  0  0
   -2.3040    0.2890    1.3430 C   0  0  0  0  0  0  0  0  0  0  0  0
   -3.6970    0.1790    1.5380 C   0  0  0  0  0  0  0  0  0  0  0  0
   -4.4720   -0.5070    0.6160 C   0  0  0  0  0  0  0  0  0  0  0  0
   -5.8150   -0.6000    0.8270 N   0  0  0  0  0  0  0  0  0  0  0  0
   -6.5320   -1.2650   -0.0760 C   0  0  0  0  0  0  0  0  0  0  0  0
   -6.0170   -1.8650   -1.2050 C   0  0  0  0  0  0  0  0  0  0  0  0
   -4.6550   -1.7510   -1.3850 C   0  0  0  0  0  0  0  0  0  0  0  0
   -3.8600   -1.0730   -0.4820 C   0  0  0  0  0  0  0  0  0  0  0  0
   -2.5020   -0.9430   -0.6370 C   0  0  0  0  0  0  0  0  0  0  0  0
    2.6770    1.8920    0.9870 C   0  0  0  0  0  0  0  0  0  0  0  0
    2.1730   -1.0670   -1.2920 O   0  0  0  0  0  0  0  0  0  0  0  0
    3.3040   -1.9350   -1.4830 C   0  0  0  0  0  0  0  0  0  0  0  0
    4.3790   -0.8920   -1.6670 C   0  0  0  0  0  0  0  0  0  0  0  0
  1  2  1  0
  2  3  2  0
  2 20  1  0
  3  4  1  0
  4  5  2  0
  4 23  1  0
  5  6  1  0
  5 21  1  0
  6  7  1  0
  6 20  2  0
  7  8  2  0
  7  9  1  0
  9 10  1  0
 10 11  2  0
 10 19  1  0
 11 12  1  0
 12 13  2  0
 13 14  1  0
 13 18  1  0
 14 15  2  0
 15 16  1  0
 16 17  2  0
 17 18  1  0
 18 19  2  0
 21 22  1  0
 22 23  1  0
M  CHG  1  14   1
M  END
