
     RDKit          3D

 23 26  0  0  0  0  0  0  0  0999 V2000
   -4.9330    1.0920   -0.7380 C   0  0  0  0  0  0  0  0  0  0  0  0
   -4.3370    0.1080    0.0570 N   0  0  0  0  0  0  0  0  0  0  0  0
   -4.2830    0.2620    1.4350 C   0  0  0  0  0  0  0  0  0  0  0  0
   -3.0060    0.9380    1.9330 C   0  0  0  0  0  0  0  0  0  0  0  0
   -1.9080    0.0520    1.5990 N   0  0  0  0  0  0  0  0  0  0  0  0
   -1.7640    0.0900    0.1350 C   0  0  1  0  0  0  0  0  0  0  0  0
   -0.3510    0.2840   -0.2520 C   0  0  0  0  0  0  0  0  0  0  0  0
   -0.0300    1.1920   -1.2390 C   0  0  0  0  0  0  0  0  0  0  0  0
    1.2760    1.3860   -1.6120 C   0  0  0  0  0  0  0  0  0  0  0  0
    2.2930    0.6780   -1.0110 C   0  0  0  0  0  0  0  0  0  0  0  0
    3.6110    0.8610   -1.3750 C   0  0  0  0  0  0  0  0  0  0  0  0
    4.6590    0.1710   -0.7960 C   0  0  0  0  0  0  0  0  0  0  0  0
    5.9140    0.3750   -1.1730 O   0  0  0  0  0  0  0  0  0  0  0  0
    6.9240   -0.2690   -0.6360 C   0  0  0  0  0  0  0  0  0  0  0  0
    8.1210   -0.0500   -1.0220 O   0  0  0  0  0  0  0  0  0  0  0  0
    6.7270   -1.2040    0.3610 C   0  0  0  0  0  0  0  0  0  0  0  0
    5.4130   -1.4270    0.7670 C   0  0  0  0  0  0  0  0  0  0  0  0
    4.3570   -0.7470    0.1980 C   0  0  0  0  0  0  0  0  0  0  0  0
    3.0410   -0.9420    0.5750 C   0  0  0  0  0  0  0  0  0  0  0  0
    2.0060   -0.2440   -0.0140 C   0  0  0  0  0  0  0  0  0  0  0  0
    0.6830   -0.4130    0.3360 C   0  0  0  0  0  0  0  0  0  0  0  0
   -2.3290   -1.2050   -0.4540 C   0  0  0  0  0  0  0  0  0  0  0  0
   -3.8400   -1.0520   -0.5450 C   0  0  0  0  0  0  0  0  0  0  0  0
  1  2  1  0
  2  3  1  0
  2 23  1  0
  3  4  1  0
  4  5  1  0
  5  6  1  0
  6  7  1  1
  6 22  1  0
  7  8  2  0
  7 21  1  0
  8  9  1  0
  9 10  2  0
 10 11  1  0
 10 20  1  0
 11 12  2  0
 12 13  1  0
 12 18  1  0
 13 14  1  0
 14 15  2  0
 14 16  1  0
 16 17  2  0
 17 18  1  0
 18 19  2  0
 19 20  1  0
 20 21  2  0
 22 23  1  0
M  CHG  1   5   1
M  END
