
     RDKit          3D

 25 27  0  0  0  0  0  0  0  0999 V2000
    7.3140    0.2490   -1.0330 C   0  0  0  0  0  0  0  0  0  0  0  0
    6.2570   -0.8520   -1.0900 C   0  0  0  0  0  0  0  0  0  0  0  0
    5.3930   -0.6220   -0.0270 O   0  0  0  0  0  0  0  0  0  0  0  0
    4.3670   -1.5530    0.0530 C   0  0  1  0  0  0  0  0  0  0  0  0
    4.3560   -2.3100    1.3340 C   0  0  0  0  0  0  0  0  0  0  0  0
    3.9000   -1.4700    2.5050 C   0  0  0  0  0  0  0  0  0  0  0  0
    2.7180   -0.6340    2.2170 C   0  0  0  0  0  0  0  0  0  0  0  0
    2.6850    0.0060    0.9180 N   0  0  2  0  0  0  0  0  0  0  0  0
    1.3230    0.4560    0.7450 C   0  0  0  0  0  0  0  0  0  0  0  0
    0.9970    1.1240   -0.5350 C   0  0  1  0  0  0  0  0  0  0  0  0
    1.1860    0.2840   -1.6180 O   0  0  0  0  0  0  0  0  0  0  0  0
   -0.4930    1.4120   -0.5090 C   0  0  0  0  0  0  0  0  0  0  0  0
   -1.0080    2.6120   -0.5930 C   0  0  0  0  0  0  0  0  0  0  0  0
   -2.4800    2.4840   -0.5320 C   0  0  0  0  0  0  0  0  0  0  0  0
   -2.8410    1.2430   -0.4150 C   0  0  0  0  0  0  0  0  0  0  0  0
   -4.1650    0.6440   -0.3170 C   0  0  0  0  0  0  0  0  0  0  0  0
   -4.2320   -0.7550   -0.3370 C   0  0  0  0  0  0  0  0  0  0  0  0
   -5.4190   -1.4460   -0.2360 C   0  0  0  0  0  0  0  0  0  0  0  0
   -6.5820   -0.7550   -0.1120 C   0  0  0  0  0  0  0  0  0  0  0  0
   -7.8700   -1.4810   -0.0020 C   0  0  0  0  0  0  0  0  0  0  0  0
   -6.5270    0.6160   -0.0910 C   0  0  0  0  0  0  0  0  0  0  0  0
   -5.3190    1.3290   -0.1930 C   0  0  0  0  0  0  0  0  0  0  0  0
   -5.4150    2.8070   -0.1230 C   0  0  0  0  0  0  0  0  0  0  0  0
   -1.5720    0.4370   -0.3850 C   0  0  0  0  0  0  0  0  0  0  0  0
    3.0650   -0.8110   -0.1800 C   0  0  0  0  0  0  0  0  0  0  0  0
  1  2  1  0
  2  3  1  0
  4  3  1  1
  4  5  1  0
  4 25  1  0
  5  6  1  0
  6  7  1  0
  7  8  1  0
  8  9  1  6
  8 25  1  0
  9 10  1  0
 10 11  1  6
 10 12  1  0
 12 13  2  0
 12 24  1  0
 13 14  1  0
 14 15  2  0
 15 16  1  0
 15 24  1  0
 16 17  2  0
 16 22  1  0
 17 18  1  0
 18 19  2  0
 19 20  1  0
 19 21  1  0
 21 22  2  0
 22 23  1  0
M  CHG  1   8   1
M  END
