
     RDKit          3D

 25 27  0  0  0  0  0  0  0  0999 V2000
   -1.9700   -3.2110    0.9700 C   0  0  0  0  0  0  0  0  0  0  0  0
   -1.5460   -1.8500    1.4330 C   0  0  0  0  0  0  0  0  0  0  0  0
   -1.4320   -0.8750    0.3500 N   0  0  1  0  0  0  0  0  0  0  0  0
   -1.0250   -1.4840   -0.8770 C   0  0  0  0  0  0  0  0  0  0  0  0
    0.2210   -0.8760   -1.4810 C   0  0  1  0  0  0  0  0  0  0  0  0
    0.0550    0.5090   -1.6850 O   0  0  0  0  0  0  0  0  0  0  0  0
    1.4490   -1.0670   -0.6970 C   0  0  0  0  0  0  0  0  0  0  0  0
    1.6800   -2.0800    0.2030 C   0  0  0  0  0  0  0  0  0  0  0  0
    2.9420   -1.9080    0.7290 C   0  0  0  0  0  0  0  0  0  0  0  0
    3.4300   -0.7800    0.1140 C   0  0  0  0  0  0  0  0  0  0  0  0
    4.7590   -0.1450    0.3170 C   0  0  1  0  0  0  0  0  0  0  0  0
    5.5600   -0.1090   -0.9720 C   0  0  0  0  0  0  0  0  0  0  0  0
    7.0010    0.2150   -0.5550 C   0  0  0  0  0  0  0  0  0  0  0  0
    7.0420    1.5500    0.1180 C   0  0  0  0  0  0  0  0  0  0  0  0
    6.0490    1.7040    1.2320 C   0  0  0  0  0  0  0  0  0  0  0  0
    4.6520    1.2740    0.8110 C   0  0  0  0  0  0  0  0  0  0  0  0
    2.5250   -0.3120   -0.7180 O   0  0  0  0  0  0  0  0  0  0  0  0
   -2.5880   -0.0130    0.2820 C   0  0  1  0  0  0  0  0  0  0  0  0
   -3.0890    0.3780   -1.0450 C   0  0  0  0  0  0  0  0  0  0  0  0
   -3.2380    1.9110   -1.1380 C   0  0  0  0  0  0  0  0  0  0  0  0
   -4.1580    2.2580    0.0410 C   0  0  0  0  0  0  0  0  0  0  0  0
   -5.3130    1.3220    0.1330 C   0  0  2  0  0  0  0  0  0  0  0  0
   -6.4110    2.0840    0.9000 C   0  0  0  0  0  0  0  0  0  0  0  0
   -5.1050   -0.0200    0.6460 C   0  0  0  0  0  0  0  0  0  0  0  0
   -3.7670   -0.4720    1.1040 C   0  0  0  0  0  0  0  0  0  0  0  0
  1  2  1  0
  3  2  1  1
  3  4  1  0
  3 18  1  0
  4  5  1  0
  5  6  1  1
  5  7  1  0
  7  8  2  0
  7 17  1  0
  8  9  1  0
  9 10  2  0
 11 10  1  6
 10 17  1  0
 11 12  1  0
 11 16  1  0
 12 13  1  0
 13 14  1  0
 14 15  1  0
 15 16  1  0
 18 19  1  6
 18 25  1  0
 19 20  1  0
 20 21  1  0
 21 22  1  0
 22 23  1  1
 22 24  1  0
 24 25  1  0
M  CHG  1   3   1
M  END
