
     RDKit          3D

 25 27  0  0  0  0  0  0  0  0999 V2000
    3.5690   -2.4520   -0.6120 C   0  0  0  0  0  0  0  0  0  0  0  0
    3.9670   -1.6420    0.3470 C   0  0  0  0  0  0  0  0  0  0  0  0
    4.8670   -2.1650    1.2730 O   0  0  0  0  0  0  0  0  0  0  0  0
    3.4680   -0.2920    0.3990 C   0  0  0  0  0  0  0  0  0  0  0  0
    2.4810    0.2760   -0.5850 C   0  0  0  0  0  0  0  0  0  0  0  0
    1.0920   -0.2150   -0.3880 C   0  0  0  0  0  0  0  0  0  0  0  0
    0.0980    0.3250   -1.3680 C   0  0  2  0  0  0  0  0  0  0  0  0
   -1.2970   -0.1970   -1.1340 C   0  0  1  0  0  0  0  0  0  0  0  0
   -2.2610    0.3850   -2.1550 C   0  0  0  0  0  0  0  0  0  0  0  0
   -1.2510   -1.5590   -1.3470 O   0  0  0  0  0  0  0  0  0  0  0  0
   -1.7380   -2.3390   -0.3400 C   0  0  0  0  0  0  0  0  0  0  0  0
   -3.1720   -1.9660    0.0140 C   0  0  0  0  0  0  0  0  0  0  0  0
   -3.1370   -0.5520    0.5270 C   0  0  1  0  0  0  0  0  0  0  0  0
   -4.3530    0.2290    0.0970 C   0  0  0  0  0  0  0  0  0  0  0  0
   -3.2380   -0.6470    2.0590 C   0  0  0  0  0  0  0  0  0  0  0  0
   -2.3980    0.3970    2.7060 C   0  0  0  0  0  0  0  0  0  0  0  0
   -2.2980    1.6420    1.9930 N   0  0  0  0  0  0  0  0  0  0  0  0
   -1.8300    1.5140    0.6440 C   0  0  0  0  0  0  0  0  0  0  0  0
   -1.8240    0.0710    0.2370 C   0  0  2  0  0  0  0  0  0  0  0  0
    0.5310   -0.0780   -2.7840 C   0  0  0  0  0  0  0  0  0  0  0  0
    0.8310    1.3440   -3.1390 C   0  0  0  0  0  0  0  0  0  0  0  0
    0.2170    1.7430   -1.7940 C   0  0  0  0  0  0  0  0  0  0  0  0
    3.9270    0.5030    1.3810 C   0  0  0  0  0  0  0  0  0  0  0  0
    4.9010    0.0730    2.3930 C   0  0  0  0  0  0  0  0  0  0  0  0
    3.4230    1.9240    1.4640 C   0  0  0  0  0  0  0  0  0  0  0  0
  1  2  2  0
  2  3  1  0
  2  4  1  0
  4  5  1  0
  4 23  2  3
  5  6  1  0
  7  6  1  1
  7  8  1  0
  7 20  1  0
  7 22  1  0
  8  9  1  6
  8 10  1  0
  8 19  1  0
 10 11  1  0
 11 12  1  0
 12 13  1  0
 13 14  1  6
 13 15  1  0
 13 19  1  0
 15 16  1  0
 16 17  1  0
 17 18  1  0
 19 18  1  6
 20 21  1  0
 21 22  1  0
 23 24  1  0
 23 25  1  0
M  CHG  1  17   1
M  END
