
     RDKit          3D

 25 27  0  0  0  0  0  0  0  0999 V2000
   -5.9880   -1.4660   -1.2680 C   0  0  0  0  0  0  0  0  0  0  0  0
   -5.0560   -1.1470   -0.2230 N   0  0  0  0  0  0  0  0  0  0  0  0
   -5.4780   -0.0000    0.5390 C   0  0  2  0  0  0  0  0  0  0  0  0
   -5.7040    1.2100   -0.3440 C   0  0  0  0  0  0  0  0  0  0  0  0
   -4.4310    0.3710    1.5580 C   0  0  2  0  0  0  0  0  0  0  0  0
   -4.9730    1.5550    2.3400 C   0  0  0  0  0  0  0  0  0  0  0  0
   -3.2560    0.6690    0.9080 O   0  0  0  0  0  0  0  0  0  0  0  0
   -2.2160   -0.1710    1.3080 C   0  0  0  0  0  0  0  0  0  0  0  0
   -0.9740    0.1800    0.5890 C   0  0  0  0  0  0  0  0  0  0  0  0
    0.1790   -0.5420    0.8500 C   0  0  0  0  0  0  0  0  0  0  0  0
    1.3180   -0.1840    0.1590 C   0  0  0  0  0  0  0  0  0  0  0  0
    1.3220    0.8570   -0.7640 C   0  0  0  0  0  0  0  0  0  0  0  0
    2.6080    1.1600   -1.4550 C   0  0  1  0  0  0  0  0  0  0  0  0
    3.4510    1.9330   -0.5260 C   0  0  0  0  0  0  0  0  0  0  0  0
    4.6240    1.5560   -0.0950 C   0  0  0  0  0  0  0  0  0  0  0  0
    5.1790    0.2810   -0.5420 C   0  0  0  0  0  0  0  0  0  0  0  0
    6.4220   -0.1480   -0.1020 C   0  0  0  0  0  0  0  0  0  0  0  0
    6.9590   -1.3500   -0.5150 C   0  0  0  0  0  0  0  0  0  0  0  0
    8.2910   -1.8200   -0.0500 C   0  0  0  0  0  0  0  0  0  0  0  0
    6.1970   -2.1020   -1.3860 C   0  0  0  0  0  0  0  0  0  0  0  0
    4.9600   -1.6770   -1.8250 C   0  0  0  0  0  0  0  0  0  0  0  0
    4.4230   -0.4740   -1.4120 C   0  0  0  0  0  0  0  0  0  0  0  0
    3.1700   -0.0480   -1.8580 O   0  0  0  0  0  0  0  0  0  0  0  0
    0.1720    1.5530   -1.0030 C   0  0  0  0  0  0  0  0  0  0  0  0
   -0.9850    1.2210   -0.3280 C   0  0  0  0  0  0  0  0  0  0  0  0
  1  2  1  0
  2  3  1  0
  3  4  1  6
  3  5  1  0
  5  6  1  6
  5  7  1  0
  7  8  1  0
  8  9  1  0
  9 10  2  0
  9 25  1  0
 10 11  1  0
 11 12  2  0
 13 12  1  1
 12 24  1  0
 13 14  1  0
 13 23  1  0
 14 15  2  0
 15 16  1  0
 16 17  2  0
 16 22  1  0
 17 18  1  0
 18 19  1  0
 18 20  2  0
 20 21  1  0
 21 22  2  0
 22 23  1  0
 24 25  2  0
M  CHG  1   2   1
M  END
