
     RDKit          3D

 25 27  0  0  0  0  0  0  0  0999 V2000
   -5.4470    0.4270   -3.0020 C   0  0  0  0  0  0  0  0  0  0  0  0
   -4.9800    0.0120   -1.6570 C   0  0  0  0  0  0  0  0  0  0  0  0
   -3.7730   -0.5820   -1.3070 C   0  0  0  0  0  0  0  0  0  0  0  0
   -3.7950   -0.7800    0.0510 C   0  0  0  0  0  0  0  0  0  0  0  0
   -2.7110   -1.3870    0.8530 C   0  0  0  0  0  0  0  0  0  0  0  0
   -1.7260   -0.3790    1.4070 C   0  0  1  0  0  0  0  0  0  0  0  0
   -2.4950    0.6030    2.3020 C   0  0  0  0  0  0  0  0  0  0  0  0
   -0.8120   -1.1330    2.3480 C   0  0  0  0  0  0  0  0  0  0  0  0
    0.2100   -1.8840    1.5880 C   0  0  0  0  0  0  0  0  0  0  0  0
    1.0930   -0.9470    0.7870 C   0  0  0  0  0  0  0  0  0  0  0  0
    0.4820    0.3570    0.4730 C   0  0  1  0  0  0  0  0  0  0  0  0
    0.7100    1.3010    1.6640 C   0  0  0  0  0  0  0  0  0  0  0  0
    1.0480    0.9770   -0.7810 C   0  0  0  0  0  0  0  0  0  0  0  0
    2.3290    1.2870   -0.8570 O   0  0  0  0  0  0  0  0  0  0  0  0
    3.3880    0.4890   -0.8140 C   0  0  2  0  0  0  0  0  0  0  0  0
    4.1990    0.8930    0.4410 C   0  0  0  0  0  0  0  0  0  0  0  0
    5.2580   -0.0560    0.7630 C   0  0  0  0  0  0  0  0  0  0  0  0
    6.1690   -0.6070   -0.0230 C   0  0  0  0  0  0  0  0  0  0  0  0
    6.3900   -0.4240   -1.4840 C   0  0  0  0  0  0  0  0  0  0  0  0
    5.1040   -0.5110   -2.1620 N   0  0  0  0  0  0  0  0  0  0  0  0
    4.3750    0.7200   -1.9600 C   0  0  0  0  0  0  0  0  0  0  0  0
   -1.0220    0.2830    0.2820 C   0  0  0  0  0  0  0  0  0  0  0  0
   -4.9430   -0.3330    0.4860 O   0  0  0  0  0  0  0  0  0  0  0  0
   -5.6690    0.1410   -0.4870 C   0  0  0  0  0  0  0  0  0  0  0  0
   -7.0520    0.7440   -0.3830 C   0  0  0  0  0  0  0  0  0  0  0  0
  1  2  1  0
  2  3  1  0
  2 24  2  0
  3  4  2  0
  4  5  1  0
  4 23  1  0
  5  6  1  0
  6  7  1  1
  6  8  1  0
  6 22  1  0
  8  9  1  0
  9 10  1  0
 10 11  1  0
 11 12  1  1
 11 13  1  0
 11 22  1  0
 13 14  1  0
 15 14  1  6
 15 16  1  0
 15 21  1  0
 16 17  1  0
 17 18  2  0
 18 19  1  0
 19 20  1  0
 20 21  1  0
 23 24  1  0
 24 25  1  0
M  CHG  1  20   1
M  END
