
     RDKit          3D

 24 26  0  0  0  0  0  0  0  0999 V2000
    2.6670   -3.7370    0.6370 C   0  0  0  0  0  0  0  0  0  0  0  0
    2.7290   -2.5540    0.0370 C   0  0  0  0  0  0  0  0  0  0  0  0
    1.5410   -1.8920   -0.5650 C   0  0  0  0  0  0  0  0  0  0  0  0
    1.2200   -0.6170   -0.0050 N   0  0  2  0  0  0  0  0  0  0  0  0
   -0.0990   -0.2690   -0.5100 C   0  0  0  0  0  0  0  0  0  0  0  0
   -1.2210   -0.7310    0.3950 C   0  0  1  0  0  0  0  0  0  0  0  0
   -1.1630   -0.1390    1.7810 C   0  0  0  0  0  0  0  0  0  0  0  0
   -1.2520    1.3660    1.7620 C   0  0  0  0  0  0  0  0  0  0  0  0
   -2.4030    1.7160    1.0260 O   0  0  0  0  0  0  0  0  0  0  0  0
   -3.0900    0.8630    0.1810 C   0  0  0  0  0  0  0  0  0  0  0  0
   -4.3380    1.2360   -0.3300 C   0  0  0  0  0  0  0  0  0  0  0  0
   -4.9670    2.5390    0.0070 C   0  0  0  0  0  0  0  0  0  0  0  0
   -5.0340    0.3940   -1.1750 C   0  0  0  0  0  0  0  0  0  0  0  0
   -4.4860   -0.8290   -1.5150 C   0  0  0  0  0  0  0  0  0  0  0  0
   -5.2050   -1.7620   -2.4210 C   0  0  0  0  0  0  0  0  0  0  0  0
   -3.2520   -1.1750   -0.9980 C   0  0  0  0  0  0  0  0  0  0  0  0
   -2.5460   -0.3530   -0.1580 C   0  0  0  0  0  0  0  0  0  0  0  0
    2.1380    0.4460   -0.1000 C   0  0  1  0  0  0  0  0  0  0  0  0
    2.9150    0.6100    1.2230 C   0  0  0  0  0  0  0  0  0  0  0  0
    3.4390    2.0530    1.1790 C   0  0  0  0  0  0  0  0  0  0  0  0
    4.5950    2.0320    0.1890 C   0  0  0  0  0  0  0  0  0  0  0  0
    4.5210    0.8370   -0.7030 C   0  0  0  0  0  0  0  0  0  0  0  0
    3.0820    0.5830   -1.1980 C   0  0  1  0  0  0  0  0  0  0  0  0
    3.2010   -0.4410   -2.1070 O   0  0  0  0  0  0  0  0  0  0  0  0
  1  2  2  0
  2  3  1  0
  4  3  1  6
  4  5  1  0
  4 18  1  0
  6  5  1  6
  6  7  1  0
  6 17  1  0
  7  8  1  0
  8  9  1  0
  9 10  1  0
 10 11  2  0
 10 17  1  0
 11 12  1  0
 11 13  1  0
 13 14  2  0
 14 15  1  0
 14 16  1  0
 16 17  2  0
 18 19  1  1
 18 23  1  0
 19 20  1  0
 20 21  1  0
 21 22  1  0
 22 23  1  0
 23 24  1  1
M  CHG  1   4   1
M  END
