
     RDKit          3D

 20 22  0  0  0  0  0  0  0  0999 V2000
   -5.8320    0.7730   -1.4360 C   0  0  0  0  0  0  0  0  0  0  0  0
   -5.1760   -0.1100   -0.4220 C   0  0  0  0  0  0  0  0  0  0  0  0
   -5.7780   -1.1610    0.1060 C   0  0  0  0  0  0  0  0  0  0  0  0
   -4.8450   -1.7820    1.0530 C   0  0  0  0  0  0  0  0  0  0  0  0
   -3.6390   -0.9360    0.9830 C   0  0  0  0  0  0  0  0  0  0  0  0
   -3.8440    0.0370    0.1200 C   0  0  0  0  0  0  0  0  0  0  0  0
   -2.8950    1.1360   -0.2750 C   0  0  0  0  0  0  0  0  0  0  0  0
   -1.6150    1.0210    0.4460 C   0  0  0  0  0  0  0  0  0  0  0  0
   -1.3260    1.5860    1.6300 N   0  0  0  0  0  0  0  0  0  0  0  0
   -0.0780    1.2400    1.9300 C   0  0  0  0  0  0  0  0  0  0  0  0
    0.4400    0.4460    0.9300 C   0  0  0  0  0  0  0  0  0  0  0  0
    1.7520   -0.1840    0.7840 C   0  0  0  0  0  0  0  0  0  0  0  0
    2.7370    0.6680    0.0800 C   0  0  0  0  0  0  0  0  0  0  0  0
    2.4460    1.8240   -0.3430 O   0  0  0  0  0  0  0  0  0  0  0  0
    4.0330    0.1490   -0.1100 N   0  0  0  0  0  0  0  0  0  0  0  0
    4.4850   -1.1500    0.3240 C   0  0  0  0  0  0  0  0  0  0  0  0
    5.9220   -1.2760   -0.1220 C   0  0  0  0  0  0  0  0  0  0  0  0
    6.0500   -0.2770   -1.2240 C   0  0  0  0  0  0  0  0  0  0  0  0
    5.1180    0.8380   -0.7730 C   0  0  0  0  0  0  0  0  0  0  0  0
   -0.5450    0.3290    0.0210 N   0  0  0  0  0  0  0  0  0  0  0  0
  1  2  1  0
  2  3  2  0
  2  6  1  0
  3  4  1  0
  4  5  1  0
  5  6  2  0
  6  7  1  0
  7  8  1  0
  8  9  1  0
  8 20  2  0
  9 10  1  0
 10 11  2  0
 11 12  1  0
 11 20  1  0
 12 13  1  0
 13 14  2  0
 13 15  1  0
 15 16  1  0
 15 19  1  0
 16 17  1  0
 17 18  1  0
 18 19  1  0
M  CHG  1  20   1
M  END
