
     RDKit          3D

 20 22  0  0  0  0  0  0  0  0999 V2000
    0.5520   -2.3230    2.6110 O   0  0  0  0  0  0  0  0  0  0  0  0
   -0.4310   -1.8120    1.8240 C   0  0  0  0  0  0  0  0  0  0  0  0
   -1.7230   -2.3090    1.8870 C   0  0  0  0  0  0  0  0  0  0  0  0
   -2.7540   -1.8110    1.1500 C   0  0  0  0  0  0  0  0  0  0  0  0
   -2.5170   -0.7460    0.2780 C   0  0  0  0  0  0  0  0  0  0  0  0
   -3.6280   -0.1740   -0.5510 C   0  0  0  0  0  0  0  0  0  0  0  0
   -3.5730    1.2220   -0.7170 C   0  0  0  0  0  0  0  0  0  0  0  0
   -4.4750    1.8620   -1.4490 C   0  0  0  0  0  0  0  0  0  0  0  0
   -5.5870    1.0590   -2.1340 C   0  0  0  0  0  0  0  0  0  0  0  0
   -5.5310   -0.2230   -1.8830 N   0  0  0  0  0  0  0  0  0  0  0  0
   -4.5360   -0.8450   -1.0850 C   0  0  0  0  0  0  0  0  0  0  0  0
   -1.2280   -0.2650    0.2090 C   0  0  0  0  0  0  0  0  0  0  0  0
   -0.1660   -0.7180    0.9190 C   0  0  0  0  0  0  0  0  0  0  0  0
    1.1290   -0.1280    1.1170 C   0  0  0  0  0  0  0  0  0  0  0  0
    2.2660   -0.0670    0.3580 N   0  0  1  0  0  0  0  0  0  0  0  0
    2.3220    0.4260   -0.9350 C   0  0  0  0  0  0  0  0  0  0  0  0
    3.6390    1.1620   -1.2150 C   0  0  0  0  0  0  0  0  0  0  0  0
    4.7500    0.4670   -0.6430 N   0  0  0  0  0  0  0  0  0  0  0  0
    4.6290    0.4300    0.8070 C   0  0  0  0  0  0  0  0  0  0  0  0
    3.2370    0.6830    1.2510 C   0  0  0  0  0  0  0  0  0  0  0  0
  1  2  1  0
  2  3  2  0
  2 13  1  0
  3  4  1  0
  4  5  2  0
  5  6  1  0
  5 12  1  0
  6  7  2  0
  6 11  1  0
  7  8  1  0
  8  9  2  0
  9 10  1  0
 10 11  2  0
 12 13  2  0
 13 14  1  0
 15 14  1  1
 15 16  1  0
 15 20  1  0
 16 17  1  0
 17 18  1  0
 18 19  1  0
 19 20  1  0
M  CHG  1  15   1
M  END
