
     RDKit          3D

 20 22  0  0  0  0  0  0  0  0999 V2000
    4.5150    0.8770   -2.3180 N   0  0  0  0  0  0  0  0  0  0  0  0
    4.6690    0.3270   -1.0120 C   0  0  0  0  0  0  0  0  0  0  0  0
    5.6590   -0.3790   -0.5510 N   0  0  0  0  0  0  0  0  0  0  0  0
    5.4390   -0.7520    0.8310 C   0  0  0  0  0  0  0  0  0  0  0  0
    4.4300    0.3160    1.2730 C   0  0  0  0  0  0  0  0  0  0  0  0
    3.6930    0.4850    0.0380 N   0  0  0  0  0  0  0  0  0  0  0  0
    2.2830    0.7530   -0.1740 C   0  0  0  0  0  0  0  0  0  0  0  0
    1.5370   -0.4940    0.2660 C   0  0  0  0  0  0  0  0  0  0  0  0
    0.0890   -0.3930    0.1140 C   0  0  0  0  0  0  0  0  0  0  0  0
   -0.6940    0.0890    1.1370 C   0  0  0  0  0  0  0  0  0  0  0  0
   -2.0640    0.1970    1.0250 C   0  0  0  0  0  0  0  0  0  0  0  0
   -2.7210   -0.1710   -0.1160 C   0  0  0  0  0  0  0  0  0  0  0  0
   -4.1990   -0.0630   -0.2540 C   0  0  0  0  0  0  0  0  0  0  0  0
   -4.9360    0.3950    0.7270 C   0  0  0  0  0  0  0  0  0  0  0  0
   -6.4070    0.5060    0.5950 C   0  0  0  0  0  0  0  0  0  0  0  0
   -6.9100    0.0860   -0.6260 O   0  0  0  0  0  0  0  0  0  0  0  0
   -6.1580   -0.3970   -1.6710 C   0  0  0  0  0  0  0  0  0  0  0  0
   -4.8280   -0.4730   -1.4960 C   0  0  0  0  0  0  0  0  0  0  0  0
   -1.9600   -0.6560   -1.1520 C   0  0  0  0  0  0  0  0  0  0  0  0
   -0.5710   -0.7630   -1.0300 C   0  0  0  0  0  0  0  0  0  0  0  0
  1  2  1  0
  2  3  2  0
  2  6  1  0
  3  4  1  0
  4  5  1  0
  5  6  1  0
  6  7  1  0
  7  8  1  0
  8  9  1  0
  9 10  2  0
  9 20  1  0
 10 11  1  0
 11 12  2  0
 12 13  1  0
 12 19  1  0
 13 14  2  0
 13 18  1  0
 14 15  1  0
 15 16  1  0
 16 17  1  0
 17 18  2  0
 19 20  2  0
M  CHG  1   3   1
M  END
