
     RDKit          3D

 18 19  0  0  0  0  0  0  0  0999 V2000
    4.9970    1.0300    1.0450 N   0  0  0  0  0  0  0  0  0  0  0  0
    4.4230   -0.5780    0.8510 S   0  0  2  0  0  0  0  0  0  0  0  0
    4.4880   -1.2480    2.1940 O   0  0  0  0  0  0  0  0  0  0  0  0
    5.1200   -1.3320   -0.2170 O   0  0  0  0  0  0  0  0  0  0  0  0
    2.7180   -0.4970    0.4100 C   0  0  0  0  0  0  0  0  0  0  0  0
    1.7380   -0.4950    1.3800 C   0  0  0  0  0  0  0  0  0  0  0  0
    0.4150   -0.4320    1.0360 C   0  0  0  0  0  0  0  0  0  0  0  0
    0.0170   -0.3680   -0.2690 C   0  0  0  0  0  0  0  0  0  0  0  0
   -1.4200   -0.3000   -0.6010 C   0  0  0  0  0  0  0  0  0  0  0  0
   -1.9040   -0.8430   -1.7580 C   0  0  0  0  0  0  0  0  0  0  0  0
   -3.2440   -0.7710   -2.0510 C   0  0  0  0  0  0  0  0  0  0  0  0
   -4.1390   -0.1560   -1.2010 C   0  0  0  0  0  0  0  0  0  0  0  0
   -3.6310    0.3940   -0.0260 C   0  0  0  0  0  0  0  0  0  0  0  0
   -4.5170    1.0540    0.9100 C   0  0  0  0  0  0  0  0  0  0  0  0
   -5.7340    1.1280    0.6560 O   0  0  0  0  0  0  0  0  0  0  0  0
   -2.2790    0.3170    0.2640 C   0  0  0  0  0  0  0  0  0  0  0  0
    0.9860   -0.3680   -1.2440 C   0  0  0  0  0  0  0  0  0  0  0  0
    2.3220   -0.4320   -0.9100 C   0  0  0  0  0  0  0  0  0  0  0  0
  2  1  1  1
  2  3  2  0
  2  4  2  0
  2  5  1  0
  5  6  2  0
  5 18  1  0
  6  7  1  0
  7  8  2  0
  8  9  1  0
  8 17  1  0
  9 10  2  0
  9 16  1  0
 10 11  1  0
 11 12  2  0
 12 13  1  0
 13 14  1  0
 13 16  2  0
 14 15  2  0
 17 18  2  0
M  END
