
     RDKit          3D

 19 21  0  0  0  0  0  0  0  0999 V2000
   -2.1220   -1.8700    1.3100 C   0  0  0  0  0  0  0  0  0  0  0  0
   -1.5480   -0.7080    0.5420 C   0  0  0  0  0  0  0  0  0  0  0  0
   -0.2590   -0.6240    0.3750 C   0  0  0  0  0  0  0  0  0  0  0  0
    0.4040   -1.7310    0.9960 N   0  0  0  0  0  0  0  0  0  0  0  0
    1.8160   -1.8710    0.9540 C   0  0  0  0  0  0  0  0  0  0  0  0
    2.5380   -0.9410    0.3160 C   0  0  0  0  0  0  0  0  0  0  0  0
    4.0020   -1.1650    0.3210 C   0  0  0  0  0  0  0  0  0  0  0  0
    4.8250   -0.0130   -0.1100 C   0  0  0  0  0  0  0  0  0  0  0  0
    4.1270    0.9320   -0.9810 C   0  0  0  0  0  0  0  0  0  0  0  0
    4.8110    1.6110   -1.7900 O   0  0  0  0  0  0  0  0  0  0  0  0
    2.7260    1.1450   -0.9850 N   0  0  0  0  0  0  0  0  0  0  0  0
    1.8880    0.1930   -0.3230 C   0  0  0  0  0  0  0  0  0  0  0  0
    0.5470    0.3600   -0.3030 C   0  0  0  0  0  0  0  0  0  0  0  0
    0.2050    1.5900   -1.0120 C   0  0  0  0  0  0  0  0  0  0  0  0
   -1.1790    1.9850   -0.9790 N   0  0  0  0  0  0  0  0  0  0  0  0
   -2.0920    0.9080   -1.2030 C   0  0  0  0  0  0  0  0  0  0  0  0
   -2.5890    0.2480    0.0360 C   0  0  2  0  0  0  0  0  0  0  0  0
   -3.0080    1.1440    1.1330 C   0  0  0  0  0  0  0  0  0  0  0  0
   -3.7880   -0.6010   -0.3730 C   0  0  0  0  0  0  0  0  0  0  0  0
  1  2  1  0
  2  3  2  0
  2 17  1  0
  3  4  1  0
  3 13  1  0
  4  5  1  0
  5  6  2  0
  6  7  1  0
  6 12  1  0
  7  8  1  0
  8  9  1  0
  9 10  2  0
  9 11  1  0
 11 12  1  0
 12 13  2  0
 13 14  1  0
 14 15  1  0
 15 16  1  0
 16 17  1  0
 17 18  1  1
 17 19  1  0
M  CHG  1  15   1
M  END
