
     RDKit          3D

 16 17  0  0  0  0  0  0  0  0999 V2000
    0.8890   -2.1000    1.2670 C   0  0  0  0  0  0  0  0  0  0  0  0
    0.0560   -1.8380    0.1210 N   0  0  0  0  0  0  0  0  0  0  0  0
   -0.5810   -0.6400   -0.2050 C   0  0  0  0  0  0  0  0  0  0  0  0
   -1.8210   -0.3980    0.3940 C   0  0  0  0  0  0  0  0  0  0  0  0
   -2.3330   -1.4230    1.3380 C   0  0  0  0  0  0  0  0  0  0  0  0
   -2.5280    0.7580    0.1060 C   0  0  0  0  0  0  0  0  0  0  0  0
   -2.0440    1.7020   -0.7720 C   0  0  0  0  0  0  0  0  0  0  0  0
   -2.8170    2.9460   -1.0740 C   0  0  0  0  0  0  0  0  0  0  0  0
   -0.8300    1.4650   -1.3570 C   0  0  0  0  0  0  0  0  0  0  0  0
   -0.0900    0.2880   -1.0770 C   0  0  0  0  0  0  0  0  0  0  0  0
    1.1200    0.1020   -1.6980 O   0  0  0  0  0  0  0  0  0  0  0  0
    2.3160    0.0010   -1.0540 C   0  0  0  0  0  0  0  0  0  0  0  0
    3.1450   -0.8480   -0.6070 N   0  0  0  0  0  0  0  0  0  0  0  0
    4.2470   -0.6080   -0.0130 C   0  0  0  0  0  0  0  0  0  0  0  0
    4.6450    0.6980    0.1990 C   0  0  0  0  0  0  0  0  0  0  0  0
    3.2270    1.5830   -0.5650 S   0  0  0  0  0  0  0  0  0  0  0  0
  1  2  1  0
  2  3  1  0
  3  4  2  0
  3 10  1  0
  4  5  1  0
  4  6  1  0
  6  7  2  0
  7  8  1  0
  7  9  1  0
  9 10  2  0
 10 11  1  0
 11 12  1  0
 12 13  2  0
 12 16  1  0
 13 14  1  0
 14 15  2  0
 15 16  1  0
M  END
