
     RDKit          3D

 23 24  0  0  0  0  0  0  0  0999 V2000
   -1.3050    2.6260   -0.5350 C   0  0  0  0  0  0  0  0  0  0  0  0
   -2.2230    1.4910   -0.2720 C   0  0  0  0  0  0  0  0  0  0  0  0
   -1.8920    0.2420   -0.0600 C   0  0  0  0  0  0  0  0  0  0  0  0
   -0.5850   -0.4340   -0.0090 C   0  0  0  0  0  0  0  0  0  0  0  0
   -0.5940   -1.6930    0.2260 O   0  0  0  0  0  0  0  0  0  0  0  0
    0.6670    0.1470   -0.1900 N   0  0  0  0  0  0  0  0  0  0  0  0
    1.9280   -0.4820   -0.1460 C   0  0  0  0  0  0  0  0  0  0  0  0
    2.0870   -1.8040    0.0920 C   0  0  0  0  0  0  0  0  0  0  0  0
    3.3770   -2.3740    0.1240 C   0  0  0  0  0  0  0  0  0  0  0  0
    4.4950   -1.6100   -0.0830 C   0  0  0  0  0  0  0  0  0  0  0  0
    4.3120   -0.2550   -0.3250 C   0  0  0  0  0  0  0  0  0  0  0  0
    3.0680    0.3150   -0.3600 C   0  0  0  0  0  0  0  0  0  0  0  0
    2.9570    1.6620   -0.6050 O   0  0  0  0  0  0  0  0  0  0  0  0
    4.0350    2.5300   -0.8350 C   0  0  0  0  0  0  0  0  0  0  0  0
    4.9960    2.1180   -2.2470 Cl  0  0  0  0  0  0  0  0  0  0  0  0
   -3.1530   -0.5230    0.1440 C   0  0  0  0  0  0  0  0  0  0  0  0
   -3.4020   -1.7980    0.0080 C   0  0  0  0  0  0  0  0  0  0  0  0
   -4.7720   -2.2880    0.2840 C   0  0  2  0  0  0  0  0  0  0  0  0
   -5.6280   -1.8570   -0.7150 F   0  0  0  0  0  0  0  0  0  0  0  0
   -5.1440   -1.7530    1.5140 F   0  0  0  0  0  0  0  0  0  0  0  0
   -4.8330   -3.6670    0.2960 F   0  0  0  0  0  0  0  0  0  0  0  0
   -4.1430    0.5490    0.5520 C   0  0  0  0  0  0  0  0  0  0  0  0
   -3.6370    1.6300   -0.2150 O   0  0  0  0  0  0  0  0  0  0  0  0
  1  2  1  0
  2  3  2  0
  2 23  1  0
  3  4  1  0
  3 16  1  0
  4  5  2  0
  4  6  1  0
  6  7  1  0
  7  8  2  0
  7 12  1  0
  8  9  1  0
  9 10  2  0
 10 11  1  0
 11 12  2  0
 12 13  1  0
 13 14  1  0
 14 15  1  0
 16 17  2  3
 16 22  1  0
 17 18  1  0
 18 19  1  6
 18 20  1  0
 18 21  1  0
 22 23  1  0
M  END
