
     RDKit          3D

 23 25  0  0  0  0  0  0  0  0999 V2000
    6.7650   -0.1580    0.7960 C   0  0  0  0  0  0  0  0  0  0  0  0
    5.6970   -1.1240    0.7450 N   0  0  0  0  0  0  0  0  0  0  0  0
    4.3680   -0.7500    0.4310 C   0  0  0  0  0  0  0  0  0  0  0  0
    3.3500   -1.6760    0.3790 C   0  0  0  0  0  0  0  0  0  0  0  0
    2.0550   -1.3080    0.0730 C   0  0  0  0  0  0  0  0  0  0  0  0
    1.7620    0.0210   -0.1900 C   0  0  0  0  0  0  0  0  0  0  0  0
    0.4130    0.4490   -0.5160 C   0  0  0  0  0  0  0  0  0  0  0  0
    0.2350    1.5230   -1.3560 C   0  0  0  0  0  0  0  0  0  0  0  0
   -1.0380    1.9540   -1.6860 C   0  0  0  0  0  0  0  0  0  0  0  0
   -2.1430    1.2870   -1.1570 C   0  0  0  0  0  0  0  0  0  0  0  0
   -3.5200    1.7250   -1.4920 C   0  0  0  0  0  0  0  0  0  0  0  0
   -1.9910    0.2090   -0.3140 C   0  0  0  0  0  0  0  0  0  0  0  0
   -3.1250   -0.4300    0.1940 N   0  0  0  0  0  0  0  0  0  0  0  0
   -3.9150   -1.5390   -0.3060 C   0  0  0  0  0  0  0  0  0  0  0  0
   -5.3390   -1.2420   -0.0250 C   0  0  0  0  0  0  0  0  0  0  0  0
   -6.2980   -1.4840   -0.8250 O   0  0  0  0  0  0  0  0  0  0  0  0
   -5.5080   -0.6540    1.2470 N   0  0  0  0  0  0  0  0  0  0  0  0
   -3.9610   -0.0350    1.6840 S   0  0  2  0  0  0  0  0  0  0  0  0
   -3.9580    1.4180    1.9500 O   0  0  0  0  0  0  0  0  0  0  0  0
   -3.3670   -0.8460    2.8020 O   0  0  0  0  0  0  0  0  0  0  0  0
   -0.7090   -0.1940   -0.0060 C   0  0  0  0  0  0  0  0  0  0  0  0
    2.7960    0.9230   -0.1320 C   0  0  0  0  0  0  0  0  0  0  0  0
    4.0900    0.5730    0.1720 C   0  0  0  0  0  0  0  0  0  0  0  0
  1  2  1  0
  2  3  1  0
  3  4  2  0
  3 23  1  0
  4  5  1  0
  5  6  2  0
  6  7  1  0
  6 22  1  0
  7  8  2  0
  7 21  1  0
  8  9  1  0
  9 10  2  0
 10 11  1  0
 10 12  1  0
 12 13  1  0
 12 21  2  0
 13 14  1  0
 13 18  1  0
 14 15  1  0
 15 16  2  0
 15 17  1  0
 18 17  1  6
 18 19  2  0
 18 20  2  0
 22 23  2  0
M  END
