
     RDKit          3D

 14 14  0  0  0  0  0  0  0  0999 V2000
    5.8090    0.6140   -0.7800 C   0  0  0  0  0  0  0  0  0  0  0  0
    4.5900   -0.1280   -0.4360 C   0  0  0  0  0  0  0  0  0  0  0  0
    3.4110    0.4540   -0.4930 C   0  0  0  0  0  0  0  0  0  0  0  0
    2.2270   -0.3080   -0.1460 C   0  0  0  0  0  0  0  0  0  0  0  0
    2.3710   -1.5040    0.1990 O   0  0  0  0  0  0  0  0  0  0  0  0
    0.9490    0.2030   -0.1720 O   0  0  0  0  0  0  0  0  0  0  0  0
   -0.2040   -0.5800    0.1780 C   0  0  1  0  0  0  0  0  0  0  0  0
   -0.7710   -0.0100    1.4200 C   0  0  0  0  0  0  0  0  0  0  0  0
   -1.9540    0.8770    1.2430 C   0  0  0  0  0  0  0  0  0  0  0  0
   -2.9390    0.1090    0.3800 C   0  0  2  0  0  0  0  0  0  0  0  0
   -4.3200    0.6320    0.4390 C   0  0  0  0  0  0  0  0  0  0  0  0
   -2.9170   -1.2210    0.8430 O   0  0  0  0  0  0  0  0  0  0  0  0
   -2.3280    0.0980   -0.9970 C   0  0  0  0  0  0  0  0  0  0  0  0
   -1.1200   -0.7640   -0.9660 C   0  0  0  0  0  0  0  0  0  0  0  0
  1  2  1  0
  2  3  2  3
  3  4  1  0
  4  5  2  0
  4  6  1  0
  7  6  1  6
  7  8  1  0
  7 14  1  0
  8  9  1  0
  9 10  1  0
 10 11  1  6
 10 12  1  0
 10 13  1  0
 13 14  1  0
M  END
