
     RDKit          3D

 14 14  0  0  0  0  0  0  0  0999 V2000
    4.2910    0.1400    0.0500 C   0  0  0  0  0  0  0  0  0  0  0  0
    2.8900    0.1830    0.6720 C   0  0  0  0  0  0  0  0  0  0  0  0
    1.9310    0.4450   -0.4730 C   0  0  0  0  0  0  0  0  0  0  0  0
    0.5450    0.5040    0.0250 C   0  0  0  0  0  0  0  0  0  0  0  0
   -0.5100   -0.2150   -0.2700 C   0  0  0  0  0  0  0  0  0  0  0  0
   -0.5540   -1.3250   -1.2350 C   0  0  0  0  0  0  0  0  0  0  0  0
   -1.8450   -2.0610   -1.4670 C   0  0  0  0  0  0  0  0  0  0  0  0
    0.4320   -1.7050   -1.8890 O   0  0  0  0  0  0  0  0  0  0  0  0
   -1.6610    0.2590    0.5170 C   0  0  0  0  0  0  0  0  0  0  0  0
   -2.9340   -0.2920    0.4400 O   0  0  0  0  0  0  0  0  0  0  0  0
   -4.1170    0.4840    0.5200 C   0  0  0  0  0  0  0  0  0  0  0  0
   -1.3290    1.2640    1.2960 C   0  0  0  0  0  0  0  0  0  0  0  0
    0.0840    1.4900    1.0420 C   0  0  0  0  0  0  0  0  0  0  0  0
    0.8110    2.3570    1.5730 O   0  0  0  0  0  0  0  0  0  0  0  0
  1  2  1  0
  2  3  1  0
  3  4  1  0
  4  5  2  0
  4 13  1  0
  5  6  1  0
  5  9  1  0
  6  7  1  0
  6  8  2  0
  9 10  1  0
  9 12  2  0
 10 11  1  0
 12 13  1  0
 13 14  2  0
M  END
