
     RDKit          3D

 14 14  0  0  0  0  0  0  0  0999 V2000
   -2.3900    2.0090    0.7990 C   0  0  0  0  0  0  0  0  0  0  0  0
   -2.6270    0.6320    0.2830 C   0  0  0  0  0  0  0  0  0  0  0  0
   -3.8420    0.1430    0.1300 C   0  0  0  0  0  0  0  0  0  0  0  0
   -4.0490   -1.1210   -0.3440 O   0  0  0  0  0  0  0  0  0  0  0  0
   -3.0350   -2.0080   -0.7060 C   0  0  0  0  0  0  0  0  0  0  0  0
   -1.7130   -1.4150   -0.5150 C   0  0  0  0  0  0  0  0  0  0  0  0
   -1.4920   -0.2180   -0.0680 C   0  0  0  0  0  0  0  0  0  0  0  0
   -0.1320    0.3170    0.1000 C   0  0  0  0  0  0  0  0  0  0  0  0
    0.1070    1.4610    0.5260 O   0  0  0  0  0  0  0  0  0  0  0  0
    0.9260   -0.4960   -0.2350 O   0  0  0  0  0  0  0  0  0  0  0  0
    2.2690   -0.1050   -0.1220 C   0  0  2  0  0  0  0  0  0  0  0  0
    2.6470    0.2520    1.3050 C   0  0  0  0  0  0  0  0  0  0  0  0
    2.6240    1.0340   -1.0510 C   0  0  0  0  0  0  0  0  0  0  0  0
    3.1200   -1.2910   -0.5250 C   0  0  0  0  0  0  0  0  0  0  0  0
  1  2  1  0
  2  3  2  0
  2  7  1  0
  3  4  1  0
  4  5  1  0
  5  6  1  0
  6  7  2  0
  7  8  1  0
  8  9  2  0
  8 10  1  0
 10 11  1  0
 11 12  1  1
 11 13  1  0
 11 14  1  0
M  END
