
     RDKit          3D

 23 25  0  0  0  0  0  0  0  0999 V2000
   -0.2550   -0.5380    3.9060 C   0  0  0  0  0  0  0  0  0  0  0  0
   -0.0420   -0.3890    2.5160 O   0  0  0  0  0  0  0  0  0  0  0  0
   -1.1090    0.0660    1.7460 C   0  0  0  0  0  0  0  0  0  0  0  0
   -2.3320    0.3650    2.2890 C   0  0  0  0  0  0  0  0  0  0  0  0
   -3.3890    0.8150    1.5280 C   0  0  0  0  0  0  0  0  0  0  0  0
   -4.6320    1.1170    2.0960 C   0  0  0  0  0  0  0  0  0  0  0  0
   -5.6070    1.5460    1.3090 N   0  0  0  0  0  0  0  0  0  0  0  0
   -5.5120    1.7190    0.0020 N   0  0  0  0  0  0  0  0  0  0  0  0
   -4.3280    1.4400   -0.5980 C   0  0  0  0  0  0  0  0  0  0  0  0
   -4.1780    1.5880   -1.8530 O   0  0  0  0  0  0  0  0  0  0  0  0
   -3.2730    0.9900    0.1670 C   0  0  0  0  0  0  0  0  0  0  0  0
   -2.0290    0.6870   -0.3930 C   0  0  0  0  0  0  0  0  0  0  0  0
   -0.9770    0.2390    0.3620 C   0  0  0  0  0  0  0  0  0  0  0  0
    0.3230   -0.0800   -0.2140 C   0  0  0  0  0  0  0  0  0  0  0  0
    0.5110    0.0620   -1.5030 C   0  0  0  0  0  0  0  0  0  0  0  0
    1.8030   -0.2400   -2.1710 C   0  0  0  0  0  0  0  0  0  0  0  0
    1.9060   -0.0780   -3.4240 O   0  0  0  0  0  0  0  0  0  0  0  0
    2.9070   -0.6970   -1.4570 N   0  0  0  0  0  0  0  0  0  0  0  0
    4.1970   -1.0040   -2.1260 C   0  0  0  0  0  0  0  0  0  0  0  0
    5.3190   -1.1700   -1.3950 C   0  0  0  0  0  0  0  0  0  0  0  0
    6.4950   -1.4650   -2.0210 C   0  0  0  0  0  0  0  0  0  0  0  0
    6.0620   -1.5230   -3.7160 S   0  0  0  0  0  0  0  0  0  0  0  0
    4.3040   -1.1380   -3.4210 C   0  0  0  0  0  0  0  0  0  0  0  0
  1  2  1  0
  2  3  1  0
  3  4  2  0
  3 13  1  0
  4  5  1  0
  5  6  1  0
  5 11  2  0
  6  7  2  0
  7  8  1  0
  8  9  1  0
  9 10  2  0
  9 11  1  0
 11 12  1  0
 12 13  2  0
 13 14  1  0
 14 15  2  3
 15 16  1  0
 16 17  2  0
 16 18  1  0
 18 19  1  0
 19 20  1  0
 19 23  2  0
 20 21  2  0
 21 22  1  0
 22 23  1  0
M  END
