
     RDKit          3D

 22 24  0  0  0  0  0  0  0  0999 V2000
   -5.1990   -0.4110   -1.2360 N   0  0  0  0  0  0  0  0  0  0  0  0
   -4.0930    0.4860   -0.8770 C   0  0  1  0  0  0  0  0  0  0  0  0
   -4.7180    1.6140   -0.0900 C   0  0  0  0  0  0  0  0  0  0  0  0
   -4.6870    1.3930    1.3340 N   0  0  0  0  0  0  0  0  0  0  0  0
   -3.4010    1.1230    1.9060 C   0  0  0  0  0  0  0  0  0  0  0  0
   -3.0930    1.3490    3.0830 O   0  0  0  0  0  0  0  0  0  0  0  0
   -2.4260    0.5330    0.9630 C   0  0  0  0  0  0  0  0  0  0  0  0
   -1.1000    0.5410    0.9210 C   0  0  0  0  0  0  0  0  0  0  0  0
   -0.6480   -0.1870   -0.2130 N   0  0  0  0  0  0  0  0  0  0  0  0
    0.7060   -0.4900   -0.4860 C   0  0  0  0  0  0  0  0  0  0  0  0
    1.0350   -1.1790   -1.6330 C   0  0  0  0  0  0  0  0  0  0  0  0
    2.3700   -1.4770   -1.9020 C   0  0  0  0  0  0  0  0  0  0  0  0
    3.3470   -1.0800   -1.0160 C   0  0  0  0  0  0  0  0  0  0  0  0
    3.0440   -0.3890    0.1380 C   0  0  0  0  0  0  0  0  0  0  0  0
    4.0500    0.0080    1.0270 O   0  0  0  0  0  0  0  0  0  0  0  0
    5.4110   -0.2860    0.7730 C   0  0  0  0  0  0  0  0  0  0  0  0
    6.2810    0.2460    1.8730 C   0  0  0  0  0  0  0  0  0  0  0  0
    6.1370    1.6250    1.9720 O   0  0  0  0  0  0  0  0  0  0  0  0
    1.7200   -0.1030    0.3860 C   0  0  0  0  0  0  0  0  0  0  0  0
   -1.7950   -0.5550   -1.0170 C   0  0  1  0  0  0  0  0  0  0  0  0
   -1.7690   -1.9410   -1.2470 O   0  0  0  0  0  0  0  0  0  0  0  0
   -3.0000   -0.2270   -0.1700 C   0  0  2  0  0  0  0  0  0  0  0  0
  2  1  1  1
  2  3  1  0
  2 22  1  0
  3  4  1  0
  4  5  1  0
  5  6  2  0
  5  7  1  0
  7  8  2  0
 22  7  1  1
  8  9  1  0
  9 10  1  0
  9 20  1  0
 10 11  2  0
 10 19  1  0
 11 12  1  0
 12 13  2  0
 13 14  1  0
 14 15  1  0
 14 19  2  0
 15 16  1  0
 16 17  1  0
 17 18  1  0
 20 21  1  1
 20 22  1  0
M  END
