
     RDKit          3D

 23 25  0  0  0  0  0  0  0  0999 V2000
   -1.5900    2.9360   -1.4640 C   0  0  0  0  0  0  0  0  0  0  0  0
   -2.4500    1.8140   -0.9880 N   0  0  0  0  0  0  0  0  0  0  0  0
   -1.8120    0.6040   -0.6520 C   0  0  0  0  0  0  0  0  0  0  0  0
   -0.4870    0.5710   -0.7740 N   0  0  0  0  0  0  0  0  0  0  0  0
    0.3440   -0.4310   -0.5160 C   0  0  0  0  0  0  0  0  0  0  0  0
    1.7960   -0.3330   -0.6950 C   0  0  0  0  0  0  0  0  0  0  0  0
    2.4030    0.1610    0.6080 C   0  0  0  0  0  0  0  0  0  0  0  0
    3.8650    0.2680    0.4560 C   0  0  0  0  0  0  0  0  0  0  0  0
    4.4270    1.4350    0.0170 C   0  0  0  0  0  0  0  0  0  0  0  0
    5.8040    1.5630   -0.1350 C   0  0  0  0  0  0  0  0  0  0  0  0
    6.5680    0.4700    0.1730 C   0  0  0  0  0  0  0  0  0  0  0  0
    6.0610   -0.7260    0.6170 C   0  0  0  0  0  0  0  0  0  0  0  0
    4.6750   -0.8080    0.7550 C   0  0  0  0  0  0  0  0  0  0  0  0
   -0.2520   -1.5670   -0.0700 N   0  0  0  0  0  0  0  0  0  0  0  0
   -1.5990   -1.5990    0.0760 C   0  0  0  0  0  0  0  0  0  0  0  0
   -2.6370   -2.9160    0.6290 S   0  0  0  0  0  0  0  0  0  0  0  0
   -4.2070   -1.9920    0.4720 C   0  0  0  0  0  0  0  0  0  0  0  0
   -5.4340   -2.6440    0.8190 C   0  0  0  0  0  0  0  0  0  0  0  0
   -6.5190   -2.0770    0.7380 O   0  0  0  0  0  0  0  0  0  0  0  0
   -5.4720   -3.9670    1.2720 O   0  0  0  0  0  0  0  0  0  0  0  0
   -3.7760   -0.7740    0.0130 C   0  0  0  0  0  0  0  0  0  0  0  0
   -4.8750    0.2670   -0.2430 C   0  0  0  0  0  0  0  0  0  0  0  0
   -2.4550   -0.5610   -0.1920 C   0  0  0  0  0  0  0  0  0  0  0  0
  1  2  1  0
  2  3  1  0
  3  4  2  0
  3 23  1  0
  4  5  1  0
  5  6  1  0
  5 14  2  0
  6  7  1  0
  7  8  1  0
  8  9  2  0
  8 13  1  0
  9 10  1  0
 10 11  2  0
 11 12  1  0
 12 13  2  0
 14 15  1  0
 15 16  1  0
 15 23  2  0
 16 17  1  0
 17 18  1  0
 17 21  2  0
 18 19  2  0
 18 20  1  0
 21 22  1  0
 21 23  1  0
M  END
