
     RDKit          3D

 23 24  0  0  0  0  0  0  0  0999 V2000
   -1.9160    1.2350    2.9700 O   0  0  0  0  0  0  0  0  0  0  0  0
   -1.1460    1.3730    1.9800 C   0  0  0  0  0  0  0  0  0  0  0  0
    0.2050    2.0130    2.2100 C   0  0  0  0  0  0  0  0  0  0  0  0
    1.0310    2.0680    1.0630 N   0  0  0  0  0  0  0  0  0  0  0  0
    1.4930    0.8840    0.4340 C   0  0  0  0  0  0  0  0  0  0  0  0
    1.1670   -0.2220    0.9340 O   0  0  0  0  0  0  0  0  0  0  0  0
    2.3120    0.9220   -0.7430 N   0  0  0  0  0  0  0  0  0  0  0  0
    2.7790   -0.2780   -1.3770 C   0  0  0  0  0  0  0  0  0  0  0  0
    3.5840   -1.0490   -0.5080 C   0  0  0  0  0  0  0  0  0  0  0  0
    4.1180   -0.9010    0.7670 C   0  0  0  0  0  0  0  0  0  0  0  0
    4.8560   -1.8390    1.3250 C   0  0  0  0  0  0  0  0  0  0  0  0
    5.1030   -3.0160    0.6050 C   0  0  0  0  0  0  0  0  0  0  0  0
    4.2170   -2.7050   -0.9220 S   0  0  0  0  0  0  0  0  0  0  0  0
   -1.5820    0.9320    0.7250 N   0  0  0  0  0  0  0  0  0  0  0  0
   -2.8110    0.3140    0.3830 C   0  0  0  0  0  0  0  0  0  0  0  0
   -3.7750    0.0650    1.3200 C   0  0  0  0  0  0  0  0  0  0  0  0
   -4.9550   -0.5320    0.9670 N   0  0  0  0  0  0  0  0  0  0  0  0
   -5.1170   -0.8560   -0.3160 C   0  0  0  0  0  0  0  0  0  0  0  0
   -4.1950   -0.6270   -1.2590 N   0  0  0  0  0  0  0  0  0  0  0  0
   -3.0500   -0.0540   -0.9510 C   0  0  0  0  0  0  0  0  0  0  0  0
   -2.0400    0.2220   -1.8560 O   0  0  0  0  0  0  0  0  0  0  0  0
   -2.0800   -0.0620   -3.2170 C   0  0  0  0  0  0  0  0  0  0  0  0
   -3.1810    0.6400   -3.7590 O   0  0  0  0  0  0  0  0  0  0  0  0
  1  2  2  0
  2  3  1  0
  2 14  1  0
  3  4  1  0
  4  5  1  0
  5  6  2  0
  5  7  1  0
  7  8  1  0
  8  9  1  0
  9 10  2  0
  9 13  1  0
 10 11  1  0
 11 12  2  0
 12 13  1  0
 14 15  1  0
 15 16  2  0
 15 20  1  0
 16 17  1  0
 17 18  2  0
 18 19  1  0
 19 20  2  0
 20 21  1  0
 21 22  1  0
 22 23  1  0
M  CHG  2  17   1  23  -1
M  END
