
     RDKit          3D

 22 23  0  0  0  0  0  0  0  0999 V2000
    5.1650    0.8280    0.1840 C   0  0  0  0  0  0  0  0  0  0  0  0
    4.1080    1.0480   -0.8510 C   0  0  2  0  0  0  0  0  0  0  0  0
    3.4140    2.2040   -0.5600 O   0  0  0  0  0  0  0  0  0  0  0  0
    3.1480   -0.1590   -0.7720 C   0  0  1  0  0  0  0  0  0  0  0  0
    4.0010   -1.4060   -1.0350 C   0  0  0  0  0  0  0  0  0  0  0  0
    2.6760   -0.1710    0.5050 O   0  0  0  0  0  0  0  0  0  0  0  0
    2.1460   -0.1040   -1.8140 C   0  0  0  0  0  0  0  0  0  0  0  0
    2.6260   -0.0930   -3.0330 O   0  0  0  0  0  0  0  0  0  0  0  0
    0.7380   -0.0610   -1.7130 C   0  0  0  0  0  0  0  0  0  0  0  0
    0.0450   -0.0620   -0.6020 C   0  0  0  0  0  0  0  0  0  0  0  0
   -1.3960   -0.0140   -0.6790 C   0  0  0  0  0  0  0  0  0  0  0  0
   -2.2170   -0.0100    0.3320 C   0  0  0  0  0  0  0  0  0  0  0  0
   -1.8440   -0.0520    1.7210 C   0  0  0  0  0  0  0  0  0  0  0  0
   -0.6440   -0.0990    2.0820 O   0  0  0  0  0  0  0  0  0  0  0  0
   -2.8610   -0.0420    2.7320 N   0  0  0  0  0  0  0  0  0  0  0  0
   -4.2320    0.0090    2.4220 C   0  0  0  0  0  0  0  0  0  0  0  0
   -5.1530    0.0200    3.3150 N   0  0  0  0  0  0  0  0  0  0  0  0
   -4.6210    0.0520    1.0270 C   0  0  0  0  0  0  0  0  0  0  0  0
   -5.8760    0.1060    0.4290 C   0  0  0  0  0  0  0  0  0  0  0  0
   -5.6520    0.1270   -0.8770 N   0  0  0  0  0  0  0  0  0  0  0  0
   -4.3480    0.0910   -1.1450 C   0  0  0  0  0  0  0  0  0  0  0  0
   -3.6720    0.0430    0.0590 C   0  0  0  0  0  0  0  0  0  0  0  0
  2  1  1  1
  2  3  1  0
  2  4  1  0
  4  5  1  6
  4  6  1  0
  4  7  1  0
  7  8  2  0
  7  9  1  0
  9 10  2  3
 10 11  1  0
 11 12  2  3
 12 13  1  0
 12 22  1  0
 13 14  2  0
 13 15  1  0
 15 16  1  0
 16 17  2  0
 16 18  1  0
 18 19  2  0
 18 22  1  0
 19 20  1  0
 20 21  1  0
 21 22  2  0
M  END
