
     RDKit          3D

 23 23  0  0  0  0  0  0  0  0999 V2000
    6.6210   -0.1240   -1.1990 O   0  0  0  0  0  0  0  0  0  0  0  0
    6.0280    0.7450   -0.5130 C   0  0  0  0  0  0  0  0  0  0  0  0
    6.5100    2.0340   -0.3540 O   0  0  0  0  0  0  0  0  0  0  0  0
    4.7620    0.3690    0.1510 C   0  0  0  0  0  0  0  0  0  0  0  0
    4.3980   -1.0710   -0.1360 C   0  0  1  0  0  0  0  0  0  0  0  0
    5.4290   -1.8760    0.3440 O   0  0  0  0  0  0  0  0  0  0  0  0
    3.0970   -1.4520    0.5390 C   0  0  0  0  0  0  0  0  0  0  0  0
    2.0450   -0.6880    0.1000 O   0  0  0  0  0  0  0  0  0  0  0  0
    0.8870   -1.0810    0.7500 C   0  0  2  0  0  0  0  0  0  0  0  0
   -0.0410   -1.5570   -0.1740 O   0  0  0  0  0  0  0  0  0  0  0  0
   -1.3400   -1.3780    0.3330 C   0  0  2  0  0  0  0  0  0  0  0  0
   -2.2370   -2.2740   -0.1990 O   0  0  0  0  0  0  0  0  0  0  0  0
   -1.6950    0.0710    0.0830 C   0  0  1  0  0  0  0  0  0  0  0  0
   -2.9240    0.3690    0.6130 O   0  0  0  0  0  0  0  0  0  0  0  0
   -3.8550    0.8570   -0.2650 C   0  0  2  0  0  0  0  0  0  0  0  0
   -4.2780    2.2780    0.0560 C   0  0  0  0  0  0  0  0  0  0  0  0
   -5.2210    2.6490   -0.9070 O   0  0  0  0  0  0  0  0  0  0  0  0
   -4.9980    0.0970   -0.3090 O   0  0  0  0  0  0  0  0  0  0  0  0
   -5.3330   -0.3870   -1.5490 C   0  0  0  0  0  0  0  0  0  0  0  0
   -4.3980   -1.2040   -2.1390 O   0  0  0  0  0  0  0  0  0  0  0  0
   -0.6630    0.8970    0.8320 C   0  0  0  0  0  0  0  0  0  0  0  0
    0.3120    0.0370    1.5950 C   0  0  2  0  0  0  0  0  0  0  0  0
    1.3750    0.8870    1.9740 O   0  0  0  0  0  0  0  0  0  0  0  0
  1  2  2  0
  2  3  1  0
  2  4  1  0
  4  5  1  0
  5  6  1  1
  5  7  1  0
  7  8  1  0
  9  8  1  6
  9 10  1  0
  9 22  1  0
 10 11  1  0
 11 12  1  6
 11 13  1  0
 13 14  1  1
 13 21  1  0
 14 15  1  0
 15 16  1  1
 15 18  1  0
 16 17  1  0
 18 19  1  0
 19 20  1  0
 21 22  1  0
 22 23  1  6
M  END
