
     RDKit          3D

 22 22  0  0  0  0  0  0  0  0999 V2000
   -2.1730    4.9660    0.2570 C   0  0  0  0  0  0  0  0  0  0  0  0
   -1.3320    3.9280   -0.1680 O   0  0  0  0  0  0  0  0  0  0  0  0
   -1.8300    2.6460   -0.5180 C   0  0  0  0  0  0  0  0  0  0  0  0
   -3.0750    2.5420   -0.4070 O   0  0  0  0  0  0  0  0  0  0  0  0
   -0.9090    1.6040   -0.9600 C   0  0  0  0  0  0  0  0  0  0  0  0
   -0.6830    0.4550   -0.0110 C   0  0  2  0  0  0  0  0  0  0  0  0
    0.2400   -0.4130   -0.6470 O   0  0  0  0  0  0  0  0  0  0  0  0
    1.4770   -0.3560    0.0550 C   0  0  0  0  0  0  0  0  0  0  0  0
    2.4340   -1.2610   -0.6330 C   0  0  1  0  0  0  0  0  0  0  0  0
    2.6260   -0.8570   -1.9730 O   0  0  0  0  0  0  0  0  0  0  0  0
    3.7680   -1.3480    0.0260 C   0  0  0  0  0  0  0  0  0  0  0  0
    4.5210   -0.0710    0.1240 C   0  0  2  0  0  0  0  0  0  0  0  0
    3.9300    0.9350    0.8360 O   0  0  0  0  0  0  0  0  0  0  0  0
    4.7870    0.3780   -1.1840 O   0  0  0  0  0  0  0  0  0  0  0  0
   -1.9140   -0.2940    0.3750 C   0  0  2  0  0  0  0  0  0  0  0  0
   -2.8110    0.4970    1.0820 O   0  0  0  0  0  0  0  0  0  0  0  0
   -1.6380   -1.5330    1.1830 C   0  0  0  0  0  0  0  0  0  0  0  0
   -2.8090   -2.3960    0.7660 C   0  0  2  0  0  0  0  0  0  0  0  0
   -2.5310   -3.7570    0.8890 O   0  0  0  0  0  0  0  0  0  0  0  0
   -2.9990   -1.9930   -0.6710 C   0  0  2  0  0  0  0  0  0  0  0  0
   -2.3070   -2.9040   -1.4720 O   0  0  0  0  0  0  0  0  0  0  0  0
   -2.5700   -0.7190   -0.7770 O   0  0  0  0  0  0  0  0  0  0  0  0
  1  2  1  0
  2  3  1  0
  3  4  2  0
  3  5  1  0
  6  5  1  6
  6  7  1  0
  6 15  1  0
  7  8  1  0
  8  9  1  0
  9 10  1  6
  9 11  1  0
 11 12  1  0
 12 13  1  6
 12 14  1  0
 15 16  1  1
 15 17  1  0
 15 22  1  0
 17 18  1  0
 18 19  1  6
 18 20  1  0
 20 21  1  6
 20 22  1  0
M  END
