
     RDKit          3D

 22 21  0  0  0  0  0  0  0  0999 V2000
   -5.5640   -0.2530   -1.0750 C   0  0  0  0  0  0  0  0  0  0  0  0
   -4.4110   -0.4170   -0.3260 O   0  0  0  0  0  0  0  0  0  0  0  0
   -3.6310    0.7050   -0.4390 C   0  0  1  0  0  0  0  0  0  0  0  0
   -3.5550    1.4030    0.7830 O   0  0  0  0  0  0  0  0  0  0  0  0
   -2.2510    0.4360   -0.9170 C   0  0  2  0  0  0  0  0  0  0  0  0
   -1.5890    1.6800   -0.9760 O   0  0  0  0  0  0  0  0  0  0  0  0
   -2.2780    0.0130   -2.4010 C   0  0  0  0  0  0  0  0  0  0  0  0
   -2.8690   -1.1880   -2.5760 O   0  0  0  0  0  0  0  0  0  0  0  0
   -1.4770   -0.6100   -0.2080 C   0  0  0  0  0  0  0  0  0  0  0  0
   -1.0490   -0.3740    1.0580 O   0  0  0  0  0  0  0  0  0  0  0  0
   -0.1280    0.6010    1.2610 C   0  0  1  0  0  0  0  0  0  0  0  0
   -0.7970    1.6570    1.9600 O   0  0  0  0  0  0  0  0  0  0  0  0
    1.0560    0.2210    2.1060 C   0  0  2  0  0  0  0  0  0  0  0  0
    1.8910    1.3220    2.2390 O   0  0  0  0  0  0  0  0  0  0  0  0
    1.7060   -1.0640    1.8330 C   0  0  0  0  0  0  0  0  0  0  0  0
    2.3000   -1.3330    0.4850 C   0  0  2  0  0  0  0  0  0  0  0  0
    2.8170   -2.6880    0.6560 O   0  0  0  0  0  0  0  0  0  0  0  0
    3.4770   -0.5000    0.0980 C   0  0  2  0  0  0  0  0  0  0  0  0
    4.4530   -0.3690    1.0560 O   0  0  0  0  0  0  0  0  0  0  0  0
    3.1390    0.6940   -0.7000 C   0  0  0  0  0  0  0  0  0  0  0  0
    4.3790    1.5140   -1.0720 C   0  0  0  0  0  0  0  0  0  0  0  0
    4.9820    1.9140    0.1190 O   0  0  0  0  0  0  0  0  0  0  0  0
  1  2  1  0
  2  3  1  0
  3  4  1  1
  3  5  1  0
  5  6  1  6
  5  7  1  0
  5  9  1  0
  7  8  1  0
  9 10  1  0
 10 11  1  0
 11 12  1  1
 11 13  1  0
 13 14  1  6
 13 15  1  0
 15 16  1  0
 16 17  1  1
 16 18  1  0
 18 19  1  1
 18 20  1  0
 20 21  1  0
 21 22  1  0
M  END
