
     RDKit          3D

 22 22  0  0  0  0  0  0  0  0999 V2000
   -1.1400    2.7940   -0.4270 O   0  0  0  0  0  0  0  0  0  0  0  0
   -1.7700    2.2430   -1.3550 C   0  0  0  0  0  0  0  0  0  0  0  0
   -1.7460    2.9170   -2.5880 O   0  0  0  0  0  0  0  0  0  0  0  0
   -2.5170    0.9970   -1.3050 C   0  0  0  0  0  0  0  0  0  0  0  0
   -2.5400    0.2760   -0.0090 C   0  0  1  0  0  0  0  0  0  0  0  0
   -3.1620    1.1500    1.0870 C   0  0  0  0  0  0  0  0  0  0  0  0
   -3.2050    0.5170    2.3120 O   0  0  0  0  0  0  0  0  0  0  0  0
   -3.2580   -1.0520   -0.0990 C   0  0  2  0  0  0  0  0  0  0  0  0
   -4.5080   -1.0950    0.4760 O   0  0  0  0  0  0  0  0  0  0  0  0
   -2.2130   -1.6350    0.8190 C   0  0  0  0  0  0  0  0  0  0  0  0
   -1.3410   -0.4120    0.4980 C   0  0  2  0  0  0  0  0  0  0  0  0
   -0.7870    0.1540    1.6510 O   0  0  0  0  0  0  0  0  0  0  0  0
   -0.2620   -0.8270   -0.4640 C   0  0  2  0  0  0  0  0  0  0  0  0
   -0.8470   -1.4090   -1.6140 O   0  0  0  0  0  0  0  0  0  0  0  0
    0.4480   -1.8580    0.1320 O   0  0  0  0  0  0  0  0  0  0  0  0
    1.8070   -1.7290    0.1500 C   0  0  0  0  0  0  0  0  0  0  0  0
    2.2840   -0.5230    0.8990 C   0  0  0  0  0  0  0  0  0  0  0  0
    3.6630   -0.3870    0.9250 O   0  0  0  0  0  0  0  0  0  0  0  0
    4.1500   -0.2320   -0.3510 C   0  0  2  0  0  0  0  0  0  0  0  0
    5.0450   -1.2630   -0.6340 O   0  0  0  0  0  0  0  0  0  0  0  0
    4.8530    1.1190   -0.3850 C   0  0  0  0  0  0  0  0  0  0  0  0
    5.3630    1.3110   -1.6760 O   0  0  0  0  0  0  0  0  0  0  0  0
  1  2  2  0
  2  3  1  0
  2  4  1  0
  5  4  1  6
  5  6  1  0
  5  8  1  0
  5 11  1  0
  6  7  1  0
  8  9  1  1
  8 10  1  0
 10 11  1  0
 11 12  1  1
 11 13  1  0
 13 14  1  6
 13 15  1  0
 15 16  1  0
 16 17  1  0
 17 18  1  0
 18 19  1  0
 19 20  1  1
 19 21  1  0
 21 22  1  0
M  END
