
     RDKit          3D

 22 22  0  0  0  0  0  0  0  0999 V2000
   -4.5860    0.7880    0.8470 O   0  0  0  0  0  0  0  0  0  0  0  0
   -3.5580    0.4550    0.1660 C   0  0  0  0  0  0  0  0  0  0  0  0
   -3.5340   -0.7160   -0.5800 O   0  0  0  0  0  0  0  0  0  0  0  0
   -2.2700   -1.2440   -0.9520 C   0  0  2  0  0  0  0  0  0  0  0  0
   -2.2420   -2.7180   -0.6500 C   0  0  0  0  0  0  0  0  0  0  0  0
   -2.4500   -2.9050    0.7140 O   0  0  0  0  0  0  0  0  0  0  0  0
   -1.2520   -0.4650   -0.1830 C   0  0  1  0  0  0  0  0  0  0  0  0
    0.1720   -0.8370   -0.5170 C   0  0  0  0  0  0  0  0  0  0  0  0
    0.9790    0.0210    0.2160 O   0  0  0  0  0  0  0  0  0  0  0  0
    2.3340   -0.1880    0.0240 C   0  0  2  0  0  0  0  0  0  0  0  0
    2.9280   -0.5020    1.3850 C   0  0  1  0  0  0  0  0  0  0  0  0
    2.6760    0.6130    2.1960 O   0  0  0  0  0  0  0  0  0  0  0  0
    2.2260   -1.6800    2.0290 C   0  0  0  0  0  0  0  0  0  0  0  0
    2.4440   -2.8340    1.2560 O   0  0  0  0  0  0  0  0  0  0  0  0
    2.9340    1.1430   -0.4050 C   0  0  2  0  0  0  0  0  0  0  0  0
    2.7470    2.1200    0.5480 O   0  0  0  0  0  0  0  0  0  0  0  0
    2.3180    1.6050   -1.7190 C   0  0  0  0  0  0  0  0  0  0  0  0
    2.4860    0.6460   -2.7170 O   0  0  0  0  0  0  0  0  0  0  0  0
   -1.4070    0.8850   -0.5680 O   0  0  0  0  0  0  0  0  0  0  0  0
   -2.4130    1.4000    0.2340 C   0  0  1  0  0  0  0  0  0  0  0  0
   -2.7980    2.7870   -0.2560 C   0  0  0  0  0  0  0  0  0  0  0  0
   -3.8000    3.2480    0.5780 O   0  0  0  0  0  0  0  0  0  0  0  0
  1  2  2  0
  2  3  1  0
  2 20  1  0
  3  4  1  0
  4  5  1  1
  4  7  1  0
  5  6  1  0
  7  8  1  6
  7 19  1  0
  8  9  1  0
 10  9  1  1
 10 11  1  0
 10 15  1  0
 11 12  1  1
 11 13  1  0
 13 14  1  0
 15 16  1  1
 15 17  1  0
 17 18  1  0
 19 20  1  0
 20 21  1  6
 21 22  1  0
M  END
