
     RDKit          3D

 22 23  0  0  0  0  0  0  0  0999 V2000
    2.7200    2.3220   -0.2740 O   0  0  0  0  0  0  0  0  0  0  0  0
    3.8400    2.0480   -0.7460 C   0  0  0  0  0  0  0  0  0  0  0  0
    4.8370    3.0050   -0.6180 O   0  0  0  0  0  0  0  0  0  0  0  0
    4.1620    0.7930   -1.4170 C   0  0  0  0  0  0  0  0  0  0  0  0
    3.1710   -0.1580   -1.4660 O   0  0  0  0  0  0  0  0  0  0  0  0
    2.8210   -0.6040   -0.2200 C   0  0  0  0  0  0  0  0  0  0  0  0
    1.7320   -1.6560   -0.2600 C   0  0  2  0  0  0  0  0  0  0  0  0
    2.1270   -2.7730   -0.9900 O   0  0  0  0  0  0  0  0  0  0  0  0
    0.4110   -1.0920   -0.7220 C   0  0  0  0  0  0  0  0  0  0  0  0
   -0.1000   -0.3950    0.4960 C   0  0  1  0  0  0  0  0  0  0  0  0
    0.0080    0.9910    0.4120 O   0  0  0  0  0  0  0  0  0  0  0  0
   -1.5200   -0.7220    0.8320 C   0  0  1  0  0  0  0  0  0  0  0  0
   -1.8020   -0.1050    2.0680 O   0  0  0  0  0  0  0  0  0  0  0  0
   -2.5210   -0.2140   -0.1590 C   0  0  1  0  0  0  0  0  0  0  0  0
   -3.8990   -0.6480    0.3600 C   0  0  0  0  0  0  0  0  0  0  0  0
   -4.8950   -0.3040   -0.5470 O   0  0  0  0  0  0  0  0  0  0  0  0
   -4.5710    0.9310   -1.1270 C   0  0  0  0  0  0  0  0  0  0  0  0
   -3.8960    1.7460   -0.2410 O   0  0  0  0  0  0  0  0  0  0  0  0
   -2.5530    1.3110   -0.1480 C   0  0  0  0  0  0  0  0  0  0  0  0
    0.7850   -0.9750    1.5790 C   0  0  1  0  0  0  0  0  0  0  0  0
   -0.0010   -1.4960    2.6350 O   0  0  0  0  0  0  0  0  0  0  0  0
    1.4580   -2.0440    1.0430 O   0  0  0  0  0  0  0  0  0  0  0  0
  1  2  2  0
  2  3  1  0
  2  4  1  0
  4  5  1  0
  5  6  1  0
  6  7  1  0
  7  8  1  6
  7  9  1  0
  7 22  1  0
  9 10  1  0
 10 11  1  6
 10 12  1  0
 10 20  1  0
 12 13  1  1
 12 14  1  0
 14 15  1  1
 14 19  1  0
 15 16  1  0
 16 17  1  0
 17 18  1  0
 18 19  1  0
 20 21  1  1
 20 22  1  0
M  END
