
     RDKit          3D

 19 20  0  0  0  0  0  0  0  0999 V2000
    4.6190    1.0430    1.6150 O   0  0  0  0  0  0  0  0  0  0  0  0
    4.3020    0.2170    0.7210 C   0  0  0  0  0  0  0  0  0  0  0  0
    5.3530   -0.6300    0.0750 C   0  0  0  0  0  0  0  0  0  0  0  0
    6.5890   -0.3180    0.6310 O   0  0  0  0  0  0  0  0  0  0  0  0
    2.9410    0.1310    0.3680 N   0  0  0  0  0  0  0  0  0  0  0  0
    1.8790    0.9000    0.9330 C   0  0  1  0  0  0  0  0  0  0  0  0
    1.1210    1.4710   -0.1110 O   0  0  0  0  0  0  0  0  0  0  0  0
    0.3050    0.6300   -0.7790 C   0  0  0  0  0  0  0  0  0  0  0  0
   -0.2060   -0.3790   -0.0980 C   0  0  0  0  0  0  0  0  0  0  0  0
   -1.1060   -1.4240   -0.5650 C   0  0  0  0  0  0  0  0  0  0  0  0
   -2.4840   -1.5050   -0.0560 C   0  0  0  0  0  0  0  0  0  0  0  0
   -3.3660   -0.3850   -0.3830 C   0  0  1  0  0  0  0  0  0  0  0  0
   -5.0910   -0.7550    0.2930 S   0  0  0  0  0  0  0  0  0  0  0  0
   -5.5760    0.9650    0.3660 C   0  0  0  0  0  0  0  0  0  0  0  0
   -7.0790    1.5060    0.5660 S   0  0  0  0  0  0  0  0  0  0  0  0
   -4.3870    1.6930    0.2070 N   0  0  0  0  0  0  0  0  0  0  0  0
   -3.2060    0.8740    0.3650 C   0  0  0  0  0  0  0  0  0  0  0  0
   -2.2130    1.2080    1.0410 O   0  0  0  0  0  0  0  0  0  0  0  0
    0.5610   -0.2450    1.5420 S   0  0  0  0  0  0  0  0  0  0  0  0
  1  2  2  0
  2  3  1  0
  2  5  1  0
  3  4  1  0
  6  5  1  6
  6  7  1  0
  6 19  1  0
  7  8  1  0
  8  9  2  0
  9 10  1  0
  9 19  1  0
 10 11  1  0
 12 11  1  1
 12 13  1  0
 12 17  1  0
 13 14  1  0
 14 15  2  0
 14 16  1  0
 16 17  1  0
 17 18  2  0
M  END
