
     RDKit          3D

 19 19  0  0  0  0  0  0  0  0999 V2000
   -1.2980    0.0480    3.0950 C   0  0  0  0  0  0  0  0  0  0  0  0
   -1.3050    0.9470    1.7750 S   0  0  1  0  0  0  0  0  0  0  0  0
   -2.5760    1.6990    1.9000 O   0  0  0  0  0  0  0  0  0  0  0  0
    0.0950    1.9410    1.6570 C   0  0  0  0  0  0  0  0  0  0  0  0
    0.9120    1.4330    0.7110 C   0  0  0  0  0  0  0  0  0  0  0  0
    2.1730    2.1800    0.5020 C   0  0  0  0  0  0  0  0  0  0  0  0
    3.1990    1.9730   -0.4050 N   0  0  0  0  0  0  0  0  0  0  0  0
    2.4270    3.2150    1.2630 O   0  0  0  0  0  0  0  0  0  0  0  0
    0.3590    0.3550   -0.0710 C   0  0  0  0  0  0  0  0  0  0  0  0
    0.9650   -0.4650   -0.9160 C   0  0  0  0  0  0  0  0  0  0  0  0
    2.2870   -0.6760   -1.3990 C   0  0  0  0  0  0  0  0  0  0  0  0
    2.5460   -1.6320   -2.3260 C   0  0  0  0  0  0  0  0  0  0  0  0
    4.1880   -1.8610   -2.8950 S   0  0  0  0  0  0  0  0  0  0  0  0
   -1.0670    0.0560    0.3340 C   0  0  0  0  0  0  0  0  0  0  0  0
   -1.9060   -0.7120   -0.3310 C   0  0  0  0  0  0  0  0  0  0  0  0
   -3.5460   -0.9790    0.1870 S   0  0  1  0  0  0  0  0  0  0  0  0
   -4.4820   -1.6990   -1.1070 N   0  0  0  0  0  0  0  0  0  0  0  0
   -3.5230   -2.0060    1.2870 O   0  0  0  0  0  0  0  0  0  0  0  0
   -4.2740    0.2370    0.5970 O   0  0  0  0  0  0  0  0  0  0  0  0
  1  2  2  0
  2  3  2  0
  2  4  1  1
  2 14  1  0
  4  5  2  0
  5  6  1  0
  5  9  1  0
  6  7  1  0
  6  8  2  0
  9 10  2  3
  9 14  1  0
 10 11  1  0
 11 12  2  3
 12 13  1  0
 14 15  2  3
 15 16  1  0
 16 17  1  6
 16 18  2  0
 16 19  2  0
M  END
