
     RDKit          3D

 19 19  0  0  0  0  0  0  0  0999 V2000
   -2.6480    0.9120   -0.9360 C   0  0  0  0  0  0  0  0  0  0  0  0
   -1.6860    0.8210    0.1970 C   0  0  0  0  0  0  0  0  0  0  0  0
   -1.4650   -0.3550    0.7370 C   0  0  0  0  0  0  0  0  0  0  0  0
   -2.0500   -1.6100    0.3620 C   0  0  0  0  0  0  0  0  0  0  0  0
   -2.9770   -1.7230   -0.6930 N   0  0  0  0  0  0  0  0  0  0  0  0
   -1.7730   -2.6980    0.9520 O   0  0  0  0  0  0  0  0  0  0  0  0
   -0.3070   -0.4920    2.1500 S   0  0  0  0  0  0  0  0  0  0  0  0
    0.6700   -1.9620    1.8990 C   0  0  0  0  0  0  0  0  0  0  0  0
    1.0920   -2.6930    3.0660 S   0  0  0  0  0  0  0  0  0  0  0  0
    1.1490   -2.5710    0.3060 S   0  0  0  0  0  0  0  0  0  0  0  0
    2.8100   -2.1080   -0.1720 C   0  0  0  0  0  0  0  0  0  0  0  0
    2.7430   -1.1460   -1.2800 N   0  0  0  0  0  0  0  0  0  0  0  0
    2.5950    0.2050   -0.7650 C   0  0  0  0  0  0  0  0  0  0  0  0
    1.2280    0.5150   -0.5950 O   0  0  0  0  0  0  0  0  0  0  0  0
    1.2060    1.2820    0.5350 O   0  0  0  0  0  0  0  0  0  0  0  0
    0.2590    2.2600    0.7950 C   0  0  0  0  0  0  0  0  0  0  0  0
    0.7750    3.5580    1.2580 C   0  0  0  0  0  0  0  0  0  0  0  0
   -0.0730    4.4680    1.4990 O   0  0  0  0  0  0  0  0  0  0  0  0
   -1.0410    2.0530    0.6410 C   0  0  0  0  0  0  0  0  0  0  0  0
  1  2  1  0
  2  3  2  0
  2 19  1  0
  3  4  1  0
  3  7  1  0
  4  5  1  0
  4  6  2  0
  7  8  1  0
  8  9  2  0
  8 10  1  0
 10 11  1  0
 11 12  1  0
 12 13  1  0
 13 14  1  0
 14 15  1  0
 15 16  1  0
 16 17  1  0
 16 19  2  0
 17 18  2  0
M  END
