
     RDKit          3D

 19 20  0  0  0  0  0  0  0  0999 V2000
    4.8340    2.9820    0.4270 O   0  0  0  0  0  0  0  0  0  0  0  0
    4.1080    2.0080    0.1390 C   0  0  0  0  0  0  0  0  0  0  0  0
    4.3260    0.6540    0.3660 N   0  0  0  0  0  0  0  0  0  0  0  0
    3.3600   -0.2350   -0.0910 C   0  0  0  0  0  0  0  0  0  0  0  0
    3.5080   -1.4920   -0.1530 O   0  0  0  0  0  0  0  0  0  0  0  0
    2.0880    0.3760   -0.5220 C   0  0  1  0  0  0  0  0  0  0  0  0
    1.0140    0.2750    0.5590 C   0  0  0  0  0  0  0  0  0  0  0  0
    0.7260   -1.1340    0.8880 C   0  0  0  0  0  0  0  0  0  0  0  0
    1.6330   -1.7710    2.1120 S   0  0  0  0  0  0  0  0  0  0  0  0
   -0.2390   -1.9280    0.2410 N   0  0  0  0  0  0  0  0  0  0  0  0
   -1.1100   -1.4880   -0.8020 C   0  0  0  0  0  0  0  0  0  0  0  0
   -2.1720   -0.5600   -0.2250 C   0  0  0  0  0  0  0  0  0  0  0  0
   -2.2230   -0.3030    1.0660 C   0  0  0  0  0  0  0  0  0  0  0  0
   -3.5750    0.7870    1.2650 S   0  0  2  0  0  0  0  0  0  0  0  0
   -3.1250    2.1280    1.7600 O   0  0  0  0  0  0  0  0  0  0  0  0
   -4.6640    0.1920    2.1060 O   0  0  0  0  0  0  0  0  0  0  0  0
   -4.0180    0.8470   -0.4280 C   0  0  0  0  0  0  0  0  0  0  0  0
   -3.1530    0.0680   -1.0370 C   0  0  0  0  0  0  0  0  0  0  0  0
    2.5140    2.1330   -0.6820 S   0  0  0  0  0  0  0  0  0  0  0  0
  1  2  2  0
  2  3  1  0
  2 19  1  0
  3  4  1  0
  4  5  2  0
  4  6  1  0
  6  7  1  1
  6 19  1  0
  7  8  1  0
  8  9  2  0
  8 10  1  0
 10 11  1  0
 11 12  1  0
 12 13  2  0
 12 18  1  0
 14 13  1  6
 14 15  2  0
 14 16  2  0
 14 17  1  0
 17 18  2  0
M  END
