
     RDKit          3D

 23 24  0  0  0  0  0  0  0  0999 V2000
   -6.0940   -0.0980   -1.8670 C   0  0  0  0  0  0  0  0  0  0  0  0
   -6.5440   -0.5790   -0.5780 N   0  0  0  0  0  0  0  0  0  0  0  0
   -5.4440   -1.6720    0.1490 S   0  0  1  0  0  0  0  0  0  0  0  0
   -5.9290   -2.1950    1.4420 O   0  0  0  0  0  0  0  0  0  0  0  0
   -5.1680   -2.7980   -0.8010 O   0  0  0  0  0  0  0  0  0  0  0  0
   -3.8640   -0.8910    0.4520 C   0  0  0  0  0  0  0  0  0  0  0  0
   -2.9420   -0.9660   -0.4720 C   0  0  0  0  0  0  0  0  0  0  0  0
   -1.6320   -0.3750   -0.3400 N   0  0  0  0  0  0  0  0  0  0  0  0
   -0.7110   -0.4780   -1.4200 C   0  0  0  0  0  0  0  0  0  0  0  0
    0.6980   -0.1180   -1.1580 C   0  0  0  0  0  0  0  0  0  0  0  0
    1.4290   -0.9890   -0.1820 C   0  0  0  0  0  0  0  0  0  0  0  0
    2.8330   -0.5630    0.0700 C   0  0  0  0  0  0  0  0  0  0  0  0
    3.7390   -0.5310   -1.1070 C   0  0  0  0  0  0  0  0  0  0  0  0
    5.1040   -0.0730   -0.6430 C   0  0  1  0  0  0  0  0  0  0  0  0
    6.2470    0.0690   -1.5750 C   0  0  2  0  0  0  0  0  0  0  0  0
    7.5560   -0.1480   -0.9490 N   0  0  0  0  0  0  0  0  0  0  0  0
    5.5060    1.2870   -1.1880 C   0  0  2  0  0  0  0  0  0  0  0  0
    5.9470    2.2060   -0.1880 N   0  0  0  0  0  0  0  0  0  0  0  0
   -1.3980    0.3020    0.8710 C   0  0  0  0  0  0  0  0  0  0  0  0
   -2.3010    0.3930    1.8210 C   0  0  0  0  0  0  0  0  0  0  0  0
   -1.8900    1.1560    3.0610 C   0  0  0  0  0  0  0  0  0  0  0  0
   -3.6300   -0.1940    1.7130 C   0  0  1  0  0  0  0  0  0  0  0  0
   -4.7140    0.8420    1.9980 C   0  0  0  0  0  0  0  0  0  0  0  0
  1  2  1  0
  3  2  1  6
  3  4  2  0
  3  5  2  0
  3  6  1  0
  6  7  2  0
  6 22  1  0
  7  8  1  0
  8  9  1  0
  8 19  1  0
  9 10  1  0
 10 11  1  0
 11 12  1  0
 12 13  1  0
 14 13  1  6
 14 15  1  0
 14 17  1  0
 15 16  1  1
 15 17  1  0
 17 18  1  1
 19 20  2  0
 20 21  1  0
 20 22  1  0
 22 23  1  6
M  CHG  1  18   1
M  END
