
     RDKit          3D

 23 24  0  0  0  0  0  0  0  0999 V2000
    4.1500    3.1190    1.7400 C   0  0  0  0  0  0  0  0  0  0  0  0
    4.6240    2.2740    0.5770 C   0  0  0  0  0  0  0  0  0  0  0  0
    3.6720    2.3570   -0.6010 C   0  0  0  0  0  0  0  0  0  0  0  0
    2.3420    1.8830   -0.2130 N   0  0  0  0  0  0  0  0  0  0  0  0
    2.3630    0.4570   -0.1350 C   0  0  0  0  0  0  0  0  0  0  0  0
    0.9820   -0.1590   -0.1860 C   0  0  2  0  0  0  0  0  0  0  0  0
    0.1070    0.2980    0.9340 C   0  0  0  0  0  0  0  0  0  0  0  0
   -1.2060   -0.3080    0.8620 N   0  0  0  0  0  0  0  0  0  0  0  0
   -2.0780   -0.1480   -0.2200 C   0  0  0  0  0  0  0  0  0  0  0  0
   -1.7480    0.5520   -1.2100 O   0  0  0  0  0  0  0  0  0  0  0  0
   -3.4190   -0.8110   -0.2140 C   0  0  1  0  0  0  0  0  0  0  0  0
   -4.1550   -0.4430    1.0290 C   0  0  0  0  0  0  0  0  0  0  0  0
   -4.9160    0.8760    0.8500 C   0  0  0  0  0  0  0  0  0  0  0  0
   -5.9160    0.6080   -0.1610 N   0  0  0  0  0  0  0  0  0  0  0  0
   -5.5000   -0.0980   -1.3210 C   0  0  0  0  0  0  0  0  0  0  0  0
   -6.3020   -0.3540   -2.2540 O   0  0  0  0  0  0  0  0  0  0  0  0
   -4.1450   -0.5160   -1.4110 N   0  0  0  0  0  0  0  0  0  0  0  0
    1.1270   -1.6610   -0.1960 C   0  0  0  0  0  0  0  0  0  0  0  0
    0.7410   -2.3260   -1.2320 C   0  0  0  0  0  0  0  0  0  0  0  0
    0.7610   -3.7650   -1.5130 C   0  0  0  0  0  0  0  0  0  0  0  0
    1.4530   -4.6750   -0.1330 S   0  0  0  0  0  0  0  0  0  0  0  0
    1.9010   -3.5510    1.1500 C   0  0  0  0  0  0  0  0  0  0  0  0
    1.7150   -2.2650    1.0160 C   0  0  0  0  0  0  0  0  0  0  0  0
  1  2  1  0
  2  3  1  0
  3  4  1  0
  4  5  1  0
  6  5  1  1
  6  7  1  0
  6 18  1  0
  7  8  1  0
  8  9  1  0
  9 10  2  0
 11  9  1  6
 11 12  1  0
 11 17  1  0
 12 13  1  0
 13 14  1  0
 14 15  1  0
 15 16  2  0
 15 17  1  0
 18 19  2  0
 18 23  1  0
 19 20  1  0
 20 21  1  0
 21 22  1  0
 22 23  2  0
M  CHG  1   4   1
M  END
