
     RDKit          3D

 46 50  0  0  0  0  0  0  0  0999 V2000
    4.1230    2.5270   -5.0460 C   0  0  0  0  0  0  0  0  0  0  0  0
    3.6440    2.7440   -3.6050 C   0  0  1  0  0  0  0  0  0  0  0  0
    4.5240    3.8170   -3.0270 C   0  0  0  0  0  0  0  0  0  0  0  0
    2.2340    3.2400   -3.6390 C   0  0  0  0  0  0  0  0  0  0  0  0
    3.8210    1.4000   -2.9240 C   0  0  0  0  0  0  0  0  0  0  0  0
    3.4220    1.3830   -1.5500 N   0  0  0  0  0  0  0  0  0  0  0  0
    4.2280    1.7550   -0.4410 C   0  0  0  0  0  0  0  0  0  0  0  0
    4.9260    0.7470    0.3540 C   0  0  0  0  0  0  0  0  0  0  0  0
    5.9470   -0.1020   -0.2330 C   0  0  0  0  0  0  0  0  0  0  0  0
    6.3870    0.0720   -1.3740 O   0  0  0  0  0  0  0  0  0  0  0  0
    6.5150   -1.2160    0.4990 N   0  0  0  0  0  0  0  0  0  0  0  0
    7.5220   -2.0680   -0.1010 C   0  0  0  0  0  0  0  0  0  0  0  0
    8.7120   -2.1230    0.8120 C   0  0  0  0  0  0  0  0  0  0  0  0
    8.2280   -2.5440    2.0690 O   0  0  0  0  0  0  0  0  0  0  0  0
    7.4330   -1.5820    2.6520 C   0  0  0  0  0  0  0  0  0  0  0  0
    6.1220   -1.5320    1.8560 C   0  0  0  0  0  0  0  0  0  0  0  0
    2.0250    1.0060   -1.3270 C   0  0  0  0  0  0  0  0  0  0  0  0
    1.3220    0.7310   -2.3240 O   0  0  0  0  0  0  0  0  0  0  0  0
    1.4390    0.9380   -0.0630 N   0  0  0  0  0  0  0  0  0  0  0  0
    0.1030    0.6000    0.2820 C   0  0  0  0  0  0  0  0  0  0  0  0
   -0.8480    0.3770   -0.6700 C   0  0  0  0  0  0  0  0  0  0  0  0
   -2.1660    0.0650   -0.2670 C   0  0  0  0  0  0  0  0  0  0  0  0
   -2.5550   -0.0280    1.0270 C   0  0  0  0  0  0  0  0  0  0  0  0
   -3.8400   -0.3020    1.5330 N   0  0  0  0  0  0  0  0  0  0  0  0
   -5.0620   -0.2230    0.7930 C   0  0  0  0  0  0  0  0  0  0  0  0
   -4.9740    0.1220   -0.4250 O   0  0  0  0  0  0  0  0  0  0  0  0
   -6.3140   -0.4860    1.3610 N   0  0  0  0  0  0  0  0  0  0  0  0
   -6.8730   -1.7010    1.7060 C   0  0  0  0  0  0  0  0  0  0  0  0
   -6.4720   -2.8750    1.3960 C   0  0  0  0  0  0  0  0  0  0  0  0
   -5.4420   -3.5060    0.6570 C   0  0  0  0  0  0  0  0  0  0  0  0
   -5.3190   -4.8670    0.5460 C   0  0  0  0  0  0  0  0  0  0  0  0
   -4.2050   -5.1970   -0.2540 N   0  0  0  0  0  0  0  0  0  0  0  0
   -3.6070   -4.2030   -0.6650 N   0  0  0  0  0  0  0  0  0  0  0  0
   -4.3220   -3.0150   -0.1370 C   0  0  0  0  0  0  0  0  0  0  0  0
   -8.2480   -1.6580    2.4070 C   0  0  0  0  0  0  0  0  0  0  0  0
   -8.8070   -2.8430    2.7600 F   0  0  0  0  0  0  0  0  0  0  0  0
   -8.8390   -0.5410    2.6490 C   0  0  0  0  0  0  0  0  0  0  0  0
   -8.2570    0.7330    2.2820 C   0  0  0  0  0  0  0  0  0  0  0  0
   -8.9240    1.9180    2.5600 C   0  0  0  0  0  0  0  0  0  0  0  0
   -8.3960    3.1400    2.2280 C   0  0  0  0  0  0  0  0  0  0  0  0
   -7.1710    3.1620    1.6040 C   0  0  0  0  0  0  0  0  0  0  0  0
   -6.4920    1.9680    1.3210 C   0  0  0  0  0  0  0  0  0  0  0  0
   -7.0390    0.7510    1.6620 C   0  0  0  0  0  0  0  0  0  0  0  0
   -1.5530    0.2070    1.9790 C   0  0  0  0  0  0  0  0  0  0  0  0
   -0.2670    0.5100    1.6180 C   0  0  0  0  0  0  0  0  0  0  0  0
    0.7010    0.7370    2.5670 F   0  0  0  0  0  0  0  0  0  0  0  0
  2  1  1  6
  2  3  1  0
  2  4  1  0
  2  5  1  0
  5  6  1  0
  6  7  1  0
  6 17  1  0
  7  8  1  0
  8  9  1  0
  9 10  2  0
  9 11  1  0
 11 12  1  0
 11 16  1  0
 12 13  1  0
 13 14  1  0
 14 15  1  0
 15 16  1  0
 17 18  2  0
 17 19  1  0
 19 20  1  0
 20 21  2  0
 20 45  1  0
 21 22  1  0
 22 23  2  0
 23 24  1  0
 23 44  1  0
 24 25  1  0
 25 26  2  0
 25 27  1  0
 27 28  1  0
 27 43  1  0
 28 29  2  3
 28 35  1  0
 29 30  1  0
 30 31  2  0
 30 34  1  0
 31 32  1  0
 32 33  2  0
 33 34  1  0
 35 36  1  0
 35 37  2  0
 37 38  1  0
 38 39  2  0
 38 43  1  0
 39 40  1  0
 40 41  2  0
 41 42  1  0
 42 43  2  0
 44 45  2  0
 45 46  1  0
M  CHG  2  32   1  33   1
M  END
