
     RDKit          3D

 46 50  0  0  0  0  0  0  0  0999 V2000
    3.1590   -2.5660    4.6040 C   0  0  0  0  0  0  0  0  0  0  0  0
    2.8170   -1.2130    5.2420 C   0  0  1  0  0  0  0  0  0  0  0  0
    3.7780   -0.2670    4.6070 N   0  0  0  0  0  0  0  0  0  0  0  0
    3.7100   -0.2260    3.4400 C   0  0  0  0  0  0  0  0  0  0  0  0
    4.4290    0.5130    2.4760 N   0  0  0  0  0  0  0  0  0  0  0  0
    4.9510   -0.2140    1.3670 C   0  0  0  0  0  0  0  0  0  0  0  0
    4.6980   -1.4760    1.4780 O   0  0  0  0  0  0  0  0  0  0  0  0
    5.6400    0.2800    0.3120 N   0  0  0  0  0  0  0  0  0  0  0  0
    6.1290   -0.5580   -0.7160 C   0  0  0  0  0  0  0  0  0  0  0  0
    5.4320   -1.6520   -1.1200 C   0  0  0  0  0  0  0  0  0  0  0  0
    5.9110   -2.5240   -2.0950 C   0  0  0  0  0  0  0  0  0  0  0  0
    5.1850   -3.6130   -2.4760 F   0  0  0  0  0  0  0  0  0  0  0  0
    7.1200   -2.2770   -2.6670 C   0  0  0  0  0  0  0  0  0  0  0  0
    7.6640   -3.0790   -3.6290 F   0  0  0  0  0  0  0  0  0  0  0  0
    7.8480   -1.1480   -2.2580 C   0  0  0  0  0  0  0  0  0  0  0  0
    9.1470   -0.9460   -2.9330 C   0  0  0  0  0  0  0  0  0  0  0  0
    9.8220    0.2250   -2.4660 N   0  0  0  0  0  0  0  0  0  0  0  0
    9.2240    1.4000   -3.0370 C   0  0  0  0  0  0  0  0  0  0  0  0
    9.5750    2.6190   -2.2050 C   0  0  0  0  0  0  0  0  0  0  0  0
    8.9930    3.7360   -2.7650 O   0  0  0  0  0  0  0  0  0  0  0  0
    7.3710   -0.2830   -1.2910 C   0  0  0  0  0  0  0  0  0  0  0  0
    2.1680   -0.4310    3.2540 N   0  0  0  0  0  0  0  0  0  0  0  0
    1.4790   -0.1710    2.0360 C   0  0  1  0  0  0  0  0  0  0  0  0
    0.6210   -1.2720    1.5920 C   0  0  0  0  0  0  0  0  0  0  0  0
   -0.7940   -0.9840    1.3700 C   0  0  0  0  0  0  0  0  0  0  0  0
   -1.3020    0.3080    1.7120 N   0  0  2  0  0  0  0  0  0  0  0  0
   -2.6250    0.5010    1.3040 C   0  0  0  0  0  0  0  0  0  0  0  0
   -3.3030   -0.4980    0.6620 C   0  0  0  0  0  0  0  0  0  0  0  0
   -4.6350   -0.3300    0.2130 C   0  0  0  0  0  0  0  0  0  0  0  0
   -5.3150    0.8340    0.3960 C   0  0  0  0  0  0  0  0  0  0  0  0
   -6.6450    1.1230   -0.0560 C   0  0  0  0  0  0  0  0  0  0  0  0
   -7.1440    2.3020    0.3080 O   0  0  0  0  0  0  0  0  0  0  0  0
   -7.4840    0.3330   -0.8330 N   0  0  0  0  0  0  0  0  0  0  0  0
   -7.2150   -0.9690   -1.3420 C   0  0  0  0  0  0  0  0  0  0  0  0
   -8.8020    0.9530   -1.1910 C   0  0  2  0  0  0  0  0  0  0  0  0
   -9.9530    0.2080   -0.6320 C   0  0  0  0  0  0  0  0  0  0  0  0
  -10.6730   -0.7400   -1.5160 C   0  0  0  0  0  0  0  0  0  0  0  0
  -10.6880   -0.4010   -2.9750 C   0  0  0  0  0  0  0  0  0  0  0  0
  -10.3060    1.0680   -3.1410 C   0  0  0  0  0  0  0  0  0  0  0  0
   -8.8590    1.1430   -2.6850 C   0  0  0  0  0  0  0  0  0  0  0  0
   -4.5900    1.8570    1.0670 C   0  0  0  0  0  0  0  0  0  0  0  0
   -3.3010    1.6800    1.4960 C   0  0  0  0  0  0  0  0  0  0  0  0
   -0.3740    1.3400    1.3650 C   0  0  0  0  0  0  0  0  0  0  0  0
    0.8560    1.2170    2.1450 C   0  0  0  0  0  0  0  0  0  0  0  0
    1.6290   -0.6190    4.5420 C   0  0  0  0  0  0  0  0  0  0  0  0
    0.5380   -0.3850    4.9910 O   0  0  0  0  0  0  0  0  0  0  0  0
  2  1  1  6
  2  3  1  0
  2 45  1  0
  3  4  2  0
  4  5  1  0
  4 22  1  0
  5  6  1  0
  6  7  2  0
  6  8  1  0
  8  9  1  0
  9 10  2  0
  9 21  1  0
 10 11  1  0
 11 12  1  0
 11 13  2  0
 13 14  1  0
 13 15  1  0
 15 16  1  0
 15 21  2  0
 16 17  1  0
 17 18  1  0
 18 19  1  0
 19 20  1  0
 23 22  1  1
 22 45  1  0
 23 24  1  0
 23 44  1  0
 24 25  1  0
 25 26  1  0
 26 27  1  6
 26 43  1  0
 27 28  2  0
 27 42  1  0
 28 29  1  0
 29 30  2  0
 30 31  1  0
 30 41  1  0
 31 32  2  0
 31 33  1  0
 33 34  1  0
 35 33  1  6
 35 36  1  0
 35 40  1  0
 36 37  1  0
 37 38  1  0
 38 39  1  0
 39 40  1  0
 41 42  2  0
 43 44  1  0
 45 46  2  0
M  CHG  2  17   1  26   1
M  END
