
     RDKit          3D

 46 50  0  0  0  0  0  0  0  0999 V2000
   -3.9050    1.1490   -3.0160 C   0  0  0  0  0  0  0  0  0  0  0  0
   -4.1290    1.1270   -1.6420 O   0  0  0  0  0  0  0  0  0  0  0  0
   -4.4970   -0.0590   -0.9790 C   0  0  0  0  0  0  0  0  0  0  0  0
   -4.5390   -1.1900   -1.7600 C   0  0  0  0  0  0  0  0  0  0  0  0
   -4.8730   -2.4130   -1.2430 C   0  0  0  0  0  0  0  0  0  0  0  0
   -5.1720   -2.4810    0.1090 C   0  0  0  0  0  0  0  0  0  0  0  0
   -5.5080   -3.6870    0.6520 F   0  0  0  0  0  0  0  0  0  0  0  0
   -5.1230   -1.3450    0.8530 C   0  0  0  0  0  0  0  0  0  0  0  0
   -4.7850   -0.0820    0.3440 C   0  0  0  0  0  0  0  0  0  0  0  0
   -4.7380    1.0750    1.0920 O   0  0  0  0  0  0  0  0  0  0  0  0
   -4.9390    1.2130    2.4160 C   0  0  0  0  0  0  0  0  0  0  0  0
   -3.7680    1.0950    3.0390 N   0  0  0  0  0  0  0  0  0  0  0  0
   -2.5490    0.8800    2.3800 C   0  0  0  0  0  0  0  0  0  0  0  0
   -2.0610   -0.2790    1.8960 C   0  0  0  0  0  0  0  0  0  0  0  0
   -0.8290   -0.3800    1.2380 C   0  0  0  0  0  0  0  0  0  0  0  0
   -0.0440    0.7280    1.0550 C   0  0  0  0  0  0  0  0  0  0  0  0
    1.1570    0.7230    0.4280 O   0  0  0  0  0  0  0  0  0  0  0  0
    1.9440   -0.2030   -0.1960 C   0  0  0  0  0  0  0  0  0  0  0  0
    3.1580    0.5590   -0.7410 C   0  0  0  0  0  0  0  0  0  0  0  0
    3.1670    1.8120   -0.6390 O   0  0  0  0  0  0  0  0  0  0  0  0
    4.2380   -0.1270   -1.3420 N   0  0  0  0  0  0  0  0  0  0  0  0
    5.3700    0.5250   -1.8860 C   0  0  0  0  0  0  0  0  0  0  0  0
    5.4000    1.8620   -2.2610 C   0  0  0  0  0  0  0  0  0  0  0  0
    6.5210    2.4230   -2.8860 C   0  0  0  0  0  0  0  0  0  0  0  0
    7.6300    1.6470   -3.1470 C   0  0  0  0  0  0  0  0  0  0  0  0
    7.6010    0.3050   -2.7700 C   0  0  0  0  0  0  0  0  0  0  0  0
    6.5010   -0.2480   -2.1540 C   0  0  0  0  0  0  0  0  0  0  0  0
    6.5250   -1.5950   -1.7070 N   0  0  1  0  0  0  0  0  0  0  0  0
    7.7780   -2.2030   -2.1980 C   0  0  0  0  0  0  0  0  0  0  0  0
    7.7250   -3.6710   -1.8000 C   0  0  0  0  0  0  0  0  0  0  0  0
    7.9200   -3.7130   -0.2980 C   0  0  0  0  0  0  0  0  0  0  0  0
    6.8750   -2.8570    0.3990 C   0  0  0  0  0  0  0  0  0  0  0  0
    6.7040   -1.5330   -0.2610 C   0  0  0  0  0  0  0  0  0  0  0  0
   -0.5300    1.9470    1.5530 C   0  0  0  0  0  0  0  0  0  0  0  0
   -1.7210    2.0230    2.1830 C   0  0  0  0  0  0  0  0  0  0  0  0
   -6.1050    1.4400    3.2440 C   0  0  0  0  0  0  0  0  0  0  0  0
   -5.9290    1.3650    4.5780 C   0  0  0  0  0  0  0  0  0  0  0  0
   -6.9750    1.5430    5.5590 C   0  0  0  0  0  0  0  0  0  0  0  0
   -6.7420    1.4630    6.8000 O   0  0  0  0  0  0  0  0  0  0  0  0
   -8.2810    1.8120    5.1150 N   0  0  0  0  0  0  0  0  0  0  0  0
   -8.5130    1.9030    3.7390 C   0  0  0  0  0  0  0  0  0  0  0  0
   -9.6930    2.1430    3.3600 O   0  0  0  0  0  0  0  0  0  0  0  0
   -7.4130    1.7260    2.7110 C   0  0  0  0  0  0  0  0  0  0  0  0
   -7.7380    2.1820    1.5530 C   0  0  0  0  0  0  0  0  0  0  0  0
   -7.1490    2.6370    0.3280 C   0  0  0  0  0  0  0  0  0  0  0  0
   -5.8680    2.8650    0.1500 F   0  0  0  0  0  0  0  0  0  0  0  0
  1  2  1  0
  2  3  1  0
  3  4  2  0
  3  9  1  0
  4  5  1  0
  5  6  2  0
  6  7  1  0
  6  8  1  0
  8  9  2  0
  9 10  1  0
 10 11  1  0
 11 12  2  3
 11 36  1  0
 12 13  1  0
 13 14  2  0
 13 35  1  0
 14 15  1  0
 15 16  2  0
 16 17  1  0
 16 34  1  0
 17 18  1  0
 18 19  1  0
 19 20  2  0
 19 21  1  0
 21 22  1  0
 22 23  2  0
 22 27  1  0
 23 24  1  0
 24 25  2  0
 25 26  1  0
 26 27  2  0
 28 27  1  6
 28 29  1  0
 28 33  1  0
 29 30  1  0
 30 31  1  0
 31 32  1  0
 32 33  1  0
 34 35  2  0
 36 37  2  0
 36 43  1  0
 37 38  1  0
 38 39  2  0
 38 40  1  0
 40 41  1  0
 41 42  2  0
 41 43  1  0
 43 44  2  3
 44 45  1  0
 45 46  1  0
M  CHG  1  28   1
M  END
