
     RDKit          3D

 40 43  0  0  0  0  0  0  0  0999 V2000
   -3.7390    5.0990    1.4350 C   0  0  0  0  0  0  0  0  0  0  0  0
   -2.5210    4.2960    1.8380 C   0  0  0  0  0  0  0  0  0  0  0  0
   -1.6560    4.1390    0.6000 C   0  0  0  0  0  0  0  0  0  0  0  0
   -2.5400    3.2910   -0.6840 S   0  0  1  0  0  0  0  0  0  0  0  0
   -3.7590    4.0350   -1.1240 O   0  0  0  0  0  0  0  0  0  0  0  0
   -1.6190    3.1700   -1.8610 O   0  0  0  0  0  0  0  0  0  0  0  0
   -3.0230    1.7060   -0.1550 N   0  0  0  0  0  0  0  0  0  0  0  0
   -2.3980    0.5920   -0.7450 C   0  0  0  0  0  0  0  0  0  0  0  0
   -1.4410    0.7660   -1.7220 N   0  0  0  0  0  0  0  0  0  0  0  0
   -0.8190   -0.2420   -2.3310 C   0  0  0  0  0  0  0  0  0  0  0  0
    0.1980    0.0680   -3.3780 C   0  0  2  0  0  0  0  0  0  0  0  0
   -0.5250   -0.0410   -5.0100 Cl  0  0  0  0  0  0  0  0  0  0  0  0
    1.3640   -0.7490   -3.2710 N   0  0  0  0  0  0  0  0  0  0  0  0
    2.6690   -0.2520   -3.0130 C   0  0  0  0  0  0  0  0  0  0  0  0
    2.8500    0.9810   -2.8630 O   0  0  0  0  0  0  0  0  0  0  0  0
    3.7950   -1.1140   -2.9180 N   0  0  0  0  0  0  0  0  0  0  0  0
    5.1010   -0.7050   -2.6680 N   0  0  0  0  0  0  0  0  0  0  0  0
    5.3560    0.0850   -1.5230 C   0  0  0  0  0  0  0  0  0  0  0  0
    4.5060    0.5570   -0.5920 N   0  0  0  0  0  0  0  0  0  0  0  0
    5.1890    1.2620    0.3190 C   0  0  0  0  0  0  0  0  0  0  0  0
    4.7380    1.9890    1.5360 C   0  0  0  0  0  0  0  0  0  0  0  0
    4.7630    0.8160    2.9140 S   0  0  0  0  0  0  0  0  0  0  0  0
    6.4800    0.3340    3.2170 C   0  0  0  0  0  0  0  0  0  0  0  0
    7.3200    1.4410    3.6930 C   0  0  0  0  0  0  0  0  0  0  0  0
    6.7900    2.7340    3.8690 N   0  0  0  0  0  0  0  0  0  0  0  0
    8.5210    1.2430    3.9450 O   0  0  0  0  0  0  0  0  0  0  0  0
    6.4850    1.1960   -0.1010 N   0  0  0  0  0  0  0  0  0  0  0  0
    6.5610    0.5010   -1.1820 O   0  0  0  0  0  0  0  0  0  0  0  0
   -1.0970   -1.5440   -2.0170 N   0  0  0  0  0  0  0  0  0  0  0  0
   -2.0210   -1.7900   -1.0720 C   0  0  0  0  0  0  0  0  0  0  0  0
   -2.6540   -0.7300   -0.4520 C   0  0  0  0  0  0  0  0  0  0  0  0
   -3.6450   -0.8040    0.5910 N   0  0  0  0  0  0  0  0  0  0  0  0
   -4.4940   -1.9360    0.7950 C   0  0  0  0  0  0  0  0  0  0  0  0
   -5.4060   -1.7360    1.6350 O   0  0  0  0  0  0  0  0  0  0  0  0
   -4.4950   -3.2640    0.2110 C   0  0  2  0  0  0  0  0  0  0  0  0
   -4.1870   -4.3660    1.2000 C   0  0  0  0  0  0  0  0  0  0  0  0
   -4.1160   -5.5660    0.2690 C   0  0  0  0  0  0  0  0  0  0  0  0
   -3.7800   -4.9720   -1.0700 C   0  0  0  0  0  0  0  0  0  0  0  0
   -3.6590   -3.5340   -0.8850 N   0  0  2  0  0  0  0  0  0  0  0  0
   -2.2760   -3.2300   -0.7930 C   0  0  0  0  0  0  0  0  0  0  0  0
  1  2  1  0
  2  3  1  0
  4  3  1  1
  4  5  2  0
  4  6  2  0
  4  7  1  0
  7  8  1  0
  8  9  2  0
  8 31  1  0
  9 10  1  0
 10 11  1  0
 10 29  2  0
 11 12  1  6
 11 13  1  0
 13 14  1  0
 14 15  2  0
 14 16  1  0
 16 17  1  0
 17 18  1  0
 18 19  2  0
 18 28  1  0
 19 20  1  0
 20 21  1  0
 20 27  2  0
 21 22  1  0
 22 23  1  0
 23 24  1  0
 24 25  1  0
 24 26  2  0
 27 28  1  0
 29 30  1  0
 30 31  2  0
 30 40  1  0
 31 32  1  0
 32 33  1  0
 33 34  2  0
 33 35  1  0
 35 36  1  1
 35 39  1  0
 36 37  1  0
 37 38  1  0
 39 38  1  1
 39 40  1  0
M  CHG  1  39   1
M  END
