
     RDKit          3D

 40 43  0  0  0  0  0  0  0  0999 V2000
   -6.6820    1.5960   -2.1760 C   0  0  0  0  0  0  0  0  0  0  0  0
   -6.6450    2.4480   -0.9180 C   0  0  0  0  0  0  0  0  0  0  0  0
   -5.4070    2.1610   -0.0910 C   0  0  0  0  0  0  0  0  0  0  0  0
   -4.1330    2.4510   -0.8770 C   0  0  0  0  0  0  0  0  0  0  0  0
   -3.0220    2.1460    0.0000 N   0  0  0  0  0  0  0  0  0  0  0  0
   -2.7470    0.7970    0.3900 C   0  0  0  0  0  0  0  0  0  0  0  0
   -3.1310   -0.2420   -0.2600 N   0  0  0  0  0  0  0  0  0  0  0  0
   -2.7120   -1.4140    0.3670 N   0  0  0  0  0  0  0  0  0  0  0  0
   -2.0510   -1.1500    1.4320 C   0  0  0  0  0  0  0  0  0  0  0  0
   -1.4670   -2.1200    2.3290 N   0  0  0  0  0  0  0  0  0  0  0  0
   -2.1840   -3.7240    2.4630 S   0  0  0  0  0  0  0  0  0  0  0  0
   -3.2830   -3.7460    3.8830 C   0  0  0  0  0  0  0  0  0  0  0  0
   -3.0350   -3.9790    1.2220 O   0  0  0  0  0  0  0  0  0  0  0  0
   -2.0000    0.3170    1.5670 C   0  0  2  0  0  0  0  0  0  0  0  0
   -2.6320    0.7770    2.8640 C   0  0  0  0  0  0  0  0  0  0  0  0
   -0.6230    0.8060    1.4660 N   0  0  0  0  0  0  0  0  0  0  0  0
    0.1930    0.6070    0.3330 C   0  0  0  0  0  0  0  0  0  0  0  0
   -0.3090   -0.0240   -0.6240 O   0  0  0  0  0  0  0  0  0  0  0  0
    1.5200    1.0720    0.2230 N   0  0  0  0  0  0  0  0  0  0  0  0
    2.3760    0.8740   -0.9290 C   0  0  2  0  0  0  0  0  0  0  0  0
    3.9980    1.5710   -0.5170 Cl  0  0  0  0  0  0  0  0  0  0  0  0
    1.9180    1.6280   -2.0640 N   0  0  0  0  0  0  0  0  0  0  0  0
    1.4420    1.1120   -3.1360 C   0  0  0  0  0  0  0  0  0  0  0  0
    0.9550    1.6660   -4.3280 O   0  0  0  0  0  0  0  0  0  0  0  0
    0.8920    0.6520   -5.3330 C   0  0  0  0  0  0  0  0  0  0  0  0
    0.7780   -0.5880   -4.5520 C   0  0  0  0  0  0  0  0  0  0  0  0
    0.3040   -1.6910   -4.8900 O   0  0  0  0  0  0  0  0  0  0  0  0
    1.3400   -0.2940   -3.2490 N   0  0  0  0  0  0  0  0  0  0  0  0
    1.7310   -1.1090   -2.2100 N   0  0  0  0  0  0  0  0  0  0  0  0
    2.6320   -0.5620   -1.2550 C   0  0  2  0  0  0  0  0  0  0  0  0
    2.4930   -1.3400   -0.0340 N   0  0  0  0  0  0  0  0  0  0  0  0
    3.8580   -2.2790    0.3520 S   0  0  2  0  0  0  0  0  0  0  0  0
    4.1340   -3.3210   -0.7020 O   0  0  0  0  0  0  0  0  0  0  0  0
    3.5410   -3.0250    1.6330 O   0  0  0  0  0  0  0  0  0  0  0  0
    5.2970   -1.3630    0.6300 C   0  0  0  0  0  0  0  0  0  0  0  0
    6.2480   -1.0640   -0.3160 C   0  0  0  0  0  0  0  0  0  0  0  0
    7.2460   -0.3220    0.2720 C   0  0  0  0  0  0  0  0  0  0  0  0
    6.9280   -0.1560    1.5670 N   0  0  0  0  0  0  0  0  0  0  0  0
    7.7550    0.5820    2.5070 C   0  0  0  0  0  0  0  0  0  0  0  0
    5.7560   -0.7750    1.8070 C   0  0  0  0  0  0  0  0  0  0  0  0
  1  2  1  0
  2  3  1  0
  3  4  1  0
  4  5  1  0
  5  6  1  0
  6  7  2  0
  6 14  1  0
  7  8  1  0
  8  9  2  0
  9 10  1  0
  9 14  1  0
 10 11  1  0
 11 12  1  1
 11 13  2  0
 14 15  1  1
 14 16  1  0
 16 17  1  0
 17 18  2  0
 17 19  1  0
 19 20  1  0
 20 21  1  1
 20 22  1  0
 20 30  1  0
 22 23  2  0
 23 24  1  0
 23 28  1  0
 24 25  1  0
 25 26  1  0
 26 27  2  0
 26 28  1  0
 28 29  1  0
 29 30  1  0
 30 31  1  1
 32 31  1  6
 32 33  2  0
 32 34  2  0
 32 35  1  0
 35 36  1  0
 35 40  2  0
 36 37  2  0
 37 38  1  0
 38 39  1  0
 38 40  1  0
M  END
