
     RDKit          3D

 40 42  0  0  0  0  0  0  0  0999 V2000
    4.3850   -0.9210   -2.4250 C   0  0  0  0  0  0  0  0  0  0  0  0
    3.4520   -0.8720   -1.2050 C   0  0  2  0  0  0  0  0  0  0  0  0
    4.3590   -0.8140   -0.0530 N   0  0  0  0  0  0  0  0  0  0  0  0
    4.3780    0.2600    0.8610 C   0  0  0  0  0  0  0  0  0  0  0  0
    3.5700    1.2000    0.6580 O   0  0  0  0  0  0  0  0  0  0  0  0
    5.2740    0.3260    2.0060 C   0  0  0  0  0  0  0  0  0  0  0  0
    6.2020   -0.5630    2.3970 N   0  0  0  0  0  0  0  0  0  0  0  0
    6.7920   -0.0950    3.5040 N   0  0  0  0  0  0  0  0  0  0  0  0
    6.2550    1.0710    3.8180 N   0  0  0  0  0  0  0  0  0  0  0  0
    5.3330    1.3220    2.9040 N   0  0  0  0  0  0  0  0  0  0  0  0
    2.6910   -2.1310   -1.2260 C   0  0  0  0  0  0  0  0  0  0  0  0
    3.1860   -3.3790   -1.0150 N   0  0  0  0  0  0  0  0  0  0  0  0
    2.2080   -4.2610   -1.1150 N   0  0  0  0  0  0  0  0  0  0  0  0
    1.0790   -3.5470   -1.3930 C   0  0  0  0  0  0  0  0  0  0  0  0
   -0.4000   -4.1960   -1.6080 S   0  0  0  0  0  0  0  0  0  0  0  0
    1.3900   -2.2460   -1.4580 N   0  0  0  0  0  0  0  0  0  0  0  0
    0.4680   -1.1640   -1.7330 C   0  0  0  0  0  0  0  0  0  0  0  0
   -0.1090   -0.6830   -0.3940 C   0  0  0  0  0  0  0  0  0  0  0  0
   -1.1020    0.3900   -0.5450 C   0  0  0  0  0  0  0  0  0  0  0  0
   -1.3550    1.0330   -1.6780 C   0  0  0  0  0  0  0  0  0  0  0  0
   -0.6810    0.8760   -3.2820 Cl  0  0  0  0  0  0  0  0  0  0  0  0
   -2.4220    2.0690   -1.3970 C   0  0  2  0  0  0  0  0  0  0  0  0
   -1.8230    3.3570   -0.9070 C   0  0  0  0  0  0  0  0  0  0  0  0
   -0.7110    4.0790   -2.0640 S   0  0  1  0  0  0  0  0  0  0  0  0
   -1.4390    4.4480   -3.5620 N   0  0  0  0  0  0  0  0  0  0  0  0
   -0.2150    5.3960   -1.4810 O   0  0  0  0  0  0  0  0  0  0  0  0
    0.5180    3.2420   -2.2710 O   0  0  0  0  0  0  0  0  0  0  0  0
   -3.1610    1.3830   -0.2100 C   0  0  1  0  0  0  0  0  0  0  0  0
   -4.0830    0.3920   -0.7940 C   0  0  0  0  0  0  0  0  0  0  0  0
   -4.9220   -0.4280    0.1030 C   0  0  0  0  0  0  0  0  0  0  0  0
   -4.2750   -1.3990    0.9680 C   0  0  0  0  0  0  0  0  0  0  0  0
   -3.0990   -1.7720    0.7630 O   0  0  0  0  0  0  0  0  0  0  0  0
   -4.9260   -1.9920    2.1020 N   0  0  0  0  0  0  0  0  0  0  0  0
   -4.2510   -2.9360    2.9170 C   0  0  0  0  0  0  0  0  0  0  0  0
   -3.0580   -3.2740    2.6560 O   0  0  0  0  0  0  0  0  0  0  0  0
   -1.9640    0.8200    0.5360 C   0  0  0  0  0  0  0  0  0  0  0  0
   -1.8970    0.8160    1.8380 C   0  0  0  0  0  0  0  0  0  0  0  0
   -0.9350    0.3810    2.7760 C   0  0  0  0  0  0  0  0  0  0  0  0
    0.3090   -0.2220    2.5260 N   0  0  0  0  0  0  0  0  0  0  0  0
   -1.2170    0.5510    4.0420 O   0  0  0  0  0  0  0  0  0  0  0  0
  2  1  1  6
  2  3  1  0
  2 11  1  0
  3  4  1  0
  4  5  2  0
  4  6  1  0
  6  7  1  0
  6 10  2  0
  7  8  2  0
  8  9  1  0
  9 10  1  0
 11 12  2  0
 11 16  1  0
 12 13  1  0
 13 14  1  0
 14 15  2  0
 14 16  1  0
 16 17  1  0
 17 18  1  0
 18 19  1  0
 19 20  2  0
 19 36  1  0
 20 21  1  0
 20 22  1  0
 22 23  1  1
 22 28  1  0
 23 24  1  0
 24 25  1  6
 24 26  2  0
 24 27  2  0
 28 29  1  6
 28 36  1  0
 29 30  1  0
 30 31  1  0
 31 32  2  0
 31 33  1  0
 33 34  1  0
 34 35  2  0
 36 37  2  3
 37 38  1  0
 38 39  1  0
 38 40  2  0
M  END
