
     RDKit          3D

 40 44  0  0  0  0  0  0  0  0999 V2000
  -10.7970    0.5290    2.0520 C   0  0  0  0  0  0  0  0  0  0  0  0
   -9.5680   -0.0660    2.2660 O   0  0  0  0  0  0  0  0  0  0  0  0
   -8.5470    0.3850    1.4590 C   0  0  0  0  0  0  0  0  0  0  0  0
   -8.5990    0.0360    0.0300 C   0  0  0  0  0  0  0  0  0  0  0  0
   -9.5410   -0.8730   -0.4160 C   0  0  0  0  0  0  0  0  0  0  0  0
   -9.6390   -1.2640   -1.7410 C   0  0  0  0  0  0  0  0  0  0  0  0
   -8.7400   -0.7140   -2.6650 C   0  0  0  0  0  0  0  0  0  0  0  0
   -7.7820    0.1930   -2.2640 C   0  0  0  0  0  0  0  0  0  0  0  0
   -7.7250    0.5570   -0.9220 C   0  0  0  0  0  0  0  0  0  0  0  0
   -6.6940    1.4770   -0.4690 C   0  0  2  0  0  0  0  0  0  0  0  0
   -6.7390    2.5690   -1.6790 C   0  0  0  0  0  0  0  0  0  0  0  0
   -5.2770    1.1880   -0.5380 C   0  0  0  0  0  0  0  0  0  0  0  0
   -4.4500    0.1820   -0.0050 C   0  0  0  0  0  0  0  0  0  0  0  0
   -3.8990    0.2810    1.2620 C   0  0  0  0  0  0  0  0  0  0  0  0
   -2.9530   -0.5750    1.7300 C   0  0  0  0  0  0  0  0  0  0  0  0
   -2.4820   -1.6100    0.9450 C   0  0  0  0  0  0  0  0  0  0  0  0
   -1.3500   -2.4750    1.4550 C   0  0  0  0  0  0  0  0  0  0  0  0
   -0.0710   -1.9920    0.9050 N   0  0  0  0  0  0  0  0  0  0  0  0
    0.5580   -0.8040    1.3230 C   0  0  0  0  0  0  0  0  0  0  0  0
   -0.0400   -0.1270    2.2250 O   0  0  0  0  0  0  0  0  0  0  0  0
    1.8200   -0.2630    0.8370 C   0  0  0  0  0  0  0  0  0  0  0  0
    2.7010   -0.7110   -0.0270 C   0  0  0  0  0  0  0  0  0  0  0  0
    3.8310    0.2100   -0.1930 C   0  0  0  0  0  0  0  0  0  0  0  0
    5.0590    0.1040   -1.0180 C   0  0  2  0  0  0  0  0  0  0  0  0
    6.0020   -0.8700   -0.4020 C   0  0  0  0  0  0  0  0  0  0  0  0
    7.3260   -0.6600   -0.8400 O   0  0  0  0  0  0  0  0  0  0  0  0
    7.8100    0.5700   -0.4660 C   0  0  2  0  0  0  0  0  0  0  0  0
    8.7560    1.0930   -1.4980 C   0  0  0  0  0  0  0  0  0  0  0  0
    9.8300    0.0800   -1.7740 C   0  0  0  0  0  0  0  0  0  0  0  0
   10.0900   -0.8050   -0.6030 C   0  0  0  0  0  0  0  0  0  0  0  0
    9.9090   -0.0440    0.6950 C   0  0  2  0  0  0  0  0  0  0  0  0
   10.2480   -0.9860    1.8400 C   0  0  0  0  0  0  0  0  0  0  0  0
    8.5020    0.4260    0.8760 C   0  0  0  0  0  0  0  0  0  0  0  0
    6.6470    1.5380   -0.2520 C   0  0  0  0  0  0  0  0  0  0  0  0
    5.6360    1.3560   -1.1730 O   0  0  0  0  0  0  0  0  0  0  0  0
    3.5820    1.2110    0.5980 N   0  0  0  0  0  0  0  0  0  0  0  0
    2.3780    1.0530    1.2910 C   0  0  0  0  0  0  0  0  0  0  0  0
    1.8270    1.8200    2.1410 O   0  0  0  0  0  0  0  0  0  0  0  0
   -2.9960   -1.7610   -0.3140 C   0  0  0  0  0  0  0  0  0  0  0  0
   -3.9710   -0.8770   -0.7850 C   0  0  0  0  0  0  0  0  0  0  0  0
  1  2  1  0
  2  3  1  0
  3  4  1  0
  4  5  2  0
  4  9  1  0
  5  6  1  0
  6  7  2  0
  7  8  1  0
  8  9  2  0
  9 10  1  0
 10 11  1  6
 10 12  1  0
 12 13  1  0
 13 14  2  0
 13 40  1  0
 14 15  1  0
 15 16  2  0
 16 17  1  0
 16 39  1  0
 17 18  1  0
 18 19  1  0
 19 20  2  0
 19 21  1  0
 21 22  2  0
 21 37  1  0
 22 23  1  0
 24 23  1  1
 23 36  2  0
 24 25  1  0
 24 35  1  0
 25 26  1  0
 26 27  1  0
 27 28  1  6
 27 33  1  0
 27 34  1  0
 28 29  1  0
 29 30  1  0
 30 31  1  0
 31 32  1  1
 31 33  1  0
 34 35  1  0
 36 37  1  0
 37 38  2  0
 39 40  2  0
M  END
