
     RDKit          3D

 40 42  0  0  0  0  0  0  0  0999 V2000
   -1.2880   -3.6460   -2.7380 C   0  0  0  0  0  0  0  0  0  0  0  0
   -0.1440   -4.2260   -1.9360 C   0  0  1  0  0  0  0  0  0  0  0  0
    0.8280   -4.9390   -2.8410 C   0  0  0  0  0  0  0  0  0  0  0  0
    0.5870   -3.1210   -1.1680 C   0  0  2  0  0  0  0  0  0  0  0  0
   -0.3060   -2.4500   -0.2570 N   0  0  0  0  0  0  0  0  0  0  0  0
   -0.6620   -2.8050    1.0400 C   0  0  0  0  0  0  0  0  0  0  0  0
   -0.5770   -1.9160    1.9580 O   0  0  0  0  0  0  0  0  0  0  0  0
   -1.1450   -4.1240    1.5160 C   0  0  0  0  0  0  0  0  0  0  0  0
   -2.5570   -4.4040    0.9800 C   0  0  0  0  0  0  0  0  0  0  0  0
   -3.5880   -3.5960    1.6850 C   0  0  0  0  0  0  0  0  0  0  0  0
   -4.4310   -2.7580    0.6950 C   0  0  0  0  0  0  0  0  0  0  0  0
   -4.2700   -1.3010    0.9790 C   0  0  0  0  0  0  0  0  0  0  0  0
   -5.0190   -0.2580    1.0940 C   0  0  0  0  0  0  0  0  0  0  0  0
   -4.7830    1.2050    1.3870 C   0  0  0  0  0  0  0  0  0  0  0  0
   -3.9650    2.1100    0.9580 C   0  0  0  0  0  0  0  0  0  0  0  0
   -3.7000    3.5530    1.2210 C   0  0  0  0  0  0  0  0  0  0  0  0
   -2.1750    3.8020    1.0430 C   0  0  0  0  0  0  0  0  0  0  0  0
   -1.9670    3.9310   -0.3300 O   0  0  0  0  0  0  0  0  0  0  0  0
   -0.9630    4.5530   -1.0010 C   0  0  0  0  0  0  0  0  0  0  0  0
   -1.2030    5.4440   -1.8590 O   0  0  0  0  0  0  0  0  0  0  0  0
    0.4550    4.2340   -0.7750 C   0  0  2  0  0  0  0  0  0  0  0  0
    1.1870    4.4220   -2.1020 C   0  0  0  0  0  0  0  0  0  0  0  0
    2.6420    4.6560   -1.7490 C   0  0  0  0  0  0  0  0  0  0  0  0
    3.0150    3.5630   -0.7370 C   0  0  0  0  0  0  0  0  0  0  0  0
    1.9750    2.5180   -0.7630 N   0  0  0  0  0  0  0  0  0  0  0  0
    0.7040    2.8980   -0.2990 N   0  0  0  0  0  0  0  0  0  0  0  0
    2.3280    1.2550   -1.2440 C   0  0  0  0  0  0  0  0  0  0  0  0
    3.2260    1.1580   -2.1180 O   0  0  0  0  0  0  0  0  0  0  0  0
    1.7200   -0.0440   -0.8060 C   0  0  2  0  0  0  0  0  0  0  0  0
    2.8240   -0.7690   -0.0450 C   0  0  0  0  0  0  0  0  0  0  0  0
    3.2590    0.0440    1.1180 C   0  0  0  0  0  0  0  0  0  0  0  0
    2.6530   -0.0800    2.3630 C   0  0  0  0  0  0  0  0  0  0  0  0
    3.0190    0.6450    3.4620 C   0  0  0  0  0  0  0  0  0  0  0  0
    4.0350    1.5510    3.3630 C   0  0  0  0  0  0  0  0  0  0  0  0
    4.6730    1.7170    2.1530 C   0  0  0  0  0  0  0  0  0  0  0  0
    5.7220    2.6330    1.9930 O   0  0  0  0  0  0  0  0  0  0  0  0
    4.2880    0.9760    1.0570 C   0  0  0  0  0  0  0  0  0  0  0  0
    1.2740   -0.7720   -1.9750 N   0  0  0  0  0  0  0  0  0  0  0  0
    1.2100   -2.1740   -2.1260 C   0  0  0  0  0  0  0  0  0  0  0  0
    1.7310   -2.6490   -3.1750 O   0  0  0  0  0  0  0  0  0  0  0  0
  2  1  1  6
  2  3  1  0
  2  4  1  0
  4  5  1  1
  4 39  1  0
  5  6  1  0
  6  7  2  0
  6  8  1  0
  8  9  1  0
  9 10  1  0
 10 11  1  0
 11 12  1  0
 12 13  2  0
 13 14  1  0
 14 15  2  0
 15 16  1  0
 16 17  1  0
 17 18  1  0
 18 19  1  0
 19 20  2  0
 19 21  1  0
 21 22  1  6
 21 26  1  0
 22 23  1  0
 23 24  1  0
 24 25  1  0
 25 26  1  0
 25 27  1  0
 27 28  2  0
 27 29  1  0
 29 30  1  6
 29 38  1  0
 30 31  1  0
 31 32  2  0
 31 37  1  0
 32 33  1  0
 33 34  2  0
 34 35  1  0
 35 36  1  0
 35 37  2  0
 38 39  1  0
 39 40  2  0
M  CHG  1  26   1
M  END
