
     RDKit          3D

 46 49  0  0  0  0  0  0  0  0999 V2000
   -3.9000    3.7760    2.9020 C   0  0  0  0  0  0  0  0  0  0  0  0
   -3.1060    2.9090    2.1460 O   0  0  0  0  0  0  0  0  0  0  0  0
   -3.3890    2.9760    0.8000 C   0  0  2  0  0  0  0  0  0  0  0  0
   -3.9090    1.6500    0.2530 C   0  0  0  0  0  0  0  0  0  0  0  0
   -4.4270    0.7290    1.3300 C   0  0  0  0  0  0  0  0  0  0  0  0
   -3.6860   -0.5750    1.4160 C   0  0  0  0  0  0  0  0  0  0  0  0
   -3.5180   -1.6030    0.6580 C   0  0  0  0  0  0  0  0  0  0  0  0
   -2.7610   -2.9120    0.7660 C   0  0  0  0  0  0  0  0  0  0  0  0
   -3.5470   -4.0420    0.4120 C   0  0  0  0  0  0  0  0  0  0  0  0
   -3.1190   -5.3410    0.3980 C   0  0  0  0  0  0  0  0  0  0  0  0
   -1.8170   -5.5000    0.7650 C   0  0  0  0  0  0  0  0  0  0  0  0
   -0.9700   -4.4230    1.1320 C   0  0  0  0  0  0  0  0  0  0  0  0
   -1.4570   -3.1530    1.1260 C   0  0  0  0  0  0  0  0  0  0  0  0
    0.3640   -5.0090    1.4730 C   0  0  0  0  0  0  0  0  0  0  0  0
    0.7140   -5.9440    0.4220 O   0  0  0  0  0  0  0  0  0  0  0  0
    1.3060   -5.5840   -0.7700 C   0  0  0  0  0  0  0  0  0  0  0  0
    2.2670   -6.2710   -1.2810 O   0  0  0  0  0  0  0  0  0  0  0  0
    0.9270   -4.4040   -1.5910 C   0  0  2  0  0  0  0  0  0  0  0  0
    0.7930   -4.6980   -3.0440 C   0  0  0  0  0  0  0  0  0  0  0  0
    1.7300   -3.8220   -3.8250 C   0  0  0  0  0  0  0  0  0  0  0  0
    1.5180   -2.3700   -3.4750 C   0  0  0  0  0  0  0  0  0  0  0  0
    1.6260   -2.1930   -2.0180 N   0  0  0  0  0  0  0  0  0  0  0  0
    1.9500   -3.3720   -1.3290 N   0  0  0  0  0  0  0  0  0  0  0  0
    1.4100   -0.9340   -1.3980 C   0  0  0  0  0  0  0  0  0  0  0  0
    0.4090   -0.3110   -1.8300 O   0  0  0  0  0  0  0  0  0  0  0  0
    2.2050   -0.3160   -0.3480 C   0  0  2  0  0  0  0  0  0  0  0  0
    1.6580   -0.4720    1.0420 C   0  0  0  0  0  0  0  0  0  0  0  0
    2.5540    0.1760    2.0320 C   0  0  0  0  0  0  0  0  0  0  0  0
    3.5790   -0.6400    2.5280 C   0  0  0  0  0  0  0  0  0  0  0  0
    4.4940   -0.1990    3.4560 C   0  0  0  0  0  0  0  0  0  0  0  0
    4.3870    1.1010    3.9090 C   0  0  0  0  0  0  0  0  0  0  0  0
    3.3810    1.9050    3.4230 C   0  0  0  0  0  0  0  0  0  0  0  0
    3.2860    3.1990    3.8840 O   0  0  0  0  0  0  0  0  0  0  0  0
    2.4550    1.4550    2.4830 C   0  0  0  0  0  0  0  0  0  0  0  0
    2.5290    1.0680   -0.5610 N   0  0  0  0  0  0  0  0  0  0  0  0
    1.9970    2.0680   -1.3540 C   0  0  0  0  0  0  0  0  0  0  0  0
    2.7810    2.4720   -2.3150 O   0  0  0  0  0  0  0  0  0  0  0  0
    0.7010    2.7710   -1.3150 C   0  0  2  0  0  0  0  0  0  0  0  0
    0.7910    4.0490   -2.1940 C   0  0  1  0  0  0  0  0  0  0  0  0
    1.8630    4.9560   -1.6800 C   0  0  0  0  0  0  0  0  0  0  0  0
    1.0000    3.5690   -3.6040 C   0  0  0  0  0  0  0  0  0  0  0  0
    0.3180    3.2500    0.0020 N   0  0  0  0  0  0  0  0  0  0  0  0
   -0.9320    3.1320    0.6090 C   0  0  0  0  0  0  0  0  0  0  0  0
   -0.9770    2.7100    1.8110 O   0  0  0  0  0  0  0  0  0  0  0  0
   -2.2380    3.4590   -0.0290 C   0  0  2  0  0  0  0  0  0  0  0  0
   -2.3850    4.9740   -0.1830 C   0  0  0  0  0  0  0  0  0  0  0  0
  1  2  1  0
  3  2  1  1
  3  4  1  0
  3 45  1  0
  4  5  1  0
  5  6  1  0
  6  7  2  0
  7  8  1  0
  8  9  1  0
  8 13  2  0
  9 10  2  0
 10 11  1  0
 11 12  2  0
 12 13  1  0
 12 14  1  0
 14 15  1  0
 15 16  1  0
 16 17  2  0
 16 18  1  0
 18 19  1  6
 18 23  1  0
 19 20  1  0
 20 21  1  0
 21 22  1  0
 22 23  1  0
 22 24  1  0
 24 25  2  0
 24 26  1  0
 26 27  1  1
 26 35  1  0
 27 28  1  0
 28 29  2  0
 28 34  1  0
 29 30  1  0
 30 31  2  0
 31 32  1  0
 32 33  1  0
 32 34  2  0
 35 36  1  0
 36 37  2  0
 36 38  1  0
 38 39  1  0
 38 42  1  1
 39 40  1  1
 39 41  1  0
 42 43  1  0
 43 44  2  0
 43 45  1  0
 45 46  1  1
M  CHG  1  23   1
M  END
