
     RDKit          3D

 45 48  0  0  0  0  0  0  0  0999 V2000
   -6.5220   -4.9320    2.8670 C   0  0  0  0  0  0  0  0  0  0  0  0
   -6.3710   -3.5680    3.1890 O   0  0  0  0  0  0  0  0  0  0  0  0
   -6.0430   -2.6720    2.1800 C   0  0  0  0  0  0  0  0  0  0  0  0
   -5.8750   -3.1290    0.9000 C   0  0  0  0  0  0  0  0  0  0  0  0
   -5.5540   -2.2950   -0.1270 C   0  0  0  0  0  0  0  0  0  0  0  0
   -5.3820   -0.9100    0.1030 C   0  0  0  0  0  0  0  0  0  0  0  0
   -5.1010   -0.0580   -1.0120 C   0  0  0  0  0  0  0  0  0  0  0  0
   -5.2760   -0.6940   -2.1780 O   0  0  0  0  0  0  0  0  0  0  0  0
   -4.6880    1.2680   -1.1230 N   0  0  0  0  0  0  0  0  0  0  0  0
   -4.4860    1.8000   -2.4770 C   0  0  0  0  0  0  0  0  0  0  0  0
   -3.1280    1.8750   -3.0100 C   0  0  0  0  0  0  0  0  0  0  0  0
   -2.3150    0.6760   -3.0920 C   0  0  0  0  0  0  0  0  0  0  0  0
   -2.4760   -0.3810   -2.4750 O   0  0  0  0  0  0  0  0  0  0  0  0
   -1.1800    0.7110   -4.0040 N   0  0  0  0  0  0  0  0  0  0  0  0
   -0.2910   -0.3790   -4.2030 C   0  0  0  0  0  0  0  0  0  0  0  0
    0.7690   -0.4410   -3.1820 C   0  0  0  0  0  0  0  0  0  0  0  0
    1.9730    0.2450   -3.3540 C   0  0  0  0  0  0  0  0  0  0  0  0
    3.0160    0.1840   -2.4500 C   0  0  0  0  0  0  0  0  0  0  0  0
    2.8830   -0.5860   -1.3150 C   0  0  0  0  0  0  0  0  0  0  0  0
    3.8610   -0.7710   -0.3210 N   0  0  0  0  0  0  0  0  0  0  0  0
    5.1670   -0.2610   -0.2880 C   0  0  0  0  0  0  0  0  0  0  0  0
    5.5620    0.4540   -1.2170 O   0  0  0  0  0  0  0  0  0  0  0  0
    6.1000   -0.5140    0.7610 N   0  0  0  0  0  0  0  0  0  0  0  0
    7.4460    0.0400    0.7260 C   0  0  2  0  0  0  0  0  0  0  0  0
    8.3890   -1.1240    0.4900 C   0  0  0  0  0  0  0  0  0  0  0  0
    9.8310   -0.6890    0.5220 C   0  0  2  0  0  0  0  0  0  0  0  0
   10.6990   -1.9250    0.4190 C   0  0  0  0  0  0  0  0  0  0  0  0
   10.1490    0.1390    1.5550 O   0  0  0  0  0  0  0  0  0  0  0  0
    9.1920    0.3910    2.5010 C   0  0  2  0  0  0  0  0  0  0  0  0
    9.1110   -0.6790    3.5650 C   0  0  0  0  0  0  0  0  0  0  0  0
    7.8370    0.7830    1.9510 C   0  0  0  0  0  0  0  0  0  0  0  0
    1.6690   -1.2650   -1.1580 C   0  0  0  0  0  0  0  0  0  0  0  0
    1.4990   -2.0600   -0.0060 O   0  0  0  0  0  0  0  0  0  0  0  0
    0.2810   -2.7520    0.1680 C   0  0  0  0  0  0  0  0  0  0  0  0
    0.6320   -1.2070   -2.0530 C   0  0  0  0  0  0  0  0  0  0  0  0
   -4.4190    2.1760   -0.0580 C   0  0  0  0  0  0  0  0  0  0  0  0
   -5.6630    2.9440    0.3140 C   0  0  0  0  0  0  0  0  0  0  0  0
   -7.2690    2.8160   -0.4480 S   0  0  0  0  0  0  0  0  0  0  0  0
   -8.0100    4.1080    0.6590 C   0  0  0  0  0  0  0  0  0  0  0  0
   -9.4900    4.4220    0.4120 C   0  0  0  0  0  0  0  0  0  0  0  0
   -7.0990    4.3840    1.3120 N   0  0  0  0  0  0  0  0  0  0  0  0
   -5.8710    3.8980    1.2640 C   0  0  0  0  0  0  0  0  0  0  0  0
   -4.7810    4.3690    2.2030 C   0  0  0  0  0  0  0  0  0  0  0  0
   -5.5520   -0.4530    1.3850 C   0  0  0  0  0  0  0  0  0  0  0  0
   -5.8820   -1.3480    2.4120 C   0  0  0  0  0  0  0  0  0  0  0  0
  1  2  1  0
  2  3  1  0
  3  4  2  0
  3 45  1  0
  4  5  1  0
  5  6  2  0
  6  7  1  0
  6 44  1  0
  7  8  2  0
  7  9  1  0
  9 10  1  0
  9 36  1  0
 10 11  1  0
 11 12  1  0
 12 13  2  0
 12 14  1  0
 14 15  1  0
 15 16  1  0
 16 17  2  0
 16 35  1  0
 17 18  1  0
 18 19  2  0
 19 20  1  0
 19 32  1  0
 20 21  1  0
 21 22  2  0
 21 23  1  0
 24 23  1  1
 24 25  1  0
 24 31  1  0
 25 26  1  0
 26 27  1  1
 26 28  1  0
 28 29  1  0
 29 30  1  6
 29 31  1  0
 32 33  1  0
 32 35  2  0
 33 34  1  0
 36 37  1  0
 37 38  1  0
 37 42  2  0
 38 39  1  0
 39 40  1  0
 39 41  2  0
 41 42  1  0
 42 43  1  0
 44 45  2  0
M  END
