
     RDKit          3D

 45 48  0  0  0  0  0  0  0  0999 V2000
   -7.9140    5.1820    0.3470 C   0  0  0  0  0  0  0  0  0  0  0  0
   -8.0310    3.9680    1.1930 C   0  0  0  0  0  0  0  0  0  0  0  0
   -6.8040    3.1700    1.3350 C   0  0  0  0  0  0  0  0  0  0  0  0
   -6.1990    2.5760    0.0980 C   0  0  1  0  0  0  0  0  0  0  0  0
   -5.7620    3.5590   -0.9280 C   0  0  0  0  0  0  0  0  0  0  0  0
   -5.0450    1.7140    0.5430 C   0  0  2  0  0  0  0  0  0  0  0  0
   -4.0980    2.5000    1.1860 O   0  0  0  0  0  0  0  0  0  0  0  0
   -4.4660    0.9140   -0.5580 C   0  0  0  0  0  0  0  0  0  0  0  0
   -3.4390   -0.0120   -0.1070 N   0  0  0  0  0  0  0  0  0  0  0  0
   -2.1360    0.5700   -0.1330 C   0  0  0  0  0  0  0  0  0  0  0  0
   -0.8910    0.1290    0.2000 C   0  0  0  0  0  0  0  0  0  0  0  0
    0.1280    1.1240   -0.0170 C   0  0  0  0  0  0  0  0  0  0  0  0
   -0.3580    2.2980   -0.3450 O   0  0  0  0  0  0  0  0  0  0  0  0
    1.5140    1.0670    0.0540 N   0  0  0  0  0  0  0  0  0  0  0  0
    2.2580    2.3490    0.0170 C   0  0  0  0  0  0  0  0  0  0  0  0
    2.4910    2.6800   -1.4200 C   0  0  0  0  0  0  0  0  0  0  0  0
    2.8320    1.1620   -2.3750 S   0  0  0  0  0  0  0  0  0  0  0  0
    3.0540   -0.2410   -1.2810 C   0  0  1  0  0  0  0  0  0  0  0  0
    4.4740   -0.5500   -1.1480 C   0  0  0  0  0  0  0  0  0  0  0  0
    4.8910   -1.7060   -1.4420 O   0  0  0  0  0  0  0  0  0  0  0  0
    5.4750    0.3570   -0.7020 N   0  0  0  0  0  0  0  0  0  0  0  0
    6.8450   -0.0170   -0.5970 C   0  0  0  0  0  0  0  0  0  0  0  0
    7.6610    0.1650   -1.6890 C   0  0  0  0  0  0  0  0  0  0  0  0
    7.0960    0.7350   -2.9190 C   0  0  0  0  0  0  0  0  0  0  0  0
    9.0100   -0.1760   -1.6600 C   0  0  0  0  0  0  0  0  0  0  0  0
    9.5590   -0.7130   -0.5140 C   0  0  0  0  0  0  0  0  0  0  0  0
   10.8730   -1.0570   -0.4560 F   0  0  0  0  0  0  0  0  0  0  0  0
    8.7350   -0.8930    0.5750 C   0  0  0  0  0  0  0  0  0  0  0  0
    7.3770   -0.5500    0.5470 C   0  0  0  0  0  0  0  0  0  0  0  0
    6.5100   -0.7520    1.7300 C   0  0  0  0  0  0  0  0  0  0  0  0
    6.2120    0.5330    2.4580 C   0  0  0  0  0  0  0  0  0  0  0  0
    2.3250   -0.1030    0.0560 C   0  0  0  0  0  0  0  0  0  0  0  0
   -0.5190   -1.1250    0.8310 C   0  0  0  0  0  0  0  0  0  0  0  0
    0.1390   -0.8480    1.9150 O   0  0  0  0  0  0  0  0  0  0  0  0
   -0.6950   -2.5310    0.5630 C   0  0  0  0  0  0  0  0  0  0  0  0
   -2.0340   -2.9540    0.0500 C   0  0  1  0  0  0  0  0  0  0  0  0
   -2.1040   -4.4310   -0.0480 C   0  0  0  0  0  0  0  0  0  0  0  0
   -1.9370   -5.1750    1.0980 C   0  0  0  0  0  0  0  0  0  0  0  0
   -1.9960   -6.5640    1.0550 C   0  0  0  0  0  0  0  0  0  0  0  0
   -2.2180   -7.1660   -0.1240 N   0  0  0  0  0  0  0  0  0  0  0  0
   -2.3880   -6.4960   -1.2660 C   0  0  0  0  0  0  0  0  0  0  0  0
   -2.3290   -5.1210   -1.2190 C   0  0  0  0  0  0  0  0  0  0  0  0
   -3.2040   -2.4870    0.8390 C   0  0  0  0  0  0  0  0  0  0  0  0
   -3.9050   -1.3050    0.2680 C   0  0  0  0  0  0  0  0  0  0  0  0
   -5.1150   -1.4170    0.0640 O   0  0  0  0  0  0  0  0  0  0  0  0
  1  2  1  0
  2  3  1  0
  3  4  1  0
  4  5  1  6
  4  6  1  0
  6  7  1  6
  6  8  1  0
  8  9  1  0
  9 10  1  0
  9 44  1  0
 10 11  2  0
 11 12  1  0
 11 33  1  0
 12 13  2  0
 12 14  1  0
 14 15  1  0
 14 32  1  0
 15 16  1  0
 16 17  1  0
 17 18  1  0
 18 19  1  1
 18 32  1  0
 19 20  2  0
 19 21  1  0
 21 22  1  0
 22 23  2  0
 22 29  1  0
 23 24  1  0
 23 25  1  0
 25 26  2  0
 26 27  1  0
 26 28  1  0
 28 29  2  0
 29 30  1  0
 30 31  1  0
 33 34  2  0
 33 35  1  0
 35 36  1  0
 36 37  1  1
 36 43  1  0
 37 38  2  0
 37 42  1  0
 38 39  1  0
 39 40  2  0
 40 41  1  0
 41 42  2  0
 43 44  1  0
 44 45  2  0
M  CHG  1  40   1
M  END
