
     RDKit          3D

 45 48  0  0  0  0  0  0  0  0999 V2000
  -10.4110   -1.8260    2.0990 C   0  0  0  0  0  0  0  0  0  0  0  0
   -9.3170   -2.8620    1.6530 C   0  0  0  0  0  0  0  0  0  0  0  0
   -8.3450   -2.2220    1.1630 O   0  0  0  0  0  0  0  0  0  0  0  0
   -7.3310   -1.6100    0.6630 C   0  0  0  0  0  0  0  0  0  0  0  0
   -6.3450   -2.6260    0.5690 O   0  0  0  0  0  0  0  0  0  0  0  0
   -6.9370   -0.3810    0.2210 C   0  0  2  0  0  0  0  0  0  0  0  0
   -5.5340   -0.1830   -0.0570 N   0  0  0  0  0  0  0  0  0  0  0  0
   -4.4970   -0.3020    0.8590 C   0  0  0  0  0  0  0  0  0  0  0  0
   -4.8040   -0.7800    2.0640 O   0  0  0  0  0  0  0  0  0  0  0  0
   -3.0920    0.0700    0.6060 C   0  0  0  0  0  0  0  0  0  0  0  0
   -2.1590   -0.0570    1.6330 C   0  0  0  0  0  0  0  0  0  0  0  0
   -0.8380    0.4110    1.4490 C   0  0  0  0  0  0  0  0  0  0  0  0
    0.1010    0.3390    2.4110 F   0  0  0  0  0  0  0  0  0  0  0  0
   -0.4820    1.0020    0.2210 C   0  0  0  0  0  0  0  0  0  0  0  0
    0.8410    1.4920    0.0190 O   0  0  0  0  0  0  0  0  0  0  0  0
    0.9380    1.9000   -1.3960 C   0  0  0  0  0  0  0  0  0  0  0  0
    1.6280    1.2780   -2.2170 C   0  0  0  0  0  0  0  0  0  0  0  0
    2.0600    1.1660   -3.5680 C   0  0  0  0  0  0  0  0  0  0  0  0
    2.8840    0.7770   -1.3250 C   0  0  0  0  0  0  0  0  0  0  0  0
    3.9730    1.3800   -1.7280 C   0  0  0  0  0  0  0  0  0  0  0  0
    5.0820    1.2860   -0.8490 C   0  0  0  0  0  0  0  0  0  0  0  0
    5.0340    0.6650    0.2690 C   0  0  0  0  0  0  0  0  0  0  0  0
    6.0900    0.6450    1.3310 C   0  0  0  0  0  0  0  0  0  0  0  0
    7.4070    0.2260    0.9660 N   0  0  1  0  0  0  0  0  0  0  0  0
    7.5380   -1.1560    1.3450 C   0  0  0  0  0  0  0  0  0  0  0  0
    8.8280   -1.8120    1.0690 C   0  0  0  0  0  0  0  0  0  0  0  0
    9.5210   -1.3200   -0.1700 C   0  0  2  0  0  0  0  0  0  0  0  0
    9.4530   -2.1860   -1.2420 C   0  0  0  0  0  0  0  0  0  0  0  0
    9.3940   -3.0350   -2.3270 N   0  0  0  0  0  0  0  0  0  0  0  0
   11.0160   -1.2800    0.2130 N   0  0  0  0  0  0  0  0  0  0  0  0
   11.4650   -2.6230    0.5050 C   0  0  0  0  0  0  0  0  0  0  0  0
    9.2690    0.0950   -0.5470 C   0  0  0  0  0  0  0  0  0  0  0  0
    7.8170    0.4740   -0.3760 C   0  0  0  0  0  0  0  0  0  0  0  0
    3.7570   -0.0440    0.7420 C   0  0  0  0  0  0  0  0  0  0  0  0
    2.7260    0.1080   -0.2200 C   0  0  0  0  0  0  0  0  0  0  0  0
   -1.4500    1.0640   -0.7080 C   0  0  0  0  0  0  0  0  0  0  0  0
   -2.7950    0.6150   -0.5730 C   0  0  0  0  0  0  0  0  0  0  0  0
   -3.5660    0.8460   -1.6600 O   0  0  0  0  0  0  0  0  0  0  0  0
   -3.4360    1.3780   -2.8730 C   0  0  0  0  0  0  0  0  0  0  0  0
   -7.4140    0.8770    0.9880 C   0  0  0  0  0  0  0  0  0  0  0  0
   -7.0850    1.9860    0.0210 C   0  0  0  0  0  0  0  0  0  0  0  0
   -7.2000    1.4080   -1.3370 C   0  0  0  0  0  0  0  0  0  0  0  0
   -7.6310   -0.0400   -1.1530 C   0  0  2  0  0  0  0  0  0  0  0  0
   -9.3850   -0.2260   -1.1790 S   0  0  0  0  0  0  0  0  0  0  0  0
  -10.3420    0.9620   -0.2710 C   0  0  0  0  0  0  0  0  0  0  0  0
  1  2  1  0
  2  3  1  0
  3  4  1  0
  4  5  2  0
  4  6  1  0
  6  7  1  6
  6 40  1  0
  6 43  1  0
  7  8  1  0
  8  9  2  0
  8 10  1  0
 10 11  2  0
 10 37  1  0
 11 12  1  0
 12 13  1  0
 12 14  2  0
 14 15  1  0
 14 36  1  0
 15 16  1  0
 16 17  2  3
 17 18  1  0
 17 19  1  0
 19 20  2  0
 19 35  1  0
 20 21  1  0
 21 22  2  0
 22 23  1  0
 22 34  1  0
 24 23  1  6
 24 25  1  0
 24 33  1  0
 25 26  1  0
 26 27  1  0
 27 28  1  6
 27 30  1  0
 27 32  1  0
 28 29  3  0
 30 31  1  0
 32 33  1  0
 34 35  2  0
 36 37  2  0
 37 38  1  0
 38 39  1  0
 40 41  1  0
 41 42  1  0
 42 43  1  0
 43 44  1  1
 44 45  1  0
M  CHG  1  24   1
M  END
