
     RDKit          3D

 45 47  0  0  0  0  0  0  0  0999 V2000
    2.3890   -1.7290   -4.2560 C   0  0  0  0  0  0  0  0  0  0  0  0
    2.4020   -0.8940   -3.0450 C   0  0  0  0  0  0  0  0  0  0  0  0
    3.5600   -0.7700   -2.1530 C   0  0  0  0  0  0  0  0  0  0  0  0
    4.6910   -1.3800   -2.3720 C   0  0  0  0  0  0  0  0  0  0  0  0
    5.8600   -1.2610   -1.4800 C   0  0  0  0  0  0  0  0  0  0  0  0
    6.9280   -1.8850   -1.7900 O   0  0  0  0  0  0  0  0  0  0  0  0
    5.8780   -0.4980   -0.2950 N   0  0  0  0  0  0  0  0  0  0  0  0
    6.9520   -0.3310    0.6030 C   0  0  0  0  0  0  0  0  0  0  0  0
    8.2340   -0.8080    0.4260 C   0  0  0  0  0  0  0  0  0  0  0  0
    9.1840   -0.5730    1.3470 C   0  0  0  0  0  0  0  0  0  0  0  0
   10.8980   -1.2220    0.9940 S   0  0  0  0  0  0  0  0  0  0  0  0
   11.9480   -0.9830    2.2260 C   0  0  0  0  0  0  0  0  0  0  0  0
   11.1470    0.2060    0.2440 C   0  0  0  0  0  0  0  0  0  0  0  0
   11.0710   -1.9980   -0.3360 O   0  0  0  0  0  0  0  0  0  0  0  0
    8.9980    0.1140    2.4810 C   0  0  0  0  0  0  0  0  0  0  0  0
    7.7230    0.6100    2.6960 C   0  0  0  0  0  0  0  0  0  0  0  0
    6.7140    0.3980    1.7820 C   0  0  0  0  0  0  0  0  0  0  0  0
    5.3450    0.9260    2.0140 C   0  0  0  0  0  0  0  0  0  0  0  0
    1.2870   -0.2240   -2.7420 C   0  0  0  0  0  0  0  0  0  0  0  0
    0.1000   -0.2980   -3.5540 C   0  0  0  0  0  0  0  0  0  0  0  0
   -1.0140    0.3500   -3.3050 C   0  0  0  0  0  0  0  0  0  0  0  0
   -2.1830    0.3010   -4.0670 O   0  0  0  0  0  0  0  0  0  0  0  0
   -3.1520    1.1070   -3.5180 C   0  0  0  0  0  0  0  0  0  0  0  0
   -4.3270    1.2630   -3.9980 O   0  0  0  0  0  0  0  0  0  0  0  0
   -2.6510    1.7480   -2.3240 N   0  0  0  0  0  0  0  0  0  0  0  0
   -3.4190    2.7020   -1.6060 C   0  0  0  0  0  0  0  0  0  0  0  0
   -4.4470    2.2200   -0.6450 C   0  0  0  0  0  0  0  0  0  0  0  0
   -4.1520    1.4580    0.4770 N   0  0  2  0  0  0  0  0  0  0  0  0
   -2.7240    1.4630    0.8290 C   0  0  0  0  0  0  0  0  0  0  0  0
   -4.5330    0.0730    0.4630 C   0  0  0  0  0  0  0  0  0  0  0  0
   -5.8570   -0.3040   -0.0390 C   0  0  2  0  0  0  0  0  0  0  0  0
   -7.0280    0.1880    0.5540 N   0  0  0  0  0  0  0  0  0  0  0  0
   -7.3940    1.5320    0.5530 C   0  0  0  0  0  0  0  0  0  0  0  0
   -8.7530    1.6120    1.2990 C   0  0  2  0  0  0  0  0  0  0  0  0
   -9.1610    3.0580    1.3010 C   0  0  0  0  0  0  0  0  0  0  0  0
   -8.4260    1.2280    2.7300 C   0  0  0  0  0  0  0  0  0  0  0  0
   -5.9950   -1.8140    0.0370 C   0  0  0  0  0  0  0  0  0  0  0  0
   -4.9300   -2.5530    0.4480 C   0  0  0  0  0  0  0  0  0  0  0  0
   -5.0090   -3.9590    0.5380 C   0  0  0  0  0  0  0  0  0  0  0  0
   -6.1840   -4.5800    0.2010 C   0  0  0  0  0  0  0  0  0  0  0  0
   -7.2420   -3.8110   -0.2100 C   0  0  0  0  0  0  0  0  0  0  0  0
   -7.1820   -2.4320   -0.3040 C   0  0  0  0  0  0  0  0  0  0  0  0
   -8.2010   -1.6510   -0.7050 F   0  0  0  0  0  0  0  0  0  0  0  0
   -1.3230    1.2690   -2.2060 C   0  0  0  0  0  0  0  0  0  0  0  0
   -0.5130    1.5700   -1.3150 O   0  0  0  0  0  0  0  0  0  0  0  0
  1  2  1  0
  2  3  1  0
  2 19  2  3
  3  4  2  3
  4  5  1  0
  5  6  2  0
  5  7  1  0
  7  8  1  0
  8  9  2  0
  8 17  1  0
  9 10  1  0
 10 11  1  0
 10 15  2  0
 11 12  1  0
 11 13  1  0
 11 14  2  0
 15 16  1  0
 16 17  2  0
 17 18  1  0
 19 20  1  0
 20 21  2  3
 21 22  1  0
 21 44  1  0
 22 23  1  0
 23 24  2  0
 23 25  1  0
 25 26  1  0
 25 44  1  0
 26 27  1  0
 27 28  1  0
 28 29  1  6
 28 30  1  0
 31 30  1  1
 31 32  1  0
 31 37  1  0
 32 33  1  0
 33 34  1  0
 34 35  1  1
 34 36  1  0
 37 38  2  0
 37 42  1  0
 38 39  1  0
 39 40  2  0
 40 41  1  0
 41 42  2  0
 42 43  1  0
 44 45  2  0
M  CHG  1  28   1
M  END
