
     RDKit          3D

 40 44  0  0  0  0  0  0  0  0999 V2000
   -3.6290   -2.1660    5.1270 C   0  0  0  0  0  0  0  0  0  0  0  0
   -3.9150   -1.9480    3.6800 C   0  0  0  0  0  0  0  0  0  0  0  0
   -3.0230   -1.2560    2.9190 C   0  0  0  0  0  0  0  0  0  0  0  0
   -3.2250   -1.0160    1.5570 C   0  0  0  0  0  0  0  0  0  0  0  0
   -2.2360   -0.2670    0.7880 C   0  0  0  0  0  0  0  0  0  0  0  0
   -1.1860    0.1290    1.5490 N   0  0  0  0  0  0  0  0  0  0  0  0
   -0.1520    0.8700    0.9140 C   0  0  0  0  0  0  0  0  0  0  0  0
   -0.3310    2.1360    0.6960 C   0  0  0  0  0  0  0  0  0  0  0  0
    0.5440    3.1020    0.0730 C   0  0  0  0  0  0  0  0  0  0  0  0
    1.0000    4.2680    0.7220 C   0  0  0  0  0  0  0  0  0  0  0  0
    1.7720    5.0160   -0.1300 C   0  0  0  0  0  0  0  0  0  0  0  0
    2.4570    6.3140    0.1250 C   0  0  0  0  0  0  0  0  0  0  0  0
    3.1780    6.7080   -1.0690 N   0  0  0  0  0  0  0  0  0  0  0  0
    1.7920    4.3150   -1.3040 C   0  0  0  0  0  0  0  0  0  0  0  0
    1.0490    3.1730   -1.1590 N   0  0  0  0  0  0  0  0  0  0  0  0
    0.8380    2.2330   -2.2320 C   0  0  0  0  0  0  0  0  0  0  0  0
    1.0740    0.1080    0.6420 C   0  0  0  0  0  0  0  0  0  0  0  0
    2.0520    0.7220    0.1780 O   0  0  0  0  0  0  0  0  0  0  0  0
    1.1820   -1.2780    0.8840 N   0  0  0  0  0  0  0  0  0  0  0  0
    2.2980   -2.0990    0.6600 C   0  0  0  0  0  0  0  0  0  0  0  0
    3.5100   -1.7210    0.1390 C   0  0  0  0  0  0  0  0  0  0  0  0
    4.5830   -2.5960   -0.0600 C   0  0  0  0  0  0  0  0  0  0  0  0
    4.4320   -3.9170    0.2810 C   0  0  0  0  0  0  0  0  0  0  0  0
    3.2250   -4.3260    0.8070 C   0  0  0  0  0  0  0  0  0  0  0  0
    2.1750   -3.4530    0.9980 C   0  0  0  0  0  0  0  0  0  0  0  0
    0.9900   -3.9410    1.5330 O   0  0  0  0  0  0  0  0  0  0  0  0
    5.7180   -4.5900   -0.0380 C   0  0  0  0  0  0  0  0  0  0  0  0
    6.6810   -3.4210   -0.0260 C   0  0  0  0  0  0  0  0  0  0  0  0
    5.8680   -2.3860   -0.5700 O   0  0  0  0  0  0  0  0  0  0  0  0
   -2.2310    0.1560   -0.8860 S   0  0  0  0  0  0  0  0  0  0  0  0
   -3.5520   -0.3210   -1.9130 C   0  0  0  0  0  0  0  0  0  0  0  0
   -3.3080    0.1470   -3.3430 C   0  0  0  0  0  0  0  0  0  0  0  0
   -3.6890    1.3320   -3.7990 N   0  0  0  0  0  0  0  0  0  0  0  0
   -3.3120    1.4020   -5.0990 C   0  0  0  0  0  0  0  0  0  0  0  0
   -2.6860    0.2230   -5.4350 C   0  0  0  0  0  0  0  0  0  0  0  0
   -2.7000   -0.5310   -4.3260 N   0  0  0  0  0  0  0  0  0  0  0  0
   -4.3730   -1.5170    1.0290 C   0  0  0  0  0  0  0  0  0  0  0  0
   -5.2840   -2.2280    1.8180 C   0  0  0  0  0  0  0  0  0  0  0  0
   -5.0700   -2.4530    3.1510 C   0  0  0  0  0  0  0  0  0  0  0  0
   -5.9730   -3.1570    3.9310 O   0  0  0  0  0  0  0  0  0  0  0  0
  1  2  1  0
  2  3  2  0
  2 39  1  0
  3  4  1  0
  4  5  1  0
  4 37  2  0
  5  6  2  3
  5 30  1  0
  6  7  1  0
  7  8  2  3
  7 17  1  0
  8  9  1  0
  9 10  2  0
  9 15  1  0
 10 11  1  0
 11 12  1  0
 11 14  2  0
 12 13  1  0
 14 15  1  0
 15 16  1  0
 17 18  2  0
 17 19  1  0
 19 20  1  0
 20 21  2  0
 20 25  1  0
 21 22  1  0
 22 23  2  0
 22 29  1  0
 23 24  1  0
 23 27  1  0
 24 25  2  0
 25 26  1  0
 27 28  1  0
 28 29  1  0
 30 31  1  0
 31 32  1  0
 32 33  1  0
 32 36  2  0
 33 34  1  0
 34 35  2  0
 35 36  1  0
 37 38  1  0
 38 39  2  0
 39 40  1  0
M  CHG  2  13   1  36   1
M  END
