
     RDKit          3D

 40 42  0  0  0  0  0  0  0  0999 V2000
   -0.9650    0.9560   -2.3650 O   0  0  0  0  0  0  0  0  0  0  0  0
   -1.7110    0.5580   -1.3940 C   0  0  0  0  0  0  0  0  0  0  0  0
   -3.1410    0.6560   -1.6050 C   0  0  0  0  0  0  0  0  0  0  0  0
   -4.0060    0.2520   -0.5500 N   0  0  0  0  0  0  0  0  0  0  0  0
   -4.2240   -1.1040   -0.3260 C   0  0  0  0  0  0  0  0  0  0  0  0
   -5.1650   -1.6820   -1.4310 C   0  0  2  0  0  0  0  0  0  0  0  0
   -6.5630   -1.0720   -1.1830 C   0  0  0  0  0  0  0  0  0  0  0  0
   -7.3100   -2.0710   -0.3650 C   0  0  0  0  0  0  0  0  0  0  0  0
   -6.4530   -3.2980   -0.5270 C   0  0  0  0  0  0  0  0  0  0  0  0
   -5.3850   -3.0030   -1.3090 O   0  0  0  0  0  0  0  0  0  0  0  0
   -4.0700    1.1740    0.5360 C   0  0  2  0  0  0  0  0  0  0  0  0
   -4.2480    0.6660    1.8980 C   0  0  0  0  0  0  0  0  0  0  0  0
   -5.7540    1.3800    2.5010 S   0  0  1  0  0  0  0  0  0  0  0  0
   -6.7650    0.3290    2.8650 O   0  0  0  0  0  0  0  0  0  0  0  0
   -5.5610    2.2550    3.6960 O   0  0  0  0  0  0  0  0  0  0  0  0
   -6.2210    2.2890    1.0520 C   0  0  0  0  0  0  0  0  0  0  0  0
   -4.9760    2.3140    0.2400 C   0  0  2  0  0  0  0  0  0  0  0  0
   -5.3730    2.2490   -1.1130 O   0  0  0  0  0  0  0  0  0  0  0  0
   -1.1210    0.0810   -0.2090 N   0  0  0  0  0  0  0  0  0  0  0  0
    0.2950    0.1440   -0.0820 C   0  0  0  0  0  0  0  0  0  0  0  0
    0.9040    1.3150   -0.5280 C   0  0  0  0  0  0  0  0  0  0  0  0
    2.2340    1.4980   -0.4220 C   0  0  0  0  0  0  0  0  0  0  0  0
    3.0810    0.5120    0.1390 C   0  0  0  0  0  0  0  0  0  0  0  0
    4.4100    0.8390    0.2290 N   0  0  0  0  0  0  0  0  0  0  0  0
    5.4910    0.0650    0.1370 C   0  0  0  0  0  0  0  0  0  0  0  0
    6.6340    0.8090    0.2800 C   0  0  0  0  0  0  0  0  0  0  0  0
    8.0960    0.1570    0.2260 C   0  0  0  0  0  0  0  0  0  0  0  0
    7.6670   -1.2280    0.0010 C   0  0  0  0  0  0  0  0  0  0  0  0
    8.6600   -2.1470   -0.0550 C   0  0  0  0  0  0  0  0  0  0  0  0
    8.1880   -3.4520   -0.2650 F   0  0  0  0  0  0  0  0  0  0  0  0
   10.0750   -1.9570    0.0390 C   0  0  0  0  0  0  0  0  0  0  0  0
   10.6010   -0.5910    0.2280 C   0  0  2  0  0  0  0  0  0  0  0  0
   12.0210   -0.6680    0.2630 F   0  0  0  0  0  0  0  0  0  0  0  0
   10.3240   -0.1370    1.5250 F   0  0  0  0  0  0  0  0  0  0  0  0
    6.7410    2.2520    0.4880 C   0  0  2  0  0  0  0  0  0  0  0  0
    8.0040    2.6730    0.7470 F   0  0  0  0  0  0  0  0  0  0  0  0
    5.8990    2.5950    1.5680 F   0  0  0  0  0  0  0  0  0  0  0  0
    6.1910    2.9170   -0.6170 F   0  0  0  0  0  0  0  0  0  0  0  0
    2.4500   -0.6270    0.5670 C   0  0  0  0  0  0  0  0  0  0  0  0
    1.0700   -0.8400    0.4720 C   0  0  0  0  0  0  0  0  0  0  0  0
  1  2  2  0
  2  3  1  0
  2 19  1  0
  3  4  1  0
  4  5  1  0
 11  4  1  6
  6  5  1  1
  6  7  1  0
  6 10  1  0
  7  8  1  0
  8  9  1  0
  9 10  1  0
 11 12  1  0
 11 17  1  0
 13 12  1  6
 13 14  2  0
 13 15  2  0
 13 16  1  0
 16 17  1  0
 17 18  1  6
 19 20  1  0
 20 21  2  0
 20 40  1  0
 21 22  1  0
 22 23  2  0
 23 24  1  0
 23 39  1  0
 24 25  2  3
 25 26  1  0
 26 27  2  3
 26 35  1  0
 27 28  1  0
 28 29  2  3
 29 30  1  0
 29 31  1  0
 31 32  1  0
 32 33  1  1
 32 34  1  0
 35 36  1  1
 35 37  1  0
 35 38  1  0
 39 40  2  0
M  END
