
     RDKit          3D

 40 42  0  0  0  0  0  0  0  0999 V2000
   -6.1600    3.2920   -0.7940 C   0  0  0  0  0  0  0  0  0  0  0  0
   -5.1180    2.5510   -1.2880 O   0  0  0  0  0  0  0  0  0  0  0  0
   -4.2600    2.0450   -0.2860 C   0  0  2  0  0  0  0  0  0  0  0  0
   -2.9890    2.8090   -0.3840 C   0  0  0  0  0  0  0  0  0  0  0  0
   -2.3220    3.0340    0.9590 C   0  0  0  0  0  0  0  0  0  0  0  0
   -0.8310    2.9860    0.8940 C   0  0  0  0  0  0  0  0  0  0  0  0
    0.1120    3.7660    0.4720 C   0  0  0  0  0  0  0  0  0  0  0  0
    1.6200    3.7000    0.4140 C   0  0  0  0  0  0  0  0  0  0  0  0
    2.2420    4.8710    0.9250 C   0  0  0  0  0  0  0  0  0  0  0  0
    3.5880    5.0920    0.9920 C   0  0  0  0  0  0  0  0  0  0  0  0
    4.3520    4.0660    0.5100 C   0  0  0  0  0  0  0  0  0  0  0  0
    3.8060    2.8720   -0.0150 C   0  0  0  0  0  0  0  0  0  0  0  0
    2.4580    2.7130   -0.0510 C   0  0  0  0  0  0  0  0  0  0  0  0
    4.9230    1.9550   -0.4460 C   0  0  1  0  0  0  0  0  0  0  0  0
    6.1840    2.7520   -0.8330 C   0  0  0  0  0  0  0  0  0  0  0  0
    5.3300    1.0790    0.5900 O   0  0  0  0  0  0  0  0  0  0  0  0
    4.6620    0.0960    1.2210 C   0  0  0  0  0  0  0  0  0  0  0  0
    4.4320    0.1170    2.4610 O   0  0  0  0  0  0  0  0  0  0  0  0
    4.1500   -1.0850    0.4960 C   0  0  2  0  0  0  0  0  0  0  0  0
    5.2200   -1.6250   -0.4420 C   0  0  0  0  0  0  0  0  0  0  0  0
    4.7270   -2.9330   -1.0270 C   0  0  0  0  0  0  0  0  0  0  0  0
    3.3260   -2.8500   -1.5270 C   0  0  0  0  0  0  0  0  0  0  0  0
    2.4250   -2.1170   -0.6200 N   0  0  0  0  0  0  0  0  0  0  0  0
    2.9030   -0.8860   -0.1600 N   0  0  0  0  0  0  0  0  0  0  0  0
    1.1580   -2.6540   -0.2710 C   0  0  0  0  0  0  0  0  0  0  0  0
    0.6730   -3.5030   -1.0820 O   0  0  0  0  0  0  0  0  0  0  0  0
    0.4150   -2.2700    0.9560 C   0  0  2  0  0  0  0  0  0  0  0  0
    1.3540   -2.6180    2.1310 C   0  0  0  0  0  0  0  0  0  0  0  0
   -0.7110   -3.1550    1.1200 N   0  0  0  0  0  0  0  0  0  0  0  0
   -2.0620   -2.8570    1.3520 C   0  0  0  0  0  0  0  0  0  0  0  0
   -2.5830   -3.2110    2.4940 O   0  0  0  0  0  0  0  0  0  0  0  0
   -3.0230   -2.1790    0.4590 C   0  0  2  0  0  0  0  0  0  0  0  0
   -3.8060   -3.1970   -0.3630 C   0  0  1  0  0  0  0  0  0  0  0  0
   -2.9200   -4.0490   -1.2350 C   0  0  0  0  0  0  0  0  0  0  0  0
   -4.5630   -4.1530    0.5390 C   0  0  0  0  0  0  0  0  0  0  0  0
   -2.4150   -1.2400   -0.4300 N   0  0  0  0  0  0  0  0  0  0  0  0
   -3.0710   -0.0760   -0.9580 C   0  0  0  0  0  0  0  0  0  0  0  0
   -2.6160    0.3840   -2.0370 O   0  0  0  0  0  0  0  0  0  0  0  0
   -4.2050    0.5760   -0.3220 C   0  0  2  0  0  0  0  0  0  0  0  0
   -5.4740    0.0370   -1.0030 C   0  0  0  0  0  0  0  0  0  0  0  0
  1  2  1  0
  3  2  1  6
  3  4  1  0
  3 39  1  0
  4  5  1  0
  5  6  1  0
  6  7  2  0
  7  8  1  0
  8  9  1  0
  8 13  2  0
  9 10  2  0
 10 11  1  0
 11 12  2  0
 12 13  1  0
 12 14  1  0
 14 15  1  1
 14 16  1  0
 16 17  1  0
 17 18  2  0
 17 19  1  0
 19 20  1  6
 19 24  1  0
 20 21  1  0
 21 22  1  0
 22 23  1  0
 23 24  1  0
 23 25  1  0
 25 26  2  0
 25 27  1  0
 27 28  1  1
 27 29  1  0
 29 30  1  0
 30 31  2  0
 30 32  1  0
 32 33  1  0
 32 36  1  6
 33 34  1  1
 33 35  1  0
 36 37  1  0
 37 38  2  0
 37 39  1  0
 39 40  1  6
M  CHG  1  24   1
M  END
