
     RDKit          3D

 40 43  0  0  0  0  0  0  0  0999 V2000
    7.1530   -4.0930    0.9900 C   0  0  0  0  0  0  0  0  0  0  0  0
    5.9680   -3.3030    1.2670 N   0  0  0  0  0  0  0  0  0  0  0  0
    5.3290   -2.9450    0.0100 C   0  0  0  0  0  0  0  0  0  0  0  0
    4.1540   -2.0730    0.2510 C   0  0  0  0  0  0  0  0  0  0  0  0
    3.8110   -1.7170    1.5390 C   0  0  0  0  0  0  0  0  0  0  0  0
    2.7170   -0.9010    1.8170 C   0  0  0  0  0  0  0  0  0  0  0  0
    1.9940   -0.4680    0.7300 C   0  0  0  0  0  0  0  0  0  0  0  0
    0.8200    0.4040    0.9870 C   0  0  0  0  0  0  0  0  0  0  0  0
    0.1640    0.7630   -0.2150 O   0  0  0  0  0  0  0  0  0  0  0  0
   -0.9400    1.5660   -0.1300 C   0  0  0  0  0  0  0  0  0  0  0  0
   -2.1290    1.0390   -0.1050 C   0  0  0  0  0  0  0  0  0  0  0  0
   -2.3670   -0.4140   -0.1640 C   0  0  0  0  0  0  0  0  0  0  0  0
   -1.3930   -1.1930   -0.2480 O   0  0  0  0  0  0  0  0  0  0  0  0
   -3.6700   -0.9450   -0.1280 N   0  0  0  0  0  0  0  0  0  0  0  0
   -4.0740   -2.2880   -0.1710 C   0  0  0  0  0  0  0  0  0  0  0  0
   -3.2060   -3.3310   -0.0910 C   0  0  0  0  0  0  0  0  0  0  0  0
   -3.5990   -4.6650   -0.1440 C   0  0  0  0  0  0  0  0  0  0  0  0
   -4.9310   -4.9830   -0.2830 C   0  0  0  0  0  0  0  0  0  0  0  0
   -5.8200   -3.9530   -0.3650 C   0  0  0  0  0  0  0  0  0  0  0  0
   -5.4290   -2.6180   -0.3120 C   0  0  0  0  0  0  0  0  0  0  0  0
   -7.1610   -4.4420   -0.5060 N   0  0  0  0  0  0  0  0  0  0  0  0
   -7.0930   -5.8200   -0.0840 C   0  0  0  0  0  0  0  0  0  0  0  0
   -5.6830   -6.2620   -0.3710 C   0  0  0  0  0  0  0  0  0  0  0  0
   -0.7660    3.0150   -0.0700 C   0  0  0  0  0  0  0  0  0  0  0  0
   -1.7600    3.7860    0.0180 O   0  0  0  0  0  0  0  0  0  0  0  0
    0.5200    3.6180   -0.1080 N   0  0  0  0  0  0  0  0  0  0  0  0
    0.8220    4.9940   -0.0550 C   0  0  0  0  0  0  0  0  0  0  0  0
    2.4460    5.3470   -0.1250 S   0  0  0  0  0  0  0  0  0  0  0  0
   -0.0850    6.0320    0.0920 N   0  0  0  0  0  0  0  0  0  0  0  0
    0.2530    7.4100    0.1180 C   0  0  0  0  0  0  0  0  0  0  0  0
    1.2660    7.9040   -0.6360 C   0  0  0  0  0  0  0  0  0  0  0  0
    1.5760    9.2650   -0.5460 C   0  0  0  0  0  0  0  0  0  0  0  0
    0.8760   10.1050    0.2880 C   0  0  0  0  0  0  0  0  0  0  0  0
   -0.1630    9.6070    1.0630 C   0  0  0  0  0  0  0  0  0  0  0  0
   -0.4530    8.2780    0.9640 C   0  0  0  0  0  0  0  0  0  0  0  0
    2.2910   -0.7910   -0.5620 C   0  0  0  0  0  0  0  0  0  0  0  0
    3.3910   -1.6080   -0.7910 C   0  0  0  0  0  0  0  0  0  0  0  0
    3.7070   -1.9510   -2.1540 C   0  0  0  0  0  0  0  0  0  0  0  0
    2.9080   -1.4590   -3.2120 N   0  0  0  0  0  0  0  0  0  0  0  0
    4.6890   -2.6840   -2.4000 O   0  0  0  0  0  0  0  0  0  0  0  0
  1  2  1  0
  2  3  1  0
  3  4  1  0
  4  5  2  0
  4 37  1  0
  5  6  1  0
  6  7  2  0
  7  8  1  0
  7 36  1  0
  8  9  1  0
  9 10  1  0
 10 11  2  3
 10 24  1  0
 11 12  1  0
 12 13  2  0
 12 14  1  0
 14 15  1  0
 15 16  2  0
 15 20  1  0
 16 17  1  0
 17 18  2  0
 18 19  1  0
 18 23  1  0
 19 20  2  0
 19 21  1  0
 21 22  1  0
 22 23  1  0
 24 25  2  0
 24 26  1  0
 26 27  1  0
 27 28  2  0
 27 29  1  0
 29 30  1  0
 30 31  2  0
 30 35  1  0
 31 32  1  0
 32 33  2  0
 33 34  1  0
 34 35  2  0
 36 37  2  0
 37 38  1  0
 38 39  1  0
 38 40  2  0
M  CHG  2   2   1  21   1
M  END
