
     RDKit          3D

 40 44  0  0  0  0  0  0  0  0999 V2000
   12.4020   -0.3040    1.8550 C   0  0  0  0  0  0  0  0  0  0  0  0
   11.4950   -0.5620    0.8270 O   0  0  0  0  0  0  0  0  0  0  0  0
   10.1320   -0.3170    0.9190 C   0  0  0  0  0  0  0  0  0  0  0  0
    9.5450    0.2030    2.0350 C   0  0  0  0  0  0  0  0  0  0  0  0
    8.2140    0.4350    2.1100 C   0  0  0  0  0  0  0  0  0  0  0  0
    7.3700    0.1500    1.0340 C   0  0  0  0  0  0  0  0  0  0  0  0
    6.0460    0.4120    1.1890 C   0  0  0  0  0  0  0  0  0  0  0  0
    5.1690    0.1390    0.1300 C   0  0  0  0  0  0  0  0  0  0  0  0
    3.8690    0.3060    0.0410 N   0  0  0  0  0  0  0  0  0  0  0  0
    3.1330    0.0900   -0.8150 C   0  0  0  0  0  0  0  0  0  0  0  0
    1.7230    0.1410   -1.2290 N   0  0  0  0  0  0  0  0  0  0  0  0
    0.7640    0.6110   -0.3090 C   0  0  0  0  0  0  0  0  0  0  0  0
    1.1800    0.9600    0.8210 O   0  0  0  0  0  0  0  0  0  0  0  0
   -0.6380    0.7020   -0.6100 C   0  0  0  0  0  0  0  0  0  0  0  0
   -1.0910    0.5880   -1.8860 C   0  0  0  0  0  0  0  0  0  0  0  0
   -2.4670    0.6720   -2.1450 C   0  0  0  0  0  0  0  0  0  0  0  0
   -3.3770    0.8680   -1.1470 C   0  0  0  0  0  0  0  0  0  0  0  0
   -4.8280    0.9700   -1.4180 C   0  0  0  0  0  0  0  0  0  0  0  0
   -5.1790    1.3540   -2.5370 O   0  0  0  0  0  0  0  0  0  0  0  0
   -5.7900    0.6460   -0.4480 N   0  0  0  0  0  0  0  0  0  0  0  0
   -7.1980    0.7020   -0.5500 C   0  0  0  0  0  0  0  0  0  0  0  0
   -7.7950    1.1620   -1.6930 C   0  0  0  0  0  0  0  0  0  0  0  0
   -9.1900    1.2410   -1.8240 C   0  0  0  0  0  0  0  0  0  0  0  0
   -9.9500    0.8320   -0.7410 C   0  0  0  0  0  0  0  0  0  0  0  0
  -11.4280    0.9120   -0.8570 C   0  0  0  0  0  0  0  0  0  0  0  0
   -9.3610    0.3710    0.4020 C   0  0  0  0  0  0  0  0  0  0  0  0
   -7.9930    0.2970    0.5220 C   0  0  0  0  0  0  0  0  0  0  0  0
   -7.3480   -0.1750    1.6810 N   0  0  0  0  0  0  0  0  0  0  0  0
   -6.8490   -1.5230    1.4930 C   0  0  0  0  0  0  0  0  0  0  0  0
   -7.8930   -2.4500    1.9230 N   0  0  0  0  0  0  0  0  0  0  0  0
   -2.9180    0.9830    0.1420 C   0  0  0  0  0  0  0  0  0  0  0  0
   -1.5500    0.9030    0.4290 C   0  0  0  0  0  0  0  0  0  0  0  0
    4.3470   -0.5930   -2.1070 S   0  0  0  0  0  0  0  0  0  0  0  0
    5.7430   -0.3870   -1.0100 C   0  0  0  0  0  0  0  0  0  0  0  0
    7.1310   -0.6520   -1.1470 C   0  0  0  0  0  0  0  0  0  0  0  0
    7.9820   -0.3790   -0.0980 C   0  0  0  0  0  0  0  0  0  0  0  0
    9.3130   -0.6170   -0.1860 C   0  0  0  0  0  0  0  0  0  0  0  0
    9.9290   -1.1770   -1.3700 C   0  0  0  0  0  0  0  0  0  0  0  0
   11.3480   -1.4610   -1.3230 N   0  0  0  0  0  0  0  0  0  0  0  0
    9.3390   -1.4360   -2.4250 O   0  0  0  0  0  0  0  0  0  0  0  0
  1  2  1  0
  2  3  1  0
  3  4  2  0
  3 37  1  0
  4  5  1  0
  5  6  2  0
  6  7  1  0
  6 36  1  0
  7  8  2  0
  8  9  1  0
  8 34  1  0
  9 10  2  0
 10 11  1  0
 10 33  1  0
 11 12  1  0
 12 13  2  0
 12 14  1  0
 14 15  2  0
 14 32  1  0
 15 16  1  0
 16 17  2  0
 17 18  1  0
 17 31  1  0
 18 19  2  0
 18 20  1  0
 20 21  1  0
 21 22  2  0
 21 27  1  0
 22 23  1  0
 23 24  2  0
 24 25  1  0
 24 26  1  0
 26 27  2  0
 27 28  1  0
 28 29  1  0
 29 30  1  0
 31 32  2  0
 33 34  1  0
 34 35  2  0
 35 36  1  0
 36 37  2  0
 37 38  1  0
 38 39  1  0
 38 40  2  0
M  CHG  2  28   1  30   1
M  END
