
     RDKit          3D

 22 24  0  0  0  0  0  0  0  0999 V2000
   -3.1550   -2.9940    0.4100 C   0  0  0  0  0  0  0  0  0  0  0  0
   -2.0150   -2.6730   -0.1740 C   0  0  0  0  0  0  0  0  0  0  0  0
   -1.6470   -1.2560   -0.1410 C   0  0  0  0  0  0  0  0  0  0  0  0
   -0.4380   -0.7410   -0.1360 C   0  0  0  0  0  0  0  0  0  0  0  0
   -0.4200    0.6320   -0.1010 C   0  0  0  0  0  0  0  0  0  0  0  0
   -1.6240    1.3790    0.0090 N   0  0  0  0  0  0  0  0  0  0  0  0
   -2.3640    1.4430    1.2540 C   0  0  0  0  0  0  0  0  0  0  0  0
   -3.8080    1.7560    0.8660 C   0  0  0  0  0  0  0  0  0  0  0  0
   -3.8800    3.0420    0.3560 O   0  0  0  0  0  0  0  0  0  0  0  0
   -2.9770    3.3210   -0.6250 C   0  0  0  0  0  0  0  0  0  0  0  0
   -2.1940    2.1240   -1.1090 C   0  0  0  0  0  0  0  0  0  0  0  0
    0.7790    1.2610   -0.1350 N   0  0  0  0  0  0  0  0  0  0  0  0
    1.9540    0.6320   -0.1980 C   0  0  0  0  0  0  0  0  0  0  0  0
    3.2440    1.4200   -0.2320 C   0  0  0  0  0  0  0  0  0  0  0  0
    4.3650    0.4370   -0.3030 C   0  0  0  0  0  0  0  0  0  0  0  0
    5.6180    1.0080   -0.3560 O   0  0  0  0  0  0  0  0  0  0  0  0
    5.8840    1.7650    0.7400 C   0  0  0  0  0  0  0  0  0  0  0  0
    1.9420   -0.7070   -0.2300 N   0  0  0  0  0  0  0  0  0  0  0  0
    0.7810   -1.4110   -0.2000 C   0  0  0  0  0  0  0  0  0  0  0  0
    0.9780   -2.7160   -0.2140 C   0  0  0  0  0  0  0  0  0  0  0  0
    0.1310   -3.9080   -0.1720 C   0  0  0  0  0  0  0  0  0  0  0  0
   -1.2280   -3.7550   -0.8010 C   0  0  0  0  0  0  0  0  0  0  0  0
  1  2  2  0
  2  3  1  0
  2 22  1  0
  3  4  2  0
  4  5  1  0
  4 19  1  0
  5  6  1  0
  5 12  2  0
  6  7  1  0
  6 11  1  0
  7  8  1  0
  8  9  1  0
  9 10  1  0
 10 11  1  0
 12 13  1  0
 13 14  1  0
 13 18  2  0
 14 15  1  0
 15 16  1  0
 16 17  1  0
 18 19  1  0
 19 20  2  0
 20 21  1  0
 21 22  1  0
M  END
