
     RDKit          3D

 22 24  0  0  0  0  0  0  0  0999 V2000
    5.1680    1.0030    1.8100 C   0  0  0  0  0  0  0  0  0  0  0  0
    4.2260    1.1780    0.9070 C   0  0  0  0  0  0  0  0  0  0  0  0
    4.1910    2.1030   -0.2560 C   0  0  0  0  0  0  0  0  0  0  0  0
    3.5210    1.2330   -1.3040 C   0  0  0  0  0  0  0  0  0  0  0  0
    2.5590    0.4340   -0.4660 C   0  0  2  0  0  0  0  0  0  0  0  0
    2.5360   -1.0290   -0.8660 C   0  0  0  0  0  0  0  0  0  0  0  0
    1.4330   -1.6980   -0.0840 C   0  0  0  0  0  0  0  0  0  0  0  0
    0.1670   -1.1760   -0.6220 N   0  0  0  0  0  0  0  0  0  0  0  0
   -1.0540   -1.8720   -0.4340 C   0  0  0  0  0  0  0  0  0  0  0  0
   -1.0580   -2.9560    0.1900 O   0  0  0  0  0  0  0  0  0  0  0  0
   -2.2900   -1.3330   -0.9620 C   0  0  0  0  0  0  0  0  0  0  0  0
   -2.7660   -1.5250   -2.2570 C   0  0  0  0  0  0  0  0  0  0  0  0
   -3.9190   -0.8510   -2.3390 N   0  0  0  0  0  0  0  0  0  0  0  0
   -4.1610   -0.2700   -1.1780 N   0  0  0  0  0  0  0  0  0  0  0  0
   -3.1720   -0.5430   -0.2890 C   0  0  0  0  0  0  0  0  0  0  0  0
   -3.1690   -0.0490    1.0960 C   0  0  1  0  0  0  0  0  0  0  0  0
   -3.1730   -1.1900    2.0920 C   0  0  0  0  0  0  0  0  0  0  0  0
   -1.9280    0.7710    1.3440 C   0  0  0  0  0  0  0  0  0  0  0  0
   -4.3950    0.8030    1.3870 C   0  0  0  0  0  0  0  0  0  0  0  0
    0.2600    0.0720   -1.3580 C   0  0  0  0  0  0  0  0  0  0  0  0
    1.1770    1.0260   -0.6220 C   0  0  0  0  0  0  0  0  0  0  0  0
    3.0170    0.4950    0.8650 O   0  0  0  0  0  0  0  0  0  0  0  0
  1  2  2  0
  2  3  1  0
  2 22  1  0
  3  4  1  0
  5  4  1  6
  5  6  1  0
  5 21  1  0
  5 22  1  0
  6  7  1  0
  7  8  1  0
  8  9  1  0
  8 20  1  0
  9 10  2  0
  9 11  1  0
 11 12  2  0
 11 15  1  0
 12 13  1  0
 13 14  1  0
 14 15  2  0
 15 16  1  0
 16 17  1  1
 16 18  1  0
 16 19  1  0
 20 21  1  0
M  END
