
     RDKit          3D

 22 24  0  0  0  0  0  0  0  0999 V2000
   -0.0860   -1.9540   -0.4360 C   0  0  0  0  0  0  0  0  0  0  0  0
   -0.9550   -0.9600    0.3230 C   0  0  0  0  0  0  0  0  0  0  0  0
   -2.1060   -0.6840   -0.1800 C   0  0  0  0  0  0  0  0  0  0  0  0
   -3.0700    0.2230    0.3780 C   0  0  0  0  0  0  0  0  0  0  0  0
   -4.2420    0.4170   -0.2600 C   0  0  0  0  0  0  0  0  0  0  0  0
   -4.6280   -0.2420   -1.5170 C   0  0  0  0  0  0  0  0  0  0  0  0
   -6.1390   -0.1630   -1.4700 C   0  0  0  0  0  0  0  0  0  0  0  0
   -6.3370    1.1930   -0.8140 C   0  0  0  0  0  0  0  0  0  0  0  0
   -5.2720    1.2400    0.1240 O   0  0  0  0  0  0  0  0  0  0  0  0
   -0.4010   -0.4350    1.5230 C   0  0  0  0  0  0  0  0  0  0  0  0
   -1.0020    0.3850    2.2420 O   0  0  0  0  0  0  0  0  0  0  0  0
    0.9280   -0.8860    1.9140 N   0  0  0  0  0  0  0  0  0  0  0  0
    1.9090   -0.2840    1.3360 C   0  0  0  0  0  0  0  0  0  0  0  0
    1.7470    0.6960    0.4300 N   0  0  0  0  0  0  0  0  0  0  0  0
    2.7700    1.3170   -0.1660 C   0  0  0  0  0  0  0  0  0  0  0  0
    4.0810    0.9560    0.1420 C   0  0  0  0  0  0  0  0  0  0  0  0
    5.1580    1.5770   -0.4550 C   0  0  0  0  0  0  0  0  0  0  0  0
    6.4180    1.1600   -0.0940 C   0  0  0  0  0  0  0  0  0  0  0  0
    6.6460    0.1620    0.8270 C   0  0  0  0  0  0  0  0  0  0  0  0
    5.5590   -0.4400    1.4070 C   0  0  0  0  0  0  0  0  0  0  0  0
    4.2600   -0.0490    1.0710 C   0  0  0  0  0  0  0  0  0  0  0  0
    3.1920   -0.6190    1.6210 N   0  0  0  0  0  0  0  0  0  0  0  0
  1  2  1  0
  2  3  2  3
  2 10  1  0
  3  4  1  0
  4  5  2  3
  5  6  1  0
  5  9  1  0
  6  7  1  0
  7  8  1  0
  8  9  1  0
 10 11  2  0
 10 12  1  0
 12 13  2  3
 13 14  1  0
 13 22  1  0
 14 15  2  0
 15 16  1  0
 16 17  2  0
 16 21  1  0
 17 18  1  0
 18 19  2  0
 19 20  1  0
 20 21  2  0
 21 22  1  0
M  END
