
     RDKit          3D

 22 24  0  0  0  0  0  0  0  0999 V2000
   -4.1210    1.4660    2.5400 C   0  0  0  0  0  0  0  0  0  0  0  0
   -4.2320    0.9610    1.3080 C   0  0  0  0  0  0  0  0  0  0  0  0
   -5.5190    0.4320    0.7880 C   0  0  0  0  0  0  0  0  0  0  0  0
   -5.2370   -0.8990    0.3270 O   0  0  0  0  0  0  0  0  0  0  0  0
   -4.1670   -0.9980   -0.5520 C   0  0  0  0  0  0  0  0  0  0  0  0
   -4.0680   -1.9320   -1.4880 C   0  0  0  0  0  0  0  0  0  0  0  0
   -2.9120   -1.9770   -2.3810 C   0  0  0  0  0  0  0  0  0  0  0  0
   -1.9140   -1.1030   -2.3070 C   0  0  0  0  0  0  0  0  0  0  0  0
   -1.9510   -0.0770   -1.3330 N   0  0  0  0  0  0  0  0  0  0  0  0
   -0.8830    0.8920   -1.2160 C   0  0  0  0  0  0  0  0  0  0  0  0
    0.3750    0.2120   -0.7120 C   0  0  0  0  0  0  0  0  0  0  0  0
    0.3920   -0.9980   -0.4600 O   0  0  0  0  0  0  0  0  0  0  0  0
    1.5470    0.9850   -0.5310 N   0  0  0  0  0  0  0  0  0  0  0  0
    2.8000    0.5260   -0.0670 C   0  0  0  0  0  0  0  0  0  0  0  0
    3.0000   -0.6680    0.5490 C   0  0  0  0  0  0  0  0  0  0  0  0
    4.2730   -1.0440    0.9530 C   0  0  0  0  0  0  0  0  0  0  0  0
    5.3400   -0.1980    0.7250 C   0  0  0  0  0  0  0  0  0  0  0  0
    6.6800   -0.6240    1.1640 C   0  0  0  0  0  0  0  0  0  0  0  0
    5.1300    1.0270    0.0930 C   0  0  0  0  0  0  0  0  0  0  0  0
    3.8740    1.3990   -0.3060 C   0  0  0  0  0  0  0  0  0  0  0  0
   -3.0590   -0.0220   -0.4650 C   0  0  0  0  0  0  0  0  0  0  0  0
   -3.1090    0.9070    0.4290 N   0  0  0  0  0  0  0  0  0  0  0  0
  1  2  2  0
  2  3  1  0
  2 22  1  0
  3  4  1  0
  4  5  1  0
  5  6  2  0
  5 21  1  0
  6  7  1  0
  7  8  2  0
  8  9  1  0
  9 10  1  0
  9 21  1  0
 10 11  1  0
 11 12  2  0
 11 13  1  0
 13 14  1  0
 14 15  2  0
 14 20  1  0
 15 16  1  0
 16 17  2  0
 17 18  1  0
 17 19  1  0
 19 20  2  0
 21 22  2  0
M  END
