
     RDKit          3D

 44 48  0  0  0  0  0  0  0  0999 V2000
    5.3210    5.2540   -1.6740 C   0  0  0  0  0  0  0  0  0  0  0  0
    5.4820    4.7310   -2.8790 C   0  0  0  0  0  0  0  0  0  0  0  0
    5.0320    3.3400   -3.2030 C   0  0  0  0  0  0  0  0  0  0  0  0
    4.4440    2.7230   -2.0750 O   0  0  0  0  0  0  0  0  0  0  0  0
    3.9620    1.4360   -2.1460 C   0  0  0  0  0  0  0  0  0  0  0  0
    4.0440    0.8040   -3.2140 O   0  0  0  0  0  0  0  0  0  0  0  0
    3.3290    0.7540   -0.9610 C   0  0  1  0  0  0  0  0  0  0  0  0
    2.1160    1.6070   -0.6360 C   0  0  0  0  0  0  0  0  0  0  0  0
    2.9540   -0.6150   -1.3820 C   0  0  1  0  0  0  0  0  0  0  0  0
    4.1970   -1.3930   -1.8810 C   0  0  0  0  0  0  0  0  0  0  0  0
    3.9860   -2.7680   -1.3040 C   0  0  2  0  0  0  0  0  0  0  0  0
    4.4430   -3.7780   -2.1360 O   0  0  0  0  0  0  0  0  0  0  0  0
    2.4830   -2.8070   -1.1230 C   0  0  0  0  0  0  0  0  0  0  0  0
    2.3400   -1.4820   -0.4530 N   0  0  0  0  0  0  0  0  0  0  0  0
    1.7140   -1.3750    0.8030 C   0  0  0  0  0  0  0  0  0  0  0  0
    1.5690   -0.2790    1.4330 O   0  0  0  0  0  0  0  0  0  0  0  0
    1.1660   -2.5280    1.5020 C   0  0  0  0  0  0  0  0  0  0  0  0
    1.9170   -3.2480    2.3910 C   0  0  0  0  0  0  0  0  0  0  0  0
    1.3490   -4.3510    3.0540 C   0  0  0  0  0  0  0  0  0  0  0  0
    2.0700   -5.1110    3.9620 O   0  0  0  0  0  0  0  0  0  0  0  0
    3.4070   -4.7530    4.2190 C   0  0  0  0  0  0  0  0  0  0  0  0
    0.0400   -4.7090    2.8110 C   0  0  0  0  0  0  0  0  0  0  0  0
   -0.7120   -3.9830    1.9170 C   0  0  0  0  0  0  0  0  0  0  0  0
   -0.1320   -2.8930    1.2690 C   0  0  0  0  0  0  0  0  0  0  0  0
   -0.9640   -2.1640    0.3270 C   0  0  0  0  0  0  0  0  0  0  0  0
   -0.9840   -2.5330   -0.8880 O   0  0  0  0  0  0  0  0  0  0  0  0
   -1.7180   -1.0760    0.7900 N   0  0  0  0  0  0  0  0  0  0  0  0
   -1.6660   -0.6940    2.1730 C   0  0  0  0  0  0  0  0  0  0  0  0
   -3.0300   -0.4360    2.7600 C   0  0  2  0  0  0  0  0  0  0  0  0
   -3.4800   -1.6240    3.5750 C   0  0  0  0  0  0  0  0  0  0  0  0
   -3.9620   -0.0930    1.7850 O   0  0  0  0  0  0  0  0  0  0  0  0
   -3.3940    0.6240    0.7570 C   0  0  2  0  0  0  0  0  0  0  0  0
   -4.4290    1.3580    0.0160 C   0  0  0  0  0  0  0  0  0  0  0  0
   -5.6230    0.7780   -0.3470 C   0  0  0  0  0  0  0  0  0  0  0  0
   -6.6070    1.4520   -1.0500 C   0  0  0  0  0  0  0  0  0  0  0  0
   -6.3990    2.7570   -1.4070 C   0  0  0  0  0  0  0  0  0  0  0  0
   -7.1660    3.6050   -2.0670 O   0  0  0  0  0  0  0  0  0  0  0  0
   -6.5200    4.7620   -2.1660 C   0  0  0  0  0  0  0  0  0  0  0  0
   -7.1930    6.1720   -2.9790 S   0  0  0  0  0  0  0  0  0  0  0  0
   -6.4350    7.3940   -2.4820 O   0  0  0  0  0  0  0  0  0  0  0  0
   -5.3000    4.6550   -1.5500 C   0  0  0  0  0  0  0  0  0  0  0  0
   -5.2060    3.3780   -1.0590 C   0  0  0  0  0  0  0  0  0  0  0  0
   -4.2290    2.6700   -0.3480 C   0  0  0  0  0  0  0  0  0  0  0  0
   -2.5770   -0.2840   -0.0970 C   0  0  0  0  0  0  0  0  0  0  0  0
  1  2  2  0
  2  3  1  0
  3  4  1  0
  4  5  1  0
  5  6  2  0
  5  7  1  0
  7  8  1  6
  7  9  1  0
  9 10  1  1
  9 14  1  0
 10 11  1  0
 11 12  1  6
 11 13  1  0
 13 14  1  0
 14 15  1  0
 15 16  2  0
 15 17  1  0
 17 18  2  0
 17 24  1  0
 18 19  1  0
 19 20  1  0
 19 22  2  0
 20 21  1  0
 22 23  1  0
 23 24  2  0
 24 25  1  0
 25 26  2  0
 25 27  1  0
 27 28  1  0
 27 44  1  0
 28 29  1  0
 29 30  1  6
 29 31  1  0
 31 32  1  0
 32 33  1  6
 32 44  1  0
 33 34  2  0
 33 43  1  0
 34 35  1  0
 35 36  2  0
 36 37  1  0
 36 42  1  0
 37 38  1  0
 38 39  1  0
 38 41  2  0
 39 40  2  0
 41 42  1  0
 42 43  2  0
M  END
