
     RDKit          3D

 44 49  0  0  0  0  0  0  0  0999 V2000
    4.4660    1.2730    0.3950 O   0  0  0  0  0  0  0  0  0  0  0  0
    4.6150    0.2070   -0.2610 C   0  0  0  0  0  0  0  0  0  0  0  0
    5.9180   -0.0570   -0.7340 N   0  0  0  0  0  0  0  0  0  0  0  0
    7.0000    0.8310   -0.4840 C   0  0  0  0  0  0  0  0  0  0  0  0
    7.6830    1.4100   -1.4620 C   0  0  0  0  0  0  0  0  0  0  0  0
    8.7510    2.2880   -1.2310 N   0  0  0  0  0  0  0  0  0  0  0  0
    8.5030    3.5930   -0.6730 C   0  0  0  0  0  0  0  0  0  0  0  0
    9.4890    3.8300    0.4390 C   0  0  0  0  0  0  0  0  0  0  0  0
   10.7730    3.6100   -0.0570 O   0  0  0  0  0  0  0  0  0  0  0  0
   10.9830    2.2740   -0.3680 C   0  0  0  0  0  0  0  0  0  0  0  0
   10.1050    1.9060   -1.5440 C   0  0  0  0  0  0  0  0  0  0  0  0
    3.4610   -0.6580   -0.4800 C   0  0  0  0  0  0  0  0  0  0  0  0
    3.5260   -1.8300   -1.1860 C   0  0  0  0  0  0  0  0  0  0  0  0
    2.4440   -2.6530   -1.3980 C   0  0  0  0  0  0  0  0  0  0  0  0
    1.2020   -2.2860   -0.8710 C   0  0  0  0  0  0  0  0  0  0  0  0
    1.1320   -1.1090   -0.1620 C   0  0  0  0  0  0  0  0  0  0  0  0
    2.2380   -0.2960    0.0390 C   0  0  0  0  0  0  0  0  0  0  0  0
   -0.0800   -0.5680    0.4650 C   0  0  0  0  0  0  0  0  0  0  0  0
   -0.0470    0.6740    0.7160 O   0  0  0  0  0  0  0  0  0  0  0  0
   -1.3000   -1.2820    0.8270 C   0  0  0  0  0  0  0  0  0  0  0  0
   -2.2430   -0.4900    1.4390 C   0  0  0  0  0  0  0  0  0  0  0  0
   -3.4580   -1.0590    1.8370 C   0  0  0  0  0  0  0  0  0  0  0  0
   -3.7320   -2.3870    1.6300 C   0  0  0  0  0  0  0  0  0  0  0  0
   -4.9740   -3.0100    1.9890 N   0  0  0  0  0  0  0  0  0  0  0  0
   -6.2490   -2.4700    1.8780 C   0  0  0  0  0  0  0  0  0  0  0  0
   -6.4870   -1.2980    1.1510 C   0  0  0  0  0  0  0  0  0  0  0  0
   -7.7450   -0.7790    1.0060 C   0  0  0  0  0  0  0  0  0  0  0  0
   -8.0170    0.3900    0.2870 N   0  0  0  0  0  0  0  0  0  0  0  0
   -7.1050    1.2300   -0.3840 C   0  0  0  0  0  0  0  0  0  0  0  0
   -5.8900    0.9730   -0.3870 O   0  0  0  0  0  0  0  0  0  0  0  0
   -7.5560    2.4310   -1.1000 C   0  0  0  0  0  0  0  0  0  0  0  0
   -8.7630    2.9610   -1.2760 C   0  0  0  0  0  0  0  0  0  0  0  0
   -8.8900    4.0910   -1.9910 C   0  0  0  0  0  0  0  0  0  0  0  0
   -7.7670    4.6650   -2.5190 C   0  0  0  0  0  0  0  0  0  0  0  0
   -6.4260    3.5360   -1.9730 S   0  0  0  0  0  0  0  0  0  0  0  0
   -8.8110   -1.4580    1.6100 C   0  0  0  0  0  0  0  0  0  0  0  0
  -10.0640   -0.9410    1.4660 F   0  0  0  0  0  0  0  0  0  0  0  0
   -8.6130   -2.6080    2.3270 C   0  0  0  0  0  0  0  0  0  0  0  0
   -7.3340   -3.0880    2.4430 C   0  0  0  0  0  0  0  0  0  0  0  0
   -7.1410   -4.2420    3.1640 F   0  0  0  0  0  0  0  0  0  0  0  0
   -2.7330   -3.1430    1.0030 C   0  0  0  0  0  0  0  0  0  0  0  0
   -1.5270   -2.6290    0.5960 C   0  0  0  0  0  0  0  0  0  0  0  0
   -0.7060   -3.6800   -0.0250 C   0  0  0  0  0  0  0  0  0  0  0  0
    0.1330   -3.2340   -1.1660 C   0  0  0  0  0  0  0  0  0  0  0  0
  1  2  2  0
  2  3  1  0
  2 12  1  0
  3  4  1  0
  4  5  2  3
  5  6  1  0
  6  7  1  0
  6 11  1  0
  7  8  1  0
  8  9  1  0
  9 10  1  0
 10 11  1  0
 12 13  2  0
 12 17  1  0
 13 14  1  0
 14 15  2  0
 15 16  1  0
 15 44  1  0
 16 17  2  0
 16 18  1  0
 18 19  2  0
 18 20  1  0
 20 21  2  0
 20 42  1  0
 21 22  1  0
 22 23  2  0
 23 24  1  0
 23 41  1  0
 24 25  1  0
 25 26  2  0
 25 39  1  0
 26 27  1  0
 27 28  1  0
 27 36  2  0
 28 29  1  0
 29 30  2  0
 29 31  1  0
 31 32  2  0
 31 35  1  0
 32 33  1  0
 33 34  2  0
 34 35  1  0
 36 37  1  0
 36 38  1  0
 38 39  2  0
 39 40  1  0
 41 42  2  0
 42 43  1  0
 43 44  1  0
M  END
