
     RDKit          3D

 44 48  0  0  0  0  0  0  0  0999 V2000
  -10.5860    1.9590    0.6830 C   0  0  0  0  0  0  0  0  0  0  0  0
  -10.1330    3.3240    1.1540 C   0  0  0  0  0  0  0  0  0  0  0  0
   -8.7310    3.5500    0.6320 C   0  0  1  0  0  0  0  0  0  0  0  0
   -8.1710    4.8740    1.0380 C   0  0  0  0  0  0  0  0  0  0  0  0
   -7.9550    2.4400    0.9930 O   0  0  0  0  0  0  0  0  0  0  0  0
   -7.3980    1.5540    0.1000 C   0  0  0  0  0  0  0  0  0  0  0  0
   -7.5740    1.7230   -1.1320 O   0  0  0  0  0  0  0  0  0  0  0  0
   -6.5860    0.3950    0.6250 C   0  0  2  0  0  0  0  0  0  0  0  0
   -5.3520    0.9130    1.3600 C   0  0  0  0  0  0  0  0  0  0  0  0
   -4.3740   -0.2220    0.9930 C   0  0  0  0  0  0  0  0  0  0  0  0
   -4.8190   -0.4830   -0.4030 C   0  0  1  0  0  0  0  0  0  0  0  0
   -4.3740   -1.8220   -0.8960 C   0  0  0  0  0  0  0  0  0  0  0  0
   -5.2650   -2.6180   -1.2830 O   0  0  0  0  0  0  0  0  0  0  0  0
   -3.0320   -2.2290   -0.9480 N   0  0  0  0  0  0  0  0  0  0  0  0
   -2.6340   -3.4980   -1.4110 C   0  0  0  0  0  0  0  0  0  0  0  0
   -3.6490   -4.7750   -1.9880 S   0  0  0  0  0  0  0  0  0  0  0  0
   -2.3140   -6.0190   -2.3390 C   0  0  0  0  0  0  0  0  0  0  0  0
   -2.5070   -7.3340   -2.8540 C   0  0  0  0  0  0  0  0  0  0  0  0
   -1.2170   -5.2700   -1.9550 C   0  0  0  0  0  0  0  0  0  0  0  0
   -1.3220   -4.0420   -1.4990 C   0  0  0  0  0  0  0  0  0  0  0  0
   -0.1600   -3.2050   -1.0970 C   0  0  0  0  0  0  0  0  0  0  0  0
    0.7390   -3.7440   -0.2010 C   0  0  0  0  0  0  0  0  0  0  0  0
    1.8480   -3.0120    0.1960 C   0  0  0  0  0  0  0  0  0  0  0  0
    2.0910   -1.7400   -0.2810 C   0  0  0  0  0  0  0  0  0  0  0  0
    3.2120   -1.0540    0.1490 O   0  0  0  0  0  0  0  0  0  0  0  0
    4.4170   -1.3010   -0.5050 C   0  0  0  0  0  0  0  0  0  0  0  0
    4.4190   -2.1320   -1.4490 O   0  0  0  0  0  0  0  0  0  0  0  0
    5.6760   -0.6350   -0.1370 C   0  0  1  0  0  0  0  0  0  0  0  0
    6.6940   -1.1230   -0.9460 O   0  0  0  0  0  0  0  0  0  0  0  0
    5.5480    0.8720   -0.2470 C   0  0  0  0  0  0  0  0  0  0  0  0
    6.7720    1.5000    0.1660 N   0  0  0  0  0  0  0  0  0  0  0  0
    7.0720    1.9110    1.5160 C   0  0  0  0  0  0  0  0  0  0  0  0
    6.2620    1.7530    2.4700 O   0  0  0  0  0  0  0  0  0  0  0  0
    8.3810    2.4930    1.5460 C   0  0  0  0  0  0  0  0  0  0  0  0
    9.1890    2.8760    2.4910 C   0  0  0  0  0  0  0  0  0  0  0  0
   10.5320    3.4640    2.2340 C   0  0  0  0  0  0  0  0  0  0  0  0
   11.1380    2.9840    0.9570 C   0  0  0  0  0  0  0  0  0  0  0  0
   10.2530    2.1510    0.0910 C   0  0  0  0  0  0  0  0  0  0  0  0
    8.8480    2.6640    0.1440 C   0  0  1  0  0  0  0  0  0  0  0  0
    7.8960    1.8320   -0.6220 C   0  0  0  0  0  0  0  0  0  0  0  0
    8.1060    1.4890   -1.8250 O   0  0  0  0  0  0  0  0  0  0  0  0
    1.1790   -1.2200   -1.1760 C   0  0  0  0  0  0  0  0  0  0  0  0
    0.0600   -1.9560   -1.5790 C   0  0  0  0  0  0  0  0  0  0  0  0
   -6.1660   -0.3470   -0.4300 O   0  0  0  0  0  0  0  0  0  0  0  0
  1  2  1  0
  2  3  1  0
  3  4  1  1
  3  5  1  0
  5  6  1  0
  6  7  2  0
  8  6  1  6
  8  9  1  0
  8 44  1  0
  9 10  1  0
 10 11  1  0
 11 12  1  1
 11 44  1  0
 12 13  2  0
 12 14  1  0
 14 15  1  0
 15 16  1  0
 15 20  2  0
 16 17  1  0
 17 18  1  0
 17 19  2  0
 19 20  1  0
 20 21  1  0
 21 22  2  0
 21 43  1  0
 22 23  1  0
 23 24  2  0
 24 25  1  0
 24 42  1  0
 25 26  1  0
 26 27  2  0
 26 28  1  0
 28 29  1  6
 28 30  1  0
 30 31  1  0
 31 32  1  0
 31 40  1  0
 32 33  2  0
 32 34  1  0
 34 35  2  0
 34 39  1  0
 35 36  1  0
 36 37  1  0
 37 38  1  0
 39 38  1  1
 39 40  1  0
 40 41  2  0
 42 43  2  0
M  END
