
     RDKit          3D

 44 48  0  0  0  0  0  0  0  0999 V2000
    3.3480   -6.6390   -0.1120 C   0  0  0  0  0  0  0  0  0  0  0  0
    3.1230   -5.2800   -0.4570 O   0  0  0  0  0  0  0  0  0  0  0  0
    2.0190   -4.6040   -0.0240 C   0  0  0  0  0  0  0  0  0  0  0  0
    1.1860   -5.1930    0.6920 O   0  0  0  0  0  0  0  0  0  0  0  0
    1.7380   -3.1580   -0.3660 C   0  0  1  0  0  0  0  0  0  0  0  0
    2.9700   -2.3580    0.0600 C   0  0  0  0  0  0  0  0  0  0  0  0
    3.5060   -1.8850   -1.1970 N   0  0  0  0  0  0  0  0  0  0  0  0
    4.2800   -0.6970   -1.4230 C   0  0  0  0  0  0  0  0  0  0  0  0
    4.6640   -0.4080   -2.5760 O   0  0  0  0  0  0  0  0  0  0  0  0
    4.6210    0.1660   -0.3540 N   0  0  0  0  0  0  0  0  0  0  0  0
    5.3540    1.3560   -0.4180 C   0  0  0  0  0  0  0  0  0  0  0  0
    5.5810    2.0520   -1.6090 C   0  0  0  0  0  0  0  0  0  0  0  0
    6.3340    3.2300   -1.6030 C   0  0  0  0  0  0  0  0  0  0  0  0
    6.8670    3.7280   -0.4340 C   0  0  0  0  0  0  0  0  0  0  0  0
    6.6260    3.0210    0.7180 C   0  0  0  0  0  0  0  0  0  0  0  0
    5.8990    1.8700    0.7670 C   0  0  0  0  0  0  0  0  0  0  0  0
    7.1940    3.5760    1.8860 O   0  0  0  0  0  0  0  0  0  0  0  0
    8.4140    4.2810    1.8460 C   0  0  0  0  0  0  0  0  0  0  0  0
    8.4940    5.2250    0.6740 C   0  0  0  0  0  0  0  0  0  0  0  0
    7.6120    4.8760   -0.3650 O   0  0  0  0  0  0  0  0  0  0  0  0
    3.1230   -2.8350   -2.2070 C   0  0  0  0  0  0  0  0  0  0  0  0
    1.6130   -2.9990   -1.8300 C   0  0  2  0  0  0  0  0  0  0  0  0
    0.9780   -1.7900   -2.4040 C   0  0  0  0  0  0  0  0  0  0  0  0
   -0.4060   -1.4370   -2.0630 C   0  0  0  0  0  0  0  0  0  0  0  0
   -0.5770   -0.9760   -0.6820 C   0  0  0  0  0  0  0  0  0  0  0  0
    0.3770   -0.4200   -0.0870 O   0  0  0  0  0  0  0  0  0  0  0  0
   -1.7640   -1.1360   -0.0170 O   0  0  0  0  0  0  0  0  0  0  0  0
   -2.0530   -0.7430    1.2890 C   0  0  2  0  0  0  0  0  0  0  0  0
   -2.4590   -1.8970    2.1720 C   0  0  0  0  0  0  0  0  0  0  0  0
   -3.6390   -2.5910    1.5070 C   0  0  0  0  0  0  0  0  0  0  0  0
   -4.5770   -1.6020    0.8570 C   0  0  0  0  0  0  0  0  0  0  0  0
   -4.4860   -0.3050    1.6450 C   0  0  2  0  0  0  0  0  0  0  0  0
   -5.5970    0.6160    1.3660 C   0  0  0  0  0  0  0  0  0  0  0  0
   -6.5550    0.8120    2.3480 C   0  0  0  0  0  0  0  0  0  0  0  0
   -7.6260    1.6590    2.1660 C   0  0  0  0  0  0  0  0  0  0  0  0
   -7.7680    2.3540    0.9560 C   0  0  0  0  0  0  0  0  0  0  0  0
   -8.9130    3.2550    0.7540 C   0  0  0  0  0  0  0  0  0  0  0  0
   -6.8390    2.1800   -0.0290 C   0  0  0  0  0  0  0  0  0  0  0  0
   -6.9480    2.8910   -1.2880 C   0  0  0  0  0  0  0  0  0  0  0  0
   -6.1180    2.7300   -2.2300 O   0  0  0  0  0  0  0  0  0  0  0  0
   -7.9690    3.7740   -1.5020 O   0  0  0  0  0  0  0  0  0  0  0  0
   -8.2070    4.6900   -2.9670 S   0  0  0  0  0  0  0  0  0  0  0  0
   -5.7660    1.3080    0.1980 C   0  0  0  0  0  0  0  0  0  0  0  0
   -3.1400    0.3000    1.3140 C   0  0  0  0  0  0  0  0  0  0  0  0
  1  2  1  0
  2  3  1  0
  3  4  2  0
  5  3  1  6
  5  6  1  0
  5 22  1  0
  6  7  1  0
  7  8  1  0
  7 21  1  0
  8  9  2  0
  8 10  1  0
 10 11  1  0
 11 12  2  0
 11 16  1  0
 12 13  1  0
 13 14  2  0
 14 15  1  0
 14 20  1  0
 15 16  2  0
 15 17  1  0
 17 18  1  0
 18 19  1  0
 19 20  1  0
 21 22  1  0
 22 23  1  1
 23 24  1  0
 24 25  1  0
 25 26  2  0
 25 27  1  0
 28 27  1  6
 28 29  1  0
 28 44  1  0
 29 30  1  0
 30 31  1  0
 31 32  1  0
 32 33  1  6
 32 44  1  0
 33 34  2  0
 33 43  1  0
 34 35  1  0
 35 36  2  0
 36 37  1  0
 36 38  1  0
 38 39  1  0
 38 43  2  0
 39 40  2  0
 39 41  1  0
 41 42  1  0
M  END
