
     RDKit          3D

 44 47  0  0  0  0  0  0  0  0999 V2000
   -7.0500    3.2310   -0.5180 C   0  0  0  0  0  0  0  0  0  0  0  0
   -6.1880    2.0960   -0.0800 C   0  0  0  0  0  0  0  0  0  0  0  0
   -6.1830    0.9480   -1.0630 C   0  0  2  0  0  0  0  0  0  0  0  0
   -5.6650    1.4370   -2.4050 C   0  0  0  0  0  0  0  0  0  0  0  0
   -7.4920    0.2540   -1.1930 C   0  0  0  0  0  0  0  0  0  0  0  0
   -7.5060   -0.7600   -0.0720 C   0  0  1  0  0  0  0  0  0  0  0  0
   -8.3580   -1.9620   -0.4150 C   0  0  0  0  0  0  0  0  0  0  0  0
   -8.8230   -2.5710    0.8890 C   0  0  0  0  0  0  0  0  0  0  0  0
   -8.0310   -2.1220    1.9450 O   0  0  0  0  0  0  0  0  0  0  0  0
   -6.7470   -2.6080    1.8940 C   0  0  0  0  0  0  0  0  0  0  0  0
   -5.7560   -1.5220    1.4500 C   0  0  0  0  0  0  0  0  0  0  0  0
   -6.0610   -1.2360    0.0170 C   0  0  2  0  0  0  0  0  0  0  0  0
   -5.2470   -0.1590   -0.6060 C   0  0  2  0  0  0  0  0  0  0  0  0
   -4.2150    0.3590    0.2610 N   0  0  0  0  0  0  0  0  0  0  0  0
   -2.8290    0.2910   -0.1150 C   0  0  0  0  0  0  0  0  0  0  0  0
   -2.6070   -0.2410   -1.2180 O   0  0  0  0  0  0  0  0  0  0  0  0
   -1.5540    0.9160    0.9330 S   0  0  0  0  0  0  0  0  0  0  0  0
    0.0610    0.9760    0.0370 C   0  0  0  0  0  0  0  0  0  0  0  0
    1.1160    0.6500    0.7520 C   0  0  0  0  0  0  0  0  0  0  0  0
    2.5230    0.6410    0.3090 C   0  0  0  0  0  0  0  0  0  0  0  0
    2.8350    1.6700   -0.7140 C   0  0  0  0  0  0  0  0  0  0  0  0
    3.8300    1.9170   -1.3150 O   0  0  0  0  0  0  0  0  0  0  0  0
    3.5200    0.1670    1.0310 C   0  0  0  0  0  0  0  0  0  0  0  0
    4.9280    0.0620    0.7240 C   0  0  0  0  0  0  0  0  0  0  0  0
    5.6900   -0.2430    1.7560 O   0  0  0  0  0  0  0  0  0  0  0  0
    5.6060    0.2110   -0.4720 N   0  0  0  0  0  0  0  0  0  0  0  0
    7.0350    0.1140   -0.6710 C   0  0  0  0  0  0  0  0  0  0  0  0
    7.5680    0.7560   -1.7970 C   0  0  0  0  0  0  0  0  0  0  0  0
    8.9130    0.6760   -2.0450 C   0  0  0  0  0  0  0  0  0  0  0  0
    9.7620   -0.0270   -1.2090 C   0  0  0  0  0  0  0  0  0  0  0  0
    9.2490   -0.6540   -0.1130 C   0  0  0  0  0  0  0  0  0  0  0  0
    7.8740   -0.5760    0.1460 C   0  0  0  0  0  0  0  0  0  0  0  0
   10.3460   -1.3310    0.6150 C   0  0  0  0  0  0  0  0  0  0  0  0
   11.5740   -0.9760   -0.1630 C   0  0  2  0  0  0  0  0  0  0  0  0
   12.4910   -0.1180    0.7120 C   0  0  0  0  0  0  0  0  0  0  0  0
   11.1310   -0.2330   -1.2730 O   0  0  0  0  0  0  0  0  0  0  0  0
    3.2120   -0.4230    2.3850 C   0  0  0  0  0  0  0  0  0  0  0  0
    2.1050   -0.5020    2.8560 O   0  0  0  0  0  0  0  0  0  0  0  0
    4.2770   -0.9200    3.1670 O   0  0  0  0  0  0  0  0  0  0  0  0
    3.9940   -1.4830    4.4580 C   0  0  0  0  0  0  0  0  0  0  0  0
    0.0300    1.0370   -1.3900 C   0  0  0  0  0  0  0  0  0  0  0  0
    0.9150    0.6960   -2.1970 O   0  0  0  0  0  0  0  0  0  0  0  0
   -1.1370    1.5540   -2.0070 O   0  0  0  0  0  0  0  0  0  0  0  0
   -1.2360    1.6560   -3.4220 C   0  0  0  0  0  0  0  0  0  0  0  0
  1  2  1  0
  2  3  1  0
  3  4  1  6
  3  5  1  0
  3 13  1  0
  6  5  1  6
  6  7  1  0
  6 12  1  0
  7  8  1  0
  8  9  1  0
  9 10  1  0
 10 11  1  0
 12 11  1  1
 12 13  1  0
 13 14  1  1
 14 15  1  0
 15 16  2  0
 15 17  1  0
 17 18  1  0
 18 19  2  3
 18 41  1  0
 19 20  1  0
 20 21  1  0
 20 23  2  3
 21 22  2  0
 23 24  1  0
 23 37  1  0
 24 25  2  0
 24 26  1  0
 26 27  1  0
 27 28  2  0
 27 32  1  0
 28 29  1  0
 29 30  2  0
 30 31  1  0
 30 36  1  0
 31 32  2  0
 31 33  1  0
 33 34  1  0
 34 35  1  1
 34 36  1  0
 37 38  2  0
 37 39  1  0
 39 40  1  0
 41 42  2  0
 41 43  1  0
 43 44  1  0
M  END
