
     RDKit          3D

 44 48  0  0  0  0  0  0  0  0999 V2000
   -2.1640    1.3610   -0.7280 C   0  0  0  0  0  0  0  0  0  0  0  0
   -2.3700    1.6530    0.7150 C   0  0  1  0  0  0  0  0  0  0  0  0
   -3.8150    1.6110    1.1410 C   0  0  0  0  0  0  0  0  0  0  0  0
   -4.0220    2.3900    2.1540 O   0  0  0  0  0  0  0  0  0  0  0  0
   -4.8000    0.8950    0.6040 O   0  0  0  0  0  0  0  0  0  0  0  0
   -5.7130    0.9900   -0.4230 C   0  0  2  0  0  0  0  0  0  0  0  0
   -6.9670    1.7490   -0.0450 C   0  0  0  0  0  0  0  0  0  0  0  0
   -7.9580    1.8800   -1.1630 C   0  0  0  0  0  0  0  0  0  0  0  0
   -9.1840    2.6780   -0.7030 C   0  0  0  0  0  0  0  0  0  0  0  0
   -8.8060    3.9660   -0.2910 O   0  0  0  0  0  0  0  0  0  0  0  0
   -6.0910   -0.3480   -1.0180 C   0  0  0  0  0  0  0  0  0  0  0  0
   -6.9100   -1.2340   -0.2240 C   0  0  0  0  0  0  0  0  0  0  0  0
   -6.6080   -2.3590    0.3370 C   0  0  0  0  0  0  0  0  0  0  0  0
   -5.2430   -3.0030    0.2670 C   0  0  2  0  0  0  0  0  0  0  0  0
   -5.3310   -4.4480    0.6910 C   0  0  0  0  0  0  0  0  0  0  0  0
   -5.8010   -4.5650    1.9980 O   0  0  0  0  0  0  0  0  0  0  0  0
   -4.3210   -2.2440    1.1280 C   0  0  0  0  0  0  0  0  0  0  0  0
   -4.1300   -1.9860    2.4300 C   0  0  0  0  0  0  0  0  0  0  0  0
   -3.2140   -1.0780    2.7650 C   0  0  0  0  0  0  0  0  0  0  0  0
   -2.5000   -0.4400    1.7660 C   0  0  0  0  0  0  0  0  0  0  0  0
   -3.1280   -1.1540    0.2530 S   0  0  0  0  0  0  0  0  0  0  0  0
   -1.5530    0.6500    1.5840 C   0  0  1  0  0  0  0  0  0  0  0  0
   -0.4130    0.3050    0.8740 O   0  0  0  0  0  0  0  0  0  0  0  0
    0.8850    0.5510    1.3030 C   0  0  0  0  0  0  0  0  0  0  0  0
    1.0110    1.1230    2.4030 O   0  0  0  0  0  0  0  0  0  0  0  0
    2.0300    0.1940    0.5700 N   0  0  0  0  0  0  0  0  0  0  0  0
    1.8920   -0.4690   -0.6980 C   0  0  0  0  0  0  0  0  0  0  0  0
    2.8800   -1.5950   -0.8940 C   0  0  0  0  0  0  0  0  0  0  0  0
    4.2890   -1.1540   -0.5440 C   0  0  1  0  0  0  0  0  0  0  0  0
    4.7840   -0.1160   -1.5160 C   0  0  0  0  0  0  0  0  0  0  0  0
    6.1260    0.2990   -1.1750 N   0  0  0  0  0  0  0  0  0  0  0  0
    7.2470   -0.5670   -1.1510 C   0  0  0  0  0  0  0  0  0  0  0  0
    7.0290   -1.7850   -1.4580 O   0  0  0  0  0  0  0  0  0  0  0  0
    8.5960   -0.1290   -0.7990 C   0  0  0  0  0  0  0  0  0  0  0  0
    9.6090   -1.0580   -0.7910 C   0  0  0  0  0  0  0  0  0  0  0  0
   10.8930   -0.7100   -0.4710 C   0  0  0  0  0  0  0  0  0  0  0  0
   11.2100    0.6070   -0.1420 C   0  0  0  0  0  0  0  0  0  0  0  0
   10.2110    1.5520   -0.1440 C   0  0  0  0  0  0  0  0  0  0  0  0
    8.9240    1.1580   -0.4740 C   0  0  0  0  0  0  0  0  0  0  0  0
   10.8070    2.7600    0.2170 O   0  0  0  0  0  0  0  0  0  0  0  0
   12.1370    2.5430    0.6350 C   0  0  0  0  0  0  0  0  0  0  0  0
   12.3980    1.2340    0.2160 O   0  0  0  0  0  0  0  0  0  0  0  0
    4.3080   -0.6410    0.8810 C   0  0  0  0  0  0  0  0  0  0  0  0
    3.3390    0.4860    1.0800 C   0  0  0  0  0  0  0  0  0  0  0  0
  2  1  1  6
  2  3  1  0
  2 22  1  0
  3  4  2  0
  3  5  1  0
  5  6  1  0
  6  7  1  1
  6 11  1  0
  7  8  1  0
  8  9  1  0
  9 10  1  0
 11 12  1  0
 12 13  2  0
 13 14  1  0
 14 15  1  1
 14 17  1  0
 15 16  1  0
 17 18  2  0
 17 21  1  0
 18 19  1  0
 19 20  2  0
 20 21  1  0
 20 22  1  0
 22 23  1  6
 23 24  1  0
 24 25  2  0
 24 26  1  0
 26 27  1  0
 26 44  1  0
 27 28  1  0
 28 29  1  0
 29 30  1  6
 29 43  1  0
 30 31  1  0
 31 32  1  0
 32 33  2  0
 32 34  1  0
 34 35  2  0
 34 39  1  0
 35 36  1  0
 36 37  2  0
 37 38  1  0
 37 42  1  0
 38 39  2  0
 38 40  1  0
 40 41  1  0
 41 42  1  0
 43 44  1  0
M  END
