
     RDKit          3D

 25 27  0  0  0  0  0  0  0  0999 V2000
   -5.3100   -0.5480   -1.8220 C   0  0  0  0  0  0  0  0  0  0  0  0
   -4.6380    0.7660   -1.4490 C   0  0  0  0  0  0  0  0  0  0  0  0
   -3.6990    0.5010   -0.3330 C   0  0  0  0  0  0  0  0  0  0  0  0
   -2.3920    0.4130   -0.4110 O   0  0  0  0  0  0  0  0  0  0  0  0
   -1.8980    0.1670    0.7950 C   0  0  0  0  0  0  0  0  0  0  0  0
   -0.4770    0.0000    1.1230 C   0  0  0  0  0  0  0  0  0  0  0  0
   -0.0930   -0.2490    2.3870 F   0  0  0  0  0  0  0  0  0  0  0  0
    0.4140    0.0940    0.1740 C   0  0  0  0  0  0  0  0  0  0  0  0
    1.8540   -0.0420    0.3180 C   0  0  0  0  0  0  0  0  0  0  0  0
    2.6600    0.0720   -0.7230 C   0  0  0  0  0  0  0  0  0  0  0  0
    4.1090   -0.0480   -0.6840 C   0  0  0  0  0  0  0  0  0  0  0  0
    4.8090    0.0890   -1.8200 C   0  0  0  0  0  0  0  0  0  0  0  0
    4.1480    0.3360   -2.9810 F   0  0  0  0  0  0  0  0  0  0  0  0
    6.2520   -0.0170   -1.8560 C   0  0  0  0  0  0  0  0  0  0  0  0
    6.9000    0.1170   -2.9530 O   0  0  0  0  0  0  0  0  0  0  0  0
    6.9530   -0.2820   -0.6070 C   0  0  0  0  0  0  0  0  0  0  0  0
    6.2670   -0.4170    0.5080 C   0  0  0  0  0  0  0  0  0  0  0  0
    4.7910   -0.3120    0.5650 C   0  0  0  0  0  0  0  0  0  0  0  0
    4.2520   -0.4610    1.7020 N   0  0  0  0  0  0  0  0  0  0  0  0
    2.5330   -0.3550    1.8850 S   0  0  2  0  0  0  0  0  0  0  0  0
    2.0020   -1.6890    2.3670 O   0  0  0  0  0  0  0  0  0  0  0  0
    2.1790    0.7350    2.8680 O   0  0  0  0  0  0  0  0  0  0  0  0
   -2.9140    0.0870    1.7120 C   0  0  0  0  0  0  0  0  0  0  0  0
   -4.0810    0.3050    0.9710 C   0  0  0  0  0  0  0  0  0  0  0  0
   -5.4740    0.3240    1.4830 C   0  0  0  0  0  0  0  0  0  0  0  0
  1  2  1  0
  2  3  1  0
  3  4  1  0
  3 24  2  0
  4  5  1  0
  5  6  1  0
  5 23  2  0
  6  7  1  0
  6  8  2  3
  8  9  1  0
  9 10  2  0
  9 20  1  0
 10 11  1  0
 11 12  2  0
 11 18  1  0
 12 13  1  0
 12 14  1  0
 14 15  2  0
 14 16  1  0
 16 17  2  0
 17 18  1  0
 18 19  2  0
 20 19  1  6
 20 21  2  0
 20 22  2  0
 23 24  1  0
 24 25  1  0
M  END
