
     RDKit          3D

 26 28  0  0  0  0  0  0  0  0999 V2000
    0.4010   -1.3860   -1.2810 O   0  0  0  0  0  0  0  0  0  0  0  0
    0.6730   -0.4630   -0.4760 C   0  0  0  0  0  0  0  0  0  0  0  0
   -0.3540    0.4660   -0.1600 N   0  0  0  0  0  0  0  0  0  0  0  0
   -1.6820    0.3760   -0.7310 C   0  0  0  0  0  0  0  0  0  0  0  0
   -2.5420    1.5130   -0.1880 C   0  0  2  0  0  0  0  0  0  0  0  0
   -2.4800    1.5440    1.2920 C   0  0  0  0  0  0  0  0  0  0  0  0
   -4.0510    1.1400    2.1140 S   0  0  0  0  0  0  0  0  0  0  0  0
   -4.9990    0.2050    0.9520 C   0  0  0  0  0  0  0  0  0  0  0  0
   -5.8810   -0.6600    1.3410 C   0  0  0  0  0  0  0  0  0  0  0  0
   -6.6170   -1.3860    0.4400 O   0  0  0  0  0  0  0  0  0  0  0  0
   -6.4850   -1.2480   -0.9330 C   0  0  0  0  0  0  0  0  0  0  0  0
   -5.4660   -0.2510   -1.3360 C   0  0  0  0  0  0  0  0  0  0  0  0
   -4.7650    0.4350   -0.4580 C   0  0  0  0  0  0  0  0  0  0  0  0
   -3.7970    1.3810   -0.7740 O   0  0  0  0  0  0  0  0  0  0  0  0
    2.0000   -0.3090    0.1430 C   0  0  2  0  0  0  0  0  0  0  0  0
    2.6150    1.0370   -0.1350 C   0  0  0  0  0  0  0  0  0  0  0  0
    2.8080    1.3110   -1.6060 C   0  0  2  0  0  0  0  0  0  0  0  0
    1.6180    1.2820   -2.2820 F   0  0  0  0  0  0  0  0  0  0  0  0
    3.7880    0.5350   -2.1770 F   0  0  0  0  0  0  0  0  0  0  0  0
    3.2700    2.6320   -1.6900 F   0  0  0  0  0  0  0  0  0  0  0  0
    2.9110   -1.3050   -0.2690 O   0  0  0  0  0  0  0  0  0  0  0  0
    4.1990   -1.2530    0.2760 C   0  0  0  0  0  0  0  0  0  0  0  0
    4.5680   -0.8900    1.4730 C   0  0  0  0  0  0  0  0  0  0  0  0
    6.0370   -0.9900    1.6190 C   0  0  0  0  0  0  0  0  0  0  0  0
    6.4660   -1.4780    0.2890 C   0  0  0  0  0  0  0  0  0  0  0  0
    5.3950   -1.6240   -0.4710 C   0  0  0  0  0  0  0  0  0  0  0  0
  1  2  2  0
  2  3  1  0
  2 15  1  0
  3  4  1  0
  5  4  1  1
  5  6  1  0
  5 14  1  0
  6  7  1  0
  7  8  1  0
  8  9  2  0
  8 13  1  0
  9 10  1  0
 10 11  1  0
 11 12  1  0
 12 13  2  0
 13 14  1  0
 15 16  1  6
 15 21  1  0
 16 17  1  0
 17 18  1  6
 17 19  1  0
 17 20  1  0
 21 22  1  0
 22 23  2  0
 22 26  1  0
 23 24  1  0
 24 25  1  0
 25 26  2  0
M  END
