
     RDKit          3D

 26 28  0  0  0  0  0  0  0  0999 V2000
    4.6990    1.0930    2.0360 C   0  0  0  0  0  0  0  0  0  0  0  0
    3.5830    0.3800    2.5450 C   0  0  0  0  0  0  0  0  0  0  0  0
    2.6750   -0.2640    3.0530 C   0  0  0  0  0  0  0  0  0  0  0  0
    3.3430   -1.1120    4.6020 S   0  0  0  0  0  0  0  0  0  0  0  0
    2.4730   -2.3080    4.7900 O   0  0  0  0  0  0  0  0  0  0  0  0
    1.3080   -0.5320    2.8270 C   0  0  0  0  0  0  0  0  0  0  0  0
    0.8480   -1.3520    3.8190 O   0  0  0  0  0  0  0  0  0  0  0  0
    0.2730   -0.2330    1.9200 C   0  0  0  0  0  0  0  0  0  0  0  0
    0.0560    0.4300    0.8100 C   0  0  0  0  0  0  0  0  0  0  0  0
    1.0200    1.1530    0.1270 O   0  0  0  0  0  0  0  0  0  0  0  0
    1.0070    1.4600   -1.2110 C   0  0  0  0  0  0  0  0  0  0  0  0
    1.8930    2.1030   -1.8300 O   0  0  0  0  0  0  0  0  0  0  0  0
   -0.1710    0.9700   -1.9540 C   0  0  0  0  0  0  0  0  0  0  0  0
   -0.3590    0.8480   -3.2980 N   0  0  0  0  0  0  0  0  0  0  0  0
   -1.4420    0.1040   -3.5220 C   0  0  0  0  0  0  0  0  0  0  0  0
   -2.0670   -0.3500   -4.6830 C   0  0  0  0  0  0  0  0  0  0  0  0
   -3.1870   -1.1480   -4.6620 C   0  0  0  0  0  0  0  0  0  0  0  0
   -3.6770   -1.4840   -3.4340 C   0  0  0  0  0  0  0  0  0  0  0  0
   -3.1050   -1.0650   -2.2360 C   0  0  0  0  0  0  0  0  0  0  0  0
   -1.9850   -0.2690   -2.3070 C   0  0  0  0  0  0  0  0  0  0  0  0
   -1.1750    0.2930   -1.3190 C   0  0  0  0  0  0  0  0  0  0  0  0
   -1.2800    0.4710    0.1510 C   0  0  2  0  0  0  0  0  0  0  0  0
   -1.5950    1.8840    0.2420 F   0  0  0  0  0  0  0  0  0  0  0  0
   -2.3850   -0.1990    0.8420 C   0  0  2  0  0  0  0  0  0  0  0  0
   -2.5370    0.4020    2.1180 F   0  0  0  0  0  0  0  0  0  0  0  0
   -2.3160   -1.5360    1.0330 F   0  0  0  0  0  0  0  0  0  0  0  0
  1  2  1  0
  2  3  2  3
  3  4  1  0
  3  6  1  0
  4  5  2  0
  6  7  2  0
  6  8  1  0
  8  9  2  3
  9 10  1  0
  9 22  1  0
 10 11  1  0
 11 12  2  0
 11 13  1  0
 13 14  1  0
 13 21  2  0
 14 15  1  0
 15 16  2  0
 15 20  1  0
 16 17  1  0
 17 18  2  0
 18 19  1  0
 19 20  2  0
 20 21  1  0
 21 22  1  0
 22 23  1  6
 22 24  1  0
 24 25  1  1
 24 26  1  0
M  END
