
     RDKit          3D

 26 28  0  0  0  0  0  0  0  0999 V2000
   -3.6320    2.3030   -2.4020 C   0  0  0  0  0  0  0  0  0  0  0  0
   -3.2540    0.5680   -2.4110 S   0  0  2  0  0  0  0  0  0  0  0  0
   -2.9740    0.2220   -3.8670 O   0  0  0  0  0  0  0  0  0  0  0  0
   -4.4940   -0.1550   -1.9990 O   0  0  0  0  0  0  0  0  0  0  0  0
   -1.8900    0.2480   -1.4170 C   0  0  0  0  0  0  0  0  0  0  0  0
   -1.2310    1.2880   -0.7850 C   0  0  0  0  0  0  0  0  0  0  0  0
   -0.1350    1.0300    0.0250 C   0  0  0  0  0  0  0  0  0  0  0  0
    0.3520   -0.2570    0.2410 C   0  0  0  0  0  0  0  0  0  0  0  0
    1.4180   -0.5660    1.0310 O   0  0  0  0  0  0  0  0  0  0  0  0
    2.2360    0.2320    1.7490 C   0  0  0  0  0  0  0  0  0  0  0  0
    1.6770    0.9580    2.8090 C   0  0  0  0  0  0  0  0  0  0  0  0
    2.3710    1.7930    3.6180 C   0  0  0  0  0  0  0  0  0  0  0  0
    1.8200    2.4940    4.6440 F   0  0  0  0  0  0  0  0  0  0  0  0
    3.7330    1.9760    3.4260 C   0  0  0  0  0  0  0  0  0  0  0  0
    4.3200    1.2730    2.3850 C   0  0  0  0  0  0  0  0  0  0  0  0
    5.7330    1.4410    2.2060 C   0  0  0  0  0  0  0  0  0  0  0  0
    6.8960    1.5600    2.0680 N   0  0  0  0  0  0  0  0  0  0  0  0
    3.5870    0.4360    1.5840 C   0  0  0  0  0  0  0  0  0  0  0  0
   -0.3240   -1.2800   -0.4040 C   0  0  0  0  0  0  0  0  0  0  0  0
   -1.4200   -1.0570   -1.2170 C   0  0  0  0  0  0  0  0  0  0  0  0
   -1.9450   -2.3080   -1.7770 C   0  0  2  0  0  0  0  0  0  0  0  0
   -3.0650   -2.7840   -1.1180 O   0  0  0  0  0  0  0  0  0  0  0  0
   -0.8340   -3.3270   -1.5100 C   0  0  1  0  0  0  0  0  0  0  0  0
   -1.3130   -4.5500   -1.1350 F   0  0  0  0  0  0  0  0  0  0  0  0
   -0.0220   -3.4770   -2.6080 F   0  0  0  0  0  0  0  0  0  0  0  0
   -0.0370   -2.7590   -0.3670 C   0  0  0  0  0  0  0  0  0  0  0  0
  2  1  1  6
  2  3  2  0
  2  4  2  0
  2  5  1  0
  5  6  2  0
  5 20  1  0
  6  7  1  0
  7  8  2  0
  8  9  1  0
  8 19  1  0
  9 10  1  0
 10 11  2  0
 10 18  1  0
 11 12  1  0
 12 13  1  0
 12 14  2  0
 14 15  1  0
 15 16  1  0
 15 18  2  0
 16 17  3  0
 19 20  2  0
 19 26  1  0
 20 21  1  0
 21 22  1  1
 21 23  1  0
 23 24  1  1
 23 25  1  0
 23 26  1  0
M  END
