
     RDKit          3D

 26 27  0  0  0  0  0  0  0  0999 V2000
   -1.9110    1.3540    2.9860 C   0  0  0  0  0  0  0  0  0  0  0  0
   -2.9380    0.6100    2.6730 C   0  0  0  0  0  0  0  0  0  0  0  0
   -2.9680   -0.3930    1.6740 C   0  0  0  0  0  0  0  0  0  0  0  0
   -4.0820   -1.1360    1.4620 C   0  0  0  0  0  0  0  0  0  0  0  0
   -3.9640   -2.0890    0.4500 O   0  0  0  0  0  0  0  0  0  0  0  0
   -2.8190   -2.8890    0.4860 C   0  0  0  0  0  0  0  0  0  0  0  0
   -1.5310   -2.0570    0.6370 C   0  0  0  0  0  0  0  0  0  0  0  0
   -1.8370   -0.6550    0.7740 N   0  0  0  0  0  0  0  0  0  0  0  0
   -1.1980    0.4430    0.2100 C   0  0  0  0  0  0  0  0  0  0  0  0
   -1.8330    1.5580    0.2010 O   0  0  0  0  0  0  0  0  0  0  0  0
    0.1700    0.5540   -0.4310 C   0  0  0  0  0  0  0  0  0  0  0  0
    0.9170   -0.4590   -0.2300 C   0  0  0  0  0  0  0  0  0  0  0  0
    2.1590   -1.1300   -0.4390 C   0  0  0  0  0  0  0  0  0  0  0  0
    2.4470   -2.3600    0.0740 C   0  0  0  0  0  0  0  0  0  0  0  0
    3.7140   -2.8980   -0.2290 C   0  0  0  0  0  0  0  0  0  0  0  0
    4.5170   -2.2230   -0.9600 C   0  0  0  0  0  0  0  0  0  0  0  0
    3.5830   -0.7360   -1.3110 S   0  0  1  0  0  0  0  0  0  0  0  0
    3.4010   -0.6620   -2.8050 O   0  0  0  0  0  0  0  0  0  0  0  0
    4.4090    0.4020   -0.7700 O   0  0  0  0  0  0  0  0  0  0  0  0
    0.4710    1.8210   -1.0910 C   0  0  0  0  0  0  0  0  0  0  0  0
    1.9100    2.1030   -1.4270 C   0  0  0  0  0  0  0  0  0  0  0  0
   -0.3890    2.7950   -1.3340 C   0  0  0  0  0  0  0  0  0  0  0  0
    0.0350    4.0730   -2.0260 C   0  0  2  0  0  0  0  0  0  0  0  0
   -1.1250    4.7590   -2.4190 F   0  0  0  0  0  0  0  0  0  0  0  0
    0.6990    3.8310   -3.2070 F   0  0  0  0  0  0  0  0  0  0  0  0
    0.7120    4.8960   -1.1840 F   0  0  0  0  0  0  0  0  0  0  0  0
  1  2  2  0
  2  3  1  0
  3  4  2  0
  3  8  1  0
  4  5  1  0
  5  6  1  0
  6  7  1  0
  7  8  1  0
  8  9  1  0
  9 10  2  0
  9 11  1  0
 11 12  2  3
 11 20  1  0
 12 13  1  0
 13 14  2  0
 13 17  1  0
 14 15  1  0
 15 16  2  0
 17 16  1  6
 17 18  2  0
 17 19  2  0
 20 21  1  0
 20 22  2  3
 22 23  1  0
 23 24  1  6
 23 25  1  0
 23 26  1  0
M  END
