
     RDKit          3D

 26 28  0  0  0  0  0  0  0  0999 V2000
    6.0050    1.4160    0.1080 C   0  0  0  0  0  0  0  0  0  0  0  0
    4.7290    1.4380   -0.0810 C   0  0  0  0  0  0  0  0  0  0  0  0
    4.0870    2.7040   -0.3210 O   0  0  0  0  0  0  0  0  0  0  0  0
    2.8060    2.9700    0.2270 C   0  0  0  0  0  0  0  0  0  0  0  0
    1.8690    1.8190   -0.0650 C   0  0  2  0  0  0  0  0  0  0  0  0
    0.7860    1.7130    0.9810 C   0  0  0  0  0  0  0  0  0  0  0  0
   -0.2930    0.9240    0.6700 O   0  0  0  0  0  0  0  0  0  0  0  0
   -0.3610   -0.4140    0.4070 C   0  0  0  0  0  0  0  0  0  0  0  0
    0.6720   -1.0850    0.4380 O   0  0  0  0  0  0  0  0  0  0  0  0
   -1.6810   -1.0050    0.0920 C   0  0  0  0  0  0  0  0  0  0  0  0
   -2.8920   -0.3250    0.0350 C   0  0  0  0  0  0  0  0  0  0  0  0
   -3.9000   -1.1960   -0.2850 C   0  0  0  0  0  0  0  0  0  0  0  0
   -5.3250   -0.8670   -0.4410 C   0  0  0  0  0  0  0  0  0  0  0  0
   -6.3750   -1.6120   -0.7430 C   0  0  0  0  0  0  0  0  0  0  0  0
   -7.6010   -1.0610   -0.8280 C   0  0  0  0  0  0  0  0  0  0  0  0
   -7.7010    0.2880   -0.5880 C   0  0  0  0  0  0  0  0  0  0  0  0
   -6.0130    0.7580   -0.2390 S   0  0  0  0  0  0  0  0  0  0  0  0
   -3.3080   -2.4250   -0.4260 C   0  0  0  0  0  0  0  0  0  0  0  0
   -1.9690   -2.2850   -0.1940 N   0  0  0  0  0  0  0  0  0  0  0  0
    2.4610    0.6240   -0.3230 O   0  0  0  0  0  0  0  0  0  0  0  0
    3.8420    0.3170   -0.0830 C   0  0  0  0  0  0  0  0  0  0  0  0
    4.1540   -0.9320    0.1060 C   0  0  0  0  0  0  0  0  0  0  0  0
    5.3930   -1.6020    0.3670 C   0  0  2  0  0  0  0  0  0  0  0  0
    5.9520   -1.2920    1.5820 F   0  0  0  0  0  0  0  0  0  0  0  0
    6.2890   -1.5590   -0.6620 F   0  0  0  0  0  0  0  0  0  0  0  0
    5.1190   -3.0260    0.4950 F   0  0  0  0  0  0  0  0  0  0  0  0
  1  2  2  0
  2  3  1  0
  2 21  1  0
  3  4  1  0
  4  5  1  0
  5  6  1  1
  5 20  1  0
  6  7  1  0
  7  8  1  0
  8  9  2  0
  8 10  1  0
 10 11  2  0
 10 19  1  0
 11 12  1  0
 12 13  1  0
 12 18  2  0
 13 14  2  0
 13 17  1  0
 14 15  1  0
 15 16  2  0
 16 17  1  0
 18 19  1  0
 20 21  1  0
 21 22  2  3
 22 23  1  0
 23 24  1  1
 23 25  1  0
 23 26  1  0
M  END
