
     RDKit          3D

 20 22  0  0  0  0  0  0  0  0999 V2000
   -3.6410    1.8760    1.9140 C   0  0  0  0  0  0  0  0  0  0  0  0
   -2.8920    1.2390    0.7930 C   0  0  1  0  0  0  0  0  0  0  0  0
   -3.0130   -0.2640    0.8060 C   0  0  0  0  0  0  0  0  0  0  0  0
   -2.0820   -0.8490   -0.2460 C   0  0  1  0  0  0  0  0  0  0  0  0
   -2.2850   -0.1180   -1.5620 C   0  0  0  0  0  0  0  0  0  0  0  0
   -2.4140    1.3620   -1.3890 C   0  0  0  0  0  0  0  0  0  0  0  0
   -3.3990    1.6820   -0.4310 O   0  0  0  0  0  0  0  0  0  0  0  0
   -0.6800   -0.5930    0.2080 C   0  0  0  0  0  0  0  0  0  0  0  0
    0.2380   -1.5790   -0.4500 C   0  0  1  0  0  0  0  0  0  0  0  0
    1.6620   -1.2900   -0.1440 C   0  0  0  0  0  0  0  0  0  0  0  0
    2.3530   -2.1600    0.4450 O   0  0  0  0  0  0  0  0  0  0  0  0
    2.2750   -0.1050   -0.4750 O   0  0  0  0  0  0  0  0  0  0  0  0
    3.6290    0.1630   -0.1810 C   0  0  2  0  0  0  0  0  0  0  0  0
    3.6660    1.4300    0.6770 C   0  0  0  0  0  0  0  0  0  0  0  0
    4.6680    2.3250    0.0150 C   0  0  0  0  0  0  0  0  0  0  0  0
    5.2960    1.5790   -0.9550 O   0  0  0  0  0  0  0  0  0  0  0  0
    4.4080    0.6110   -1.4000 C   0  0  0  0  0  0  0  0  0  0  0  0
   -0.1310   -2.9510    0.0140 C   0  0  0  0  0  0  0  0  0  0  0  0
   -1.6060   -3.0600    0.2600 C   0  0  0  0  0  0  0  0  0  0  0  0
   -2.3570   -2.1800   -0.4960 O   0  0  0  0  0  0  0  0  0  0  0  0
  2  1  1  1
  2  3  1  0
  2  7  1  0
  4  3  1  1
  4  5  1  0
  4  8  1  0
  4 20  1  0
  5  6  1  0
  6  7  1  0
  8  9  1  0
  9 10  1  1
  9 18  1  0
 10 11  2  0
 10 12  1  0
 13 12  1  6
 13 14  1  0
 13 17  1  0
 14 15  1  0
 15 16  1  0
 16 17  1  0
 18 19  1  0
 19 20  1  0
M  END
