
     RDKit          3D

 27 31  0  0  0  0  0  0  0  0999 V2000
   -4.0590   -3.0570    1.9130 C   0  0  0  0  0  0  0  0  0  0  0  0
   -3.7330   -1.8960    1.0100 C   0  0  0  0  0  0  0  0  0  0  0  0
   -2.5380   -1.6470    0.4470 N   0  0  0  0  0  0  0  0  0  0  0  0
   -2.6130   -0.5450   -0.2830 N   0  0  0  0  0  0  0  0  0  0  0  0
   -1.4930   -0.0210   -1.0110 C   0  0  0  0  0  0  0  0  0  0  0  0
   -1.5120    0.6360   -2.2230 C   0  0  0  0  0  0  0  0  0  0  0  0
   -0.2320    0.9410   -2.5120 N   0  0  0  0  0  0  0  0  0  0  0  0
    0.5570    0.4950   -1.5260 C   0  0  0  0  0  0  0  0  0  0  0  0
    1.9310    0.5710   -1.3750 C   0  0  0  0  0  0  0  0  0  0  0  0
    2.5700    0.0550   -0.2900 C   0  0  0  0  0  0  0  0  0  0  0  0
    3.9510    0.0610   -0.0090 N   0  0  0  0  0  0  0  0  0  0  0  0
    4.9780    0.6140   -0.8080 C   0  0  0  0  0  0  0  0  0  0  0  0
    4.6570    1.1730   -1.9020 O   0  0  0  0  0  0  0  0  0  0  0  0
    6.3820    0.5540   -0.3990 C   0  0  0  0  0  0  0  0  0  0  0  0
    6.8190    0.0020    0.7070 C   0  0  0  0  0  0  0  0  0  0  0  0
    8.2980    0.1280    0.7880 C   0  0  0  0  0  0  0  0  0  0  0  0
    8.6420    0.8470   -0.4600 C   0  0  0  0  0  0  0  0  0  0  0  0
    7.5360    1.0740   -1.1110 C   0  0  0  0  0  0  0  0  0  0  0  0
    1.7320   -0.5570    0.6570 C   0  0  0  0  0  0  0  0  0  0  0  0
    0.3680   -0.6290    0.5020 C   0  0  0  0  0  0  0  0  0  0  0  0
   -0.1930   -0.0910   -0.6060 N   0  0  0  0  0  0  0  0  0  0  0  0
   -3.8560   -0.0450   -0.2190 C   0  0  0  0  0  0  0  0  0  0  0  0
   -4.5640   -0.8900    0.5940 C   0  0  0  0  0  0  0  0  0  0  0  0
   -5.9840   -0.5840    0.8500 C   0  0  0  0  0  0  0  0  0  0  0  0
   -6.0820    0.9310    1.0180 C   0  0  0  0  0  0  0  0  0  0  0  0
   -5.6960    1.6210   -0.2430 C   0  0  0  0  0  0  0  0  0  0  0  0
   -4.4230    1.1590   -0.8570 C   0  0  0  0  0  0  0  0  0  0  0  0
  1  2  1  0
  2  3  2  0
  2 23  1  0
  3  4  1  0
  4  5  1  0
  4 22  1  0
  5  6  2  0
  5 21  1  0
  6  7  1  0
  7  8  2  0
  8  9  1  0
  8 21  1  0
  9 10  2  0
 10 11  1  0
 10 19  1  0
 11 12  1  0
 12 13  2  0
 12 14  1  0
 14 15  2  0
 14 18  1  0
 15 16  1  0
 16 17  1  0
 17 18  2  0
 19 20  2  0
 20 21  1  0
 22 23  2  0
 22 27  1  0
 23 24  1  0
 24 25  1  0
 25 26  1  0
 26 27  1  0
M  END
