
     RDKit          3D

 27 31  0  0  0  0  0  0  0  0999 V2000
   -4.9050    0.4250    2.4120 C   0  0  0  0  0  0  0  0  0  0  0  0
   -3.5710    0.4050    1.7610 C   0  0  0  0  0  0  0  0  0  0  0  0
   -3.3630   -0.2560    0.6430 C   0  0  0  0  0  0  0  0  0  0  0  0
   -4.4660   -0.9820    0.0350 C   0  0  0  0  0  0  0  0  0  0  0  0
   -4.5930   -1.4680   -1.1900 C   0  0  0  0  0  0  0  0  0  0  0  0
   -3.5870   -1.3650   -2.2410 C   0  0  0  0  0  0  0  0  0  0  0  0
   -2.3290   -0.9530   -2.2060 C   0  0  0  0  0  0  0  0  0  0  0  0
   -1.5630   -0.4740   -1.0980 N   0  0  0  0  0  0  0  0  0  0  0  0
   -1.9870   -0.1660    0.1400 C   0  0  0  0  0  0  0  0  0  0  0  0
   -1.1950    0.2820    1.1310 N   0  0  0  0  0  0  0  0  0  0  0  0
    0.1250    0.4290    0.8470 C   0  0  0  0  0  0  0  0  0  0  0  0
    1.0910    0.9200    1.8610 C   0  0  0  0  0  0  0  0  0  0  0  0
    0.6000    0.1250   -0.4080 C   0  0  0  0  0  0  0  0  0  0  0  0
    1.9920    0.3020   -0.6830 N   0  0  0  0  0  0  0  0  0  0  0  0
    2.9780   -0.6050   -0.6740 C   0  0  0  0  0  0  0  0  0  0  0  0
    2.9490   -2.0380   -0.3560 C   0  0  1  0  0  0  0  0  0  0  0  0
    2.9090   -2.3160    1.1880 C   0  0  0  0  0  0  0  0  0  0  0  0
    1.8400   -2.7510    0.2640 C   0  0  0  0  0  0  0  0  0  0  0  0
    4.1450    0.0190   -1.0110 N   0  0  0  0  0  0  0  0  0  0  0  0
    3.9300    1.3180   -1.2370 C   0  0  0  0  0  0  0  0  0  0  0  0
    4.6750    2.4070   -1.5920 C   0  0  0  0  0  0  0  0  0  0  0  0
    4.0550    3.6430   -1.7330 C   0  0  0  0  0  0  0  0  0  0  0  0
    2.7410    3.8120   -1.5320 N   0  0  0  0  0  0  0  0  0  0  0  0
    2.0110    2.7300   -1.1810 C   0  0  0  0  0  0  0  0  0  0  0  0
    2.5850    1.4830   -1.0300 C   0  0  0  0  0  0  0  0  0  0  0  0
   -0.2590   -0.3290   -1.3790 C   0  0  0  0  0  0  0  0  0  0  0  0
    0.1470   -0.6110   -2.5250 O   0  0  0  0  0  0  0  0  0  0  0  0
  1  2  1  0
  2  3  2  3
  3  4  1  0
  3  9  1  0
  4  5  2  0
  5  6  1  0
  6  7  2  0
  7  8  1  0
  8  9  1  0
  8 26  1  0
  9 10  2  0
 10 11  1  0
 11 12  1  0
 11 13  2  0
 13 14  1  0
 13 26  1  0
 14 15  1  0
 14 25  1  0
 16 15  1  1
 15 19  2  0
 16 17  1  0
 16 18  1  0
 17 18  1  0
 19 20  1  0
 20 21  2  0
 20 25  1  0
 21 22  1  0
 22 23  2  0
 23 24  1  0
 24 25  2  0
 26 27  2  0
M  END
