
     RDKit          3D

 27 28  0  0  0  0  0  0  0  0999 V2000
   -3.3660    5.3090   -0.5400 C   0  0  0  0  0  0  0  0  0  0  0  0
   -2.5090    4.1580   -0.0530 C   0  0  0  0  0  0  0  0  0  0  0  0
   -3.2760    3.0860    0.4290 O   0  0  0  0  0  0  0  0  0  0  0  0
   -2.4430    2.0880    0.9130 C   0  0  0  0  0  0  0  0  0  0  0  0
   -1.6980    1.4690   -0.2250 C   0  0  0  0  0  0  0  0  0  0  0  0
   -0.7090    0.4170    0.2700 N   0  0  0  0  0  0  0  0  0  0  0  0
   -1.1390   -0.8600    0.5160 C   0  0  0  0  0  0  0  0  0  0  0  0
   -1.3430   -2.0170   -0.3150 C   0  0  0  0  0  0  0  0  0  0  0  0
   -2.6260   -2.6260   -0.3370 C   0  0  0  0  0  0  0  0  0  0  0  0
   -2.8890   -3.8570   -0.8430 C   0  0  0  0  0  0  0  0  0  0  0  0
   -4.1780   -4.5170   -0.7570 N   0  0  0  0  0  0  0  0  0  0  0  0
   -1.8210   -4.5710   -1.3890 C   0  0  0  0  0  0  0  0  0  0  0  0
   -0.5770   -4.0360   -1.4030 C   0  0  0  0  0  0  0  0  0  0  0  0
   -0.3570   -2.7840   -0.8690 C   0  0  0  0  0  0  0  0  0  0  0  0
    0.9240   -2.3150   -0.9270 O   0  0  0  0  0  0  0  0  0  0  0  0
    0.5440    0.9620    0.5090 C   0  0  0  0  0  0  0  0  0  0  0  0
    0.4370    2.3580    0.4260 O   0  0  0  0  0  0  0  0  0  0  0  0
    1.8870    0.6060    0.7990 C   0  0  0  0  0  0  0  0  0  0  0  0
    2.7370    0.0570   -0.1050 C   0  0  0  0  0  0  0  0  0  0  0  0
    4.0860   -0.0710    0.1610 C   0  0  0  0  0  0  0  0  0  0  0  0
    4.9570   -0.5710   -0.7180 O   0  0  0  0  0  0  0  0  0  0  0  0
    4.9960   -1.0450   -1.9870 C   0  0  0  0  0  0  0  0  0  0  0  0
    4.5780    0.3670    1.3840 C   0  0  0  0  0  0  0  0  0  0  0  0
    5.9470    0.2510    1.7100 O   0  0  0  0  0  0  0  0  0  0  0  0
    3.7360    0.9280    2.3250 C   0  0  0  0  0  0  0  0  0  0  0  0
    2.3960    1.0600    2.0600 C   0  0  0  0  0  0  0  0  0  0  0  0
    1.5110    1.6090    2.9390 O   0  0  0  0  0  0  0  0  0  0  0  0
  1  2  1  0
  2  3  1  0
  3  4  1  0
  4  5  1  0
  5  6  1  0
  6  7  1  0
  6 16  1  0
  7  8  1  0
  8  9  2  0
  8 14  1  0
  9 10  1  0
 10 11  1  0
 10 12  2  0
 12 13  1  0
 13 14  2  0
 14 15  1  0
 16 17  2  0
 16 18  1  0
 18 19  2  0
 18 26  1  0
 19 20  1  0
 20 21  1  0
 20 23  2  0
 21 22  1  0
 23 24  1  0
 23 25  1  0
 25 26  2  0
 26 27  1  0
M  END
