
     RDKit          3D

 27 28  0  0  0  0  0  0  0  0999 V2000
   -4.6230   -2.4420    1.0760 N   0  0  0  0  0  0  0  0  0  0  0  0
   -3.6560   -1.4120    1.0790 C   0  0  0  0  0  0  0  0  0  0  0  0
   -2.9460   -1.2870    2.2710 C   0  0  0  0  0  0  0  0  0  0  0  0
   -1.9240   -0.3570    2.3680 C   0  0  0  0  0  0  0  0  0  0  0  0
   -1.5920    0.4450    1.3160 C   0  0  0  0  0  0  0  0  0  0  0  0
   -0.6010    1.3620    1.3600 O   0  0  0  0  0  0  0  0  0  0  0  0
    0.3090    1.7530    2.3010 C   0  0  0  0  0  0  0  0  0  0  0  0
    1.3190    0.7460    2.7390 C   0  0  0  0  0  0  0  0  0  0  0  0
    2.1460    0.2710    1.6370 N   0  0  0  0  0  0  0  0  0  0  0  0
    2.9660    1.1230    0.8540 C   0  0  0  0  0  0  0  0  0  0  0  0
    2.9780    2.3440    1.1250 O   0  0  0  0  0  0  0  0  0  0  0  0
    3.7880    0.6410   -0.2430 C   0  0  0  0  0  0  0  0  0  0  0  0
    4.4840    1.5740   -0.8590 C   0  0  0  0  0  0  0  0  0  0  0  0
    5.3980    1.3640   -2.0050 C   0  0  0  0  0  0  0  0  0  0  0  0
    6.4400    0.3350   -1.8210 C   0  0  0  0  0  0  0  0  0  0  0  0
    6.1370   -0.8250   -0.9600 C   0  0  0  0  0  0  0  0  0  0  0  0
    4.8040   -1.4610   -1.1280 C   0  0  0  0  0  0  0  0  0  0  0  0
    3.7520   -0.7330   -0.5200 O   0  0  0  0  0  0  0  0  0  0  0  0
   -2.3210    0.3040    0.1200 C   0  0  0  0  0  0  0  0  0  0  0  0
   -3.3410   -0.6080    0.0010 C   0  0  0  0  0  0  0  0  0  0  0  0
   -4.0970   -0.7350   -1.2400 C   0  0  1  0  0  0  0  0  0  0  0  0
   -3.9740   -2.0250   -1.7430 O   0  0  0  0  0  0  0  0  0  0  0  0
   -5.5930   -0.4390   -1.1270 C   0  0  0  0  0  0  0  0  0  0  0  0
   -6.3330   -1.3000   -0.3800 O   0  0  0  0  0  0  0  0  0  0  0  0
   -3.5830    0.1780   -2.3620 C   0  0  0  0  0  0  0  0  0  0  0  0
   -3.6900    1.6080   -2.1150 C   0  0  0  0  0  0  0  0  0  0  0  0
   -4.2280    2.1330   -1.1620 O   0  0  0  0  0  0  0  0  0  0  0  0
  1  2  1  0
  2  3  2  0
  2 20  1  0
  3  4  1  0
  4  5  2  0
  5  6  1  0
  5 19  1  0
  6  7  1  0
  7  8  1  0
  8  9  1  0
  9 10  1  0
 10 11  2  0
 10 12  1  0
 12 13  2  0
 12 18  1  0
 13 14  1  0
 14 15  1  0
 15 16  1  0
 16 17  1  0
 17 18  1  0
 19 20  2  0
 20 21  1  0
 21 22  1  6
 21 23  1  0
 21 25  1  0
 23 24  1  0
 25 26  1  0
 26 27  2  0
M  END
