
     RDKit          3D

 27 28  0  0  0  0  0  0  0  0999 V2000
   -6.4620    0.5960    1.7960 C   0  0  0  0  0  0  0  0  0  0  0  0
   -4.9880    0.4590    2.0950 C   0  0  0  0  0  0  0  0  0  0  0  0
   -4.3140   -0.0150    0.9180 O   0  0  0  0  0  0  0  0  0  0  0  0
   -2.9140   -0.2230    0.9180 C   0  0  0  0  0  0  0  0  0  0  0  0
   -2.3980    0.0470    2.0100 O   0  0  0  0  0  0  0  0  0  0  0  0
   -2.3230   -0.6950   -0.3000 C   0  0  0  0  0  0  0  0  0  0  0  0
   -3.1160   -0.9600   -1.4320 C   0  0  0  0  0  0  0  0  0  0  0  0
   -2.6100   -1.4050   -2.6180 C   0  0  0  0  0  0  0  0  0  0  0  0
   -3.4530   -1.6440   -3.6910 O   0  0  0  0  0  0  0  0  0  0  0  0
   -1.2740   -1.6170   -2.7590 C   0  0  0  0  0  0  0  0  0  0  0  0
   -0.4660   -1.3690   -1.6720 C   0  0  0  0  0  0  0  0  0  0  0  0
   -0.9800   -0.9130   -0.4530 C   0  0  0  0  0  0  0  0  0  0  0  0
   -0.0180   -0.6850    0.6210 C   0  0  1  0  0  0  0  0  0  0  0  0
    0.9400   -1.8900    0.7090 C   0  0  0  0  0  0  0  0  0  0  0  0
    0.1600   -3.0490    0.9930 O   0  0  0  0  0  0  0  0  0  0  0  0
    0.8380    0.5270    0.4230 C   0  0  0  0  0  0  0  0  0  0  0  0
    0.3020    1.8050    0.6210 C   0  0  0  0  0  0  0  0  0  0  0  0
    1.0700    2.9320    0.4550 C   0  0  0  0  0  0  0  0  0  0  0  0
    2.3810    2.8650    0.0920 C   0  0  0  0  0  0  0  0  0  0  0  0
    3.2070    4.0150   -0.0890 N   0  0  0  0  0  0  0  0  0  0  0  0
    2.9540    1.6180   -0.1140 C   0  0  0  0  0  0  0  0  0  0  0  0
    4.2880    1.5570   -0.4840 O   0  0  0  0  0  0  0  0  0  0  0  0
    5.0070    0.3920   -0.7100 C   0  0  0  0  0  0  0  0  0  0  0  0
    5.0760   -0.4030    0.5330 C   0  0  0  0  0  0  0  0  0  0  0  0
    5.6990   -1.6780    0.4850 N   0  0  0  0  0  0  0  0  0  0  0  0
    4.6000    0.0310    1.6020 O   0  0  0  0  0  0  0  0  0  0  0  0
    2.1600    0.4770    0.0580 C   0  0  0  0  0  0  0  0  0  0  0  0
  1  2  1  0
  2  3  1  0
  3  4  1  0
  4  5  2  0
  4  6  1  0
  6  7  2  0
  6 12  1  0
  7  8  1  0
  8  9  1  0
  8 10  2  0
 10 11  1  0
 11 12  2  0
 12 13  1  0
 13 14  1  6
 13 16  1  0
 14 15  1  0
 16 17  2  0
 16 27  1  0
 17 18  1  0
 18 19  2  0
 19 20  1  0
 19 21  1  0
 21 22  1  0
 21 27  2  0
 22 23  1  0
 23 24  1  0
 24 25  1  0
 24 26  2  0
M  END
