
     RDKit          3D

 26 27  0  0  0  0  0  0  0  0999 V2000
   -1.8400   -3.6060   -0.4630 C   0  0  0  0  0  0  0  0  0  0  0  0
   -1.6400   -2.1480   -0.2970 C   0  0  0  0  0  0  0  0  0  0  0  0
   -0.4330   -1.5620   -0.5320 C   0  0  0  0  0  0  0  0  0  0  0  0
   -0.2090   -0.2140   -0.3840 C   0  0  0  0  0  0  0  0  0  0  0  0
    0.9310    0.3320   -0.6090 O   0  0  0  0  0  0  0  0  0  0  0  0
    2.0750    0.8580   -0.8390 C   0  0  0  0  0  0  0  0  0  0  0  0
    3.2980    0.4190    0.0060 C   0  0  1  0  0  0  0  0  0  0  0  0
    3.0790    0.7240    1.3450 O   0  0  0  0  0  0  0  0  0  0  0  0
    3.4630   -1.0420   -0.2270 C   0  0  0  0  0  0  0  0  0  0  0  0
    4.4200   -1.7190    0.3800 O   0  0  0  0  0  0  0  0  0  0  0  0
    5.7210   -1.6330    0.2460 C   0  0  0  0  0  0  0  0  0  0  0  0
    6.3720   -0.3090    0.5490 C   0  0  0  0  0  0  0  0  0  0  0  0
    6.1450    0.1230    1.8530 O   0  0  0  0  0  0  0  0  0  0  0  0
   -1.3100    0.5490    0.0290 C   0  0  0  0  0  0  0  0  0  0  0  0
   -1.0910    1.9650    0.1960 C   0  0  0  0  0  0  0  0  0  0  0  0
   -0.0590    2.3920    0.7260 O   0  0  0  0  0  0  0  0  0  0  0  0
   -2.1010    2.8930   -0.2710 C   0  0  0  0  0  0  0  0  0  0  0  0
   -2.4280    4.1690    0.1320 C   0  0  0  0  0  0  0  0  0  0  0  0
   -3.4600    4.6900   -0.6310 C   0  0  0  0  0  0  0  0  0  0  0  0
   -3.7650    3.7240   -1.5050 N   0  0  0  0  0  0  0  0  0  0  0  0
   -2.9970    2.6520   -1.3360 C   0  0  0  0  0  0  0  0  0  0  0  0
   -2.5530   -0.0410    0.2740 C   0  0  0  0  0  0  0  0  0  0  0  0
   -2.7570   -1.3810    0.1230 C   0  0  0  0  0  0  0  0  0  0  0  0
   -4.0120   -2.0630    0.2990 C   0  0  0  0  0  0  0  0  0  0  0  0
   -5.1050   -1.6920    0.8500 C   0  0  0  0  0  0  0  0  0  0  0  0
   -5.4690   -0.5110    1.4740 N   0  0  0  0  0  0  0  0  0  0  0  0
  1  2  1  0
  2  3  2  0
  2 23  1  0
  3  4  1  0
  4  5  1  0
  4 14  2  0
  5  6  1  0
  6  7  1  0
  7  8  1  1
  7  9  1  0
  9 10  1  0
 10 11  1  0
 11 12  1  0
 12 13  1  0
 14 15  1  0
 14 22  1  0
 15 16  2  0
 15 17  1  0
 17 18  1  0
 17 21  2  0
 18 19  2  0
 19 20  1  0
 20 21  1  0
 22 23  2  0
 23 24  1  0
 24 25  2  3
 25 26  1  0
M  END
