
     RDKit          3D

 18 19  0  0  0  0  0  0  0  0999 V2000
    4.3420    1.6260   -0.3460 C   0  0  0  0  0  0  0  0  0  0  0  0
    3.1460    1.3430   -1.0580 O   0  0  0  0  0  0  0  0  0  0  0  0
    2.5100    0.1240   -1.0480 C   0  0  0  0  0  0  0  0  0  0  0  0
    3.1790   -0.8910   -1.5410 C   0  0  0  0  0  0  0  0  0  0  0  0
    4.4820   -0.7150   -2.0470 O   0  0  0  0  0  0  0  0  0  0  0  0
    1.1640   -0.0090   -0.5130 C   0  0  0  0  0  0  0  0  0  0  0  0
    0.5680   -1.2780   -0.4600 C   0  0  0  0  0  0  0  0  0  0  0  0
   -0.7020   -1.4590    0.0290 C   0  0  0  0  0  0  0  0  0  0  0  0
   -1.4030   -0.3640    0.4770 C   0  0  0  0  0  0  0  0  0  0  0  0
   -0.8860    0.8990    0.4550 C   0  0  0  0  0  0  0  0  0  0  0  0
   -1.6960    1.9900    0.9470 C   0  0  0  0  0  0  0  0  0  0  0  0
   -1.1180    3.3100    0.9080 N   0  0  0  0  0  0  0  0  0  0  0  0
    0.4050    1.0640   -0.0450 C   0  0  0  0  0  0  0  0  0  0  0  0
    0.8770    2.3340   -0.0510 O   0  0  0  0  0  0  0  0  0  0  0  0
   -2.7620   -0.6250    0.9910 C   0  0  0  0  0  0  0  0  0  0  0  0
   -3.4170   -1.5840    0.0310 C   0  0  0  0  0  0  0  0  0  0  0  0
   -2.7200   -2.9150    0.1140 C   0  0  0  0  0  0  0  0  0  0  0  0
   -1.2400   -2.8400    0.0420 C   0  0  0  0  0  0  0  0  0  0  0  0
  1  2  1  0
  2  3  1  0
  3  4  2  3
  3  6  1  0
  4  5  1  0
  6  7  2  0
  6 13  1  0
  7  8  1  0
  8  9  2  0
  8 18  1  0
  9 10  1  0
  9 15  1  0
 10 11  1  0
 10 13  2  0
 11 12  1  0
 13 14  1  0
 15 16  1  0
 16 17  1  0
 17 18  1  0
M  CHG  1  12   1
M  END
