
     RDKit          3D

 19 20  0  0  0  0  0  0  0  0999 V2000
   -3.2740    1.2330    0.9210 C   0  0  0  0  0  0  0  0  0  0  0  0
   -2.3750    0.9690   -0.0400 C   0  0  0  0  0  0  0  0  0  0  0  0
   -2.3370   -0.1850   -0.9120 C   0  0  0  0  0  0  0  0  0  0  0  0
   -3.2290   -1.1380   -0.9740 C   0  0  0  0  0  0  0  0  0  0  0  0
   -3.0690   -2.2860   -1.9280 C   0  0  0  0  0  0  0  0  0  0  0  0
   -4.1800   -2.2850   -2.8010 O   0  0  0  0  0  0  0  0  0  0  0  0
   -1.0770   -0.0770   -1.7280 C   0  0  0  0  0  0  0  0  0  0  0  0
   -0.1930    0.8800   -0.9360 C   0  0  2  0  0  0  0  0  0  0  0  0
    0.4570    0.1630    0.0580 O   0  0  0  0  0  0  0  0  0  0  0  0
    1.8110    0.0270    0.2060 C   0  0  0  0  0  0  0  0  0  0  0  0
    2.7510    0.5840   -0.6140 C   0  0  0  0  0  0  0  0  0  0  0  0
    4.1110    0.4330   -0.4450 C   0  0  0  0  0  0  0  0  0  0  0  0
    4.5560   -0.3270    0.6160 C   0  0  0  0  0  0  0  0  0  0  0  0
    5.9160   -0.5080    0.8280 O   0  0  0  0  0  0  0  0  0  0  0  0
    3.6150   -0.9100    1.4720 C   0  0  0  0  0  0  0  0  0  0  0  0
    2.2810   -0.7420    1.2790 C   0  0  0  0  0  0  0  0  0  0  0  0
    1.2950   -1.3700    2.2000 C   0  0  0  0  0  0  0  0  0  0  0  0
   -1.2320    1.8450   -0.3810 C   0  0  2  0  0  0  0  0  0  0  0  0
   -0.6990    2.4830    0.8050 N   0  0  0  0  0  0  0  0  0  0  0  0
  1  2  2  0
  2  3  1  0
  2 18  1  0
  3  4  2  3
  3  7  1  0
  4  5  1  0
  5  6  1  0
  7  8  1  0
  8  9  1  1
  8 18  1  0
  9 10  1  0
 10 11  2  0
 10 16  1  0
 11 12  1  0
 12 13  2  0
 13 14  1  0
 13 15  1  0
 15 16  2  0
 16 17  1  0
 18 19  1  1
M  CHG  1  19   1
M  END
