
     RDKit          3D

 19 20  0  0  0  0  0  0  0  0999 V2000
    4.6730    0.5540    1.7630 C   0  0  0  0  0  0  0  0  0  0  0  0
    5.1080    0.6490    0.3550 C   0  0  0  0  0  0  0  0  0  0  0  0
    4.2770    1.0020   -0.5960 C   0  0  0  0  0  0  0  0  0  0  0  0
    2.9620    1.2930   -0.2740 O   0  0  0  0  0  0  0  0  0  0  0  0
    1.9760    0.3690   -0.5880 C   0  0  0  0  0  0  0  0  0  0  0  0
    0.6700    0.6730   -0.2620 C   0  0  0  0  0  0  0  0  0  0  0  0
   -0.3250   -0.2540   -0.5760 C   0  0  0  0  0  0  0  0  0  0  0  0
   -0.0010   -1.4370   -1.1970 C   0  0  0  0  0  0  0  0  0  0  0  0
    1.2830   -1.7520   -1.5260 C   0  0  0  0  0  0  0  0  0  0  0  0
    2.2840   -0.8210   -1.2100 C   0  0  0  0  0  0  0  0  0  0  0  0
    3.5980   -1.0940   -1.5230 O   0  0  0  0  0  0  0  0  0  0  0  0
   -1.1070   -2.3630   -1.4880 C   0  0  0  0  0  0  0  0  0  0  0  0
   -1.8290   -2.5600   -0.1720 C   0  0  0  0  0  0  0  0  0  0  0  0
   -2.4580   -1.2710    0.2370 C   0  0  0  0  0  0  0  0  0  0  0  0
   -1.7520   -0.0580   -0.2930 C   0  0  1  0  0  0  0  0  0  0  0  0
   -2.0160    1.0610    0.5830 N   0  0  0  0  0  0  0  0  0  0  0  0
   -3.4610    1.2010    0.6550 C   0  0  0  0  0  0  0  0  0  0  0  0
   -3.8500    2.3890    1.5050 C   0  0  0  0  0  0  0  0  0  0  0  0
   -3.3180    3.5310    0.9510 O   0  0  0  0  0  0  0  0  0  0  0  0
  1  2  1  0
  2  3  2  3
  3  4  1  0
  4  5  1  0
  5  6  2  0
  5 10  1  0
  6  7  1  0
  7  8  2  0
  7 15  1  0
  8  9  1  0
  8 12  1  0
  9 10  2  0
 10 11  1  0
 12 13  1  0
 13 14  1  0
 14 15  1  0
 15 16  1  1
 16 17  1  0
 17 18  1  0
 18 19  1  0
M  CHG  1  16   1
M  END
