
     RDKit          3D

 19 20  0  0  0  0  0  0  0  0999 V2000
   -3.1690   -3.1400   -1.5030 C   0  0  0  0  0  0  0  0  0  0  0  0
   -2.3570   -1.9020   -1.4450 C   0  0  0  0  0  0  0  0  0  0  0  0
   -2.3780   -1.0780   -0.4150 C   0  0  0  0  0  0  0  0  0  0  0  0
   -1.5740    0.1250   -0.3850 C   0  0  0  0  0  0  0  0  0  0  0  0
   -0.7610    0.4020   -1.4870 O   0  0  0  0  0  0  0  0  0  0  0  0
    0.6240    0.2630   -1.4250 C   0  0  0  0  0  0  0  0  0  0  0  0
    1.3600    0.5550   -2.5550 C   0  0  0  0  0  0  0  0  0  0  0  0
    2.7270    0.4010   -2.4410 C   0  0  0  0  0  0  0  0  0  0  0  0
    3.3100   -0.0210   -1.2560 C   0  0  0  0  0  0  0  0  0  0  0  0
    2.5450   -0.3040   -0.1480 C   0  0  0  0  0  0  0  0  0  0  0  0
    1.1760   -0.1540   -0.2520 C   0  0  0  0  0  0  0  0  0  0  0  0
    3.4600   -0.7270    0.9280 C   0  0  2  0  0  0  0  0  0  0  0  0
    3.0430   -0.3270    2.1900 O   0  0  0  0  0  0  0  0  0  0  0  0
    4.7610   -0.0900    0.5150 C   0  0  0  0  0  0  0  0  0  0  0  0
    4.6620   -0.2450   -0.9140 O   0  0  0  0  0  0  0  0  0  0  0  0
   -1.6040    0.9420    0.6520 C   0  0  0  0  0  0  0  0  0  0  0  0
   -0.7340    2.1810    0.6100 C   0  0  0  0  0  0  0  0  0  0  0  0
   -2.4010    0.7840    1.8730 C   0  0  0  0  0  0  0  0  0  0  0  0
   -3.3040    1.9390    2.0170 N   0  0  0  0  0  0  0  0  0  0  0  0
  1  2  1  0
  2  3  2  3
  3  4  1  0
  4  5  1  0
  4 16  2  3
  5  6  1  0
  6  7  2  0
  6 11  1  0
  7  8  1  0
  8  9  2  0
  9 10  1  0
  9 15  1  0
 10 11  2  0
 10 12  1  0
 12 13  1  1
 12 14  1  0
 14 15  1  0
 16 17  1  0
 16 18  1  0
 18 19  1  0
M  CHG  1  19   1
M  END
