
     RDKit          3D

 19 20  0  0  0  0  0  0  0  0999 V2000
    4.7420    1.1940   -1.3170 C   0  0  0  0  0  0  0  0  0  0  0  0
    3.8640    0.2120   -0.7290 C   0  0  0  0  0  0  0  0  0  0  0  0
    2.6550   -0.0950   -1.2790 C   0  0  0  0  0  0  0  0  0  0  0  0
    1.9300   -1.1070   -0.5290 C   0  0  0  0  0  0  0  0  0  0  0  0
    0.7180   -1.1200   -0.1250 C   0  0  0  0  0  0  0  0  0  0  0  0
   -0.4230   -0.1790   -0.2240 C   0  0  0  0  0  0  0  0  0  0  0  0
   -1.5210   -0.5820    0.3480 C   0  0  0  0  0  0  0  0  0  0  0  0
   -2.8570   -0.1260    0.5390 C   0  0  0  0  0  0  0  0  0  0  0  0
   -3.6960   -0.8530    1.3270 C   0  0  0  0  0  0  0  0  0  0  0  0
   -5.0870   -0.5800    1.6620 C   0  0  0  0  0  0  0  0  0  0  0  0
   -5.6100    0.4530    0.8980 O   0  0  0  0  0  0  0  0  0  0  0  0
   -4.8160    1.2070    0.0900 C   0  0  0  0  0  0  0  0  0  0  0  0
   -3.4980    0.9920   -0.1310 C   0  0  0  0  0  0  0  0  0  0  0  0
   -2.8770    1.8270   -1.0930 N   0  0  0  0  0  0  0  0  0  0  0  0
   -0.1710    1.1710   -0.7000 C   0  0  0  0  0  0  0  0  0  0  0  0
    0.0450    1.2700   -2.0530 O   0  0  0  0  0  0  0  0  0  0  0  0
    2.7850   -2.3060   -0.1620 C   0  0  0  0  0  0  0  0  0  0  0  0
    4.0030   -1.9260    0.2770 O   0  0  0  0  0  0  0  0  0  0  0  0
    4.1760   -0.5880    0.5110 C   0  0  0  0  0  0  0  0  0  0  0  0
  1  2  1  0
  2  3  2  0
  2 19  1  0
  3  4  1  0
  4  5  2  3
  4 17  1  0
  5  6  1  0
  6  7  2  3
  6 15  1  0
  7  8  1  0
  8  9  2  0
  8 13  1  0
  9 10  1  0
 10 11  1  0
 11 12  1  0
 12 13  2  0
 13 14  1  0
 15 16  1  0
 17 18  1  0
 18 19  1  0
M  END
