
     RDKit          3D

 17 17  0  0  0  0  0  0  0  0999 V2000
   -3.1300   -0.0610   -1.6450 C   0  0  0  0  0  0  0  0  0  0  0  0
   -3.6130    0.1140   -0.2220 C   0  0  1  0  0  0  0  0  0  0  0  0
   -3.9390   -1.0960    0.3640 O   0  0  0  0  0  0  0  0  0  0  0  0
   -2.5390    0.7670    0.6420 C   0  0  1  0  0  0  0  0  0  0  0  0
   -3.1660    0.9380    2.0270 C   0  0  0  0  0  0  0  0  0  0  0  0
   -1.3890   -0.0870    0.7020 N   0  0  0  0  0  0  0  0  0  0  0  0
   -0.0710    0.3210    0.3260 C   0  0  0  0  0  0  0  0  0  0  0  0
    0.0650    1.5080   -0.0790 O   0  0  0  0  0  0  0  0  0  0  0  0
    1.0400   -0.5650    0.4030 N   0  0  0  0  0  0  0  0  0  0  0  0
    2.3280   -0.0920    0.0120 C   0  0  1  0  0  0  0  0  0  0  0  0
    3.3020   -0.1970    1.0250 O   0  0  0  0  0  0  0  0  0  0  0  0
    4.6290   -0.0940    0.6260 C   0  0  0  0  0  0  0  0  0  0  0  0
    5.5810   -0.2440    1.4540 O   0  0  0  0  0  0  0  0  0  0  0  0
    4.9830    0.1990   -0.8060 C   0  0  0  0  0  0  0  0  0  0  0  0
    4.0890   -0.5710   -1.6730 N   0  0  0  0  0  0  0  0  0  0  0  0
    2.8150   -0.9260   -1.1350 C   0  0  0  0  0  0  0  0  0  0  0  0
    2.1340   -1.8720   -1.5810 O   0  0  0  0  0  0  0  0  0  0  0  0
  2  1  1  6
  2  3  1  0
  2  4  1  0
  4  5  1  1
  4  6  1  0
  6  7  1  0
  7  8  2  0
  7  9  1  0
 10  9  1  1
 10 11  1  0
 10 16  1  0
 11 12  1  0
 12 13  2  0
 12 14  1  0
 14 15  1  0
 15 16  1  0
 16 17  2  0
M  END
