
     RDKit          3D

 17 18  0  0  0  0  0  0  0  0999 V2000
    2.6170    1.2400   -1.5480 O   0  0  0  0  0  0  0  0  0  0  0  0
    1.4850    1.3010   -0.9410 C   0  0  0  0  0  0  0  0  0  0  0  0
    1.6300    1.3060    0.5450 C   0  0  0  0  0  0  0  0  0  0  0  0
    2.1610   -0.0290    1.0590 C   0  0  2  0  0  0  0  0  0  0  0  0
    3.5480    0.0220    1.1810 O   0  0  0  0  0  0  0  0  0  0  0  0
    1.7030   -1.0930    0.1080 C   0  0  0  0  0  0  0  0  0  0  0  0
    0.5150   -1.6210    0.6110 O   0  0  0  0  0  0  0  0  0  0  0  0
   -0.4280   -1.6050   -0.3810 C   0  0  1  0  0  0  0  0  0  0  0  0
   -1.2950   -2.8330   -0.4620 C   0  0  0  0  0  0  0  0  0  0  0  0
   -1.7700   -1.4800    0.1000 C   0  0  0  0  0  0  0  0  0  0  0  0
   -2.4250   -0.4690    0.6260 C   0  0  0  0  0  0  0  0  0  0  0  0
   -3.7790   -0.7810    0.9750 O   0  0  0  0  0  0  0  0  0  0  0  0
   -1.9870    0.8370    0.8890 N   0  0  0  0  0  0  0  0  0  0  0  0
   -1.5410    1.8710    0.0430 C   0  0  0  0  0  0  0  0  0  0  0  0
   -1.6810    3.0920    0.5100 O   0  0  0  0  0  0  0  0  0  0  0  0
   -0.9630    1.8560   -1.2380 N   0  0  0  0  0  0  0  0  0  0  0  0
    0.2720    1.3560   -1.6410 N   0  0  0  0  0  0  0  0  0  0  0  0
  1  2  2  0
  2  3  1  0
  2 17  1  0
  3  4  1  0
  4  5  1  6
  4  6  1  0
  6  7  1  0
  7  8  1  0
  8  9  1  1
  8 10  1  0
  9 10  1  0
 10 11  2  0
 11 12  1  0
 11 13  1  0
 13 14  1  0
 14 15  2  0
 14 16  1  0
 16 17  1  0
M  END
