
     RDKit          3D

 16 17  0  0  0  0  0  0  0  0999 V2000
    4.2400   -0.1340    1.4550 N   0  0  0  0  0  0  0  0  0  0  0  0
    3.1130    0.3790    0.7740 N   0  0  0  0  0  0  0  0  0  0  0  0
    2.2930   -0.4200   -0.0560 C   0  0  0  0  0  0  0  0  0  0  0  0
    2.5530   -1.6320   -0.2110 O   0  0  0  0  0  0  0  0  0  0  0  0
    1.1180    0.2650   -0.7230 C   0  0  2  0  0  0  0  0  0  0  0  0
    0.2230    0.8160    0.2880 C   0  0  0  0  0  0  0  0  0  0  0  0
   -1.0670    0.6010    0.3370 C   0  0  0  0  0  0  0  0  0  0  0  0
   -1.8870    1.1450    1.3180 O   0  0  0  0  0  0  0  0  0  0  0  0
   -3.0720    0.4610    1.7130 C   0  0  0  0  0  0  0  0  0  0  0  0
   -3.8240    0.1620    0.4660 C   0  0  0  0  0  0  0  0  0  0  0  0
   -5.0310    0.4090    0.2940 O   0  0  0  0  0  0  0  0  0  0  0  0
   -3.0810   -0.4530   -0.5890 N   0  0  0  0  0  0  0  0  0  0  0  0
   -1.6620   -0.2450   -0.6810 C   0  0  0  0  0  0  0  0  0  0  0  0
   -0.9370   -0.7830   -1.6260 C   0  0  0  0  0  0  0  0  0  0  0  0
    0.4980   -0.5910   -1.7460 C   0  0  1  0  0  0  0  0  0  0  0  0
    0.8420   -0.1740   -3.0610 O   0  0  0  0  0  0  0  0  0  0  0  0
  1  2  1  0
  2  3  1  0
  3  4  2  0
  5  3  1  1
  5  6  1  0
  5 15  1  0
  6  7  2  0
  7  8  1  0
  7 13  1  0
  8  9  1  0
  9 10  1  0
 10 11  2  0
 10 12  1  0
 12 13  1  0
 13 14  2  0
 14 15  1  0
 15 16  1  6
M  END
