
     RDKit          3D

 17 18  0  0  0  0  0  0  0  0999 V2000
   -1.9090   -1.1320   -1.4000 C   0  0  0  0  0  0  0  0  0  0  0  0
   -0.8020   -0.7970   -0.3870 C   0  0  1  0  0  0  0  0  0  0  0  0
   -0.6080   -1.9040    0.4470 O   0  0  0  0  0  0  0  0  0  0  0  0
    0.4020   -0.4640   -1.1940 C   0  0  0  0  0  0  0  0  0  0  0  0
    1.5810   -0.1040   -0.4770 N   0  0  0  0  0  0  0  0  0  0  0  0
    1.8380    1.1870   -0.2130 C   0  0  0  0  0  0  0  0  0  0  0  0
    1.0800    2.1460   -0.5850 O   0  0  0  0  0  0  0  0  0  0  0  0
    2.9310    1.5900    0.4740 N   0  0  0  0  0  0  0  0  0  0  0  0
    3.7560    0.6100    0.8810 C   0  0  0  0  0  0  0  0  0  0  0  0
    4.8170    0.8720    1.5370 O   0  0  0  0  0  0  0  0  0  0  0  0
    3.5170   -0.6840    0.6270 N   0  0  0  0  0  0  0  0  0  0  0  0
    2.4250   -1.0580   -0.0560 C   0  0  0  0  0  0  0  0  0  0  0  0
    2.1970   -2.2970   -0.2990 O   0  0  0  0  0  0  0  0  0  0  0  0
   -1.3120    0.3150    0.4930 C   0  0  2  0  0  0  0  0  0  0  0  0
   -2.5630    0.0810    1.2970 C   0  0  0  0  0  0  0  0  0  0  0  0
   -2.5220    1.0900    0.1830 C   0  0  1  0  0  0  0  0  0  0  0  0
   -2.5140    2.4450    0.4740 O   0  0  0  0  0  0  0  0  0  0  0  0
  2  1  1  6
  2  3  1  0
  2  4  1  0
  2 14  1  0
  4  5  1  0
  5  6  1  0
  5 12  1  0
  6  7  2  0
  6  8  1  0
  8  9  1  0
  9 10  2  0
  9 11  1  0
 11 12  1  0
 12 13  2  0
 14 15  1  1
 14 16  1  0
 15 16  1  0
 16 17  1  1
M  END
