
     RDKit          3D

 17 17  0  0  0  0  0  0  0  0999 V2000
    4.4840    0.8080    0.4500 N   0  0  0  0  0  0  0  0  0  0  0  0
    3.4690   -0.1400    0.7570 C   0  0  0  0  0  0  0  0  0  0  0  0
    3.4780   -0.9450    1.6650 O   0  0  0  0  0  0  0  0  0  0  0  0
    2.3090    0.0070   -0.2460 C   0  0  1  0  0  0  0  0  0  0  0  0
    1.2150   -0.9820    0.1810 C   0  0  0  0  0  0  0  0  0  0  0  0
    0.2800   -1.0230   -0.8720 O   0  0  0  0  0  0  0  0  0  0  0  0
   -0.6280   -2.0460   -1.0690 C   0  0  0  0  0  0  0  0  0  0  0  0
   -1.6810   -2.3150   -0.3140 C   0  0  0  0  0  0  0  0  0  0  0  0
   -2.1590   -1.6560    0.8330 N   0  0  0  0  0  0  0  0  0  0  0  0
   -2.9430   -0.3920    0.7630 C   0  0  0  0  0  0  0  0  0  0  0  0
   -2.4810    0.5340   -0.2930 C   0  0  1  0  0  0  0  0  0  0  0  0
   -3.5390    1.3890   -0.6030 O   0  0  0  0  0  0  0  0  0  0  0  0
   -1.3540    1.4300    0.2220 C   0  0  0  0  0  0  0  0  0  0  0  0
   -0.4840    1.5900   -0.8750 O   0  0  0  0  0  0  0  0  0  0  0  0
    0.8250    1.9880   -0.8290 C   0  0  0  0  0  0  0  0  0  0  0  0
    1.1360    3.0400   -1.5170 O   0  0  0  0  0  0  0  0  0  0  0  0
    1.8590    1.3690   -0.0790 N   0  0  0  0  0  0  0  0  0  0  0  0
  1  2  1  0
  2  3  2  0
  4  2  1  1
  4  5  1  0
  4 17  1  0
  5  6  1  0
  6  7  1  0
  7  8  2  0
  8  9  1  0
  9 10  1  0
 10 11  1  0
 11 12  1  1
 11 13  1  0
 13 14  1  0
 14 15  1  0
 15 16  2  0
 15 17  1  0
M  END
