
     RDKit          3D

 13 13  0  0  0  0  0  0  0  0999 V2000
    4.3870   -0.0470   -0.2970 C   0  0  0  0  0  0  0  0  0  0  0  0
    3.5280   -1.0650   -0.6670 O   0  0  0  0  0  0  0  0  0  0  0  0
    2.3120   -0.9990   -0.0230 C   0  0  0  0  0  0  0  0  0  0  0  0
    1.5790    0.2620   -0.3010 C   0  0  0  0  0  0  0  0  0  0  0  0
    0.2340    0.3340    0.3940 C   0  0  1  0  0  0  0  0  0  0  0  0
    0.3430    0.2550    1.7600 O   0  0  0  0  0  0  0  0  0  0  0  0
   -0.3630    1.6850    0.0540 C   0  0  0  0  0  0  0  0  0  0  0  0
   -1.3460    1.9480    0.9920 O   0  0  0  0  0  0  0  0  0  0  0  0
   -2.6160    1.7330    0.5210 C   0  0  0  0  0  0  0  0  0  0  0  0
   -2.7750    0.4470   -0.2490 C   0  0  0  0  0  0  0  0  0  0  0  0
   -2.0150   -0.6410    0.2870 N   0  0  0  0  0  0  0  0  0  0  0  0
   -2.6880   -1.8860   -0.0640 C   0  0  0  0  0  0  0  0  0  0  0  0
   -0.6710   -0.7180   -0.2040 C   0  0  0  0  0  0  0  0  0  0  0  0
  1  2  1  0
  2  3  1  0
  3  4  1  0
  4  5  1  0
  5  6  1  1
  5  7  1  0
  5 13  1  0
  7  8  1  0
  8  9  1  0
  9 10  1  0
 10 11  1  0
 11 12  1  0
 11 13  1  0
M  END
