
     RDKit          3D

 14 14  0  0  0  0  0  0  0  0999 V2000
    4.0670    0.8370    0.0020 C   0  0  0  0  0  0  0  0  0  0  0  0
    2.9290    0.2310    0.5530 O   0  0  0  0  0  0  0  0  0  0  0  0
    1.6970    0.2630   -0.0840 C   0  0  0  0  0  0  0  0  0  0  0  0
    1.6020    0.8510   -1.1820 O   0  0  0  0  0  0  0  0  0  0  0  0
    0.5100   -0.4100    0.5540 C   0  0  2  0  0  0  0  0  0  0  0  0
    0.8040   -1.9160    0.6790 C   0  0  0  0  0  0  0  0  0  0  0  0
    0.1250   -2.4270   -0.5200 C   0  0  0  0  0  0  0  0  0  0  0  0
    0.4570   -3.3570   -1.1960 O   0  0  0  0  0  0  0  0  0  0  0  0
   -1.0530   -1.5650   -0.7290 C   0  0  0  0  0  0  0  0  0  0  0  0
   -0.6300   -0.3100   -0.2500 N   0  0  0  0  0  0  0  0  0  0  0  0
   -1.3500    0.8450   -0.4380 C   0  0  0  0  0  0  0  0  0  0  0  0
   -2.6850    0.8830    0.3270 C   0  0  0  0  0  0  0  0  0  0  0  0
   -3.3280    2.1830    0.0010 C   0  0  0  0  0  0  0  0  0  0  0  0
   -4.4320    2.2770   -0.9110 S   0  0  0  0  0  0  0  0  0  0  0  0
  1  2  1  0
  2  3  1  0
  3  4  2  0
  5  3  1  6
  5  6  1  0
  5 10  1  0
  6  7  1  0
  7  8  2  0
  7  9  1  0
  9 10  1  0
 10 11  1  0
 11 12  1  0
 12 13  1  0
 13 14  2  0
M  END
