
     RDKit          3D

 11 11  0  0  0  0  0  0  0  0999 V2000
    2.6630    1.6430    0.1340 O   0  0  0  0  0  0  0  0  0  0  0  0
    2.8560    0.2900    0.3060 C   0  0  0  0  0  0  0  0  0  0  0  0
    2.0250   -0.5680   -0.5940 C   0  0  0  0  0  0  0  0  0  0  0  0
    0.5480   -0.3870   -0.4360 C   0  0  2  0  0  0  0  0  0  0  0  0
   -0.0500   -1.2780   -1.3640 O   0  0  0  0  0  0  0  0  0  0  0  0
    0.1280    0.9970   -0.8890 C   0  0  0  0  0  0  0  0  0  0  0  0
   -1.3810    0.9950   -1.0870 C   0  0  0  0  0  0  0  0  0  0  0  0
   -1.9880    1.0420    0.3080 C   0  0  0  0  0  0  0  0  0  0  0  0
   -2.4550   -0.3350    0.6500 C   0  0  0  0  0  0  0  0  0  0  0  0
   -1.3740   -1.3370    0.8420 C   0  0  0  0  0  0  0  0  0  0  0  0
    0.0120   -0.7500    0.9040 C   0  0  0  0  0  0  0  0  0  0  0  0
  1  2  1  0
  2  3  1  0
  3  4  1  0
  4  5  1  6
  4  6  1  0
  4 11  1  0
  6  7  1  0
  7  8  1  0
  8  9  1  0
  9 10  1  0
 10 11  1  0
M  END
