
     RDKit          3D

  9  9  0  0  0  0  0  0  0  0999 V2000
   -1.2560    1.2260   -1.2260 O   0  0  0  0  0  0  0  0  0  0  0  0
   -1.1540    0.5370    0.0020 C   0  0  2  0  0  0  0  0  0  0  0  0
   -0.1840    1.2940    0.8080 C   0  0  0  0  0  0  0  0  0  0  0  0
    1.1610    1.2780    0.8440 C   0  0  0  0  0  0  0  0  0  0  0  0
    2.0500    0.4500    0.0400 C   0  0  0  0  0  0  0  0  0  0  0  0
    1.6970   -0.6880   -0.5210 C   0  0  0  0  0  0  0  0  0  0  0  0
    0.3880   -1.3800   -0.4830 C   0  0  0  0  0  0  0  0  0  0  0  0
   -0.8090   -0.8640   -0.2630 C   0  0  0  0  0  0  0  0  0  0  0  0
   -2.1930   -2.0390   -0.2920 S   0  0  0  0  0  0  0  0  0  0  0  0
  2  1  1  6
  2  3  1  0
  2  8  1  0
  3  4  2  0
  4  5  1  0
  5  6  2  0
  6  7  1  0
  7  8  2  0
  8  9  1  0
M  END
