
     RDKit          3D

 12 12  0  0  0  0  0  0  0  0999 V2000
    2.4080   -1.9110    0.6790 C   0  0  0  0  0  0  0  0  0  0  0  0
    2.7200   -0.9210   -0.1180 C   0  0  0  0  0  0  0  0  0  0  0  0
    1.8130   -0.2540   -1.0190 C   0  0  0  0  0  0  0  0  0  0  0  0
    2.3180    0.7310   -1.7990 C   0  0  0  0  0  0  0  0  0  0  0  0
    0.3900   -0.5500   -1.2080 C   0  0  0  0  0  0  0  0  0  0  0  0
   -0.4430    0.2020   -0.2260 C   0  0  2  0  0  0  0  0  0  0  0  0
   -0.1630    1.5780   -0.4700 O   0  0  0  0  0  0  0  0  0  0  0  0
   -0.2620   -0.0630    1.2180 C   0  0  0  0  0  0  0  0  0  0  0  0
   -1.3080    0.6970    2.0430 C   0  0  0  0  0  0  0  0  0  0  0  0
   -2.1020    1.4770    1.2270 O   0  0  0  0  0  0  0  0  0  0  0  0
   -2.8160    0.7540    0.2810 C   0  0  0  0  0  0  0  0  0  0  0  0
   -1.9030   -0.0270   -0.6350 C   0  0  0  0  0  0  0  0  0  0  0  0
  1  2  2  0
  2  3  1  0
  3  4  2  0
  3  5  1  0
  5  6  1  0
  6  7  1  1
  6  8  1  0
  6 12  1  0
  8  9  1  0
  9 10  1  0
 10 11  1  0
 11 12  1  0
M  END
