
     RDKit          3D

 38 43  0  0  0  0  0  0  0  0999 V2000
    4.3020   -1.0520   -0.2850 C   0  0  0  0  0  0  0  0  0  0  0  0
    2.8530   -1.5100   -0.0820 C   0  0  2  0  0  0  0  0  0  0  0  0
    2.9580   -2.6160    0.9450 C   0  0  0  0  0  0  0  0  0  0  0  0
    2.4220   -2.2810   -1.7010 P   0  0  0  0  0  0  0  0  0  0  0  0
    0.8770   -1.5240   -2.3280 C   0  0  0  0  0  0  0  0  0  0  0  0
    0.5530   -0.3080   -1.6720 N   0  0  0  0  0  0  0  0  0  0  0  0
    0.5920   -0.3410   -0.1850 C   0  0  1  0  0  0  0  0  0  0  0  0
   -0.3290   -1.3970    0.2370 N   0  0  0  0  0  0  0  0  0  0  0  0
   -0.0480   -3.0960    0.1270 Cl  0  0  0  0  0  0  0  0  0  0  0  0
   -1.6700   -1.0380    0.7490 C   0  0  0  0  0  0  0  0  0  0  0  0
   -2.6490   -1.8450    0.6850 C   0  0  0  0  0  0  0  0  0  0  0  0
   -3.9430   -1.6840    1.0840 O   0  0  0  0  0  0  0  0  0  0  0  0
   -2.3520   -3.5290   -0.0450 P   0  0  0  0  0  0  0  0  0  0  0  0
   -3.1530   -3.4830   -1.6770 N   0  0  0  0  0  0  0  0  0  0  0  0
   -1.8290    0.1820    1.4540 N   0  0  0  0  0  0  0  0  0  0  0  0
   -2.4540    0.7670    2.5660 C   0  0  1  0  0  0  0  0  0  0  0  0
   -2.5530   -0.0360    3.8230 C   0  0  0  0  0  0  0  0  0  0  0  0
   -3.4440   -1.0700    3.8570 O   0  0  0  0  0  0  0  0  0  0  0  0
   -1.7300    1.9210    2.8520 O   0  0  0  0  0  0  0  0  0  0  0  0
   -0.7730    2.0350    2.0100 O   0  0  0  0  0  0  0  0  0  0  0  0
   -1.0180    1.2440    0.8980 C   0  0  2  0  0  0  0  0  0  0  0  0
   -1.7710    2.0830    0.0610 O   0  0  0  0  0  0  0  0  0  0  0  0
   -0.7260    2.9740   -0.2520 N   0  0  0  0  0  0  0  0  0  0  0  0
   -1.2210    3.7940   -1.3210 C   0  0  2  0  0  0  0  0  0  0  0  0
   -1.1570    3.2410   -2.6290 N   0  0  0  0  0  0  0  0  0  0  0  0
   -0.7030    5.0730   -1.1810 O   0  0  0  0  0  0  0  0  0  0  0  0
    0.3080    2.0530   -0.6720 C   0  0  1  0  0  0  0  0  0  0  0  0
    0.5120    1.9170   -2.0220 O   0  0  0  0  0  0  0  0  0  0  0  0
    1.5320    2.4870   -2.7010 C   0  0  0  0  0  0  0  0  0  0  0  0
    1.7950    2.0570   -3.8430 O   0  0  0  0  0  0  0  0  0  0  0  0
    2.2500    3.5000   -2.1210 O   0  0  0  0  0  0  0  0  0  0  0  0
    2.8110    3.4960   -0.9170 O   0  0  0  0  0  0  0  0  0  0  0  0
    1.9770    2.3940    0.1430 P   0  0  0  0  0  0  0  0  0  0  0  0
    2.6970    0.8210    0.0390 N   0  0  0  0  0  0  0  0  0  0  0  0
    1.9810   -0.3870    0.3300 C   0  0  2  0  0  0  0  0  0  0  0  0
    1.9540   -0.4480    1.8350 C   0  0  0  0  0  0  0  0  0  0  0  0
    0.8600   -0.2770    2.4230 O   0  0  0  0  0  0  0  0  0  0  0  0
    0.0060    0.8830    0.0910 N   0  0  0  0  0  0  0  0  0  0  0  0
  2  1  1  6
  2  3  1  0
  2  4  1  0
  2 35  1  0
  4  5  1  0
  5  6  1  0
  7  6  1  6
  7  8  1  0
  7 35  1  0
  7 38  1  0
  8  9  1  0
  8 10  1  0
 10 11  2  3
 10 15  1  0
 11 12  1  0
 11 13  1  0
 13 14  1  0
 15 16  1  0
 15 21  1  0
 16 17  1  1
 16 19  1  0
 17 18  1  0
 19 20  1  0
 21 20  1  1
 21 22  1  0
 21 38  1  0
 22 23  1  0
 23 24  1  0
 23 27  1  0
 24 25  1  6
 24 26  1  0
 27 28  1  6
 27 33  1  0
 27 38  1  0
 28 29  1  0
 29 30  2  0
 29 31  1  0
 31 32  1  0
 32 33  1  0
 33 34  1  0
 34 35  1  0
 35 36  1  1
 36 37  2  0
M  END
