
     RDKit          3D

 38 41  0  0  0  0  0  0  0  0999 V2000
   -1.6550    2.2260   -0.9330 C   0  0  0  0  0  0  0  0  0  0  0  0
   -0.8560    1.8280   -0.0170 C   0  0  0  0  0  0  0  0  0  0  0  0
   -0.3210    2.9360    0.8010 C   0  0  0  0  0  0  0  0  0  0  0  0
   -0.6540    4.0920    0.5650 O   0  0  0  0  0  0  0  0  0  0  0  0
   -0.4280    0.4170    0.3220 N   0  0  0  0  0  0  0  0  0  0  0  0
   -1.0140   -0.4580    1.2750 C   0  0  0  0  0  0  0  0  0  0  0  0
   -0.1860   -1.4750    1.5750 C   0  0  0  0  0  0  0  0  0  0  0  0
    0.9270   -1.3350    0.8150 O   0  0  0  0  0  0  0  0  0  0  0  0
    0.8310   -0.1700   -0.0100 C   0  0  0  0  0  0  0  0  0  0  0  0
    1.8260    0.0120   -0.8490 C   0  0  0  0  0  0  0  0  0  0  0  0
    2.0370    0.9760   -1.9140 C   0  0  0  0  0  0  0  0  0  0  0  0
    3.2100    1.3790   -2.0810 N   0  0  0  0  0  0  0  0  0  0  0  0
    4.2160    0.9260   -1.3030 O   0  0  0  0  0  0  0  0  0  0  0  0
    3.5770   -0.7380   -0.9880 P   0  0  0  0  0  0  0  0  0  0  0  0
    4.1560   -1.1170    1.0980 P   0  0  0  0  0  0  0  0  0  0  0  0
    4.2800   -2.8100    1.5260 N   0  0  0  0  0  0  0  0  0  0  0  0
    5.1570   -3.4560    0.6480 N   0  0  0  0  0  0  0  0  0  0  0  0
    3.0880   -3.4230    1.5460 O   0  0  0  0  0  0  0  0  0  0  0  0
    3.1960    0.1720    2.5330 P   0  0  0  0  0  0  0  0  0  0  0  0
    4.1670    0.3590    3.9590 O   0  0  0  0  0  0  0  0  0  0  0  0
    2.9310    1.7590    1.7750 O   0  0  0  0  0  0  0  0  0  0  0  0
    3.2900    2.9390    2.3810 C   0  0  0  0  0  0  0  0  0  0  0  0
    3.8300    2.9160    3.5190 O   0  0  0  0  0  0  0  0  0  0  0  0
    0.8810    1.3190   -2.7630 N   0  0  0  0  0  0  0  0  0  0  0  0
    0.7470    2.6070   -3.2230 O   0  0  0  0  0  0  0  0  0  0  0  0
   -0.1340    0.3900   -3.1530 C   0  0  0  0  0  0  0  0  0  0  0  0
   -0.5100    0.5970   -4.3890 O   0  0  0  0  0  0  0  0  0  0  0  0
   -0.6230   -0.5490   -2.3610 O   0  0  0  0  0  0  0  0  0  0  0  0
   -1.6080   -1.1250   -1.7550 O   0  0  0  0  0  0  0  0  0  0  0  0
   -2.9570   -0.9870   -1.5430 C   0  0  0  0  0  0  0  0  0  0  0  0
   -3.8460   -1.0030   -2.6370 N   0  0  0  0  0  0  0  0  0  0  0  0
   -5.0650   -0.8570   -2.2200 N   0  0  0  0  0  0  0  0  0  0  0  0
   -5.0560   -0.7410   -0.8950 C   0  0  0  0  0  0  0  0  0  0  0  0
   -6.2170   -0.5720   -0.1630 O   0  0  0  0  0  0  0  0  0  0  0  0
   -6.9310   -1.6850    0.1910 N   0  0  0  0  0  0  0  0  0  0  0  0
   -3.7010   -0.8210   -0.4160 C   0  0  0  0  0  0  0  0  0  0  0  0
   -3.4470   -0.7470    0.9520 N   0  0  0  0  0  0  0  0  0  0  0  0
   -2.4480   -0.6070    1.7320 C   0  0  0  0  0  0  0  0  0  0  0  0
  1  2  2  0
  2  3  1  0
  2  5  1  0
  3  4  2  0
  5  6  1  0
  5  9  1  0
  6  7  2  0
  6 38  1  0
  7  8  1  0
  8  9  1  0
  9 10  2  0
 10 11  1  0
 10 14  1  0
 11 12  2  0
 11 24  1  0
 12 13  1  0
 13 14  1  0
 14 15  1  0
 15 16  1  0
 15 19  1  0
 16 17  1  0
 16 18  1  0
 19 20  1  0
 19 21  1  0
 21 22  1  0
 22 23  2  0
 24 25  1  0
 24 26  1  0
 26 27  2  0
 26 28  1  0
 28 29  1  0
 29 30  1  0
 30 31  2  0
 30 36  1  0
 31 32  1  0
 32 33  1  0
 33 34  1  0
 33 36  2  0
 34 35  1  0
 36 37  1  0
 37 38  2  0
M  END
