
     RDKit          3D

 38 40  0  0  0  0  0  0  0  0999 V2000
   -3.1290   -3.9200    2.6100 C   0  0  0  0  0  0  0  0  0  0  0  0
   -2.9080   -2.6430    1.8920 C   0  0  0  0  0  0  0  0  0  0  0  0
   -2.1910   -2.6390    0.7700 C   0  0  0  0  0  0  0  0  0  0  0  0
   -1.4560   -4.1660    0.0650 P   0  0  0  0  0  0  0  0  0  0  0  0
   -2.1220   -4.7210   -1.2420 O   0  0  0  0  0  0  0  0  0  0  0  0
   -1.9580   -1.4190    0.0510 N   0  0  0  0  0  0  0  0  0  0  0  0
   -1.8120   -1.4460   -1.2900 O   0  0  0  0  0  0  0  0  0  0  0  0
   -1.9620   -0.1980   -1.7400 O   0  0  0  0  0  0  0  0  0  0  0  0
   -2.8810    0.6820   -1.1950 C   0  0  0  0  0  0  0  0  0  0  0  0
   -3.8070    1.5110   -1.9280 C   0  0  0  0  0  0  0  0  0  0  0  0
   -4.9280    2.6000   -0.9160 P   0  0  0  0  0  0  0  0  0  0  0  0
   -4.8110    4.1580   -1.0790 O   0  0  0  0  0  0  0  0  0  0  0  0
   -3.9140    1.5530   -3.2040 C   0  0  0  0  0  0  0  0  0  0  0  0
   -4.8730    2.4210   -3.7760 O   0  0  0  0  0  0  0  0  0  0  0  0
   -3.1360    0.7870   -4.1450 C   0  0  0  0  0  0  0  0  0  0  0  0
   -3.3190    0.9000   -5.4400 N   0  0  0  0  0  0  0  0  0  0  0  0
   -2.8560    0.7170    0.1320 N   0  0  0  0  0  0  0  0  0  0  0  0
   -1.8830   -0.1590    0.7830 C   0  0  2  0  0  0  0  0  0  0  0  0
   -0.5450    0.4910    0.6920 C   0  0  2  0  0  0  0  0  0  0  0  0
    0.5770   -0.3450    1.2330 C   0  0  0  0  0  0  0  0  0  0  0  0
    1.8410    0.4200    1.0800 C   0  0  0  0  0  0  0  0  0  0  0  0
    2.5090    0.7010    2.1470 N   0  0  0  0  0  0  0  0  0  0  0  0
    3.7040    1.3970    2.2690 O   0  0  0  0  0  0  0  0  0  0  0  0
    4.6600    1.5370    1.2740 C   0  0  0  0  0  0  0  0  0  0  0  0
    5.4580    2.4850    1.4950 O   0  0  0  0  0  0  0  0  0  0  0  0
    4.7990    0.7230    0.0720 C   0  0  2  0  0  0  0  0  0  0  0  0
    4.6610   -0.7420    0.4200 C   0  0  0  0  0  0  0  0  0  0  0  0
    6.1340    0.9370   -0.4520 N   0  0  0  0  0  0  0  0  0  0  0  0
    6.5810    2.1550   -0.8330 O   0  0  0  0  0  0  0  0  0  0  0  0
    7.0170   -0.1280   -0.5800 N   0  0  0  0  0  0  0  0  0  0  0  0
    8.2440    0.0130   -0.7980 N   0  0  0  0  0  0  0  0  0  0  0  0
    3.9210    1.0050   -0.9410 O   0  0  0  0  0  0  0  0  0  0  0  0
    2.2740    0.8590   -0.6100 P   0  0  0  0  0  0  0  0  0  0  0  0
    1.3080    2.1460   -1.2440 O   0  0  0  0  0  0  0  0  0  0  0  0
   -0.6240    1.7540    1.4030 N   0  0  0  0  0  0  0  0  0  0  0  0
   -1.1890    2.6400    0.8030 O   0  0  0  0  0  0  0  0  0  0  0  0
   -2.3320   -0.3180    2.2080 C   0  0  0  0  0  0  0  0  0  0  0  0
   -3.4450   -1.3380    2.3480 C   0  0  0  0  0  0  0  0  0  0  0  0
  1  2  1  0
  2  3  2  0
  2 38  1  0
  3  4  1  0
  3  6  1  0
  4  5  2  0
  6  7  1  0
  6 18  1  0
  7  8  1  0
  8  9  1  0
  9 10  1  0
  9 17  2  0
 10 11  1  0
 10 13  2  3
 11 12  2  0
 13 14  1  0
 13 15  1  0
 15 16  2  0
 17 18  1  0
 18 19  1  0
 18 37  1  1
 19 20  1  1
 19 35  1  0
 20 21  1  0
 21 22  2  0
 21 33  1  0
 22 23  1  0
 23 24  1  0
 24 25  2  0
 24 26  1  0
 26 27  1  1
 26 28  1  0
 26 32  1  0
 28 29  1  0
 28 30  1  0
 30 31  2  0
 32 33  1  0
 33 34  1  0
 35 36  2  0
 37 38  1  0
M  END
