
     RDKit          3D

 38 41  0  0  0  0  0  0  0  0999 V2000
   -3.7380   -1.9810    2.1240 C   0  0  0  0  0  0  0  0  0  0  0  0
   -3.5160   -2.4500    0.8330 N   0  0  0  0  0  0  0  0  0  0  0  0
   -4.5430   -2.8660    0.1840 O   0  0  0  0  0  0  0  0  0  0  0  0
   -2.3550   -2.1040    0.1140 C   0  0  1  0  0  0  0  0  0  0  0  0
   -2.2700   -0.6890   -0.1950 N   0  0  0  0  0  0  0  0  0  0  0  0
   -3.3270   -0.1050   -0.9900 C   0  0  0  0  0  0  0  0  0  0  0  0
   -4.2330   -0.8940   -1.4100 O   0  0  0  0  0  0  0  0  0  0  0  0
   -3.3870    1.2360   -1.3030 O   0  0  0  0  0  0  0  0  0  0  0  0
   -2.4030    2.1250   -0.8540 C   0  0  0  0  0  0  0  0  0  0  0  0
   -2.5240    3.3390   -1.1800 O   0  0  0  0  0  0  0  0  0  0  0  0
   -1.3560    1.5880   -0.0750 N   0  0  0  0  0  0  0  0  0  0  0  0
   -0.3730    2.4210    0.4220 N   0  0  0  0  0  0  0  0  0  0  0  0
   -0.3870    3.7770    0.0710 C   0  0  1  0  0  0  0  0  0  0  0  0
    0.7730    4.5150    0.8000 C   0  0  0  0  0  0  0  0  0  0  0  0
    0.8740    5.6220   -0.0700 O   0  0  0  0  0  0  0  0  0  0  0  0
    0.9150    4.9750   -1.3020 C   0  0  0  0  0  0  0  0  0  0  0  0
   -0.0260    3.9610   -1.2590 O   0  0  0  0  0  0  0  0  0  0  0  0
   -1.2970    0.1880    0.2470 N   0  0  0  0  0  0  0  0  0  0  0  0
   -0.2530   -0.2320    1.0080 N   0  0  0  0  0  0  0  0  0  0  0  0
    1.0000   -0.0260    0.8530 C   0  0  0  0  0  0  0  0  0  0  0  0
    2.1520   -0.4380    1.6190 C   0  0  0  0  0  0  0  0  0  0  0  0
    3.2810    0.0120    1.0570 C   0  0  0  0  0  0  0  0  0  0  0  0
    4.6330   -0.2170    1.5660 C   0  0  0  0  0  0  0  0  0  0  0  0
    4.7130   -0.9080    2.6470 O   0  0  0  0  0  0  0  0  0  0  0  0
    2.8860    0.7450   -0.1160 C   0  0  0  0  0  0  0  0  0  0  0  0
    3.6860    1.4480   -1.1070 C   0  0  0  0  0  0  0  0  0  0  0  0
    5.2100    1.6890   -1.3070 P   0  0  0  0  0  0  0  0  0  0  0  0
    6.6910    1.3820   -0.6710 O   0  0  0  0  0  0  0  0  0  0  0  0
    7.4970   -0.0400   -1.2990 P   0  0  0  0  0  0  0  0  0  0  0  0
    1.5540    0.7120   -0.2180 N   0  0  0  0  0  0  0  0  0  0  0  0
   -1.0980   -2.6190    0.7720 C   0  0  0  0  0  0  0  0  0  0  0  0
   -1.2060   -4.0980    0.8400 C   0  0  0  0  0  0  0  0  0  0  0  0
   -1.2990   -4.8420    1.7870 O   0  0  0  0  0  0  0  0  0  0  0  0
   -1.1760   -4.6910   -0.9080 P   0  0  0  0  0  0  0  0  0  0  0  0
   -2.0350   -6.1520   -1.1290 O   0  0  0  0  0  0  0  0  0  0  0  0
   -2.4110   -2.9340   -1.5650 P   0  0  0  0  0  0  0  0  0  0  0  0
   -4.0280   -3.5560   -1.9270 N   0  0  0  0  0  0  0  0  0  0  0  0
   -4.2920   -4.6850   -1.6640 O   0  0  0  0  0  0  0  0  0  0  0  0
  1  2  1  0
  2  3  1  0
  4  2  1  1
  4  5  1  0
  4 31  1  0
  4 36  1  0
  5  6  1  0
  5 18  1  0
  6  7  2  0
  6  8  1  0
  8  9  1  0
  9 10  2  0
  9 11  1  0
 11 12  1  0
 11 18  1  0
 13 12  1  1
 13 14  1  0
 13 17  1  0
 14 15  1  0
 15 16  1  0
 16 17  1  0
 18 19  1  0
 19 20  2  3
 20 21  1  0
 20 30  1  0
 21 22  2  0
 22 23  1  0
 22 25  1  0
 23 24  2  0
 25 26  1  0
 25 30  2  0
 26 27  2  3
 27 28  1  0
 28 29  1  0
 31 32  1  0
 32 33  2  0
 32 34  1  0
 34 35  1  0
 34 36  1  0
 36 37  1  0
 37 38  2  0
M  END
