
     RDKit          3D

 38 41  0  0  0  0  0  0  0  0999 V2000
    4.9880   -1.2830    0.9290 C   0  0  0  0  0  0  0  0  0  0  0  0
    4.7590    0.1010    1.2900 N   0  0  0  0  0  0  0  0  0  0  0  0
    5.4130    0.8740    0.3820 O   0  0  0  0  0  0  0  0  0  0  0  0
    7.0970    0.5590    0.3080 P   0  0  0  0  0  0  0  0  0  0  0  0
    8.0460    1.8760    0.8640 O   0  0  0  0  0  0  0  0  0  0  0  0
    3.4070    0.3710    1.1480 N   0  0  0  0  0  0  0  0  0  0  0  0
    2.5870    0.5870    2.1840 O   0  0  0  0  0  0  0  0  0  0  0  0
    3.5270    0.9800    3.5370 Cl  0  0  0  0  0  0  0  0  0  0  0  0
    2.8490    0.4230   -0.1760 C   0  0  0  0  0  0  0  0  0  0  0  0
    3.3830    0.4710   -1.3480 C   0  0  0  0  0  0  0  0  0  0  0  0
    4.3300    0.5240   -2.5500 C   0  0  0  0  0  0  0  0  0  0  0  0
    3.3970    1.0080   -3.6660 C   0  0  0  0  0  0  0  0  0  0  0  0
    2.1880    1.2630   -3.0050 O   0  0  0  0  0  0  0  0  0  0  0  0
    2.1000    0.2860   -2.0160 C   0  0  1  0  0  0  0  0  0  0  0  0
    1.8930   -1.0420   -2.5250 N   0  0  0  0  0  0  0  0  0  0  0  0
    1.7330   -1.3190   -3.6500 O   0  0  0  0  0  0  0  0  0  0  0  0
    1.4840    0.5420   -0.7310 C   0  0  1  0  0  0  0  0  0  0  0  0
    0.6860   -0.5000   -0.2200 O   0  0  0  0  0  0  0  0  0  0  0  0
    1.0170    1.8260   -0.4890 O   0  0  0  0  0  0  0  0  0  0  0  0
   -0.1830    2.1850   -0.9650 C   0  0  0  0  0  0  0  0  0  0  0  0
   -1.3760    1.4910   -0.4270 C   0  0  0  0  0  0  0  0  0  0  0  0
   -2.5130    1.8070   -0.9410 O   0  0  0  0  0  0  0  0  0  0  0  0
   -1.4400    0.5620    0.5410 O   0  0  0  0  0  0  0  0  0  0  0  0
   -2.5300   -0.1270    1.0910 C   0  0  2  0  0  0  0  0  0  0  0  0
   -1.8980   -1.0160    2.1400 C   0  0  0  0  0  0  0  0  0  0  0  0
   -2.7650   -1.8720    2.9070 C   0  0  0  0  0  0  0  0  0  0  0  0
   -3.2120   -1.4820    4.1960 N   0  0  0  0  0  0  0  0  0  0  0  0
   -3.1490   -2.9800    2.4710 O   0  0  0  0  0  0  0  0  0  0  0  0
   -3.2760   -0.9950    0.0910 C   0  0  0  0  0  0  0  0  0  0  0  0
   -4.4370   -0.1240   -0.1490 N   0  0  0  0  0  0  0  0  0  0  0  0
   -5.3770    0.5010   -0.9700 C   0  0  0  0  0  0  0  0  0  0  0  0
   -5.4540    0.2800   -2.2610 N   0  0  0  0  0  0  0  0  0  0  0  0
   -6.6880    1.1230   -3.2430 P   0  0  0  0  0  0  0  0  0  0  0  0
   -6.1410    1.3400   -0.1490 N   0  0  0  0  0  0  0  0  0  0  0  0
   -5.7790    1.2790    1.0790 C   0  0  0  0  0  0  0  0  0  0  0  0
   -4.7020    0.3420    1.2260 C   0  0  1  0  0  0  0  0  0  0  0  0
   -5.1880   -0.7910    1.9290 O   0  0  0  0  0  0  0  0  0  0  0  0
   -3.4790    0.7330    1.6700 O   0  0  0  0  0  0  0  0  0  0  0  0
  1  2  1  0
  2  3  1  0
  2  6  1  0
  3  4  1  0
  4  5  1  0
  6  7  1  0
  6  9  1  0
  7  8  1  0
  9 10  2  0
  9 17  1  0
 10 11  1  0
 10 14  1  0
 11 12  1  0
 12 13  1  0
 13 14  1  0
 14 15  1  6
 14 17  1  0
 15 16  2  0
 17 18  1  1
 17 19  1  0
 19 20  1  0
 20 21  1  0
 21 22  2  0
 21 23  1  0
 23 24  1  0
 24 25  1  1
 24 29  1  0
 24 38  1  0
 25 26  1  0
 26 27  1  0
 26 28  2  0
 29 30  1  0
 30 31  1  0
 30 36  1  0
 31 32  2  3
 31 34  1  0
 32 33  1  0
 34 35  2  0
 35 36  1  0
 36 37  1  1
 36 38  1  0
M  END
