
     RDKit          3D

 36 37  0  0  0  0  0  0  0  0999 V2000
    2.2760   -3.3300    1.0730 O   0  0  0  0  0  0  0  0  0  0  0  0
    2.3050   -2.3830    0.1330 C   0  0  0  0  0  0  0  0  0  0  0  0
    3.0920   -1.2870    0.5010 N   0  0  0  0  0  0  0  0  0  0  0  0
    2.8430    0.1390    0.5350 C   0  0  2  0  0  0  0  0  0  0  0  0
    3.4500    0.5910   -0.7600 C   0  0  0  0  0  0  0  0  0  0  0  0
    4.6360    0.1750   -1.1230 O   0  0  0  0  0  0  0  0  0  0  0  0
    5.8590    0.3420   -0.8960 C   0  0  0  0  0  0  0  0  0  0  0  0
    6.8970   -0.0570    0.0480 C   0  0  0  0  0  0  0  0  0  0  0  0
    6.5410    0.3550    1.3110 O   0  0  0  0  0  0  0  0  0  0  0  0
    7.5790    1.1450    1.7550 O   0  0  0  0  0  0  0  0  0  0  0  0
    8.3560    1.2940    0.6390 O   0  0  0  0  0  0  0  0  0  0  0  0
    3.3230    0.8700    1.6650 C   0  0  0  0  0  0  0  0  0  0  0  0
    3.9150    0.2960    2.6820 O   0  0  0  0  0  0  0  0  0  0  0  0
    3.2420    2.2430    1.7200 O   0  0  0  0  0  0  0  0  0  0  0  0
    1.3280    0.2780    0.4360 C   0  0  0  0  0  0  0  0  0  0  0  0
    0.7150    1.2890    1.1320 O   0  0  0  0  0  0  0  0  0  0  0  0
   -0.6190    1.1440    1.5160 C   0  0  0  0  0  0  0  0  0  0  0  0
   -1.0980    2.2190    2.0660 O   0  0  0  0  0  0  0  0  0  0  0  0
   -1.4990    0.0260    1.3560 N   0  0  0  0  0  0  0  0  0  0  0  0
   -1.9080   -0.5540    0.1260 C   0  0  2  0  0  0  0  0  0  0  0  0
   -1.7850    0.1940   -1.1400 C   0  0  0  0  0  0  0  0  0  0  0  0
   -2.1880   -0.6700   -2.1790 O   0  0  0  0  0  0  0  0  0  0  0  0
   -3.4370   -0.8050    0.1620 C   0  0  0  0  0  0  0  0  0  0  0  0
   -3.9430   -1.9180    0.1830 O   0  0  0  0  0  0  0  0  0  0  0  0
   -4.2460    0.3050    0.1790 O   0  0  0  0  0  0  0  0  0  0  0  0
   -5.6370    0.3040    0.0870 C   0  0  1  0  0  0  0  0  0  0  0  0
   -6.4760    0.1250    1.3230 C   0  0  0  0  0  0  0  0  0  0  0  0
   -7.9310    0.3480    0.8150 C   0  0  0  0  0  0  0  0  0  0  0  0
   -7.8930    0.4460   -0.5780 O   0  0  0  0  0  0  0  0  0  0  0  0
   -7.3260    1.5820   -0.9770 O   0  0  0  0  0  0  0  0  0  0  0  0
   -6.0430    1.6020   -0.5450 C   0  0  0  0  0  0  0  0  0  0  0  0
   -1.4440   -1.9980   -0.0540 C   0  0  0  0  0  0  0  0  0  0  0  0
   -1.7560   -2.7610    0.9320 O   0  0  0  0  0  0  0  0  0  0  0  0
   -0.7580   -2.4870   -1.0840 O   0  0  0  0  0  0  0  0  0  0  0  0
    0.4890   -2.1870   -1.6410 C   0  0  0  0  0  0  0  0  0  0  0  0
    1.5720   -2.6720   -0.9720 O   0  0  0  0  0  0  0  0  0  0  0  0
  1  2  2  0
  2  3  1  0
  2 36  1  0
  3  4  1  0
  4  5  1  6
  4 12  1  0
  4 15  1  0
  5  6  1  0
  6  7  1  0
  7  8  1  0
  8  9  1  0
  9 10  1  0
 10 11  1  0
 12 13  2  0
 12 14  1  0
 15 16  1  0
 16 17  1  0
 17 18  2  0
 17 19  1  0
 19 20  1  0
 20 21  1  6
 20 23  1  0
 20 32  1  0
 21 22  1  0
 23 24  2  0
 23 25  1  0
 26 25  1  1
 26 27  1  0
 26 31  1  0
 27 28  1  0
 28 29  1  0
 29 30  1  0
 30 31  1  0
 32 33  2  0
 32 34  1  0
 34 35  1  0
 35 36  1  0
M  END
