
     RDKit          3D

 37 41  0  0  0  0  0  0  0  0999 V2000
    8.2990    0.3310    0.1100 C   0  0  0  0  0  0  0  0  0  0  0  0
    6.8130    0.9940   -0.8020 P   0  0  0  0  0  0  0  0  0  0  0  0
    5.6790   -0.3000   -1.1310 O   0  0  0  0  0  0  0  0  0  0  0  0
    4.4790    0.0050   -0.7410 O   0  0  0  0  0  0  0  0  0  0  0  0
    3.9460   -1.0450   -0.1520 O   0  0  0  0  0  0  0  0  0  0  0  0
    2.7940   -0.6510    0.5310 N   0  0  0  0  0  0  0  0  0  0  0  0
    2.5310   -1.3210    1.7220 C   0  0  0  0  0  0  0  0  0  0  0  0
    1.5900   -2.2400    2.0160 C   0  0  0  0  0  0  0  0  0  0  0  0
    0.6820   -2.6940    1.1200 O   0  0  0  0  0  0  0  0  0  0  0  0
    0.0290   -3.8200    0.9430 O   0  0  0  0  0  0  0  0  0  0  0  0
   -0.9930   -4.4600    1.5270 C   0  0  0  0  0  0  0  0  0  0  0  0
   -0.6840   -5.5510    2.4110 O   0  0  0  0  0  0  0  0  0  0  0  0
   -2.1920   -4.1610    1.3470 N   0  0  0  0  0  0  0  0  0  0  0  0
   -2.9210   -3.2240    0.6150 C   0  0  0  0  0  0  0  0  0  0  0  0
   -3.9290   -3.9310   -0.5860 P   0  0  0  0  0  0  0  0  0  0  0  0
   -2.9650   -1.7930    0.7590 N   0  0  0  0  0  0  0  0  0  0  0  0
   -4.2730   -1.0690    0.6530 C   0  0  0  0  0  0  0  0  0  0  0  0
   -3.7830    0.1710    0.0700 C   0  0  0  0  0  0  0  0  0  0  0  0
   -2.5110    0.3760    0.5020 C   0  0  0  0  0  0  0  0  0  0  0  0
   -1.9770   -0.8330    0.9550 N   0  0  0  0  0  0  0  0  0  0  0  0
   -2.2360    1.6900    0.2610 N   0  0  0  0  0  0  0  0  0  0  0  0
   -3.5010    2.3080    0.1250 O   0  0  0  0  0  0  0  0  0  0  0  0
   -4.0730    1.3580   -0.7630 C   0  0  2  0  0  0  0  0  0  0  0  0
   -5.4640    1.6620   -0.8870 N   0  0  0  0  0  0  0  0  0  0  0  0
   -5.5770    3.0430   -1.0160 O   0  0  0  0  0  0  0  0  0  0  0  0
   -5.0270    3.6470   -2.1600 C   0  0  0  0  0  0  0  0  0  0  0  0
   -3.7690    2.7870   -2.8240 P   0  0  0  0  0  0  0  0  0  0  0  0
   -3.3860    1.3070   -1.9650 O   0  0  0  0  0  0  0  0  0  0  0  0
   -1.0420    2.4390    0.0990 C   0  0  0  0  0  0  0  0  0  0  0  0
   -1.0060    3.7160    0.3000 O   0  0  0  0  0  0  0  0  0  0  0  0
    0.2860    1.9330   -0.3030 C   0  0  0  0  0  0  0  0  0  0  0  0
    0.9800    2.5800   -1.3270 C   0  0  0  0  0  0  0  0  0  0  0  0
    2.2140    2.1600   -1.7290 C   0  0  0  0  0  0  0  0  0  0  0  0
    2.9080    2.8160   -2.7630 O   0  0  0  0  0  0  0  0  0  0  0  0
    2.7360    1.1090   -1.1080 N   0  0  0  0  0  0  0  0  0  0  0  0
    2.0990    0.4360   -0.0940 C   0  0  0  0  0  0  0  0  0  0  0  0
    0.8950    0.8830    0.2610 N   0  0  0  0  0  0  0  0  0  0  0  0
  1  2  1  0
  2  3  1  0
  3  4  1  0
  4  5  1  0
  5  6  1  0
  6  7  1  0
  6 36  1  0
  7  8  2  0
  8  9  1  0
  9 10  1  0
 10 11  1  0
 11 12  1  0
 11 13  2  0
 13 14  1  0
 14 15  2  0
 14 16  1  0
 16 17  1  0
 16 20  1  0
 17 18  1  0
 18 19  2  0
 18 23  1  0
 19 20  1  0
 19 21  1  0
 21 22  1  0
 21 29  1  0
 22 23  1  0
 23 24  1  6
 23 28  1  0
 24 25  1  0
 25 26  1  0
 26 27  2  0
 27 28  1  0
 29 30  2  0
 29 31  1  0
 31 32  1  0
 31 37  2  0
 32 33  2  0
 33 34  1  0
 33 35  1  0
 35 36  2  0
 36 37  1  0
M  END
