
     RDKit          3D

 38 40  0  0  0  0  0  0  0  0999 V2000
   -5.2440   -4.0040    0.0690 C   0  0  0  0  0  0  0  0  0  0  0  0
   -5.2570   -2.8830   -0.9160 C   0  0  0  0  0  0  0  0  0  0  0  0
   -4.1130   -1.9690   -0.6750 C   0  0  0  0  0  0  0  0  0  0  0  0
   -3.9510   -0.7920   -1.5490 C   0  0  0  0  0  0  0  0  0  0  0  0
   -3.3090   -2.2090    0.2610 N   0  0  0  0  0  0  0  0  0  0  0  0
   -2.1870   -1.5030    0.6630 N   0  0  0  0  0  0  0  0  0  0  0  0
   -0.9950   -2.0880    0.9130 O   0  0  0  0  0  0  0  0  0  0  0  0
   -0.0350   -1.4280    0.1560 C   0  0  1  0  0  0  0  0  0  0  0  0
    1.2090   -2.0790    0.3280 O   0  0  0  0  0  0  0  0  0  0  0  0
    1.1570   -3.7130   -0.1720 P   0  0  0  0  0  0  0  0  0  0  0  0
   -0.4510   -1.4740   -1.1750 O   0  0  0  0  0  0  0  0  0  0  0  0
    0.1050   -0.9040   -2.2700 C   0  0  0  0  0  0  0  0  0  0  0  0
    0.1230   -1.4770   -3.3980 O   0  0  0  0  0  0  0  0  0  0  0  0
    0.6790    0.3470   -2.1770 O   0  0  0  0  0  0  0  0  0  0  0  0
    1.3460    0.7900   -0.5850 P   0  0  0  0  0  0  0  0  0  0  0  0
    2.8580   -0.1070   -0.4940 O   0  0  0  0  0  0  0  0  0  0  0  0
    3.3920   -0.2710   -1.7670 C   0  0  0  0  0  0  0  0  0  0  0  0
    4.6580   -1.0270   -1.6480 C   0  0  0  0  0  0  0  0  0  0  0  0
    5.2930   -1.2770   -2.6870 O   0  0  0  0  0  0  0  0  0  0  0  0
    5.3800   -1.6340   -0.1030 P   0  0  0  0  0  0  0  0  0  0  0  0
    6.2790   -0.4100    0.8110 N   0  0  0  0  0  0  0  0  0  0  0  0
    4.2920   -2.4880    0.9070 O   0  0  0  0  0  0  0  0  0  0  0  0
    0.1880   -0.0000    0.6430 C   0  0  2  0  0  0  0  0  0  0  0  0
    0.8130   -0.0160    1.8740 O   0  0  0  0  0  0  0  0  0  0  0  0
    2.0010   -0.5930    1.9340 N   0  0  0  0  0  0  0  0  0  0  0  0
    3.0410    0.2900    2.4390 C   0  0  0  0  0  0  0  0  0  0  0  0
    1.9090   -1.6270    2.8070 O   0  0  0  0  0  0  0  0  0  0  0  0
   -1.0650    0.7210    0.7250 N   0  0  0  0  0  0  0  0  0  0  0  0
   -1.0580    2.1350    0.6800 C   0  0  0  0  0  0  0  0  0  0  0  0
    0.0100    2.8450    0.5670 N   0  0  0  0  0  0  0  0  0  0  0  0
   -0.2770    4.2010    0.5480 N   0  0  0  0  0  0  0  0  0  0  0  0
    0.7080    5.2370    0.6460 C   0  0  0  0  0  0  0  0  0  0  0  0
   -1.6660    4.2810    0.4190 N   0  0  0  0  0  0  0  0  0  0  0  0
   -1.9750    4.6630   -0.9250 C   0  0  0  0  0  0  0  0  0  0  0  0
   -1.3920    5.9020   -1.1810 O   0  0  0  0  0  0  0  0  0  0  0  0
   -2.1210    3.0250    0.7410 O   0  0  0  0  0  0  0  0  0  0  0  0
   -2.2310   -0.0790    0.8490 C   0  0  0  0  0  0  0  0  0  0  0  0
   -3.3130    0.4990    1.1280 O   0  0  0  0  0  0  0  0  0  0  0  0
  1  2  1  0
  2  3  1  0
  3  4  1  0
  3  5  2  3
  5  6  1  0
  6  7  1  0
  6 37  1  0
  7  8  1  0
  8  9  1  6
  8 11  1  0
  8 23  1  0
  9 10  1  0
 11 12  1  0
 12 13  2  0
 12 14  1  0
 14 15  1  0
 15 16  1  0
 15 23  1  0
 16 17  1  0
 17 18  1  0
 18 19  2  0
 18 20  1  0
 20 21  1  0
 20 22  1  0
 23 24  1  1
 23 28  1  0
 24 25  1  0
 25 26  1  0
 25 27  1  0
 28 29  1  0
 28 37  1  0
 29 30  2  0
 29 36  1  0
 30 31  1  0
 31 32  1  0
 31 33  1  0
 33 34  1  0
 33 36  1  0
 34 35  1  0
 37 38  2  0
M  END
