
     RDKit          3D

 32 32  0  0  0  0  0  0  0  0999 V2000
   -7.0700   -0.7600   -1.7970 C   0  0  0  0  0  0  0  0  0  0  0  0
   -6.4630   -1.8360   -0.9250 C   0  0  2  0  0  0  0  0  0  0  0  0
   -7.3410   -2.3570    0.1540 C   0  0  0  0  0  0  0  0  0  0  0  0
   -5.0530   -1.6220   -0.5450 C   0  0  0  0  0  0  0  0  0  0  0  0
   -4.6870   -0.3740    0.1810 C   0  0  2  0  0  0  0  0  0  0  0  0
   -3.2290   -0.4010    0.4550 N   0  0  0  0  0  0  0  0  0  0  0  0
   -2.3160    0.3330   -0.3210 C   0  0  0  0  0  0  0  0  0  0  0  0
   -2.7140    1.0480   -1.2940 O   0  0  0  0  0  0  0  0  0  0  0  0
   -0.8420    0.2490    0.0230 C   0  0  2  0  0  0  0  0  0  0  0  0
   -0.5940    0.6870    1.4190 C   0  0  0  0  0  0  0  0  0  0  0  0
   -0.9040    2.0330    1.8760 C   0  0  1  0  0  0  0  0  0  0  0  0
   -0.2380    3.1910    1.2130 C   0  0  0  0  0  0  0  0  0  0  0  0
   -2.3600    2.3880    2.0840 C   0  0  0  0  0  0  0  0  0  0  0  0
   -0.0930    0.9170   -1.0110 N   0  0  0  0  0  0  0  0  0  0  0  0
    1.5220    0.8000   -1.2340 P   0  0  0  0  0  0  0  0  0  0  0  0
    1.8120    0.2350    0.1610 O   0  0  0  0  0  0  0  0  0  0  0  0
    2.6290    2.0190   -0.7040 O   0  0  0  0  0  0  0  0  0  0  0  0
    2.2630   -0.4390   -2.2350 C   0  0  0  0  0  0  0  0  0  0  0  0
    3.0610   -1.4230   -1.5050 N   0  0  0  0  0  0  0  0  0  0  0  0
    4.2070   -0.9930   -0.7470 C   0  0  0  0  0  0  0  0  0  0  0  0
    4.5230    0.2210   -0.7130 O   0  0  0  0  0  0  0  0  0  0  0  0
    4.9880   -1.8880   -0.0400 O   0  0  0  0  0  0  0  0  0  0  0  0
    6.1240   -1.5190    0.7200 C   0  0  0  0  0  0  0  0  0  0  0  0
    7.1300   -0.8830   -0.1440 C   0  0  0  0  0  0  0  0  0  0  0  0
    7.8830   -1.6980   -0.9850 C   0  0  0  0  0  0  0  0  0  0  0  0
    8.8430   -1.1560   -1.8120 C   0  0  0  0  0  0  0  0  0  0  0  0
    9.0540    0.2110   -1.8010 C   0  0  0  0  0  0  0  0  0  0  0  0
    8.3030    0.9970   -0.9680 C   0  0  0  0  0  0  0  0  0  0  0  0
    7.3300    0.4730   -0.1250 C   0  0  0  0  0  0  0  0  0  0  0  0
   -5.4190   -0.0430    1.3790 C   0  0  0  0  0  0  0  0  0  0  0  0
   -4.7880    0.0360    2.4910 O   0  0  0  0  0  0  0  0  0  0  0  0
   -6.7710    0.2160    1.4840 O   0  0  0  0  0  0  0  0  0  0  0  0
  2  1  1  1
  2  3  1  0
  2  4  1  0
  5  4  1  1
  5  6  1  0
  5 30  1  0
  6  7  1  0
  7  8  2  0
  7  9  1  0
  9 10  1  1
  9 14  1  0
 10 11  1  0
 11 12  1  6
 11 13  1  0
 14 15  1  0
 15 16  1  0
 15 17  1  0
 15 18  1  0
 18 19  1  0
 19 20  1  0
 20 21  2  0
 20 22  1  0
 22 23  1  0
 23 24  1  0
 24 25  2  0
 24 29  1  0
 25 26  1  0
 26 27  2  0
 27 28  1  0
 28 29  2  0
 30 31  2  0
 30 32  1  0
M  END
