
     RDKit          3D

 12 12  0  0  0  0  0  0  0  0999 V2000
   -2.4580   -1.8260    0.3770 C   0  0  0  0  0  0  0  0  0  0  0  0
   -2.3100   -0.4390   -0.1270 C   0  0  0  0  0  0  0  0  0  0  0  0
   -3.3260    0.3440   -0.3730 O   0  0  0  0  0  0  0  0  0  0  0  0
   -2.9370    1.4990   -0.8030 C   0  0  0  0  0  0  0  0  0  0  0  0
   -1.5640    1.5170   -0.8570 C   0  0  0  0  0  0  0  0  0  0  0  0
   -0.7340    2.5600   -1.2620 O   0  0  0  0  0  0  0  0  0  0  0  0
   -1.1610    0.2580   -0.4180 C   0  0  0  0  0  0  0  0  0  0  0  0
    0.1290   -0.2060   -0.2960 O   0  0  0  0  0  0  0  0  0  0  0  0
    0.8490   -0.0390    0.9110 C   0  0  0  0  0  0  0  0  0  0  0  0
    2.2320   -0.6360    0.7770 C   0  0  0  0  0  0  0  0  0  0  0  0
    3.0190    0.0280   -0.3360 C   0  0  0  0  0  0  0  0  0  0  0  0
    4.2710   -0.5780   -0.3890 O   0  0  0  0  0  0  0  0  0  0  0  0
  1  2  1  0
  2  3  1  0
  2  7  2  0
  3  4  1  0
  4  5  2  0
  5  6  1  0
  5  7  1  0
  7  8  1  0
  8  9  1  0
  9 10  1  0
 10 11  1  0
 11 12  1  0
M  END
