
     RDKit          3D

 12 11  0  0  0  0  0  0  0  0999 V2000
    1.3320   -1.4440   -1.2250 C   0  0  0  0  0  0  0  0  0  0  0  0
    2.0000   -0.7590   -0.3340 C   0  0  0  0  0  0  0  0  0  0  0  0
    3.3530   -0.3210   -0.6250 C   0  0  0  0  0  0  0  0  0  0  0  0
    4.1130    0.3670    0.2020 C   0  0  0  0  0  0  0  0  0  0  0  0
    3.5930    0.7030    1.4440 O   0  0  0  0  0  0  0  0  0  0  0  0
    1.4350   -0.4470    0.8780 O   0  0  0  0  0  0  0  0  0  0  0  0
    0.5690    0.6540    1.0060 C   0  0  0  0  0  0  0  0  0  0  0  0
   -0.6820    0.5520    0.1660 C   0  0  0  0  0  0  0  0  0  0  0  0
   -1.3670   -0.5620    0.5680 O   0  0  0  0  0  0  0  0  0  0  0  0
   -2.5430   -0.7930   -0.1110 C   0  0  0  0  0  0  0  0  0  0  0  0
   -3.5330    0.3460    0.0310 C   0  0  0  0  0  0  0  0  0  0  0  0
   -4.6750    0.0010   -0.6930 O   0  0  0  0  0  0  0  0  0  0  0  0
  1  2  2  0
  2  3  1  0
  2  6  1  0
  3  4  2  3
  4  5  1  0
  6  7  1  0
  7  8  1  0
  8  9  1  0
  9 10  1  0
 10 11  1  0
 11 12  1  0
M  END
