
     RDKit          3D

 12 12  0  0  0  0  0  0  0  0999 V2000
   -3.5870   -0.7540    0.7940 O   0  0  0  0  0  0  0  0  0  0  0  0
   -2.4090   -0.0310    0.7720 C   0  0  0  0  0  0  0  0  0  0  0  0
   -1.4610   -0.4050   -0.3570 C   0  0  1  0  0  0  0  0  0  0  0  0
   -1.9520   -0.1910   -1.6280 O   0  0  0  0  0  0  0  0  0  0  0  0
   -0.0510   -0.0900   -0.1010 C   0  0  0  0  0  0  0  0  0  0  0  0
    0.9020   -1.1060    0.1220 C   0  0  0  0  0  0  0  0  0  0  0  0
    2.2420   -0.8780    0.2060 C   0  0  0  0  0  0  0  0  0  0  0  0
    3.1080   -1.9410    0.4230 O   0  0  0  0  0  0  0  0  0  0  0  0
    2.7260    0.4150    0.0700 C   0  0  0  0  0  0  0  0  0  0  0  0
    1.8330    1.4280   -0.1440 C   0  0  0  0  0  0  0  0  0  0  0  0
    0.4650    1.1880   -0.2320 C   0  0  0  0  0  0  0  0  0  0  0  0
   -0.4260    2.2570   -0.4670 O   0  0  0  0  0  0  0  0  0  0  0  0
  1  2  1  0
  2  3  1  0
  3  4  1  6
  3  5  1  0
  5  6  2  0
  5 11  1  0
  6  7  1  0
  7  8  1  0
  7  9  2  0
  9 10  1  0
 10 11  2  0
 11 12  1  0
M  END
