
     RDKit          3D

 16 17  0  0  0  0  0  0  0  0999 V2000
    4.2710    1.2030   -0.5260 C   0  0  0  0  0  0  0  0  0  0  0  0
    4.2080    0.0830    0.4670 C   0  0  0  0  0  0  0  0  0  0  0  0
    3.0160    0.0330    1.1970 O   0  0  0  0  0  0  0  0  0  0  0  0
    1.7570   -0.1250    0.6900 C   0  0  0  0  0  0  0  0  0  0  0  0
    1.4630   -0.2670   -0.6630 C   0  0  0  0  0  0  0  0  0  0  0  0
    0.2190   -0.4250   -1.1810 C   0  0  0  0  0  0  0  0  0  0  0  0
   -0.8800   -0.4530   -0.3310 C   0  0  0  0  0  0  0  0  0  0  0  0
   -2.1600   -0.5960   -0.6360 N   0  0  0  0  0  0  0  0  0  0  0  0
   -3.0920   -0.6240    0.0330 C   0  0  0  0  0  0  0  0  0  0  0  0
   -4.8340   -0.7920   -0.0250 S   0  0  1  0  0  0  0  0  0  0  0  0
   -5.6070    0.7200   -0.1980 N   0  0  0  0  0  0  0  0  0  0  0  0
   -5.1280   -1.6250   -1.2390 O   0  0  0  0  0  0  0  0  0  0  0  0
   -5.3210   -1.4990    1.2170 O   0  0  0  0  0  0  0  0  0  0  0  0
   -2.2340   -0.4000    1.7440 S   0  0  0  0  0  0  0  0  0  0  0  0
   -0.6570   -0.3200    0.9980 C   0  0  0  0  0  0  0  0  0  0  0  0
    0.6800   -0.1510    1.5470 C   0  0  0  0  0  0  0  0  0  0  0  0
  1  2  1  0
  2  3  1  0
  3  4  1  0
  4  5  2  0
  4 16  1  0
  5  6  1  0
  6  7  2  0
  7  8  1  0
  7 15  1  0
  8  9  2  0
  9 10  1  0
  9 14  1  0
 10 11  1  6
 10 12  2  0
 10 13  2  0
 14 15  1  0
 15 16  2  0
M  END
