
     RDKit          3D

 16 17  0  0  0  0  0  0  0  0999 V2000
    5.1950    1.1740    0.0250 C   0  0  0  0  0  0  0  0  0  0  0  0
    4.2420    0.0240    0.0360 C   0  0  0  0  0  0  0  0  0  0  0  0
    2.5220    0.5240    0.0070 S   0  0  0  0  0  0  0  0  0  0  0  0
    1.4080   -0.9230    0.0210 C   0  0  0  0  0  0  0  0  0  0  0  0
    0.0360   -0.4450   -0.0030 C   0  0  0  0  0  0  0  0  0  0  0  0
   -0.4660    1.2960   -0.0410 S   0  0  0  0  0  0  0  0  0  0  0  0
   -2.2480    0.9440   -0.0540 C   0  0  0  0  0  0  0  0  0  0  0  0
   -3.3510    1.7940   -0.0820 C   0  0  0  0  0  0  0  0  0  0  0  0
   -3.1580    3.0220   -0.1030 O   0  0  0  0  0  0  0  0  0  0  0  0
   -4.5970    1.2370   -0.0860 N   0  0  0  0  0  0  0  0  0  0  0  0
   -4.6450   -0.1030   -0.0620 C   0  0  0  0  0  0  0  0  0  0  0  0
   -5.8100   -0.6440   -0.0650 O   0  0  0  0  0  0  0  0  0  0  0  0
   -3.5940   -0.9040   -0.0350 N   0  0  0  0  0  0  0  0  0  0  0  0
   -2.2930   -0.4080   -0.0300 C   0  0  0  0  0  0  0  0  0  0  0  0
   -1.1710   -1.1400   -0.0040 C   0  0  0  0  0  0  0  0  0  0  0  0
   -1.1060   -2.5590    0.0230 O   0  0  0  0  0  0  0  0  0  0  0  0
  1  2  1  0
  2  3  1  0
  3  4  1  0
  4  5  1  0
  5  6  1  0
  5 15  2  0
  6  7  1  0
  7  8  1  0
  7 14  2  0
  8  9  2  0
  8 10  1  0
 10 11  1  0
 11 12  2  0
 11 13  1  0
 13 14  1  0
 14 15  1  0
 15 16  1  0
M  END
