
     RDKit          3D

 16 17  0  0  0  0  0  0  0  0999 V2000
    5.1120   -0.4640    1.0480 O   0  0  0  0  0  0  0  0  0  0  0  0
    4.9610   -0.5540   -0.3410 C   0  0  0  0  0  0  0  0  0  0  0  0
    3.8380    0.3820   -0.7210 C   0  0  0  0  0  0  0  0  0  0  0  0
    2.6040   -0.0510   -0.0190 C   0  0  0  0  0  0  0  0  0  0  0  0
    2.4760   -1.0910    0.8170 N   0  0  0  0  0  0  0  0  0  0  0  0
    1.2330   -1.1610    1.2440 O   0  0  0  0  0  0  0  0  0  0  0  0
    0.5220   -0.1930    0.7150 C   0  0  0  0  0  0  0  0  0  0  0  0
   -0.8930    0.1480    0.8790 C   0  0  0  0  0  0  0  0  0  0  0  0
   -1.8870   -0.7120   -0.3620 S   0  0  0  0  0  0  0  0  0  0  0  0
   -3.6410   -0.2420   -0.0990 C   0  0  0  0  0  0  0  0  0  0  0  0
   -4.3810   -1.0280    0.7590 C   0  0  0  0  0  0  0  0  0  0  0  0
   -5.9960   -0.2350    0.7280 S   0  0  0  0  0  0  0  0  0  0  0  0
   -5.5390    1.0560   -0.4130 C   0  0  0  0  0  0  0  0  0  0  0  0
   -4.2220    0.8020   -0.6860 C   0  0  0  0  0  0  0  0  0  0  0  0
   -3.5590    1.6920   -1.5950 O   0  0  0  0  0  0  0  0  0  0  0  0
    1.3730    0.5000   -0.0720 N   0  0  0  0  0  0  0  0  0  0  0  0
  1  2  1  0
  2  3  1  0
  3  4  1  0
  4  5  2  0
  4 16  1  0
  5  6  1  0
  6  7  1  0
  7  8  1  0
  7 16  2  0
  8  9  1  0
  9 10  1  0
 10 11  2  0
 10 14  1  0
 11 12  1  0
 12 13  1  0
 13 14  2  0
 14 15  1  0
M  END
