
     RDKit          3D

 16 16  0  0  0  0  0  0  0  0999 V2000
    6.0860    0.2580    0.1230 C   0  0  0  0  0  0  0  0  0  0  0  0
    4.7720    0.6790   -0.3750 O   0  0  0  0  0  0  0  0  0  0  0  0
    3.6800    0.0690    0.0670 C   0  0  0  0  0  0  0  0  0  0  0  0
    3.4770   -0.8040    0.8230 O   0  0  0  0  0  0  0  0  0  0  0  0
    2.2110    0.7120   -0.6250 N   0  0  0  0  0  0  0  0  0  0  0  0
    1.3240   -0.1560    0.0520 C   0  0  0  0  0  0  0  0  0  0  0  0
    1.4200   -1.0580    0.8010 O   0  0  0  0  0  0  0  0  0  0  0  0
   -0.0580    0.2480   -0.3370 N   0  0  0  0  0  0  0  0  0  0  0  0
   -1.2390   -0.3060    0.0950 C   0  0  0  0  0  0  0  0  0  0  0  0
   -2.3670    0.2550   -0.4050 C   0  0  0  0  0  0  0  0  0  0  0  0
   -2.1780    1.6260   -1.5540 S   0  0  0  0  0  0  0  0  0  0  0  0
   -3.8270    2.3170   -1.8830 C   0  0  0  0  0  0  0  0  0  0  0  0
   -3.9530   -0.3160    0.0770 S   0  0  0  0  0  0  0  0  0  0  0  0
   -3.8040   -1.6730    1.2200 C   0  0  0  0  0  0  0  0  0  0  0  0
   -2.3900   -1.9810    1.4990 C   0  0  0  0  0  0  0  0  0  0  0  0
   -1.3380   -1.3920    1.0140 C   0  0  0  0  0  0  0  0  0  0  0  0
  1  2  1  0
  2  3  1  0
  3  4  2  0
  3  5  1  0
  5  6  1  0
  6  7  2  0
  6  8  1  0
  8  9  1  0
  9 10  2  0
  9 16  1  0
 10 11  1  0
 10 13  1  0
 11 12  1  0
 13 14  1  0
 14 15  1  0
 15 16  2  0
M  END
