
     RDKit          3D

 10  9  0  0  0  0  0  0  0  0999 V2000
    2.9690    1.2510   -0.0980 N   0  0  0  0  0  0  0  0  0  0  0  0
    2.2890    0.0180    0.0520 C   0  0  0  0  0  0  0  0  0  0  0  0
    3.0000   -1.0080    0.2550 O   0  0  0  0  0  0  0  0  0  0  0  0
    0.8920   -0.0300   -0.0270 N   0  0  0  0  0  0  0  0  0  0  0  0
    0.2050   -1.2650    0.1230 C   0  0  0  0  0  0  0  0  0  0  0  0
    1.0430   -2.6530    0.3900 S   0  0  0  0  0  0  0  0  0  0  0  0
   -1.2070   -1.3590    0.0500 N   0  0  0  0  0  0  0  0  0  0  0  0
   -1.9210   -0.1740   -0.1780 N   0  0  0  0  0  0  0  0  0  0  0  0
   -3.1690   -0.3720   -0.5910 O   0  0  0  0  0  0  0  0  0  0  0  0
   -3.9680    1.1520   -0.6020 S   0  0  0  0  0  0  0  0  0  0  0  0
  1  2  1  0
  2  3  2  0
  2  4  1  0
  4  5  1  0
  5  6  2  0
  5  7  1  0
  7  8  1  0
  8  9  1  0
  9 10  1  0
M  END
