
     RDKit          3D

 10  9  0  0  0  0  0  0  0  0999 V2000
    1.7370   -0.5010    1.1750 N   0  0  0  0  0  0  0  0  0  0  0  0
    1.9610    0.6830    0.4040 C   0  0  0  0  0  0  0  0  0  0  0  0
    3.0990    1.2050    0.3030 O   0  0  0  0  0  0  0  0  0  0  0  0
    0.8620    1.3370   -0.3020 C   0  0  0  0  0  0  0  0  0  0  0  0
    1.1460    2.6830   -1.1710 S   0  0  0  0  0  0  0  0  0  0  0  0
   -0.4620    0.8370   -0.2580 N   0  0  0  0  0  0  0  0  0  0  0  0
   -0.7410   -0.2770    0.4510 N   0  0  0  0  0  0  0  0  0  0  0  0
   -1.2840   -0.1200    2.0590 S   0  0  0  0  0  0  0  0  0  0  0  0
   -1.0320   -1.4220   -0.2210 N   0  0  0  0  0  0  0  0  0  0  0  0
   -2.3460   -1.6400   -0.3540 O   0  0  0  0  0  0  0  0  0  0  0  0
  1  2  1  0
  2  3  2  0
  2  4  1  0
  4  5  2  0
  4  6  1  0
  6  7  1  0
  7  8  1  0
  7  9  1  0
  9 10  1  0
M  END
