
     RDKit          3D

 11 10  0  0  0  0  0  0  0  0999 V2000
   -2.2110   -1.6700   -1.4090 O   0  0  0  0  0  0  0  0  0  0  0  0
   -1.4240   -1.5290   -0.2670 C   0  0  0  0  0  0  0  0  0  0  0  0
   -1.1810   -0.0350   -0.0470 C   0  0  2  0  0  0  0  0  0  0  0  0
   -2.5910    0.5780    0.0090 C   0  0  0  0  0  0  0  0  0  0  0  0
   -2.4400    1.9420    0.1750 O   0  0  0  0  0  0  0  0  0  0  0  0
   -0.5380    0.5330   -1.1080 O   0  0  0  0  0  0  0  0  0  0  0  0
    0.6540    1.0970   -0.7500 C   0  0  0  0  0  0  0  0  0  0  0  0
    1.6140    0.0740   -0.2090 C   0  0  1  0  0  0  0  0  0  0  0  0
    1.8780   -0.9140   -1.1570 O   0  0  0  0  0  0  0  0  0  0  0  0
    2.9470    0.7270    0.1690 C   0  0  0  0  0  0  0  0  0  0  0  0
    3.7460   -0.2780    0.6870 O   0  0  0  0  0  0  0  0  0  0  0  0
  1  2  1  0
  3  2  1  6
  3  4  1  0
  3  6  1  0
  4  5  1  0
  6  7  1  0
  7  8  1  0
  8  9  1  6
  8 10  1  0
 10 11  1  0
M  END
