
     RDKit          3D

 11 10  0  0  0  0  0  0  0  0999 V2000
    4.1640   -0.6550    0.4190 O   0  0  0  0  0  0  0  0  0  0  0  0
    2.9260   -1.2790    0.2820 C   0  0  0  0  0  0  0  0  0  0  0  0
    2.1110   -0.5370   -0.5700 O   0  0  0  0  0  0  0  0  0  0  0  0
    1.8880    0.7470   -0.0980 C   0  0  0  0  0  0  0  0  0  0  0  0
    1.0000    1.4520   -1.0930 C   0  0  0  0  0  0  0  0  0  0  0  0
   -0.2120    0.8200   -1.2670 O   0  0  0  0  0  0  0  0  0  0  0  0
   -0.9680    0.7290   -0.1320 C   0  0  0  0  0  0  0  0  0  0  0  0
   -2.2700    0.0260   -0.5480 C   0  0  1  0  0  0  0  0  0  0  0  0
   -2.0320   -1.2300   -1.0620 O   0  0  0  0  0  0  0  0  0  0  0  0
   -3.1760   -0.0220    0.6550 C   0  0  0  0  0  0  0  0  0  0  0  0
   -2.6230   -0.7850    1.6720 O   0  0  0  0  0  0  0  0  0  0  0  0
  1  2  1  0
  2  3  1  0
  3  4  1  0
  4  5  1  0
  5  6  1  0
  6  7  1  0
  7  8  1  0
  8  9  1  1
  8 10  1  0
 10 11  1  0
M  END
