
     RDKit          3D

 18 18  0  0  0  0  0  0  0  0999 V2000
   -2.5150   -1.2650   -1.4000 C   0  0  0  0  0  0  0  0  0  0  0  0
   -2.3360   -0.1580   -0.3140 C   0  0  0  0  0  0  0  0  0  0  0  0
   -3.4250    0.3310    0.1250 C   0  0  0  0  0  0  0  0  0  0  0  0
   -3.7830    1.3510    1.1070 C   0  0  0  0  0  0  0  0  0  0  0  0
   -4.7310    2.6540    0.2940 Cl  0  0  0  0  0  0  0  0  0  0  0  0
   -0.9810    0.0840   -0.0130 C   0  0  0  0  0  0  0  0  0  0  0  0
   -0.0980   -0.6320   -0.7060 N   0  0  0  0  0  0  0  0  0  0  0  0
    1.2850   -0.5550   -0.5720 C   0  0  0  0  0  0  0  0  0  0  0  0
    1.9930    0.3650   -1.3230 C   0  0  0  0  0  0  0  0  0  0  0  0
    3.3650    0.4690   -1.2330 C   0  0  0  0  0  0  0  0  0  0  0  0
    4.0870   -0.3400   -0.3890 C   0  0  0  0  0  0  0  0  0  0  0  0
    5.4640   -0.2270   -0.3060 O   0  0  0  0  0  0  0  0  0  0  0  0
    3.4000   -1.2620    0.3670 C   0  0  0  0  0  0  0  0  0  0  0  0
    2.0280   -1.3740    0.2840 C   0  0  0  0  0  0  0  0  0  0  0  0
   -0.4790    1.0310    0.9950 C   0  0  2  0  0  0  0  0  0  0  0  0
   -0.9350    0.6190    2.2310 F   0  0  0  0  0  0  0  0  0  0  0  0
   -0.7250    2.3350    0.6800 F   0  0  0  0  0  0  0  0  0  0  0  0
    0.9420    0.9370    1.0660 F   0  0  0  0  0  0  0  0  0  0  0  0
  1  2  1  0
  2  3  2  3
  2  6  1  0
  3  4  1  0
  4  5  1  0
  6  7  2  3
  6 15  1  0
  7  8  1  0
  8  9  2  0
  8 14  1  0
  9 10  1  0
 10 11  2  0
 11 12  1  0
 11 13  1  0
 13 14  2  0
 15 16  1  1
 15 17  1  0
 15 18  1  0
M  END
