
     RDKit          3D

 28 31  0  0  0  0  0  0  0  0999 V2000
   -5.6210    1.6130    2.5390 C   0  0  0  0  0  0  0  0  0  0  0  0
   -5.8820    1.3370    1.1280 N   0  0  0  0  0  0  0  0  0  0  0  0
   -7.1580    1.2030    0.4830 C   0  0  0  0  0  0  0  0  0  0  0  0
   -6.8340    1.1540   -0.9830 C   0  0  0  0  0  0  0  0  0  0  0  0
   -5.4930    0.5510   -0.9780 N   0  0  0  0  0  0  0  0  0  0  0  0
   -5.0300   -0.3720   -1.9310 C   0  0  0  0  0  0  0  0  0  0  0  0
   -5.8060   -0.6870   -2.9220 O   0  0  0  0  0  0  0  0  0  0  0  0
   -3.7380   -1.0090   -1.8960 C   0  0  0  0  0  0  0  0  0  0  0  0
   -3.3840   -1.8920   -2.9270 C   0  0  0  0  0  0  0  0  0  0  0  0
   -2.1760   -2.5390   -2.9750 C   0  0  0  0  0  0  0  0  0  0  0  0
   -1.3050   -2.2720   -1.9340 C   0  0  0  0  0  0  0  0  0  0  0  0
   -1.6260   -1.4150   -0.9160 C   0  0  0  0  0  0  0  0  0  0  0  0
   -0.7630   -1.1350    0.1700 N   0  0  0  0  0  0  0  0  0  0  0  0
   -1.1870   -0.2050    1.2250 C   0  0  0  0  0  0  0  0  0  0  0  0
    0.5350   -1.7600    0.2450 C   0  0  0  0  0  0  0  0  0  0  0  0
    1.5890   -0.6940    0.0240 C   0  0  0  0  0  0  0  0  0  0  0  0
    2.9160   -1.2960    0.0920 N   0  0  0  0  0  0  0  0  0  0  0  0
    3.8350   -0.3140    0.5660 C   0  0  1  0  0  0  0  0  0  0  0  0
    4.8430   -0.9020    1.5520 C   0  0  0  0  0  0  0  0  0  0  0  0
    6.0810   -0.4270    1.2260 O   0  0  0  0  0  0  0  0  0  0  0  0
    5.9360    0.6170    0.3430 C   0  0  2  0  0  0  0  0  0  0  0  0
    7.1720    1.0540   -0.3620 C   0  0  0  0  0  0  0  0  0  0  0  0
    7.2320    2.2510    0.5760 C   0  0  0  0  0  0  0  0  0  0  0  0
    5.7730    1.9790    0.9290 C   0  0  0  0  0  0  0  0  0  0  0  0
    4.7820    0.1840   -0.5180 C   0  0  0  0  0  0  0  0  0  0  0  0
   -2.8580   -0.8040   -0.9400 N   0  0  0  0  0  0  0  0  0  0  0  0
   -4.8650    1.1550    0.1410 C   0  0  0  0  0  0  0  0  0  0  0  0
   -3.6600    1.4590    0.2230 O   0  0  0  0  0  0  0  0  0  0  0  0
  1  2  1  0
  2  3  1  0
  2 27  1  0
  3  4  1  0
  4  5  1  0
  5  6  1  0
  5 27  1  0
  6  7  2  0
  6  8  1  0
  8  9  2  0
  8 26  1  0
  9 10  1  0
 10 11  2  0
 11 12  1  0
 12 13  1  0
 12 26  2  0
 13 14  1  0
 13 15  1  0
 15 16  1  0
 16 17  1  0
 18 17  1  6
 18 19  1  0
 18 25  1  0
 19 20  1  0
 20 21  1  0
 21 22  1  6
 21 24  1  0
 21 25  1  0
 22 23  1  0
 23 24  1  0
 27 28  2  0
M  CHG  1  17   1
M  END
