
     RDKit          3D

 18 18  0  0  0  0  0  0  0  0999 V2000
    2.3750    3.5350    0.9650 O   0  0  0  0  0  0  0  0  0  0  0  0
    2.1460    2.1610    1.0120 C   0  0  0  0  0  0  0  0  0  0  0  0
    0.7950    1.8750    0.3870 C   0  0  0  0  0  0  0  0  0  0  0  0
    0.4690    0.4120    0.3990 C   0  0  2  0  0  0  0  0  0  0  0  0
    1.4370   -0.4500   -0.3320 C   0  0  0  0  0  0  0  0  0  0  0  0
    1.9580   -1.4800    0.3290 C   0  0  0  0  0  0  0  0  0  0  0  0
    2.9230   -2.4570   -0.1950 C   0  0  0  0  0  0  0  0  0  0  0  0
    2.1790   -4.0860   -0.0630 Cl  0  0  0  0  0  0  0  0  0  0  0  0
    1.8580   -0.2690   -1.7290 C   0  0  1  0  0  0  0  0  0  0  0  0
    1.4680    0.9160   -2.3140 F   0  0  0  0  0  0  0  0  0  0  0  0
    3.2630   -0.1950   -1.7340 F   0  0  0  0  0  0  0  0  0  0  0  0
    1.4960   -1.2880   -2.5690 F   0  0  0  0  0  0  0  0  0  0  0  0
   -0.8420    0.0090    0.1840 N   0  0  0  0  0  0  0  0  0  0  0  0
   -1.7980    0.4600    1.1800 C   0  0  0  0  0  0  0  0  0  0  0  0
   -3.2250    0.3190    0.7390 C   0  0  0  0  0  0  0  0  0  0  0  0
   -3.4350   -0.9770    0.0160 C   0  0  0  0  0  0  0  0  0  0  0  0
   -2.4090   -1.2710   -1.0230 C   0  0  0  0  0  0  0  0  0  0  0  0
   -1.4520   -0.0570   -1.0630 C   0  0  0  0  0  0  0  0  0  0  0  0
  1  2  1  0
  2  3  1  0
  4  3  1  6
  4  5  1  0
  4 13  1  0
  5  6  2  3
  5  9  1  0
  6  7  1  0
  7  8  1  0
  9 10  1  6
  9 11  1  0
  9 12  1  0
 13 14  1  0
 13 18  1  0
 14 15  1  0
 15 16  1  0
 16 17  1  0
 17 18  1  0
M  END
