
     RDKit          3D

 19 18  0  0  0  0  0  0  0  0999 V2000
    1.4740   -2.6220   -1.3660 C   0  0  0  0  0  0  0  0  0  0  0  0
    0.4810   -1.5180   -1.1170 C   0  0  0  0  0  0  0  0  0  0  0  0
    0.4790   -1.0810    0.3360 C   0  0  1  0  0  0  0  0  0  0  0  0
    0.1140   -2.2500    1.2190 C   0  0  0  0  0  0  0  0  0  0  0  0
    1.7170   -0.5600    0.6200 O   0  0  0  0  0  0  0  0  0  0  0  0
    1.8390   -0.1450    1.8570 O   0  0  0  0  0  0  0  0  0  0  0  0
    2.4880    1.0000    1.8130 O   0  0  0  0  0  0  0  0  0  0  0  0
    3.7530    0.8570    1.2750 C   0  0  0  0  0  0  0  0  0  0  0  0
    3.6970    0.3580   -0.0400 O   0  0  0  0  0  0  0  0  0  0  0  0
    4.9050    0.2270   -0.5400 O   0  0  0  0  0  0  0  0  0  0  0  0
    5.9880    1.4480    0.0160 P   0  0  0  0  0  0  0  0  0  0  0  0
   -0.5420    0.0170    0.4500 C   0  0  0  0  0  0  0  0  0  0  0  0
   -0.1710    1.1790    0.7640 O   0  0  0  0  0  0  0  0  0  0  0  0
   -1.9470   -0.2200    0.2080 C   0  0  0  0  0  0  0  0  0  0  0  0
   -2.3420   -1.3620   -0.1050 O   0  0  0  0  0  0  0  0  0  0  0  0
   -2.9220    0.8780    0.3280 C   0  0  1  0  0  0  0  0  0  0  0  0
   -2.5930    2.0010   -0.6500 C   0  0  0  0  0  0  0  0  0  0  0  0
   -4.6510    0.3420    0.0110 P   0  0  0  0  0  0  0  0  0  0  0  0
   -5.7610    1.8280   -0.0590 C   0  0  0  0  0  0  0  0  0  0  0  0
  1  2  1  0
  2  3  1  0
  3  4  1  1
  3  5  1  0
  3 12  1  0
  5  6  1  0
  6  7  1  0
  7  8  1  0
  8  9  1  0
  9 10  1  0
 10 11  1  0
 12 13  2  0
 12 14  1  0
 14 15  2  0
 14 16  1  0
 16 17  1  6
 16 18  1  0
 18 19  1  0
M  END
