
     RDKit          3D

 20 20  0  0  0  0  0  0  0  0999 V2000
   -2.4220   -3.4150    0.6510 O   0  0  0  0  0  0  0  0  0  0  0  0
   -1.2280   -3.1090    0.5050 C   0  0  0  0  0  0  0  0  0  0  0  0
   -0.5230   -1.9080    0.3350 C   0  0  0  0  0  0  0  0  0  0  0  0
    0.7910   -2.1240    0.2160 O   0  0  0  0  0  0  0  0  0  0  0  0
   -0.9080   -0.5110    0.2610 C   0  0  0  0  0  0  0  0  0  0  0  0
   -2.0980   -0.0470    0.3450 C   0  0  0  0  0  0  0  0  0  0  0  0
   -3.5530   -1.2000    0.6110 P   0  0  0  0  0  0  0  0  0  0  0  0
   -2.4970    1.3050    0.2380 O   0  0  0  0  0  0  0  0  0  0  0  0
   -1.5350    2.2390   -0.0010 C   0  0  0  0  0  0  0  0  0  0  0  0
   -1.8520    3.8670   -0.1350 P   0  0  0  0  0  0  0  0  0  0  0  0
   -0.1660    1.7860   -0.1440 C   0  0  0  0  0  0  0  0  0  0  0  0
    0.6250    2.6700   -0.6500 O   0  0  0  0  0  0  0  0  0  0  0  0
    0.2620    0.4730    0.2420 C   0  0  1  0  0  0  0  0  0  0  0  0
    0.8290    0.5010    1.6460 C   0  0  0  0  0  0  0  0  0  0  0  0
    2.0420   -0.2070    1.9000 S   0  0  0  0  0  0  0  0  0  0  0  0
    1.2510   -0.0170   -0.6190 O   0  0  0  0  0  0  0  0  0  0  0  0
    2.4530    0.6260   -0.7400 C   0  0  0  0  0  0  0  0  0  0  0  0
    2.7940    1.6610   -0.1140 O   0  0  0  0  0  0  0  0  0  0  0  0
    3.4870    0.0860   -1.6910 C   0  0  0  0  0  0  0  0  0  0  0  0
    2.9730   -1.0340   -2.2940 O   0  0  0  0  0  0  0  0  0  0  0  0
  1  2  2  0
  2  3  1  0
  3  4  2  0
  3  5  1  0
  5  6  2  0
  5 13  1  0
  6  7  1  0
  6  8  1  0
  8  9  1  0
  9 10  2  0
  9 11  1  0
 11 12  2  0
 11 13  1  0
 13 14  1  0
 13 16  1  6
 14 15  2  0
 16 17  1  0
 17 18  2  0
 17 19  1  0
 19 20  1  0
M  END
