
     RDKit          3D

 15 15  0  0  0  0  0  0  0  0999 V2000
    3.7050    0.1430    0.6090 C   0  0  0  0  0  0  0  0  0  0  0  0
    2.6130   -0.4570    0.0040 O   0  0  0  0  0  0  0  0  0  0  0  0
    1.4890    0.3490    0.1140 C   0  0  1  0  0  0  0  0  0  0  0  0
    1.0590    0.7610   -1.1440 O   0  0  0  0  0  0  0  0  0  0  0  0
    0.4130   -0.2510   -1.8480 C   0  0  0  0  0  0  0  0  0  0  0  0
   -0.8750   -0.6740   -1.1820 C   0  0  2  0  0  0  0  0  0  0  0  0
   -1.9890   -0.2210   -1.8770 O   0  0  0  0  0  0  0  0  0  0  0  0
   -0.9370   -0.1270    0.2280 C   0  0  2  0  0  0  0  0  0  0  0  0
   -1.9730   -0.8570    1.0590 C   0  0  0  0  0  0  0  0  0  0  0  0
   -1.9960   -0.3250    2.3400 O   0  0  0  0  0  0  0  0  0  0  0  0
   -1.1830    1.3290    0.2330 C   0  0  0  0  0  0  0  0  0  0  0  0
   -2.3570    1.8630   -0.3520 N   0  0  0  0  0  0  0  0  0  0  0  0
   -0.3790    2.1630    0.7460 O   0  0  0  0  0  0  0  0  0  0  0  0
    0.4160   -0.4120    0.8630 C   0  0  1  0  0  0  0  0  0  0  0  0
    0.6580   -1.7740    0.9110 O   0  0  0  0  0  0  0  0  0  0  0  0
  1  2  1  0
  3  2  1  6
  3  4  1  0
  3 14  1  0
  4  5  1  0
  5  6  1  0
  6  7  1  6
  6  8  1  0
  8  9  1  1
  8 11  1  0
  8 14  1  0
  9 10  1  0
 11 12  1  0
 11 13  2  0
 14 15  1  6
M  END
