
     RDKit          3D

 13 14  0  0  0  0  0  0  0  0999 V2000
    2.0270   -2.8820    0.6490 O   0  0  0  0  0  0  0  0  0  0  0  0
    1.6280   -1.7640    0.1800 C   0  0  0  0  0  0  0  0  0  0  0  0
    2.7400   -0.8220   -0.0840 C   0  0  0  0  0  0  0  0  0  0  0  0
    2.4510    0.4110    0.5820 O   0  0  0  0  0  0  0  0  0  0  0  0
    1.5030    1.3970    0.5370 C   0  0  0  0  0  0  0  0  0  0  0  0
    1.5590    2.1820    1.5160 O   0  0  0  0  0  0  0  0  0  0  0  0
    0.4140    1.7710   -0.3920 C   0  0  0  0  0  0  0  0  0  0  0  0
   -0.7340    0.8180   -0.2140 C   0  0  0  0  0  0  0  0  0  0  0  0
   -1.9570    1.3030   -0.1990 C   0  0  0  0  0  0  0  0  0  0  0  0
   -2.8820    0.1950   -0.0160 C   0  0  0  0  0  0  0  0  0  0  0  0
   -2.0110   -0.9940    0.0720 C   0  0  0  0  0  0  0  0  0  0  0  0
   -0.7510   -0.6250   -0.0450 C   0  0  0  0  0  0  0  0  0  0  0  0
    0.2300   -1.6830    0.0210 N   0  0  0  0  0  0  0  0  0  0  0  0
  1  2  2  0
  2  3  1  0
  2 13  1  0
  3  4  1  0
  4  5  1  0
  5  6  2  0
  5  7  1  0
  7  8  1  0
  8  9  2  0
  8 12  1  0
  9 10  1  0
 10 11  1  0
 11 12  2  0
 12 13  1  0
M  END
