
     RDKit          3D

 15 15  0  0  0  0  0  0  0  0999 V2000
    2.3860   -0.1220    1.8330 C   0  0  0  0  0  0  0  0  0  0  0  0
    1.8200   -0.6380    0.6970 O   0  0  0  0  0  0  0  0  0  0  0  0
    1.5440    0.2790   -0.2830 C   0  0  1  0  0  0  0  0  0  0  0  0
    2.3310    0.0820   -1.4850 N   0  0  0  0  0  0  0  0  0  0  0  0
    0.0800    0.2970   -0.6740 C   0  0  1  0  0  0  0  0  0  0  0  0
   -0.1550    1.3350   -1.5700 O   0  0  0  0  0  0  0  0  0  0  0  0
   -0.1950   -0.9970   -1.3990 C   0  0  0  0  0  0  0  0  0  0  0  0
   -1.5240   -1.1180   -1.7860 O   0  0  0  0  0  0  0  0  0  0  0  0
   -2.1470   -1.9660   -0.8730 C   0  0  0  0  0  0  0  0  0  0  0  0
   -2.2700   -1.3150    0.4770 C   0  0  0  0  0  0  0  0  0  0  0  0
   -2.1030    0.0490    0.3200 O   0  0  0  0  0  0  0  0  0  0  0  0
   -0.8200    0.4870    0.5280 C   0  0  2  0  0  0  0  0  0  0  0  0
   -0.8790    1.9020    0.9200 C   0  0  0  0  0  0  0  0  0  0  0  0
    0.1700    2.5240    1.1640 O   0  0  0  0  0  0  0  0  0  0  0  0
   -2.0810    2.5510    1.0230 O   0  0  0  0  0  0  0  0  0  0  0  0
  1  2  1  0
  2  3  1  0
  3  4  1  6
  3  5  1  0
  5  6  1  6
  5  7  1  0
  5 12  1  0
  7  8  1  0
  8  9  1  0
  9 10  1  0
 10 11  1  0
 11 12  1  0
 12 13  1  6
 13 14  2  0
 13 15  1  0
M  END
