
     RDKit          3D

 14 14  0  0  0  0  0  0  0  0999 V2000
    0.6840   -2.8620    0.3370 O   0  0  0  0  0  0  0  0  0  0  0  0
   -0.4440   -2.1510   -0.1300 C   0  0  0  0  0  0  0  0  0  0  0  0
   -0.1340   -0.6420   -0.1050 C   0  0  1  0  0  0  0  0  0  0  0  0
    1.1440   -0.5080   -0.9390 C   0  0  2  0  0  0  0  0  0  0  0  0
    2.1420   -1.3600   -0.4540 O   0  0  0  0  0  0  0  0  0  0  0  0
    1.7010    0.8890   -0.8800 C   0  0  0  0  0  0  0  0  0  0  0  0
    2.0330    1.1970    0.5160 N   0  0  0  0  0  0  0  0  0  0  0  0
    2.5270    2.4570    0.5080 O   0  0  0  0  0  0  0  0  0  0  0  0
   -1.2300    0.0480   -0.8070 C   0  0  0  0  0  0  0  0  0  0  0  0
   -2.2760    0.6750    0.0170 C   0  0  1  0  0  0  0  0  0  0  0  0
   -3.3010   -0.1350    0.4280 O   0  0  0  0  0  0  0  0  0  0  0  0
   -1.6510    1.3120    1.2280 C   0  0  0  0  0  0  0  0  0  0  0  0
   -0.6380    0.4540    1.9010 C   0  0  0  0  0  0  0  0  0  0  0  0
    0.1390   -0.3210    1.1580 O   0  0  0  0  0  0  0  0  0  0  0  0
  1  2  1  0
  3  2  1  1
  3  4  1  0
  3  9  1  0
  3 14  1  0
  4  5  1  1
  4  6  1  0
  6  7  1  0
  7  8  1  0
  9 10  1  0
 10 11  1  1
 10 12  1  0
 12 13  1  0
 13 14  1  0
M  END
