
     RDKit          3D

 14 14  0  0  0  0  0  0  0  0999 V2000
    2.3280   -2.0060   -2.2420 C   0  0  0  0  0  0  0  0  0  0  0  0
    1.4410   -1.2050   -1.6810 C   0  0  0  0  0  0  0  0  0  0  0  0
    0.1030   -1.0210   -2.3450 C   0  0  0  0  0  0  0  0  0  0  0  0
   -0.5730    0.0960   -1.5610 C   0  0  0  0  0  0  0  0  0  0  0  0
   -0.5630   -0.2720   -0.1990 N   0  0  0  0  0  0  0  0  0  0  0  0
   -1.9850   -0.1400    0.6650 S   0  0  1  0  0  0  0  0  0  0  0  0
   -3.0430   -1.0300    0.0270 O   0  0  0  0  0  0  0  0  0  0  0  0
   -1.7860   -0.6650    2.0580 O   0  0  0  0  0  0  0  0  0  0  0  0
   -2.6360    1.4970    0.7790 C   0  0  0  0  0  0  0  0  0  0  0  0
   -3.9140    1.4220    1.5900 C   0  0  0  0  0  0  0  0  0  0  0  0
    0.6620   -0.1570    0.4910 C   0  0  0  0  0  0  0  0  0  0  0  0
    1.7700   -0.5160   -0.4390 C   0  0  0  0  0  0  0  0  0  0  0  0
    3.0210   -0.2170   -0.1430 C   0  0  0  0  0  0  0  0  0  0  0  0
    3.3670    0.4830    1.1170 C   0  0  0  0  0  0  0  0  0  0  0  0
  1  2  2  0
  2  3  1  0
  2 12  1  0
  3  4  1  0
  4  5  1  0
  5  6  1  0
  5 11  1  0
  6  7  2  0
  6  8  2  0
  6  9  1  1
  9 10  1  0
 11 12  1  0
 12 13  2  3
 13 14  1  0
M  END
