
     RDKit          3D

 14 14  0  0  0  0  0  0  0  0999 V2000
    4.9860   -1.3410    0.7300 C   0  0  0  0  0  0  0  0  0  0  0  0
    4.3920   -0.0420    0.3480 C   0  0  0  0  0  0  0  0  0  0  0  0
    3.1090    0.1750    0.3200 C   0  0  0  0  0  0  0  0  0  0  0  0
    2.2080   -0.8320    0.6580 O   0  0  0  0  0  0  0  0  0  0  0  0
    2.5500    1.4940   -0.0700 C   0  0  0  0  0  0  0  0  0  0  0  0
    1.4700    1.4460   -1.4880 S   0  0  0  0  0  0  0  0  0  0  0  0
   -0.0770    0.5590   -1.1990 C   0  0  0  0  0  0  0  0  0  0  0  0
   -0.9470    1.2870   -0.1860 C   0  0  0  0  0  0  0  0  0  0  0  0
   -2.1840    0.6760    0.0920 N   0  0  0  0  0  0  0  0  0  0  0  0
   -2.2170   -0.5520    0.7790 C   0  0  0  0  0  0  0  0  0  0  0  0
   -3.0160   -1.6320    0.1760 C   0  0  0  0  0  0  0  0  0  0  0  0
   -3.7240   -1.3870   -0.9460 O   0  0  0  0  0  0  0  0  0  0  0  0
   -3.9640   -0.1530   -1.3930 C   0  0  0  0  0  0  0  0  0  0  0  0
   -3.2340    0.9900   -0.7870 C   0  0  0  0  0  0  0  0  0  0  0  0
  1  2  1  0
  2  3  2  3
  3  4  1  0
  3  5  1  0
  5  6  1  0
  6  7  1  0
  7  8  1  0
  8  9  1  0
  9 10  1  0
  9 14  1  0
 10 11  1  0
 11 12  1  0
 12 13  1  0
 13 14  1  0
M  END
