
     RDKit          3D

 17 18  0  0  0  0  0  0  0  0999 V2000
   -4.4200   -0.9860    0.0760 C   0  0  0  0  0  0  0  0  0  0  0  0
   -3.5780    0.1370    0.2310 O   0  0  0  0  0  0  0  0  0  0  0  0
   -2.2280   -0.0090    0.0330 C   0  0  0  0  0  0  0  0  0  0  0  0
   -1.6960   -1.2300   -0.3110 C   0  0  0  0  0  0  0  0  0  0  0  0
   -0.3350   -1.3430   -0.5020 C   0  0  0  0  0  0  0  0  0  0  0  0
    0.5430   -0.2860   -0.3670 C   0  0  0  0  0  0  0  0  0  0  0  0
    1.9800   -0.5010   -0.5920 C   0  0  1  0  0  0  0  0  0  0  0  0
    2.8010    0.5060   -0.0930 O   0  0  0  0  0  0  0  0  0  0  0  0
    4.0690   -0.0470    0.0620 C   0  0  0  0  0  0  0  0  0  0  0  0
    5.1840    0.5610    0.1160 O   0  0  0  0  0  0  0  0  0  0  0  0
    3.9350   -1.4650    0.1580 N   0  0  0  0  0  0  0  0  0  0  0  0
    2.5240   -1.7170    0.0510 C   0  0  0  0  0  0  0  0  0  0  0  0
    1.9670   -2.7720    0.4460 O   0  0  0  0  0  0  0  0  0  0  0  0
   -0.0000    0.9350   -0.0210 C   0  0  0  0  0  0  0  0  0  0  0  0
    0.8930    1.9940    0.1130 O   0  0  0  0  0  0  0  0  0  0  0  0
    0.3590    3.2530    0.4660 C   0  0  0  0  0  0  0  0  0  0  0  0
   -1.3490    1.0700    0.1730 C   0  0  0  0  0  0  0  0  0  0  0  0
  1  2  1  0
  2  3  1  0
  3  4  2  0
  3 17  1  0
  4  5  1  0
  5  6  2  0
  7  6  1  1
  6 14  1  0
  7  8  1  0
  7 12  1  0
  8  9  1  0
  9 10  2  0
  9 11  1  0
 11 12  1  0
 12 13  2  0
 14 15  1  0
 14 17  2  0
 15 16  1  0
M  END
