
     RDKit          3D

 14 14  0  0  0  0  0  0  0  0999 V2000
    2.8480   -2.5250   -0.2510 C   0  0  0  0  0  0  0  0  0  0  0  0
    3.1040   -1.2130    0.4070 C   0  0  0  0  0  0  0  0  0  0  0  0
    2.1740   -0.3010    0.6140 C   0  0  0  0  0  0  0  0  0  0  0  0
    2.7400    1.1880    1.4240 S   0  0  0  0  0  0  0  0  0  0  0  0
    1.6930    2.5710    0.8260 C   0  0  0  0  0  0  0  0  0  0  0  0
    1.2770    2.2350   -0.5680 C   0  0  0  0  0  0  0  0  0  0  0  0
   -0.1290    1.6840   -0.6590 C   0  0  0  0  0  0  0  0  0  0  0  0
   -0.1880    0.2750   -0.3450 N   0  0  0  0  0  0  0  0  0  0  0  0
   -1.4580   -0.3430   -0.5950 C   0  0  0  0  0  0  0  0  0  0  0  0
   -2.3730   -0.2790    0.6160 C   0  0  0  0  0  0  0  0  0  0  0  0
   -3.6900   -0.9370    0.3090 C   0  0  0  0  0  0  0  0  0  0  0  0
   -4.3540   -0.3270   -0.7510 O   0  0  0  0  0  0  0  0  0  0  0  0
    0.8100   -0.5930    0.1720 C   0  0  0  0  0  0  0  0  0  0  0  0
    0.5070   -1.8140    0.2810 O   0  0  0  0  0  0  0  0  0  0  0  0
  1  2  1  0
  2  3  2  3
  3  4  1  0
  3 13  1  0
  4  5  1  0
  5  6  1  0
  6  7  1  0
  7  8  1  0
  8  9  1  0
  8 13  1  0
  9 10  1  0
 10 11  1  0
 11 12  1  0
 13 14  2  0
M  END
