
     RDKit          3D

 14 15  0  0  0  0  0  0  0  0999 V2000
    4.3310   -0.5720   -0.5710 C   0  0  0  0  0  0  0  0  0  0  0  0
    3.1950    0.0480   -1.1470 O   0  0  0  0  0  0  0  0  0  0  0  0
    1.9620   -0.0100   -0.5230 C   0  0  0  0  0  0  0  0  0  0  0  0
    1.9010   -0.6310    0.5660 O   0  0  0  0  0  0  0  0  0  0  0  0
    0.7540    0.6310   -1.1100 C   0  0  0  0  0  0  0  0  0  0  0  0
   -0.4410    0.4130   -0.2470 C   0  0  0  0  0  0  0  0  0  0  0  0
   -0.6940    1.1100    0.9020 C   0  0  0  0  0  0  0  0  0  0  0  0
    0.0920    2.2060    1.5480 C   0  0  0  0  0  0  0  0  0  0  0  0
   -1.8370    0.6190    1.3840 N   0  0  0  0  0  0  0  0  0  0  0  0
   -2.3100   -0.3710    0.5650 C   0  0  0  0  0  0  0  0  0  0  0  0
   -1.4700   -0.5260   -0.4560 C   0  0  0  0  0  0  0  0  0  0  0  0
   -1.7800   -1.5390   -1.4650 C   0  0  0  0  0  0  0  0  0  0  0  0
   -3.2320   -2.3630   -0.7780 S   0  0  0  0  0  0  0  0  0  0  0  0
   -3.5010   -1.2410    0.6080 C   0  0  0  0  0  0  0  0  0  0  0  0
  1  2  1  0
  2  3  1  0
  3  4  2  0
  3  5  1  0
  5  6  1  0
  6  7  2  0
  6 11  1  0
  7  8  1  0
  7  9  1  0
  9 10  1  0
 10 11  2  0
 10 14  1  0
 11 12  1  0
 12 13  1  0
 13 14  1  0
M  END
