
     RDKit          3D

 26 28  0  0  0  0  0  0  0  0999 V2000
    1.2360    5.5990   -0.2250 C   0  0  0  0  0  0  0  0  0  0  0  0
    1.0620    4.3430   -0.1230 C   0  0  0  0  0  0  0  0  0  0  0  0
    0.8480    2.9020    0.0040 C   0  0  0  0  0  0  0  0  0  0  0  0
    1.3100    2.2020    0.8950 O   0  0  0  0  0  0  0  0  0  0  0  0
    0.0050    2.3510   -1.0490 N   0  0  0  0  0  0  0  0  0  0  0  0
   -0.3090    0.9190   -1.1660 C   0  0  1  0  0  0  0  0  0  0  0  0
    0.7080   -0.0190   -0.7970 C   0  0  0  0  0  0  0  0  0  0  0  0
    0.4110   -1.2580   -0.2330 C   0  0  0  0  0  0  0  0  0  0  0  0
    1.3290   -2.1650    0.2110 C   0  0  0  0  0  0  0  0  0  0  0  0
    1.1660   -3.3510    0.7390 O   0  0  0  0  0  0  0  0  0  0  0  0
    0.9990   -4.5040    1.2510 C   0  0  0  0  0  0  0  0  0  0  0  0
    2.7090   -1.7130    0.0260 C   0  0  0  0  0  0  0  0  0  0  0  0
    3.0470   -0.5250   -0.5300 C   0  0  0  0  0  0  0  0  0  0  0  0
    2.0090    0.2770   -0.9140 C   0  0  0  0  0  0  0  0  0  0  0  0
    4.4440   -0.4550   -0.5490 O   0  0  0  0  0  0  0  0  0  0  0  0
    4.8360   -1.3710    0.5250 C   0  0  0  0  0  0  0  0  0  0  0  0
    3.8760   -2.4210    0.4150 O   0  0  0  0  0  0  0  0  0  0  0  0
   -1.6340    0.7460   -0.5160 C   0  0  0  0  0  0  0  0  0  0  0  0
   -1.7530    0.2690    0.7740 C   0  0  0  0  0  0  0  0  0  0  0  0
   -2.9870    0.0340    1.3180 C   0  0  0  0  0  0  0  0  0  0  0  0
   -3.0950   -0.4750    2.6070 O   0  0  0  0  0  0  0  0  0  0  0  0
   -4.1010    0.2950    0.5800 C   0  0  0  0  0  0  0  0  0  0  0  0
   -4.0750    0.7870   -0.7060 C   0  0  0  0  0  0  0  0  0  0  0  0
   -5.2170    1.0400   -1.3680 O   0  0  0  0  0  0  0  0  0  0  0  0
   -2.7320    1.0090   -1.2660 C   0  0  0  0  0  0  0  0  0  0  0  0
   -2.8010    1.5110   -2.5540 O   0  0  0  0  0  0  0  0  0  0  0  0
  1  2  3  0
  2  3  1  0
  3  4  2  0
  3  5  1  0
  6  5  1  1
  6  7  1  0
  6 18  1  0
  7  8  2  0
  7 14  1  0
  8  9  1  0
  9 10  1  0
  9 12  2  0
 10 11  1  0
 12 13  1  0
 12 17  1  0
 13 14  2  0
 13 15  1  0
 15 16  1  0
 16 17  1  0
 18 19  2  0
 18 25  1  0
 19 20  1  0
 20 21  1  0
 20 22  2  0
 22 23  1  0
 23 24  1  0
 23 25  2  0
 25 26  1  0
M  END
