
     RDKit          3D

 26 28  0  0  0  0  0  0  0  0999 V2000
   -3.6500    0.3440    2.4700 C   0  0  0  0  0  0  0  0  0  0  0  0
   -4.3600    0.5160    1.3730 C   0  0  0  0  0  0  0  0  0  0  0  0
   -5.7670    0.4720    1.4440 O   0  0  0  0  0  0  0  0  0  0  0  0
   -6.5000    0.6580    0.2850 C   0  0  0  0  0  0  0  0  0  0  0  0
   -5.9790    0.8760   -0.8910 C   0  0  0  0  0  0  0  0  0  0  0  0
   -4.5400    0.9280   -1.0150 C   0  0  0  0  0  0  0  0  0  0  0  0
   -3.7900    0.7550    0.0700 C   0  0  0  0  0  0  0  0  0  0  0  0
   -2.3530    0.8110   -0.0480 N   0  0  0  0  0  0  0  0  0  0  0  0
   -1.6400   -0.3700    0.1930 C   0  0  0  0  0  0  0  0  0  0  0  0
   -2.2700   -1.4160    0.4870 O   0  0  0  0  0  0  0  0  0  0  0  0
   -0.1960   -0.4180    0.1140 C   0  0  0  0  0  0  0  0  0  0  0  0
    0.4650    0.6550   -0.1880 C   0  0  0  0  0  0  0  0  0  0  0  0
    1.8980    0.6970   -0.2980 C   0  0  0  0  0  0  0  0  0  0  0  0
    2.5610    1.5940    0.5280 C   0  0  0  0  0  0  0  0  0  0  0  0
    3.9110    1.7180    0.4250 C   0  0  0  0  0  0  0  0  0  0  0  0
    4.6180    2.6170    1.2470 O   0  0  0  0  0  0  0  0  0  0  0  0
    4.5970    0.9480   -0.5010 C   0  0  0  0  0  0  0  0  0  0  0  0
    3.9440    0.0570   -1.3230 C   0  0  0  0  0  0  0  0  0  0  0  0
    2.5740   -0.0730   -1.2230 C   0  0  0  0  0  0  0  0  0  0  0  0
    4.8720   -0.5820   -2.1540 O   0  0  0  0  0  0  0  0  0  0  0  0
    6.0610    0.2140   -2.0610 C   0  0  0  0  0  0  0  0  0  0  0  0
    5.9400    0.8760   -0.8070 O   0  0  0  0  0  0  0  0  0  0  0  0
    0.4480   -1.6570    0.4630 C   0  0  0  0  0  0  0  0  0  0  0  0
    1.6750   -1.8040    0.5290 O   0  0  0  0  0  0  0  0  0  0  0  0
   -0.3260   -2.7910    0.7520 O   0  0  0  0  0  0  0  0  0  0  0  0
    0.3540   -3.9780    1.0870 C   0  0  0  0  0  0  0  0  0  0  0  0
  1  2  2  0
  2  3  1  0
  2  7  1  0
  3  4  1  0
  4  5  2  0
  5  6  1  0
  6  7  2  0
  7  8  1  0
  8  9  1  0
  9 10  2  0
  9 11  1  0
 11 12  2  3
 11 23  1  0
 12 13  1  0
 13 14  2  0
 13 19  1  0
 14 15  1  0
 15 16  1  0
 15 17  2  0
 17 18  1  0
 17 22  1  0
 18 19  2  0
 18 20  1  0
 20 21  1  0
 21 22  1  0
 23 24  2  0
 23 25  1  0
 25 26  1  0
M  END
