
     RDKit          3D

 13 14  0  0  0  0  0  0  0  0999 V2000
    3.8090    0.4430    2.0220 O   0  0  0  0  0  0  0  0  0  0  0  0
    2.9480    0.1670    1.1560 C   0  0  0  0  0  0  0  0  0  0  0  0
    2.4680   -1.0730    0.6690 N   0  0  0  0  0  0  0  0  0  0  0  0
    1.8780   -1.0200   -0.5890 C   0  0  0  0  0  0  0  0  0  0  0  0
    1.9060   -1.9970   -1.4160 O   0  0  0  0  0  0  0  0  0  0  0  0
    1.2140    0.2390   -0.9160 C   0  0  1  0  0  0  0  0  0  0  0  0
   -0.2440    0.2470   -0.6720 C   0  0  0  0  0  0  0  0  0  0  0  0
   -0.8190   -0.1070    0.5150 C   0  0  0  0  0  0  0  0  0  0  0  0
   -2.1910   -0.0630    0.6340 C   0  0  0  0  0  0  0  0  0  0  0  0
   -3.0000    0.3280   -0.4120 C   0  0  0  0  0  0  0  0  0  0  0  0
   -2.4290    0.6880   -1.6140 C   0  0  0  0  0  0  0  0  0  0  0  0
   -1.0600    0.6380   -1.7130 C   0  0  0  0  0  0  0  0  0  0  0  0
    2.0350    1.4050    0.2430 S   0  0  0  0  0  0  0  0  0  0  0  0
  1  2  2  0
  2  3  1  0
  2 13  1  0
  3  4  1  0
  4  5  2  0
  4  6  1  0
  6  7  1  1
  6 13  1  0
  7  8  2  0
  7 12  1  0
  8  9  1  0
  9 10  2  0
 10 11  1  0
 11 12  2  0
M  END
