
     RDKit          3D

 26 27  0  0  0  0  0  0  0  0999 V2000
    2.3910   -3.1430   -3.9590 N   0  0  0  0  0  0  0  0  0  0  0  0
    2.3240   -2.8400   -2.8860 C   0  0  0  0  0  0  0  0  0  0  0  0
    2.2620   -2.4420   -1.4620 C   0  0  0  0  0  0  0  0  0  0  0  0
    3.2910   -2.8440   -0.7920 N   0  0  0  0  0  0  0  0  0  0  0  0
    4.3660   -3.5580   -1.2820 N   0  0  0  0  0  0  0  0  0  0  0  0
    1.1850   -1.6840   -0.8610 C   0  0  0  0  0  0  0  0  0  0  0  0
    1.2010   -1.5060    0.5340 C   0  0  0  0  0  0  0  0  0  0  0  0
    1.1500   -0.2680    1.1930 C   0  0  0  0  0  0  0  0  0  0  0  0
    1.0600    0.9500    0.6250 C   0  0  0  0  0  0  0  0  0  0  0  0
    0.0270    1.4720   -0.1340 N   0  0  0  0  0  0  0  0  0  0  0  0
    0.5560    2.2440   -1.2640 C   0  0  0  0  0  0  0  0  0  0  0  0
    0.7720    3.6730   -0.7470 C   0  0  0  0  0  0  0  0  0  0  0  0
   -0.5170    4.2690   -0.3830 N   0  0  0  0  0  0  0  0  0  0  0  0
   -1.2740    1.3220    0.1110 C   0  0  0  0  0  0  0  0  0  0  0  0
   -1.8830    0.9310    1.3100 C   0  0  0  0  0  0  0  0  0  0  0  0
   -2.4060    1.8800    2.1900 N   0  0  0  0  0  0  0  0  0  0  0  0
   -2.8980    1.3240    3.2720 C   0  0  0  0  0  0  0  0  0  0  0  0
   -2.7400   -0.0330    3.1960 C   0  0  0  0  0  0  0  0  0  0  0  0
   -2.0860   -0.3280    1.9460 C   0  0  0  0  0  0  0  0  0  0  0  0
   -1.7760   -1.5670    1.6010 N   0  0  0  0  0  0  0  0  0  0  0  0
   -1.8960   -2.3520    0.5420 C   0  0  0  0  0  0  0  0  0  0  0  0
   -2.2720   -3.6340    0.8170 O   0  0  0  0  0  0  0  0  0  0  0  0
   -1.7450   -2.2370   -0.7610 N   0  0  0  0  0  0  0  0  0  0  0  0
   -1.1490   -1.3840   -1.5440 C   0  0  0  0  0  0  0  0  0  0  0  0
   -1.8210   -0.6720   -2.3570 O   0  0  0  0  0  0  0  0  0  0  0  0
    0.2120   -1.1270   -1.6310 N   0  0  0  0  0  0  0  0  0  0  0  0
  1  2  3  0
  2  3  1  0
  3  4  2  3
  3  6  1  0
  4  5  1  0
  6  7  2  0
  6 26  1  0
  7  8  1  0
  8  9  2  0
  9 10  1  0
 10 11  1  0
 10 14  1  0
 11 12  1  0
 12 13  1  0
 14 15  2  0
 15 16  1  0
 15 19  1  0
 16 17  2  0
 17 18  1  0
 18 19  2  0
 19 20  1  0
 20 21  1  0
 21 22  2  0
 21 23  1  0
 23 24  1  0
 24 25  2  0
 24 26  1  0
M  CHG  1  13   1
M  END
