
     RDKit          3D

 26 28  0  0  0  0  0  0  0  0999 V2000
   -0.9050   -0.8290    2.5320 C   0  0  0  0  0  0  0  0  0  0  0  0
   -1.1000   -1.7060    1.5780 C   0  0  0  0  0  0  0  0  0  0  0  0
   -0.7380   -3.0470    1.8500 O   0  0  0  0  0  0  0  0  0  0  0  0
   -0.9290   -4.0150    0.8630 C   0  0  0  0  0  0  0  0  0  0  0  0
   -1.4400   -3.6850   -0.3070 C   0  0  0  0  0  0  0  0  0  0  0  0
   -1.8180   -2.2950   -0.5980 C   0  0  0  0  0  0  0  0  0  0  0  0
   -1.6570   -1.3280    0.3100 C   0  0  0  0  0  0  0  0  0  0  0  0
   -2.0620    0.0160   -0.0220 C   0  0  2  0  0  0  0  0  0  0  0  0
   -2.8820    0.0250   -1.1900 O   0  0  0  0  0  0  0  0  0  0  0  0
   -1.0890    1.0900   -0.0570 C   0  0  0  0  0  0  0  0  0  0  0  0
   -1.3550    2.3460    0.5320 C   0  0  0  0  0  0  0  0  0  0  0  0
   -0.4690    3.3870    0.4870 C   0  0  0  0  0  0  0  0  0  0  0  0
   -0.7800    4.5890    1.0780 O   0  0  0  0  0  0  0  0  0  0  0  0
   -2.0250    4.7270    1.7290 C   0  0  0  0  0  0  0  0  0  0  0  0
    0.7420    3.2500   -0.1480 C   0  0  0  0  0  0  0  0  0  0  0  0
    1.0300    2.0560   -0.7240 C   0  0  0  0  0  0  0  0  0  0  0  0
    0.1140    0.9820   -0.6760 C   0  0  0  0  0  0  0  0  0  0  0  0
    0.5370   -0.2140   -1.2990 N   0  0  0  0  0  0  0  0  0  0  0  0
    1.4150   -1.0670   -0.5770 C   0  0  0  0  0  0  0  0  0  0  0  0
    1.8100   -0.7670    0.5990 O   0  0  0  0  0  0  0  0  0  0  0  0
    1.9090   -2.3290   -1.1540 C   0  0  0  0  0  0  0  0  0  0  0  0
    2.8380   -3.0490   -0.1940 C   0  0  0  0  0  0  0  0  0  0  0  0
    2.2440   -3.3750    1.0090 O   0  0  0  0  0  0  0  0  0  0  0  0
    2.2970    2.1580   -1.2980 O   0  0  0  0  0  0  0  0  0  0  0  0
    2.9130    3.3660   -0.8930 C   0  0  0  0  0  0  0  0  0  0  0  0
    1.8290    4.1050   -0.3590 O   0  0  0  0  0  0  0  0  0  0  0  0
  1  2  2  0
  2  3  1  0
  2  7  1  0
  3  4  1  0
  4  5  2  0
  5  6  1  0
  6  7  2  0
  7  8  1  0
  8  9  1  6
  8 10  1  0
 10 11  2  0
 10 17  1  0
 11 12  1  0
 12 13  1  0
 12 15  2  0
 13 14  1  0
 15 16  1  0
 15 26  1  0
 16 17  2  0
 16 24  1  0
 17 18  1  0
 18 19  1  0
 19 20  2  0
 19 21  1  0
 21 22  1  0
 22 23  1  0
 24 25  1  0
 25 26  1  0
M  END
