
     RDKit          3D

 26 28  0  0  0  0  0  0  0  0999 V2000
    5.8270    0.2330   -1.5100 C   0  0  0  0  0  0  0  0  0  0  0  0
    5.4960   -1.1350   -1.0230 C   0  0  0  0  0  0  0  0  0  0  0  0
    4.6460   -1.1450    0.2270 C   0  0  1  0  0  0  0  0  0  0  0  0
    5.2660   -0.5100    1.2850 O   0  0  0  0  0  0  0  0  0  0  0  0
    3.3300   -0.5040   -0.0430 C   0  0  0  0  0  0  0  0  0  0  0  0
    2.8600   -0.1900   -1.2970 C   0  0  0  0  0  0  0  0  0  0  0  0
    1.6260    0.3800   -1.1160 C   0  0  0  0  0  0  0  0  0  0  0  0
    1.3740    0.4000    0.2330 C   0  0  0  0  0  0  0  0  0  0  0  0
    0.1810    0.9120    0.9120 C   0  0  0  0  0  0  0  0  0  0  0  0
    0.4390    1.7680    1.9920 O   0  0  0  0  0  0  0  0  0  0  0  0
    0.5800    1.1350    3.2630 C   0  0  0  0  0  0  0  0  0  0  0  0
   -1.0600    0.6320    0.5870 C   0  0  0  0  0  0  0  0  0  0  0  0
   -2.1480    1.1560    1.2710 O   0  0  0  0  0  0  0  0  0  0  0  0
   -3.3300    0.7100    0.7370 C   0  0  0  0  0  0  0  0  0  0  0  0
   -4.6370    1.0910    1.2530 C   0  0  0  0  0  0  0  0  0  0  0  0
   -4.7530    1.9750    2.3530 N   0  0  0  0  0  0  0  0  0  0  0  0
   -5.7040    0.6560    0.7480 O   0  0  0  0  0  0  0  0  0  0  0  0
   -3.1250   -0.1000   -0.2860 C   0  0  0  0  0  0  0  0  0  0  0  0
   -4.0900   -0.7860   -1.1340 C   0  0  0  0  0  0  0  0  0  0  0  0
   -5.1430   -0.2210   -1.8160 C   0  0  0  0  0  0  0  0  0  0  0  0
   -5.8120   -1.2400   -2.4970 C   0  0  0  0  0  0  0  0  0  0  0  0
   -5.1160   -2.3890   -2.1880 C   0  0  0  0  0  0  0  0  0  0  0  0
   -4.1360   -2.0820   -1.4040 O   0  0  0  0  0  0  0  0  0  0  0  0
   -1.6560   -0.1970   -0.4410 C   0  0  0  0  0  0  0  0  0  0  0  0
   -1.0420   -0.8690   -1.2970 O   0  0  0  0  0  0  0  0  0  0  0  0
    2.4230   -0.1390    0.8140 O   0  0  0  0  0  0  0  0  0  0  0  0
  1  2  1  0
  2  3  1  0
  3  4  1  1
  3  5  1  0
  5  6  2  0
  5 26  1  0
  6  7  1  0
  7  8  2  0
  8  9  1  0
  8 26  1  0
  9 10  1  0
  9 12  2  3
 10 11  1  0
 12 13  1  0
 12 24  1  0
 13 14  1  0
 14 15  1  0
 14 18  2  0
 15 16  1  0
 15 17  2  0
 18 19  1  0
 18 24  1  0
 19 20  2  0
 19 23  1  0
 20 21  1  0
 21 22  2  0
 22 23  1  0
 24 25  2  0
M  END
