
     RDKit          3D

 17 19  0  0  0  0  0  0  0  0999 V2000
   -2.1590    1.5910    0.5770 C   0  0  0  0  0  0  0  0  0  0  0  0
   -1.4480    1.0460   -0.6680 C   0  0  2  0  0  0  0  0  0  0  0  0
   -0.2850    2.2680   -1.3330 S   0  0  0  0  0  0  0  0  0  0  0  0
   -2.7700    0.8470   -1.9290 S   0  0  0  0  0  0  0  0  0  0  0  0
   -3.8920   -0.4660   -1.3330 C   0  0  0  0  0  0  0  0  0  0  0  0
   -3.0460   -2.0730   -1.2890 S   0  0  0  0  0  0  0  0  0  0  0  0
   -0.7420   -0.5300   -0.3600 S   0  0  0  0  0  0  0  0  0  0  0  0
    0.8370   -0.4630    1.0480 S   0  0  2  0  0  0  0  0  0  0  0  0
    2.3750    0.6560    0.9290 S   0  0  2  0  0  0  0  0  0  0  0  0
    2.3590    1.8950   -0.3140 F   0  0  0  0  0  0  0  0  0  0  0  0
    2.3740   -0.8720    0.4740 S   0  0  0  0  0  0  0  0  0  0  0  0
    3.5500   -1.9440    2.2810 S   0  0  0  0  0  0  0  0  0  0  0  0
    3.5380   -1.9470    2.2730 S   0  0  0  0  0  0  0  0  0  0  0  0
    2.3160   -2.6850   -0.2570 S   0  0  0  0  0  0  0  0  0  0  0  0
    3.3930   -1.5630   -0.9620 S   0  0  1  0  0  0  0  0  0  0  0  0
    2.8420   -0.7580   -2.3940 O   0  0  0  0  0  0  0  0  0  0  0  0
    3.0720    0.5270   -2.3460 F   0  0  0  0  0  0  0  0  0  0  0  0
  2  1  1  1
  2  3  1  0
  2  4  1  0
  2  7  1  0
  4  5  1  0
  5  6  1  0
  8  7  1  6
  8  9  1  0
  8 11  1  0
  9 10  1  6
  9 11  1  0
 11 12  1  0
 11 13  1  0
 11 14  1  0
 11 15  1  0
 12 13  1  0
 14 15  1  0
 15 16  1  6
 16 17  1  0
M  END
