
     RDKit          3D

 37 38  0  0  0  0  0  0  0  0999 V2000
   -4.5330   -0.5790   -5.2000 C   0  0  0  0  0  0  0  0  0  0  0  0
   -5.6860   -0.8720   -4.3000 C   0  0  0  0  0  0  0  0  0  0  0  0
   -5.6590   -0.1280   -3.0470 N   0  0  0  0  0  0  0  0  0  0  0  0
   -4.6350   -0.2170   -2.1120 C   0  0  0  0  0  0  0  0  0  0  0  0
   -3.6800   -1.0080   -2.4010 O   0  0  0  0  0  0  0  0  0  0  0  0
   -4.5540    0.4910   -0.8630 C   0  0  0  0  0  0  0  0  0  0  0  0
   -3.4490    0.2840   -0.0340 C   0  0  0  0  0  0  0  0  0  0  0  0
   -3.2430    0.8830    1.1710 C   0  0  0  0  0  0  0  0  0  0  0  0
   -2.1860    0.7100    2.0050 O   0  0  0  0  0  0  0  0  0  0  0  0
   -1.0490   -0.1250    1.8180 C   0  0  2  0  0  0  0  0  0  0  0  0
   -0.9160   -1.1120    2.9280 C   0  0  0  0  0  0  0  0  0  0  0  0
    0.2440   -2.0080    2.7760 C   0  0  0  0  0  0  0  0  0  0  0  0
    0.3030   -2.8710    1.5670 C   0  0  0  0  0  0  0  0  0  0  0  0
    0.3330   -2.2490    0.3530 O   0  0  0  0  0  0  0  0  0  0  0  0
    0.1120    0.7970    1.7950 C   0  0  0  0  0  0  0  0  0  0  0  0
   -0.0240    2.0360    1.9730 O   0  0  0  0  0  0  0  0  0  0  0  0
    1.4030    0.3590    1.5760 O   0  0  0  0  0  0  0  0  0  0  0  0
    2.4770    1.2790    1.5620 C   0  0  0  0  0  0  0  0  0  0  0  0
    3.7200    0.5150    1.3070 C   0  0  0  0  0  0  0  0  0  0  0  0
    4.8210    1.1140    1.2530 O   0  0  0  0  0  0  0  0  0  0  0  0
    3.7110   -0.8890    1.1180 N   0  0  0  0  0  0  0  0  0  0  0  0
    4.9330   -1.6360    0.8690 C   0  0  0  0  0  0  0  0  0  0  0  0
    5.5710   -1.1250   -0.3770 C   0  0  0  0  0  0  0  0  0  0  0  0
    5.3650   -1.5610   -1.6550 C   0  0  0  0  0  0  0  0  0  0  0  0
    6.1870   -0.7730   -2.4500 C   0  0  0  0  0  0  0  0  0  0  0  0
    6.3460   -0.8330   -3.9160 C   0  0  0  0  0  0  0  0  0  0  0  0
    6.8540    0.1040   -1.6260 C   0  0  0  0  0  0  0  0  0  0  0  0
    7.8410    1.1360   -2.0550 C   0  0  0  0  0  0  0  0  0  0  0  0
    6.4500   -0.1490   -0.4060 O   0  0  0  0  0  0  0  0  0  0  0  0
   -4.2240    1.7840    1.6150 C   0  0  0  0  0  0  0  0  0  0  0  0
   -4.0540    2.4560    2.8980 C   0  0  0  0  0  0  0  0  0  0  0  0
   -4.9550    3.2550    3.2580 O   0  0  0  0  0  0  0  0  0  0  0  0
   -2.9400    2.2310    3.7060 O   0  0  0  0  0  0  0  0  0  0  0  0
   -2.8250    2.9110    4.9420 C   0  0  0  0  0  0  0  0  0  0  0  0
   -5.3270    2.0160    0.8290 C   0  0  0  0  0  0  0  0  0  0  0  0
   -5.4960    1.3780   -0.4000 C   0  0  0  0  0  0  0  0  0  0  0  0
   -6.6230    1.6750   -1.1040 O   0  0  0  0  0  0  0  0  0  0  0  0
  1  2  1  0
  2  3  1  0
  3  4  1  0
  4  5  2  0
  4  6  1  0
  6  7  2  0
  6 36  1  0
  7  8  1  0
  8  9  1  0
  8 30  2  0
  9 10  1  0
 10 11  1  1
 10 15  1  0
 11 12  1  0
 12 13  1  0
 13 14  1  0
 15 16  2  0
 15 17  1  0
 17 18  1  0
 18 19  1  0
 19 20  2  0
 19 21  1  0
 21 22  1  0
 22 23  1  0
 23 24  2  0
 23 29  1  0
 24 25  1  0
 25 26  1  0
 25 27  2  0
 27 28  1  0
 27 29  1  0
 30 31  1  0
 30 35  1  0
 31 32  2  0
 31 33  1  0
 33 34  1  0
 35 36  2  0
 36 37  1  0
M  END
