
     RDKit          3D

 37 38  0  0  0  0  0  0  0  0999 V2000
   -3.6500   -4.3560    0.7950 C   0  0  0  0  0  0  0  0  0  0  0  0
   -2.3080   -4.0590    1.3730 C   0  0  0  0  0  0  0  0  0  0  0  0
   -1.2570   -3.6430    0.3930 C   0  0  0  0  0  0  0  0  0  0  0  0
   -1.5480   -2.4010   -0.3740 C   0  0  0  0  0  0  0  0  0  0  0  0
   -1.7250   -1.2800    0.4980 O   0  0  0  0  0  0  0  0  0  0  0  0
   -1.9640   -0.0160   -0.0470 C   0  0  0  0  0  0  0  0  0  0  0  0
   -3.2510    0.3780   -0.2820 C   0  0  0  0  0  0  0  0  0  0  0  0
   -4.3520   -0.5210    0.0470 C   0  0  0  0  0  0  0  0  0  0  0  0
   -5.6070   -0.1980   -0.1580 C   0  0  0  0  0  0  0  0  0  0  0  0
   -6.7030   -1.1270    0.1840 C   0  0  0  0  0  0  0  0  0  0  0  0
   -6.4570   -2.2480    0.6790 O   0  0  0  0  0  0  0  0  0  0  0  0
   -8.0430   -0.8260   -0.0170 O   0  0  0  0  0  0  0  0  0  0  0  0
   -3.4650    1.6390   -0.8260 C   0  0  0  0  0  0  0  0  0  0  0  0
   -2.4040    2.4520   -1.1110 C   0  0  0  0  0  0  0  0  0  0  0  0
   -2.6540    3.7050   -1.6530 O   0  0  0  0  0  0  0  0  0  0  0  0
   -3.9060    4.2390   -1.9510 C   0  0  0  0  0  0  0  0  0  0  0  0
   -1.0760    2.0580   -0.8710 C   0  0  0  0  0  0  0  0  0  0  0  0
   -0.0940    2.9460   -1.1890 O   0  0  0  0  0  0  0  0  0  0  0  0
    0.3990    4.0230   -0.5150 C   0  0  0  0  0  0  0  0  0  0  0  0
    0.9660    3.8780    0.8230 C   0  0  0  0  0  0  0  0  0  0  0  0
    1.5240    5.0000    1.5350 N   0  0  0  0  0  0  0  0  0  0  0  0
    0.9990    2.7930    1.4160 O   0  0  0  0  0  0  0  0  0  0  0  0
   -0.8560    0.8170   -0.3380 C   0  0  0  0  0  0  0  0  0  0  0  0
    0.4020    0.2490   -0.0480 N   0  0  0  0  0  0  0  0  0  0  0  0
    1.5930    0.5030   -0.7590 C   0  0  0  0  0  0  0  0  0  0  0  0
    1.6460    1.2710   -1.7450 O   0  0  0  0  0  0  0  0  0  0  0  0
    2.8860   -0.1730   -0.3310 C   0  0  1  0  0  0  0  0  0  0  0  0
    3.2570    0.3060    1.0600 C   0  0  0  0  0  0  0  0  0  0  0  0
    4.5050   -0.2880    1.5780 C   0  0  0  0  0  0  0  0  0  0  0  0
    4.7370   -1.5260    1.6450 O   0  0  0  0  0  0  0  0  0  0  0  0
    5.5250    0.5510    2.0310 O   0  0  0  0  0  0  0  0  0  0  0  0
    6.7550    0.1020    2.5420 C   0  0  0  0  0  0  0  0  0  0  0  0
    2.7450   -1.6540   -0.4180 C   0  0  0  0  0  0  0  0  0  0  0  0
    3.6370   -2.2960   -1.4500 C   0  0  0  0  0  0  0  0  0  0  0  0
    4.9460   -1.9050   -1.3850 O   0  0  0  0  0  0  0  0  0  0  0  0
    5.1650   -0.5490   -1.3700 C   0  0  0  0  0  0  0  0  0  0  0  0
    3.9560    0.3120   -1.2680 C   0  0  0  0  0  0  0  0  0  0  0  0
  1  2  1  0
  2  3  1  0
  3  4  1  0
  4  5  1  0
  5  6  1  0
  6  7  2  0
  6 23  1  0
  7  8  1  0
  7 13  1  0
  8  9  2  3
  9 10  1  0
 10 11  2  0
 10 12  1  0
 13 14  2  0
 14 15  1  0
 14 17  1  0
 15 16  1  0
 17 18  1  0
 17 23  2  0
 18 19  1  0
 19 20  1  0
 20 21  1  0
 20 22  2  0
 23 24  1  0
 24 25  1  0
 25 26  2  0
 25 27  1  0
 27 28  1  1
 27 33  1  0
 27 37  1  0
 28 29  1  0
 29 30  2  0
 29 31  1  0
 31 32  1  0
 33 34  1  0
 34 35  1  0
 35 36  1  0
 36 37  1  0
M  END
