
     RDKit          3D

 21 20  0  0  0  0  0  0  0  0999 V2000
    5.4530   -2.4220   -1.2530 F   0  0  0  0  0  0  0  0  0  0  0  0
    6.7670   -1.3200   -1.3080 S   0  0  0  0  0  0  0  0  0  0  0  0
    6.6560   -0.2460    0.1270 C   0  0  1  0  0  0  0  0  0  0  0  0
    6.8600   -1.0390    1.2800 F   0  0  0  0  0  0  0  0  0  0  0  0
    7.6610    0.6800    0.1480 F   0  0  0  0  0  0  0  0  0  0  0  0
    5.3110    0.4300    0.2910 C   0  0  0  0  0  0  0  0  0  0  0  0
    3.9570   -0.7640    0.4600 S   0  0  0  0  0  0  0  0  0  0  0  0
    2.5080   -0.3750   -1.0440 S   0  0  0  0  0  0  0  0  0  0  0  0
    1.0170    0.9580   -0.2930 S   0  0  0  0  0  0  0  0  0  0  0  0
   -0.5880   -0.0500    0.6220 S   0  0  0  0  0  0  0  0  0  0  0  0
   -2.1320   -0.5510   -0.7510 S   0  0  0  0  0  0  0  0  0  0  0  0
   -3.5560    0.9540   -0.9510 S   0  0  0  0  0  0  0  0  0  0  0  0
   -4.9740    0.8550    0.1150 C   0  0  1  0  0  0  0  0  0  0  0  0
   -4.5990    0.9430    1.4290 F   0  0  0  0  0  0  0  0  0  0  0  0
   -6.0590    2.3050   -0.2950 S   0  0  0  0  0  0  0  0  0  0  0  0
   -5.2950    3.7560    0.1210 F   0  0  0  0  0  0  0  0  0  0  0  0
   -5.7460   -0.3980   -0.2110 C   0  0  2  0  0  0  0  0  0  0  0  0
   -6.1070   -0.3550   -1.5520 F   0  0  0  0  0  0  0  0  0  0  0  0
   -6.9430   -0.3340    0.5460 F   0  0  0  0  0  0  0  0  0  0  0  0
   -4.8250   -1.8870    0.2340 S   0  0  0  0  0  0  0  0  0  0  0  0
   -5.7830   -3.2410   -0.1840 F   0  0  0  0  0  0  0  0  0  0  0  0
  1  2  1  0
  2  3  1  0
  3  4  1  1
  3  5  1  0
  3  6  1  0
  6  7  1  0
  7  8  1  0
  8  9  1  0
  9 10  1  0
 10 11  1  0
 11 12  1  0
 12 13  1  0
 13 14  1  1
 13 15  1  0
 13 17  1  0
 15 16  1  0
 17 18  1  6
 17 19  1  0
 17 20  1  0
 20 21  1  0
M  END
