
     RDKit          3D

 21 23  0  0  0  0  0  0  0  0999 V2000
    4.3000   -1.7980   -0.7090 C   0  0  0  0  0  0  0  0  0  0  0  0
    3.2260   -0.9380   -1.4050 C   0  0  0  0  0  0  0  0  0  0  0  0
    2.9990    0.2420   -0.6310 N   0  0  0  0  0  0  0  0  0  0  0  0
    4.0060    1.3130   -0.4740 C   0  0  0  0  0  0  0  0  0  0  0  0
    3.8120    1.5890    1.0080 C   0  0  0  0  0  0  0  0  0  0  0  0
    2.3060    1.4390    1.0960 C   0  0  0  0  0  0  0  0  0  0  0  0
    1.8610    0.6550    0.1350 C   0  0  0  0  0  0  0  0  0  0  0  0
    0.5280    0.2030   -0.2060 C   0  0  0  0  0  0  0  0  0  0  0  0
    0.3240   -0.5780   -1.2350 N   0  0  0  0  0  0  0  0  0  0  0  0
   -0.9200   -1.0680   -1.6450 C   0  0  0  0  0  0  0  0  0  0  0  0
   -2.0450   -0.7900   -1.0270 C   0  0  0  0  0  0  0  0  0  0  0  0
   -3.3850   -1.2860   -1.4260 C   0  0  0  0  0  0  0  0  0  0  0  0
   -4.1990   -1.3730   -0.2270 N   0  0  0  0  0  0  0  0  0  0  0  0
   -4.2870   -0.0830    0.4170 C   0  0  1  0  0  0  0  0  0  0  0  0
   -4.8960    0.7660   -0.5380 O   0  0  0  0  0  0  0  0  0  0  0  0
   -5.4230   -0.1230    1.8100 S   0  0  0  0  0  0  0  0  0  0  0  0
   -4.7090   -0.5660    3.0880 O   0  0  0  0  0  0  0  0  0  0  0  0
   -2.9890    0.3900    0.7930 N   0  0  0  0  0  0  0  0  0  0  0  0
   -1.9460    0.0720    0.1360 C   0  0  0  0  0  0  0  0  0  0  0  0
   -0.6290    0.5510    0.5150 N   0  0  0  0  0  0  0  0  0  0  0  0
   -0.6170    1.4000    1.6790 C   0  0  0  0  0  0  0  0  0  0  0  0
  1  2  1  0
  2  3  1  0
  3  4  1  0
  3  7  1  0
  4  5  1  0
  5  6  1  0
  6  7  2  0
  7  8  1  0
  8  9  2  0
  8 20  1  0
  9 10  1  0
 10 11  2  0
 11 12  1  0
 11 19  1  0
 12 13  1  0
 13 14  1  0
 14 15  1  6
 14 16  1  0
 14 18  1  0
 16 17  2  0
 18 19  2  0
 19 20  1  0
 20 21  1  0
M  END
