
     RDKit          3D

 17 18  0  0  0  0  0  0  0  0999 V2000
    1.9640    1.9390    3.5170 C   0  0  0  0  0  0  0  0  0  0  0  0
    2.0320    0.1430    3.6900 S   0  0  0  0  0  0  0  0  0  0  0  0
    1.2480   -0.6580    2.2750 C   0  0  0  0  0  0  0  0  0  0  0  0
    0.7360    0.0640    1.3200 C   0  0  0  0  0  0  0  0  0  0  0  0
    0.0700   -0.5520    0.1160 C   0  0  0  0  0  0  0  0  0  0  0  0
   -0.4090    0.2370   -0.7810 C   0  0  0  0  0  0  0  0  0  0  0  0
   -1.0900    0.2360   -2.0290 C   0  0  0  0  0  0  0  0  0  0  0  0
   -1.4050    1.4340   -2.6380 C   0  0  0  0  0  0  0  0  0  0  0  0
   -2.0990    1.1880   -3.9020 C   0  0  0  0  0  0  0  0  0  0  0  0
   -2.2080   -0.1620   -4.0650 O   0  0  0  0  0  0  0  0  0  0  0  0
   -1.5910   -0.7620   -2.9180 C   0  0  0  0  0  0  0  0  0  0  0  0
   -1.5660   -2.0120   -2.8400 O   0  0  0  0  0  0  0  0  0  0  0  0
    0.0280   -1.9950    0.0780 C   0  0  0  0  0  0  0  0  0  0  0  0
   -0.4720   -2.6610   -0.8200 O   0  0  0  0  0  0  0  0  0  0  0  0
    0.6060   -2.7660    1.1570 N   0  0  0  0  0  0  0  0  0  0  0  0
    1.2040   -2.1050    2.2350 C   0  0  0  0  0  0  0  0  0  0  0  0
    1.7290   -2.7510    3.2140 O   0  0  0  0  0  0  0  0  0  0  0  0
  1  2  1  0
  2  3  1  0
  3  4  2  0
  3 16  1  0
  4  5  1  0
  5  6  2  3
  5 13  1  0
  6  7  1  0
  7  8  2  0
  7 11  1  0
  8  9  1  0
  9 10  1  0
 10 11  1  0
 11 12  2  0
 13 14  2  0
 13 15  1  0
 15 16  1  0
 16 17  2  0
M  END
