
     RDKit          3D

 17 18  0  0  0  0  0  0  0  0999 V2000
    4.0280   -0.5030   -1.5060 O   0  0  0  0  0  0  0  0  0  0  0  0
    4.4910   -0.4810   -0.3230 C   0  0  0  0  0  0  0  0  0  0  0  0
    5.8250   -0.3860    0.0340 O   0  0  0  0  0  0  0  0  0  0  0  0
    5.9220   -0.3920    1.4170 C   0  0  0  0  0  0  0  0  0  0  0  0
    4.5220   -0.5010    1.8820 C   0  0  0  0  0  0  0  0  0  0  0  0
    3.6680   -0.5540    0.8750 C   0  0  0  0  0  0  0  0  0  0  0  0
    1.8870   -0.6870    0.9170 S   0  0  0  0  0  0  0  0  0  0  0  0
    1.2500   -0.7120   -0.7760 C   0  0  0  0  0  0  0  0  0  0  0  0
   -0.2370   -0.8190   -0.8500 C   0  0  2  0  0  0  0  0  0  0  0  0
   -0.5660   -0.8280   -2.2230 O   0  0  0  0  0  0  0  0  0  0  0  0
   -0.8150    0.4410   -0.1950 C   0  0  0  0  0  0  0  0  0  0  0  0
   -2.2270    0.3910   -0.3780 N   0  0  0  0  0  0  0  0  0  0  0  0
   -2.8790   -0.6430    0.3580 C   0  0  0  0  0  0  0  0  0  0  0  0
   -3.8220   -0.0290    1.3530 C   0  0  0  0  0  0  0  0  0  0  0  0
   -4.7650    0.7720    0.7600 O   0  0  0  0  0  0  0  0  0  0  0  0
   -4.4060    1.3200   -0.4480 C   0  0  0  0  0  0  0  0  0  0  0  0
   -2.9090    1.6400   -0.4280 C   0  0  0  0  0  0  0  0  0  0  0  0
  1  2  2  0
  2  3  1  0
  2  6  1  0
  3  4  1  0
  4  5  1  0
  5  6  2  0
  6  7  1  0
  7  8  1  0
  8  9  1  0
  9 10  1  6
  9 11  1  0
 11 12  1  0
 12 13  1  0
 12 17  1  0
 13 14  1  0
 14 15  1  0
 15 16  1  0
 16 17  1  0
M  END
