
     RDKit          3D

 17 18  0  0  0  0  0  0  0  0999 V2000
   -2.0110    2.4070    0.6050 C   0  0  0  0  0  0  0  0  0  0  0  0
   -2.4240    1.2050    0.2540 C   0  0  0  0  0  0  0  0  0  0  0  0
   -3.7710    0.7760    0.7220 C   0  0  0  0  0  0  0  0  0  0  0  0
   -4.1570   -0.4030    0.1140 O   0  0  0  0  0  0  0  0  0  0  0  0
   -3.1530   -1.3660    0.1620 C   0  0  0  0  0  0  0  0  0  0  0  0
   -1.9600   -0.9570   -0.6090 C   0  0  0  0  0  0  0  0  0  0  0  0
   -1.5960    0.3120   -0.5660 C   0  0  0  0  0  0  0  0  0  0  0  0
   -0.5030    0.8280   -1.2380 O   0  0  0  0  0  0  0  0  0  0  0  0
    0.8200    0.3190   -1.0270 C   0  0  0  0  0  0  0  0  0  0  0  0
    1.1860    0.4980    0.4280 C   0  0  0  0  0  0  0  0  0  0  0  0
    2.5430    0.0040    0.7630 C   0  0  2  0  0  0  0  0  0  0  0  0
    3.8400    0.8800   -0.2050 S   0  0  0  0  0  0  0  0  0  0  0  0
    4.8600   -0.5480   -0.5060 C   0  0  0  0  0  0  0  0  0  0  0  0
    5.9470   -0.5660   -1.0910 O   0  0  0  0  0  0  0  0  0  0  0  0
    4.1670   -1.6350    0.0620 N   0  0  0  0  0  0  0  0  0  0  0  0
    2.8110   -1.3760    0.3250 C   0  0  0  0  0  0  0  0  0  0  0  0
    1.8600   -2.2260    0.2110 O   0  0  0  0  0  0  0  0  0  0  0  0
  1  2  2  0
  2  3  1  0
  2  7  1  0
  3  4  1  0
  4  5  1  0
  5  6  1  0
  6  7  2  0
  7  8  1  0
  8  9  1  0
  9 10  1  0
 11 10  1  6
 11 12  1  0
 11 16  1  0
 12 13  1  0
 13 14  2  0
 13 15  1  0
 15 16  1  0
 16 17  2  0
M  END
