
     RDKit          3D

 21 23  0  0  0  0  0  0  0  0999 V2000
    2.4170   -3.4140   -1.1630 C   0  0  0  0  0  0  0  0  0  0  0  0
    1.3230   -2.3390   -1.1470 C   0  0  1  0  0  0  0  0  0  0  0  0
    0.7820   -2.2960   -2.4410 O   0  0  0  0  0  0  0  0  0  0  0  0
    0.2810   -2.8070   -0.1860 C   0  0  0  0  0  0  0  0  0  0  0  0
   -0.9400   -1.8950   -0.4090 C   0  0  0  0  0  0  0  0  0  0  0  0
   -0.5780   -0.5690    0.0930 C   0  0  0  0  0  0  0  0  0  0  0  0
   -1.4920    0.2230    0.6580 C   0  0  0  0  0  0  0  0  0  0  0  0
   -2.9090   -0.1620    0.8210 C   0  0  1  0  0  0  0  0  0  0  0  0
   -3.2860   -0.0180    2.1810 O   0  0  0  0  0  0  0  0  0  0  0  0
   -3.8270    0.7990    0.0740 C   0  0  2  0  0  0  0  0  0  0  0  0
   -5.3000    0.4830    0.1830 C   0  0  0  0  0  0  0  0  0  0  0  0
   -4.6520    0.2000   -1.0980 C   0  0  0  0  0  0  0  0  0  0  0  0
   -1.1250    1.5630    1.1660 C   0  0  0  0  0  0  0  0  0  0  0  0
    0.2810    1.9680    1.0170 C   0  0  0  0  0  0  0  0  0  0  0  0
    1.2030    1.0160    0.3760 C   0  0  0  0  0  0  0  0  0  0  0  0
    2.5890    1.4130    0.2240 C   0  0  0  0  0  0  0  0  0  0  0  0
    2.9810    2.5900    0.6540 C   0  0  0  0  0  0  0  0  0  0  0  0
    4.3940    3.0620    0.5290 C   0  0  0  0  0  0  0  0  0  0  0  0
    5.2130    2.1370   -0.0750 O   0  0  0  0  0  0  0  0  0  0  0  0
    0.8130   -0.1490   -0.0490 C   0  0  0  0  0  0  0  0  0  0  0  0
    1.8420   -1.0250   -0.6890 C   0  0  0  0  0  0  0  0  0  0  0  0
  2  1  1  6
  2  3  1  0
  2  4  1  0
  2 21  1  0
  4  5  1  0
  5  6  1  0
  6  7  2  0
  6 20  1  0
  7  8  1  0
  7 13  1  0
  8  9  1  1
  8 10  1  0
 10 11  1  1
 10 12  1  0
 11 12  1  0
 13 14  1  0
 14 15  1  0
 15 16  1  0
 15 20  2  0
 16 17  2  3
 17 18  1  0
 18 19  1  0
 20 21  1  0
M  END
