
     RDKit          3D

 21 24  0  0  0  0  0  0  0  0999 V2000
    0.6310    3.9060   -0.3900 C   0  0  0  0  0  0  0  0  0  0  0  0
    1.3660    2.6550   -0.0610 C   0  0  0  0  0  0  0  0  0  0  0  0
    2.6020    2.6970    0.5740 C   0  0  0  0  0  0  0  0  0  0  0  0
    3.2880    1.5150    0.8800 C   0  0  0  0  0  0  0  0  0  0  0  0
    2.7090    0.3000    0.5370 C   0  0  0  0  0  0  0  0  0  0  0  0
    1.5080    0.3460   -0.0780 C   0  0  0  0  0  0  0  0  0  0  0  0
    0.7720    1.4400   -0.4120 C   0  0  0  0  0  0  0  0  0  0  0  0
   -0.4050    1.0250   -1.0280 O   0  0  0  0  0  0  0  0  0  0  0  0
   -0.6460   -0.3100   -0.5000 C   0  0  1  0  0  0  0  0  0  0  0  0
   -1.2140   -0.0910    0.8590 C   0  0  0  0  0  0  0  0  0  0  0  0
   -2.1910    1.0670    0.7720 C   0  0  0  0  0  0  0  0  0  0  0  0
   -3.6150    0.5760    0.6220 C   0  0  0  0  0  0  0  0  0  0  0  0
   -3.7740   -0.0880   -0.7240 C   0  0  0  0  0  0  0  0  0  0  0  0
   -2.9170   -1.3080   -0.8820 C   0  0  0  0  0  0  0  0  0  0  0  0
   -1.5580   -1.0140   -1.4470 C   0  0  0  0  0  0  0  0  0  0  0  0
    0.7370   -0.8460   -0.5240 C   0  0  1  0  0  0  0  0  0  0  0  0
    1.1040   -1.1050   -1.8420 O   0  0  0  0  0  0  0  0  0  0  0  0
    1.0660   -1.9860    0.4030 C   0  0  0  0  0  0  0  0  0  0  0  0
    2.5970   -2.0900    0.3470 C   0  0  2  0  0  0  0  0  0  0  0  0
    3.0810   -3.3470    1.0160 C   0  0  0  0  0  0  0  0  0  0  0  0
    3.2720   -0.9410    0.7840 O   0  0  0  0  0  0  0  0  0  0  0  0
  1  2  1  0
  2  3  2  0
  2  7  1  0
  3  4  1  0
  4  5  2  0
  5  6  1  0
  5 21  1  0
  6  7  2  0
  6 16  1  0
  7  8  1  0
  8  9  1  0
  9 10  1  1
  9 15  1  0
  9 16  1  0
 10 11  1  0
 11 12  1  0
 12 13  1  0
 13 14  1  0
 14 15  1  0
 16 17  1  6
 16 18  1  0
 18 19  1  0
 19 20  1  1
 19 21  1  0
M  END
