
     RDKit          3D

 21 24  0  0  0  0  0  0  0  0999 V2000
    2.1440    2.5390    1.0370 C   0  0  0  0  0  0  0  0  0  0  0  0
    1.7300    1.2850    0.8260 C   0  0  0  0  0  0  0  0  0  0  0  0
    2.5370    0.2830    0.1720 C   0  0  0  0  0  0  0  0  0  0  0  0
    2.0860   -1.0840   -0.0290 C   0  0  0  0  0  0  0  0  0  0  0  0
    0.9070   -1.3050   -0.8980 C   0  0  1  0  0  0  0  0  0  0  0  0
    0.5690   -2.7960   -0.9950 C   0  0  0  0  0  0  0  0  0  0  0  0
    0.4320   -3.3480    0.3790 C   0  0  0  0  0  0  0  0  0  0  0  0
   -0.4500   -2.5410    1.2500 C   0  0  0  0  0  0  0  0  0  0  0  0
   -1.0000   -1.3190    0.6110 C   0  0  0  0  0  0  0  0  0  0  0  0
   -2.1840   -0.7750    1.0430 C   0  0  0  0  0  0  0  0  0  0  0  0
   -2.7050    0.3610    0.4430 C   0  0  0  0  0  0  0  0  0  0  0  0
   -2.0770    1.0010   -0.6060 C   0  0  0  0  0  0  0  0  0  0  0  0
   -0.8810    0.4430   -1.0340 C   0  0  0  0  0  0  0  0  0  0  0  0
   -0.3570   -0.6850   -0.4430 C   0  0  0  0  0  0  0  0  0  0  0  0
   -2.6170    2.1380   -1.1920 O   0  0  0  0  0  0  0  0  0  0  0  0
   -4.0080    2.3670   -0.9970 C   0  0  0  0  0  0  0  0  0  0  0  0
   -4.2640    2.2140    0.4940 C   0  0  0  0  0  0  0  0  0  0  0  0
   -3.9030    0.9100    0.8820 O   0  0  0  0  0  0  0  0  0  0  0  0
    3.7460    0.6480   -0.2260 C   0  0  0  0  0  0  0  0  0  0  0  0
    4.2770    2.0160   -0.0270 C   0  0  0  0  0  0  0  0  0  0  0  0
    3.3950    2.8900    0.6130 O   0  0  0  0  0  0  0  0  0  0  0  0
  1  2  2  0
  1 21  1  0
  2  3  1  0
  3  4  1  0
  3 19  2  0
  5  4  1  1
  5  6  1  0
  5 14  1  0
  6  7  1  0
  7  8  1  0
  8  9  1  0
  9 10  2  0
  9 14  1  0
 10 11  1  0
 11 12  2  0
 11 18  1  0
 12 13  1  0
 12 15  1  0
 13 14  2  0
 15 16  1  0
 16 17  1  0
 17 18  1  0
 19 20  1  0
 20 21  1  0
M  END
