
     RDKit          3D

 14 15  0  0  0  0  0  0  0  0999 V2000
   -3.2000   -2.1470    0.5240 O   0  0  0  0  0  0  0  0  0  0  0  0
   -2.7430   -0.9960    0.2010 C   0  0  0  0  0  0  0  0  0  0  0  0
   -3.3620   -0.0260   -0.5890 N   0  0  0  0  0  0  0  0  0  0  0  0
   -3.2330    1.2980   -0.0930 C   0  0  0  0  0  0  0  0  0  0  0  0
   -4.1470    2.6220   -0.3900 S   0  0  0  0  0  0  0  0  0  0  0  0
   -1.7760    1.2160    0.9840 S   0  0  0  0  0  0  0  0  0  0  0  0
   -1.4040   -0.5610    0.6810 C   0  0  2  0  0  0  0  0  0  0  0  0
   -0.4580   -0.6440   -0.4780 C   0  0  0  0  0  0  0  0  0  0  0  0
    0.9240   -0.2350   -0.1350 C   0  0  0  0  0  0  0  0  0  0  0  0
    1.2820    1.0880   -0.2770 C   0  0  0  0  0  0  0  0  0  0  0  0
    2.5910    1.4540    0.0520 C   0  0  0  0  0  0  0  0  0  0  0  0
    3.5010    0.5110    0.5080 C   0  0  0  0  0  0  0  0  0  0  0  0
    3.1350   -0.8070    0.6470 C   0  0  0  0  0  0  0  0  0  0  0  0
    1.8360   -1.1640    0.3200 C   0  0  0  0  0  0  0  0  0  0  0  0
  1  2  2  0
  2  3  1  0
  2  7  1  0
  3  4  1  0
  4  5  2  0
  4  6  1  0
  6  7  1  0
  7  8  1  6
  8  9  1  0
  9 10  2  0
  9 14  1  0
 10 11  1  0
 11 12  2  0
 12 13  1  0
 13 14  2  0
M  END
