
     RDKit          3D

 21 23  0  0  0  0  0  0  0  0999 V2000
   -1.1740   -1.6060    2.1040 C   0  0  0  0  0  0  0  0  0  0  0  0
   -2.0590   -0.9830    1.0470 C   0  0  0  0  0  0  0  0  0  0  0  0
   -1.5940    0.0280    0.3650 C   0  0  0  0  0  0  0  0  0  0  0  0
   -0.2290    0.5720    0.5890 C   0  0  0  0  0  0  0  0  0  0  0  0
   -0.1040    1.8670    0.9960 C   0  0  0  0  0  0  0  0  0  0  0  0
   -1.1820    2.5910    1.4520 O   0  0  0  0  0  0  0  0  0  0  0  0
    1.1760    2.4580    0.9530 C   0  0  0  0  0  0  0  0  0  0  0  0
    2.2570    1.6910    0.5050 C   0  0  0  0  0  0  0  0  0  0  0  0
    2.1360    0.3840    0.1060 C   0  0  0  0  0  0  0  0  0  0  0  0
    3.2870   -0.4540   -0.2090 C   0  0  1  0  0  0  0  0  0  0  0  0
    3.8060   -0.2860   -1.6340 C   0  0  0  0  0  0  0  0  0  0  0  0
    5.3100   -0.5420   -1.3630 C   0  0  0  0  0  0  0  0  0  0  0  0
    5.3940    0.4560   -0.1860 C   0  0  0  0  0  0  0  0  0  0  0  0
    4.3320    0.0880    0.6310 O   0  0  0  0  0  0  0  0  0  0  0  0
    0.8540   -0.1760    0.1530 C   0  0  0  0  0  0  0  0  0  0  0  0
    0.7640   -1.4630   -0.2590 O   0  0  0  0  0  0  0  0  0  0  0  0
   -2.3720    0.7060   -0.7440 C   0  0  0  0  0  0  0  0  0  0  0  0
   -3.4430   -0.2470   -1.2210 C   0  0  2  0  0  0  0  0  0  0  0  0
   -4.3240    0.4360   -2.2530 C   0  0  0  0  0  0  0  0  0  0  0  0
   -4.2510   -0.6110    0.0150 C   0  0  0  0  0  0  0  0  0  0  0  0
   -3.4100   -1.6190    0.7900 C   0  0  0  0  0  0  0  0  0  0  0  0
  1  2  1  0
  2  3  2  0
  2 21  1  0
  3  4  1  0
  3 17  1  0
  4  5  2  0
  4 15  1  0
  5  6  1  0
  5  7  1  0
  7  8  2  0
  8  9  1  0
 10  9  1  6
  9 15  2  0
 10 11  1  0
 10 14  1  0
 11 12  1  0
 12 13  1  0
 13 14  1  0
 15 16  1  0
 17 18  1  0
 18 19  1  6
 18 20  1  0
 20 21  1  0
M  END
