
     RDKit          3D

 21 24  0  0  0  0  0  0  0  0999 V2000
   -3.7250    2.2100   -0.3970 C   0  0  0  0  0  0  0  0  0  0  0  0
   -3.1780    0.8150   -0.3830 C   0  0  2  0  0  0  0  0  0  0  0  0
   -3.0950    0.1760   -1.7310 C   0  0  0  0  0  0  0  0  0  0  0  0
   -4.0550   -0.0560    0.5140 C   0  0  0  0  0  0  0  0  0  0  0  0
   -3.5800   -1.3760    0.5100 O   0  0  0  0  0  0  0  0  0  0  0  0
   -2.1950   -1.5980    0.4660 C   0  0  0  0  0  0  0  0  0  0  0  0
   -1.6920   -2.8980    0.5540 C   0  0  0  0  0  0  0  0  0  0  0  0
   -0.3330   -3.1170    0.5120 C   0  0  0  0  0  0  0  0  0  0  0  0
    0.5600   -2.0670    0.3820 C   0  0  0  0  0  0  0  0  0  0  0  0
    0.0540   -0.8000    0.2960 C   0  0  0  0  0  0  0  0  0  0  0  0
   -1.3150   -0.5470    0.3360 C   0  0  0  0  0  0  0  0  0  0  0  0
   -1.7960    0.8610    0.2340 C   0  0  0  0  0  0  0  0  0  0  0  0
    0.9400    0.3520    0.1600 C   0  0  1  0  0  0  0  0  0  0  0  0
    0.5620    1.3670    1.0440 O   0  0  0  0  0  0  0  0  0  0  0  0
    2.3940    0.0720    0.4490 C   0  0  2  0  0  0  0  0  0  0  0  0
    3.1740    1.2280   -0.0860 C   0  0  2  0  0  0  0  0  0  0  0  0
    2.8800    2.5100    0.4550 O   0  0  0  0  0  0  0  0  0  0  0  0
    3.7960    1.2730   -1.4090 C   0  0  0  0  0  0  0  0  0  0  0  0
    4.6680    1.0190   -0.2340 C   0  0  0  0  0  0  0  0  0  0  0  0
    2.8580   -1.2320   -0.1050 C   0  0  0  0  0  0  0  0  0  0  0  0
    1.9980   -2.3910    0.3420 C   0  0  0  0  0  0  0  0  0  0  0  0
  2  1  1  6
  2  3  1  0
  2  4  1  0
  2 12  1  0
  4  5  1  0
  5  6  1  0
  6  7  2  0
  6 11  1  0
  7  8  1  0
  8  9  2  0
  9 10  1  0
  9 21  1  0
 10 11  2  0
 10 13  1  0
 11 12  1  0
 13 14  1  1
 13 15  1  0
 15 16  1  0
 15 20  1  6
 16 17  1  1
 16 18  1  0
 16 19  1  0
 18 19  1  0
 20 21  1  0
M  END
