
     RDKit          3D

 17 18  0  0  0  0  0  0  0  0999 V2000
    3.5870   -1.5700   -0.8160 C   0  0  0  0  0  0  0  0  0  0  0  0
    2.3200   -0.7650   -0.7160 C   0  0  1  0  0  0  0  0  0  0  0  0
    1.8210   -0.5980   -2.0090 O   0  0  0  0  0  0  0  0  0  0  0  0
    1.2980   -1.4170    0.1910 C   0  0  0  0  0  0  0  0  0  0  0  0
    0.0580   -1.5390   -0.5450 N   0  0  0  0  0  0  0  0  0  0  0  0
   -1.0590   -1.3240    0.3460 C   0  0  2  0  0  0  0  0  0  0  0  0
   -2.1770   -2.3290    0.1140 C   0  0  0  0  0  0  0  0  0  0  0  0
   -3.4680   -1.5890    0.4350 C   0  0  0  0  0  0  0  0  0  0  0  0
   -3.0170   -0.2130    0.9450 C   0  0  0  0  0  0  0  0  0  0  0  0
   -1.7680   -0.0360    0.0960 C   0  0  1  0  0  0  0  0  0  0  0  0
   -1.0450    1.0900    0.4430 O   0  0  0  0  0  0  0  0  0  0  0  0
   -1.4900    2.1230   -0.3780 C   0  0  0  0  0  0  0  0  0  0  0  0
   -0.7420    3.3910   -0.1670 C   0  0  0  0  0  0  0  0  0  0  0  0
    0.5020    3.4810    0.2740 C   0  0  0  0  0  0  0  0  0  0  0  0
    1.3570    2.3200    0.6300 C   0  0  0  0  0  0  0  0  0  0  0  0
    1.4320    1.3830   -0.3940 O   0  0  0  0  0  0  0  0  0  0  0  0
    2.5790    0.6250   -0.1560 C   0  0  0  0  0  0  0  0  0  0  0  0
  2  1  1  6
  2  3  1  0
  2  4  1  0
  2 17  1  0
  4  5  1  0
  5  6  1  0
  6  7  1  6
  6 10  1  0
  7  8  1  0
  8  9  1  0
 10  9  1  1
 10 11  1  0
 11 12  1  0
 12 13  1  0
 13 14  2  0
 14 15  1  0
 15 16  1  0
 16 17  1  0
M  CHG  1   5   1
M  END
