
     RDKit          3D

 17 18  0  0  0  0  0  0  0  0999 V2000
    1.1790   -1.4750   -1.3890 C   0  0  0  0  0  0  0  0  0  0  0  0
    1.0690   -0.6060   -0.1770 C   0  0  2  0  0  0  0  0  0  0  0  0
    0.0820    0.4420   -0.3020 N   0  0  0  0  0  0  0  0  0  0  0  0
   -1.2500   -0.1170   -0.5680 C   0  0  1  0  0  0  0  0  0  0  0  0
   -1.8180   -0.5240    0.7420 C   0  0  0  0  0  0  0  0  0  0  0  0
   -3.2490   -0.9570    0.6950 C   0  0  0  0  0  0  0  0  0  0  0  0
   -4.2190    0.1230    0.3860 C   0  0  0  0  0  0  0  0  0  0  0  0
   -3.5360    1.4830    0.2880 C   0  0  0  0  0  0  0  0  0  0  0  0
   -2.9380    1.6260   -0.8850 O   0  0  0  0  0  0  0  0  0  0  0  0
   -2.0520    0.7990   -1.3990 C   0  0  0  0  0  0  0  0  0  0  0  0
    2.3680   -0.0290    0.1400 C   0  0  0  0  0  0  0  0  0  0  0  0
    2.6090    1.2690    0.1760 C   0  0  0  0  0  0  0  0  0  0  0  0
    3.9210    1.8510    0.4950 C   0  0  0  0  0  0  0  0  0  0  0  0
    4.9050    0.8880    0.7620 O   0  0  0  0  0  0  0  0  0  0  0  0
    4.6940   -0.4620    0.7350 C   0  0  0  0  0  0  0  0  0  0  0  0
    3.4860   -0.9170    0.4400 C   0  0  0  0  0  0  0  0  0  0  0  0
    3.2780   -2.2860    0.4140 O   0  0  0  0  0  0  0  0  0  0  0  0
  2  1  1  6
  2  3  1  0
  2 11  1  0
  4  3  1  1
  4  5  1  0
  4 10  1  0
  5  6  1  0
  6  7  1  0
  7  8  1  0
  8  9  1  0
  9 10  1  0
 11 12  2  0
 11 16  1  0
 12 13  1  0
 13 14  1  0
 14 15  1  0
 15 16  2  0
 16 17  1  0
M  CHG  1   3   1
M  END
