
     RDKit          3D

 17 18  0  0  0  0  0  0  0  0999 V2000
    2.4440   -0.5250    1.5910 C   0  0  0  0  0  0  0  0  0  0  0  0
    1.5690   -0.2000    0.3610 C   0  0  2  0  0  0  0  0  0  0  0  0
    0.2060   -0.0770    0.8000 C   0  0  1  0  0  0  0  0  0  0  0  0
    0.1600    0.8840    1.9090 N   0  0  0  0  0  0  0  0  0  0  0  0
   -0.9180    0.2440   -0.0990 C   0  0  1  0  0  0  0  0  0  0  0  0
   -0.7890    1.5610   -0.8180 C   0  0  0  0  0  0  0  0  0  0  0  0
   -1.9130    1.8910   -1.7280 C   0  0  0  0  0  0  0  0  0  0  0  0
   -3.1580    1.9740   -1.1120 O   0  0  0  0  0  0  0  0  0  0  0  0
   -1.3200   -0.8440   -1.0710 C   0  0  0  0  0  0  0  0  0  0  0  0
   -1.7950   -2.0920   -0.3410 C   0  0  0  0  0  0  0  0  0  0  0  0
   -3.0650   -1.7350    0.3720 C   0  0  0  0  0  0  0  0  0  0  0  0
   -3.2380   -0.3620    0.3450 O   0  0  0  0  0  0  0  0  0  0  0  0
   -2.1520    0.3360    0.8310 C   0  0  0  0  0  0  0  0  0  0  0  0
    2.0300   -1.0830   -0.7060 C   0  0  0  0  0  0  0  0  0  0  0  0
    3.5210   -0.6650   -0.7690 C   0  0  0  0  0  0  0  0  0  0  0  0
    3.3810    0.8100   -0.4910 C   0  0  0  0  0  0  0  0  0  0  0  0
    2.0840    1.0480   -0.0820 O   0  0  0  0  0  0  0  0  0  0  0  0
  2  1  1  1
  2  3  1  0
  2 14  1  0
  2 17  1  0
  3  4  1  1
  3  5  1  0
  5  6  1  6
  5  9  1  0
  5 13  1  0
  6  7  1  0
  7  8  1  0
  9 10  1  0
 10 11  1  0
 11 12  1  0
 12 13  1  0
 14 15  1  0
 15 16  1  0
 16 17  1  0
M  CHG  1   4   1
M  END
