
     RDKit          3D

 18 19  0  0  0  0  0  0  0  0999 V2000
   -4.4300   -2.1160    0.3260 C   0  0  0  0  0  0  0  0  0  0  0  0
   -3.8300   -0.8550    0.3560 O   0  0  0  0  0  0  0  0  0  0  0  0
   -2.5040   -0.6010    0.0760 C   0  0  0  0  0  0  0  0  0  0  0  0
   -1.6130   -1.5960   -0.2700 C   0  0  0  0  0  0  0  0  0  0  0  0
   -0.3030   -1.2740   -0.5370 C   0  0  0  0  0  0  0  0  0  0  0  0
    0.1510    0.0260   -0.4670 C   0  0  0  0  0  0  0  0  0  0  0  0
    1.5690    0.3110   -0.7660 C   0  0  0  0  0  0  0  0  0  0  0  0
    2.3460    0.5640    0.5170 C   0  0  1  0  0  0  0  0  0  0  0  0
    2.2590   -0.9220    1.6060 S   0  0  0  0  0  0  0  0  0  0  0  0
    3.8100   -1.6360    1.0990 C   0  0  0  0  0  0  0  0  0  0  0  0
    4.4320   -3.0230    1.6190 S   0  0  0  0  0  0  0  0  0  0  0  0
    4.3530   -0.7360    0.1640 N   0  0  0  0  0  0  0  0  0  0  0  0
    3.8100    0.5650    0.2400 C   0  0  0  0  0  0  0  0  0  0  0  0
    4.4200    1.6840    0.1020 O   0  0  0  0  0  0  0  0  0  0  0  0
   -0.7160    1.0420   -0.1230 C   0  0  0  0  0  0  0  0  0  0  0  0
   -0.2300    2.3170   -0.0650 O   0  0  0  0  0  0  0  0  0  0  0  0
   -0.9200    3.4800    0.2570 C   0  0  0  0  0  0  0  0  0  0  0  0
   -2.0410    0.6940    0.1430 C   0  0  0  0  0  0  0  0  0  0  0  0
  1  2  1  0
  2  3  1  0
  3  4  2  0
  3 18  1  0
  4  5  1  0
  5  6  2  0
  6  7  1  0
  6 15  1  0
  8  7  1  6
  8  9  1  0
  8 13  1  0
  9 10  1  0
 10 11  2  0
 10 12  1  0
 12 13  1  0
 13 14  2  0
 15 16  1  0
 15 18  2  0
 16 17  1  0
M  END
