
     RDKit          3D

 17 18  0  0  0  0  0  0  0  0999 V2000
   -4.0750    1.8760   -0.2830 C   0  0  0  0  0  0  0  0  0  0  0  0
   -2.6630    1.3380   -0.3020 C   0  0  0  0  0  0  0  0  0  0  0  0
   -2.6360    0.0240    0.2620 N   0  0  1  0  0  0  0  0  0  0  0  0
   -3.6190   -0.8680   -0.3360 C   0  0  0  0  0  0  0  0  0  0  0  0
   -3.0920   -2.2300    0.0950 C   0  0  0  0  0  0  0  0  0  0  0  0
   -1.6230   -2.0170    0.4230 C   0  0  0  0  0  0  0  0  0  0  0  0
   -1.4010   -0.6440   -0.1120 C   0  0  2  0  0  0  0  0  0  0  0  0
   -0.2030    0.0630    0.4130 C   0  0  0  0  0  0  0  0  0  0  0  0
    1.0720   -0.6050    0.0400 C   0  0  1  0  0  0  0  0  0  0  0  0
    1.1590   -0.6410   -1.3660 O   0  0  0  0  0  0  0  0  0  0  0  0
    2.2930    0.0800    0.5790 C   0  0  1  0  0  0  0  0  0  0  0  0
    2.1850    0.1050    1.9730 O   0  0  0  0  0  0  0  0  0  0  0  0
    3.5050   -0.7690    0.2570 C   0  0  0  0  0  0  0  0  0  0  0  0
    4.2930   -0.2450   -0.9020 C   0  0  0  0  0  0  0  0  0  0  0  0
    4.5770    1.0940   -0.8470 O   0  0  0  0  0  0  0  0  0  0  0  0
    3.9790    1.7760    0.1850 C   0  0  0  0  0  0  0  0  0  0  0  0
    2.4810    1.4760    0.1080 C   0  0  0  0  0  0  0  0  0  0  0  0
  1  2  1  0
  3  2  1  6
  3  4  1  0
  3  7  1  0
  4  5  1  0
  5  6  1  0
  6  7  1  0
  7  8  1  1
  8  9  1  0
  9 10  1  6
  9 11  1  0
 11 12  1  1
 11 13  1  0
 11 17  1  0
 13 14  1  0
 14 15  1  0
 15 16  1  0
 16 17  1  0
M  CHG  1   3   1
M  END
