
     RDKit          3D

 17 18  0  0  0  0  0  0  0  0999 V2000
   -1.7170   -3.2960    1.0740 C   0  0  0  0  0  0  0  0  0  0  0  0
   -1.1510   -2.2180    0.3350 O   0  0  0  0  0  0  0  0  0  0  0  0
   -1.7340   -0.9750    0.3170 C   0  0  0  0  0  0  0  0  0  0  0  0
   -3.0430   -0.8800    0.2560 C   0  0  0  0  0  0  0  0  0  0  0  0
   -3.7460    0.4030    0.2320 C   0  0  0  0  0  0  0  0  0  0  0  0
   -2.8940    1.6180    0.2820 C   0  0  2  0  0  0  0  0  0  0  0  0
   -3.1280    2.4430   -0.8980 N   0  0  0  0  0  0  0  0  0  0  0  0
   -1.4410    1.3870    0.3490 C   0  0  0  0  0  0  0  0  0  0  0  0
   -0.8950    0.2060    0.3660 C   0  0  0  0  0  0  0  0  0  0  0  0
    0.4730    0.0840    0.4300 O   0  0  0  0  0  0  0  0  0  0  0  0
    1.1460   -0.5850   -0.6120 C   0  0  1  0  0  0  0  0  0  0  0  0
    0.9110    0.1050   -1.9480 C   0  0  0  0  0  0  0  0  0  0  0  0
    2.6260   -0.4920   -0.3280 C   0  0  1  0  0  0  0  0  0  0  0  0
    3.0590    0.9440   -0.0920 C   0  0  0  0  0  0  0  0  0  0  0  0
    4.3940    0.7340    0.5920 C   0  0  0  0  0  0  0  0  0  0  0  0
    4.2650   -0.6810    1.1070 C   0  0  0  0  0  0  0  0  0  0  0  0
    2.9650   -1.0800    0.8860 O   0  0  0  0  0  0  0  0  0  0  0  0
  1  2  1  0
  2  3  1  0
  3  4  2  0
  3  9  1  0
  4  5  1  0
  5  6  1  0
  6  7  1  6
  6  8  1  0
  8  9  2  0
  9 10  1  0
 10 11  1  0
 11 12  1  6
 11 13  1  0
 13 14  1  1
 13 17  1  0
 14 15  1  0
 15 16  1  0
 16 17  1  0
M  CHG  1   7   1
M  END
