
     RDKit          3D

 26 26  0  0  0  0  0  0  0  0999 V2000
   -3.4450   -6.3610    0.1720 C   0  0  0  0  0  0  0  0  0  0  0  0
   -2.6750   -5.4170    0.6480 C   0  0  0  0  0  0  0  0  0  0  0  0
   -2.0180   -4.4940   -0.2400 C   0  0  0  0  0  0  0  0  0  0  0  0
   -1.2470   -3.5500    0.2620 C   0  0  0  0  0  0  0  0  0  0  0  0
   -0.5730   -2.6080   -0.6120 C   0  0  0  0  0  0  0  0  0  0  0  0
   -0.7860   -2.7350   -2.2450 S   0  0  0  0  0  0  0  0  0  0  0  0
    0.2820   -1.5630   -0.0370 C   0  0  1  0  0  0  0  0  0  0  0  0
    1.3420   -2.0780    0.7030 O   0  0  0  0  0  0  0  0  0  0  0  0
    0.8500   -0.7340   -1.1700 C   0  0  0  0  0  0  0  0  0  0  0  0
    1.7380    0.3570   -0.6510 C   0  0  0  0  0  0  0  0  0  0  0  0
    1.8860    0.4380    0.5680 O   0  0  0  0  0  0  0  0  0  0  0  0
    2.3620    1.2370   -1.5470 N   0  0  0  0  0  0  0  0  0  0  0  0
    3.2310    2.3060   -1.2530 C   0  0  0  0  0  0  0  0  0  0  0  0
    4.5310    1.9780   -0.6250 C   0  0  2  0  0  0  0  0  0  0  0  0
    4.5230    1.5350    0.8040 C   0  0  0  0  0  0  0  0  0  0  0  0
    5.9170    2.0190    1.2700 C   0  0  0  0  0  0  0  0  0  0  0  0
    6.4130    2.7550    0.0570 C   0  0  0  0  0  0  0  0  0  0  0  0
    5.2400    3.2380   -0.5190 O   0  0  0  0  0  0  0  0  0  0  0  0
   -0.5590   -0.6440    0.7810 C   0  0  0  0  0  0  0  0  0  0  0  0
   -0.2350   -0.4490    1.9750 O   0  0  0  0  0  0  0  0  0  0  0  0
   -1.6900   -0.0190    0.2020 N   0  0  0  0  0  0  0  0  0  0  0  0
   -2.4970    0.8720    1.0100 C   0  0  0  0  0  0  0  0  0  0  0  0
   -3.6500    1.4500    0.2550 C   0  0  1  0  0  0  0  0  0  0  0  0
   -4.5290    0.3340   -0.2260 C   0  0  0  0  0  0  0  0  0  0  0  0
   -4.4590    2.2950    1.2290 C   0  0  0  0  0  0  0  0  0  0  0  0
   -3.2300    2.3630   -0.8690 C   0  0  0  0  0  0  0  0  0  0  0  0
  1  2  2  0
  2  3  1  0
  3  4  2  3
  4  5  1  0
  5  6  2  0
  5  7  1  0
  7  8  1  1
  7  9  1  0
  7 19  1  0
  9 10  1  0
 10 11  2  0
 10 12  1  0
 12 13  1  0
 14 13  1  1
 14 15  1  0
 14 18  1  0
 15 16  1  0
 16 17  1  0
 17 18  1  0
 19 20  2  0
 19 21  1  0
 21 22  1  0
 22 23  1  0
 23 24  1  6
 23 25  1  0
 23 26  1  0
M  END
