
     RDKit          3D

 26 26  0  0  0  0  0  0  0  0999 V2000
    7.8160    1.8520   -0.5390 C   0  0  0  0  0  0  0  0  0  0  0  0
    7.1520    1.0970    0.5780 C   0  0  2  0  0  0  0  0  0  0  0  0
    8.1670    0.3530    1.4330 C   0  0  0  0  0  0  0  0  0  0  0  0
    6.2440    0.0690    0.0150 C   0  0  0  0  0  0  0  0  0  0  0  0
    6.1660   -0.0310   -1.2360 O   0  0  0  0  0  0  0  0  0  0  0  0
    5.5020   -0.7590    0.8940 N   0  0  0  0  0  0  0  0  0  0  0  0
    4.6220   -1.7550    0.3910 C   0  0  0  0  0  0  0  0  0  0  0  0
    3.5080   -1.2970   -0.4760 C   0  0  0  0  0  0  0  0  0  0  0  0
    2.5400   -0.3320    0.1670 C   0  0  1  0  0  0  0  0  0  0  0  0
    3.2180    0.9550    0.6220 C   0  0  0  0  0  0  0  0  0  0  0  0
    1.6050    0.0240   -0.8040 O   0  0  0  0  0  0  0  0  0  0  0  0
    0.2570   -0.1040   -0.6900 C   0  0  0  0  0  0  0  0  0  0  0  0
   -0.3570   -0.6020    0.4170 C   0  0  0  0  0  0  0  0  0  0  0  0
   -1.7490   -0.7070    0.4710 C   0  0  0  0  0  0  0  0  0  0  0  0
   -2.5200   -0.3130   -0.5800 C   0  0  0  0  0  0  0  0  0  0  0  0
   -3.9300   -0.3860   -0.5570 N   0  0  0  0  0  0  0  0  0  0  0  0
   -4.7160   -0.6200    0.5750 C   0  0  0  0  0  0  0  0  0  0  0  0
   -4.2530   -0.7910    1.7130 O   0  0  0  0  0  0  0  0  0  0  0  0
   -6.2120   -0.6740    0.4400 C   0  0  2  0  0  0  0  0  0  0  0  0
   -6.5400   -1.7960   -0.5110 C   0  0  0  0  0  0  0  0  0  0  0  0
   -6.7030    0.8810   -0.3870 S   0  0  0  0  0  0  0  0  0  0  0  0
   -8.5010    0.8850   -0.5770 C   0  0  0  0  0  0  0  0  0  0  0  0
   -9.1170    0.9520    0.8040 C   0  0  0  0  0  0  0  0  0  0  0  0
   -8.6870    2.1220    1.4310 O   0  0  0  0  0  0  0  0  0  0  0  0
   -1.8610    0.1920   -1.7000 C   0  0  0  0  0  0  0  0  0  0  0  0
   -0.5060    0.3090   -1.7890 C   0  0  0  0  0  0  0  0  0  0  0  0
  2  1  1  6
  2  3  1  0
  2  4  1  0
  4  5  2  0
  4  6  1  0
  6  7  1  0
  7  8  1  0
  8  9  1  0
  9 10  1  6
  9 11  1  0
 11 12  1  0
 12 13  2  0
 12 26  1  0
 13 14  1  0
 14 15  2  0
 15 16  1  0
 15 25  1  0
 16 17  1  0
 17 18  2  0
 17 19  1  0
 19 20  1  6
 19 21  1  0
 21 22  1  0
 22 23  1  0
 23 24  1  0
 25 26  2  0
M  END
