
     RDKit          3D

 26 27  0  0  0  0  0  0  0  0999 V2000
    9.0900   -0.5650   -0.6740 C   0  0  0  0  0  0  0  0  0  0  0  0
    7.7550   -1.2370   -0.3940 C   0  0  0  0  0  0  0  0  0  0  0  0
    6.7070   -0.5110   -1.1760 C   0  0  0  0  0  0  0  0  0  0  0  0
    5.3090   -1.0620   -0.8760 C   0  0  0  0  0  0  0  0  0  0  0  0
    4.3630   -0.3170   -1.6670 N   0  0  0  0  0  0  0  0  0  0  0  0
    3.3960    0.7070   -0.7030 S   0  0  0  0  0  0  0  0  0  0  0  0
    2.0990    1.0940   -1.3420 O   0  0  0  0  0  0  0  0  0  0  0  0
    3.3000    0.2120    0.9930 C   0  0  0  0  0  0  0  0  0  0  0  0
    2.4950    1.2370    1.7330 C   0  0  0  0  0  0  0  0  0  0  0  0
    1.1760    1.3700    1.2620 N   0  0  0  0  0  0  0  0  0  0  0  0
    0.1810    0.3950    1.2280 C   0  0  0  0  0  0  0  0  0  0  0  0
    0.4420   -0.7530    1.6270 O   0  0  0  0  0  0  0  0  0  0  0  0
   -1.1880    0.6750    0.7350 C   0  0  0  0  0  0  0  0  0  0  0  0
   -1.5940    1.8210    0.2760 C   0  0  0  0  0  0  0  0  0  0  0  0
   -2.9650    2.0990   -0.2190 C   0  0  2  0  0  0  0  0  0  0  0  0
   -3.5100    3.1840    0.7250 C   0  0  0  0  0  0  0  0  0  0  0  0
   -3.8670    0.9380   -0.1230 C   0  0  0  0  0  0  0  0  0  0  0  0
   -3.4530   -0.2370    0.3430 C   0  0  0  0  0  0  0  0  0  0  0  0
   -4.3070   -1.4360    0.4560 C   0  0  0  0  0  0  0  0  0  0  0  0
   -5.6740   -1.2650   -0.0710 C   0  0  1  0  0  0  0  0  0  0  0  0
   -5.6610   -1.5830   -1.5760 C   0  0  0  0  0  0  0  0  0  0  0  0
   -6.6410   -2.2430    0.6110 C   0  0  0  0  0  0  0  0  0  0  0  0
   -6.2030    0.1260    0.1530 C   0  0  0  0  0  0  0  0  0  0  0  0
   -5.2620    1.0820   -0.5020 C   0  0  0  0  0  0  0  0  0  0  0  0
   -5.5960    1.9540   -1.3190 O   0  0  0  0  0  0  0  0  0  0  0  0
   -2.1260   -0.3780    0.7690 O   0  0  0  0  0  0  0  0  0  0  0  0
  1  2  1  0
  2  3  1  0
  3  4  1  0
  4  5  1  0
  5  6  1  0
  6  7  2  0
  6  8  1  1
  8  9  1  0
  9 10  1  0
 10 11  1  0
 11 12  2  0
 11 13  1  0
 13 14  2  0
 13 26  1  0
 14 15  1  0
 15 16  1  1
 15 17  1  0
 17 18  2  0
 17 24  1  0
 18 19  1  0
 18 26  1  0
 19 20  1  0
 20 21  1  6
 20 22  1  0
 20 23  1  0
 23 24  1  0
 24 25  2  0
M  END
