
     RDKit          3D

 26 26  0  0  0  0  0  0  0  0999 V2000
   -4.6650    2.4280   -0.7260 C   0  0  0  0  0  0  0  0  0  0  0  0
   -3.6380    2.0830    0.2050 O   0  0  0  0  0  0  0  0  0  0  0  0
   -2.4710    2.8240    0.2980 C   0  0  0  0  0  0  0  0  0  0  0  0
   -2.5580    4.0740    0.7040 C   0  0  0  0  0  0  0  0  0  0  0  0
   -3.8030    4.6530    1.0380 N   0  0  0  0  0  0  0  0  0  0  0  0
   -1.1820    2.2320   -0.0460 C   0  0  0  0  0  0  0  0  0  0  0  0
   -1.0520    0.9940   -0.4510 C   0  0  0  0  0  0  0  0  0  0  0  0
   -2.2350    0.2340   -0.5430 O   0  0  0  0  0  0  0  0  0  0  0  0
   -2.3640   -0.8080    0.3990 C   0  0  0  0  0  0  0  0  0  0  0  0
   -3.6400   -1.5770    0.2220 C   0  0  2  0  0  0  0  0  0  0  0  0
   -3.6460   -2.6810    1.2870 C   0  0  0  0  0  0  0  0  0  0  0  0
   -3.5980   -2.2100   -1.1590 C   0  0  0  0  0  0  0  0  0  0  0  0
   -4.7490   -0.7740    0.3710 O   0  0  0  0  0  0  0  0  0  0  0  0
    0.2420    0.3700   -0.8070 C   0  0  0  0  0  0  0  0  0  0  0  0
    0.1620   -0.8260   -1.1750 O   0  0  0  0  0  0  0  0  0  0  0  0
    1.4750    1.0430   -0.7460 N   0  0  0  0  0  0  0  0  0  0  0  0
    2.7480    0.5480   -1.0420 C   0  0  0  0  0  0  0  0  0  0  0  0
    3.4160   -0.4930   -0.2570 C   0  0  2  0  0  0  0  0  0  0  0  0
    4.7700   -0.7400   -0.9140 C   0  0  1  0  0  0  0  0  0  0  0  0
    5.6090   -1.7750   -0.2830 C   0  0  0  0  0  0  0  0  0  0  0  0
    4.5740   -1.0860   -2.3470 C   0  0  0  0  0  0  0  0  0  0  0  0
    5.4600   -0.6330   -3.3520 S   0  0  0  0  0  0  0  0  0  0  0  0
    2.7470   -1.7190    0.1750 C   0  0  0  0  0  0  0  0  0  0  0  0
    2.0280   -1.4260    1.4630 C   0  0  0  0  0  0  0  0  0  0  0  0
    2.4950   -0.0600    1.8720 C   0  0  0  0  0  0  0  0  0  0  0  0
    3.7710    0.1310    1.1120 C   0  0  0  0  0  0  0  0  0  0  0  0
  1  2  1  0
  2  3  1  0
  3  4  2  3
  3  6  1  0
  4  5  1  0
  6  7  2  3
  7  8  1  0
  7 14  1  0
  8  9  1  0
  9 10  1  0
 10 11  1  1
 10 12  1  0
 10 13  1  0
 14 15  2  0
 14 16  1  0
 16 17  1  0
 18 17  1  6
 18 19  1  0
 18 23  1  0
 18 26  1  0
 19 20  1  1
 19 21  1  0
 21 22  2  0
 23 24  1  0
 24 25  1  0
 25 26  1  0
M  END
