
     RDKit          3D

 26 26  0  0  0  0  0  0  0  0999 V2000
   -0.6320    2.4670   -4.0690 C   0  0  0  0  0  0  0  0  0  0  0  0
   -1.6350    1.5620   -3.3260 C   0  0  0  0  0  0  0  0  0  0  0  0
   -1.5910    1.9780   -1.8850 C   0  0  0  0  0  0  0  0  0  0  0  0
   -2.5060    1.2460   -0.9710 C   0  0  1  0  0  0  0  0  0  0  0  0
   -3.9300    1.4310   -1.3910 C   0  0  0  0  0  0  0  0  0  0  0  0
   -4.4080    0.3140   -1.8960 C   0  0  0  0  0  0  0  0  0  0  0  0
   -3.3850   -0.7380   -1.8790 C   0  0  0  0  0  0  0  0  0  0  0  0
   -2.3660   -0.2090   -0.9150 C   0  0  0  0  0  0  0  0  0  0  0  0
   -1.5470   -0.9830   -0.2340 C   0  0  0  0  0  0  0  0  0  0  0  0
   -1.6370   -2.3920   -0.3710 N   0  0  0  0  0  0  0  0  0  0  0  0
   -2.5670   -3.4150    0.6520 S   0  0  2  0  0  0  0  0  0  0  0  0
   -2.3530   -4.8510    0.1800 O   0  0  0  0  0  0  0  0  0  0  0  0
   -4.0430   -3.1780    0.5650 O   0  0  0  0  0  0  0  0  0  0  0  0
   -2.0470   -3.3700    2.3520 C   0  0  0  0  0  0  0  0  0  0  0  0
   -2.9540   -4.3110    3.1600 C   0  0  0  0  0  0  0  0  0  0  0  0
   -0.5650   -0.3940    0.6480 C   0  0  0  0  0  0  0  0  0  0  0  0
   -0.4150    0.8310    0.8600 O   0  0  0  0  0  0  0  0  0  0  0  0
    0.3460   -1.2440    1.3650 N   0  0  0  0  0  0  0  0  0  0  0  0
    1.3510   -0.7440    2.2510 C   0  0  0  0  0  0  0  0  0  0  0  0
    2.3980    0.0870    1.6450 C   0  0  0  0  0  0  0  0  0  0  0  0
    2.4880    0.3310    0.3610 C   0  0  0  0  0  0  0  0  0  0  0  0
    3.5150    1.1580   -0.3020 C   0  0  0  0  0  0  0  0  0  0  0  0
    4.5580    1.7440    0.5840 C   0  0  2  0  0  0  0  0  0  0  0  0
    5.3990    0.7630    1.3310 C   0  0  0  0  0  0  0  0  0  0  0  0
    3.9590    2.7570    1.5650 C   0  0  0  0  0  0  0  0  0  0  0  0
    5.4260    2.5160   -0.2300 O   0  0  0  0  0  0  0  0  0  0  0  0
  1  2  1  0
  2  3  1  0
  4  3  1  6
  4  5  1  0
  4  8  1  0
  5  6  2  0
  6  7  1  0
  7  8  1  0
  8  9  2  3
  9 10  1  0
  9 16  1  0
 10 11  1  0
 11 12  2  0
 11 13  2  0
 11 14  1  1
 14 15  1  0
 16 17  2  0
 16 18  1  0
 18 19  1  0
 19 20  1  0
 20 21  2  3
 21 22  1  0
 22 23  1  0
 23 24  1  1
 23 25  1  0
 23 26  1  0
M  END
