
     RDKit          3D

 12 13  0  0  0  0  0  0  0  0999 V2000
    3.4610    0.4240   -0.2500 C   0  0  0  0  0  0  0  0  0  0  0  0
    2.1670    0.1760    0.3660 N   0  0  0  0  0  0  0  0  0  0  0  0
    1.8600   -0.2470    1.5800 C   0  0  0  0  0  0  0  0  0  0  0  0
    0.5260   -0.3330    1.7200 N   0  0  0  0  0  0  0  0  0  0  0  0
   -0.0220    0.0480    0.5570 C   0  0  0  0  0  0  0  0  0  0  0  0
    0.9960    0.3690   -0.3000 C   0  0  0  0  0  0  0  0  0  0  0  0
    0.4220    0.7560   -1.4830 C   0  0  0  0  0  0  0  0  0  0  0  0
    1.0720    1.1200   -2.4920 O   0  0  0  0  0  0  0  0  0  0  0  0
   -0.9000    0.6540   -1.2950 N   0  0  0  0  0  0  0  0  0  0  0  0
   -1.1760    0.2340   -0.0900 N   0  0  0  0  0  0  0  0  0  0  0  0
   -2.5180    0.0220    0.4160 C   0  0  0  0  0  0  0  0  0  0  0  0
   -3.0180   -1.2940    0.1950 N   0  0  0  0  0  0  0  0  0  0  0  0
  1  2  1  0
  2  3  1  0
  2  6  1  0
  3  4  2  0
  4  5  1  0
  5  6  2  0
  5 10  1  0
  6  7  1  0
  7  8  2  0
  7  9  1  0
  9 10  1  0
 10 11  1  0
 11 12  1  0
M  CHG  1  12   1
M  END
