
     RDKit          3D

 12 13  0  0  0  0  0  0  0  0999 V2000
    2.5100   -1.2320    0.3150 C   0  0  0  0  0  0  0  0  0  0  0  0
    2.2860    0.1400   -0.0970 N   0  0  0  0  0  0  0  0  0  0  0  0
    1.1040    0.6120   -0.2060 C   0  0  0  0  0  0  0  0  0  0  0  0
    0.9030    1.8800   -0.5860 N   0  0  0  0  0  0  0  0  0  0  0  0
   -0.3380    2.3820   -0.7030 C   0  0  0  0  0  0  0  0  0  0  0  0
   -0.5670    3.5680   -1.0570 O   0  0  0  0  0  0  0  0  0  0  0  0
   -1.4090    1.6150   -0.4380 N   0  0  0  0  0  0  0  0  0  0  0  0
   -1.2660    0.3110   -0.0450 C   0  0  0  0  0  0  0  0  0  0  0  0
    0.0120   -0.1850    0.0690 C   0  0  0  0  0  0  0  0  0  0  0  0
   -0.1280   -1.4140    0.4480 N   0  0  0  0  0  0  0  0  0  0  0  0
   -1.4560   -1.7780    0.5980 N   0  0  0  0  0  0  0  0  0  0  0  0
   -2.1700   -0.6100    0.2630 C   0  0  0  0  0  0  0  0  0  0  0  0
  1  2  1  0
  2  3  2  3
  3  4  1  0
  3  9  1  0
  4  5  1  0
  5  6  2  0
  5  7  1  0
  7  8  1  0
  8  9  1  0
  8 12  2  0
  9 10  2  0
 10 11  1  0
 11 12  1  0
M  CHG  1  11   1
M  END
