
     RDKit          3D

 12 13  0  0  0  0  0  0  0  0999 V2000
   -2.9940    1.9670   -1.7510 C   0  0  0  0  0  0  0  0  0  0  0  0
   -3.1440    0.7830   -0.9730 O   0  0  0  0  0  0  0  0  0  0  0  0
   -1.9820    0.2300   -0.4520 C   0  0  0  0  0  0  0  0  0  0  0  0
   -2.1120   -0.9160    0.3030 C   0  0  0  0  0  0  0  0  0  0  0  0
   -1.0190   -1.5150    0.8450 N   0  0  0  0  0  0  0  0  0  0  0  0
    0.2010   -0.9840    0.6440 C   0  0  0  0  0  0  0  0  0  0  0  0
    1.4480   -1.3480    1.0490 N   0  0  0  0  0  0  0  0  0  0  0  0
    2.3560   -0.4760    0.5780 C   0  0  0  0  0  0  0  0  0  0  0  0
    3.7620   -0.5590    0.8140 N   0  0  0  0  0  0  0  0  0  0  0  0
    1.6700    0.4420   -0.1280 N   0  0  0  0  0  0  0  0  0  0  0  0
    0.3540    0.1540   -0.1020 C   0  0  0  0  0  0  0  0  0  0  0  0
   -0.7550    0.7390   -0.6380 N   0  0  0  0  0  0  0  0  0  0  0  0
  1  2  1  0
  2  3  1  0
  3  4  2  0
  3 12  1  0
  4  5  1  0
  5  6  2  0
  6  7  1  0
  6 11  1  0
  7  8  1  0
  8  9  1  0
  8 10  2  0
 10 11  1  0
 11 12  2  0
M  CHG  1   9   1
M  END
