
     RDKit          3D

 16 17  0  0  0  0  0  0  0  0999 V2000
   -3.7520    0.2080    2.1100 N   0  0  0  0  0  0  0  0  0  0  0  0
   -2.9550    0.0030    0.9610 C   0  0  0  0  0  0  0  0  0  0  0  0
   -1.6470    0.2880    1.0750 N   0  0  0  0  0  0  0  0  0  0  0  0
   -0.8170    0.1190    0.0190 C   0  0  0  0  0  0  0  0  0  0  0  0
    0.5060    0.3250   -0.1320 N   0  0  0  0  0  0  0  0  0  0  0  0
    0.7920   -0.0140   -1.4000 C   0  0  0  0  0  0  0  0  0  0  0  0
    2.4410    0.0840   -2.1050 S   0  0  0  0  0  0  0  0  0  0  0  0
    3.6310    0.6900   -0.9050 C   0  0  0  0  0  0  0  0  0  0  0  0
    3.8400   -0.2490    0.2180 C   0  0  0  0  0  0  0  0  0  0  0  0
    3.2040   -1.3270    0.2450 O   0  0  0  0  0  0  0  0  0  0  0  0
    4.7250    0.0500    1.2350 O   0  0  0  0  0  0  0  0  0  0  0  0
   -0.3310   -0.4210   -2.0180 N   0  0  0  0  0  0  0  0  0  0  0  0
   -1.3730   -0.3510   -1.1520 C   0  0  0  0  0  0  0  0  0  0  0  0
   -2.7120   -0.6450   -1.2730 C   0  0  0  0  0  0  0  0  0  0  0  0
   -3.2230   -1.0730   -2.3330 O   0  0  0  0  0  0  0  0  0  0  0  0
   -3.4940   -0.4620   -0.2020 N   0  0  0  0  0  0  0  0  0  0  0  0
  1  2  1  0
  2  3  2  0
  2 16  1  0
  3  4  1  0
  4  5  1  0
  4 13  2  0
  5  6  1  0
  6  7  1  0
  6 12  2  0
  7  8  1  0
  8  9  1  0
  9 10  2  0
  9 11  1  0
 12 13  1  0
 13 14  1  0
 14 15  2  0
 14 16  1  0
M  END
