
     RDKit          3D

 12 11  0  0  0  0  0  0  0  0999 V2000
    1.1230   -1.4500    0.4570 O   0  0  0  0  0  0  0  0  0  0  0  0
    1.0240   -0.2290    0.1100 C   0  0  0  0  0  0  0  0  0  0  0  0
   -0.2590    0.2850   -0.0130 O   0  0  0  0  0  0  0  0  0  0  0  0
   -1.3670   -0.5430    0.2440 C   0  0  0  0  0  0  0  0  0  0  0  0
   -2.6770    0.1910    0.0580 C   0  0  2  0  0  0  0  0  0  0  0  0
   -2.7030    0.6190   -1.2660 F   0  0  0  0  0  0  0  0  0  0  0  0
   -2.7940    1.2500    0.9050 F   0  0  0  0  0  0  0  0  0  0  0  0
   -3.7390   -0.6650    0.2140 F   0  0  0  0  0  0  0  0  0  0  0  0
    2.2420    0.5480   -0.1340 C   0  0  2  0  0  0  0  0  0  0  0  0
    3.3640   -0.2510    0.0740 O   0  0  0  0  0  0  0  0  0  0  0  0
    2.3670    1.6420    0.7040 F   0  0  0  0  0  0  0  0  0  0  0  0
    2.3200    1.0220   -1.4340 F   0  0  0  0  0  0  0  0  0  0  0  0
  1  2  2  0
  2  3  1  0
  2  9  1  0
  3  4  1  0
  4  5  1  0
  5  6  1  6
  5  7  1  0
  5  8  1  0
  9 10  1  1
  9 11  1  0
  9 12  1  0
M  END
