
     RDKit          3D

 13 12  0  0  0  0  0  0  0  0999 V2000
   -2.0310   -0.8620    0.0220 O   0  0  0  0  0  0  0  0  0  0  0  0
   -0.9080   -0.0330   -0.1160 C   0  0  1  0  0  0  0  0  0  0  0  0
   -0.8720    0.3820   -1.4210 F   0  0  0  0  0  0  0  0  0  0  0  0
   -1.0350    1.1560    0.7820 C   0  0  2  0  0  0  0  0  0  0  0  0
   -1.1340    0.8620    2.1060 F   0  0  0  0  0  0  0  0  0  0  0  0
   -2.2070    1.8350    0.4310 F   0  0  0  0  0  0  0  0  0  0  0  0
   -0.0080    2.0520    0.5680 F   0  0  0  0  0  0  0  0  0  0  0  0
    0.2950   -0.8740    0.1560 C   0  0  2  0  0  0  0  0  0  0  0  0
    0.3280   -1.9240   -0.7740 O   0  0  0  0  0  0  0  0  0  0  0  0
    0.1620   -1.4350    1.4110 F   0  0  0  0  0  0  0  0  0  0  0  0
    1.5980   -0.1250    0.0620 C   0  0  0  0  0  0  0  0  0  0  0  0
    1.8070    0.3990   -1.1890 O   0  0  0  0  0  0  0  0  0  0  0  0
    2.9680    1.0380   -1.1890 F   0  0  0  0  0  0  0  0  0  0  0  0
  2  1  1  6
  2  3  1  0
  2  4  1  0
  2  8  1  0
  4  5  1  1
  4  6  1  0
  4  7  1  0
  8  9  1  6
  8 10  1  0
  8 11  1  0
 11 12  1  0
 12 13  1  0
M  END
