
     RDKit          3D

 12 11  0  0  0  0  0  0  0  0999 V2000
   -1.8550    1.9240    0.2090 O   0  0  0  0  0  0  0  0  0  0  0  0
   -1.4050    0.6110    0.0070 C   0  0  1  0  0  0  0  0  0  0  0  0
   -0.2480    0.3590    0.7080 O   0  0  0  0  0  0  0  0  0  0  0  0
    0.7530   -0.0390   -0.1650 C   0  0  0  0  0  0  0  0  0  0  0  0
    1.8920   -0.2820    0.5710 O   0  0  0  0  0  0  0  0  0  0  0  0
    2.9710   -0.6910   -0.2040 C   0  0  2  0  0  0  0  0  0  0  0  0
    3.3460   -1.9450    0.2820 F   0  0  0  0  0  0  0  0  0  0  0  0
    4.0290    0.1650    0.0560 F   0  0  0  0  0  0  0  0  0  0  0  0
   -2.5410   -0.2980    0.4170 C   0  0  2  0  0  0  0  0  0  0  0  0
   -3.6330   -0.0070   -0.3780 F   0  0  0  0  0  0  0  0  0  0  0  0
   -2.9170   -0.1390    1.7200 F   0  0  0  0  0  0  0  0  0  0  0  0
   -2.1970   -1.6310    0.1620 F   0  0  0  0  0  0  0  0  0  0  0  0
  2  1  1  1
  2  3  1  0
  2  9  1  0
  3  4  1  0
  4  5  1  0
  5  6  1  0
  6  7  1  1
  6  8  1  0
  9 10  1  6
  9 11  1  0
  9 12  1  0
M  END
