
     RDKit          3D

 25 27  0  0  0  0  0  0  0  0999 V2000
    4.7020   -3.6040    0.7690 C   0  0  0  0  0  0  0  0  0  0  0  0
    3.2170   -3.8700    0.6380 C   0  0  0  0  0  0  0  0  0  0  0  0
    2.6060   -2.6530    0.2220 O   0  0  0  0  0  0  0  0  0  0  0  0
    1.2460   -2.5610    0.0110 C   0  0  0  0  0  0  0  0  0  0  0  0
    0.5370   -3.5730    0.1900 O   0  0  0  0  0  0  0  0  0  0  0  0
    0.6670   -1.2990   -0.4130 C   0  0  0  0  0  0  0  0  0  0  0  0
    1.3720   -0.1040   -0.6420 C   0  0  0  0  0  0  0  0  0  0  0  0
    0.5000    0.8810   -1.0300 C   0  0  0  0  0  0  0  0  0  0  0  0
    0.6870    2.2920   -1.3880 C   0  0  2  0  0  0  0  0  0  0  0  0
    1.1570    2.4090   -2.7300 O   0  0  0  0  0  0  0  0  0  0  0  0
    1.5680    3.0690   -0.5130 C   0  0  0  0  0  0  0  0  0  0  0  0
    1.0830    4.0660    0.2210 C   0  0  0  0  0  0  0  0  0  0  0  0
    1.9070    4.9010    1.1310 C   0  0  0  0  0  0  0  0  0  0  0  0
    3.2540    4.5120    1.1710 O   0  0  0  0  0  0  0  0  0  0  0  0
    3.7830    3.4820    0.4170 C   0  0  0  0  0  0  0  0  0  0  0  0
    2.9820    2.7770   -0.4000 C   0  0  0  0  0  0  0  0  0  0  0  0
   -0.7380    0.2330   -1.0230 C   0  0  0  0  0  0  0  0  0  0  0  0
   -2.0520    0.8710   -1.3770 C   0  0  0  0  0  0  0  0  0  0  0  0
   -3.0780   -0.0290   -1.2710 O   0  0  0  0  0  0  0  0  0  0  0  0
   -3.1980   -0.5320    0.0060 C   0  0  1  0  0  0  0  0  0  0  0  0
   -4.5260   -0.1750    0.6440 C   0  0  0  0  0  0  0  0  0  0  0  0
   -4.9010   -1.4370    1.3970 C   0  0  0  0  0  0  0  0  0  0  0  0
   -4.5470   -2.4960    0.3450 C   0  0  0  0  0  0  0  0  0  0  0  0
   -3.1430   -2.0330   -0.0360 C   0  0  0  0  0  0  0  0  0  0  0  0
   -0.5760   -1.0000   -0.6640 O   0  0  0  0  0  0  0  0  0  0  0  0
  1  2  1  0
  2  3  1  0
  3  4  1  0
  4  5  2  0
  4  6  1  0
  6  7  2  0
  6 25  1  0
  7  8  1  0
  8  9  1  0
  8 17  2  0
  9 10  1  6
  9 11  1  0
 11 12  2  0
 11 16  1  0
 12 13  1  0
 13 14  1  0
 14 15  1  0
 15 16  2  0
 17 18  1  0
 17 25  1  0
 18 19  1  0
 20 19  1  6
 20 21  1  0
 20 24  1  0
 21 22  1  0
 22 23  1  0
 23 24  1  0
M  END
