
     RDKit          3D

 25 27  0  0  0  0  0  0  0  0999 V2000
   -1.7420   -2.6180    0.8420 C   0  0  0  0  0  0  0  0  0  0  0  0
   -1.1040   -1.6430   -0.0540 C   0  0  0  0  0  0  0  0  0  0  0  0
    0.2900   -1.5950   -0.2460 C   0  0  0  0  0  0  0  0  0  0  0  0
    0.9120   -0.7080   -1.0650 C   0  0  0  0  0  0  0  0  0  0  0  0
    2.2550   -0.6540   -1.2490 O   0  0  0  0  0  0  0  0  0  0  0  0
    3.2250   -1.4170   -0.6490 C   0  0  0  0  0  0  0  0  0  0  0  0
    3.3770   -1.2270    0.8220 C   0  0  1  0  0  0  0  0  0  0  0  0
    4.4860   -2.1320    1.3820 C   0  0  0  0  0  0  0  0  0  0  0  0
    3.7440    0.2380    1.1170 C   0  0  1  0  0  0  0  0  0  0  0  0
    4.9280    0.5010    0.4740 O   0  0  0  0  0  0  0  0  0  0  0  0
    4.8260    1.7570   -0.1170 C   0  0  0  0  0  0  0  0  0  0  0  0
    3.4140    2.2290    0.1760 C   0  0  0  0  0  0  0  0  0  0  0  0
    2.7780    1.0700    0.6070 O   0  0  0  0  0  0  0  0  0  0  0  0
    0.0700    0.1930   -1.7410 C   0  0  0  0  0  0  0  0  0  0  0  0
   -1.2890    0.1730   -1.5780 C   0  0  0  0  0  0  0  0  0  0  0  0
   -1.8940   -0.7480   -0.7300 C   0  0  0  0  0  0  0  0  0  0  0  0
   -3.3460   -0.7210   -0.5930 C   0  0  1  0  0  0  0  0  0  0  0  0
   -3.8850   -1.4880    0.4010 O   0  0  0  0  0  0  0  0  0  0  0  0
   -3.8660    0.6860   -0.4330 C   0  0  0  0  0  0  0  0  0  0  0  0
   -4.7190    1.2200   -1.2860 C   0  0  0  0  0  0  0  0  0  0  0  0
   -5.2630    2.5930   -1.1810 C   0  0  0  0  0  0  0  0  0  0  0  0
   -4.7680    3.2880   -0.0560 O   0  0  0  0  0  0  0  0  0  0  0  0
   -3.8760    2.7110    0.8250 C   0  0  0  0  0  0  0  0  0  0  0  0
   -3.4150    1.4780    0.6920 C   0  0  0  0  0  0  0  0  0  0  0  0
   -2.5200    1.0080    1.6440 O   0  0  0  0  0  0  0  0  0  0  0  0
  1  2  1  0
  2  3  2  0
  2 16  1  0
  3  4  1  0
  4  5  1  0
  4 14  2  0
  5  6  1  0
  6  7  1  0
  7  8  1  6
  7  9  1  0
  9 10  1  6
  9 13  1  0
 10 11  1  0
 11 12  1  0
 12 13  1  0
 14 15  1  0
 15 16  2  0
 16 17  1  0
 17 18  1  1
 17 19  1  0
 19 20  2  0
 19 24  1  0
 20 21  1  0
 21 22  1  0
 22 23  1  0
 23 24  2  0
 24 25  1  0
M  END
