
     RDKit          3D

 22 24  0  0  0  0  0  0  0  0999 V2000
   -5.9310    0.4830   -1.5540 N   0  0  0  0  0  0  0  0  0  0  0  0
   -4.6280    0.3040   -1.0440 C   0  0  0  0  0  0  0  0  0  0  0  0
   -4.1460   -0.9400   -0.7760 N   0  0  0  0  0  0  0  0  0  0  0  0
   -2.9120   -1.1590   -0.2890 C   0  0  0  0  0  0  0  0  0  0  0  0
   -2.4840   -2.3190   -0.0480 O   0  0  0  0  0  0  0  0  0  0  0  0
   -2.1090   -0.0630   -0.0550 C   0  0  0  0  0  0  0  0  0  0  0  0
   -0.8590    0.0880    0.4140 N   0  0  0  0  0  0  0  0  0  0  0  0
   -0.5220    1.3790    0.4570 C   0  0  0  0  0  0  0  0  0  0  0  0
    0.9780    2.1130    0.9880 S   0  0  0  0  0  0  0  0  0  0  0  0
    2.2710    1.0070    1.4730 C   0  0  1  0  0  0  0  0  0  0  0  0
    1.8800    0.1180    2.6250 C   0  0  0  0  0  0  0  0  0  0  0  0
    2.1240   -1.1120    2.5830 O   0  0  0  0  0  0  0  0  0  0  0  0
    1.2470    0.6060    3.7560 O   0  0  0  0  0  0  0  0  0  0  0  0
    2.9150    0.2130    0.4220 C   0  0  0  0  0  0  0  0  0  0  0  0
    2.3790   -0.1200   -0.7910 C   0  0  0  0  0  0  0  0  0  0  0  0
    3.0820   -0.8970   -1.6950 C   0  0  0  0  0  0  0  0  0  0  0  0
    4.3420   -1.3580   -1.4020 C   0  0  0  0  0  0  0  0  0  0  0  0
    4.9130   -1.0380   -0.1830 C   0  0  0  0  0  0  0  0  0  0  0  0
    4.2050   -0.2690    0.7020 C   0  0  0  0  0  0  0  0  0  0  0  0
   -1.5810    2.0820    0.0040 N   0  0  0  0  0  0  0  0  0  0  0  0
   -2.5560    1.2180   -0.3120 C   0  0  0  0  0  0  0  0  0  0  0  0
   -3.8040    1.3550   -0.7990 N   0  0  0  0  0  0  0  0  0  0  0  0
  1  2  1  0
  2  3  1  0
  2 22  2  0
  3  4  1  0
  4  5  2  0
  4  6  1  0
  6  7  1  0
  6 21  2  0
  7  8  1  0
  8  9  1  0
  8 20  2  0
 10  9  1  6
 10 11  1  0
 10 14  1  0
 11 12  2  0
 11 13  1  0
 14 15  2  0
 14 19  1  0
 15 16  1  0
 16 17  2  0
 17 18  1  0
 18 19  2  0
 20 21  1  0
 21 22  1  0
M  CHG  1  22   1
M  END
