
     RDKit          3D

 25 27  0  0  0  0  0  0  0  0999 V2000
    6.8840   -0.8910   -1.2310 O   0  0  0  0  0  0  0  0  0  0  0  0
    5.7790   -0.2000   -0.7150 C   0  0  0  0  0  0  0  0  0  0  0  0
    5.9130    0.6100    0.3930 C   0  0  0  0  0  0  0  0  0  0  0  0
    4.8070    1.2760    0.8770 C   0  0  0  0  0  0  0  0  0  0  0  0
    4.9020    2.0990    1.9880 O   0  0  0  0  0  0  0  0  0  0  0  0
    3.5910    1.1150    0.2390 C   0  0  0  0  0  0  0  0  0  0  0  0
    3.4290    0.3150   -0.8650 C   0  0  0  0  0  0  0  0  0  0  0  0
    2.1480    0.1220   -1.5690 C   0  0  2  0  0  0  0  0  0  0  0  0
    1.4970    1.3600   -1.7510 O   0  0  0  0  0  0  0  0  0  0  0  0
    1.2570   -0.8560   -0.8810 C   0  0  0  0  0  0  0  0  0  0  0  0
    1.1710   -2.1500   -1.3480 C   0  0  0  0  0  0  0  0  0  0  0  0
    0.3460   -3.0730   -0.7190 C   0  0  0  0  0  0  0  0  0  0  0  0
   -0.3870   -2.6810    0.3790 C   0  0  0  0  0  0  0  0  0  0  0  0
   -0.3270   -1.3950    0.8750 C   0  0  0  0  0  0  0  0  0  0  0  0
   -1.1140   -0.9850    2.0590 C   0  0  0  0  0  0  0  0  0  0  0  0
   -1.4260    0.3430    2.1290 O   0  0  0  0  0  0  0  0  0  0  0  0
   -2.1860    0.8370    1.1040 C   0  0  0  0  0  0  0  0  0  0  0  0
   -3.4250    0.1810    1.0180 O   0  0  0  0  0  0  0  0  0  0  0  0
   -4.1530    0.7070   -0.0210 C   0  0  2  0  0  0  0  0  0  0  0  0
   -5.4730    1.3140    0.4250 C   0  0  0  0  0  0  0  0  0  0  0  0
   -6.3180    1.0860   -0.8180 C   0  0  0  0  0  0  0  0  0  0  0  0
   -5.9560   -0.1970   -1.1940 O   0  0  0  0  0  0  0  0  0  0  0  0
   -4.6100   -0.3440   -0.9970 C   0  0  0  0  0  0  0  0  0  0  0  0
    0.5040   -0.5140    0.2200 C   0  0  0  0  0  0  0  0  0  0  0  0
    4.5620   -0.3530   -1.3420 C   0  0  0  0  0  0  0  0  0  0  0  0
  1  2  1  0
  2  3  2  0
  2 25  1  0
  3  4  1  0
  4  5  1  0
  4  6  2  0
  6  7  1  0
  7  8  1  0
  7 25  2  0
  8  9  1  1
  8 10  1  0
 10 11  2  0
 10 24  1  0
 11 12  1  0
 12 13  2  0
 13 14  1  0
 14 15  1  0
 14 24  2  0
 15 16  1  0
 16 17  1  0
 17 18  1  0
 19 18  1  1
 19 20  1  0
 19 23  1  0
 20 21  1  0
 21 22  1  0
 22 23  1  0
M  END
