
     RDKit          3D

 25 26  0  0  0  0  0  0  0  0999 V2000
   -3.6730   -0.4150    3.1780 C   0  0  0  0  0  0  0  0  0  0  0  0
   -3.1330   -1.1280    1.9490 C   0  0  0  0  0  0  0  0  0  0  0  0
   -3.2880   -0.3190    0.7290 C   0  0  0  0  0  0  0  0  0  0  0  0
   -2.2580    0.1430    0.0770 C   0  0  0  0  0  0  0  0  0  0  0  0
   -0.8870   -0.0380    0.4120 C   0  0  0  0  0  0  0  0  0  0  0  0
   -0.5010   -0.6740    1.4060 O   0  0  0  0  0  0  0  0  0  0  0  0
    0.1370    0.5240   -0.4070 O   0  0  0  0  0  0  0  0  0  0  0  0
    1.4510    0.3120   -0.0270 C   0  0  2  0  0  0  0  0  0  0  0  0
    2.2420    1.5850    0.1300 C   0  0  0  0  0  0  0  0  0  0  0  0
    3.6670    1.4980   -0.3110 C   0  0  0  0  0  0  0  0  0  0  0  0
    4.2100    0.1220   -0.2600 C   0  0  0  0  0  0  0  0  0  0  0  0
    5.4810   -0.0340    0.0200 C   0  0  0  0  0  0  0  0  0  0  0  0
    6.0600   -1.3910    0.0800 C   0  0  0  0  0  0  0  0  0  0  0  0
    6.3280    1.0510    0.2680 O   0  0  0  0  0  0  0  0  0  0  0  0
    6.9820    1.6960   -0.8060 C   0  0  0  0  0  0  0  0  0  0  0  0
    3.3770   -1.0760   -0.5120 C   0  0  0  0  0  0  0  0  0  0  0  0
    2.0950   -0.5130   -1.1510 C   0  0  1  0  0  0  0  0  0  0  0  0
    1.2490   -1.5080   -1.5900 O   0  0  0  0  0  0  0  0  0  0  0  0
   -4.6540   -0.0250    0.2250 C   0  0  0  0  0  0  0  0  0  0  0  0
   -5.7810   -0.4520    0.7510 C   0  0  0  0  0  0  0  0  0  0  0  0
   -5.9980   -1.2610    1.8680 O   0  0  0  0  0  0  0  0  0  0  0  0
   -6.9340    0.0640   -0.0440 C   0  0  0  0  0  0  0  0  0  0  0  0
   -6.3040    0.3280   -1.3990 C   0  0  0  0  0  0  0  0  0  0  0  0
   -4.9480    0.7910   -0.9260 C   0  0  0  0  0  0  0  0  0  0  0  0
   -4.3140    1.6880   -1.4820 O   0  0  0  0  0  0  0  0  0  0  0  0
  1  2  1  0
  2  3  1  0
  3  4  2  3
  3 19  1  0
  4  5  1  0
  5  6  2  0
  5  7  1  0
  8  7  1  6
  8  9  1  0
  8 17  1  0
  9 10  1  0
 10 11  1  0
 11 12  2  3
 11 16  1  0
 12 13  1  0
 12 14  1  0
 14 15  1  0
 16 17  1  0
 17 18  1  1
 19 20  2  0
 19 24  1  0
 20 21  1  0
 20 22  1  0
 22 23  1  0
 23 24  1  0
 24 25  2  0
M  END
