
     RDKit          3D

 25 27  0  0  0  0  0  0  0  0999 V2000
   -5.5600    1.9880   -0.9250 C   0  0  0  0  0  0  0  0  0  0  0  0
   -5.0180    1.1150   -2.0130 C   0  0  0  0  0  0  0  0  0  0  0  0
   -3.6260    0.9370   -1.9810 O   0  0  0  0  0  0  0  0  0  0  0  0
   -3.0350    0.3410   -0.8790 C   0  0  0  0  0  0  0  0  0  0  0  0
   -3.7080   -0.1200    0.2270 C   0  0  0  0  0  0  0  0  0  0  0  0
   -3.0770   -0.7120    1.3170 C   0  0  0  0  0  0  0  0  0  0  0  0
   -1.7080   -0.8600    1.3200 C   0  0  0  0  0  0  0  0  0  0  0  0
   -1.0190   -0.4020    0.2180 C   0  0  0  0  0  0  0  0  0  0  0  0
    0.4590   -0.5740    0.2510 C   0  0  1  0  0  0  0  0  0  0  0  0
    0.8280   -1.9040    0.3870 O   0  0  0  0  0  0  0  0  0  0  0  0
    1.0840   -0.0670   -1.0430 C   0  0  0  0  0  0  0  0  0  0  0  0
    2.5570   -0.2690   -0.9330 C   0  0  0  0  0  0  0  0  0  0  0  0
    3.1840   -1.4150   -1.3330 C   0  0  0  0  0  0  0  0  0  0  0  0
    4.5500   -1.5850   -1.2250 C   0  0  0  0  0  0  0  0  0  0  0  0
    5.1940   -2.7570   -1.6330 O   0  0  0  0  0  0  0  0  0  0  0  0
    5.3420   -0.5900   -0.7030 C   0  0  0  0  0  0  0  0  0  0  0  0
    6.7160   -0.7120   -0.5740 O   0  0  0  0  0  0  0  0  0  0  0  0
    4.7210    0.5810   -0.2920 C   0  0  0  0  0  0  0  0  0  0  0  0
    5.5250    1.5840    0.2350 O   0  0  0  0  0  0  0  0  0  0  0  0
    4.9150    2.7920    0.6620 C   0  0  0  0  0  0  0  0  0  0  0  0
    3.3580    0.7440   -0.4030 C   0  0  0  0  0  0  0  0  0  0  0  0
   -1.6390    0.1830   -0.8600 C   0  0  0  0  0  0  0  0  0  0  0  0
   -1.3340   -1.4770    2.5190 O   0  0  0  0  0  0  0  0  0  0  0  0
   -2.3720   -1.2280    3.4750 C   0  0  0  0  0  0  0  0  0  0  0  0
   -3.6000   -1.2700    2.5910 C   0  0  0  0  0  0  0  0  0  0  0  0
  1  2  1  0
  2  3  1  0
  3  4  1  0
  4  5  2  0
  4 22  1  0
  5  6  1  0
  6  7  2  0
  6 25  1  0
  7  8  1  0
  7 23  1  0
  8  9  1  0
  8 22  2  0
  9 10  1  6
  9 11  1  0
 11 12  1  0
 12 13  2  0
 12 21  1  0
 13 14  1  0
 14 15  1  0
 14 16  2  0
 16 17  1  0
 16 18  1  0
 18 19  1  0
 18 21  2  0
 19 20  1  0
 23 24  1  0
 24 25  1  0
M  END
