
     RDKit          3D

 23 26  0  0  0  0  0  0  0  0999 V2000
    7.6300   -1.2690    0.5130 C   0  0  0  0  0  0  0  0  0  0  0  0
    6.3430   -0.6460    0.0180 C   0  0  0  0  0  0  0  0  0  0  0  0
    5.1260   -0.6890    0.6550 C   0  0  0  0  0  0  0  0  0  0  0  0
    4.2030    0.0100   -0.1370 C   0  0  0  0  0  0  0  0  0  0  0  0
    2.7810    0.1890    0.1840 C   0  0  0  0  0  0  0  0  0  0  0  0
    2.2680   -0.4030    1.2500 C   0  0  0  0  0  0  0  0  0  0  0  0
    0.8550   -0.3050    1.6820 C   0  0  0  0  0  0  0  0  0  0  0  0
    0.0020    0.2280    0.6790 N   0  0  0  0  0  0  0  0  0  0  0  0
   -1.3860   -0.1230    0.7310 C   0  0  0  0  0  0  0  0  0  0  0  0
   -2.0020   -0.9920    1.5430 N   0  0  0  0  0  0  0  0  0  0  0  0
   -3.2910   -1.0260    1.2890 N   0  0  0  0  0  0  0  0  0  0  0  0
   -3.5600   -0.1680    0.2880 C   0  0  0  0  0  0  0  0  0  0  0  0
   -4.8260    0.0840   -0.2790 N   0  0  0  0  0  0  0  0  0  0  0  0
   -5.8190    0.9930    0.2240 C   0  0  0  0  0  0  0  0  0  0  0  0
   -7.1140    0.2180   -0.0490 C   0  0  0  0  0  0  0  0  0  0  0  0
   -6.7820   -0.8590   -1.0350 C   0  0  0  0  0  0  0  0  0  0  0  0
   -5.3560   -0.5110   -1.4710 C   0  0  0  0  0  0  0  0  0  0  0  0
   -2.3650    0.3800   -0.0420 N   0  0  0  0  0  0  0  0  0  0  0  0
    0.4910    1.0840   -0.3450 C   0  0  0  0  0  0  0  0  0  0  0  0
    1.9380    1.0370   -0.6490 C   0  0  0  0  0  0  0  0  0  0  0  0
    4.9140    0.4420   -1.2180 C   0  0  0  0  0  0  0  0  0  0  0  0
    4.4470    1.2340   -2.3890 C   0  0  0  0  0  0  0  0  0  0  0  0
    6.1790    0.0270   -1.0790 O   0  0  0  0  0  0  0  0  0  0  0  0
  1  2  1  0
  2  3  2  0
  2 23  1  0
  3  4  1  0
  4  5  1  0
  4 21  2  0
  5  6  2  0
  5 20  1  0
  6  7  1  0
  7  8  1  0
  8  9  1  0
  8 19  1  0
  9 10  2  0
  9 18  1  0
 10 11  1  0
 11 12  1  0
 12 13  1  0
 12 18  2  0
 13 14  1  0
 13 17  1  0
 14 15  1  0
 15 16  1  0
 16 17  1  0
 19 20  1  0
 21 22  1  0
 21 23  1  0
M  END
