
     RDKit          3D

 23 26  0  0  0  0  0  0  0  0999 V2000
    6.4030   -0.2660    0.7900 C   0  0  0  0  0  0  0  0  0  0  0  0
    5.1740    0.3640    0.1580 C   0  0  0  0  0  0  0  0  0  0  0  0
    4.0920   -0.6810    0.1620 C   0  0  0  0  0  0  0  0  0  0  0  0
    2.8020   -0.1330   -0.4610 C   0  0  1  0  0  0  0  0  0  0  0  0
    1.7290   -1.2310   -0.4370 C   0  0  0  0  0  0  0  0  0  0  0  0
    0.5540   -0.6700   -1.1930 C   0  0  0  0  0  0  0  0  0  0  0  0
    0.0510    0.4580   -0.4330 N   0  0  0  0  0  0  0  0  0  0  0  0
   -1.2620    0.9000   -0.7290 C   0  0  0  0  0  0  0  0  0  0  0  0
   -1.4350    1.9840   -1.5380 N   0  0  0  0  0  0  0  0  0  0  0  0
   -2.6380    2.4260   -1.8930 C   0  0  0  0  0  0  0  0  0  0  0  0
   -3.7420    1.7960   -1.4490 N   0  0  0  0  0  0  0  0  0  0  0  0
   -3.6190    0.7110   -0.6400 C   0  0  0  0  0  0  0  0  0  0  0  0
   -2.3860    0.2540   -0.2720 C   0  0  0  0  0  0  0  0  0  0  0  0
   -2.3260   -0.8420    0.5630 C   0  0  0  0  0  0  0  0  0  0  0  0
   -1.2250   -1.2740    0.9160 O   0  0  0  0  0  0  0  0  0  0  0  0
   -3.4510   -1.4540    1.0080 N   0  0  0  0  0  0  0  0  0  0  0  0
   -4.6610   -1.0270    0.6620 C   0  0  0  0  0  0  0  0  0  0  0  0
   -5.9480   -1.4230    0.9390 C   0  0  0  0  0  0  0  0  0  0  0  0
   -6.7870   -0.6050    0.3020 N   0  0  0  0  0  0  0  0  0  0  0  0
   -6.0950    0.3200   -0.3880 C   0  0  0  0  0  0  0  0  0  0  0  0
   -4.7510    0.0730   -0.1750 C   0  0  0  0  0  0  0  0  0  0  0  0
    0.8630    1.0950    0.5800 C   0  0  0  0  0  0  0  0  0  0  0  0
    2.3270    1.0750    0.2670 C   0  0  0  0  0  0  0  0  0  0  0  0
  1  2  1  0
  2  3  1  0
  4  3  1  1
  4  5  1  0
  4 23  1  0
  5  6  1  0
  6  7  1  0
  7  8  1  0
  7 22  1  0
  8  9  2  0
  8 13  1  0
  9 10  1  0
 10 11  2  0
 11 12  1  0
 12 13  2  0
 12 21  1  0
 13 14  1  0
 14 15  2  0
 14 16  1  0
 16 17  1  0
 17 18  2  0
 17 21  1  0
 18 19  1  0
 19 20  1  0
 20 21  2  0
 22 23  1  0
M  END
