
     RDKit          3D

 23 26  0  0  0  0  0  0  0  0999 V2000
    5.3530   -1.7580    0.1880 C   0  0  0  0  0  0  0  0  0  0  0  0
    4.7060   -1.0050    1.3220 C   0  0  0  0  0  0  0  0  0  0  0  0
    3.4630   -0.3310    0.8250 C   0  0  0  0  0  0  0  0  0  0  0  0
    2.1840   -0.6880    1.0100 N   0  0  0  0  0  0  0  0  0  0  0  0
    1.3540    0.1520    0.4180 N   0  0  0  0  0  0  0  0  0  0  0  0
   -0.0930    0.1050    0.3960 C   0  0  0  0  0  0  0  0  0  0  0  0
   -0.7970    1.2910    0.5650 C   0  0  0  0  0  0  0  0  0  0  0  0
   -2.1620    1.3390    0.5600 C   0  0  0  0  0  0  0  0  0  0  0  0
   -2.8710    0.1480    0.3780 C   0  0  0  0  0  0  0  0  0  0  0  0
   -2.1630   -1.0210    0.2120 C   0  0  0  0  0  0  0  0  0  0  0  0
   -0.7860   -1.0630    0.2180 C   0  0  0  0  0  0  0  0  0  0  0  0
   -2.8540   -2.3280    0.0130 C   0  0  0  0  0  0  0  0  0  0  0  0
   -4.3050   -2.2080   -0.3010 C   0  0  0  0  0  0  0  0  0  0  0  0
   -4.9910   -1.0920    0.4470 C   0  0  0  0  0  0  0  0  0  0  0  0
   -4.2950    0.1500    0.3660 N   0  0  0  0  0  0  0  0  0  0  0  0
   -4.9860    1.4390    0.2690 C   0  0  0  0  0  0  0  0  0  0  0  0
    2.1020    1.0950   -0.1780 C   0  0  0  0  0  0  0  0  0  0  0  0
    1.7340    2.1650   -0.9040 N   0  0  0  0  0  0  0  0  0  0  0  0
    2.6680    3.0140   -1.4290 C   0  0  0  0  0  0  0  0  0  0  0  0
    3.9480    2.7380   -1.1930 N   0  0  0  0  0  0  0  0  0  0  0  0
    4.3780    1.6800   -0.4730 C   0  0  0  0  0  0  0  0  0  0  0  0
    5.5860    1.4430   -0.2660 O   0  0  0  0  0  0  0  0  0  0  0  0
    3.4320    0.8230    0.0570 C   0  0  0  0  0  0  0  0  0  0  0  0
  1  2  1  0
  2  3  1  0
  3  4  2  0
  3 23  1  0
  4  5  1  0
  5  6  1  0
  5 17  1  0
  6  7  2  0
  6 11  1  0
  7  8  1  0
  8  9  2  0
  9 10  1  0
  9 15  1  0
 10 11  2  0
 10 12  1  0
 12 13  1  0
 13 14  1  0
 14 15  1  0
 15 16  1  0
 17 18  1  0
 17 23  2  0
 18 19  2  0
 19 20  1  0
 20 21  1  0
 21 22  2  0
 21 23  1  0
M  END
