
     RDKit          3D

 23 26  0  0  0  0  0  0  0  0999 V2000
    4.1130    1.9900   -0.0970 C   0  0  0  0  0  0  0  0  0  0  0  0
    3.8480    1.1380    1.1380 C   0  0  0  0  0  0  0  0  0  0  0  0
    3.2740   -0.0830    0.7410 N   0  0  0  0  0  0  0  0  0  0  0  0
    4.0020   -1.3480    0.8450 C   0  0  0  0  0  0  0  0  0  0  0  0
    3.1780   -2.3140    1.0220 N   0  0  0  0  0  0  0  0  0  0  0  0
    1.9200   -1.7330    1.0410 N   0  0  0  0  0  0  0  0  0  0  0  0
    2.0360   -0.5380    0.1620 C   0  0  1  0  0  0  0  0  0  0  0  0
    0.8630    0.3060    0.3240 C   0  0  0  0  0  0  0  0  0  0  0  0
    0.7130    1.6150    0.7400 C   0  0  0  0  0  0  0  0  0  0  0  0
   -0.6140    1.8970    0.7450 N   0  0  0  0  0  0  0  0  0  0  0  0
   -1.2950    0.8170    0.3460 C   0  0  0  0  0  0  0  0  0  0  0  0
   -2.6800    0.7220    0.2590 C   0  0  0  0  0  0  0  0  0  0  0  0
   -3.2550    1.9570    0.1990 C   0  0  0  0  0  0  0  0  0  0  0  0
   -4.6240    2.0980    0.1190 C   0  0  0  0  0  0  0  0  0  0  0  0
   -5.3720    0.9340    0.1040 C   0  0  0  0  0  0  0  0  0  0  0  0
   -4.8020   -0.3100    0.1650 C   0  0  0  0  0  0  0  0  0  0  0  0
   -3.4520   -0.4360    0.2420 C   0  0  0  0  0  0  0  0  0  0  0  0
   -2.9940   -1.7230    0.2840 C   0  0  0  0  0  0  0  0  0  0  0  0
   -3.8140   -2.5710    0.6690 O   0  0  0  0  0  0  0  0  0  0  0  0
   -1.7350   -2.1910   -0.0480 C   0  0  0  0  0  0  0  0  0  0  0  0
   -0.6100   -1.4160   -0.4020 C   0  0  0  0  0  0  0  0  0  0  0  0
    0.3610   -1.9130   -1.3750 C   0  0  0  0  0  0  0  0  0  0  0  0
   -0.3900   -0.1810    0.0770 N   0  0  0  0  0  0  0  0  0  0  0  0
  1  2  1  0
  2  3  1  0
  3  4  1  0
  3  7  1  0
  4  5  2  0
  5  6  1  0
  6  7  1  0
  7  8  1  1
  8  9  2  0
  8 23  1  0
  9 10  1  0
 10 11  2  0
 11 12  1  0
 11 23  1  0
 12 13  2  0
 12 17  1  0
 13 14  1  0
 14 15  2  0
 15 16  1  0
 16 17  2  0
 17 18  1  0
 18 19  2  0
 18 20  1  0
 20 21  2  0
 21 22  1  0
 21 23  1  0
M  END
