
     RDKit          3D

 23 26  0  0  0  0  0  0  0  0999 V2000
   -1.3800   -3.2130   -1.0100 C   0  0  0  0  0  0  0  0  0  0  0  0
   -1.9810   -1.9120   -0.6540 C   0  0  0  0  0  0  0  0  0  0  0  0
   -3.3390   -1.7060   -0.9020 C   0  0  0  0  0  0  0  0  0  0  0  0
   -3.9520   -0.5170   -0.6020 C   0  0  0  0  0  0  0  0  0  0  0  0
   -5.2480   -0.0880   -0.7350 C   0  0  0  0  0  0  0  0  0  0  0  0
   -5.2750    1.1840   -0.2600 N   0  0  0  0  0  0  0  0  0  0  0  0
   -4.0500    1.5040    0.1440 N   0  0  0  0  0  0  0  0  0  0  0  0
   -3.6300    2.7800    0.7320 C   0  0  0  0  0  0  0  0  0  0  0  0
   -3.2200    0.4880   -0.0500 C   0  0  0  0  0  0  0  0  0  0  0  0
   -1.8750    0.2890    0.1930 C   0  0  0  0  0  0  0  0  0  0  0  0
   -1.2090   -0.9310   -0.1040 C   0  0  0  0  0  0  0  0  0  0  0  0
    0.1450   -1.0920    0.1740 N   0  0  0  0  0  0  0  0  0  0  0  0
    1.2350   -0.3160   -0.5150 C   0  0  0  0  0  0  0  0  0  0  0  0
    2.1110   -0.0540    0.6950 C   0  0  2  0  0  0  0  0  0  0  0  0
    3.4520    0.4130    0.3720 C   0  0  0  0  0  0  0  0  0  0  0  0
    4.5690   -0.3030    0.5620 N   0  0  0  0  0  0  0  0  0  0  0  0
    5.6560    0.4050    0.3790 N   0  0  0  0  0  0  0  0  0  0  0  0
    5.2580    1.6550    0.0470 C   0  0  0  0  0  0  0  0  0  0  0  0
    3.8840    1.6700    0.0430 C   0  0  0  0  0  0  0  0  0  0  0  0
    2.9750    2.7650   -0.3250 C   0  0  0  0  0  0  0  0  0  0  0  0
    2.2180   -1.5850    1.1290 C   0  0  0  0  0  0  0  0  0  0  0  0
    0.7730   -1.9190    1.1220 C   0  0  0  0  0  0  0  0  0  0  0  0
    0.3020   -2.7940    1.8740 O   0  0  0  0  0  0  0  0  0  0  0  0
  1  2  1  0
  2  3  2  0
  2 11  1  0
  3  4  1  0
  4  5  1  0
  4  9  2  0
  5  6  2  0
  6  7  1  0
  7  8  1  0
  7  9  1  0
  9 10  1  0
 10 11  2  0
 11 12  1  0
 12 13  1  0
 12 22  1  0
 13 14  1  0
 14 15  1  6
 14 21  1  0
 15 16  1  0
 15 19  2  0
 16 17  1  0
 17 18  2  0
 18 19  1  0
 19 20  1  0
 21 22  1  0
 22 23  2  0
M  END
