
     RDKit          3D

 23 23  0  0  0  0  0  0  0  0999 V2000
    4.1240    0.0810   -0.7940 C   0  0  0  0  0  0  0  0  0  0  0  0
    3.1160   -0.1500   -0.0020 C   0  0  0  0  0  0  0  0  0  0  0  0
    2.6020    0.8610    0.9960 C   0  0  0  0  0  0  0  0  0  0  0  0
    1.0810    1.0400    0.7830 C   0  0  0  0  0  0  0  0  0  0  0  0
    0.7330    2.3920    0.3950 C   0  0  0  0  0  0  0  0  0  0  0  0
    1.5130    3.3470    0.9510 C   0  0  0  0  0  0  0  0  0  0  0  0
    1.3230    4.6840    0.6880 O   0  0  0  0  0  0  0  0  0  0  0  0
   -0.1850    2.8190   -0.6450 C   0  0  0  0  0  0  0  0  0  0  0  0
   -0.3150    4.2850   -0.9700 C   0  0  0  0  0  0  0  0  0  0  0  0
   -0.9310    2.1040   -1.3550 O   0  0  0  0  0  0  0  0  0  0  0  0
    0.4350   -0.0730    0.5880 C   0  0  0  0  0  0  0  0  0  0  0  0
   -1.0070   -0.0340    0.4210 C   0  0  0  0  0  0  0  0  0  0  0  0
   -1.7640    0.9440    0.5580 O   0  0  0  0  0  0  0  0  0  0  0  0
   -1.7040   -1.2060    0.0570 O   0  0  0  0  0  0  0  0  0  0  0  0
   -3.1050   -1.2310   -0.1240 C   0  0  1  0  0  0  0  0  0  0  0  0
   -3.4440   -0.2470   -1.2270 C   0  0  0  0  0  0  0  0  0  0  0  0
   -3.4310   -2.6080   -0.6620 C   0  0  0  0  0  0  0  0  0  0  0  0
   -3.8830   -1.0050    1.1250 C   0  0  0  0  0  0  0  0  0  0  0  0
    1.0430   -1.4370    0.5420 C   0  0  2  0  0  0  0  0  0  0  0  0
    1.0330   -1.9550    1.8120 O   0  0  0  0  0  0  0  0  0  0  0  0
    2.4110   -1.4050   -0.0220 C   0  0  0  0  0  0  0  0  0  0  0  0
    2.9230   -2.5000   -0.5100 C   0  0  0  0  0  0  0  0  0  0  0  0
    2.1710   -3.7800   -0.5160 C   0  0  0  0  0  0  0  0  0  0  0  0
  1  2  2  0
  2  3  1  0
  2 21  1  0
  3  4  1  0
  4  5  1  0
  4 11  2  0
  5  6  2  3
  5  8  1  0
  6  7  1  0
  8  9  1  0
  8 10  2  0
 11 12  1  0
 11 19  1  0
 12 13  2  0
 12 14  1  0
 14 15  1  0
 15 16  1  6
 15 17  1  0
 15 18  1  0
 19 20  1  1
 19 21  1  0
 21 22  2  3
 22 23  1  0
M  END
