
     RDKit          3D

 23 23  0  0  0  0  0  0  0  0999 V2000
   -0.6880    3.4000    0.4100 C   0  0  0  0  0  0  0  0  0  0  0  0
   -0.8310    2.2300   -0.1840 C   0  0  0  0  0  0  0  0  0  0  0  0
   -2.1280    1.8060   -0.6210 C   0  0  0  0  0  0  0  0  0  0  0  0
   -2.7280    0.6450   -0.3870 C   0  0  0  0  0  0  0  0  0  0  0  0
   -4.0640    0.4210   -0.9340 C   0  0  0  0  0  0  0  0  0  0  0  0
   -4.7230    1.5150   -1.7480 C   0  0  0  0  0  0  0  0  0  0  0  0
   -4.7770   -0.6580   -0.7920 C   0  0  0  0  0  0  0  0  0  0  0  0
   -4.3380   -1.7440   -0.0880 O   0  0  0  0  0  0  0  0  0  0  0  0
   -2.0980   -0.4280    0.4110 C   0  0  0  0  0  0  0  0  0  0  0  0
   -1.8110   -1.5450   -0.3530 O   0  0  0  0  0  0  0  0  0  0  0  0
   -0.6760   -2.2530   -0.5330 C   0  0  0  0  0  0  0  0  0  0  0  0
   -0.1400   -2.4320   -1.6570 O   0  0  0  0  0  0  0  0  0  0  0  0
    0.0090   -2.8700    0.6270 C   0  0  0  0  0  0  0  0  0  0  0  0
    1.4870   -3.0970    0.3470 C   0  0  0  0  0  0  0  0  0  0  0  0
    2.3620   -2.1380    1.0860 C   0  0  0  0  0  0  0  0  0  0  0  0
    2.3330   -0.7390    0.4670 C   0  0  2  0  0  0  0  0  0  0  0  0
    3.7460   -0.3210    0.2680 C   0  0  0  0  0  0  0  0  0  0  0  0
    4.6790   -1.0860    0.5930 O   0  0  0  0  0  0  0  0  0  0  0  0
    4.0810    0.9130   -0.2780 O   0  0  0  0  0  0  0  0  0  0  0  0
    5.4510    1.2300   -0.4330 C   0  0  0  0  0  0  0  0  0  0  0  0
    1.7210    0.2070    1.4490 C   0  0  0  0  0  0  0  0  0  0  0  0
    1.2180    1.4910    0.9000 C   0  0  0  0  0  0  0  0  0  0  0  0
    0.4400    1.4350   -0.3600 C   0  0  0  0  0  0  0  0  0  0  0  0
  1  2  2  0
  2  3  1  0
  2 23  1  0
  3  4  2  0
  4  5  1  0
  4  9  1  0
  5  6  1  0
  5  7  2  3
  7  8  1  0
  9 10  1  0
 10 11  1  0
 11 12  2  0
 11 13  1  0
 13 14  1  0
 14 15  1  0
 15 16  1  0
 16 17  1  1
 16 21  1  0
 17 18  2  0
 17 19  1  0
 19 20  1  0
 21 22  1  0
 22 23  1  0
M  END
