
     RDKit          3D

 10 10  0  0  0  0  0  0  0  0999 V2000
    1.5430   -2.0720    0.1760 O   0  0  0  0  0  0  0  0  0  0  0  0
    1.6200   -0.7030   -0.0510 C   0  0  0  0  0  0  0  0  0  0  0  0
    0.2960   -0.0620    0.3070 C   0  0  2  0  0  0  0  0  0  0  0  0
    0.0410   -0.3070    1.6340 O   0  0  0  0  0  0  0  0  0  0  0  0
   -0.8000   -0.6210   -0.5990 C   0  0  1  0  0  0  0  0  0  0  0  0
   -1.3760   -1.7560   -0.1050 O   0  0  0  0  0  0  0  0  0  0  0  0
   -1.7490    0.5780   -0.6030 C   0  0  0  0  0  0  0  0  0  0  0  0
   -0.8460    1.6170   -0.8370 O   0  0  0  0  0  0  0  0  0  0  0  0
    0.2540    1.3970   -0.0440 C   0  0  2  0  0  0  0  0  0  0  0  0
    1.4010    1.7630   -0.7630 O   0  0  0  0  0  0  0  0  0  0  0  0
  1  2  1  0
  2  3  1  0
  3  4  1  1
  3  5  1  0
  3  9  1  0
  5  6  1  1
  5  7  1  0
  7  8  1  0
  8  9  1  0
  9 10  1  6
M  END
