
     RDKit          3D

 20 22  0  0  0  0  0  0  0  0999 V2000
   -6.4030    1.5480    0.3720 N   0  0  0  0  0  0  0  0  0  0  0  0
   -5.2090    0.8210    0.2580 C   0  0  0  0  0  0  0  0  0  0  0  0
   -4.0740    1.3140    0.8720 N   0  0  0  0  0  0  0  0  0  0  0  0
   -2.8830    0.7030    0.7760 C   0  0  0  0  0  0  0  0  0  0  0  0
   -1.6320    1.0110    1.2210 N   0  0  0  0  0  0  0  0  0  0  0  0
   -0.7870    0.0830    0.7690 C   0  0  0  0  0  0  0  0  0  0  0  0
    0.9790    0.1950    0.9750 S   0  0  0  0  0  0  0  0  0  0  0  0
    1.8570   -1.0700   -0.0570 C   0  0  0  0  0  0  0  0  0  0  0  0
    3.2730   -0.6720    0.1330 C   0  0  0  0  0  0  0  0  0  0  0  0
    3.5570    0.6800   -0.1430 C   0  0  0  0  0  0  0  0  0  0  0  0
    4.9100    1.0730   -0.0940 C   0  0  0  0  0  0  0  0  0  0  0  0
    5.9240    0.1940    0.2180 C   0  0  0  0  0  0  0  0  0  0  0  0
    5.5620   -1.1190    0.4790 C   0  0  0  0  0  0  0  0  0  0  0  0
    4.2910   -1.5270    0.4350 C   0  0  0  0  0  0  0  0  0  0  0  0
    3.9230   -2.7870    0.6960 F   0  0  0  0  0  0  0  0  0  0  0  0
   -1.4640   -0.8060    0.0590 N   0  0  0  0  0  0  0  0  0  0  0  0
   -2.7480   -0.4790    0.0270 C   0  0  0  0  0  0  0  0  0  0  0  0
   -3.8800   -0.9870   -0.6080 C   0  0  0  0  0  0  0  0  0  0  0  0
   -3.8340   -2.0040   -1.2890 O   0  0  0  0  0  0  0  0  0  0  0  0
   -5.0510   -0.3100   -0.4630 N   0  0  0  0  0  0  0  0  0  0  0  0
  1  2  1  0
  2  3  2  0
  2 20  1  0
  3  4  1  0
  4  5  1  0
  4 17  2  0
  5  6  1  0
  6  7  1  0
  6 16  2  0
  7  8  1  0
  8  9  1  0
  9 10  2  0
  9 14  1  0
 10 11  1  0
 11 12  2  0
 12 13  1  0
 13 14  2  0
 14 15  1  0
 16 17  1  0
 17 18  1  0
 18 19  2  0
 18 20  1  0
M  END
