
     RDKit          3D

 23 25  0  0  0  0  0  0  0  0999 V2000
    5.6720   -1.0360   -0.9470 C   0  0  0  0  0  0  0  0  0  0  0  0
    4.9250    0.0030   -1.5940 N   0  0  0  0  0  0  0  0  0  0  0  0
    3.5480    0.0420   -1.1760 C   0  0  0  0  0  0  0  0  0  0  0  0
    3.4480    0.6050    0.2570 C   0  0  0  0  0  0  0  0  0  0  0  0
    4.6000    0.9600    0.9060 C   0  0  0  0  0  0  0  0  0  0  0  0
    3.9650    1.5500    2.5280 S   0  0  0  0  0  0  0  0  0  0  0  0
    2.2810    1.2580    2.1530 C   0  0  0  0  0  0  0  0  0  0  0  0
    1.0340    1.3660    2.6910 N   0  0  0  0  0  0  0  0  0  0  0  0
    0.2240    0.9190    1.7380 C   0  0  0  0  0  0  0  0  0  0  0  0
   -1.0630    0.8670    1.8830 N   0  0  0  0  0  0  0  0  0  0  0  0
   -1.8440    0.3670    0.7890 C   0  0  0  0  0  0  0  0  0  0  0  0
   -2.2580    1.2030   -0.0360 O   0  0  0  0  0  0  0  0  0  0  0  0
   -2.1080   -1.0900    0.7050 C   0  0  0  0  0  0  0  0  0  0  0  0
   -2.9490   -1.3220   -0.3990 O   0  0  0  0  0  0  0  0  0  0  0  0
   -4.2480   -0.7880   -0.4710 C   0  0  0  0  0  0  0  0  0  0  0  0
   -4.7880   -0.0260    0.5420 C   0  0  0  0  0  0  0  0  0  0  0  0
   -6.0750    0.4490    0.3580 C   0  0  0  0  0  0  0  0  0  0  0  0
   -6.7860    0.1720   -0.7880 C   0  0  0  0  0  0  0  0  0  0  0  0
   -6.2090   -0.5750   -1.7390 N   0  0  0  0  0  0  0  0  0  0  0  0
   -4.9670   -1.0660   -1.6250 C   0  0  0  0  0  0  0  0  0  0  0  0
   -4.3830   -1.8430   -2.6280 O   0  0  0  0  0  0  0  0  0  0  0  0
    0.9420    0.5480    0.6490 N   0  0  0  0  0  0  0  0  0  0  0  0
    2.2790    0.7710    0.9270 C   0  0  0  0  0  0  0  0  0  0  0  0
  1  2  1  0
  2  3  1  0
  3  4  1  0
  4  5  2  0
  4 23  1  0
  5  6  1  0
  6  7  1  0
  7  8  1  0
  7 23  2  0
  8  9  1  0
  9 10  2  3
  9 22  1  0
 10 11  1  0
 11 12  2  0
 11 13  1  0
 13 14  1  0
 14 15  1  0
 15 16  2  0
 15 20  1  0
 16 17  1  0
 17 18  2  0
 18 19  1  0
 19 20  2  0
 20 21  1  0
 22 23  1  0
M  CHG  1   2   1
M  END
