
     RDKit          3D

 23 25  0  0  0  0  0  0  0  0999 V2000
    7.6090   -0.2370   -0.6060 N   0  0  0  0  0  0  0  0  0  0  0  0
    6.3310    0.3220   -0.2100 C   0  0  0  0  0  0  0  0  0  0  0  0
    5.2540   -0.3960   -0.9600 C   0  0  0  0  0  0  0  0  0  0  0  0
    3.9330    0.1180   -0.6100 N   0  0  0  0  0  0  0  0  0  0  0  0
    2.7530   -0.4060   -1.1910 C   0  0  0  0  0  0  0  0  0  0  0  0
    2.8680   -1.3240   -2.0170 O   0  0  0  0  0  0  0  0  0  0  0  0
    1.4960    0.1740   -0.7750 C   0  0  0  0  0  0  0  0  0  0  0  0
    1.1690    1.1740    0.1070 C   0  0  0  0  0  0  0  0  0  0  0  0
   -0.1070    1.4280    0.2240 N   0  0  0  0  0  0  0  0  0  0  0  0
   -1.0170    0.9290   -0.3100 C   0  0  0  0  0  0  0  0  0  0  0  0
   -2.4630    0.9420   -0.4270 N   0  0  0  0  0  0  0  0  0  0  0  0
   -3.1360    0.2370    0.4020 C   0  0  0  0  0  0  0  0  0  0  0  0
   -2.5320   -0.4910    1.3490 N   0  0  0  0  0  0  0  0  0  0  0  0
   -3.2730   -1.2320    2.2180 C   0  0  0  0  0  0  0  0  0  0  0  0
   -2.6850   -1.9110    3.1040 O   0  0  0  0  0  0  0  0  0  0  0  0
   -4.5890   -1.2340    2.1300 O   0  0  0  0  0  0  0  0  0  0  0  0
   -5.2450   -0.5430    1.2240 C   0  0  0  0  0  0  0  0  0  0  0  0
   -6.6250   -0.5800    1.1730 C   0  0  0  0  0  0  0  0  0  0  0  0
   -7.2930    0.1590    0.2080 C   0  0  0  0  0  0  0  0  0  0  0  0
   -6.5720    0.9190   -0.6860 C   0  0  0  0  0  0  0  0  0  0  0  0
   -5.1840    0.9360   -0.6110 C   0  0  0  0  0  0  0  0  0  0  0  0
   -4.5090    0.2180    0.3300 C   0  0  0  0  0  0  0  0  0  0  0  0
   -0.0890   -0.3340   -1.3780 S   0  0  0  0  0  0  0  0  0  0  0  0
  1  2  1  0
  2  3  1  0
  3  4  1  0
  4  5  1  0
  5  6  2  0
  5  7  1  0
  7  8  2  0
  7 23  1  0
  8  9  1  0
  9 10  2  0
 10 11  1  0
 10 23  1  0
 11 12  2  3
 12 13  1  0
 12 22  1  0
 13 14  1  0
 14 15  2  0
 14 16  1  0
 16 17  1  0
 17 18  2  0
 17 22  1  0
 18 19  1  0
 19 20  2  0
 20 21  1  0
 21 22  2  0
M  CHG  1   1   1
M  END
