
     RDKit          3D

 23 25  0  0  0  0  0  0  0  0999 V2000
   -5.1660    0.8140   -0.0100 N   0  0  0  0  0  0  0  0  0  0  0  0
   -3.9270    0.2080   -0.4300 C   0  0  1  0  0  0  0  0  0  0  0  0
   -3.6270    0.6800   -1.8380 C   0  0  0  0  0  0  0  0  0  0  0  0
   -4.6500    0.3100   -2.7250 O   0  0  0  0  0  0  0  0  0  0  0  0
   -2.7730    0.5600    0.4470 C   0  0  0  0  0  0  0  0  0  0  0  0
   -2.9460    0.1580    1.8160 N   0  0  0  0  0  0  0  0  0  0  0  0
   -1.5970    0.5790    2.7970 S   0  0  1  0  0  0  0  0  0  0  0  0
   -1.3400    2.0510    2.6440 O   0  0  0  0  0  0  0  0  0  0  0  0
   -1.8050    0.2570    4.2270 O   0  0  0  0  0  0  0  0  0  0  0  0
   -0.1950   -0.2660    2.1610 C   0  0  0  0  0  0  0  0  0  0  0  0
    0.6530    0.2220    1.1980 C   0  0  0  0  0  0  0  0  0  0  0  0
    1.6120   -0.7430    0.9890 C   0  0  0  0  0  0  0  0  0  0  0  0
    1.3040   -1.7810    1.8370 C   0  0  0  0  0  0  0  0  0  0  0  0
    0.2060   -1.4850    2.5460 N   0  0  0  0  0  0  0  0  0  0  0  0
    2.2480   -2.7280    1.6290 N   0  0  0  0  0  0  0  0  0  0  0  0
    3.0830   -2.2580    0.6870 C   0  0  0  0  0  0  0  0  0  0  0  0
    2.7130   -1.0330    0.2730 N   0  0  0  0  0  0  0  0  0  0  0  0
    3.3080   -0.1800   -0.6980 C   0  0  0  0  0  0  0  0  0  0  0  0
    3.6050    1.1460   -0.4560 C   0  0  0  0  0  0  0  0  0  0  0  0
    4.1820    1.9560   -1.4130 C   0  0  0  0  0  0  0  0  0  0  0  0
    4.4880    1.4660   -2.6660 C   0  0  0  0  0  0  0  0  0  0  0  0
    4.1940    0.1420   -2.9140 C   0  0  0  0  0  0  0  0  0  0  0  0
    3.6160   -0.6660   -1.9530 C   0  0  0  0  0  0  0  0  0  0  0  0
  2  1  1  1
  2  3  1  0
  2  5  1  0
  3  4  1  0
  5  6  1  0
  7  6  1  6
  7  8  2  0
  7  9  2  0
  7 10  1  0
 10 11  2  0
 10 14  1  0
 11 12  1  0
 12 13  2  0
 12 17  1  0
 13 14  1  0
 13 15  1  0
 15 16  2  0
 16 17  1  0
 17 18  1  0
 18 19  2  0
 18 23  1  0
 19 20  1  0
 20 21  2  0
 21 22  1  0
 22 23  2  0
M  CHG  1  15   1
M  END
