
     RDKit          3D

 24 25  0  0  0  0  0  0  0  0999 V2000
   -3.7000   -1.0060    1.8430 C   0  0  0  0  0  0  0  0  0  0  0  0
   -3.3020    0.5540    1.0840 S   0  0  2  0  0  0  0  0  0  0  0  0
   -3.2020    1.6460    2.1100 O   0  0  0  0  0  0  0  0  0  0  0  0
   -4.4720    0.8720    0.0580 C   0  0  0  0  0  0  0  0  0  0  0  0
   -5.9280    1.1350    0.2790 C   0  0  0  0  0  0  0  0  0  0  0  0
   -6.4430    1.3580   -1.1040 C   0  0  0  0  0  0  0  0  0  0  0  0
   -5.3000    1.2170   -2.0170 C   0  0  0  0  0  0  0  0  0  0  0  0
   -4.1720    0.9390   -1.3570 C   0  0  0  0  0  0  0  0  0  0  0  0
   -2.8510    0.7270   -1.8640 N   0  0  0  0  0  0  0  0  0  0  0  0
   -1.7440    0.4400   -1.0540 C   0  0  0  0  0  0  0  0  0  0  0  0
   -0.3820    0.2280   -1.6640 C   0  0  0  0  0  0  0  0  0  0  0  0
    0.5940   -0.0540   -0.6360 N   0  0  0  0  0  0  0  0  0  0  0  0
    1.9430   -0.2870   -0.9840 C   0  0  0  0  0  0  0  0  0  0  0  0
    2.2350   -0.2350   -2.2160 O   0  0  0  0  0  0  0  0  0  0  0  0
    2.9620   -0.5690   -0.0380 N   0  0  0  0  0  0  0  0  0  0  0  0
    4.3390   -0.8050   -0.4090 C   0  0  1  0  0  0  0  0  0  0  0  0
    5.3220    0.1510    0.1540 C   0  0  0  0  0  0  0  0  0  0  0  0
    5.3980    0.2540    1.6040 C   0  0  0  0  0  0  0  0  0  0  0  0
    6.3560    1.0940    2.2550 N   0  0  0  0  0  0  0  0  0  0  0  0
    4.6300   -0.3860    2.3500 O   0  0  0  0  0  0  0  0  0  0  0  0
    4.7020   -2.1830   -0.0670 C   0  0  0  0  0  0  0  0  0  0  0  0
    4.5630   -2.7300    1.2300 N   0  0  0  0  0  0  0  0  0  0  0  0
    5.3120   -3.1920   -1.2190 S   0  0  0  0  0  0  0  0  0  0  0  0
   -1.8420    0.3460    0.2190 N   0  0  0  0  0  0  0  0  0  0  0  0
  2  1  1  1
  2  3  2  0
  2  4  2  0
  2 24  1  0
  4  5  1  0
  4  8  1  0
  5  6  1  0
  6  7  1  0
  7  8  2  0
  8  9  1  0
  9 10  1  0
 10 11  1  0
 10 24  2  0
 11 12  1  0
 12 13  1  0
 13 14  2  0
 13 15  1  0
 15 16  1  0
 16 17  1  1
 16 21  1  0
 17 18  1  0
 18 19  1  0
 18 20  2  0
 21 22  1  0
 21 23  2  0
M  END
