
     RDKit          3D

 24 26  0  0  0  0  0  0  0  0999 V2000
   -0.3750    1.6180   -0.8480 C   0  0  0  0  0  0  0  0  0  0  0  0
   -0.2340    0.2520   -0.2770 C   0  0  1  0  0  0  0  0  0  0  0  0
   -1.3580   -0.9350   -1.0890 S   0  0  0  0  0  0  0  0  0  0  0  0
   -3.0360   -0.5320   -0.6460 C   0  0  0  0  0  0  0  0  0  0  0  0
   -3.5770   -1.1020    0.4400 N   0  0  0  0  0  0  0  0  0  0  0  0
   -4.8350   -0.8420    0.8130 C   0  0  0  0  0  0  0  0  0  0  0  0
   -5.5600    0.0470    0.0280 C   0  0  0  0  0  0  0  0  0  0  0  0
   -4.9980    0.6240   -1.0770 C   0  0  0  0  0  0  0  0  0  0  0  0
   -5.6200    1.4280   -1.8030 O   0  0  0  0  0  0  0  0  0  0  0  0
   -3.7150    0.3260   -1.4140 N   0  0  0  0  0  0  0  0  0  0  0  0
   -6.7360    0.1880    0.5190 N   0  0  0  0  0  0  0  0  0  0  0  0
   -6.8500   -0.5950    1.6450 N   0  0  0  0  0  0  0  0  0  0  0  0
   -5.6000   -1.2460    1.8050 C   0  0  0  0  0  0  0  0  0  0  0  0
    1.0610   -0.3500   -0.2370 C   0  0  0  0  0  0  0  0  0  0  0  0
    1.4260   -1.4410   -0.2590 O   0  0  0  0  0  0  0  0  0  0  0  0
    2.3310    0.8230   -0.1230 N   0  0  0  0  0  0  0  0  0  0  0  0
    3.4220   -0.0970   -0.0170 C   0  0  0  0  0  0  0  0  0  0  0  0
    3.4730   -1.2680    0.0130 O   0  0  0  0  0  0  0  0  0  0  0  0
    4.6850    0.7050    0.0570 N   0  0  0  0  0  0  0  0  0  0  0  0
    5.9490    0.0340    0.0990 C   0  0  0  0  0  0  0  0  0  0  0  0
    6.2000   -1.1720   -0.4290 C   0  0  0  0  0  0  0  0  0  0  0  0
    7.4090   -1.7150   -0.3100 C   0  0  0  0  0  0  0  0  0  0  0  0
    8.3750   -0.5050    0.6160 S   0  0  0  0  0  0  0  0  0  0  0  0
    6.9750    0.6720    0.7550 C   0  0  0  0  0  0  0  0  0  0  0  0
  2  1  1  6
  2  3  1  0
  2 14  1  0
  3  4  1  0
  4  5  2  0
  4 10  1  0
  5  6  1  0
  6  7  1  0
  6 13  2  0
  7  8  1  0
  7 11  2  0
  8  9  2  0
  8 10  1  0
 11 12  1  0
 12 13  1  0
 14 15  2  0
 14 16  1  0
 16 17  1  0
 17 18  2  0
 17 19  1  0
 19 20  1  0
 20 21  1  0
 20 24  2  0
 21 22  2  0
 22 23  1  0
 23 24  1  0
M  CHG  1  12   1
M  END
