
     RDKit          3D

 17 17  0  0  0  0  0  0  0  0999 V2000
   -4.2200   -1.7840    0.2300 N   0  0  0  0  0  0  0  0  0  0  0  0
   -3.6930   -0.4610   -0.1360 C   0  0  0  0  0  0  0  0  0  0  0  0
   -2.2730   -0.4110    0.3630 C   0  0  0  0  0  0  0  0  0  0  0  0
   -1.6750    0.9290    0.0160 C   0  0  0  0  0  0  0  0  0  0  0  0
   -2.4170    1.7160   -0.5880 O   0  0  0  0  0  0  0  0  0  0  0  0
   -0.3330    1.2700    0.3650 C   0  0  0  0  0  0  0  0  0  0  0  0
    0.2540    2.3690    0.1120 C   0  0  0  0  0  0  0  0  0  0  0  0
   -0.2690    3.5350   -0.5790 C   0  0  0  0  0  0  0  0  0  0  0  0
   -0.2720    4.9960    0.4470 Cl  0  0  0  0  0  0  0  0  0  0  0  0
    0.3980    0.2260    1.0790 N   0  0  0  0  0  0  0  0  0  0  0  0
    1.5600   -0.3500    0.5450 C   0  0  0  0  0  0  0  0  0  0  0  0
    2.2240   -1.3240    1.2350 C   0  0  0  0  0  0  0  0  0  0  0  0
    3.3890   -1.9230    0.7330 C   0  0  0  0  0  0  0  0  0  0  0  0
    3.8760   -1.5130   -0.4950 C   0  0  0  0  0  0  0  0  0  0  0  0
    5.3660   -2.2670   -1.1530 S   0  0  0  0  0  0  0  0  0  0  0  0
    3.1970   -0.5300   -1.1800 C   0  0  0  0  0  0  0  0  0  0  0  0
    2.0340    0.0620   -0.6700 C   0  0  0  0  0  0  0  0  0  0  0  0
  1  2  1  0
  2  3  1  0
  3  4  1  0
  4  5  2  0
  4  6  1  0
  6  7  2  3
  6 10  1  0
  7  8  1  0
  8  9  1  0
 10 11  1  0
 11 12  2  0
 11 17  1  0
 12 13  1  0
 13 14  2  0
 14 15  1  0
 14 16  1  0
 16 17  2  0
M  CHG  1   1   1
M  END
