
     RDKit          3D

 17 17  0  0  0  0  0  0  0  0999 V2000
    1.5990   -0.8240    2.8350 C   0  0  0  0  0  0  0  0  0  0  0  0
    1.0950   -0.3070    1.5920 C   0  0  0  0  0  0  0  0  0  0  0  0
    1.7190    0.0540    0.4610 C   0  0  0  0  0  0  0  0  0  0  0  0
    3.1350   -0.0210    0.2860 C   0  0  0  0  0  0  0  0  0  0  0  0
    3.7370    0.3840   -0.9700 N   0  0  0  0  0  0  0  0  0  0  0  0
    4.0350   -0.4170    1.1210 N   0  0  0  0  0  0  0  0  0  0  0  0
    0.7900    0.4970   -0.5730 C   0  0  0  0  0  0  0  0  0  0  0  0
    1.1080    0.9170   -1.7320 C   0  0  0  0  0  0  0  0  0  0  0  0
   -0.0180    1.3460   -2.6830 C   0  0  0  0  0  0  0  0  0  0  0  0
    0.2570    3.0480   -3.1380 Cl  0  0  0  0  0  0  0  0  0  0  0  0
   -0.6000    0.4710   -0.3160 O   0  0  0  0  0  0  0  0  0  0  0  0
   -1.3890   -0.6710   -0.5020 C   0  0  0  0  0  0  0  0  0  0  0  0
   -2.7690   -0.3140   -0.1400 C   0  0  0  0  0  0  0  0  0  0  0  0
   -3.9050   -1.0480   -0.1430 C   0  0  0  0  0  0  0  0  0  0  0  0
   -5.0650   -0.5080    0.2310 C   0  0  0  0  0  0  0  0  0  0  0  0
   -5.0970    0.7680    0.6110 C   0  0  0  0  0  0  0  0  0  0  0  0
   -3.3420    1.2680    0.4300 S   0  0  0  0  0  0  0  0  0  0  0  0
  1  2  1  0
  2  3  2  3
  3  4  1  0
  3  7  1  0
  4  5  1  0
  4  6  2  0
  7  8  2  3
  7 11  1  0
  8  9  1  0
  9 10  1  0
 11 12  1  0
 12 13  1  0
 13 14  2  0
 13 17  1  0
 14 15  1  0
 15 16  2  0
 16 17  1  0
M  CHG  1   6   1
M  END
