
     RDKit          3D

 10 10  0  0  0  0  0  0  0  0999 V2000
    3.4440   -1.3670    0.1860 N   0  0  0  0  0  0  0  0  0  0  0  0
    2.4880   -0.5550    0.9200 C   0  0  0  0  0  0  0  0  0  0  0  0
    2.2620    0.6590    0.1200 C   0  0  0  0  0  0  0  0  0  0  0  0
    1.1540    1.1120   -0.3930 C   0  0  0  0  0  0  0  0  0  0  0  0
   -0.1700    0.5260   -0.3060 C   0  0  0  0  0  0  0  0  0  0  0  0
   -1.2100    1.1400   -0.9050 C   0  0  0  0  0  0  0  0  0  0  0  0
   -2.5800    0.5520   -0.8270 C   0  0  0  0  0  0  0  0  0  0  0  0
   -2.8380   -0.0700    0.5250 C   0  0  0  0  0  0  0  0  0  0  0  0
   -1.6910   -0.9080    1.0050 C   0  0  0  0  0  0  0  0  0  0  0  0
   -0.4840   -0.6360    0.3500 O   0  0  0  0  0  0  0  0  0  0  0  0
  1  2  1  0
  2  3  1  0
  3  4  2  3
  4  5  1  0
  5  6  2  0
  5 10  1  0
  6  7  1  0
  7  8  1  0
  8  9  1  0
  9 10  1  0
M  END
