
     RDKit          3D

 25 27  0  0  0  0  0  0  0  0999 V2000
   -3.4300    1.5230    4.3120 Br  0  0  0  0  0  0  0  0  0  0  0  0
   -4.0190    0.6520    2.7190 C   0  0  0  0  0  0  0  0  0  0  0  0
   -5.0460   -0.9420    2.8700 Br  0  0  0  0  0  0  0  0  0  0  0  0
   -3.7420    1.1120    1.5520 N   0  0  0  0  0  0  0  0  0  0  0  0
   -4.1990    0.4320    0.3950 C   0  0  0  0  0  0  0  0  0  0  0  0
   -3.4230   -0.2920   -0.3880 C   0  0  0  0  0  0  0  0  0  0  0  0
   -2.0080   -0.4990   -0.1870 N   0  0  0  0  0  0  0  0  0  0  0  0
   -1.4340   -1.7020   -0.0020 C   0  0  0  0  0  0  0  0  0  0  0  0
   -0.1020   -1.5150    0.1520 N   0  0  0  0  0  0  0  0  0  0  0  0
    0.1500   -0.1960    0.0620 C   0  0  0  0  0  0  0  0  0  0  0  0
    1.4850    0.4990    0.1700 C   0  0  0  0  0  0  0  0  0  0  0  0
    2.1240    0.6120   -1.1690 C   0  0  0  0  0  0  0  0  0  0  0  0
    3.3970    1.2660   -1.0490 N   0  0  0  0  0  0  0  0  0  0  0  0
    4.5170    0.6630   -0.4550 C   0  0  0  0  0  0  0  0  0  0  0  0
    4.5190   -0.6290    0.0070 C   0  0  0  0  0  0  0  0  0  0  0  0
    5.6240   -1.2040    0.6040 C   0  0  0  0  0  0  0  0  0  0  0  0
    6.7600   -0.4450    0.7360 C   0  0  0  0  0  0  0  0  0  0  0  0
    8.3370   -1.1830    1.5600 Br  0  0  0  0  0  0  0  0  0  0  0  0
    6.7480    0.8410    0.2720 C   0  0  0  0  0  0  0  0  0  0  0  0
    8.3340    1.9180    0.4500 Br  0  0  0  0  0  0  0  0  0  0  0  0
    5.6640    1.3820   -0.3060 N   0  0  0  0  0  0  0  0  0  0  0  0
   -1.0480    0.3820   -0.1450 N   0  0  0  0  0  0  0  0  0  0  0  0
   -4.2680   -0.8340   -1.4720 C   0  0  0  0  0  0  0  0  0  0  0  0
   -5.3640    0.1030   -1.5420 N   0  0  0  0  0  0  0  0  0  0  0  0
   -5.6090    0.4230   -0.1310 C   0  0  0  0  0  0  0  0  0  0  0  0
  1  2  1  0
  2  3  1  0
  2  4  2  3
  4  5  1  0
  5  6  2  0
  5 25  1  0
  6  7  1  0
  6 23  1  0
  7  8  1  0
  7 22  1  0
  8  9  2  0
  9 10  1  0
 10 11  1  0
 10 22  2  0
 11 12  1  0
 12 13  1  0
 13 14  1  0
 14 15  2  0
 14 21  1  0
 15 16  1  0
 16 17  2  0
 17 18  1  0
 17 19  1  0
 19 20  1  0
 19 21  2  0
 23 24  1  0
 24 25  1  0
M  CHG  1  24   1
M  END
