
     RDKit          3D

 25 27  0  0  0  0  0  0  0  0999 V2000
   -3.5060    1.6680   -0.4750 C   0  0  0  0  0  0  0  0  0  0  0  0
   -3.9240    0.5370   -1.2320 N   0  0  0  0  0  0  0  0  0  0  0  0
   -4.9520    0.9080   -2.1530 C   0  0  0  0  0  0  0  0  0  0  0  0
   -4.1700   -0.6610   -0.4910 C   0  0  0  0  0  0  0  0  0  0  0  0
   -2.8930   -1.0850    0.1680 C   0  0  0  0  0  0  0  0  0  0  0  0
   -1.6870   -0.5370    0.1350 N   0  0  0  0  0  0  0  0  0  0  0  0
   -0.8130   -1.2430    0.8640 C   0  0  0  0  0  0  0  0  0  0  0  0
   -1.4990   -2.3110    1.3980 C   0  0  0  0  0  0  0  0  0  0  0  0
   -0.5460   -3.0070    2.1420 C   0  0  0  0  0  0  0  0  0  0  0  0
    0.6010   -2.3360    2.0090 N   0  0  0  0  0  0  0  0  0  0  0  0
    0.4750   -1.2810    1.2540 N   0  0  0  0  0  0  0  0  0  0  0  0
    1.5170   -0.3420    0.9070 C   0  0  0  0  0  0  0  0  0  0  0  0
    2.8360   -0.5860    0.8400 N   0  0  0  0  0  0  0  0  0  0  0  0
    3.5370    0.5220    0.4830 C   0  0  0  0  0  0  0  0  0  0  0  0
    4.9790    0.6310    0.3020 C   0  0  0  0  0  0  0  0  0  0  0  0
    5.6930   -0.4100   -0.3350 N   0  0  0  0  0  0  0  0  0  0  0  0
    6.0430   -0.3320   -1.5770 C   0  0  0  0  0  0  0  0  0  0  0  0
    5.5630    1.2460   -2.5270 Br  0  0  0  0  0  0  0  0  0  0  0  0
    5.6260    1.6860    0.7190 C   0  0  0  0  0  0  0  0  0  0  0  0
    4.7800    3.1580    1.5850 Br  0  0  0  0  0  0  0  0  0  0  0  0
    7.5080    1.7900    0.4700 Br  0  0  0  0  0  0  0  0  0  0  0  0
    2.5720    1.4970    0.3250 C   0  0  0  0  0  0  0  0  0  0  0  0
    1.3630    0.9500    0.5870 N   0  0  0  0  0  0  0  0  0  0  0  0
   -2.7900   -2.2170    0.9690 C   0  0  0  0  0  0  0  0  0  0  0  0
   -4.1630   -3.4440    1.4200 Br  0  0  0  0  0  0  0  0  0  0  0  0
  1  2  1  0
  2  3  1  0
  2  4  1  0
  4  5  1  0
  5  6  1  0
  5 24  2  0
  6  7  1  0
  7  8  2  0
  7 11  1  0
  8  9  1  0
  8 24  1  0
  9 10  2  0
 10 11  1  0
 11 12  1  0
 12 13  2  0
 12 23  1  0
 13 14  1  0
 14 15  1  0
 14 22  2  0
 15 16  1  0
 15 19  2  3
 16 17  2  3
 17 18  1  0
 19 20  1  0
 19 21  1  0
 22 23  1  0
 24 25  1  0
M  CHG  1  16   1
M  END
