
     RDKit          3D

 18 19  0  0  0  0  0  0  0  0999 V2000
   -4.3750    1.9240   -0.8320 O   0  0  0  0  0  0  0  0  0  0  0  0
   -3.7890    0.7580   -0.3920 C   0  0  0  0  0  0  0  0  0  0  0  0
   -4.5470   -0.3230   -0.0250 C   0  0  0  0  0  0  0  0  0  0  0  0
   -3.9690   -1.4990    0.4190 C   0  0  0  0  0  0  0  0  0  0  0  0
   -4.7520   -2.5880    0.7880 O   0  0  0  0  0  0  0  0  0  0  0  0
   -2.6050   -1.5530    0.4820 C   0  0  0  0  0  0  0  0  0  0  0  0
   -1.7810   -0.4880    0.1230 C   0  0  0  0  0  0  0  0  0  0  0  0
   -0.3190   -0.6320    0.2210 C   0  0  0  0  0  0  0  0  0  0  0  0
    0.5030    0.3190   -0.0960 C   0  0  0  0  0  0  0  0  0  0  0  0
    1.9510    0.3160   -0.0490 C   0  0  0  0  0  0  0  0  0  0  0  0
    2.6210    1.4900   -0.4530 C   0  0  0  0  0  0  0  0  0  0  0  0
    3.9850    1.5910   -0.4460 C   0  0  0  0  0  0  0  0  0  0  0  0
    4.7750    0.5450   -0.0420 C   0  0  0  0  0  0  0  0  0  0  0  0
    6.1560    0.6580   -0.0390 O   0  0  0  0  0  0  0  0  0  0  0  0
    4.1620   -0.6080    0.3550 C   0  0  0  0  0  0  0  0  0  0  0  0
    2.7680   -0.6940    0.3420 C   0  0  0  0  0  0  0  0  0  0  0  0
    2.1200   -2.2240    0.8750 Cl  0  0  0  0  0  0  0  0  0  0  0  0
   -2.3940    0.6500   -0.3080 C   0  0  0  0  0  0  0  0  0  0  0  0
  1  2  1  0
  2  3  2  0
  2 18  1  0
  3  4  1  0
  4  5  1  0
  4  6  2  0
  6  7  1  0
  7  8  1  0
  7 18  2  0
  8  9  2  3
  9 10  1  0
 10 11  2  0
 10 16  1  0
 11 12  1  0
 12 13  2  0
 13 14  1  0
 13 15  1  0
 15 16  2  0
 16 17  1  0
M  END
