
     RDKit          3D

 25 27  0  0  0  0  0  0  0  0999 V2000
   -4.5730   -3.6910    0.8270 Br  0  0  0  0  0  0  0  0  0  0  0  0
   -3.8560   -2.9560   -0.8370 C   0  0  0  0  0  0  0  0  0  0  0  0
   -2.4920   -2.3280   -0.5090 C   0  0  0  0  0  0  0  0  0  0  0  0
   -2.6210   -1.2920    0.4480 N   0  0  0  0  0  0  0  0  0  0  0  0
   -1.4600   -0.7120    0.9450 C   0  0  0  0  0  0  0  0  0  0  0  0
   -0.5900    0.1070    0.0690 C   0  0  2  0  0  0  0  0  0  0  0  0
    0.5260    0.5370    0.9410 N   0  0  0  0  0  0  0  0  0  0  0  0
    1.8610    0.2570    0.7620 C   0  0  0  0  0  0  0  0  0  0  0  0
    2.3110   -0.4850   -0.2510 N   0  0  0  0  0  0  0  0  0  0  0  0
    3.6300   -0.7550   -0.4190 C   0  0  0  0  0  0  0  0  0  0  0  0
    4.3270   -1.4600   -1.3360 N   0  0  0  0  0  0  0  0  0  0  0  0
    5.6350   -1.3840   -1.0000 C   0  0  0  0  0  0  0  0  0  0  0  0
    5.7430   -0.6460    0.1040 N   0  0  0  0  0  0  0  0  0  0  0  0
    4.5170   -0.2720    0.4440 N   0  0  0  0  0  0  0  0  0  0  0  0
    4.1350    0.4950    1.5060 C   0  0  0  0  0  0  0  0  0  0  0  0
    5.3890    1.1910    2.7290 Br  0  0  0  0  0  0  0  0  0  0  0  0
    2.7910    0.7580    1.6600 C   0  0  0  0  0  0  0  0  0  0  0  0
    2.2660    1.8340    3.1460 Br  0  0  0  0  0  0  0  0  0  0  0  0
   -1.1940    1.4290   -0.3430 C   0  0  0  0  0  0  0  0  0  0  0  0
   -0.3450    2.5280   -0.5380 C   0  0  0  0  0  0  0  0  0  0  0  0
   -0.8260    3.7550   -0.9260 C   0  0  0  0  0  0  0  0  0  0  0  0
   -2.1430    3.8580   -1.1110 N   0  0  0  0  0  0  0  0  0  0  0  0
   -2.9830    2.8320   -0.9340 C   0  0  0  0  0  0  0  0  0  0  0  0
   -4.8380    3.1140   -1.2330 Br  0  0  0  0  0  0  0  0  0  0  0  0
   -2.5340    1.5650   -0.5390 C   0  0  0  0  0  0  0  0  0  0  0  0
  1  2  1  0
  2  3  1  0
  3  4  1  0
  4  5  1  0
  6  5  1  1
  6  7  1  0
  6 19  1  0
  7  8  1  0
  8  9  2  0
  8 17  1  0
  9 10  1  0
 10 11  2  0
 10 14  1  0
 11 12  1  0
 12 13  2  0
 13 14  1  0
 14 15  1  0
 15 16  1  0
 15 17  2  0
 17 18  1  0
 19 20  2  0
 19 25  1  0
 20 21  1  0
 21 22  2  0
 22 23  1  0
 23 24  1  0
 23 25  2  0
M  CHG  1   9   1
M  END
