
     RDKit          3D

  9  9  0  0  0  0  0  0  0  0999 V2000
   -2.8070   -0.1240    0.2160 C   0  0  0  0  0  0  0  0  0  0  0  0
   -1.3520   -0.3850    0.0090 C   0  0  0  0  0  0  0  0  0  0  0  0
   -0.3650    0.5080    0.1770 C   0  0  0  0  0  0  0  0  0  0  0  0
   -0.6010    1.9130    0.6020 C   0  0  0  0  0  0  0  0  0  0  0  0
    0.9150   -0.1170   -0.1180 C   0  0  0  0  0  0  0  0  0  0  0  0
    2.0820    0.4910   -0.0600 C   0  0  0  0  0  0  0  0  0  0  0  0
    3.3110   -0.1440   -0.3530 N   0  0  0  0  0  0  0  0  0  0  0  0
    0.6330   -1.5060   -0.4770 C   0  0  0  0  0  0  0  0  0  0  0  0
   -0.8010   -1.6320   -0.3990 N   0  0  0  0  0  0  0  0  0  0  0  0
  1  2  1  0
  2  3  2  0
  2  9  1  0
  3  4  1  0
  3  5  1  0
  5  6  2  3
  5  8  1  0
  6  7  1  0
  8  9  1  0
M  END
