
     RDKit          3D

  9  9  0  0  0  0  0  0  0  0999 V2000
    3.8380   -0.6150    0.9030 N   0  0  0  0  0  0  0  0  0  0  0  0
    2.4690   -0.7050    0.5680 C   0  0  0  0  0  0  0  0  0  0  0  0
    1.7230    0.3820    0.4910 C   0  0  0  0  0  0  0  0  0  0  0  0
    0.3130    0.3480    0.1510 C   0  0  0  0  0  0  0  0  0  0  0  0
   -0.4380    1.4300    0.0730 C   0  0  0  0  0  0  0  0  0  0  0  0
   -1.8640    1.3690   -0.2740 C   0  0  0  0  0  0  0  0  0  0  0  0
   -2.5560    0.1160    0.1460 C   0  0  0  0  0  0  0  0  0  0  0  0
   -1.7340   -1.1240    0.0880 C   0  0  0  0  0  0  0  0  0  0  0  0
   -0.3300   -0.8990   -0.1200 N   0  0  0  0  0  0  0  0  0  0  0  0
  1  2  1  0
  2  3  2  3
  3  4  1  0
  4  5  2  0
  4  9  1  0
  5  6  1  0
  6  7  1  0
  7  8  1  0
  8  9  1  0
M  END
