
     RDKit          3D

  9  9  0  0  0  0  0  0  0  0999 V2000
    3.1190   -0.6900   -0.2590 N   0  0  0  0  0  0  0  0  0  0  0  0
    2.2140    0.1600    0.4180 C   0  0  0  0  0  0  0  0  0  0  0  0
    0.9350    0.2360    0.1290 C   0  0  0  0  0  0  0  0  0  0  0  0
    0.4350   -0.6080   -0.9510 C   0  0  0  0  0  0  0  0  0  0  0  0
   -0.7840   -1.0480   -1.2060 C   0  0  0  0  0  0  0  0  0  0  0  0
   -2.0440   -0.8310   -0.4830 C   0  0  0  0  0  0  0  0  0  0  0  0
   -1.8990   -0.1080    0.7390 N   0  0  0  0  0  0  0  0  0  0  0  0
   -1.3030    1.1940    0.5720 C   0  0  0  0  0  0  0  0  0  0  0  0
    0.1630    1.1820    0.9510 C   0  0  0  0  0  0  0  0  0  0  0  0
  1  2  1  0
  2  3  2  3
  3  4  1  0
  3  9  1  0
  4  5  2  0
  5  6  1  0
  6  7  1  0
  7  8  1  0
  8  9  1  0
M  END
