
     RDKit          3D

 25 28  0  0  0  0  0  0  0  0999 V2000
   -0.5090   -0.5030   -1.3820 N   0  0  0  0  0  0  0  0  0  0  0  0
   -0.1530    0.2080   -0.1770 C   0  0  0  0  0  0  0  0  0  0  0  0
    1.2270    0.4270    0.0250 C   0  0  0  0  0  0  0  0  0  0  0  0
    2.1400    0.0110   -0.9780 N   0  0  0  0  0  0  0  0  0  0  0  0
    3.4980   -0.2690   -0.9330 C   0  0  0  0  0  0  0  0  0  0  0  0
    4.1800   -0.6680   -2.4160 S   0  0  0  0  0  0  0  0  0  0  0  0
    4.3380   -0.2570    0.1710 N   0  0  0  0  0  0  0  0  0  0  0  0
    5.7450   -0.5700   -0.0730 C   0  0  0  0  0  0  0  0  0  0  0  0
    6.4810   -0.8530   -0.9450 N   0  0  0  0  0  0  0  0  0  0  0  0
    7.7590   -1.0970   -0.9150 C   0  0  0  0  0  0  0  0  0  0  0  0
    8.3330   -1.0120    0.3200 C   0  0  0  0  0  0  0  0  0  0  0  0
    6.9260   -0.5680    1.3850 S   0  0  0  0  0  0  0  0  0  0  0  0
    1.5500    1.0970    1.1720 C   0  0  0  0  0  0  0  0  0  0  0  0
    0.6090    1.5340    2.0830 C   0  0  0  0  0  0  0  0  0  0  0  0
   -0.7040    1.2920    1.8310 C   0  0  0  0  0  0  0  0  0  0  0  0
   -1.1070    0.6240    0.6940 C   0  0  0  0  0  0  0  0  0  0  0  0
   -2.5410    0.4070    0.5080 C   0  0  0  0  0  0  0  0  0  0  0  0
   -3.5120    0.8140    1.3850 N   0  0  0  0  0  0  0  0  0  0  0  0
   -4.7210    0.4710    0.9450 C   0  0  0  0  0  0  0  0  0  0  0  0
   -6.0250    0.6230    1.4100 C   0  0  0  0  0  0  0  0  0  0  0  0
   -7.1160    0.1470    0.7130 C   0  0  0  0  0  0  0  0  0  0  0  0
   -6.8880   -0.4800   -0.4530 N   0  0  0  0  0  0  0  0  0  0  0  0
   -5.6340   -0.6370   -0.9200 C   0  0  0  0  0  0  0  0  0  0  0  0
   -4.5300   -0.1750   -0.2490 C   0  0  0  0  0  0  0  0  0  0  0  0
   -3.2100   -0.1980   -0.4850 N   0  0  0  0  0  0  0  0  0  0  0  0
  1  2  1  0
  2  3  2  0
  2 16  1  0
  3  4  1  0
  3 13  1  0
  4  5  1  0
  5  6  2  0
  5  7  1  0
  7  8  1  0
  8  9  2  0
  8 12  1  0
  9 10  1  0
 10 11  2  0
 11 12  1  0
 13 14  2  0
 14 15  1  0
 15 16  2  0
 16 17  1  0
 17 18  2  0
 17 25  1  0
 18 19  1  0
 19 20  2  0
 19 24  1  0
 20 21  1  0
 21 22  2  0
 22 23  1  0
 23 24  2  0
 24 25  1  0
M  CHG  1  22   1
M  END
