
     RDKit          3D

  9 10  0  0  0  0  0  0  0  0999 V2000
   -1.8430   -0.0310    0.5640 C   0  0  0  0  0  0  0  0  0  0  0  0
   -1.4600    1.3610    0.0930 C   0  0  0  0  0  0  0  0  0  0  0  0
   -0.0400    1.5050    0.3520 N   0  0  0  0  0  0  0  0  0  0  0  0
    0.7470    0.5080    0.1350 C   0  0  0  0  0  0  0  0  0  0  0  0
    2.2080    0.3090    0.2860 C   0  0  0  0  0  0  0  0  0  0  0  0
    2.4570   -0.9260   -0.4100 N   0  0  0  0  0  0  0  0  0  0  0  0
    1.2380   -1.5230   -0.6520 N   0  0  0  0  0  0  0  0  0  0  0  0
    0.2440   -0.7810   -0.3700 C   0  0  0  0  0  0  0  0  0  0  0  0
   -1.2270   -0.9870   -0.4620 C   0  0  0  0  0  0  0  0  0  0  0  0
  1  2  1  0
  1  9  1  0
  2  3  1  0
  3  4  2  0
  4  5  1  0
  4  8  1  0
  5  6  1  0
  6  7  1  0
  7  8  2  0
  8  9  1  0
M  END
