
     RDKit          3D

  9 10  0  0  0  0  0  0  0  0999 V2000
   -2.2850   -0.8910   -0.1970 C   0  0  0  0  0  0  0  0  0  0  0  0
   -2.3580    0.4210    0.0930 N   0  0  0  0  0  0  0  0  0  0  0  0
   -1.2600    1.1680    0.2580 C   0  0  0  0  0  0  0  0  0  0  0  0
    0.0040    0.6010    0.1330 C   0  0  0  0  0  0  0  0  0  0  0  0
    1.2840    1.0800    0.2390 C   0  0  0  0  0  0  0  0  0  0  0  0
    2.1420    0.0280    0.0070 C   0  0  0  0  0  0  0  0  0  0  0  0
    1.3810   -1.0460   -0.2310 N   0  0  0  0  0  0  0  0  0  0  0  0
    0.0850   -0.7420   -0.1640 C   0  0  0  0  0  0  0  0  0  0  0  0
   -1.0700   -1.4550   -0.3220 N   0  0  0  0  0  0  0  0  0  0  0  0
  1  2  2  0
  1  9  1  0
  2  3  1  0
  3  4  2  0
  4  5  1  0
  4  8  1  0
  5  6  2  0
  6  7  1  0
  7  8  1  0
  8  9  2  0
M  END
