
     RDKit          3D

  9 10  0  0  0  0  0  0  0  0999 V2000
    2.5010   -0.1650   -0.1660 C   0  0  0  0  0  0  0  0  0  0  0  0
    1.2440    0.6470   -0.1030 C   0  0  0  0  0  0  0  0  0  0  0  0
    1.1100    1.9800   -0.1330 N   0  0  0  0  0  0  0  0  0  0  0  0
   -0.1730    2.2740   -0.0530 N   0  0  0  0  0  0  0  0  0  0  0  0
   -0.9090    1.1250    0.0330 C   0  0  0  0  0  0  0  0  0  0  0  0
   -0.0210    0.1290    0.0010 N   0  0  0  0  0  0  0  0  0  0  0  0
   -0.7380   -1.1090    0.0890 C   0  0  0  0  0  0  0  0  0  0  0  0
   -2.1570   -0.7210    0.1760 C   0  0  0  0  0  0  0  0  0  0  0  0
   -2.2620    0.5930    0.1440 C   0  0  0  0  0  0  0  0  0  0  0  0
  1  2  1  0
  2  3  2  0
  2  6  1  0
  3  4  1  0
  4  5  2  0
  5  6  1  0
  5  9  1  0
  6  7  1  0
  7  8  1  0
  8  9  2  0
M  END
