
     RDKit          3D

  9 10  0  0  0  0  0  0  0  0999 V2000
   -2.1490   -0.7790    0.0880 C   0  0  0  0  0  0  0  0  0  0  0  0
   -2.2060    0.5650   -0.2050 C   0  0  0  0  0  0  0  0  0  0  0  0
   -1.0600    1.2510   -0.3100 N   0  0  0  0  0  0  0  0  0  0  0  0
    0.1450    0.6720   -0.1400 C   0  0  0  0  0  0  0  0  0  0  0  0
    1.4550    1.1380   -0.1910 C   0  0  0  0  0  0  0  0  0  0  0  0
    2.3010    0.1270    0.0590 N   0  0  0  0  0  0  0  0  0  0  0  0
    1.5440   -0.9660    0.2670 C   0  0  0  0  0  0  0  0  0  0  0  0
    0.2060   -0.6670    0.1520 C   0  0  0  0  0  0  0  0  0  0  0  0
   -0.9470   -1.3650    0.2590 N   0  0  0  0  0  0  0  0  0  0  0  0
  1  2  1  0
  1  9  2  0
  2  3  2  0
  3  4  1  0
  4  5  2  0
  4  8  1  0
  5  6  1  0
  6  7  1  0
  7  8  2  0
  8  9  1  0
M  END
