
     RDKit          3D

 32 35  0  0  0  0  0  0  0  0999 V2000
   -3.5950    3.1970   -0.6020 C   0  0  0  0  0  0  0  0  0  0  0  0
   -3.1510    1.8710   -0.0890 C   0  0  0  0  0  0  0  0  0  0  0  0
   -3.8990    1.0100    0.6190 N   0  0  0  0  0  0  0  0  0  0  0  0
   -3.2440   -0.0690    0.9370 N   0  0  0  0  0  0  0  0  0  0  0  0
   -3.8160   -1.1830    1.7120 C   0  0  0  0  0  0  0  0  0  0  0  0
   -4.4250   -2.1450    0.7380 C   0  0  0  0  0  0  0  0  0  0  0  0
   -4.9950   -3.2380    1.3820 O   0  0  0  0  0  0  0  0  0  0  0  0
   -1.9730    0.0230    0.4370 C   0  0  0  0  0  0  0  0  0  0  0  0
   -1.9240    1.2320   -0.1990 C   0  0  0  0  0  0  0  0  0  0  0  0
   -0.7450    1.7700   -0.9010 C   0  0  0  0  0  0  0  0  0  0  0  0
   -0.8270    2.5980   -1.9960 C   0  0  0  0  0  0  0  0  0  0  0  0
    0.3040    3.0440   -2.6070 N   0  0  0  0  0  0  0  0  0  0  0  0
    1.5360    2.6730   -2.1390 C   0  0  0  0  0  0  0  0  0  0  0  0
    2.7510    3.0960   -2.7210 N   0  0  0  0  0  0  0  0  0  0  0  0
    1.5790    1.8520   -1.0540 C   0  0  0  0  0  0  0  0  0  0  0  0
    0.4640    1.4360   -0.4810 N   0  0  0  0  0  0  0  0  0  0  0  0
    2.7450    1.3670   -0.4370 O   0  0  0  0  0  0  0  0  0  0  0  0
    2.5800    0.6120    0.7940 C   0  0  2  0  0  0  0  0  0  0  0  0
    3.0260    1.5110    1.8720 C   0  0  0  0  0  0  0  0  0  0  0  0
    3.0340   -0.7700    0.7200 C   0  0  0  0  0  0  0  0  0  0  0  0
    2.3720   -1.7770    0.0360 C   0  0  0  0  0  0  0  0  0  0  0  0
    2.9720   -3.0560    0.0940 C   0  0  0  0  0  0  0  0  0  0  0  0
    4.1270   -3.3540    0.7610 C   0  0  0  0  0  0  0  0  0  0  0  0
    4.7650   -2.3510    1.4280 C   0  0  0  0  0  0  0  0  0  0  0  0
    5.9080   -2.6150    2.0980 F   0  0  0  0  0  0  0  0  0  0  0  0
    4.2020   -1.0900    1.3870 C   0  0  0  0  0  0  0  0  0  0  0  0
    5.1270    0.1570    2.2430 Cl  0  0  0  0  0  0  0  0  0  0  0  0
    1.1650   -1.7110   -0.7660 C   0  0  0  0  0  0  0  0  0  0  0  0
    1.3680   -2.1900   -1.9890 O   0  0  0  0  0  0  0  0  0  0  0  0
   -0.1470   -1.2830   -0.5940 N   0  0  0  0  0  0  0  0  0  0  0  0
   -1.0040   -1.1360   -1.8090 C   0  0  0  0  0  0  0  0  0  0  0  0
   -0.9090   -0.9830    0.5850 C   0  0  0  0  0  0  0  0  0  0  0  0
  1  2  1  0
  2  3  2  0
  2  9  1  0
  3  4  1  0
  4  5  1  0
  4  8  1  0
  5  6  1  0
  6  7  1  0
  8  9  2  0
  8 32  1  0
  9 10  1  0
 10 11  2  0
 10 16  1  0
 11 12  1  0
 12 13  2  0
 13 14  1  0
 13 15  1  0
 15 16  2  0
 15 17  1  0
 17 18  1  0
 18 19  1  1
 18 20  1  0
 20 21  2  0
 20 26  1  0
 21 22  1  0
 21 28  1  0
 22 23  2  0
 23 24  1  0
 24 25  1  0
 24 26  2  0
 26 27  1  0
 28 29  2  0
 28 30  1  0
 30 31  1  0
 30 32  1  0
M  END
