
     RDKit          3D

 33 35  0  0  0  0  0  0  0  0999 V2000
   -6.0410   -1.0240   -0.5790 C   0  0  0  0  0  0  0  0  0  0  0  0
   -5.6810    0.4260   -0.3240 C   0  0  2  0  0  0  0  0  0  0  0  0
   -5.3030    1.0610   -1.6340 C   0  0  0  0  0  0  0  0  0  0  0  0
   -4.5710    0.5020    0.6430 C   0  0  0  0  0  0  0  0  0  0  0  0
   -4.7170    1.0990    1.7310 O   0  0  0  0  0  0  0  0  0  0  0  0
   -3.3350   -0.1140    0.3150 N   0  0  0  0  0  0  0  0  0  0  0  0
   -2.1950   -0.0630    1.2410 C   0  0  1  0  0  0  0  0  0  0  0  0
   -2.1280   -1.4380    1.9000 C   0  0  0  0  0  0  0  0  0  0  0  0
   -0.9780    0.2610    0.4850 C   0  0  0  0  0  0  0  0  0  0  0  0
   -0.8260    1.3850   -0.1350 C   0  0  0  0  0  0  0  0  0  0  0  0
   -1.7420    2.5070   -0.2250 C   0  0  0  0  0  0  0  0  0  0  0  0
   -2.4300    3.1340    0.7700 C   0  0  0  0  0  0  0  0  0  0  0  0
   -3.1850    4.1560    0.1930 C   0  0  0  0  0  0  0  0  0  0  0  0
   -2.9130    4.0980   -1.1440 C   0  0  0  0  0  0  0  0  0  0  0  0
   -2.0710    3.1300   -1.3560 O   0  0  0  0  0  0  0  0  0  0  0  0
    0.1340   -0.6680    0.4070 N   0  0  0  0  0  0  0  0  0  0  0  0
    0.0480   -1.9340   -0.2010 C   0  0  0  0  0  0  0  0  0  0  0  0
   -1.0840   -2.2690   -0.7150 O   0  0  0  0  0  0  0  0  0  0  0  0
    1.1630   -2.9000   -0.2940 C   0  0  0  0  0  0  0  0  0  0  0  0
    2.3300   -2.3900    0.3660 N   0  0  0  0  0  0  0  0  0  0  0  0
    2.4590   -2.1200    1.7490 C   0  0  0  0  0  0  0  0  0  0  0  0
    1.4880   -2.3460    2.5030 O   0  0  0  0  0  0  0  0  0  0  0  0
    3.7210   -1.5780    2.3110 C   0  0  0  0  0  0  0  0  0  0  0  0
    4.7210   -1.3820    1.2930 N   0  0  0  0  0  0  0  0  0  0  0  0
    5.6640   -2.2000    0.8210 C   0  0  0  0  0  0  0  0  0  0  0  0
    5.8510   -3.3800    1.2230 O   0  0  0  0  0  0  0  0  0  0  0  0
    6.3660   -1.5780   -0.1310 N   0  0  0  0  0  0  0  0  0  0  0  0
    5.8720   -0.3590   -0.2690 N   0  0  0  0  0  0  0  0  0  0  0  0
    6.0020    0.7960   -0.9520 C   0  0  0  0  0  0  0  0  0  0  0  0
    6.9320    1.1260   -1.9710 N   0  0  0  0  0  0  0  0  0  0  0  0
    5.0700    1.6780   -0.5210 N   0  0  0  0  0  0  0  0  0  0  0  0
    4.3660    1.0680    0.4260 C   0  0  0  0  0  0  0  0  0  0  0  0
    4.8560   -0.2280    0.6060 C   0  0  0  0  0  0  0  0  0  0  0  0
  2  1  1  6
  2  3  1  0
  2  4  1  0
  4  5  2  0
  4  6  1  0
  6  7  1  0
  7  8  1  6
  7  9  1  0
  9 10  2  3
  9 16  1  0
 10 11  1  0
 11 12  2  0
 11 15  1  0
 12 13  1  0
 13 14  2  0
 14 15  1  0
 16 17  1  0
 17 18  2  0
 17 19  1  0
 19 20  1  0
 20 21  1  0
 21 22  2  0
 21 23  1  0
 23 24  1  0
 24 25  1  0
 24 33  1  0
 25 26  2  0
 25 27  1  0
 27 28  1  0
 28 29  1  0
 28 33  1  0
 29 30  1  0
 29 31  2  0
 31 32  1  0
 32 33  2  0
M  CHG  1  31   1
M  END
