
     RDKit          3D

 33 35  0  0  0  0  0  0  0  0999 V2000
   10.2700    2.4320   -0.9740 C   0  0  0  0  0  0  0  0  0  0  0  0
    9.9480    1.1600   -0.2220 C   0  0  0  0  0  0  0  0  0  0  0  0
    8.6970    1.3260    0.5510 C   0  0  0  0  0  0  0  0  0  0  0  0
    8.0530    2.4260    0.4610 N   0  0  0  0  0  0  0  0  0  0  0  0
    8.1970    0.3080    1.3810 N   0  0  0  0  0  0  0  0  0  0  0  0
    6.8420    0.2080    1.7670 C   0  0  0  0  0  0  0  0  0  0  0  0
    5.8840   -0.1380    0.6660 C   0  0  0  0  0  0  0  0  0  0  0  0
    4.5320   -0.2090    1.1760 N   0  0  0  0  0  0  0  0  0  0  0  0
    3.4180   -0.5220    0.3520 C   0  0  0  0  0  0  0  0  0  0  0  0
    3.6450   -0.7430   -0.8640 O   0  0  0  0  0  0  0  0  0  0  0  0
    2.0480   -0.5870    0.8930 C   0  0  0  0  0  0  0  0  0  0  0  0
    1.1330   -0.9290   -0.1780 N   0  0  0  0  0  0  0  0  0  0  0  0
   -0.2810   -1.0450    0.1220 C   0  0  0  0  0  0  0  0  0  0  0  0
   -0.6360   -0.8410    1.3010 O   0  0  0  0  0  0  0  0  0  0  0  0
   -1.2060   -1.3760   -0.8900 N   0  0  0  0  0  0  0  0  0  0  0  0
   -2.5870   -1.5030   -0.7140 C   0  0  0  0  0  0  0  0  0  0  0  0
   -3.2760   -1.1810    0.3870 C   0  0  0  0  0  0  0  0  0  0  0  0
   -4.6590   -1.3560    0.4640 C   0  0  0  0  0  0  0  0  0  0  0  0
   -5.3880   -1.8790   -0.6160 C   0  0  0  0  0  0  0  0  0  0  0  0
   -6.7430   -2.0240   -0.4580 O   0  0  0  0  0  0  0  0  0  0  0  0
   -7.6010   -0.9680   -0.4340 C   0  0  0  0  0  0  0  0  0  0  0  0
   -8.3060   -0.7600    0.7690 C   0  0  0  0  0  0  0  0  0  0  0  0
   -9.1750    0.2330    0.9300 N   0  0  0  0  0  0  0  0  0  0  0  0
   -9.9690    0.6710    1.9200 C   0  0  0  0  0  0  0  0  0  0  0  0
  -10.0650    0.1550    3.0590 O   0  0  0  0  0  0  0  0  0  0  0  0
  -10.6440    1.7450    1.5040 N   0  0  0  0  0  0  0  0  0  0  0  0
  -10.3030    2.0120    0.2610 N   0  0  0  0  0  0  0  0  0  0  0  0
   -9.3870    1.0750   -0.1080 C   0  0  0  0  0  0  0  0  0  0  0  0
   -8.7250    0.9100   -1.2910 C   0  0  0  0  0  0  0  0  0  0  0  0
   -7.8020   -0.1290   -1.4910 C   0  0  0  0  0  0  0  0  0  0  0  0
   -7.2060   -0.2010   -2.7110 O   0  0  0  0  0  0  0  0  0  0  0  0
   -4.6690   -2.2030   -1.7320 C   0  0  0  0  0  0  0  0  0  0  0  0
   -3.3060   -2.0250   -1.7930 C   0  0  0  0  0  0  0  0  0  0  0  0
  1  2  1  0
  2  3  1  0
  3  4  2  0
  3  5  1  0
  5  6  1  0
  6  7  1  0
  7  8  1  0
  8  9  1  0
  9 10  2  0
  9 11  1  0
 11 12  1  0
 12 13  1  0
 13 14  2  0
 13 15  1  0
 15 16  1  0
 16 17  2  0
 16 33  1  0
 17 18  1  0
 18 19  2  0
 19 20  1  0
 19 32  1  0
 20 21  1  0
 21 22  2  0
 21 30  1  0
 22 23  1  0
 23 24  1  0
 23 28  1  0
 24 25  2  0
 24 26  1  0
 26 27  1  0
 27 28  2  0
 28 29  1  0
 29 30  2  0
 30 31  1  0
 32 33  2  0
M  CHG  1   4   1
M  END
