
     RDKit          3D

 32 33  0  0  0  0  0  0  0  0999 V2000
   -2.1940   -4.7810   -3.5650 C   0  0  0  0  0  0  0  0  0  0  0  0
   -2.8030   -3.8240   -2.4850 C   0  0  0  0  0  0  0  0  0  0  0  0
   -2.0400   -2.5920   -2.4310 C   0  0  0  0  0  0  0  0  0  0  0  0
   -1.0160   -2.6260   -3.2970 O   0  0  0  0  0  0  0  0  0  0  0  0
   -2.1490   -1.3870   -1.6690 C   0  0  0  0  0  0  0  0  0  0  0  0
   -2.9580   -0.9630   -0.7670 C   0  0  0  0  0  0  0  0  0  0  0  0
   -4.1160   -1.6230   -0.1870 C   0  0  0  0  0  0  0  0  0  0  0  0
   -4.4150   -2.7640   -0.5530 O   0  0  0  0  0  0  0  0  0  0  0  0
   -4.9460   -0.9520    0.8380 C   0  0  0  0  0  0  0  0  0  0  0  0
   -4.6570    0.2540    1.2450 C   0  0  0  0  0  0  0  0  0  0  0  0
   -5.4350    0.9410    2.2350 N   0  0  0  0  0  0  0  0  0  0  0  0
   -6.4220    1.9370    1.9090 C   0  0  0  0  0  0  0  0  0  0  0  0
   -5.2090    0.6080    3.6220 C   0  0  0  0  0  0  0  0  0  0  0  0
   -3.5090    0.9370    0.6890 C   0  0  0  0  0  0  0  0  0  0  0  0
   -2.7120    0.4020   -0.2340 C   0  0  0  0  0  0  0  0  0  0  0  0
   -1.6220    1.1700   -0.6960 N   0  0  0  0  0  0  0  0  0  0  0  0
   -0.2490    0.8330   -0.4000 C   0  0  0  0  0  0  0  0  0  0  0  0
   -0.1120   -0.1850    0.3060 O   0  0  0  0  0  0  0  0  0  0  0  0
    0.8110    1.6160   -0.8900 N   0  0  0  0  0  0  0  0  0  0  0  0
    2.1570    1.3650   -0.6550 C   0  0  0  0  0  0  0  0  0  0  0  0
    2.5930    0.3100    0.0910 C   0  0  0  0  0  0  0  0  0  0  0  0
    3.9750    0.1560    0.2610 C   0  0  0  0  0  0  0  0  0  0  0  0
    4.8910    1.0160   -0.2890 C   0  0  0  0  0  0  0  0  0  0  0  0
    6.2940    0.8590   -0.1150 N   0  0  0  0  0  0  0  0  0  0  0  0
    6.8620   -0.2050    0.6450 C   0  0  0  0  0  0  0  0  0  0  0  0
    6.5860   -0.1470    2.0990 C   0  0  0  0  0  0  0  0  0  0  0  0
    7.0330   -1.0720    2.8600 O   0  0  0  0  0  0  0  0  0  0  0  0
    5.8490    0.8730    2.7450 N   0  0  0  0  0  0  0  0  0  0  0  0
    5.6410    0.8330    4.1310 N   0  0  0  0  0  0  0  0  0  0  0  0
    4.4050    2.0390   -1.0160 N   0  0  0  0  0  0  0  0  0  0  0  0
    3.1070    2.2420   -1.2160 C   0  0  0  0  0  0  0  0  0  0  0  0
    2.6640    3.3660   -2.0100 N   0  0  0  0  0  0  0  0  0  0  0  0
  1  2  1  0
  2  3  1  0
  3  4  2  0
  3  5  1  0
  5  6  2  3
  6  7  1  0
  6 15  1  0
  7  8  2  0
  7  9  1  0
  9 10  2  0
 10 11  1  0
 10 14  1  0
 11 12  1  0
 11 13  1  0
 14 15  2  0
 15 16  1  0
 16 17  1  0
 17 18  2  0
 17 19  1  0
 19 20  1  0
 20 21  2  0
 20 31  1  0
 21 22  1  0
 22 23  2  0
 23 24  1  0
 23 30  1  0
 24 25  1  0
 25 26  1  0
 26 27  2  0
 26 28  1  0
 28 29  1  0
 30 31  2  0
 31 32  1  0
M  CHG  1  30   1
M  END
