
     RDKit          3D

 42 44  0  0  0  0  0  0  0  0999 V2000
    9.7870    0.4320    0.2880 C   0  0  0  0  0  0  0  0  0  0  0  0
    8.6550    0.0660    0.8530 C   0  0  0  0  0  0  0  0  0  0  0  0
    7.3760    0.2460    0.1610 C   0  0  0  0  0  0  0  0  0  0  0  0
    7.3440    0.7990   -1.0850 F   0  0  0  0  0  0  0  0  0  0  0  0
    6.2790   -0.1320    0.7620 C   0  0  0  0  0  0  0  0  0  0  0  0
    6.3290   -0.7270    2.1060 C   0  0  0  0  0  0  0  0  0  0  0  0
    5.0640    0.0270    0.1310 O   0  0  0  0  0  0  0  0  0  0  0  0
    4.2620    1.1510    0.2350 C   0  0  0  0  0  0  0  0  0  0  0  0
    4.6600    2.0970    0.9520 O   0  0  0  0  0  0  0  0  0  0  0  0
    2.9680    1.2770   -0.4600 C   0  0  2  0  0  0  0  0  0  0  0  0
    2.2720    2.5670   -0.1910 C   0  0  0  0  0  0  0  0  0  0  0  0
    1.1300    2.6100   -1.1930 C   0  0  1  0  0  0  0  0  0  0  0  0
    1.7200    3.3200   -2.4310 C   0  0  0  0  0  0  0  0  0  0  0  0
    0.6470    1.3040   -1.6360 C   0  0  0  0  0  0  0  0  0  0  0  0
    0.6970    0.1530   -0.6290 C   0  0  1  0  0  0  0  0  0  0  0  0
   -0.0830    0.3840    0.5850 C   0  0  0  0  0  0  0  0  0  0  0  0
   -1.3070    1.1930    0.6010 C   0  0  0  0  0  0  0  0  0  0  0  0
   -2.3910    0.8930   -0.3660 C   0  0  0  0  0  0  0  0  0  0  0  0
   -3.6990    0.6740    0.3380 C   0  0  0  0  0  0  0  0  0  0  0  0
   -3.9350    1.6040    1.2600 C   0  0  0  0  0  0  0  0  0  0  0  0
   -5.1290    1.6300    2.0880 C   0  0  0  0  0  0  0  0  0  0  0  0
   -5.2530    2.5840    3.0410 C   0  0  0  0  0  0  0  0  0  0  0  0
   -6.4270    2.6870    3.9250 C   0  0  1  0  0  0  0  0  0  0  0  0
   -6.1630    3.6830    4.8690 F   0  0  0  0  0  0  0  0  0  0  0  0
   -7.5260    3.1760    3.2110 F   0  0  0  0  0  0  0  0  0  0  0  0
   -6.1670    0.6270    1.8690 C   0  0  2  0  0  0  0  0  0  0  0  0
   -7.3170    1.3130    1.5000 F   0  0  0  0  0  0  0  0  0  0  0  0
   -6.4630   -0.0230    3.0700 F   0  0  0  0  0  0  0  0  0  0  0  0
   -5.7840   -0.3330    0.8290 C   0  0  0  0  0  0  0  0  0  0  0  0
   -4.6640   -0.3530    0.1020 C   0  0  0  0  0  0  0  0  0  0  0  0
   -4.5840   -1.4560   -0.8730 C   0  0  0  0  0  0  0  0  0  0  0  0
   -5.7840   -1.6300   -1.8180 C   0  0  0  0  0  0  0  0  0  0  0  0
   -3.6400   -2.3370   -1.0350 C   0  0  0  0  0  0  0  0  0  0  0  0
   -2.3560   -2.4990   -0.2800 C   0  0  0  0  0  0  0  0  0  0  0  0
   -1.3000   -2.5180   -1.3180 C   0  0  0  0  0  0  0  0  0  0  0  0
    0.1040   -2.1390   -0.8810 C   0  0  1  0  0  0  0  0  0  0  0  0
    0.9940   -3.2530   -1.4750 C   0  0  2  0  0  0  0  0  0  0  0  0
    0.8050   -3.4100   -2.8430 O   0  0  0  0  0  0  0  0  0  0  0  0
    0.8100   -4.5680   -0.8060 C   0  0  0  0  0  0  0  0  0  0  0  0
    1.5940   -5.5660   -1.3210 F   0  0  0  0  0  0  0  0  0  0  0  0
    0.3790   -0.9310   -1.4090 O   0  0  0  0  0  0  0  0  0  0  0  0
    2.1730    0.0470   -0.2060 C   0  0  0  0  0  0  0  0  0  0  0  0
  1  2  2  0
  2  3  1  0
  3  4  1  0
  3  5  2  3
  5  6  1  0
  5  7  1  0
  7  8  1  0
  8  9  2  0
 10  8  1  1
 10 11  1  0
 10 42  1  0
 11 12  1  0
 12 13  1  6
 12 14  1  0
 15 14  1  6
 15 16  1  0
 15 41  1  0
 15 42  1  0
 16 17  1  0
 17 18  1  0
 18 19  1  0
 19 20  2  0
 19 30  1  0
 20 21  1  0
 21 22  2  3
 21 26  1  0
 22 23  1  0
 23 24  1  1
 23 25  1  0
 26 27  1  6
 26 28  1  0
 26 29  1  0
 29 30  2  0
 30 31  1  0
 31 32  1  0
 31 33  2  0
 33 34  1  0
 34 35  1  0
 36 35  1  6
 36 37  1  0
 36 41  1  0
 37 38  1  6
 37 39  1  0
 39 40  1  0
M  END
