
     RDKit          3D

 42 44  0  0  0  0  0  0  0  0999 V2000
   -0.4810   -3.7780    0.2760 C   0  0  0  0  0  0  0  0  0  0  0  0
   -0.0530   -2.3180    0.3520 C   0  0  0  0  0  0  0  0  0  0  0  0
   -1.0090   -1.4240    1.0550 C   0  0  2  0  0  0  0  0  0  0  0  0
   -0.9650   -2.2200    2.3180 O   0  0  0  0  0  0  0  0  0  0  0  0
   -2.4540   -1.5790    0.8380 C   0  0  0  0  0  0  0  0  0  0  0  0
   -3.2610   -1.1360   -0.2950 C   0  0  1  0  0  0  0  0  0  0  0  0
   -2.5580   -0.7170   -1.5330 C   0  0  0  0  0  0  0  0  0  0  0  0
   -4.1570   -2.3070   -0.8280 C   0  0  0  0  0  0  0  0  0  0  0  0
   -3.4550   -3.4730   -1.3150 C   0  0  0  0  0  0  0  0  0  0  0  0
   -4.2700   -0.3340    0.0590 O   0  0  0  0  0  0  0  0  0  0  0  0
   -4.5540    0.9120   -0.0030 C   0  0  0  0  0  0  0  0  0  0  0  0
   -4.1800    1.7690   -1.1460 C   0  0  0  0  0  0  0  0  0  0  0  0
   -4.8070    1.4750   -2.3430 F   0  0  0  0  0  0  0  0  0  0  0  0
   -3.3300    2.7740   -1.1520 C   0  0  0  0  0  0  0  0  0  0  0  0
   -2.5590    3.2760   -0.0340 C   0  0  0  0  0  0  0  0  0  0  0  0
   -2.4880    4.5620    0.2550 C   0  0  0  0  0  0  0  0  0  0  0  0
   -3.1840    5.6080   -0.5320 C   0  0  2  0  0  0  0  0  0  0  0  0
   -2.7990    6.8410   -0.0540 F   0  0  0  0  0  0  0  0  0  0  0  0
   -4.5440    5.5220   -0.4430 F   0  0  0  0  0  0  0  0  0  0  0  0
   -2.8510    5.5720   -1.8740 F   0  0  0  0  0  0  0  0  0  0  0  0
   -1.8070    2.3320    0.8260 C   0  0  2  0  0  0  0  0  0  0  0  0
   -1.9320    2.8530    2.1060 O   0  0  0  0  0  0  0  0  0  0  0  0
   -0.4030    2.1130    0.3620 C   0  0  0  0  0  0  0  0  0  0  0  0
    0.2540    0.9100    1.0000 C   0  0  2  0  0  0  0  0  0  0  0  0
    0.9300    1.6940    2.1950 C   0  0  0  0  0  0  0  0  0  0  0  0
    1.4350    0.6290    0.1160 C   0  0  0  0  0  0  0  0  0  0  0  0
    2.6870    0.6110    0.5430 C   0  0  0  0  0  0  0  0  0  0  0  0
    3.8930    0.3360   -0.2820 C   0  0  1  0  0  0  0  0  0  0  0  0
    4.6160   -0.8040    0.3280 C   0  0  0  0  0  0  0  0  0  0  0  0
    5.7410   -0.6930    1.0080 C   0  0  0  0  0  0  0  0  0  0  0  0
    6.2150   -1.9940    1.4850 C   0  0  0  0  0  0  0  0  0  0  0  0
    5.1980   -2.9330    0.9780 C   0  0  0  0  0  0  0  0  0  0  0  0
    4.3010   -2.2190    0.3240 C   0  0  0  0  0  0  0  0  0  0  0  0
    3.2350   -2.7860   -0.2750 F   0  0  0  0  0  0  0  0  0  0  0  0
    3.6560    0.2380   -1.7120 C   0  0  0  0  0  0  0  0  0  0  0  0
    4.6100    0.1900   -2.5900 C   0  0  0  0  0  0  0  0  0  0  0  0
    6.0650    0.2240   -2.3670 C   0  0  0  0  0  0  0  0  0  0  0  0
    6.6430   -0.9490   -2.8370 F   0  0  0  0  0  0  0  0  0  0  0  0
    2.2640    0.2390   -2.1570 C   0  0  0  0  0  0  0  0  0  0  0  0
    1.2620    0.4220   -1.3140 C   0  0  0  0  0  0  0  0  0  0  0  0
   -0.4740   -0.1500    1.5960 C   0  0  2  0  0  0  0  0  0  0  0  0
    0.2570   -0.4470    2.8150 O   0  0  0  0  0  0  0  0  0  0  0  0
  1  2  1  0
  2  3  1  0
  3  4  1  1
  3  5  1  0
  3 41  1  0
  5  6  1  0
  6  7  1  6
  6  8  1  0
  6 10  1  0
  8  9  1  0
 10 11  1  0
 11 12  1  0
 12 13  1  0
 12 14  2  0
 14 15  1  0
 15 16  2  3
 15 21  1  0
 16 17  1  0
 17 18  1  1
 17 19  1  0
 17 20  1  0
 21 22  1  1
 21 23  1  0
 23 24  1  0
 24 25  1  1
 24 26  1  0
 24 41  1  0
 26 27  2  0
 26 40  1  0
 27 28  1  0
 28 29  1  1
 28 35  1  0
 29 30  2  0
 29 33  1  0
 30 31  1  0
 31 32  1  0
 32 33  2  0
 33 34  1  0
 35 36  2  3
 35 39  1  0
 36 37  1  0
 37 38  1  0
 39 40  2  0
 41 42  1  1
M  END
