
     RDKit          3D

 42 44  0  0  0  0  0  0  0  0999 V2000
   -9.1620    3.7940   -3.1220 C   0  0  0  0  0  0  0  0  0  0  0  0
   -8.7960    5.2350   -2.9290 C   0  0  0  0  0  0  0  0  0  0  0  0
   -7.9200    5.3640   -1.8490 O   0  0  0  0  0  0  0  0  0  0  0  0
   -6.6590    4.8470   -1.8360 C   0  0  0  0  0  0  0  0  0  0  0  0
   -6.2620    4.2150   -2.8790 O   0  0  0  0  0  0  0  0  0  0  0  0
   -5.7850    5.0280   -0.6460 C   0  0  0  0  0  0  0  0  0  0  0  0
   -4.1450    4.6600   -0.7250 S   0  0  0  0  0  0  0  0  0  0  0  0
   -3.1940    3.3070   -0.9140 C   0  0  0  0  0  0  0  0  0  0  0  0
   -3.0910    2.0800   -0.4530 C   0  0  0  0  0  0  0  0  0  0  0  0
   -1.9350    1.2880   -1.0410 C   0  0  0  0  0  0  0  0  0  0  0  0
   -0.7750    1.2210   -0.1270 C   0  0  2  0  0  0  0  0  0  0  0  0
   -0.4120    2.7540    0.1230 C   0  0  0  0  0  0  0  0  0  0  0  0
    0.3580    0.7720   -0.8940 O   0  0  0  0  0  0  0  0  0  0  0  0
    1.3840   -0.0020   -0.3860 C   0  0  0  0  0  0  0  0  0  0  0  0
    1.3380   -0.3450    0.8210 O   0  0  0  0  0  0  0  0  0  0  0  0
    2.5300   -0.4050   -1.2830 C   0  0  0  0  0  0  0  0  0  0  0  0
    3.5150   -1.0660   -0.4680 N   0  0  0  0  0  0  0  0  0  0  0  0
    4.7090   -1.5250   -1.1030 C   0  0  0  0  0  0  0  0  0  0  0  0
    4.8410   -1.3450   -2.3540 O   0  0  0  0  0  0  0  0  0  0  0  0
    5.7620   -2.1710   -0.4100 N   0  0  0  0  0  0  0  0  0  0  0  0
    6.9610   -2.6280   -1.0420 C   0  0  2  0  0  0  0  0  0  0  0  0
    7.6130   -3.8500   -0.4880 C   0  0  0  0  0  0  0  0  0  0  0  0
    8.9460   -3.1410   -0.6010 C   0  0  2  0  0  0  0  0  0  0  0  0
    9.8370   -3.3100    0.3960 O   0  0  0  0  0  0  0  0  0  0  0  0
    9.5970   -2.7080    1.5980 C   0  0  0  0  0  0  0  0  0  0  0  0
    9.3600   -1.2260    1.4310 C   0  0  0  0  0  0  0  0  0  0  0  0
    8.0700   -1.1110    0.6040 C   0  0  0  0  0  0  0  0  0  0  0  0
    8.2120   -1.8450   -0.6690 C   0  0  2  0  0  0  0  0  0  0  0  0
    8.6380   -0.9290   -1.8100 C   0  0  0  0  0  0  0  0  0  0  0  0
   -4.0080    1.4290    0.4210 C   0  0  0  0  0  0  0  0  0  0  0  0
   -3.7760    0.1730    0.8680 C   0  0  0  0  0  0  0  0  0  0  0  0
   -4.6790   -0.5020    1.7600 C   0  0  0  0  0  0  0  0  0  0  0  0
   -5.7200    0.0680    2.2010 O   0  0  0  0  0  0  0  0  0  0  0  0
   -4.4320   -1.8690    2.1920 C   0  0  0  0  0  0  0  0  0  0  0  0
   -3.3720   -2.6120    1.7730 C   0  0  0  0  0  0  0  0  0  0  0  0
   -3.2080   -3.9280    2.2350 C   0  0  0  0  0  0  0  0  0  0  0  0
   -4.0580   -4.5340    3.1050 C   0  0  0  0  0  0  0  0  0  0  0  0
   -3.8940   -5.8300    3.5580 O   0  0  0  0  0  0  0  0  0  0  0  0
   -5.1410   -3.7670    3.5330 C   0  0  0  0  0  0  0  0  0  0  0  0
   -5.3180   -2.4770    3.0910 C   0  0  0  0  0  0  0  0  0  0  0  0
   -5.2070    2.0000    0.8620 O   0  0  0  0  0  0  0  0  0  0  0  0
   -6.3360    1.7480   -0.0150 C   0  0  0  0  0  0  0  0  0  0  0  0
  1  2  1  0
  2  3  1  0
  3  4  1  0
  4  5  2  0
  4  6  1  0
  6  7  1  0
  7  8  1  0
  8  9  2  3
  9 10  1  0
  9 30  1  0
 10 11  1  0
 11 12  1  6
 11 13  1  0
 13 14  1  0
 14 15  2  0
 14 16  1  0
 16 17  1  0
 17 18  1  0
 18 19  2  0
 18 20  1  0
 21 20  1  1
 21 22  1  0
 21 28  1  0
 23 22  1  1
 23 24  1  0
 23 28  1  0
 24 25  1  0
 25 26  1  0
 26 27  1  0
 27 28  1  0
 28 29  1  6
 30 31  2  3
 30 41  1  0
 31 32  1  0
 32 33  2  0
 32 34  1  0
 34 35  2  0
 34 40  1  0
 35 36  1  0
 36 37  2  0
 37 38  1  0
 37 39  1  0
 39 40  2  0
 41 42  1  0
M  END
