
     RDKit          3D

 42 44  0  0  0  0  0  0  0  0999 V2000
   -4.0340    3.2980   -3.2710 C   0  0  0  0  0  0  0  0  0  0  0  0
   -3.5890    2.1020   -2.4310 C   0  0  0  0  0  0  0  0  0  0  0  0
   -3.7390    2.4790   -0.9710 C   0  0  2  0  0  0  0  0  0  0  0  0
   -2.9110    3.6640   -0.5850 C   0  0  0  0  0  0  0  0  0  0  0  0
   -3.4830    1.4100   -0.1140 O   0  0  0  0  0  0  0  0  0  0  0  0
   -4.4600    0.8310    0.7050 C   0  0  0  0  0  0  0  0  0  0  0  0
   -5.5830    1.3170    0.6380 O   0  0  0  0  0  0  0  0  0  0  0  0
   -4.1390   -0.2760    1.5720 C   0  0  0  0  0  0  0  0  0  0  0  0
   -2.4840   -0.9190    1.7710 S   0  0  0  0  0  0  0  0  0  0  0  0
   -2.8830   -2.1350    3.0480 C   0  0  0  0  0  0  0  0  0  0  0  0
   -1.9040   -3.0330    3.6720 C   0  0  2  0  0  0  0  0  0  0  0  0
   -2.1830   -3.1300    5.0300 O   0  0  0  0  0  0  0  0  0  0  0  0
   -0.4950   -2.4840    3.5590 C   0  0  0  0  0  0  0  0  0  0  0  0
   -0.0510   -2.2930    2.2130 N   0  0  0  0  0  0  0  0  0  0  0  0
    0.0250   -3.3600    1.2890 C   0  0  0  0  0  0  0  0  0  0  0  0
   -0.3160   -4.5070    1.6710 O   0  0  0  0  0  0  0  0  0  0  0  0
    0.4870   -3.1900   -0.1150 C   0  0  0  0  0  0  0  0  0  0  0  0
    0.9500   -1.8900   -0.3880 O   0  0  0  0  0  0  0  0  0  0  0  0
    2.0690   -1.3490    0.2650 C   0  0  0  0  0  0  0  0  0  0  0  0
    2.6550   -2.0530    1.0930 O   0  0  0  0  0  0  0  0  0  0  0  0
    2.4590    0.0010   -0.0820 C   0  0  0  0  0  0  0  0  0  0  0  0
    3.8250    0.4760    0.2540 C   0  0  0  0  0  0  0  0  0  0  0  0
    4.9910   -0.1160   -0.4260 C   0  0  1  0  0  0  0  0  0  0  0  0
    5.2150   -1.5650   -0.2760 C   0  0  0  0  0  0  0  0  0  0  0  0
    6.5310   -1.9710   -0.9750 C   0  0  0  0  0  0  0  0  0  0  0  0
    7.3260   -0.7710   -1.4080 C   0  0  0  0  0  0  0  0  0  0  0  0
    6.5430    0.1620   -2.2830 C   0  0  0  0  0  0  0  0  0  0  0  0
    5.0810    0.2440   -1.8960 C   0  0  2  0  0  0  0  0  0  0  0  0
    4.5950    1.5960   -2.1560 N   0  0  0  0  0  0  0  0  0  0  0  0
    5.1650    2.7510   -1.5740 C   0  0  0  0  0  0  0  0  0  0  0  0
    6.0860    2.8590   -0.7200 O   0  0  0  0  0  0  0  0  0  0  0  0
    4.4870    3.9450   -2.1410 C   0  0  0  0  0  0  0  0  0  0  0  0
    3.2340    3.4130   -2.7730 C   0  0  0  0  0  0  0  0  0  0  0  0
    3.5390    1.9860   -2.9960 C   0  0  0  0  0  0  0  0  0  0  0  0
    2.9050    1.2510   -3.8450 O   0  0  0  0  0  0  0  0  0  0  0  0
   -4.1910   -1.9500    3.1990 C   0  0  0  0  0  0  0  0  0  0  0  0
   -4.8810   -1.0320    2.4830 C   0  0  0  0  0  0  0  0  0  0  0  0
   -6.3770   -0.9700    2.5560 C   0  0  0  0  0  0  0  0  0  0  0  0
   -7.2440   -1.0610    1.6250 C   0  0  0  0  0  0  0  0  0  0  0  0
   -7.1740   -1.2650    0.2170 C   0  0  0  0  0  0  0  0  0  0  0  0
   -8.4520   -1.2750   -0.5940 C   0  0  0  0  0  0  0  0  0  0  0  0
   -6.1440   -1.4430   -0.4570 O   0  0  0  0  0  0  0  0  0  0  0  0
  1  2  1  0
  2  3  1  0
  3  4  1  1
  3  5  1  0
  5  6  1  0
  6  7  2  0
  6  8  1  0
  8  9  1  0
  8 37  2  0
  9 10  1  0
 10 11  1  0
 10 36  2  0
 11 12  1  1
 11 13  1  0
 13 14  1  0
 14 15  1  0
 15 16  2  0
 15 17  1  0
 17 18  1  0
 18 19  1  0
 19 20  2  0
 19 21  1  0
 21 22  1  0
 23 22  1  6
 23 24  1  0
 23 28  1  0
 24 25  1  0
 25 26  1  0
 26 27  1  0
 27 28  1  0
 28 29  1  1
 29 30  1  0
 29 34  1  0
 30 31  2  0
 30 32  1  0
 32 33  1  0
 33 34  1  0
 34 35  2  0
 36 37  1  0
 37 38  1  0
 38 39  2  3
 39 40  1  0
 40 41  1  0
 40 42  2  0
M  END
