
     RDKit          3D

 10  9  0  0  0  0  0  0  0  0999 V2000
   -1.7260    1.5550    1.6460 C   0  0  0  0  0  0  0  0  0  0  0  0
   -0.9430    1.0410    0.5530 N   0  0  0  0  0  0  0  0  0  0  0  0
    0.6210    1.7260    0.1350 S   0  0  0  0  0  0  0  0  0  0  0  0
    1.8630    0.2210   -0.6980 P   0  0  0  0  0  0  0  0  0  0  0  0
    2.9780   -0.5740    0.5300 C   0  0  0  0  0  0  0  0  0  0  0  0
    2.6380    0.6700   -2.1470 O   0  0  0  0  0  0  0  0  0  0  0  0
   -1.4440   -0.0500   -0.2100 C   0  0  0  0  0  0  0  0  0  0  0  0
   -0.3430   -1.4300   -0.7000 P   0  0  0  0  0  0  0  0  0  0  0  0
   -2.6700   -0.0680   -0.5570 N   0  0  0  0  0  0  0  0  0  0  0  0
   -3.2150   -1.0930   -1.2940 O   0  0  0  0  0  0  0  0  0  0  0  0
  1  2  1  0
  2  3  1  0
  2  7  1  0
  3  4  1  0
  4  5  1  0
  4  6  1  0
  7  8  1  0
  7  9  2  3
  9 10  1  0
M  END
