
     RDKit          3D

 22 22  0  0  0  0  0  0  0  0999 V2000
    4.0900    0.6260    0.9480 O   0  0  0  0  0  0  0  0  0  0  0  0
    4.2710    0.8420   -0.2900 C   0  0  0  0  0  0  0  0  0  0  0  0
    5.5350    1.2050   -0.6980 O   0  0  0  0  0  0  0  0  0  0  0  0
    3.1700    0.7010   -1.2030 N   0  0  0  0  0  0  0  0  0  0  0  0
    1.8840    0.3270   -0.7640 C   0  0  0  0  0  0  0  0  0  0  0  0
    1.7050    0.1150    0.4500 O   0  0  0  0  0  0  0  0  0  0  0  0
    0.7520    0.1820   -1.6970 C   0  0  0  0  0  0  0  0  0  0  0  0
   -0.4760   -0.2150   -1.0350 N   0  0  0  0  0  0  0  0  0  0  0  0
   -0.8340   -1.5830   -0.8800 C   0  0  0  0  0  0  0  0  0  0  0  0
   -0.3740   -2.2720    0.3490 C   0  0  1  0  0  0  0  0  0  0  0  0
   -0.8560   -1.6800    1.6350 C   0  0  0  0  0  0  0  0  0  0  0  0
   -2.2050   -2.0460    1.7290 O   0  0  0  0  0  0  0  0  0  0  0  0
   -2.3170   -3.2620    1.0320 C   0  0  0  0  0  0  0  0  0  0  0  0
   -3.3450   -4.0080    0.9650 O   0  0  0  0  0  0  0  0  0  0  0  0
   -1.0880   -3.5640    0.3860 N   0  0  0  0  0  0  0  0  0  0  0  0
   -1.3070    0.8450   -0.5570 C   0  0  0  0  0  0  0  0  0  0  0  0
   -2.3790    0.5300    0.0200 O   0  0  0  0  0  0  0  0  0  0  0  0
   -0.9630    2.2670   -0.7080 C   0  0  0  0  0  0  0  0  0  0  0  0
   -1.9590    3.0880   -0.1330 O   0  0  0  0  0  0  0  0  0  0  0  0
   -2.2450    2.9920    1.2010 C   0  0  0  0  0  0  0  0  0  0  0  0
   -1.6330    2.1840    1.9130 O   0  0  0  0  0  0  0  0  0  0  0  0
   -3.2210    3.7740    1.8360 O   0  0  0  0  0  0  0  0  0  0  0  0
  1  2  2  0
  2  3  1  0
  2  4  1  0
  4  5  1  0
  5  6  2  0
  5  7  1  0
  7  8  1  0
  8  9  1  0
  8 16  1  0
 10  9  1  6
 10 11  1  0
 10 15  1  0
 11 12  1  0
 12 13  1  0
 13 14  2  0
 13 15  1  0
 16 17  2  0
 16 18  1  0
 18 19  1  0
 19 20  1  0
 20 21  2  0
 20 22  1  0
M  END
