
     RDKit          3D

 22 22  0  0  0  0  0  0  0  0999 V2000
   -4.0550   -3.1060    0.0480 C   0  0  0  0  0  0  0  0  0  0  0  0
   -3.4570   -2.1070   -0.7130 O   0  0  0  0  0  0  0  0  0  0  0  0
   -2.3770   -1.5780    0.0330 C   0  0  0  0  0  0  0  0  0  0  0  0
   -1.7020   -0.4970   -0.7460 C   0  0  0  0  0  0  0  0  0  0  0  0
   -0.5850    0.1230   -0.0900 N   0  0  0  0  0  0  0  0  0  0  0  0
   -0.8100    1.2500    0.7380 C   0  0  0  0  0  0  0  0  0  0  0  0
    0.1550    1.8040    1.3190 O   0  0  0  0  0  0  0  0  0  0  0  0
   -2.0720    1.7830    0.9410 O   0  0  0  0  0  0  0  0  0  0  0  0
   -2.3090    2.8620    1.7290 O   0  0  0  0  0  0  0  0  0  0  0  0
   -2.6640    4.1050    1.2640 C   0  0  0  0  0  0  0  0  0  0  0  0
   -2.7830    4.2710    0.0230 O   0  0  0  0  0  0  0  0  0  0  0  0
   -2.9060    5.2070    2.0720 O   0  0  0  0  0  0  0  0  0  0  0  0
    0.7360   -0.3830   -0.2820 C   0  0  0  0  0  0  0  0  0  0  0  0
    1.7300    0.3070   -0.8120 C   0  0  0  0  0  0  0  0  0  0  0  0
    2.9400   -0.5300   -0.8540 C   0  0  1  0  0  0  0  0  0  0  0  0
    4.0400    0.0780   -0.1040 N   0  0  0  0  0  0  0  0  0  0  0  0
    5.2440    0.3680   -0.7650 C   0  0  0  0  0  0  0  0  0  0  0  0
    5.3410    0.0930   -1.9890 O   0  0  0  0  0  0  0  0  0  0  0  0
    6.3460    0.9430   -0.1490 O   0  0  0  0  0  0  0  0  0  0  0  0
    2.5340   -1.8140   -0.2660 C   0  0  0  0  0  0  0  0  0  0  0  0
    3.2730   -2.8240   -0.1020 O   0  0  0  0  0  0  0  0  0  0  0  0
    1.1630   -1.6780    0.0690 N   0  0  0  0  0  0  0  0  0  0  0  0
  1  2  1  0
  2  3  1  0
  3  4  1  0
  4  5  1  0
  5  6  1  0
  5 13  1  0
  6  7  2  0
  6  8  1  0
  8  9  1  0
  9 10  1  0
 10 11  2  0
 10 12  1  0
 13 14  2  0
 13 22  1  0
 14 15  1  0
 15 16  1  1
 15 20  1  0
 16 17  1  0
 17 18  2  0
 17 19  1  0
 20 21  2  0
 20 22  1  0
M  END
