
     RDKit          3D

 22 22  0  0  0  0  0  0  0  0999 V2000
   -2.4610   -3.5280    0.5420 N   0  0  0  0  0  0  0  0  0  0  0  0
   -3.2460   -2.5070    0.5290 C   0  0  0  0  0  0  0  0  0  0  0  0
   -2.7530   -1.1870    0.3800 N   0  0  0  0  0  0  0  0  0  0  0  0
   -3.6300   -0.0680    0.3670 C   0  0  0  0  0  0  0  0  0  0  0  0
   -3.1300    1.0780    0.2320 O   0  0  0  0  0  0  0  0  0  0  0  0
   -4.9880   -0.1560    0.4920 O   0  0  0  0  0  0  0  0  0  0  0  0
   -5.8440    0.9020    0.4820 O   0  0  0  0  0  0  0  0  0  0  0  0
   -5.9890    1.7810   -0.5580 C   0  0  0  0  0  0  0  0  0  0  0  0
   -5.2700    1.5900   -1.5860 O   0  0  0  0  0  0  0  0  0  0  0  0
   -6.8900    2.8480   -0.5000 O   0  0  0  0  0  0  0  0  0  0  0  0
   -1.3310   -0.9930    0.2410 C   0  0  0  0  0  0  0  0  0  0  0  0
   -0.5340   -0.2950    1.0320 C   0  0  0  0  0  0  0  0  0  0  0  0
    0.8420   -0.3390    0.5560 C   0  0  0  0  0  0  0  0  0  0  0  0
    1.9010    0.2230    1.0690 C   0  0  0  0  0  0  0  0  0  0  0  0
    3.1820    0.0750    0.4680 N   0  0  0  0  0  0  0  0  0  0  0  0
    4.1970    1.0800    0.5290 C   0  0  0  0  0  0  0  0  0  0  0  0
    5.4370    0.6200   -0.2030 C   0  0  0  0  0  0  0  0  0  0  0  0
    6.4450    1.5570   -0.1720 O   0  0  0  0  0  0  0  0  0  0  0  0
    7.4740    1.0690   -0.8310 O   0  0  0  0  0  0  0  0  0  0  0  0
    0.8330   -1.1190   -0.5890 O   0  0  0  0  0  0  0  0  0  0  0  0
   -0.4750   -1.5340   -0.8090 C   0  0  0  0  0  0  0  0  0  0  0  0
   -0.8750   -2.2600   -1.7590 O   0  0  0  0  0  0  0  0  0  0  0  0
  1  2  2  0
  2  3  1  0
  3  4  1  0
  3 11  1  0
  4  5  2  0
  4  6  1  0
  6  7  1  0
  7  8  1  0
  8  9  2  0
  8 10  1  0
 11 12  2  0
 11 21  1  0
 12 13  1  0
 13 14  2  3
 13 20  1  0
 14 15  1  0
 15 16  1  0
 16 17  1  0
 17 18  1  0
 18 19  1  0
 20 21  1  0
 21 22  2  0
M  END
