
     RDKit          3D

 21 24  0  0  0  0  0  0  0  0999 V2000
   -0.2540    1.9610   -2.4930 C   0  0  0  0  0  0  0  0  0  0  0  0
   -1.4660    1.6480   -1.6920 C   0  0  0  0  0  0  0  0  0  0  0  0
   -2.7170    2.0490   -2.1180 C   0  0  0  0  0  0  0  0  0  0  0  0
   -3.8300    1.7680   -1.3950 N   0  0  0  0  0  0  0  0  0  0  0  0
   -3.7770    1.0870   -0.2290 C   0  0  0  0  0  0  0  0  0  0  0  0
   -4.7090    0.6680    0.6950 C   0  0  0  0  0  0  0  0  0  0  0  0
   -4.1140    0.0080    1.7080 N   0  0  0  0  0  0  0  0  0  0  0  0
   -2.8070    0.0100    1.4270 C   0  0  0  0  0  0  0  0  0  0  0  0
   -2.5500    0.6650    0.2390 C   0  0  0  0  0  0  0  0  0  0  0  0
   -1.4140    0.9520   -0.4990 C   0  0  0  0  0  0  0  0  0  0  0  0
   -0.1600    0.5230   -0.0260 N   0  0  0  0  0  0  0  0  0  0  0  0
    0.4060   -0.7330   -0.3540 C   0  0  0  0  0  0  0  0  0  0  0  0
   -0.2420   -1.5050   -1.1060 O   0  0  0  0  0  0  0  0  0  0  0  0
    1.6780   -1.1510    0.1340 C   0  0  0  0  0  0  0  0  0  0  0  0
    2.3180   -2.3150   -0.1050 C   0  0  0  0  0  0  0  0  0  0  0  0
    3.5930   -2.2690    0.6300 C   0  0  0  0  0  0  0  0  0  0  0  0
    4.6020   -2.7740    1.2730 C   0  0  0  0  0  0  0  0  0  0  0  0
    5.4780   -1.7390    1.6780 N   0  0  0  0  0  0  0  0  0  0  0  0
    5.0400   -0.6040    1.2850 N   0  0  0  0  0  0  0  0  0  0  0  0
    3.8760   -0.7540    0.5790 C   0  0  2  0  0  0  0  0  0  0  0  0
    2.5670   -0.3460    0.9780 N   0  0  0  0  0  0  0  0  0  0  0  0
  1  2  1  0
  2  3  1  0
  2 10  2  0
  3  4  2  0
  4  5  1  0
  5  6  2  0
  5  9  1  0
  6  7  1  0
  7  8  1  0
  8  9  2  0
  9 10  1  0
 10 11  1  0
 11 12  1  0
 12 13  2  0
 12 14  1  0
 14 15  2  0
 14 21  1  0
 15 16  1  0
 16 17  2  0
 16 20  1  0
 17 18  1  0
 18 19  2  0
 19 20  1  0
 20 21  1  1
M  END
