
     RDKit          3D

 21 23  0  0  0  0  0  0  0  0999 V2000
   -3.5120   -2.8740   -0.2140 C   0  0  0  0  0  0  0  0  0  0  0  0
   -3.4190   -1.3990   -0.4490 C   0  0  1  0  0  0  0  0  0  0  0  0
   -4.1290   -0.6540    0.6680 C   0  0  0  0  0  0  0  0  0  0  0  0
   -4.2290    0.7870    0.1370 C   0  0  0  0  0  0  0  0  0  0  0  0
   -2.8550    1.3240    0.2510 C   0  0  2  0  0  0  0  0  0  0  0  0
   -2.7790    2.6970   -0.4290 C   0  0  0  0  0  0  0  0  0  0  0  0
   -1.7450    0.4540   -0.1700 C   0  0  1  0  0  0  0  0  0  0  0  0
   -0.6200    0.4940    0.8710 C   0  0  0  0  0  0  0  0  0  0  0  0
    0.5430   -0.2870    0.3970 N   0  0  0  0  0  0  0  0  0  0  0  0
    1.6350    0.6120    0.4290 N   0  0  0  0  0  0  0  0  0  0  0  0
    2.9450    0.2620    0.1580 C   0  0  0  0  0  0  0  0  0  0  0  0
    3.8800    0.3940    1.1050 N   0  0  0  0  0  0  0  0  0  0  0  0
    5.1900    0.1580    0.8250 C   0  0  0  0  0  0  0  0  0  0  0  0
    6.1780    0.3070    1.8200 N   0  0  0  0  0  0  0  0  0  0  0  0
    5.5080   -0.2160   -0.4410 C   0  0  0  0  0  0  0  0  0  0  0  0
    6.7580   -0.5100   -1.0470 C   0  0  0  0  0  0  0  0  0  0  0  0
    6.4860   -0.7970   -2.3100 N   0  0  0  0  0  0  0  0  0  0  0  0
    5.1820   -0.7030   -2.5260 O   0  0  0  0  0  0  0  0  0  0  0  0
    4.5820   -0.3550   -1.4200 C   0  0  0  0  0  0  0  0  0  0  0  0
    3.2900   -0.1080   -1.0720 N   0  0  0  0  0  0  0  0  0  0  0  0
   -2.0220   -0.8880   -0.6530 C   0  0  0  0  0  0  0  0  0  0  0  0
  2  1  1  1
  2  3  1  0
  2 21  1  0
  3  4  1  0
  4  5  1  0
  5  6  1  6
  5  7  1  0
  7  8  1  1
  7 21  1  0
  8  9  1  0
  9 10  1  0
 10 11  1  0
 11 12  2  0
 11 20  1  0
 12 13  1  0
 13 14  1  0
 13 15  2  0
 15 16  1  0
 15 19  1  0
 16 17  2  0
 17 18  1  0
 18 19  1  0
 19 20  2  0
M  END
