
     RDKit          3D

 21 23  0  0  0  0  0  0  0  0999 V2000
    1.6350   -0.8140    1.4650 O   0  0  0  0  0  0  0  0  0  0  0  0
    2.1660   -0.7070    0.3530 C   0  0  0  0  0  0  0  0  0  0  0  0
    1.3880   -0.8300   -0.8850 C   0  0  0  0  0  0  0  0  0  0  0  0
   -0.0520   -1.0840   -0.7230 C   0  0  0  0  0  0  0  0  0  0  0  0
   -0.7150   -2.2880   -0.7610 C   0  0  0  0  0  0  0  0  0  0  0  0
   -2.0400   -2.0620   -0.6000 N   0  0  0  0  0  0  0  0  0  0  0  0
   -2.2310   -0.7410   -0.4600 C   0  0  0  0  0  0  0  0  0  0  0  0
   -3.5620   -0.1180   -0.3010 C   0  0  1  0  0  0  0  0  0  0  0  0
   -4.0980   -0.2570    1.1410 C   0  0  0  0  0  0  0  0  0  0  0  0
   -5.5570   -0.0140    0.9840 C   0  0  0  0  0  0  0  0  0  0  0  0
   -5.9650    0.9920    0.2350 C   0  0  0  0  0  0  0  0  0  0  0  0
   -4.9910    1.8740   -0.4450 C   0  0  0  0  0  0  0  0  0  0  0  0
   -3.6090    1.3310   -0.6120 C   0  0  0  0  0  0  0  0  0  0  0  0
   -1.0270   -0.1670   -0.5350 N   0  0  0  0  0  0  0  0  0  0  0  0
    3.5510   -0.4590    0.2360 N   0  0  0  0  0  0  0  0  0  0  0  0
    4.4320   -0.3050    1.3210 N   0  0  0  0  0  0  0  0  0  0  0  0
    5.7460    0.1910    0.9730 C   0  0  0  0  0  0  0  0  0  0  0  0
    6.8950   -0.4990    0.7090 C   0  0  0  0  0  0  0  0  0  0  0  0
    7.8410    0.4080    0.4150 N   0  0  0  0  0  0  0  0  0  0  0  0
    7.3440    1.6220    0.4840 N   0  0  0  0  0  0  0  0  0  0  0  0
    6.0420    1.5310    0.8280 C   0  0  0  0  0  0  0  0  0  0  0  0
  1  2  2  0
  2  3  1  0
  2 15  1  0
  3  4  1  0
  4  5  2  0
  4 14  1  0
  5  6  1  0
  6  7  1  0
  8  7  1  1
  7 14  2  0
  8  9  1  0
  8 13  1  0
  9 10  1  0
 10 11  2  0
 11 12  1  0
 12 13  1  0
 15 16  1  0
 16 17  1  0
 17 18  1  0
 17 21  2  0
 18 19  2  0
 19 20  1  0
 20 21  1  0
M  END
