
     RDKit          3D

 21 24  0  0  0  0  0  0  0  0999 V2000
   -1.5110    0.3250    3.3600 N   0  0  0  0  0  0  0  0  0  0  0  0
   -1.2690    0.4320    1.9640 C   0  0  0  0  0  0  0  0  0  0  0  0
   -2.2640    0.1560    1.0760 N   0  0  0  0  0  0  0  0  0  0  0  0
   -2.0770    0.2450   -0.2430 C   0  0  0  0  0  0  0  0  0  0  0  0
   -3.1450   -0.0540   -1.1150 N   0  0  0  0  0  0  0  0  0  0  0  0
   -4.4080   -0.4470   -0.5590 C   0  0  1  0  0  0  0  0  0  0  0  0
   -5.5730   -0.7810   -1.3990 C   0  0  0  0  0  0  0  0  0  0  0  0
   -4.7450   -1.9160   -0.8090 C   0  0  0  0  0  0  0  0  0  0  0  0
   -0.8320    0.6290   -0.6890 C   0  0  0  0  0  0  0  0  0  0  0  0
   -0.3350    0.8080   -1.9090 N   0  0  0  0  0  0  0  0  0  0  0  0
    0.9480    1.1900   -1.7830 C   0  0  0  0  0  0  0  0  0  0  0  0
    1.2930    1.2620   -0.4860 N   0  0  0  0  0  0  0  0  0  0  0  0
    2.5870    1.6380    0.0170 C   0  0  1  0  0  0  0  0  0  0  0  0
    2.7390    1.2640    1.4300 C   0  0  0  0  0  0  0  0  0  0  0  0
    3.4740    0.2010    1.5770 C   0  0  0  0  0  0  0  0  0  0  0  0
    3.9290   -0.3010    0.2740 C   0  0  1  0  0  0  0  0  0  0  0  0
    3.1510   -1.5490   -0.1440 C   0  0  0  0  0  0  0  0  0  0  0  0
    3.6070   -1.9940   -1.3770 O   0  0  0  0  0  0  0  0  0  0  0  0
    3.6760    0.8380   -0.6770 C   0  0  0  0  0  0  0  0  0  0  0  0
    0.1990    0.9160    0.2160 C   0  0  0  0  0  0  0  0  0  0  0  0
   -0.0700    0.8030    1.5170 N   0  0  0  0  0  0  0  0  0  0  0  0
  1  2  1  0
  2  3  2  0
  2 21  1  0
  3  4  1  0
  4  5  1  0
  4  9  2  0
  6  5  1  6
  6  7  1  0
  6  8  1  0
  7  8  1  0
  9 10  1  0
  9 20  1  0
 10 11  2  0
 11 12  1  0
 13 12  1  6
 12 20  1  0
 13 14  1  0
 13 19  1  0
 14 15  2  0
 15 16  1  0
 16 17  1  6
 16 19  1  0
 17 18  1  0
 20 21  2  0
M  END
