
     RDKit          3D

 25 26  0  0  0  0  0  0  0  0999 V2000
    5.1140   -0.9670   -2.9080 N   0  0  0  0  0  0  0  0  0  0  0  0
    5.0340    0.4350   -2.8090 C   0  0  0  0  0  0  0  0  0  0  0  0
    4.9070    1.3900   -4.1140 S   0  0  0  0  0  0  0  0  0  0  0  0
    5.0660    1.0600   -1.4680 C   0  0  0  0  0  0  0  0  0  0  0  0
    3.9560    0.5500   -0.7470 O   0  0  0  0  0  0  0  0  0  0  0  0
    3.7380    0.9680    0.5500 C   0  0  0  0  0  0  0  0  0  0  0  0
    4.5100    1.7870    1.0830 O   0  0  0  0  0  0  0  0  0  0  0  0
    2.5820    0.4240    1.2720 C   0  0  0  0  0  0  0  0  0  0  0  0
    2.3210    0.7870    2.5180 C   0  0  0  0  0  0  0  0  0  0  0  0
    1.1570    0.2000    3.1610 C   0  0  0  0  0  0  0  0  0  0  0  0
    0.3930   -0.6560    2.5330 C   0  0  0  0  0  0  0  0  0  0  0  0
    0.6170   -1.0740    1.2290 N   0  0  1  0  0  0  0  0  0  0  0  0
   -0.5780   -0.8970    0.3880 C   0  0  0  0  0  0  0  0  0  0  0  0
   -1.0470    0.5170    0.4060 C   0  0  0  0  0  0  0  0  0  0  0  0
   -2.1720    0.7260   -0.3700 O   0  0  0  0  0  0  0  0  0  0  0  0
   -3.4470    0.2390   -0.2720 C   0  0  0  0  0  0  0  0  0  0  0  0
   -3.9480   -0.5900    0.6790 C   0  0  0  0  0  0  0  0  0  0  0  0
   -5.2460   -1.0290    0.6890 C   0  0  0  0  0  0  0  0  0  0  0  0
   -5.7250   -1.8900    1.6970 O   0  0  0  0  0  0  0  0  0  0  0  0
   -6.0650   -0.6170   -0.2930 N   0  0  0  0  0  0  0  0  0  0  0  0
   -5.6140    0.2090   -1.2630 C   0  0  0  0  0  0  0  0  0  0  0  0
   -6.4610    0.6380   -2.2830 O   0  0  0  0  0  0  0  0  0  0  0  0
   -4.3200    0.6590   -1.2920 C   0  0  0  0  0  0  0  0  0  0  0  0
   -3.8660    1.5080   -2.2930 O   0  0  0  0  0  0  0  0  0  0  0  0
    1.7180   -0.5370    0.5660 C   0  0  0  0  0  0  0  0  0  0  0  0
  1  2  1  0
  2  3  2  0
  2  4  1  0
  4  5  1  0
  5  6  1  0
  6  7  2  0
  6  8  1  0
  8  9  2  0
  8 25  1  0
  9 10  1  0
 10 11  2  0
 11 12  1  0
 12 13  1  6
 12 25  1  0
 13 14  1  0
 14 15  1  0
 15 16  1  0
 16 17  2  0
 16 23  1  0
 17 18  1  0
 18 19  1  0
 18 20  2  0
 20 21  1  0
 21 22  1  0
 21 23  2  0
 23 24  1  0
M  CHG  1  12   1
M  END
