
     RDKit          3D

 12 12  0  0  0  0  0  0  0  0999 V2000
    0.3960   -2.5950   -0.1230 N   0  0  0  0  0  0  0  0  0  0  0  0
    1.1780   -1.4730   -0.0530 O   0  0  0  0  0  0  0  0  0  0  0  0
    0.5670   -0.2350   -0.0180 C   0  0  0  0  0  0  0  0  0  0  0  0
   -0.8050   -0.1460   -0.0550 C   0  0  0  0  0  0  0  0  0  0  0  0
   -1.6480   -1.3060   -0.1290 N   0  0  0  0  0  0  0  0  0  0  0  0
   -1.4710    1.0850   -0.0220 C   0  0  0  0  0  0  0  0  0  0  0  0
   -3.2390    1.1470   -0.0720 Cl  0  0  0  0  0  0  0  0  0  0  0  0
   -0.7410    2.2550    0.0480 C   0  0  0  0  0  0  0  0  0  0  0  0
    0.6370    2.1660    0.0850 C   0  0  0  0  0  0  0  0  0  0  0  0
    1.5560    3.6550    0.1750 Cl  0  0  0  0  0  0  0  0  0  0  0  0
    1.2780    0.9450    0.0520 C   0  0  0  0  0  0  0  0  0  0  0  0
    3.0510    0.8520    0.1000 S   0  0  0  0  0  0  0  0  0  0  0  0
  1  2  1  0
  2  3  1  0
  3  4  2  0
  3 11  1  0
  4  5  1  0
  4  6  1  0
  6  7  1  0
  6  8  2  0
  8  9  1  0
  9 10  1  0
  9 11  2  0
 11 12  1  0
M  END
