
     RDKit          3D

 12 13  0  0  0  0  0  0  0  0999 V2000
    2.8500    0.4760   -0.1090 N   0  0  0  0  0  0  0  0  0  0  0  0
    1.9160   -0.5680   -0.2530 C   0  0  0  0  0  0  0  0  0  0  0  0
    2.3250   -2.0980   -0.5860 S   0  0  0  0  0  0  0  0  0  0  0  0
    0.4830   -0.2280   -0.0860 C   0  0  0  0  0  0  0  0  0  0  0  0
   -0.4230   -1.1670   -0.2120 C   0  0  0  0  0  0  0  0  0  0  0  0
    0.1700   -2.7980   -0.5780 Cl  0  0  0  0  0  0  0  0  0  0  0  0
   -1.8510   -0.9100   -0.0620 C   0  0  0  0  0  0  0  0  0  0  0  0
   -2.2180    0.4280    0.2300 N   0  0  0  0  0  0  0  0  0  0  0  0
   -1.2720    1.4660    0.3720 C   0  0  0  0  0  0  0  0  0  0  0  0
   -1.6690    2.6510    0.6360 O   0  0  0  0  0  0  0  0  0  0  0  0
    0.1290    1.1600    0.2150 C   0  0  0  0  0  0  0  0  0  0  0  0
    1.0010    2.0460    0.3320 O   0  0  0  0  0  0  0  0  0  0  0  0
  1  2  1  0
  2  3  2  0
  2  4  1  0
  4  5  2  0
  4 11  1  0
  5  6  1  0
  5  7  1  0
  7  8  1  0
  8  9  1  0
  9 10  2  0
  9 11  1  0
 11 12  2  0
  6  3  1  0
M  END
