
     RDKit          3D

 25 28  0  0  0  0  0  0  0  0999 V2000
    1.0950   -4.1120    1.3860 C   0  0  0  0  0  0  0  0  0  0  0  0
    1.3090   -2.8070    0.9410 O   0  0  0  0  0  0  0  0  0  0  0  0
    0.2820   -1.9180    0.6550 C   0  0  0  0  0  0  0  0  0  0  0  0
   -1.0440   -2.2590    0.7900 C   0  0  0  0  0  0  0  0  0  0  0  0
   -2.0800   -1.3790    0.5080 C   0  0  0  0  0  0  0  0  0  0  0  0
   -3.3980   -1.7670    0.6590 C   0  0  0  0  0  0  0  0  0  0  0  0
   -3.6690   -2.9400    1.0600 O   0  0  0  0  0  0  0  0  0  0  0  0
   -4.3920   -0.9140    0.3850 N   0  0  0  0  0  0  0  0  0  0  0  0
   -4.0700    0.3200   -0.0370 C   0  0  0  0  0  0  0  0  0  0  0  0
   -5.1380    1.1800   -0.3130 C   0  0  0  0  0  0  0  0  0  0  0  0
   -4.8470    2.4550   -0.7480 C   0  0  0  0  0  0  0  0  0  0  0  0
   -3.5480    2.8870   -0.9140 C   0  0  0  0  0  0  0  0  0  0  0  0
   -2.4780    2.0290   -0.6400 C   0  0  0  0  0  0  0  0  0  0  0  0
   -2.7600    0.7710   -0.2100 C   0  0  0  0  0  0  0  0  0  0  0  0
   -1.7310   -0.1020    0.0710 C   0  0  0  0  0  0  0  0  0  0  0  0
   -0.4240    0.2740   -0.0760 C   0  0  0  0  0  0  0  0  0  0  0  0
    0.5790   -0.6280    0.2140 C   0  0  0  0  0  0  0  0  0  0  0  0
    1.8840   -0.2690    0.0730 O   0  0  0  0  0  0  0  0  0  0  0  0
    2.3730    0.9610   -0.3510 C   0  0  0  0  0  0  0  0  0  0  0  0
    3.8630    0.9370   -0.3650 C   0  0  0  0  0  0  0  0  0  0  0  0
    4.5960   -0.0640   -0.0360 N   0  0  0  0  0  0  0  0  0  0  0  0
    5.9680    0.2330   -0.1570 C   0  0  0  0  0  0  0  0  0  0  0  0
    6.1130    1.4760   -0.5810 C   0  0  0  0  0  0  0  0  0  0  0  0
    4.7520    2.0360   -0.7510 C   0  0  1  0  0  0  0  0  0  0  0  0
    4.5240    2.4620   -2.0570 F   0  0  0  0  0  0  0  0  0  0  0  0
  1  2  1  0
  2  3  1  0
  3  4  2  0
  3 17  1  0
  4  5  1  0
  5  6  1  0
  5 15  2  0
  6  7  2  0
  6  8  1  0
  8  9  1  0
  9 10  2  0
  9 14  1  0
 10 11  1  0
 11 12  2  0
 12 13  1  0
 13 14  2  0
 14 15  1  0
 15 16  1  0
 16 17  2  0
 17 18  1  0
 18 19  1  0
 19 20  1  0
 20 21  2  0
 20 24  1  0
 21 22  1  0
 22 23  2  0
 23 24  1  0
 24 25  1  6
M  END
