
     RDKit          3D

 25 27  0  0  0  0  0  0  0  0999 V2000
    7.2920    1.1260    0.5290 C   0  0  0  0  0  0  0  0  0  0  0  0
    5.8430    1.2880    0.7610 C   0  0  0  0  0  0  0  0  0  0  0  0
    4.9730    0.5720    0.0840 C   0  0  0  0  0  0  0  0  0  0  0  0
    3.5420    0.7190    0.3020 C   0  0  0  0  0  0  0  0  0  0  0  0
    2.6620    0.0040   -0.3740 C   0  0  0  0  0  0  0  0  0  0  0  0
    1.2220    0.1480   -0.1610 C   0  0  0  0  0  0  0  0  0  0  0  0
    0.4250   -0.6000   -0.8710 C   0  0  0  0  0  0  0  0  0  0  0  0
   -1.0320   -0.5340   -0.7370 C   0  0  0  0  0  0  0  0  0  0  0  0
   -1.8360   -1.3230   -1.4570 N   0  0  0  0  0  0  0  0  0  0  0  0
   -3.1980   -1.2480   -1.2880 C   0  0  0  0  0  0  0  0  0  0  0  0
   -3.8460   -2.0200   -2.0020 O   0  0  0  0  0  0  0  0  0  0  0  0
   -3.7460   -0.3930   -0.4090 N   0  0  0  0  0  0  0  0  0  0  0  0
   -5.1850   -0.3190   -0.2270 C   0  0  0  0  0  0  0  0  0  0  0  0
   -5.8200    0.4990    0.5970 C   0  0  0  0  0  0  0  0  0  0  0  0
   -7.2940    0.3160    0.5390 C   0  0  0  0  0  0  0  0  0  0  0  0
   -7.4360   -0.7470   -0.4540 C   0  0  0  0  0  0  0  0  0  0  0  0
   -6.2060   -1.0950   -0.8800 C   0  0  0  0  0  0  0  0  0  0  0  0
   -6.0860   -2.0640   -1.8030 F   0  0  0  0  0  0  0  0  0  0  0  0
   -2.9260    0.3900    0.3040 C   0  0  0  0  0  0  0  0  0  0  0  0
   -3.3360    1.2220    1.1510 O   0  0  0  0  0  0  0  0  0  0  0  0
   -1.5170    0.3550    0.1700 C   0  0  0  0  0  0  0  0  0  0  0  0
   -0.6890    1.2590    0.9720 C   0  0  0  0  0  0  0  0  0  0  0  0
    0.7590    1.1000    0.8400 C   0  0  0  0  0  0  0  0  0  0  0  0
    5.4160   -0.3550   -0.8680 O   0  0  0  0  0  0  0  0  0  0  0  0
    5.5710   -1.6920   -0.4570 C   0  0  0  0  0  0  0  0  0  0  0  0
  1  2  1  0
  2  3  2  3
  3  4  1  0
  3 24  1  0
  4  5  2  3
  5  6  1  0
  6  7  2  0
  6 23  1  0
  7  8  1  0
  8  9  1  0
  8 21  2  0
  9 10  1  0
 10 11  2  0
 10 12  1  0
 12 13  1  0
 12 19  1  0
 13 14  2  0
 13 17  1  0
 14 15  1  0
 15 16  1  0
 16 17  2  0
 17 18  1  0
 19 20  2  0
 19 21  1  0
 21 22  1  0
 22 23  1  0
 24 25  1  0
M  END
