
     RDKit          3D

 25 28  0  0  0  0  0  0  0  0999 V2000
   -3.7740    3.2660   -0.8460 C   0  0  0  0  0  0  0  0  0  0  0  0
   -3.4800    1.8540   -0.3840 C   0  0  0  0  0  0  0  0  0  0  0  0
   -2.1930    1.5200   -0.2730 C   0  0  0  0  0  0  0  0  0  0  0  0
   -1.7300    0.2280    0.1500 C   0  0  0  0  0  0  0  0  0  0  0  0
   -0.3950   -0.1740    0.2830 N   0  0  0  0  0  0  0  0  0  0  0  0
    0.7800    0.5740    0.0400 C   0  0  0  0  0  0  0  0  0  0  0  0
    0.6390    1.7530   -0.3460 O   0  0  0  0  0  0  0  0  0  0  0  0
    2.1450   -0.0190    0.2360 C   0  0  1  0  0  0  0  0  0  0  0  0
    2.3250   -1.2710   -0.5730 C   0  0  0  0  0  0  0  0  0  0  0  0
    3.6700   -1.4960   -0.9370 O   0  0  0  0  0  0  0  0  0  0  0  0
    4.7040   -0.6490   -0.6260 C   0  0  0  0  0  0  0  0  0  0  0  0
    6.0260   -1.0920   -0.7530 C   0  0  0  0  0  0  0  0  0  0  0  0
    7.0720   -0.2470   -0.4420 C   0  0  0  0  0  0  0  0  0  0  0  0
    8.3500   -0.6710   -0.5630 F   0  0  0  0  0  0  0  0  0  0  0  0
    6.7570    1.0150   -0.0150 C   0  0  0  0  0  0  0  0  0  0  0  0
    5.4580    1.4650    0.1140 C   0  0  0  0  0  0  0  0  0  0  0  0
    4.4110    0.6240   -0.1940 C   0  0  0  0  0  0  0  0  0  0  0  0
    3.0770    0.9920   -0.0940 O   0  0  0  0  0  0  0  0  0  0  0  0
   -2.6930   -0.6760    0.4440 C   0  0  0  0  0  0  0  0  0  0  0  0
   -2.2690   -1.9710    0.8680 N   0  0  0  0  0  0  0  0  0  0  0  0
   -3.1310   -2.8750    1.1620 C   0  0  0  0  0  0  0  0  0  0  0  0
   -4.5820   -2.6790    1.0960 C   0  0  0  0  0  0  0  0  0  0  0  0
   -4.9710   -1.3400    0.6580 C   0  0  0  0  0  0  0  0  0  0  0  0
   -4.1060   -0.3670    0.3400 C   0  0  0  0  0  0  0  0  0  0  0  0
   -4.5940    0.9530   -0.0920 C   0  0  0  0  0  0  0  0  0  0  0  0
  1  2  1  0
  2  3  2  0
  2 25  1  0
  3  4  1  0
  4  5  1  0
  4 19  2  0
  5  6  1  0
  6  7  2  0
  8  6  1  6
  8  9  1  0
  8 18  1  0
  9 10  1  0
 10 11  1  0
 11 12  2  0
 11 17  1  0
 12 13  1  0
 13 14  1  0
 13 15  2  0
 15 16  1  0
 16 17  2  0
 17 18  1  0
 19 20  1  0
 19 24  1  0
 20 21  2  0
 21 22  1  0
 22 23  1  0
 23 24  2  0
 24 25  1  0
M  END
