
     RDKit          3D

 25 28  0  0  0  0  0  0  0  0999 V2000
   -3.9780   -1.6660    1.3850 C   0  0  0  0  0  0  0  0  0  0  0  0
   -4.1390   -0.8160    0.1140 C   0  0  0  0  0  0  0  0  0  0  0  0
   -5.3350   -0.7610   -0.3940 C   0  0  0  0  0  0  0  0  0  0  0  0
   -6.3710   -1.4620    0.2440 F   0  0  0  0  0  0  0  0  0  0  0  0
   -2.9460   -0.1300   -0.3150 C   0  0  0  0  0  0  0  0  0  0  0  0
   -1.7230   -0.5650    0.2180 C   0  0  0  0  0  0  0  0  0  0  0  0
   -0.5100   -0.0250   -0.0460 C   0  0  0  0  0  0  0  0  0  0  0  0
    0.6510   -0.5110    0.5160 C   0  0  0  0  0  0  0  0  0  0  0  0
    1.8900    0.0730    0.2170 C   0  0  0  0  0  0  0  0  0  0  0  0
    3.0510   -0.4970    0.8810 C   0  0  0  0  0  0  0  0  0  0  0  0
    2.9790   -1.4090    1.8580 O   0  0  0  0  0  0  0  0  0  0  0  0
    4.1340   -1.7530    2.2770 N   0  0  0  0  0  0  0  0  0  0  0  0
    5.0930   -1.0970    1.6100 C   0  0  0  0  0  0  0  0  0  0  0  0
    4.3960   -0.2820    0.7030 C   0  0  0  0  0  0  0  0  0  0  0  0
    5.4020    0.4460   -0.0540 C   0  0  0  0  0  0  0  0  0  0  0  0
    5.1710    1.2750   -0.9640 O   0  0  0  0  0  0  0  0  0  0  0  0
    6.7230    0.0720    0.3960 N   0  0  0  0  0  0  0  0  0  0  0  0
    6.5080   -0.8750    1.4170 C   0  0  0  0  0  0  0  0  0  0  0  0
    7.4360   -1.4520    2.0740 O   0  0  0  0  0  0  0  0  0  0  0  0
    1.9170    1.1280   -0.6380 C   0  0  0  0  0  0  0  0  0  0  0  0
    0.7480    1.6210   -1.2070 C   0  0  0  0  0  0  0  0  0  0  0  0
   -0.4690    1.0470   -0.9140 C   0  0  0  0  0  0  0  0  0  0  0  0
   -1.6320    1.5200   -1.4680 C   0  0  0  0  0  0  0  0  0  0  0  0
   -2.8720    0.9350   -1.1700 C   0  0  0  0  0  0  0  0  0  0  0  0
   -4.0770    1.5390   -1.7600 C   0  0  0  0  0  0  0  0  0  0  0  0
  1  2  1  0
  2  3  2  3
  2  5  1  0
  3  4  1  0
  5  6  2  0
  5 24  1  0
  6  7  1  0
  7  8  2  0
  7 22  1  0
  8  9  1  0
  9 10  1  0
  9 20  2  0
 10 11  1  0
 10 14  2  0
 11 12  1  0
 12 13  2  0
 13 14  1  0
 13 18  1  0
 14 15  1  0
 15 16  2  0
 15 17  1  0
 17 18  1  0
 18 19  2  0
 20 21  1  0
 21 22  2  0
 22 23  1  0
 23 24  2  0
 24 25  1  0
M  END
