
     RDKit          3D

 25 28  0  0  0  0  0  0  0  0999 V2000
   -2.2930    0.7970    0.4270 O   0  0  0  0  0  0  0  0  0  0  0  0
   -2.6390   -0.3730    0.0300 C   0  0  0  0  0  0  0  0  0  0  0  0
   -3.9830   -0.6150   -0.0240 O   0  0  0  0  0  0  0  0  0  0  0  0
   -4.9880    0.2580    0.2990 C   0  0  0  0  0  0  0  0  0  0  0  0
   -4.9700    1.4930    0.7250 C   0  0  0  0  0  0  0  0  0  0  0  0
   -6.3480    2.0030    0.9310 C   0  0  0  0  0  0  0  0  0  0  0  0
   -7.1990    0.8580    0.5540 C   0  0  0  0  0  0  0  0  0  0  0  0
   -8.5700    0.8660    0.5870 F   0  0  0  0  0  0  0  0  0  0  0  0
   -6.4040   -0.1220    0.1980 C   0  0  0  0  0  0  0  0  0  0  0  0
   -1.6300   -1.3510   -0.3290 C   0  0  0  0  0  0  0  0  0  0  0  0
   -1.8280   -2.5980   -0.7550 N   0  0  0  0  0  0  0  0  0  0  0  0
   -0.6540   -3.1890   -0.9850 N   0  0  0  0  0  0  0  0  0  0  0  0
    0.3400   -2.3360   -0.7120 C   0  0  0  0  0  0  0  0  0  0  0  0
    1.7010   -2.4540   -0.7820 C   0  0  0  0  0  0  0  0  0  0  0  0
    2.5300   -1.3800   -0.4290 C   0  0  0  0  0  0  0  0  0  0  0  0
    1.9520   -0.2130   -0.0130 C   0  0  0  0  0  0  0  0  0  0  0  0
    2.6980    0.9040    0.3560 O   0  0  0  0  0  0  0  0  0  0  0  0
    4.0890    0.8920    0.3220 C   0  0  0  0  0  0  0  0  0  0  0  0
    4.8470    0.5060    1.4050 C   0  0  0  0  0  0  0  0  0  0  0  0
    6.2210    0.5080    1.3330 C   0  0  0  0  0  0  0  0  0  0  0  0
    6.9030    0.8890    0.1950 C   0  0  0  0  0  0  0  0  0  0  0  0
    6.1300    1.2720   -0.8800 C   0  0  0  0  0  0  0  0  0  0  0  0
    4.7540    1.2760   -0.8220 C   0  0  0  0  0  0  0  0  0  0  0  0
    0.5780   -0.1110    0.0510 C   0  0  0  0  0  0  0  0  0  0  0  0
   -0.2740   -1.1580   -0.2920 C   0  0  0  0  0  0  0  0  0  0  0  0
  1  2  2  0
  2  3  1  0
  2 10  1  0
  3  4  1  0
  4  5  2  0
  4  9  1  0
  5  6  1  0
  6  7  1  0
  7  8  1  0
  7  9  2  0
 10 11  1  0
 10 25  2  0
 11 12  1  0
 12 13  2  0
 13 14  1  0
 13 25  1  0
 14 15  2  0
 15 16  1  0
 16 17  1  0
 16 24  2  0
 17 18  1  0
 18 19  2  0
 18 23  1  0
 19 20  1  0
 20 21  2  0
 21 22  1  0
 22 23  2  0
 24 25  1  0
M  END
