
     RDKit          3D

 25 28  0  0  0  0  0  0  0  0999 V2000
   -1.9560    3.0480    0.9420 C   0  0  0  0  0  0  0  0  0  0  0  0
   -2.6900    1.7690    0.6720 C   0  0  0  0  0  0  0  0  0  0  0  0
   -2.0690    0.6860    0.3500 C   0  0  0  0  0  0  0  0  0  0  0  0
   -0.6990    0.4790    0.1970 N   0  0  0  0  0  0  0  0  0  0  0  0
    0.4690    1.2090    0.2970 C   0  0  0  0  0  0  0  0  0  0  0  0
    0.4520    2.3870    0.5940 O   0  0  0  0  0  0  0  0  0  0  0  0
    1.8100    0.5920    0.0450 C   0  0  0  0  0  0  0  0  0  0  0  0
    2.0060   -0.7520    0.1860 C   0  0  0  0  0  0  0  0  0  0  0  0
    3.2690   -1.3210   -0.0630 C   0  0  0  0  0  0  0  0  0  0  0  0
    4.3040   -0.4910   -0.4530 C   0  0  0  0  0  0  0  0  0  0  0  0
    4.1210    0.8720   -0.6010 C   0  0  0  0  0  0  0  0  0  0  0  0
    2.8670    1.3780   -0.3450 C   0  0  0  0  0  0  0  0  0  0  0  0
    5.2650    1.4240   -0.9790 O   0  0  0  0  0  0  0  0  0  0  0  0
    6.1580    0.4590   -1.0750 C   0  0  0  0  0  0  0  0  0  0  0  0
    7.3560    0.6370   -1.4140 O   0  0  0  0  0  0  0  0  0  0  0  0
    5.5830   -0.7160   -0.7560 N   0  0  0  0  0  0  0  0  0  0  0  0
    6.2110   -2.0200   -0.7340 C   0  0  0  0  0  0  0  0  0  0  0  0
   -2.9220   -0.5440    0.1020 C   0  0  0  0  0  0  0  0  0  0  0  0
   -2.6090   -1.7610   -0.2280 C   0  0  0  0  0  0  0  0  0  0  0  0
   -1.3880   -2.2970   -0.4520 F   0  0  0  0  0  0  0  0  0  0  0  0
   -3.8240   -2.6180   -0.3560 C   0  0  0  0  0  0  0  0  0  0  0  0
   -4.9750   -1.7480   -0.0500 C   0  0  0  0  0  0  0  0  0  0  0  0
   -4.3510   -0.4170    0.2410 C   0  0  0  0  0  0  0  0  0  0  0  0
   -4.9340    0.7240    0.5730 C   0  0  0  0  0  0  0  0  0  0  0  0
   -4.2000    1.9240    0.8220 C   0  0  0  0  0  0  0  0  0  0  0  0
  1  2  1  0
  2  3  2  0
  2 25  1  0
  3  4  1  0
  3 18  1  0
  4  5  1  0
  5  6  2  0
  5  7  1  0
  7  8  2  0
  7 12  1  0
  8  9  1  0
  9 10  2  0
 10 11  1  0
 10 16  1  0
 11 12  2  0
 11 13  1  0
 13 14  1  0
 14 15  2  0
 14 16  1  0
 16 17  1  0
 18 19  2  0
 18 23  1  0
 19 20  1  0
 19 21  1  0
 21 22  1  0
 22 23  1  0
 23 24  2  0
 24 25  1  0
M  END
