
     RDKit          3D

 20 20  0  0  0  0  0  0  0  0999 V2000
   -6.2260    0.8430   -0.5380 C   0  0  0  0  0  0  0  0  0  0  0  0
   -6.1250    0.1350    0.7880 C   0  0  0  0  0  0  0  0  0  0  0  0
   -4.9530    0.5080    1.6040 C   0  0  0  0  0  0  0  0  0  0  0  0
   -3.6040    0.2780    1.0690 C   0  0  1  0  0  0  0  0  0  0  0  0
   -3.2830   -1.1470    0.7320 C   0  0  0  0  0  0  0  0  0  0  0  0
   -2.1580   -1.2290   -0.2570 C   0  0  0  0  0  0  0  0  0  0  0  0
   -1.0820   -0.2570    0.1110 C   0  0  1  0  0  0  0  0  0  0  0  0
    0.1390   -0.3510   -0.7600 C   0  0  0  0  0  0  0  0  0  0  0  0
    0.8110   -1.6810   -0.7350 C   0  0  0  0  0  0  0  0  0  0  0  0
    2.0070   -1.6530   -1.6450 C   0  0  0  0  0  0  0  0  0  0  0  0
    3.0240   -0.5920   -1.2320 C   0  0  0  0  0  0  0  0  0  0  0  0
    3.5370   -0.8300    0.1540 C   0  0  0  0  0  0  0  0  0  0  0  0
    4.4870    0.2330    0.5870 C   0  0  0  0  0  0  0  0  0  0  0  0
    5.6940    0.3400   -0.2540 C   0  0  1  0  0  0  0  0  0  0  0  0
    5.4880    0.6620   -1.5730 O   0  0  0  0  0  0  0  0  0  0  0  0
    6.6120    1.3660    0.3530 C   0  0  0  0  0  0  0  0  0  0  0  0
    6.9360    1.1920    1.7170 N   0  0  0  0  0  0  0  0  0  0  0  0
    7.0530    2.3130   -0.3290 O   0  0  0  0  0  0  0  0  0  0  0  0
   -1.6420    1.1370   -0.0780 C   0  0  0  0  0  0  0  0  0  0  0  0
   -3.1630    1.1630   -0.0620 C   0  0  0  0  0  0  0  0  0  0  0  0
  1  2  1  0
  2  3  1  0
  4  3  1  6
  4  5  1  0
  4 20  1  0
  5  6  1  0
  6  7  1  0
  7  8  1  6
  7 19  1  0
  8  9  1  0
  9 10  1  0
 10 11  1  0
 11 12  1  0
 12 13  1  0
 13 14  1  0
 14 15  1  6
 14 16  1  0
 16 17  1  0
 16 18  2  0
 19 20  1  0
M  END
