
     RDKit          3D

 28 31  0  0  0  0  0  0  0  0999 V2000
   -5.6250    2.2490    1.9320 C   0  0  0  0  0  0  0  0  0  0  0  0
   -6.2400    1.0310    1.4330 C   0  0  0  0  0  0  0  0  0  0  0  0
   -5.6800    0.0190    0.8080 C   0  0  0  0  0  0  0  0  0  0  0  0
   -4.2520   -0.0770    0.4870 C   0  0  0  0  0  0  0  0  0  0  0  0
   -3.8390   -0.7510   -0.5720 C   0  0  0  0  0  0  0  0  0  0  0  0
   -2.4330   -0.9030   -1.0170 C   0  0  0  0  0  0  0  0  0  0  0  0
   -1.5230   -0.4600    0.0090 N   0  0  0  0  0  0  0  0  0  0  0  0
   -0.1420   -0.3000   -0.3020 C   0  0  0  0  0  0  0  0  0  0  0  0
    0.2270   -0.5520   -1.4740 O   0  0  0  0  0  0  0  0  0  0  0  0
    0.8370    0.1420    0.6920 C   0  0  0  0  0  0  0  0  0  0  0  0
    2.1750    0.1980    0.0450 C   0  0  0  0  0  0  0  0  0  0  0  0
    2.8020    1.2000   -0.6050 C   0  0  0  0  0  0  0  0  0  0  0  0
    3.9990    0.9670   -1.0800 N   0  0  0  0  0  0  0  0  0  0  0  0
    4.6080   -0.0930   -0.9860 C   0  0  0  0  0  0  0  0  0  0  0  0
    5.8710   -0.6190   -1.3860 N   0  0  0  0  0  0  0  0  0  0  0  0
    6.9880   -0.0120   -1.1670 C   0  0  0  0  0  0  0  0  0  0  0  0
    8.3020   -0.5490   -1.5770 C   0  0  0  0  0  0  0  0  0  0  0  0
    9.3240    0.3300   -0.8900 C   0  0  0  0  0  0  0  0  0  0  0  0
    8.5360    1.6330   -0.7360 C   0  0  0  0  0  0  0  0  0  0  0  0
    7.1980    1.2210   -0.5280 O   0  0  0  0  0  0  0  0  0  0  0  0
    3.3580   -1.1060   -0.0420 S   0  0  0  0  0  0  0  0  0  0  0  0
   -1.9380   -0.1680    1.3510 C   0  0  0  0  0  0  0  0  0  0  0  0
   -3.2820    0.5540    1.4260 C   0  0  0  0  0  0  0  0  0  0  0  0
   -4.8090   -1.6130   -1.2560 C   0  0  0  0  0  0  0  0  0  0  0  0
   -4.4330   -2.3900   -2.4710 C   0  0  0  0  0  0  0  0  0  0  0  0
   -6.0140   -1.7240   -0.8250 N   0  0  0  0  0  0  0  0  0  0  0  0
   -6.5730   -1.0930    0.3040 C   0  0  1  0  0  0  0  0  0  0  0  0
   -6.6040   -2.2960    1.6370 Cl  0  0  0  0  0  0  0  0  0  0  0  0
  1  2  1  0
  2  3  2  3
  3  4  1  0
  3 27  1  0
  4  5  2  0
  4 23  1  0
  5  6  1  0
  5 24  1  0
  6  7  1  0
  7  8  1  0
  7 22  1  0
  8  9  2  0
  8 10  1  0
 10 11  1  0
 11 12  2  0
 11 21  1  0
 12 13  1  0
 13 14  2  0
 14 15  1  0
 14 21  1  0
 15 16  2  3
 16 17  1  0
 16 20  1  0
 17 18  1  0
 18 19  1  0
 19 20  1  0
 22 23  1  0
 24 25  1  0
 24 26  2  0
 26 27  1  0
 27 28  1  1
M  END
