
     RDKit          3D

 28 31  0  0  0  0  0  0  0  0999 V2000
    5.8230    0.1260   -2.9380 C   0  0  0  0  0  0  0  0  0  0  0  0
    4.6390    0.6660   -2.4210 O   0  0  0  0  0  0  0  0  0  0  0  0
    4.2990    0.5760   -1.0860 C   0  0  0  0  0  0  0  0  0  0  0  0
    5.0830   -0.0120   -0.3170 O   0  0  0  0  0  0  0  0  0  0  0  0
    3.0600    1.1530   -0.6000 C   0  0  0  0  0  0  0  0  0  0  0  0
    1.8400    0.2700   -0.6710 C   0  0  2  0  0  0  0  0  0  0  0  0
    0.7450    1.0860   -0.1360 N   0  0  0  0  0  0  0  0  0  0  0  0
   -0.4930    0.7860    0.1470 C   0  0  0  0  0  0  0  0  0  0  0  0
   -1.3220    1.8290    0.6800 C   0  0  0  0  0  0  0  0  0  0  0  0
   -2.5480    1.6210    1.2130 C   0  0  0  0  0  0  0  0  0  0  0  0
   -3.3430    2.6810    1.6480 C   0  0  0  0  0  0  0  0  0  0  0  0
   -2.8490    3.9590    1.5260 C   0  0  0  0  0  0  0  0  0  0  0  0
   -3.8120    5.3380    2.0590 Cl  0  0  0  0  0  0  0  0  0  0  0  0
   -1.5960    4.1850    0.9850 C   0  0  0  0  0  0  0  0  0  0  0  0
   -0.8540    3.1230    0.5720 C   0  0  0  0  0  0  0  0  0  0  0  0
   -1.0590   -0.5550   -0.1680 C   0  0  0  0  0  0  0  0  0  0  0  0
   -0.3440   -1.7120    0.1060 C   0  0  0  0  0  0  0  0  0  0  0  0
   -1.4410   -3.1000   -0.2680 S   0  0  0  0  0  0  0  0  0  0  0  0
   -2.8080   -1.9840   -0.7920 C   0  0  0  0  0  0  0  0  0  0  0  0
   -4.1090   -2.4630   -1.2550 C   0  0  0  0  0  0  0  0  0  0  0  0
   -2.3150   -0.6910   -0.6360 C   0  0  0  0  0  0  0  0  0  0  0  0
   -3.1940    0.4390   -1.1930 C   0  0  0  0  0  0  0  0  0  0  0  0
    1.0250   -1.8390    0.4490 N   0  0  0  0  0  0  0  0  0  0  0  0
    1.5050   -2.8640    1.1370 C   0  0  0  0  0  0  0  0  0  0  0  0
    0.6740   -4.0110    1.6480 C   0  0  0  0  0  0  0  0  0  0  0  0
    2.8220   -2.6360    1.2370 N   0  0  0  0  0  0  0  0  0  0  0  0
    3.1110   -1.4720    0.6030 N   0  0  0  0  0  0  0  0  0  0  0  0
    2.0320   -0.9510    0.1040 C   0  0  0  0  0  0  0  0  0  0  0  0
  1  2  1  0
  2  3  1  0
  3  4  2  0
  3  5  1  0
  6  5  1  1
  6  7  1  0
  6 28  1  0
  7  8  2  0
  8  9  1  0
  8 16  1  0
  9 10  2  0
  9 15  1  0
 10 11  1  0
 11 12  2  0
 12 13  1  0
 12 14  1  0
 14 15  2  0
 16 17  2  0
 16 21  1  0
 17 18  1  0
 17 23  1  0
 18 19  1  0
 19 20  1  0
 19 21  2  0
 21 22  1  0
 23 24  1  0
 23 28  1  0
 24 25  1  0
 24 26  2  0
 26 27  1  0
 27 28  2  0
M  END
