
     RDKit          3D

 28 31  0  0  0  0  0  0  0  0999 V2000
   -2.4870   -4.5980    1.0060 C   0  0  0  0  0  0  0  0  0  0  0  0
   -2.3990   -3.4500    1.9860 C   0  0  0  0  0  0  0  0  0  0  0  0
   -1.3940   -2.4830    1.5930 N   0  0  0  0  0  0  0  0  0  0  0  0
   -0.0420   -2.5650    2.0090 C   0  0  0  0  0  0  0  0  0  0  0  0
    0.3970   -3.6220    2.5150 O   0  0  0  0  0  0  0  0  0  0  0  0
    0.8780   -1.4230    1.8590 C   0  0  0  0  0  0  0  0  0  0  0  0
    0.3510   -0.3090    1.0290 C   0  0  1  0  0  0  0  0  0  0  0  0
    1.4850    0.2560    0.2840 N   0  0  0  0  0  0  0  0  0  0  0  0
    1.5540    0.1890   -1.0360 N   0  0  0  0  0  0  0  0  0  0  0  0
    2.5620    0.6870   -1.7540 C   0  0  0  0  0  0  0  0  0  0  0  0
    3.6320    1.3270   -1.1270 C   0  0  0  0  0  0  0  0  0  0  0  0
    4.6860    1.8490   -1.8540 C   0  0  0  0  0  0  0  0  0  0  0  0
    5.7160    2.4720   -1.1600 C   0  0  0  0  0  0  0  0  0  0  0  0
    5.7040    2.5740    0.2080 C   0  0  0  0  0  0  0  0  0  0  0  0
    4.6320    2.0370    0.8910 C   0  0  0  0  0  0  0  0  0  0  0  0
    3.5860    1.4110    0.2510 C   0  0  0  0  0  0  0  0  0  0  0  0
    2.5030    0.8680    0.9230 C   0  0  0  0  0  0  0  0  0  0  0  0
    2.4610    0.9440    2.1770 O   0  0  0  0  0  0  0  0  0  0  0  0
   -0.6800   -0.7080    0.0290 C   0  0  0  0  0  0  0  0  0  0  0  0
   -1.7800   -1.4000    0.7510 C   0  0  0  0  0  0  0  0  0  0  0  0
   -3.0230   -1.0720    0.6510 N   0  0  0  0  0  0  0  0  0  0  0  0
   -3.3010    0.0510   -0.2390 C   0  0  0  0  0  0  0  0  0  0  0  0
   -3.7890    1.6750    0.2390 S   0  0  0  0  0  0  0  0  0  0  0  0
   -3.9000    2.3600   -1.4730 C   0  0  0  0  0  0  0  0  0  0  0  0
   -4.2750    3.7220   -1.7760 C   0  0  0  0  0  0  0  0  0  0  0  0
   -3.5550    1.2790   -2.1990 C   0  0  0  0  0  0  0  0  0  0  0  0
   -3.2470    0.1070   -1.6450 C   0  0  0  0  0  0  0  0  0  0  0  0
   -2.7830   -1.3570   -2.5400 Cl  0  0  0  0  0  0  0  0  0  0  0  0
  1  2  1  0
  2  3  1  0
  3  4  1  0
  3 20  1  0
  4  5  2  0
  4  6  1  0
  6  7  1  0
  7  8  1  6
  7 19  1  0
  8  9  1  0
  8 17  1  0
  9 10  2  0
 10 11  1  0
 11 12  2  0
 11 16  1  0
 12 13  1  0
 13 14  2  0
 14 15  1  0
 15 16  2  0
 16 17  1  0
 17 18  2  0
 19 20  1  0
 20 21  2  3
 21 22  1  0
 22 23  1  0
 22 27  2  0
 23 24  1  0
 24 25  1  0
 24 26  2  0
 26 27  1  0
 27 28  1  0
M  END
