
     RDKit          3D

 28 31  0  0  0  0  0  0  0  0999 V2000
    7.5430    0.6040    1.8120 C   0  0  0  0  0  0  0  0  0  0  0  0
    7.3500    0.9060    0.3290 C   0  0  0  0  0  0  0  0  0  0  0  0
    6.2890    0.0820   -0.2680 C   0  0  0  0  0  0  0  0  0  0  0  0
    6.6460   -0.9700   -1.0290 N   0  0  0  0  0  0  0  0  0  0  0  0
    5.7140   -1.7550   -1.5790 C   0  0  0  0  0  0  0  0  0  0  0  0
    4.3820   -1.5060   -1.3770 C   0  0  0  0  0  0  0  0  0  0  0  0
    3.9750   -0.4360   -0.6000 N   0  0  0  0  0  0  0  0  0  0  0  0
    2.6090   -0.2480   -0.3910 C   0  0  0  0  0  0  0  0  0  0  0  0
    1.6790    0.0050    0.2230 N   0  0  0  0  0  0  0  0  0  0  0  0
    0.6120    0.2040    0.6370 C   0  0  0  0  0  0  0  0  0  0  0  0
   -0.7040    0.4490    1.1470 C   0  0  0  0  0  0  0  0  0  0  0  0
   -0.5010    1.4320    2.1690 O   0  0  0  0  0  0  0  0  0  0  0  0
   -2.0030    0.1970    1.1260 N   0  0  0  0  0  0  0  0  0  0  0  0
   -3.0050    0.8850    1.9790 C   0  0  0  0  0  0  0  0  0  0  0  0
   -3.4540   -0.3590    2.7700 C   0  0  0  0  0  0  0  0  0  0  0  0
   -3.3190   -1.4930    1.7920 C   0  0  0  0  0  0  0  0  0  0  0  0
   -2.8300   -0.7940    0.4970 C   0  0  1  0  0  0  0  0  0  0  0  0
   -3.9770   -0.1660   -0.2180 C   0  0  0  0  0  0  0  0  0  0  0  0
   -5.2130   -0.2370    0.2150 C   0  0  0  0  0  0  0  0  0  0  0  0
   -6.3270    0.3910   -0.5050 C   0  0  0  0  0  0  0  0  0  0  0  0
   -6.0030    0.9050   -1.8260 C   0  0  0  0  0  0  0  0  0  0  0  0
   -4.7710    0.9750   -2.2870 C   0  0  0  0  0  0  0  0  0  0  0  0
   -4.4970    1.6170   -3.8900 Cl  0  0  0  0  0  0  0  0  0  0  0  0
   -3.6410    0.5240   -1.4900 C   0  0  0  0  0  0  0  0  0  0  0  0
   -0.0330   -0.2420   -0.9280 C   0  0  0  0  0  0  0  0  0  0  0  0
    1.4100   -0.6280   -1.8640 S   0  0  0  0  0  0  0  0  0  0  0  0
    4.9640    0.3270   -0.0700 C   0  0  0  0  0  0  0  0  0  0  0  0
    4.6160    1.3010    0.6380 O   0  0  0  0  0  0  0  0  0  0  0  0
  1  2  1  0
  2  3  1  0
  3  4  2  0
  3 27  1  0
  4  5  1  0
  5  6  2  0
  6  7  1  0
  7  8  1  0
  7 27  1  0
  8  9  2  0
  8 26  1  0
  9 10  1  0
 10 11  1  0
 10 25  2  0
 11 12  2  0
 11 13  1  0
 13 14  1  0
 13 17  1  0
 14 15  1  0
 15 16  1  0
 16 17  1  0
 17 18  1  1
 18 19  2  0
 18 24  1  0
 19 20  1  0
 20 21  1  0
 21 22  2  0
 22 23  1  0
 22 24  1  0
 25 26  1  0
 27 28  2  0
M  END
