
     RDKit          3D

 33 36  0  0  0  0  0  0  0  0999 V2000
   -5.2540   -2.2840   -1.2960 C   0  0  0  0  0  0  0  0  0  0  0  0
   -4.9540   -2.0410    0.1790 C   0  0  0  0  0  0  0  0  0  0  0  0
   -5.2110   -0.6050    0.5280 C   0  0  0  0  0  0  0  0  0  0  0  0
   -4.4160    0.3880   -0.0770 N   0  0  0  0  0  0  0  0  0  0  0  0
   -4.8310    1.7730   -0.1140 C   0  0  0  0  0  0  0  0  0  0  0  0
   -6.2730    1.8580   -0.3970 C   0  0  0  0  0  0  0  0  0  0  0  0
   -6.8850    1.7630   -1.6000 C   0  0  0  0  0  0  0  0  0  0  0  0
   -8.2080    1.9240   -1.3650 N   0  0  0  0  0  0  0  0  0  0  0  0
   -8.4360    2.1170   -0.0610 N   0  0  0  0  0  0  0  0  0  0  0  0
   -9.7450    2.3260    0.5820 C   0  0  0  0  0  0  0  0  0  0  0  0
   -7.2610    2.0820    0.5790 C   0  0  0  0  0  0  0  0  0  0  0  0
   -3.0790    0.1550   -0.5360 C   0  0  0  0  0  0  0  0  0  0  0  0
   -2.6030    0.3170   -1.7560 N   0  0  0  0  0  0  0  0  0  0  0  0
   -1.2640    0.1800   -1.9770 C   0  0  0  0  0  0  0  0  0  0  0  0
   -0.4070   -0.1230   -0.9580 N   0  0  0  0  0  0  0  0  0  0  0  0
   -0.8510   -0.2920    0.2640 C   0  0  0  0  0  0  0  0  0  0  0  0
    0.0160   -0.5700    1.7680 S   0  0  0  0  0  0  0  0  0  0  0  0
    1.1960   -1.9030    1.7390 C   0  0  0  0  0  0  0  0  0  0  0  0
    2.5180   -1.5200    1.2520 C   0  0  0  0  0  0  0  0  0  0  0  0
    3.2100   -0.7980    2.1040 O   0  0  0  0  0  0  0  0  0  0  0  0
    3.1900   -1.7720    0.0520 N   0  0  0  0  0  0  0  0  0  0  0  0
    4.5500   -1.3020   -0.1170 C   0  0  0  0  0  0  0  0  0  0  0  0
    5.3550   -1.4380   -1.1500 N   0  0  0  0  0  0  0  0  0  0  0  0
    6.5610   -0.8500   -0.8930 C   0  0  0  0  0  0  0  0  0  0  0  0
    7.7560   -0.6770   -1.5560 C   0  0  0  0  0  0  0  0  0  0  0  0
    8.8170   -0.0110   -0.9870 C   0  0  0  0  0  0  0  0  0  0  0  0
   10.1070    0.1640   -1.7180 C   0  0  0  0  0  0  0  0  0  0  0  0
    8.6600    0.4970    0.3010 C   0  0  0  0  0  0  0  0  0  0  0  0
    9.7640    1.2300    0.9430 C   0  0  0  0  0  0  0  0  0  0  0  0
    7.4820    0.3390    0.9880 C   0  0  0  0  0  0  0  0  0  0  0  0
    6.4290   -0.3330    0.4000 C   0  0  0  0  0  0  0  0  0  0  0  0
    5.2220   -0.6390    0.7860 O   0  0  0  0  0  0  0  0  0  0  0  0
   -2.2130   -0.1450    0.4370 N   0  0  0  0  0  0  0  0  0  0  0  0
  1  2  1  0
  2  3  1  0
  3  4  1  0
  4  5  1  0
  4 12  1  0
  5  6  1  0
  6  7  1  0
  6 11  2  0
  7  8  2  0
  8  9  1  0
  9 10  1  0
  9 11  1  0
 12 13  2  0
 12 33  1  0
 13 14  1  0
 14 15  2  0
 15 16  1  0
 16 17  1  0
 16 33  2  0
 17 18  1  0
 18 19  1  0
 19 20  2  0
 19 21  1  0
 21 22  1  0
 22 23  2  0
 22 32  1  0
 23 24  1  0
 24 25  2  0
 24 31  1  0
 25 26  1  0
 26 27  1  0
 26 28  2  0
 28 29  1  0
 28 30  1  0
 30 31  2  0
 31 32  1  0
M  END
