
     RDKit          3D

 35 36  0  0  0  0  0  0  0  0999 V2000
   -2.4140    3.5520    0.5600 C   0  0  0  0  0  0  0  0  0  0  0  0
   -2.9850    2.1340    0.4110 C   0  0  2  0  0  0  0  0  0  0  0  0
   -1.9930    1.2100   -0.2110 C   0  0  0  0  0  0  0  0  0  0  0  0
   -1.3150    0.2570    0.7460 C   0  0  2  0  0  0  0  0  0  0  0  0
   -1.0620    0.9650    1.9000 O   0  0  0  0  0  0  0  0  0  0  0  0
   -0.1490   -0.4020    0.1290 C   0  0  0  0  0  0  0  0  0  0  0  0
    0.9940    0.4600   -0.3540 C   0  0  2  0  0  0  0  0  0  0  0  0
    1.9410   -0.5960   -0.9260 C   0  0  0  0  0  0  0  0  0  0  0  0
    3.1240   -0.0560   -1.6260 C   0  0  0  0  0  0  0  0  0  0  0  0
    4.3820   -0.0810   -0.7280 C   0  0  2  0  0  0  0  0  0  0  0  0
    5.1940    1.0750   -1.2400 C   0  0  0  0  0  0  0  0  0  0  0  0
    5.0040   -1.4170   -0.7500 C   0  0  0  0  0  0  0  0  0  0  0  0
    6.1870   -1.7400    0.0450 C   0  0  1  0  0  0  0  0  0  0  0  0
    6.6210   -3.4860   -0.2490 Cl  0  0  0  0  0  0  0  0  0  0  0  0
    7.4060   -0.9850   -0.3480 C   0  0  0  0  0  0  0  0  0  0  0  0
    8.6160   -1.3950    0.5040 C   0  0  0  0  0  0  0  0  0  0  0  0
    8.3130   -1.1240    1.8160 O   0  0  0  0  0  0  0  0  0  0  0  0
    3.9080    0.2090    0.6920 C   0  0  0  0  0  0  0  0  0  0  0  0
    3.0850    1.4230    0.7500 C   0  0  0  0  0  0  0  0  0  0  0  0
    1.6120    1.3220    0.6710 C   0  0  1  0  0  0  0  0  0  0  0  0
    1.1810    2.6440    0.4780 O   0  0  0  0  0  0  0  0  0  0  0  0
   -2.2450   -0.8820    1.1790 C   0  0  1  0  0  0  0  0  0  0  0  0
   -2.9940   -0.5500    2.2960 O   0  0  0  0  0  0  0  0  0  0  0  0
   -3.0380   -1.4510    0.0520 C   0  0  0  0  0  0  0  0  0  0  0  0
   -4.0500   -2.4170    0.6860 C   0  0  2  0  0  0  0  0  0  0  0  0
   -3.3580   -3.7480    0.8140 C   0  0  0  0  0  0  0  0  0  0  0  0
   -4.2320   -4.6890    1.3070 O   0  0  0  0  0  0  0  0  0  0  0  0
   -5.1850   -2.5510   -0.2290 N   0  0  0  0  0  0  0  0  0  0  0  0
   -6.0760   -1.4080   -0.1470 C   0  0  0  0  0  0  0  0  0  0  0  0
   -5.8690   -0.4830   -1.1490 O   0  0  0  0  0  0  0  0  0  0  0  0
   -6.2340    0.8030   -0.8310 C   0  0  0  0  0  0  0  0  0  0  0  0
   -5.3420    1.4560    0.1980 C   0  0  0  0  0  0  0  0  0  0  0  0
   -4.2510    2.2820   -0.4280 C   0  0  2  0  0  0  0  0  0  0  0  0
   -4.0030    1.9620   -1.8720 C   0  0  0  0  0  0  0  0  0  0  0  0
   -4.7170    3.6190   -0.3950 O   0  0  0  0  0  0  0  0  0  0  0  0
  2  1  1  6
  2  3  1  0
  2 33  1  0
  3  4  1  0
  4  5  1  1
  4  6  1  0
  4 22  1  0
  7  6  1  1
  7  8  1  0
  7 20  1  0
  8  9  1  0
  9 10  1  0
 10 11  1  6
 10 12  1  0
 10 18  1  0
 12 13  1  0
 13 14  1  6
 13 15  1  0
 15 16  1  0
 16 17  1  0
 18 19  1  0
 19 20  1  0
 20 21  1  6
 22 23  1  1
 22 24  1  0
 24 25  1  0
 25 26  1  6
 25 28  1  0
 26 27  1  0
 28 29  1  0
 29 30  1  0
 30 31  1  0
 31 32  1  0
 32 33  1  0
 33 34  1  6
 33 35  1  0
M  END
