
     RDKit          3D

 35 38  0  0  0  0  0  0  0  0999 V2000
    0.2680    4.1830    2.8210 N   0  0  0  0  0  0  0  0  0  0  0  0
    0.1570    3.9700    1.6810 C   0  0  0  0  0  0  0  0  0  0  0  0
    0.0380    3.6880    0.2280 C   0  0  1  0  0  0  0  0  0  0  0  0
    0.5150    4.9940   -0.4380 C   0  0  0  0  0  0  0  0  0  0  0  0
    1.8440    5.1530    0.0160 O   0  0  0  0  0  0  0  0  0  0  0  0
    0.9620    2.5720   -0.0880 C   0  0  0  0  0  0  0  0  0  0  0  0
    0.5360    1.7490   -1.2980 C   0  0  0  0  0  0  0  0  0  0  0  0
    1.3940    0.5870   -1.5640 C   0  0  1  0  0  0  0  0  0  0  0  0
    2.8040    1.0870   -1.1460 C   0  0  0  0  0  0  0  0  0  0  0  0
    3.8630    0.1660   -1.7780 C   0  0  0  0  0  0  0  0  0  0  0  0
    3.6680   -1.1080   -1.0540 C   0  0  2  0  0  0  0  0  0  0  0  0
    4.3700   -2.2140   -1.8510 C   0  0  0  0  0  0  0  0  0  0  0  0
    4.2410   -3.4540   -1.2550 O   0  0  0  0  0  0  0  0  0  0  0  0
    2.3450   -1.4270   -0.5510 C   0  0  0  0  0  0  0  0  0  0  0  0
    1.0900   -0.7840   -1.1810 C   0  0  2  0  0  0  0  0  0  0  0  0
    1.0590   -1.5380   -2.5510 C   0  0  0  0  0  0  0  0  0  0  0  0
    0.7750   -2.9460   -2.5980 C   0  0  0  0  0  0  0  0  0  0  0  0
    0.8780   -3.3310   -4.3860 Cl  0  0  0  0  0  0  0  0  0  0  0  0
   -0.0850   -1.3020   -0.5110 C   0  0  1  0  0  0  0  0  0  0  0  0
    0.3500   -2.6810   -0.3160 O   0  0  0  0  0  0  0  0  0  0  0  0
   -0.7390   -1.0910    0.7320 C   0  0  2  0  0  0  0  0  0  0  0  0
   -1.6090   -2.3760    0.9140 C   0  0  0  0  0  0  0  0  0  0  0  0
   -2.2530   -2.1410    2.2400 C   0  0  2  0  0  0  0  0  0  0  0  0
   -3.2370   -3.2470    2.4960 C   0  0  0  0  0  0  0  0  0  0  0  0
   -2.4970   -4.4500    2.4890 O   0  0  0  0  0  0  0  0  0  0  0  0
   -2.9340   -0.8470    1.8120 C   0  0  1  0  0  0  0  0  0  0  0  0
   -4.0430   -1.1670    1.0660 O   0  0  0  0  0  0  0  0  0  0  0  0
   -3.2930   -0.0860    3.0130 C   0  0  0  0  0  0  0  0  0  0  0  0
   -2.0730    0.6880    3.3320 C   0  0  0  0  0  0  0  0  0  0  0  0
   -1.5290    0.9960    1.9290 C   0  0  2  0  0  0  0  0  0  0  0  0
   -2.3020    2.2240    1.4690 C   0  0  0  0  0  0  0  0  0  0  0  0
   -2.0320    2.4080    0.1510 O   0  0  0  0  0  0  0  0  0  0  0  0
   -1.3760    3.5330   -0.2000 C   0  0  0  0  0  0  0  0  0  0  0  0
   -1.8320   -0.1480    1.0420 C   0  0  1  0  0  0  0  0  0  0  0  0
   -2.4810    0.2050   -0.1650 O   0  0  0  0  0  0  0  0  0  0  0  0
  1  2  3  0
  3  2  1  1
  3  4  1  0
  3  6  1  0
  3 33  1  0
  4  5  1  0
  6  7  1  0
  8  7  1  1
  8  9  1  0
  8 15  1  0
  9 10  1  0
 10 11  1  0
 11 12  1  6
 11 14  1  0
 12 13  1  0
 14 15  1  0
 15 16  1  6
 15 19  1  0
 16 17  1  0
 17 18  1  0
 19 20  1  1
 19 21  1  0
 21 22  1  6
 21 34  1  0
 22 23  1  0
 23 24  1  6
 23 26  1  0
 24 25  1  0
 26 27  1  6
 26 28  1  0
 26 34  1  0
 28 29  1  0
 30 29  1  1
 30 31  1  0
 30 34  1  0
 31 32  1  0
 32 33  1  0
 34 35  1  6
M  END
