
     RDKit          3D

 34 37  0  0  0  0  0  0  0  0999 V2000
    9.5970   -1.0510   -0.1190 C   0  0  0  0  0  0  0  0  0  0  0  0
    9.0720    0.3680   -0.1530 C   0  0  1  0  0  0  0  0  0  0  0  0
    9.1070    0.9940   -1.5050 C   0  0  0  0  0  0  0  0  0  0  0  0
    7.6200    0.4070    0.3300 C   0  0  0  0  0  0  0  0  0  0  0  0
    6.9550    0.8070    1.2310 N   0  0  0  0  0  0  0  0  0  0  0  0
    5.6750    0.6720    1.3470 N   0  0  0  0  0  0  0  0  0  0  0  0
    4.9920    0.0950    0.5030 C   0  0  0  0  0  0  0  0  0  0  0  0
    3.6180   -0.2440    0.2750 N   0  0  0  0  0  0  0  0  0  0  0  0
    2.6170    0.1210    1.2030 C   0  0  0  0  0  0  0  0  0  0  0  0
    2.9810    0.7430    2.2260 O   0  0  0  0  0  0  0  0  0  0  0  0
    1.2470   -0.1880    1.0150 N   0  0  0  0  0  0  0  0  0  0  0  0
    0.2390    0.2030    1.9840 C   0  0  0  0  0  0  0  0  0  0  0  0
    0.8530   -0.9100   -0.1530 C   0  0  0  0  0  0  0  0  0  0  0  0
    0.5450    0.0510   -1.3010 C   0  0  0  0  0  0  0  0  0  0  0  0
   -0.5580    0.9570   -0.9100 C   0  0  0  0  0  0  0  0  0  0  0  0
   -0.2470    2.2330   -0.4970 N   0  0  0  0  0  0  0  0  0  0  0  0
   -1.3560    2.7900   -0.1610 N   0  0  0  0  0  0  0  0  0  0  0  0
   -2.3930    1.9570   -0.3290 N   0  0  0  0  0  0  0  0  0  0  0  0
   -3.7500    2.3450   -0.0860 C   0  0  0  0  0  0  0  0  0  0  0  0
   -1.9210    0.7790   -0.8040 C   0  0  0  0  0  0  0  0  0  0  0  0
   -2.6490   -0.3890   -1.2640 C   0  0  0  0  0  0  0  0  0  0  0  0
   -2.3170   -1.1240   -2.3800 C   0  0  0  0  0  0  0  0  0  0  0  0
   -2.9330   -2.3080   -2.7570 C   0  0  0  0  0  0  0  0  0  0  0  0
   -3.9450   -2.7730   -1.9580 C   0  0  0  0  0  0  0  0  0  0  0  0
   -4.3260   -2.1010   -0.8430 C   0  0  0  0  0  0  0  0  0  0  0  0
   -3.7000   -0.9170   -0.4780 C   0  0  0  0  0  0  0  0  0  0  0  0
   -4.0750   -0.2840    0.6160 O   0  0  0  0  0  0  0  0  0  0  0  0
   -4.9490   -0.3010    1.6420 C   0  0  0  0  0  0  0  0  0  0  0  0
   -6.3810   -0.1070    1.3890 C   0  0  0  0  0  0  0  0  0  0  0  0
   -7.0890    0.9090    1.9270 C   0  0  0  0  0  0  0  0  0  0  0  0
   -8.4780    0.8090    1.4750 C   0  0  0  0  0  0  0  0  0  0  0  0
   -8.5160   -0.3370    0.6420 N   0  0  0  0  0  0  0  0  0  0  0  0
   -7.3100   -0.8520    0.6010 C   0  0  0  0  0  0  0  0  0  0  0  0
    6.3190   -0.3810   -0.7200 S   0  0  0  0  0  0  0  0  0  0  0  0
  2  1  1  6
  2  3  1  0
  2  4  1  0
  4  5  2  0
  4 34  1  0
  5  6  1  0
  6  7  2  0
  7  8  1  0
  7 34  1  0
  8  9  1  0
  9 10  2  0
  9 11  1  0
 11 12  1  0
 11 13  1  0
 13 14  1  0
 14 15  1  0
 15 16  1  0
 15 20  2  0
 16 17  2  0
 17 18  1  0
 18 19  1  0
 18 20  1  0
 20 21  1  0
 21 22  2  0
 21 26  1  0
 22 23  1  0
 23 24  2  0
 24 25  1  0
 25 26  2  0
 26 27  1  0
 27 28  1  0
 28 29  1  0
 29 30  2  0
 29 33  1  0
 30 31  1  0
 31 32  1  0
 32 33  2  0
M  END
