
     RDKit          3D

 12 13  0  0  0  0  0  0  0  0999 V2000
   -2.1010   -1.7670    0.0120 C   0  0  0  0  0  0  0  0  0  0  0  0
   -0.8000   -1.0260    0.0110 C   0  0  0  0  0  0  0  0  0  0  0  0
    0.4030   -1.7030    0.0310 C   0  0  0  0  0  0  0  0  0  0  0  0
    1.5720   -0.9720    0.0290 C   0  0  0  0  0  0  0  0  0  0  0  0
    2.9050   -1.3740    0.0470 C   0  0  0  0  0  0  0  0  0  0  0  0
    3.6070   -0.2260    0.0340 N   0  0  0  0  0  0  0  0  0  0  0  0
    2.7900    0.8190    0.0100 N   0  0  0  0  0  0  0  0  0  0  0  0
    1.5010    0.4030    0.0070 C   0  0  0  0  0  0  0  0  0  0  0  0
    0.3070    1.0930   -0.0140 C   0  0  0  0  0  0  0  0  0  0  0  0
    0.3040    2.5070   -0.0370 N   0  0  0  0  0  0  0  0  0  0  0  0
   -0.8690    0.3510   -0.0120 C   0  0  0  0  0  0  0  0  0  0  0  0
   -2.1540    1.0990   -0.0350 C   0  0  0  0  0  0  0  0  0  0  0  0
  1  2  1  0
  2  3  2  0
  2 11  1  0
  3  4  1  0
  4  5  1  0
  4  8  2  0
  5  6  2  0
  6  7  1  0
  7  8  1  0
  8  9  1  0
  9 10  1  0
  9 11  2  0
 11 12  1  0
M  END
