
     RDKit          3D

 12 13  0  0  0  0  0  0  0  0999 V2000
    3.2330    1.0430   -0.2480 C   0  0  0  0  0  0  0  0  0  0  0  0
    2.0550    0.2690   -0.7470 C   0  0  0  0  0  0  0  0  0  0  0  0
    1.9210   -0.4980   -1.8190 N   0  0  0  0  0  0  0  0  0  0  0  0
    0.7000   -1.0030   -1.8920 N   0  0  0  0  0  0  0  0  0  0  0  0
   -0.0340   -0.5760   -0.8450 C   0  0  0  0  0  0  0  0  0  0  0  0
   -1.3370   -0.7880   -0.4340 C   0  0  0  0  0  0  0  0  0  0  0  0
   -2.2270   -1.6570   -1.2370 C   0  0  0  0  0  0  0  0  0  0  0  0
   -1.8010   -0.1930    0.7140 C   0  0  0  0  0  0  0  0  0  0  0  0
   -0.9390    0.6200    1.4480 C   0  0  0  0  0  0  0  0  0  0  0  0
   -1.3680    1.2500    2.6290 N   0  0  0  0  0  0  0  0  0  0  0  0
    0.3560    0.8340    1.0450 C   0  0  0  0  0  0  0  0  0  0  0  0
    0.8120    0.2310   -0.1110 C   0  0  0  0  0  0  0  0  0  0  0  0
  1  2  1  0
  2  3  2  0
  2 12  1  0
  3  4  1  0
  4  5  1  0
  5  6  2  0
  5 12  1  0
  6  7  1  0
  6  8  1  0
  8  9  2  0
  9 10  1  0
  9 11  1  0
 11 12  2  0
M  END
