
     RDKit          3D

 12 13  0  0  0  0  0  0  0  0999 V2000
   -2.6890    1.4580   -0.3080 N   0  0  0  0  0  0  0  0  0  0  0  0
   -2.5400    0.0850    0.0580 C   0  0  0  0  0  0  0  0  0  0  0  0
   -3.5660   -0.8270    0.2230 C   0  0  0  0  0  0  0  0  0  0  0  0
   -3.0050   -1.9960    0.5850 N   0  0  0  0  0  0  0  0  0  0  0  0
   -1.6810   -1.8210    0.6430 N   0  0  0  0  0  0  0  0  0  0  0  0
   -1.3620   -0.5670    0.3290 C   0  0  0  0  0  0  0  0  0  0  0  0
   -0.0190    0.0270    0.2420 C   0  0  1  0  0  0  0  0  0  0  0  0
    1.0450   -0.7830    0.9640 C   0  0  0  0  0  0  0  0  0  0  0  0
    2.2740    0.0580    1.0400 C   0  0  0  0  0  0  0  0  0  0  0  0
    2.7390    0.5970   -0.2720 C   0  0  0  0  0  0  0  0  0  0  0  0
    1.6740    0.8850   -1.2620 C   0  0  0  0  0  0  0  0  0  0  0  0
    0.4870   -0.0130   -1.2240 C   0  0  0  0  0  0  0  0  0  0  0  0
  1  2  1  0
  2  3  1  0
  2  6  2  0
  3  4  2  0
  4  5  1  0
  5  6  1  0
  7  6  1  6
  7  8  1  0
  7 12  1  0
  8  9  1  0
  9 10  1  0
 10 11  1  0
 11 12  1  0
M  END
