
     RDKit          3D

 11 12  0  0  0  0  0  0  0  0999 V2000
    1.8940   -1.9550    0.2550 C   0  0  0  0  0  0  0  0  0  0  0  0
    2.0650   -0.4880    0.0280 C   0  0  0  0  0  0  0  0  0  0  0  0
    1.0170    0.3030   -0.1130 C   0  0  0  0  0  0  0  0  0  0  0  0
    1.0610    1.7390   -0.3370 C   0  0  0  0  0  0  0  0  0  0  0  0
    2.2190    2.5590   -0.4470 N   0  0  0  0  0  0  0  0  0  0  0  0
   -0.1490    2.1380   -0.4190 N   0  0  0  0  0  0  0  0  0  0  0  0
   -1.0700    1.0450   -0.2630 C   0  0  0  0  0  0  0  0  0  0  0  0
   -0.3830   -0.0680   -0.0770 C   0  0  0  0  0  0  0  0  0  0  0  0
   -1.3080   -1.2250    0.0910 C   0  0  0  0  0  0  0  0  0  0  0  0
   -2.5290   -0.4980    0.6580 C   0  0  0  0  0  0  0  0  0  0  0  0
   -2.5180    0.7230   -0.2370 C   0  0  0  0  0  0  0  0  0  0  0  0
  1  2  1  0
  2  3  2  3
  3  4  1  0
  3  8  1  0
  4  5  1  0
  4  6  2  0
  6  7  1  0
  7  8  2  0
  7 11  1  0
  8  9  1  0
  9 10  1  0
 10 11  1  0
M  END
