
     RDKit          3D

 12 13  0  0  0  0  0  0  0  0999 V2000
    3.8180   -0.2280   -0.4560 C   0  0  0  0  0  0  0  0  0  0  0  0
    2.3660   -0.0440   -0.1150 C   0  0  0  0  0  0  0  0  0  0  0  0
    1.8840    0.6240    1.0010 C   0  0  0  0  0  0  0  0  0  0  0  0
    0.5170    0.5990    0.9930 C   0  0  0  0  0  0  0  0  0  0  0  0
   -0.4550    1.0970    1.8400 C   0  0  0  0  0  0  0  0  0  0  0  0
   -1.7540    0.9030    1.5530 N   0  0  0  0  0  0  0  0  0  0  0  0
   -2.1640    0.2350    0.4580 C   0  0  0  0  0  0  0  0  0  0  0  0
   -3.6100    0.0270    0.1500 C   0  0  0  0  0  0  0  0  0  0  0  0
   -1.1960   -0.2570   -0.3790 C   0  0  0  0  0  0  0  0  0  0  0  0
   -1.6150   -0.9640   -1.5390 N   0  0  0  0  0  0  0  0  0  0  0  0
    0.1570   -0.1010   -0.1560 C   0  0  0  0  0  0  0  0  0  0  0  0
    1.2940   -0.4610   -0.7790 N   0  0  0  0  0  0  0  0  0  0  0  0
  1  2  1  0
  2  3  2  0
  2 12  1  0
  3  4  1  0
  4  5  2  0
  4 11  1  0
  5  6  1  0
  6  7  2  0
  7  8  1  0
  7  9  1  0
  9 10  1  0
  9 11  2  0
 11 12  1  0
M  END
