
     RDKit          3D

 24 26  0  0  0  0  0  0  0  0999 V2000
    3.5190   -0.7620   -1.9550 C   0  0  0  0  0  0  0  0  0  0  0  0
    3.0210   -0.1660   -0.6290 C   0  0  2  0  0  0  0  0  0  0  0  0
    3.9100    0.9400   -0.2080 C   0  0  0  0  0  0  0  0  0  0  0  0
    3.6280    1.8970    0.6530 C   0  0  0  0  0  0  0  0  0  0  0  0
    2.4480    2.1090    1.3710 N   0  0  0  0  0  0  0  0  0  0  0  0
    1.2790    2.4000    1.0610 C   0  0  0  0  0  0  0  0  0  0  0  0
    0.2540    2.5460    2.1590 C   0  0  0  0  0  0  0  0  0  0  0  0
   -0.7360    1.4530    1.9650 C   0  0  0  0  0  0  0  0  0  0  0  0
   -1.1420    1.1180    0.5860 C   0  0  1  0  0  0  0  0  0  0  0  0
   -0.4950    1.7910   -0.5520 C   0  0  0  0  0  0  0  0  0  0  0  0
    0.7180    2.6230   -0.2910 C   0  0  0  0  0  0  0  0  0  0  0  0
   -1.2660   -0.4030    0.3460 C   0  0  1  0  0  0  0  0  0  0  0  0
   -0.0290   -1.0500    0.8370 C   0  0  0  0  0  0  0  0  0  0  0  0
    0.6460   -1.9800   -0.1520 C   0  0  2  0  0  0  0  0  0  0  0  0
   -0.0420   -3.1520   -0.3380 O   0  0  0  0  0  0  0  0  0  0  0  0
    2.0350   -2.1990    0.3410 C   0  0  0  0  0  0  0  0  0  0  0  0
    2.3130   -3.3340    0.8010 O   0  0  0  0  0  0  0  0  0  0  0  0
    3.0100   -1.2250    0.3150 O   0  0  0  0  0  0  0  0  0  0  0  0
   -2.4490   -0.9450    1.1120 C   0  0  0  0  0  0  0  0  0  0  0  0
   -3.4420   -1.6920    0.2960 C   0  0  2  0  0  0  0  0  0  0  0  0
   -3.1040   -3.0300    0.1030 O   0  0  0  0  0  0  0  0  0  0  0  0
   -3.7640   -1.0860   -1.0270 C   0  0  0  0  0  0  0  0  0  0  0  0
   -2.6370   -0.2030   -1.5160 C   0  0  0  0  0  0  0  0  0  0  0  0
   -1.4150   -0.5510   -1.0190 O   0  0  0  0  0  0  0  0  0  0  0  0
  2  1  1  6
  2  3  1  0
  2 18  1  0
  3  4  2  0
  4  5  1  0
  5  6  2  0
  6  7  1  0
  6 11  1  0
  7  8  1  0
  8  9  1  0
  9 10  1  6
  9 12  1  0
 10 11  1  0
 12 13  1  1
 12 19  1  0
 12 24  1  0
 13 14  1  0
 14 15  1  1
 14 16  1  0
 16 17  2  0
 16 18  1  0
 19 20  1  0
 20 21  1  6
 20 22  1  0
 22 23  1  0
 23 24  1  0
M  END
