
     RDKit          3D

 24 26  0  0  0  0  0  0  0  0999 V2000
    3.0480   -3.7420    1.5230 C   0  0  0  0  0  0  0  0  0  0  0  0
    2.4370   -2.4520    1.6130 O   0  0  0  0  0  0  0  0  0  0  0  0
    2.5170   -1.5630    0.5490 C   0  0  0  0  0  0  0  0  0  0  0  0
    3.1400   -1.9450   -0.4750 O   0  0  0  0  0  0  0  0  0  0  0  0
    1.8890   -0.2030    0.6060 C   0  0  2  0  0  0  0  0  0  0  0  0
    0.4140   -0.2520    0.8250 C   0  0  0  0  0  0  0  0  0  0  0  0
   -0.3430    0.0970   -0.4050 C   0  0  1  0  0  0  0  0  0  0  0  0
   -0.3560   -1.1320   -1.3100 C   0  0  0  0  0  0  0  0  0  0  0  0
   -1.0830   -2.2860   -0.7320 C   0  0  0  0  0  0  0  0  0  0  0  0
   -2.3720   -1.9960   -0.0700 C   0  0  0  0  0  0  0  0  0  0  0  0
   -2.4360   -0.7320    0.7100 C   0  0  1  0  0  0  0  0  0  0  0  0
   -3.9210   -0.3690    0.8580 C   0  0  0  0  0  0  0  0  0  0  0  0
   -1.9320   -0.8220    1.9900 O   0  0  0  0  0  0  0  0  0  0  0  0
   -1.8280    0.3540   -0.1210 C   0  0  1  0  0  0  0  0  0  0  0  0
   -2.0850    1.7270    0.3900 C   0  0  0  0  0  0  0  0  0  0  0  0
   -2.4810    0.2610   -1.4490 C   0  0  0  0  0  0  0  0  0  0  0  0
   -3.0030    0.2040   -2.4820 N   0  0  0  0  0  0  0  0  0  0  0  0
    0.0850    1.2110   -1.0770 O   0  0  0  0  0  0  0  0  0  0  0  0
    1.3170    1.6880   -0.8030 C   0  0  2  0  0  0  0  0  0  0  0  0
    1.4200    2.6600    0.3230 C   0  0  0  0  0  0  0  0  0  0  0  0
    1.5850    4.0000   -0.3740 C   0  0  0  0  0  0  0  0  0  0  0  0
    2.3990    3.6500   -1.4560 O   0  0  0  0  0  0  0  0  0  0  0  0
    1.7590    2.5550   -1.9920 C   0  0  0  0  0  0  0  0  0  0  0  0
    2.3290    0.5910   -0.5720 C   0  0  0  0  0  0  0  0  0  0  0  0
  1  2  1  0
  2  3  1  0
  3  4  2  0
  5  3  1  6
  5  6  1  0
  5 24  1  0
  7  6  1  1
  7  8  1  0
  7 14  1  0
  7 18  1  0
  8  9  1  0
  9 10  1  0
 10 11  1  0
 11 12  1  1
 11 13  1  0
 11 14  1  0
 14 15  1  1
 14 16  1  0
 16 17  3  0
 18 19  1  0
 19 20  1  1
 19 23  1  0
 19 24  1  0
 20 21  1  0
 21 22  1  0
 22 23  1  0
M  END
