
     RDKit          3D

 24 26  0  0  0  0  0  0  0  0999 V2000
    1.2510    1.7250   -1.8320 N   0  0  0  0  0  0  0  0  0  0  0  0
    1.8110    1.0680   -1.0310 C   0  0  0  0  0  0  0  0  0  0  0  0
    2.5340    0.2570   -0.0100 C   0  0  2  0  0  0  0  0  0  0  0  0
    3.0000    1.1460    1.0460 C   0  0  0  0  0  0  0  0  0  0  0  0
    1.9590    1.7890    1.8970 C   0  0  0  0  0  0  0  0  0  0  0  0
    1.0890    2.8090    1.2820 C   0  0  0  0  0  0  0  0  0  0  0  0
   -0.3110    2.4880    0.9610 C   0  0  0  0  0  0  0  0  0  0  0  0
   -0.7020    1.1900    0.9230 O   0  0  0  0  0  0  0  0  0  0  0  0
   -1.8450    0.8380    0.3570 C   0  0  1  0  0  0  0  0  0  0  0  0
   -2.5170    1.8160   -0.5670 C   0  0  0  0  0  0  0  0  0  0  0  0
   -3.7450    1.0380   -0.9960 C   0  0  0  0  0  0  0  0  0  0  0  0
   -3.4130   -0.4490   -0.6900 C   0  0  0  0  0  0  0  0  0  0  0  0
   -1.8960   -0.4200   -0.4990 C   0  0  2  0  0  0  0  0  0  0  0  0
   -1.4110   -1.6480    0.1110 C   0  0  1  0  0  0  0  0  0  0  0  0
   -2.3400   -2.8020    0.1540 C   0  0  0  0  0  0  0  0  0  0  0  0
   -3.4660   -2.8660   -0.3780 O   0  0  0  0  0  0  0  0  0  0  0  0
   -1.9740   -3.9790    0.8490 O   0  0  0  0  0  0  0  0  0  0  0  0
   -0.1440   -2.2310   -0.5050 C   0  0  0  0  0  0  0  0  0  0  0  0
    0.9120   -1.2590   -0.7830 C   0  0  2  0  0  0  0  0  0  0  0  0
    1.8940   -1.6070   -1.8600 C   0  0  0  0  0  0  0  0  0  0  0  0
    2.9960   -0.8470   -1.9760 O   0  0  0  0  0  0  0  0  0  0  0  0
    3.6520   -0.3610   -0.8770 C   0  0  0  0  0  0  0  0  0  0  0  0
    1.8180   -0.9740    0.4160 C   0  0  2  0  0  0  0  0  0  0  0  0
    1.2120   -0.9980    1.6200 O   0  0  0  0  0  0  0  0  0  0  0  0
  1  2  3  0
  3  2  1  6
  3  4  1  0
  3 22  1  0
  3 23  1  0
  4  5  1  0
  5  6  1  0
  6  7  1  0
  7  8  1  0
  8  9  1  0
  9 10  1  6
  9 13  1  0
 10 11  1  0
 11 12  1  0
 13 12  1  1
 13 14  1  0
 14 15  1  6
 14 18  1  0
 15 16  2  0
 15 17  1  0
 19 18  1  1
 19 20  1  0
 19 23  1  0
 20 21  1  0
 21 22  1  0
 23 24  1  1
M  END
