
     RDKit          3D

 24 26  0  0  0  0  0  0  0  0999 V2000
   -5.2920   -0.9540   -1.1840 C   0  0  0  0  0  0  0  0  0  0  0  0
   -4.7930   -1.1880    0.2360 C   0  0  2  0  0  0  0  0  0  0  0  0
   -5.5240   -0.4620    1.1640 O   0  0  0  0  0  0  0  0  0  0  0  0
   -3.2980   -0.8520    0.3420 C   0  0  2  0  0  0  0  0  0  0  0  0
   -3.0710    0.4750    0.1120 O   0  0  0  0  0  0  0  0  0  0  0  0
   -3.0340    1.2880    1.2090 C   0  0  0  0  0  0  0  0  0  0  0  0
   -1.6980    1.9640    1.4410 C   0  0  0  0  0  0  0  0  0  0  0  0
   -0.8860    1.1070    2.3500 C   0  0  0  0  0  0  0  0  0  0  0  0
    0.5330    1.3030    2.2860 N   0  0  0  0  0  0  0  0  0  0  0  0
    1.3710    1.5060    1.2000 C   0  0  0  0  0  0  0  0  0  0  0  0
    2.1210    2.5560    1.2010 O   0  0  0  0  0  0  0  0  0  0  0  0
    1.5620    0.6830   -0.0220 C   0  0  2  0  0  0  0  0  0  0  0  0
    1.1940    1.4170   -1.2830 C   0  0  0  0  0  0  0  0  0  0  0  0
    0.9000   -0.6850    0.0480 C   0  0  1  0  0  0  0  0  0  0  0  0
   -0.3480   -0.7710   -0.7800 C   0  0  0  0  0  0  0  0  0  0  0  0
   -1.2680   -1.8440   -0.2210 C   0  0  0  0  0  0  0  0  0  0  0  0
   -2.5990   -1.6060   -0.6000 O   0  0  0  0  0  0  0  0  0  0  0  0
    1.8890   -1.6710   -0.6070 C   0  0  0  0  0  0  0  0  0  0  0  0
    2.8540   -0.7610   -1.2620 C   0  0  2  0  0  0  0  0  0  0  0  0
    4.2670   -1.1810   -1.3520 C   0  0  0  0  0  0  0  0  0  0  0  0
    4.9940    0.1730   -1.2920 C   0  0  2  0  0  0  0  0  0  0  0  0
    6.2300    0.0420   -0.6960 O   0  0  0  0  0  0  0  0  0  0  0  0
    4.0570    1.0980   -0.4980 C   0  0  0  0  0  0  0  0  0  0  0  0
    2.9840    0.2460   -0.1030 C   0  0  1  0  0  0  0  0  0  0  0  0
  2  1  1  6
  2  3  1  0
  2  4  1  0
  4  5  1  6
  4 17  1  0
  5  6  1  0
  6  7  1  0
  7  8  1  0
  8  9  1  0
  9 10  1  0
 10 11  2  0
 10 12  1  0
 12 13  1  6
 12 14  1  0
 12 24  1  0
 14 15  1  6
 14 18  1  0
 15 16  1  0
 16 17  1  0
 19 18  1  1
 19 20  1  0
 19 24  1  0
 20 21  1  0
 21 22  1  1
 21 23  1  0
 24 23  1  6
M  END
