
     RDKit          3D

 37 39  0  0  0  0  0  0  0  0999 V2000
    0.9870    6.4310   -2.8250 C   0  0  0  0  0  0  0  0  0  0  0  0
    1.4700    6.0280   -1.6690 C   0  0  0  0  0  0  0  0  0  0  0  0
    0.5490    5.4850   -0.5930 C   0  0  0  0  0  0  0  0  0  0  0  0
    0.9480    4.1390   -0.2900 C   0  0  0  0  0  0  0  0  0  0  0  0
    0.1460    3.0440   -0.3860 C   0  0  0  0  0  0  0  0  0  0  0  0
   -1.2270    3.2150   -0.8210 C   0  0  0  0  0  0  0  0  0  0  0  0
    0.7890    1.8350    0.0200 C   0  0  0  0  0  0  0  0  0  0  0  0
    0.5460    0.5510    0.1110 C   0  0  0  0  0  0  0  0  0  0  0  0
   -0.6710   -0.0900   -0.2660 C   0  0  0  0  0  0  0  0  0  0  0  0
   -1.4940    0.5780   -0.9900 O   0  0  0  0  0  0  0  0  0  0  0  0
   -1.1290   -1.3700    0.0630 N   0  0  0  0  0  0  0  0  0  0  0  0
   -2.4170   -1.9080   -0.4460 C   0  0  2  0  0  0  0  0  0  0  0  0
   -2.5350   -1.8980   -1.9060 C   0  0  0  0  0  0  0  0  0  0  0  0
   -3.7620   -2.5440   -2.4730 C   0  0  0  0  0  0  0  0  0  0  0  0
   -3.7260   -2.4090   -3.9950 C   0  0  0  0  0  0  0  0  0  0  0  0
   -4.9510   -3.0560   -4.6130 C   0  0  0  0  0  0  0  0  0  0  0  0
   -3.4260   -1.2470    0.3770 C   0  0  0  0  0  0  0  0  0  0  0  0
   -3.1700   -1.2660    1.6440 O   0  0  0  0  0  0  0  0  0  0  0  0
   -4.6100   -0.5930    0.0420 N   0  0  0  0  0  0  0  0  0  0  0  0
   -5.4780   -0.0120    1.0410 C   0  0  0  0  0  0  0  0  0  0  0  0
   -6.7280   -0.3910    1.1960 C   0  0  0  0  0  0  0  0  0  0  0  0
   -7.3590    0.3840    2.2960 C   0  0  0  0  0  0  0  0  0  0  0  0
   -6.2730    1.2690    2.7510 C   0  0  0  0  0  0  0  0  0  0  0  0
   -5.2110    1.0120    2.0070 C   0  0  0  0  0  0  0  0  0  0  0  0
   -3.6720    1.8430    2.2020 Cl  0  0  0  0  0  0  0  0  0  0  0  0
    1.6860   -0.2300    0.7080 C   0  0  0  0  0  0  0  0  0  0  0  0
    1.6980   -1.5160    0.7220 C   0  0  0  0  0  0  0  0  0  0  0  0
    2.8190   -2.3230    1.3260 C   0  0  0  0  0  0  0  0  0  0  0  0
    3.9210   -1.5000    1.7440 N   0  0  0  0  0  0  0  0  0  0  0  0
    5.2710   -1.9380    1.5760 C   0  0  0  0  0  0  0  0  0  0  0  0
    5.4610   -3.0600    1.0600 O   0  0  0  0  0  0  0  0  0  0  0  0
    6.4140   -1.1350    1.9810 C   0  0  0  0  0  0  0  0  0  0  0  0
    7.7690   -1.6710    1.7450 C   0  0  1  0  0  0  0  0  0  0  0  0
    8.0930   -2.9650    2.4000 C   0  0  0  0  0  0  0  0  0  0  0  0
    8.1650   -2.7580    0.8550 C   0  0  0  0  0  0  0  0  0  0  0  0
    3.5570   -0.2520    2.3270 C   0  0  0  0  0  0  0  0  0  0  0  0
    2.7600    0.5820    1.3450 C   0  0  0  0  0  0  0  0  0  0  0  0
  1  2  2  0
  2  3  1  0
  3  4  1  0
  4  5  2  3
  5  6  1  0
  5  7  1  0
  7  8  2  3
  8  9  1  0
  8 26  1  0
  9 10  2  0
  9 11  1  0
 11 12  1  0
 12 13  1  6
 12 17  1  0
 13 14  1  0
 14 15  1  0
 15 16  1  0
 17 18  2  0
 17 19  1  0
 19 20  1  0
 20 21  2  0
 20 24  1  0
 21 22  1  0
 22 23  1  0
 23 24  2  0
 24 25  1  0
 26 27  2  0
 26 37  1  0
 27 28  1  0
 28 29  1  0
 29 30  1  0
 29 36  1  0
 30 31  2  0
 30 32  1  0
 33 32  1  6
 33 34  1  0
 33 35  1  0
 34 35  1  0
 36 37  1  0
M  END
