
     RDKit          3D

 37 39  0  0  0  0  0  0  0  0999 V2000
    1.5050    4.2540   -0.8420 C   0  0  0  0  0  0  0  0  0  0  0  0
    0.4650    4.7380    0.1240 C   0  0  0  0  0  0  0  0  0  0  0  0
   -0.4860    3.6000    0.5240 C   0  0  0  0  0  0  0  0  0  0  0  0
   -1.1840    3.0570   -0.7130 C   0  0  2  0  0  0  0  0  0  0  0  0
   -1.9870    4.1430   -1.4000 C   0  0  0  0  0  0  0  0  0  0  0  0
   -3.1960    4.5770   -0.6710 C   0  0  0  0  0  0  0  0  0  0  0  0
   -3.7720    3.6530    0.3350 C   0  0  0  0  0  0  0  0  0  0  0  0
   -3.3680    2.2570    0.0630 C   0  0  0  0  0  0  0  0  0  0  0  0
   -4.2440    1.2200    0.3040 C   0  0  0  0  0  0  0  0  0  0  0  0
   -5.6000    1.5240    0.8550 C   0  0  0  0  0  0  0  0  0  0  0  0
   -3.8980   -0.1100    0.0520 C   0  0  0  0  0  0  0  0  0  0  0  0
   -4.8750   -1.1640    0.3270 C   0  0  0  0  0  0  0  0  0  0  0  0
   -2.6300   -0.3760   -0.4560 C   0  0  0  0  0  0  0  0  0  0  0  0
   -2.2270   -1.7540   -0.7430 C   0  0  0  0  0  0  0  0  0  0  0  0
   -1.8890   -2.5660    0.4690 C   0  0  0  0  0  0  0  0  0  0  0  0
   -1.5060   -3.9060    0.0610 N   0  0  0  0  0  0  0  0  0  0  0  0
   -2.6050   -4.6690   -0.4880 C   0  0  0  0  0  0  0  0  0  0  0  0
   -0.9170   -4.6180    1.1750 C   0  0  0  0  0  0  0  0  0  0  0  0
   -1.9350   -4.9150    2.2520 C   0  0  0  0  0  0  0  0  0  0  0  0
   -1.7500    0.6640   -0.6970 C   0  0  0  0  0  0  0  0  0  0  0  0
   -0.4680    0.3980   -1.2130 N   0  0  0  0  0  0  0  0  0  0  0  0
    0.6490    0.1320   -0.3230 C   0  0  0  0  0  0  0  0  0  0  0  0
    0.4490    0.1460    0.9000 O   0  0  0  0  0  0  0  0  0  0  0  0
    1.9350   -0.1360   -0.8310 N   0  0  0  0  0  0  0  0  0  0  0  0
    3.0960   -0.4040   -0.0860 C   0  0  0  0  0  0  0  0  0  0  0  0
    3.1190   -0.4030    1.2730 C   0  0  0  0  0  0  0  0  0  0  0  0
    4.2940   -0.6670    1.9980 C   0  0  0  0  0  0  0  0  0  0  0  0
    5.4410   -0.9300    1.2980 C   0  0  0  0  0  0  0  0  0  0  0  0
    6.6310   -1.1960    2.0000 O   0  0  0  0  0  0  0  0  0  0  0  0
    6.6200   -1.1870    3.4040 C   0  0  0  0  0  0  0  0  0  0  0  0
    5.4500   -0.9370   -0.0710 C   0  0  0  0  0  0  0  0  0  0  0  0
    4.3010   -0.6800   -0.7630 C   0  0  0  0  0  0  0  0  0  0  0  0
    4.2290   -0.6690   -2.1130 O   0  0  0  0  0  0  0  0  0  0  0  0
    5.1180   -0.8860   -3.1280 C   0  0  0  0  0  0  0  0  0  0  0  0
    5.7450   -2.2400   -3.2280 C   0  0  0  0  0  0  0  0  0  0  0  0
    6.8430   -2.2000   -4.6570 Cl  0  0  0  0  0  0  0  0  0  0  0  0
   -2.1150    1.9580   -0.4420 C   0  0  0  0  0  0  0  0  0  0  0  0
  1  2  1  0
  2  3  1  0
  4  3  1  1
  4  5  1  0
  4 37  1  0
  5  6  1  0
  6  7  1  0
  7  8  1  0
  8  9  2  0
  8 37  1  0
  9 10  1  0
  9 11  1  0
 11 12  1  0
 11 13  2  0
 13 14  1  0
 13 20  1  0
 14 15  1  0
 15 16  1  0
 16 17  1  0
 16 18  1  0
 18 19  1  0
 20 21  1  0
 20 37  2  0
 21 22  1  0
 22 23  2  0
 22 24  1  0
 24 25  1  0
 25 26  2  0
 25 32  1  0
 26 27  1  0
 27 28  2  0
 28 29  1  0
 28 31  1  0
 29 30  1  0
 31 32  2  0
 32 33  1  0
 33 34  1  0
 34 35  1  0
 35 36  1  0
M  END
