
     RDKit          3D

 36 38  0  0  0  0  0  0  0  0999 V2000
    0.1190    1.2060   -2.0790 C   0  0  0  0  0  0  0  0  0  0  0  0
    0.2640   -0.0670   -1.3590 C   0  0  0  0  0  0  0  0  0  0  0  0
   -0.2290   -0.0990    0.0300 C   0  0  0  0  0  0  0  0  0  0  0  0
   -1.5100   -0.2250    0.3010 C   0  0  0  0  0  0  0  0  0  0  0  0
   -2.5140   -0.3460   -0.7330 C   0  0  0  0  0  0  0  0  0  0  0  0
   -2.2060   -0.3660   -1.9360 O   0  0  0  0  0  0  0  0  0  0  0  0
   -3.9010   -0.4460   -0.4220 N   0  0  0  0  0  0  0  0  0  0  0  0
   -4.9810   -0.5760   -1.3130 C   0  0  0  0  0  0  0  0  0  0  0  0
   -4.8010   -0.8710   -2.6440 C   0  0  0  0  0  0  0  0  0  0  0  0
   -5.9110   -1.0410   -3.4770 C   0  0  0  0  0  0  0  0  0  0  0  0
   -7.1680   -0.9120   -2.9600 C   0  0  0  0  0  0  0  0  0  0  0  0
   -7.3500   -0.6140   -1.6150 C   0  0  0  0  0  0  0  0  0  0  0  0
   -6.2800   -0.4440   -0.7850 C   0  0  0  0  0  0  0  0  0  0  0  0
   -6.3810   -0.1010    0.6370 C   0  0  0  0  0  0  0  0  0  0  0  0
   -7.7350    0.2940    1.1150 C   0  0  1  0  0  0  0  0  0  0  0  0
   -7.6090    1.5670    1.9230 C   0  0  0  0  0  0  0  0  0  0  0  0
   -8.7040    0.5870   -0.0030 C   0  0  0  0  0  0  0  0  0  0  0  0
   -8.7250   -0.4770   -1.0480 C   0  0  0  0  0  0  0  0  0  0  0  0
    0.6910   -0.2340    1.1330 N   0  0  0  0  0  0  0  0  0  0  0  0
    0.3000   -0.8640    2.2900 C   0  0  0  0  0  0  0  0  0  0  0  0
    1.3390   -0.9280    3.1730 C   0  0  0  0  0  0  0  0  0  0  0  0
    2.4080   -0.3300    2.5780 C   0  0  0  0  0  0  0  0  0  0  0  0
    1.9580    0.0980    1.2940 C   0  0  0  0  0  0  0  0  0  0  0  0
    2.7600    0.9960    0.4890 C   0  0  0  0  0  0  0  0  0  0  0  0
    2.1770    2.3490    0.1100 C   0  0  0  0  0  0  0  0  0  0  0  0
    3.9970    0.8210    0.1800 C   0  0  0  0  0  0  0  0  0  0  0  0
    4.8770   -0.3070    0.5550 C   0  0  0  0  0  0  0  0  0  0  0  0
    6.0810    0.1340    1.2820 C   0  0  0  0  0  0  0  0  0  0  0  0
    5.9910    0.2320    2.5590 O   0  0  0  0  0  0  0  0  0  0  0  0
    7.3280    0.4690    0.7140 N   0  0  0  0  0  0  0  0  0  0  0  0
    8.3650    0.9730    1.6540 C   0  0  0  0  0  0  0  0  0  0  0  0
    9.3420   -0.3400    2.3020 Cl  0  0  0  0  0  0  0  0  0  0  0  0
    7.7490    0.3420   -0.6410 C   0  0  0  0  0  0  0  0  0  0  0  0
    8.5110   -0.8680   -1.0110 C   0  0  0  0  0  0  0  0  0  0  0  0
    7.8940   -2.1980   -0.8750 C   0  0  0  0  0  0  0  0  0  0  0  0
    6.7840   -2.4150   -1.6620 O   0  0  0  0  0  0  0  0  0  0  0  0
  1  2  1  0
  2  3  1  0
  3  4  2  3
  3 19  1  0
  4  5  1  0
  5  6  2  0
  5  7  1  0
  7  8  1  0
  8  9  2  0
  8 13  1  0
  9 10  1  0
 10 11  2  0
 11 12  1  0
 12 13  2  0
 12 18  1  0
 13 14  1  0
 14 15  1  0
 15 16  1  1
 15 17  1  0
 17 18  1  0
 19 20  1  0
 19 23  1  0
 20 21  2  0
 21 22  1  0
 22 23  2  0
 23 24  1  0
 24 25  1  0
 24 26  2  3
 26 27  1  0
 27 28  1  0
 28 29  2  0
 28 30  1  0
 30 31  1  0
 30 33  1  0
 31 32  1  0
 33 34  1  0
 34 35  1  0
 35 36  1  0
M  END
