
     RDKit          3D

 36 39  0  0  0  0  0  0  0  0999 V2000
    3.8730   -2.8300   -0.0230 C   0  0  0  0  0  0  0  0  0  0  0  0
    3.9850   -2.4340   -1.4240 C   0  0  0  0  0  0  0  0  0  0  0  0
    3.6650   -1.1070   -1.7990 O   0  0  0  0  0  0  0  0  0  0  0  0
    4.2850   -0.0260   -1.1430 C   0  0  0  0  0  0  0  0  0  0  0  0
    5.6540    0.1630   -1.4030 C   0  0  0  0  0  0  0  0  0  0  0  0
    6.4290   -0.9340   -2.5240 Cl  0  0  0  0  0  0  0  0  0  0  0  0
    6.3780    1.1770   -0.8240 C   0  0  0  0  0  0  0  0  0  0  0  0
    5.7870    2.0630    0.0460 C   0  0  0  0  0  0  0  0  0  0  0  0
    6.6020    3.1530    0.6640 C   0  0  0  0  0  0  0  0  0  0  0  0
    4.4670    1.8860    0.2950 C   0  0  0  0  0  0  0  0  0  0  0  0
    3.6790    0.8410   -0.2950 C   0  0  0  0  0  0  0  0  0  0  0  0
    1.9730    0.9180   -0.0330 S   0  0  2  0  0  0  0  0  0  0  0  0
    1.3960    1.1450   -1.4970 O   0  0  0  0  0  0  0  0  0  0  0  0
    1.6450    2.2840    0.6150 O   0  0  0  0  0  0  0  0  0  0  0  0
    1.1330   -0.2880    0.6360 N   0  0  0  0  0  0  0  0  0  0  0  0
    0.9120   -1.5710    0.1940 C   0  0  0  0  0  0  0  0  0  0  0  0
   -0.6280   -1.8770    0.0450 C   0  0  0  0  0  0  0  0  0  0  0  0
   -1.2960   -1.1540    1.0630 N   0  0  0  0  0  0  0  0  0  0  0  0
   -2.5990   -0.5330    1.0680 C   0  0  0  0  0  0  0  0  0  0  0  0
   -2.7970    0.1480    2.1210 O   0  0  0  0  0  0  0  0  0  0  0  0
   -3.4980   -0.6930   -0.0230 C   0  0  0  0  0  0  0  0  0  0  0  0
   -4.5010    0.1160   -0.2010 C   0  0  0  0  0  0  0  0  0  0  0  0
   -4.7840    1.2510    0.6420 C   0  0  0  0  0  0  0  0  0  0  0  0
   -5.9570    1.9140    0.4240 C   0  0  0  0  0  0  0  0  0  0  0  0
   -6.1040    3.0430    1.3330 C   0  0  1  0  0  0  0  0  0  0  0  0
   -7.2220    2.8250    2.1490 O   0  0  0  0  0  0  0  0  0  0  0  0
   -4.8860    3.0580    2.0410 N   0  0  0  0  0  0  0  0  0  0  0  0
   -4.1440    2.0340    1.6530 C   0  0  0  0  0  0  0  0  0  0  0  0
   -5.3980   -0.0100   -1.3750 N   0  0  0  0  0  0  0  0  0  0  0  0
   -5.0070   -0.3930   -2.7080 C   0  0  0  0  0  0  0  0  0  0  0  0
   -4.1740   -1.3870   -3.0110 C   0  0  0  0  0  0  0  0  0  0  0  0
   -3.4980   -2.2840   -2.0370 C   0  0  0  0  0  0  0  0  0  0  0  0
   -3.1370   -3.5040   -2.4890 F   0  0  0  0  0  0  0  0  0  0  0  0
   -3.2280   -1.9780   -0.7950 C   0  0  0  0  0  0  0  0  0  0  0  0
   -0.4820   -1.0330    2.3200 C   0  0  0  0  0  0  0  0  0  0  0  0
    0.5750   -0.0210    1.9690 C   0  0  0  0  0  0  0  0  0  0  0  0
  1  2  1  0
  2  3  1  0
  3  4  1  0
  4  5  2  0
  4 11  1  0
  5  6  1  0
  5  7  1  0
  7  8  2  0
  8  9  1  0
  8 10  1  0
 10 11  2  0
 11 12  1  0
 12 13  2  0
 12 14  2  0
 12 15  1  1
 15 16  1  0
 15 36  1  0
 16 17  1  0
 17 18  1  0
 18 19  1  0
 18 35  1  0
 19 20  2  0
 19 21  1  0
 21 22  2  0
 21 34  1  0
 22 23  1  0
 22 29  1  0
 23 24  2  0
 23 28  1  0
 24 25  1  0
 25 26  1  1
 25 27  1  0
 27 28  2  0
 29 30  1  0
 30 31  2  0
 31 32  1  0
 32 33  1  0
 32 34  2  0
 35 36  1  0
M  END
