
     RDKit          3D

 36 38  0  0  0  0  0  0  0  0999 V2000
    7.4270    1.2640   -1.4100 C   0  0  0  0  0  0  0  0  0  0  0  0
    6.2250    1.0630   -0.5600 C   0  0  0  0  0  0  0  0  0  0  0  0
    6.3690    0.5150    0.5660 O   0  0  0  0  0  0  0  0  0  0  0  0
    4.9600    1.4940   -1.0450 N   0  0  0  0  0  0  0  0  0  0  0  0
    3.8020    1.3020   -0.2310 C   0  0  1  0  0  0  0  0  0  0  0  0
    3.1780    2.6500    0.1820 C   0  0  2  0  0  0  0  0  0  0  0  0
    4.1670    3.4650    0.7190 O   0  0  0  0  0  0  0  0  0  0  0  0
    2.2720    2.3520    1.1470 O   0  0  0  0  0  0  0  0  0  0  0  0
    1.2930    1.4560    0.9070 C   0  0  2  0  0  0  0  0  0  0  0  0
    0.8960    0.9120    2.3120 C   0  0  0  0  0  0  0  0  0  0  0  0
    2.0680    0.3410    2.8620 O   0  0  0  0  0  0  0  0  0  0  0  0
    1.5370    0.3180   -0.0210 C   0  0  1  0  0  0  0  0  0  0  0  0
    0.4280    0.1290   -0.8680 O   0  0  0  0  0  0  0  0  0  0  0  0
   -0.1210   -1.1200   -0.8050 C   0  0  2  0  0  0  0  0  0  0  0  0
    0.1610   -1.8430   -2.0070 O   0  0  0  0  0  0  0  0  0  0  0  0
    0.1760   -3.2060   -1.7270 C   0  0  2  0  0  0  0  0  0  0  0  0
    0.0040   -4.0590   -2.9490 C   0  0  0  0  0  0  0  0  0  0  0  0
    0.0290   -5.4150   -2.5920 O   0  0  0  0  0  0  0  0  0  0  0  0
   -0.9370   -3.5230   -0.7570 C   0  0  2  0  0  0  0  0  0  0  0  0
   -1.4690   -4.8060   -1.0310 O   0  0  0  0  0  0  0  0  0  0  0  0
   -2.0660   -2.5550   -1.0060 C   0  0  2  0  0  0  0  0  0  0  0  0
   -2.4100   -2.5030   -2.3540 O   0  0  0  0  0  0  0  0  0  0  0  0
   -1.6100   -1.1740   -0.5910 C   0  0  1  0  0  0  0  0  0  0  0  0
   -1.9050   -0.8580    0.7020 O   0  0  0  0  0  0  0  0  0  0  0  0
   -2.7740    0.2160    0.8390 C   0  0  2  0  0  0  0  0  0  0  0  0
   -2.2260    1.2850    1.5110 O   0  0  0  0  0  0  0  0  0  0  0  0
   -3.0420    2.4070    1.5320 C   0  0  1  0  0  0  0  0  0  0  0  0
   -2.8620    3.2580    0.2850 C   0  0  0  0  0  0  0  0  0  0  0  0
   -4.4830    2.0700    1.7890 C   0  0  1  0  0  0  0  0  0  0  0  0
   -5.1660    2.1350    0.5710 O   0  0  0  0  0  0  0  0  0  0  0  0
   -4.6530    0.7000    2.3980 C   0  0  1  0  0  0  0  0  0  0  0  0
   -5.9790    0.3810    2.5820 O   0  0  0  0  0  0  0  0  0  0  0  0
   -4.0430   -0.3130    1.4570 C   0  0  2  0  0  0  0  0  0  0  0  0
   -3.7040   -1.4210    2.2330 O   0  0  0  0  0  0  0  0  0  0  0  0
    2.6940    0.5770   -0.9360 C   0  0  2  0  0  0  0  0  0  0  0  0
    3.2320   -0.6000   -1.4590 O   0  0  0  0  0  0  0  0  0  0  0  0
  1  2  1  0
  2  3  2  0
  2  4  1  0
  5  4  1  6
  5  6  1  0
  5 35  1  0
  6  7  1  1
  6  8  1  0
  8  9  1  0
  9 10  1  1
  9 12  1  0
 10 11  1  0
 12 13  1  6
 12 35  1  0
 14 13  1  6
 14 15  1  0
 14 23  1  0
 15 16  1  0
 16 17  1  6
 16 19  1  0
 17 18  1  0
 19 20  1  6
 19 21  1  0
 21 22  1  6
 21 23  1  0
 23 24  1  1
 25 24  1  1
 25 26  1  0
 25 33  1  0
 26 27  1  0
 27 28  1  6
 27 29  1  0
 29 30  1  6
 29 31  1  0
 31 32  1  6
 31 33  1  0
 33 34  1  1
 35 36  1  1
M  END
