
     RDKit          3D

 36 39  0  0  0  0  0  0  0  0999 V2000
   -2.6610   -3.2640   -1.0240 C   0  0  0  0  0  0  0  0  0  0  0  0
   -1.3370   -2.9550   -1.6690 C   0  0  1  0  0  0  0  0  0  0  0  0
   -1.4680   -3.0650   -3.1720 C   0  0  0  0  0  0  0  0  0  0  0  0
   -0.7630   -1.7550   -1.2570 O   0  0  0  0  0  0  0  0  0  0  0  0
    0.4200   -1.6190   -0.5960 C   0  0  0  0  0  0  0  0  0  0  0  0
    1.0390   -2.6610   -0.3370 O   0  0  0  0  0  0  0  0  0  0  0  0
    1.0240   -0.3060   -0.1790 C   0  0  0  0  0  0  0  0  0  0  0  0
    0.3090    0.8070   -0.3910 C   0  0  0  0  0  0  0  0  0  0  0  0
   -1.0420    1.2160   -0.5400 N   0  0  0  0  0  0  0  0  0  0  0  0
   -2.2000    0.6200   -0.0620 C   0  0  0  0  0  0  0  0  0  0  0  0
   -1.9780   -0.4360    0.6750 O   0  0  0  0  0  0  0  0  0  0  0  0
   -3.6040    0.9350   -0.2200 C   0  0  0  0  0  0  0  0  0  0  0  0
   -4.1300    1.9140   -0.9130 C   0  0  0  0  0  0  0  0  0  0  0  0
   -3.5330    2.9050   -1.6770 C   0  0  0  0  0  0  0  0  0  0  0  0
   -4.5470    3.6800   -2.1810 N   0  0  0  0  0  0  0  0  0  0  0  0
   -5.6780    3.2350   -1.7830 O   0  0  0  0  0  0  0  0  0  0  0  0
   -5.4890    2.1630   -1.0090 C   0  0  0  0  0  0  0  0  0  0  0  0
   -6.3600    1.4050   -0.3980 C   0  0  0  0  0  0  0  0  0  0  0  0
   -5.9550    0.2640    0.4130 C   0  0  1  0  0  0  0  0  0  0  0  0
   -6.5690    0.4430    1.8240 C   0  0  0  0  0  0  0  0  0  0  0  0
   -6.7340   -0.9440   -0.1650 C   0  0  0  0  0  0  0  0  0  0  0  0
   -4.5270    0.0050    0.5150 C   0  0  0  0  0  0  0  0  0  0  0  0
    1.5840    2.1060   -0.0590 S   0  0  0  0  0  0  0  0  0  0  0  0
    2.8670    1.0230    0.3210 C   0  0  0  0  0  0  0  0  0  0  0  0
    2.3350   -0.1890    0.1900 C   0  0  0  0  0  0  0  0  0  0  0  0
    3.3330   -1.3050    0.4850 C   0  0  0  0  0  0  0  0  0  0  0  0
    4.6900   -0.8610   -0.0310 C   0  0  0  0  0  0  0  0  0  0  0  0
    5.1490    0.3380    0.6260 N   0  0  0  0  0  0  0  0  0  0  0  0
    6.4810    0.4270    1.1780 C   0  0  0  0  0  0  0  0  0  0  0  0
    7.2430   -0.5600    1.0830 O   0  0  0  0  0  0  0  0  0  0  0  0
    6.9410    1.5930    1.8180 N   0  0  0  0  0  0  0  0  0  0  0  0
    8.2120    1.8510    2.4020 C   0  0  0  0  0  0  0  0  0  0  0  0
    9.4130    1.8460    1.5370 C   0  0  1  0  0  0  0  0  0  0  0  0
   10.5080    2.1580    2.3860 F   0  0  0  0  0  0  0  0  0  0  0  0
    9.7930    0.2260    0.9280 Cl  0  0  0  0  0  0  0  0  0  0  0  0
    4.2260    1.4380    0.7090 C   0  0  0  0  0  0  0  0  0  0  0  0
  2  1  1  1
  2  3  1  0
  2  4  1  0
  4  5  1  0
  5  6  2  0
  5  7  1  0
  7  8  2  0
  7 25  1  0
  8  9  1  0
  8 23  1  0
  9 10  1  0
 10 11  2  0
 10 12  1  0
 12 13  2  0
 12 22  1  0
 13 14  1  0
 13 17  1  0
 14 15  2  0
 15 16  1  0
 16 17  1  0
 17 18  2  0
 18 19  1  0
 19 20  1  1
 19 21  1  0
 19 22  1  0
 23 24  1  0
 24 25  2  0
 24 36  1  0
 25 26  1  0
 26 27  1  0
 27 28  1  0
 28 29  1  0
 28 36  1  0
 29 30  2  0
 29 31  1  0
 31 32  1  0
 32 33  1  0
 33 34  1  1
 33 35  1  0
M  END
