
     RDKit          3D

 35 38  0  0  0  0  0  0  0  0999 V2000
   -2.9280   -2.9720    1.0270 C   0  0  0  0  0  0  0  0  0  0  0  0
   -2.8060   -2.6440   -0.4740 C   0  0  0  0  0  0  0  0  0  0  0  0
   -3.0980   -1.2480   -0.5680 N   0  0  0  0  0  0  0  0  0  0  0  0
   -4.4930   -0.9420   -0.7320 C   0  0  0  0  0  0  0  0  0  0  0  0
   -5.2360   -1.7030   -1.3420 O   0  0  0  0  0  0  0  0  0  0  0  0
   -5.0210    0.3340   -0.1370 C   0  0  2  0  0  0  0  0  0  0  0  0
   -6.3780    0.5760   -0.5770 N   0  0  0  0  0  0  0  0  0  0  0  0
   -7.3040   -0.4330   -0.1590 C   0  0  0  0  0  0  0  0  0  0  0  0
   -4.1530    1.3630   -0.7870 C   0  0  1  0  0  0  0  0  0  0  0  0
   -4.4730    2.7580   -0.4010 C   0  0  0  0  0  0  0  0  0  0  0  0
   -3.6410    3.3130    0.7320 C   0  0  0  0  0  0  0  0  0  0  0  0
   -2.1740    3.3520    0.3530 C   0  0  0  0  0  0  0  0  0  0  0  0
   -1.8560    2.1830   -0.4840 N   0  0  0  0  0  0  0  0  0  0  0  0
   -2.7270    1.0430   -0.5630 C   0  0  0  0  0  0  0  0  0  0  0  0
   -2.1710   -0.2070   -0.4800 C   0  0  0  0  0  0  0  0  0  0  0  0
   -0.7690   -0.2810   -0.2310 C   0  0  0  0  0  0  0  0  0  0  0  0
    0.3230   -0.9380   -0.0990 C   0  0  0  0  0  0  0  0  0  0  0  0
    1.5420   -0.1120    0.2130 C   0  0  0  0  0  0  0  0  0  0  0  0
    2.7950   -0.5290    0.3000 C   0  0  0  0  0  0  0  0  0  0  0  0
    3.6810    0.4890    0.5970 O   0  0  0  0  0  0  0  0  0  0  0  0
    4.9300    0.5750    1.0480 C   0  0  0  0  0  0  0  0  0  0  0  0
    5.2570    0.6080    2.4070 C   0  0  0  0  0  0  0  0  0  0  0  0
    3.9460    0.5270    3.5420 Cl  0  0  0  0  0  0  0  0  0  0  0  0
    6.5650    0.7010    2.7720 C   0  0  0  0  0  0  0  0  0  0  0  0
    7.6070    0.7650    1.8700 C   0  0  0  0  0  0  0  0  0  0  0  0
    7.2750    0.7330    0.5480 C   0  0  0  0  0  0  0  0  0  0  0  0
    5.9720    0.6400    0.1460 C   0  0  0  0  0  0  0  0  0  0  0  0
    5.7110    0.6140   -1.2420 O   0  0  0  0  0  0  0  0  0  0  0  0
    6.7400    0.6800   -2.1860 C   0  0  0  0  0  0  0  0  0  0  0  0
    3.2200   -1.8890    0.1180 C   0  0  0  0  0  0  0  0  0  0  0  0
    4.6910   -2.2490    0.2300 C   0  0  0  0  0  0  0  0  0  0  0  0
    2.4030   -2.8260   -0.1410 N   0  0  0  0  0  0  0  0  0  0  0  0
    0.7020   -2.6190   -0.3040 S   0  0  1  0  0  0  0  0  0  0  0  0
    0.0460   -3.4770    0.7700 O   0  0  0  0  0  0  0  0  0  0  0  0
    0.3990   -3.1290   -1.6970 O   0  0  0  0  0  0  0  0  0  0  0  0
  1  2  1  0
  2  3  1  0
  3  4  1  0
  3 15  1  0
  4  5  2  0
  4  6  1  0
  6  7  1  6
  6  9  1  0
  7  8  1  0
  9 10  1  1
  9 14  1  0
 10 11  1  0
 11 12  1  0
 12 13  1  0
 13 14  1  0
 14 15  2  0
 15 16  1  0
 16 17  2  3
 17 18  1  0
 17 33  1  0
 18 19  2  0
 19 20  1  0
 19 30  1  0
 20 21  1  0
 21 22  2  0
 21 27  1  0
 22 23  1  0
 22 24  1  0
 24 25  2  0
 25 26  1  0
 26 27  2  0
 27 28  1  0
 28 29  1  0
 30 31  1  0
 30 32  2  0
 33 32  1  1
 33 34  2  0
 33 35  2  0
M  END
