
     RDKit          3D

 32 33  0  0  0  0  0  0  0  0999 V2000
   -7.5220   -1.5010    0.0470 C   0  0  0  0  0  0  0  0  0  0  0  0
   -6.0560   -1.5730   -0.2890 C   0  0  0  0  0  0  0  0  0  0  0  0
   -5.6310   -2.4360   -1.2760 C   0  0  0  0  0  0  0  0  0  0  0  0
   -4.2720   -2.4570   -1.5400 C   0  0  0  0  0  0  0  0  0  0  0  0
   -3.3720   -1.6820   -0.8790 C   0  0  0  0  0  0  0  0  0  0  0  0
   -1.9660   -1.7580   -1.2080 C   0  0  0  0  0  0  0  0  0  0  0  0
   -1.6020   -2.5500   -2.1110 O   0  0  0  0  0  0  0  0  0  0  0  0
   -0.9810   -1.0160   -0.5970 O   0  0  0  0  0  0  0  0  0  0  0  0
    0.3900   -1.1070   -0.9360 C   0  0  0  0  0  0  0  0  0  0  0  0
    1.2420   -0.1840   -0.1100 C   0  0  0  0  0  0  0  0  0  0  0  0
    2.6190   -0.2970   -0.4730 N   0  0  0  0  0  0  0  0  0  0  0  0
    3.6840    0.4150    0.0910 C   0  0  0  0  0  0  0  0  0  0  0  0
    4.3370   -0.0880    1.1940 C   0  0  0  0  0  0  0  0  0  0  0  0
    3.8940   -1.3720    1.7610 C   0  0  0  0  0  0  0  0  0  0  0  0
    5.4080    0.6000    1.7780 C   0  0  0  0  0  0  0  0  0  0  0  0
    6.0340    0.0740    2.8710 F   0  0  0  0  0  0  0  0  0  0  0  0
    5.8200    1.7820    1.2610 C   0  0  0  0  0  0  0  0  0  0  0  0
    5.1850    2.3090    0.1580 C   0  0  0  0  0  0  0  0  0  0  0  0
    5.6610    3.5920   -0.3850 C   0  0  2  0  0  0  0  0  0  0  0  0
    4.6860    4.5740   -0.3980 F   0  0  0  0  0  0  0  0  0  0  0  0
    6.1220    3.4470   -1.6770 F   0  0  0  0  0  0  0  0  0  0  0  0
    7.0490    4.1840    0.5750 Cl  0  0  0  0  0  0  0  0  0  0  0  0
    4.1190    1.6190   -0.4190 C   0  0  0  0  0  0  0  0  0  0  0  0
    3.4030    2.1490   -1.6060 C   0  0  0  0  0  0  0  0  0  0  0  0
   -3.8050   -0.7900    0.1410 C   0  0  0  0  0  0  0  0  0  0  0  0
   -2.8660   -0.0500    0.7520 O   0  0  0  0  0  0  0  0  0  0  0  0
   -2.8270    0.8650    1.7490 C   0  0  0  0  0  0  0  0  0  0  0  0
   -3.1740    0.3920    3.1290 C   0  0  2  0  0  0  0  0  0  0  0  0
   -2.2520   -0.6150    3.4420 F   0  0  0  0  0  0  0  0  0  0  0  0
   -4.4420   -0.0320    3.3430 F   0  0  0  0  0  0  0  0  0  0  0  0
   -2.9620    1.4510    4.0190 F   0  0  0  0  0  0  0  0  0  0  0  0
   -5.1630   -0.7760    0.3960 C   0  0  0  0  0  0  0  0  0  0  0  0
  1  2  1  0
  2  3  2  0
  2 32  1  0
  3  4  1  0
  4  5  2  0
  5  6  1  0
  5 25  1  0
  6  7  2  0
  6  8  1  0
  8  9  1  0
  9 10  1  0
 10 11  1  0
 11 12  1  0
 12 13  2  0
 12 23  1  0
 13 14  1  0
 13 15  1  0
 15 16  1  0
 15 17  2  0
 17 18  1  0
 18 19  1  0
 18 23  2  0
 19 20  1  6
 19 21  1  0
 19 22  1  0
 23 24  1  0
 25 26  1  0
 25 32  2  0
 26 27  1  0
 27 28  1  0
 28 29  1  1
 28 30  1  0
 28 31  1  0
M  END
