
     RDKit          3D

 33 34  0  0  0  0  0  0  0  0999 V2000
    8.3500    1.0670   -0.0330 C   0  0  0  0  0  0  0  0  0  0  0  0
    7.2310    0.9790   -1.0690 C   0  0  0  0  0  0  0  0  0  0  0  0
    5.8910    1.0050   -0.4380 C   0  0  0  0  0  0  0  0  0  0  0  0
    5.1270    2.1580   -0.3240 C   0  0  0  0  0  0  0  0  0  0  0  0
    3.9040    2.1730    0.3280 C   0  0  0  0  0  0  0  0  0  0  0  0
    3.3760    1.0440    0.9020 C   0  0  0  0  0  0  0  0  0  0  0  0
    2.1850    1.0140    1.7270 C   0  0  0  0  0  0  0  0  0  0  0  0
    0.9600    0.6950    1.2900 O   0  0  0  0  0  0  0  0  0  0  0  0
    0.3820   -0.3280    0.6130 C   0  0  0  0  0  0  0  0  0  0  0  0
    1.1810   -1.2330    0.1950 O   0  0  0  0  0  0  0  0  0  0  0  0
   -1.0510   -0.4260    0.3840 C   0  0  0  0  0  0  0  0  0  0  0  0
   -1.8410    0.4670    1.0810 C   0  0  0  0  0  0  0  0  0  0  0  0
   -3.2070    0.3590    0.9800 C   0  0  0  0  0  0  0  0  0  0  0  0
   -3.8290   -0.5930    0.2200 C   0  0  0  0  0  0  0  0  0  0  0  0
   -5.3330   -0.5920    0.0980 C   0  0  2  0  0  0  0  0  0  0  0  0
   -5.7570    0.7980    0.3750 N   0  0  0  0  0  0  0  0  0  0  0  0
   -6.1260    1.6410   -0.6490 C   0  0  0  0  0  0  0  0  0  0  0  0
   -7.4260    1.2250   -1.2930 C   0  0  0  0  0  0  0  0  0  0  0  0
   -7.8910    2.3650   -2.5850 Cl  0  0  0  0  0  0  0  0  0  0  0  0
   -5.8660   -1.2750    1.4030 C   0  0  2  0  0  0  0  0  0  0  0  0
   -5.4490   -0.5520    2.4700 F   0  0  0  0  0  0  0  0  0  0  0  0
   -5.4090   -2.5820    1.4270 F   0  0  0  0  0  0  0  0  0  0  0  0
   -7.2340   -1.2320    1.3130 F   0  0  0  0  0  0  0  0  0  0  0  0
   -3.0410   -1.4760   -0.4780 C   0  0  0  0  0  0  0  0  0  0  0  0
   -3.5600   -2.4720   -1.2730 O   0  0  0  0  0  0  0  0  0  0  0  0
   -2.7210   -3.3890   -1.9510 C   0  0  0  0  0  0  0  0  0  0  0  0
   -1.6380   -1.3840   -0.3880 C   0  0  0  0  0  0  0  0  0  0  0  0
    4.1470   -0.1230    0.7780 C   0  0  0  0  0  0  0  0  0  0  0  0
    5.3580   -0.1260    0.1290 C   0  0  0  0  0  0  0  0  0  0  0  0
    6.0740   -1.4250   -0.0220 C   0  0  1  0  0  0  0  0  0  0  0  0
    5.3260   -2.3950    0.6500 F   0  0  0  0  0  0  0  0  0  0  0  0
    6.0280   -1.8420   -1.3630 F   0  0  0  0  0  0  0  0  0  0  0  0
    7.3230   -1.4700    0.4700 F   0  0  0  0  0  0  0  0  0  0  0  0
  1  2  1  0
  2  3  1  0
  3  4  2  0
  3 29  1  0
  4  5  1  0
  5  6  2  0
  6  7  1  0
  6 28  1  0
  7  8  1  0
  8  9  1  0
  9 10  2  0
  9 11  1  0
 11 12  2  0
 11 27  1  0
 12 13  1  0
 13 14  2  0
 14 15  1  0
 14 24  1  0
 15 16  1  1
 15 20  1  0
 16 17  1  0
 17 18  1  0
 18 19  1  0
 20 21  1  1
 20 22  1  0
 20 23  1  0
 24 25  1  0
 24 27  2  0
 25 26  1  0
 28 29  2  0
 29 30  1  0
 30 31  1  1
 30 32  1  0
 30 33  1  0
M  END
