
     RDKit          3D

 33 34  0  0  0  0  0  0  0  0999 V2000
   -7.7840    0.6190    1.0090 C   0  0  0  0  0  0  0  0  0  0  0  0
   -6.5440    1.0060    1.3800 C   0  0  0  0  0  0  0  0  0  0  0  0
   -6.4060    1.5500    3.0250 Cl  0  0  0  0  0  0  0  0  0  0  0  0
   -5.5140    0.9290    0.3970 C   0  0  0  0  0  0  0  0  0  0  0  0
   -4.2340    1.2250    0.4510 C   0  0  0  0  0  0  0  0  0  0  0  0
   -3.4660    1.0060   -0.8070 C   0  0  0  0  0  0  0  0  0  0  0  0
   -2.3730    0.0870   -0.6930 N   0  0  0  0  0  0  0  0  0  0  0  0
   -2.4860   -1.2760   -0.7210 C   0  0  0  0  0  0  0  0  0  0  0  0
   -3.7290   -2.0970   -0.8170 C   0  0  2  0  0  0  0  0  0  0  0  0
   -3.8310   -2.7800    0.3910 F   0  0  0  0  0  0  0  0  0  0  0  0
   -3.6550   -2.9760   -1.8770 F   0  0  0  0  0  0  0  0  0  0  0  0
   -1.2320   -1.8460   -0.6550 C   0  0  0  0  0  0  0  0  0  0  0  0
   -0.3310   -0.8050   -0.5870 C   0  0  0  0  0  0  0  0  0  0  0  0
    1.0680   -0.8290   -0.5260 C   0  0  0  0  0  0  0  0  0  0  0  0
    1.7600   -2.0220   -0.5000 O   0  0  0  0  0  0  0  0  0  0  0  0
    2.2040   -2.6940   -1.6590 C   0  0  0  0  0  0  0  0  0  0  0  0
    1.7070    0.3890   -0.4940 C   0  0  0  0  0  0  0  0  0  0  0  0
    3.1140    0.3330   -0.4330 O   0  0  0  0  0  0  0  0  0  0  0  0
    3.7970    0.3000    0.7500 C   0  0  0  0  0  0  0  0  0  0  0  0
    3.0510    0.3240    1.7980 O   0  0  0  0  0  0  0  0  0  0  0  0
    5.2320    0.2420    0.9280 C   0  0  0  0  0  0  0  0  0  0  0  0
    6.1580    0.2110   -0.1870 C   0  0  0  0  0  0  0  0  0  0  0  0
    5.8410    0.2310   -1.4590 C   0  0  0  0  0  0  0  0  0  0  0  0
    6.8550    0.1950   -2.3710 F   0  0  0  0  0  0  0  0  0  0  0  0
    5.7280    0.2160    2.1530 C   0  0  0  0  0  0  0  0  0  0  0  0
    7.2030    0.1570    2.4010 C   0  0  0  0  0  0  0  0  0  0  0  0
    1.0370    1.5880   -0.5200 C   0  0  0  0  0  0  0  0  0  0  0  0
   -0.3360    1.5750   -0.5790 C   0  0  0  0  0  0  0  0  0  0  0  0
   -1.0500    0.3760   -0.6130 C   0  0  0  0  0  0  0  0  0  0  0  0
   -3.6570    1.7400    1.7030 C   0  0  2  0  0  0  0  0  0  0  0  0
   -3.8850    0.7760    2.6950 F   0  0  0  0  0  0  0  0  0  0  0  0
   -4.2860    2.9030    2.1260 F   0  0  0  0  0  0  0  0  0  0  0  0
   -2.2920    1.9450    1.6550 F   0  0  0  0  0  0  0  0  0  0  0  0
  1  2  2  0
  2  3  1  0
  2  4  1  0
  4  5  2  3
  5  6  1  0
  5 30  1  0
  6  7  1  0
  7  8  1  0
  7 29  1  0
  8  9  1  0
  8 12  2  0
  9 10  1  1
  9 11  1  0
 12 13  1  0
 13 14  2  0
 13 29  1  0
 14 15  1  0
 14 17  1  0
 15 16  1  0
 17 18  1  0
 17 27  2  0
 18 19  1  0
 19 20  2  0
 19 21  1  0
 21 22  1  0
 21 25  2  3
 22 23  2  3
 23 24  1  0
 25 26  1  0
 27 28  1  0
 28 29  2  0
 30 31  1  1
 30 32  1  0
 30 33  1  0
M  END
