
     RDKit          3D

 33 34  0  0  0  0  0  0  0  0999 V2000
    7.6450   -2.4910   -1.9660 C   0  0  0  0  0  0  0  0  0  0  0  0
    8.4110   -1.9470   -0.8170 C   0  0  0  0  0  0  0  0  0  0  0  0
    7.8410   -1.0950    0.0140 C   0  0  0  0  0  0  0  0  0  0  0  0
    6.4200   -0.6940   -0.2250 C   0  0  0  0  0  0  0  0  0  0  0  0
    5.6090   -1.0610    0.9200 N   0  0  0  0  0  0  0  0  0  0  0  0
    4.2340   -0.7080    0.7680 C   0  0  0  0  0  0  0  0  0  0  0  0
    4.0200    0.7910    0.7720 C   0  0  2  0  0  0  0  0  0  0  0  0
    4.4630    1.3440    1.9690 O   0  0  0  0  0  0  0  0  0  0  0  0
    2.5870    1.1390    0.6200 C   0  0  0  0  0  0  0  0  0  0  0  0
    2.1000    2.4060    0.8550 C   0  0  0  0  0  0  0  0  0  0  0  0
    0.7600    2.3570    0.6190 C   0  0  0  0  0  0  0  0  0  0  0  0
    0.4570    1.0490    0.2420 C   0  0  0  0  0  0  0  0  0  0  0  0
   -0.8910    0.6020   -0.0940 C   0  0  0  0  0  0  0  0  0  0  0  0
   -1.1280   -0.7070   -0.4570 C   0  0  0  0  0  0  0  0  0  0  0  0
   -2.4000   -1.1350   -0.7770 C   0  0  0  0  0  0  0  0  0  0  0  0
   -3.4920   -0.2950   -0.7530 C   0  0  0  0  0  0  0  0  0  0  0  0
   -4.7910   -0.7430   -1.0810 O   0  0  0  0  0  0  0  0  0  0  0  0
   -5.8590    0.1750   -1.0580 C   0  0  0  0  0  0  0  0  0  0  0  0
   -5.8320    1.1010   -1.9550 C   0  0  0  0  0  0  0  0  0  0  0  0
   -6.7120    2.0800   -2.1420 F   0  0  0  0  0  0  0  0  0  0  0  0
   -4.7780    1.1010   -2.8550 F   0  0  0  0  0  0  0  0  0  0  0  0
   -6.8790   -0.0320   -0.0100 C   0  0  0  0  0  0  0  0  0  0  0  0
   -6.7580   -1.0380    0.8270 C   0  0  0  0  0  0  0  0  0  0  0  0
   -5.3430   -2.1160    0.6400 Cl  0  0  0  0  0  0  0  0  0  0  0  0
   -7.6310   -1.4220    1.9400 C   0  0  0  0  0  0  0  0  0  0  0  0
   -8.0960   -2.7250    1.6580 F   0  0  0  0  0  0  0  0  0  0  0  0
   -7.9880    0.9440   -0.0120 C   0  0  2  0  0  0  0  0  0  0  0  0
   -7.4820    2.2070    0.1520 F   0  0  0  0  0  0  0  0  0  0  0  0
   -9.0000    0.6820    0.8820 F   0  0  0  0  0  0  0  0  0  0  0  0
   -8.5850    0.8770   -1.2800 F   0  0  0  0  0  0  0  0  0  0  0  0
   -3.2660    1.0140   -0.3910 C   0  0  0  0  0  0  0  0  0  0  0  0
   -1.9740    1.4520   -0.0660 C   0  0  0  0  0  0  0  0  0  0  0  0
    1.5700    0.3940    0.2640 O   0  0  0  0  0  0  0  0  0  0  0  0
  1  2  1  0
  2  3  2  3
  3  4  1  0
  4  5  1  0
  5  6  1  0
  6  7  1  0
  7  8  1  1
  7  9  1  0
  9 10  2  0
  9 33  1  0
 10 11  1  0
 11 12  2  0
 12 13  1  0
 12 33  1  0
 13 14  2  0
 13 32  1  0
 14 15  1  0
 15 16  2  0
 16 17  1  0
 16 31  1  0
 17 18  1  0
 18 19  2  3
 18 22  1  0
 19 20  1  0
 19 21  1  0
 22 23  2  3
 22 27  1  0
 23 24  1  0
 23 25  1  0
 25 26  1  0
 27 28  1  1
 27 29  1  0
 27 30  1  0
 31 32  2  0
M  END
