
     RDKit          3D

 33 34  0  0  0  0  0  0  0  0999 V2000
    6.5510    0.3560    0.5870 C   0  0  0  0  0  0  0  0  0  0  0  0
    5.0660    0.4060    0.5260 C   0  0  0  0  0  0  0  0  0  0  0  0
    4.3890    1.5490    0.1990 C   0  0  0  0  0  0  0  0  0  0  0  0
    3.0200    1.5370    0.1540 C   0  0  0  0  0  0  0  0  0  0  0  0
    2.2390    0.4290    0.4160 C   0  0  0  0  0  0  0  0  0  0  0  0
    0.8110    0.4590    0.3500 N   0  0  0  0  0  0  0  0  0  0  0  0
    0.1030    1.4840   -0.2820 C   0  0  0  0  0  0  0  0  0  0  0  0
    0.8190    2.4240   -0.8560 O   0  0  0  0  0  0  0  0  0  0  0  0
   -1.3160    1.7130   -0.4360 C   0  0  0  0  0  0  0  0  0  0  0  0
   -1.7210    3.0500   -0.1250 C   0  0  0  0  0  0  0  0  0  0  0  0
   -3.0180    3.4590   -0.2890 C   0  0  0  0  0  0  0  0  0  0  0  0
   -3.9510    2.5620   -0.7640 C   0  0  0  0  0  0  0  0  0  0  0  0
   -5.3650    2.9610   -0.9180 C   0  0  2  0  0  0  0  0  0  0  0  0
   -5.4480    4.1270   -1.6490 F   0  0  0  0  0  0  0  0  0  0  0  0
   -5.9200    3.1730    0.2920 F   0  0  0  0  0  0  0  0  0  0  0  0
   -6.0680    1.9770   -1.6260 F   0  0  0  0  0  0  0  0  0  0  0  0
   -3.5470    1.2870   -1.0560 C   0  0  0  0  0  0  0  0  0  0  0  0
   -2.2420    0.8440   -0.9020 C   0  0  0  0  0  0  0  0  0  0  0  0
   -1.9770   -0.6360   -1.0710 C   0  0  2  0  0  0  0  0  0  0  0  0
   -2.4410   -0.9560   -2.5620 C   0  0  0  0  0  0  0  0  0  0  0  0
   -3.7410   -0.6810   -2.7000 F   0  0  0  0  0  0  0  0  0  0  0  0
   -2.7190   -1.3500   -0.3180 O   0  0  0  0  0  0  0  0  0  0  0  0
   -3.2920   -2.1410    0.4580 C   0  0  0  0  0  0  0  0  0  0  0  0
   -2.7740   -2.2920    1.8560 C   0  0  2  0  0  0  0  0  0  0  0  0
   -3.6170   -3.2210    2.5410 F   0  0  0  0  0  0  0  0  0  0  0  0
   -2.6830   -1.1740    2.5850 F   0  0  0  0  0  0  0  0  0  0  0  0
   -1.1340   -3.0110    1.7890 Cl  0  0  0  0  0  0  0  0  0  0  0  0
    2.9310   -0.7440    0.7540 C   0  0  0  0  0  0  0  0  0  0  0  0
    2.2570   -1.9060    1.2600 C   0  0  0  0  0  0  0  0  0  0  0  0
    2.6270   -3.1640    1.1030 C   0  0  0  0  0  0  0  0  0  0  0  0
    3.7300   -3.6500    0.3940 C   0  0  0  0  0  0  0  0  0  0  0  0
    4.2710   -4.7840    0.2830 O   0  0  0  0  0  0  0  0  0  0  0  0
    4.3310   -0.7240    0.8000 C   0  0  0  0  0  0  0  0  0  0  0  0
  1  2  1  0
  2  3  2  0
  2 33  1  0
  3  4  1  0
  4  5  2  0
  5  6  1  0
  5 28  1  0
  6  7  1  0
  7  8  2  0
  7  9  1  0
  9 10  2  0
  9 18  1  0
 10 11  1  0
 11 12  2  0
 12 13  1  0
 12 17  1  0
 13 14  1  6
 13 15  1  0
 13 16  1  0
 17 18  2  0
 18 19  1  0
 19 20  1  6
 19 22  1  0
 20 21  1  0
 22 23  1  0
 23 24  1  0
 24 25  1  1
 24 26  1  0
 24 27  1  0
 28 29  1  0
 28 33  2  0
 29 30  2  3
 30 31  1  0
 31 32  2  0
M  END
