
     RDKit          3D

 33 34  0  0  0  0  0  0  0  0999 V2000
   -6.5140    2.4100    2.7930 C   0  0  0  0  0  0  0  0  0  0  0  0
   -6.7860    1.1190    2.7580 C   0  0  0  0  0  0  0  0  0  0  0  0
   -7.7790    0.6570    3.5660 F   0  0  0  0  0  0  0  0  0  0  0  0
   -6.0630    0.2200    1.8960 C   0  0  0  0  0  0  0  0  0  0  0  0
   -6.3300   -1.0810    1.8550 C   0  0  0  0  0  0  0  0  0  0  0  0
   -5.5920   -1.9980    0.9760 C   0  0  1  0  0  0  0  0  0  0  0  0
   -5.2440   -3.1720    1.6570 F   0  0  0  0  0  0  0  0  0  0  0  0
   -6.6610   -2.5130   -0.3750 Cl  0  0  0  0  0  0  0  0  0  0  0  0
   -5.0610    0.7200    1.0880 O   0  0  0  0  0  0  0  0  0  0  0  0
   -3.7610    0.8770    1.5700 C   0  0  0  0  0  0  0  0  0  0  0  0
   -2.8820    1.4530    0.4380 C   0  0  0  0  0  0  0  0  0  0  0  0
   -2.8790    0.5320   -0.7080 C   0  0  0  0  0  0  0  0  0  0  0  0
   -1.7820   -0.0030   -1.1650 C   0  0  0  0  0  0  0  0  0  0  0  0
   -0.4410    0.1970   -0.6600 C   0  0  0  0  0  0  0  0  0  0  0  0
    0.6310   -0.3770   -1.1680 C   0  0  0  0  0  0  0  0  0  0  0  0
    1.9390   -0.0660   -0.5300 C   0  0  0  0  0  0  0  0  0  0  0  0
    1.9510    0.7090    0.4350 O   0  0  0  0  0  0  0  0  0  0  0  0
    3.0800   -0.6710   -1.0640 N   0  0  0  0  0  0  0  0  0  0  0  0
    4.3820   -0.4580   -0.5400 C   0  0  0  0  0  0  0  0  0  0  0  0
    5.4510   -0.8500   -1.3470 C   0  0  0  0  0  0  0  0  0  0  0  0
    6.7300   -0.6920   -0.9020 C   0  0  0  0  0  0  0  0  0  0  0  0
    7.0370   -0.1570    0.3240 C   0  0  0  0  0  0  0  0  0  0  0  0
    8.3550    0.0030    0.7750 O   0  0  0  0  0  0  0  0  0  0  0  0
    8.9950    1.2360    0.4660 C   0  0  1  0  0  0  0  0  0  0  0  0
    8.2560    2.2400    1.0370 F   0  0  0  0  0  0  0  0  0  0  0  0
   10.2400    1.1990    1.0810 F   0  0  0  0  0  0  0  0  0  0  0  0
    9.1050    1.4240   -0.8980 F   0  0  0  0  0  0  0  0  0  0  0  0
    5.9620    0.2200    1.0980 C   0  0  0  0  0  0  0  0  0  0  0  0
    4.6480    0.0740    0.6780 C   0  0  0  0  0  0  0  0  0  0  0  0
    0.5810   -1.2840   -2.3060 C   0  0  0  0  0  0  0  0  0  0  0  0
   -0.7690   -1.4890   -2.8190 C   0  0  0  0  0  0  0  0  0  0  0  0
   -1.8410   -0.9240   -2.3220 C   0  0  0  0  0  0  0  0  0  0  0  0
   -3.0840   -1.1570   -2.8500 F   0  0  0  0  0  0  0  0  0  0  0  0
  1  2  2  0
  2  3  1  0
  2  4  1  0
  4  5  2  3
  4  9  1  0
  5  6  1  0
  6  7  1  1
  6  8  1  0
  9 10  1  0
 10 11  1  0
 11 12  1  0
 12 13  2  3
 13 14  1  0
 13 32  1  0
 14 15  2  0
 15 16  1  0
 15 30  1  0
 16 17  2  0
 16 18  1  0
 18 19  1  0
 19 20  2  0
 19 29  1  0
 20 21  1  0
 21 22  2  0
 22 23  1  0
 22 28  1  0
 23 24  1  0
 24 25  1  1
 24 26  1  0
 24 27  1  0
 28 29  2  0
 30 31  1  0
 31 32  2  0
 32 33  1  0
M  END
