
     RDKit          3D

 28 30  0  0  0  0  0  0  0  0999 V2000
   -4.5760   -1.8800   -0.6500 C   0  0  0  0  0  0  0  0  0  0  0  0
   -3.1910   -1.9180   -0.1160 C   0  0  0  0  0  0  0  0  0  0  0  0
   -2.5380   -3.0030    0.2120 O   0  0  0  0  0  0  0  0  0  0  0  0
   -1.3340   -2.7100    0.6550 C   0  0  0  0  0  0  0  0  0  0  0  0
   -0.3080   -3.6740    1.1180 C   0  0  2  0  0  0  0  0  0  0  0  0
   -0.0710   -3.4250    2.4600 F   0  0  0  0  0  0  0  0  0  0  0  0
    0.8470   -3.5170    0.4120 F   0  0  0  0  0  0  0  0  0  0  0  0
   -1.2070   -1.3360    0.6070 C   0  0  0  0  0  0  0  0  0  0  0  0
    0.0250   -0.6490    0.9950 C   0  0  0  0  0  0  0  0  0  0  0  0
    0.1780   -0.3270    2.1780 O   0  0  0  0  0  0  0  0  0  0  0  0
    1.0070   -0.3730   -0.0190 C   0  0  0  0  0  0  0  0  0  0  0  0
    0.7730   -0.8090   -1.1990 O   0  0  0  0  0  0  0  0  0  0  0  0
    2.2190    0.3400    0.1430 N   0  0  0  0  0  0  0  0  0  0  0  0
    3.0210    0.4170   -1.0740 C   0  0  0  0  0  0  0  0  0  0  0  0
    4.4630    0.1760   -0.7350 C   0  0  0  0  0  0  0  0  0  0  0  0
    5.1150    1.4020   -0.8300 O   0  0  0  0  0  0  0  0  0  0  0  0
    5.1440    2.0940    0.3680 C   0  0  1  0  0  0  0  0  0  0  0  0
    5.7800    3.3080    0.0970 F   0  0  0  0  0  0  0  0  0  0  0  0
    3.5360    2.4650    1.0570 S   0  0  0  0  0  0  0  0  0  0  0  0
    2.5860    0.9360    1.3990 C   0  0  0  0  0  0  0  0  0  0  0  0
   -2.3790   -0.8390    0.1190 C   0  0  0  0  0  0  0  0  0  0  0  0
   -2.6320    0.5980   -0.1390 C   0  0  0  0  0  0  0  0  0  0  0  0
   -3.0800    1.0990   -1.2750 C   0  0  0  0  0  0  0  0  0  0  0  0
   -3.3620    0.3200   -2.3580 F   0  0  0  0  0  0  0  0  0  0  0  0
   -3.2020    2.5540   -1.1400 C   0  0  0  0  0  0  0  0  0  0  0  0
   -2.7770    2.8430    0.2300 C   0  0  0  0  0  0  0  0  0  0  0  0
   -2.4520    1.7010    0.7880 C   0  0  0  0  0  0  0  0  0  0  0  0
   -2.0260    1.6520    2.0840 F   0  0  0  0  0  0  0  0  0  0  0  0
  1  2  1  0
  2  3  1  0
  2 21  2  0
  3  4  1  0
  4  5  1  0
  4  8  2  0
  5  6  1  1
  5  7  1  0
  8  9  1  0
  8 21  1  0
  9 10  2  0
  9 11  1  0
 11 12  2  0
 11 13  1  0
 13 14  1  0
 13 20  1  0
 14 15  1  0
 15 16  1  0
 16 17  1  0
 17 18  1  6
 17 19  1  0
 19 20  1  0
 21 22  1  0
 22 23  2  0
 22 27  1  0
 23 24  1  0
 23 25  1  0
 25 26  1  0
 26 27  2  0
 27 28  1  0
M  END
