
     RDKit          3D

 28 30  0  0  0  0  0  0  0  0999 V2000
   -5.8640   -0.1740    0.1990 C   0  0  0  0  0  0  0  0  0  0  0  0
   -4.6550   -0.2750   -0.2920 C   0  0  0  0  0  0  0  0  0  0  0  0
   -3.3900    0.1520    0.2690 C   0  0  0  0  0  0  0  0  0  0  0  0
   -3.1090    0.6820    1.4230 C   0  0  0  0  0  0  0  0  0  0  0  0
   -4.1300    0.9660    2.4570 C   0  0  0  0  0  0  0  0  0  0  0  0
   -2.3570   -0.1400   -0.7570 C   0  0  0  0  0  0  0  0  0  0  0  0
   -0.9060    0.1170   -0.6270 C   0  0  0  0  0  0  0  0  0  0  0  0
   -0.1420   -0.2030   -1.6030 O   0  0  0  0  0  0  0  0  0  0  0  0
   -0.3010    0.6650    0.4390 O   0  0  0  0  0  0  0  0  0  0  0  0
    1.0210    0.9510    0.6910 C   0  0  0  0  0  0  0  0  0  0  0  0
    1.9330   -0.2540    0.7290 C   0  0  2  0  0  0  0  0  0  0  0  0
    3.2430    0.0690    1.4130 C   0  0  0  0  0  0  0  0  0  0  0  0
    4.3200    0.2080    0.4330 N   0  0  0  0  0  0  0  0  0  0  0  0
    5.3090    1.1680    0.2960 C   0  0  0  0  0  0  0  0  0  0  0  0
    5.2320    2.3850    0.6910 O   0  0  0  0  0  0  0  0  0  0  0  0
    6.5450    0.6940   -0.3720 C   0  0  0  0  0  0  0  0  0  0  0  0
    5.7820   -0.4810   -1.5680 S   0  0  0  0  0  0  0  0  0  0  0  0
    4.3230   -0.8480   -0.5550 C   0  0  2  0  0  0  0  0  0  0  0  0
    3.0250   -0.7100   -1.2890 C   0  0  0  0  0  0  0  0  0  0  0  0
    2.0020   -0.9560   -0.4210 O   0  0  0  0  0  0  0  0  0  0  0  0
   -2.9090   -0.6840   -1.8240 C   0  0  0  0  0  0  0  0  0  0  0  0
   -2.2260   -1.1280   -3.0950 C   0  0  1  0  0  0  0  0  0  0  0  0
   -3.2040   -1.4210   -4.0320 F   0  0  0  0  0  0  0  0  0  0  0  0
   -1.5500   -0.0280   -3.6430 F   0  0  0  0  0  0  0  0  0  0  0  0
   -1.3190   -2.1170   -2.8960 F   0  0  0  0  0  0  0  0  0  0  0  0
   -4.3530   -0.8910   -1.6320 C   0  0  2  0  0  0  0  0  0  0  0  0
   -5.1080   -0.3170   -2.6260 F   0  0  0  0  0  0  0  0  0  0  0  0
   -4.6140   -2.2520   -1.5960 F   0  0  0  0  0  0  0  0  0  0  0  0
  1  2  2  0
  2  3  1  0
  2 26  1  0
  3  4  2  3
  3  6  1  0
  4  5  1  0
  6  7  1  0
  6 21  2  0
  7  8  2  0
  7  9  1  0
  9 10  1  0
 11 10  1  6
 11 12  1  0
 11 20  1  0
 12 13  1  0
 13 14  1  0
 13 18  1  0
 14 15  2  0
 14 16  1  0
 16 17  1  0
 17 18  1  0
 18 19  1  6
 19 20  1  0
 21 22  1  0
 21 26  1  0
 22 23  1  6
 22 24  1  0
 22 25  1  0
 26 27  1  6
 26 28  1  0
M  END
