
     RDKit          3D

 28 29  0  0  0  0  0  0  0  0999 V2000
    3.6310    1.8180   -2.1960 C   0  0  0  0  0  0  0  0  0  0  0  0
    3.9390    1.6610   -0.7370 C   0  0  0  0  0  0  0  0  0  0  0  0
    3.2900    0.7350   -0.0770 C   0  0  0  0  0  0  0  0  0  0  0  0
    3.5290    0.5210    1.3310 C   0  0  0  0  0  0  0  0  0  0  0  0
    3.8690    1.5180    2.1190 C   0  0  0  0  0  0  0  0  0  0  0  0
    4.0350    2.7970    1.7630 F   0  0  0  0  0  0  0  0  0  0  0  0
    4.0780    1.2320    3.4370 F   0  0  0  0  0  0  0  0  0  0  0  0
    3.3840   -0.7860    1.8230 O   0  0  0  0  0  0  0  0  0  0  0  0
    2.5530   -1.7300    1.1740 C   0  0  0  0  0  0  0  0  0  0  0  0
    2.7320   -1.5610   -0.3090 C   0  0  0  0  0  0  0  0  0  0  0  0
    2.2760   -0.1580   -0.7360 C   0  0  1  0  0  0  0  0  0  0  0  0
    0.6780    0.2860   -0.0730 S   0  0  0  0  0  0  0  0  0  0  0  0
   -0.6760   -0.6220   -0.7760 C   0  0  0  0  0  0  0  0  0  0  0  0
   -1.9060   -0.4080   -0.3200 C   0  0  0  0  0  0  0  0  0  0  0  0
   -2.1040    0.5700    0.7470 C   0  0  0  0  0  0  0  0  0  0  0  0
   -1.1070    1.1800    1.2040 O   0  0  0  0  0  0  0  0  0  0  0  0
   -3.3290    0.8660    1.2880 O   0  0  0  0  0  0  0  0  0  0  0  0
   -3.5250    1.8140    2.3230 C   0  0  0  0  0  0  0  0  0  0  0  0
   -2.7860    1.4890    3.5770 C   0  0  0  0  0  0  0  0  0  0  0  0
   -3.0970   -1.1220   -0.8520 C   0  0  1  0  0  0  0  0  0  0  0  0
   -3.7630   -0.3180   -1.9610 C   0  0  2  0  0  0  0  0  0  0  0  0
   -4.8460   -1.0070   -2.4170 F   0  0  0  0  0  0  0  0  0  0  0  0
   -2.8500   -0.2130   -3.0140 F   0  0  0  0  0  0  0  0  0  0  0  0
   -4.1330    0.9300   -1.5640 F   0  0  0  0  0  0  0  0  0  0  0  0
   -2.8060   -2.4810   -1.3970 C   0  0  0  0  0  0  0  0  0  0  0  0
   -1.6530   -2.3100   -2.3510 C   0  0  0  0  0  0  0  0  0  0  0  0
   -1.6510   -2.7490   -3.5130 O   0  0  0  0  0  0  0  0  0  0  0  0
   -0.5310   -1.5870   -1.8090 N   0  0  0  0  0  0  0  0  0  0  0  0
  1  2  1  0
  2  3  2  3
  3  4  1  0
  3 11  1  0
  4  5  2  3
  4  8  1  0
  5  6  1  0
  5  7  1  0
  8  9  1  0
  9 10  1  0
 10 11  1  0
 11 12  1  1
 12 13  1  0
 13 14  2  0
 13 28  1  0
 14 15  1  0
 14 20  1  0
 15 16  2  0
 15 17  1  0
 17 18  1  0
 18 19  1  0
 20 21  1  0
 20 25  1  6
 21 22  1  6
 21 23  1  0
 21 24  1  0
 25 26  1  0
 26 27  2  0
 26 28  1  0
M  END
