
     RDKit          3D

 34 38  0  0  0  0  0  0  0  0999 V2000
   -5.9540   -5.5940    0.2910 C   0  0  0  0  0  0  0  0  0  0  0  0
   -4.9350   -4.5260    0.5100 C   0  0  0  0  0  0  0  0  0  0  0  0
   -4.0200   -4.5990    1.5290 C   0  0  0  0  0  0  0  0  0  0  0  0
   -3.0930   -3.6100    1.7130 C   0  0  0  0  0  0  0  0  0  0  0  0
   -3.0190   -2.4900    0.8980 C   0  0  0  0  0  0  0  0  0  0  0  0
   -2.0160   -1.4610    1.1300 C   0  0  0  0  0  0  0  0  0  0  0  0
   -1.2150   -1.6030    2.0850 O   0  0  0  0  0  0  0  0  0  0  0  0
   -1.9420   -0.2650    0.2550 C   0  0  0  0  0  0  0  0  0  0  0  0
   -0.8090    0.6230    0.7380 C   0  0  1  0  0  0  0  0  0  0  0  0
    0.4860   -0.0960    0.6870 C   0  0  0  0  0  0  0  0  0  0  0  0
    0.7120   -0.9870   -0.3350 C   0  0  0  0  0  0  0  0  0  0  0  0
    1.9310   -1.6420   -0.3590 C   0  0  0  0  0  0  0  0  0  0  0  0
    2.9020   -1.4270    0.5970 C   0  0  0  0  0  0  0  0  0  0  0  0
    4.1900   -2.1610    0.5170 C   0  0  0  0  0  0  0  0  0  0  0  0
    5.1550   -1.4180   -0.2640 N   0  0  0  0  0  0  0  0  0  0  0  0
    6.0220   -0.5140    0.1920 C   0  0  0  0  0  0  0  0  0  0  0  0
    6.1970   -0.1070    1.3880 O   0  0  0  0  0  0  0  0  0  0  0  0
    6.7190   -0.0810   -0.8870 N   0  0  0  0  0  0  0  0  0  0  0  0
    6.2750   -0.7130   -1.9540 N   0  0  0  0  0  0  0  0  0  0  0  0
    5.2910   -1.5630   -1.6050 C   0  0  0  0  0  0  0  0  0  0  0  0
    4.6550   -2.3170   -2.3870 O   0  0  0  0  0  0  0  0  0  0  0  0
    2.6520   -0.5240    1.6170 C   0  0  0  0  0  0  0  0  0  0  0  0
    1.4350    0.1390    1.6530 C   0  0  0  0  0  0  0  0  0  0  0  0
   -0.7740    1.9180    0.0160 C   0  0  0  0  0  0  0  0  0  0  0  0
   -1.0460    2.0320   -1.3290 C   0  0  0  0  0  0  0  0  0  0  0  0
   -1.0130    3.2360   -1.9950 C   0  0  0  0  0  0  0  0  0  0  0  0
   -0.7000    4.4050   -1.3350 C   0  0  0  0  0  0  0  0  0  0  0  0
   -0.4240    4.3210    0.0120 C   0  0  0  0  0  0  0  0  0  0  0  0
   -0.4620    3.0980    0.6650 C   0  0  0  0  0  0  0  0  0  0  0  0
   -0.1060    5.6780    0.5620 C   0  0  0  0  0  0  0  0  0  0  0  0
    0.2590    6.4430   -0.7010 C   0  0  0  0  0  0  0  0  0  0  0  0
   -0.5870    5.8270   -1.7660 C   0  0  0  0  0  0  0  0  0  0  0  0
   -3.9400   -2.4220   -0.1230 C   0  0  0  0  0  0  0  0  0  0  0  0
   -4.8780   -3.4130   -0.3170 C   0  0  0  0  0  0  0  0  0  0  0  0
  1  2  1  0
  2  3  2  0
  2 34  1  0
  3  4  1  0
  4  5  2  0
  5  6  1  0
  5 33  1  0
  6  7  2  0
  6  8  1  0
  9  8  1  6
  9 10  1  0
  9 24  1  0
 10 11  2  0
 10 23  1  0
 11 12  1  0
 12 13  2  0
 13 14  1  0
 13 22  1  0
 14 15  1  0
 15 16  1  0
 15 20  1  0
 16 17  2  0
 16 18  1  0
 18 19  1  0
 19 20  1  0
 20 21  2  0
 22 23  2  0
 24 25  2  0
 24 29  1  0
 25 26  1  0
 26 27  2  0
 27 28  1  0
 27 32  1  0
 28 29  2  0
 28 30  1  0
 30 31  1  0
 31 32  1  0
 33 34  2  0
M  END
