
     RDKit          3D

 34 37  0  0  0  0  0  0  0  0999 V2000
    7.3470    1.7630   -2.0460 C   0  0  0  0  0  0  0  0  0  0  0  0
    5.9410    1.3820   -1.8500 C   0  0  0  0  0  0  0  0  0  0  0  0
    5.2690    1.6770   -0.7230 C   0  0  0  0  0  0  0  0  0  0  0  0
    3.8890    1.2590   -0.6250 C   0  0  0  0  0  0  0  0  0  0  0  0
    3.1810    1.5220    0.4520 C   0  0  0  0  0  0  0  0  0  0  0  0
    1.8240    1.1040    0.5340 N   0  0  0  0  0  0  0  0  0  0  0  0
    1.4530   -0.2380    0.1570 C   0  0  0  0  0  0  0  0  0  0  0  0
    2.4170   -1.0720   -0.2700 N   0  0  0  0  0  0  0  0  0  0  0  0
    2.1380   -2.3490   -0.6410 C   0  0  0  0  0  0  0  0  0  0  0  0
    3.1480   -3.1890   -1.0780 O   0  0  0  0  0  0  0  0  0  0  0  0
    4.4670   -2.6840   -1.1260 C   0  0  0  0  0  0  0  0  0  0  0  0
    0.8500   -2.8380   -0.5920 C   0  0  0  0  0  0  0  0  0  0  0  0
    0.6300   -4.1460   -0.9820 O   0  0  0  0  0  0  0  0  0  0  0  0
   -0.6380   -4.7600   -0.9770 C   0  0  0  0  0  0  0  0  0  0  0  0
   -0.1340   -1.9780   -0.1530 C   0  0  0  0  0  0  0  0  0  0  0  0
    0.1570   -0.6700    0.2260 C   0  0  0  0  0  0  0  0  0  0  0  0
   -0.8650    0.2790    0.7000 C   0  0  0  0  0  0  0  0  0  0  0  0
   -2.2100   -0.3580    0.7100 N   0  0  0  0  0  0  0  0  0  0  0  0
   -2.6630   -0.9610    1.9340 C   0  0  0  0  0  0  0  0  0  0  0  0
   -3.0910   -0.0220    3.0100 C   0  0  1  0  0  0  0  0  0  0  0  0
   -4.1370    0.9910    2.9700 C   0  0  0  0  0  0  0  0  0  0  0  0
   -4.4900   -0.3420    3.5610 C   0  0  0  0  0  0  0  0  0  0  0  0
   -2.9720   -0.2560   -0.4460 C   0  0  0  0  0  0  0  0  0  0  0  0
   -2.5060    0.4790   -1.4000 O   0  0  0  0  0  0  0  0  0  0  0  0
   -4.2590   -0.8920   -0.7390 C   0  0  2  0  0  0  0  0  0  0  0  0
   -4.4590   -0.9880   -2.2700 C   0  0  0  0  0  0  0  0  0  0  0  0
   -5.5320   -0.0780   -2.7700 C   0  0  0  0  0  0  0  0  0  0  0  0
   -5.4470    1.3070   -2.2140 C   0  0  0  0  0  0  0  0  0  0  0  0
   -5.5050    1.2640   -0.6990 C   0  0  0  0  0  0  0  0  0  0  0  0
   -5.4650   -0.1750   -0.2420 C   0  0  0  0  0  0  0  0  0  0  0  0
    3.8200    2.2410    1.5420 C   0  0  0  0  0  0  0  0  0  0  0  0
    5.0620    2.6380    1.5020 C   0  0  0  0  0  0  0  0  0  0  0  0
    5.6310    3.3770    2.6850 C   0  0  0  0  0  0  0  0  0  0  0  0
    5.9340    2.4030    0.3660 C   0  0  0  0  0  0  0  0  0  0  0  0
  1  2  1  0
  2  3  2  3
  3  4  1  0
  3 34  1  0
  4  5  2  0
  5  6  1  0
  5 31  1  0
  6  7  1  0
  7  8  2  0
  7 16  1  0
  8  9  1  0
  9 10  1  0
  9 12  2  0
 10 11  1  0
 12 13  1  0
 12 15  1  0
 13 14  1  0
 15 16  2  0
 16 17  1  0
 17 18  1  0
 18 19  1  0
 18 23  1  0
 20 19  1  6
 20 21  1  0
 20 22  1  0
 21 22  1  0
 23 24  2  0
 25 23  1  6
 25 26  1  0
 25 30  1  0
 26 27  1  0
 27 28  1  0
 28 29  1  0
 29 30  1  0
 31 32  2  0
 32 33  1  0
 32 34  1  0
M  END
