
     RDKit          3D

 34 37  0  0  0  0  0  0  0  0999 V2000
   -7.1150   -2.1910    2.3010 C   0  0  0  0  0  0  0  0  0  0  0  0
   -6.7430   -1.3460    1.2560 O   0  0  0  0  0  0  0  0  0  0  0  0
   -7.6280   -0.6090    0.5000 C   0  0  0  0  0  0  0  0  0  0  0  0
   -8.9820   -0.6620    0.7370 C   0  0  0  0  0  0  0  0  0  0  0  0
   -9.8660    0.0620   -0.0030 C   0  0  0  0  0  0  0  0  0  0  0  0
   -9.4160    0.8620   -1.0050 C   0  0  0  0  0  0  0  0  0  0  0  0
   -8.0610    0.9430   -1.2750 C   0  0  0  0  0  0  0  0  0  0  0  0
   -7.1720    0.2270   -0.5450 C   0  0  0  0  0  0  0  0  0  0  0  0
   -5.7790    0.2570   -0.7600 N   0  0  0  0  0  0  0  0  0  0  0  0
   -5.0800    1.0070   -1.7330 C   0  0  0  0  0  0  0  0  0  0  0  0
   -5.7210    1.7420   -2.5120 O   0  0  0  0  0  0  0  0  0  0  0  0
   -3.6010    0.9370   -1.8440 C   0  0  0  0  0  0  0  0  0  0  0  0
   -2.9500    1.9050   -2.6030 C   0  0  0  0  0  0  0  0  0  0  0  0
   -1.5960    1.9050   -2.7600 C   0  0  0  0  0  0  0  0  0  0  0  0
   -0.8790    2.9360   -3.5710 C   0  0  0  0  0  0  0  0  0  0  0  0
   -0.8610    0.8980   -2.1340 C   0  0  0  0  0  0  0  0  0  0  0  0
   -1.4290   -0.0850   -1.3700 C   0  0  0  0  0  0  0  0  0  0  0  0
   -0.7790   -1.1040   -0.5960 C   0  0  0  0  0  0  0  0  0  0  0  0
    0.3890   -1.1640   -0.0800 C   0  0  0  0  0  0  0  0  0  0  0  0
    1.4830   -0.2870   -0.0450 C   0  0  0  0  0  0  0  0  0  0  0  0
    1.5620    0.8780   -0.5220 O   0  0  0  0  0  0  0  0  0  0  0  0
    2.7570   -0.7000    0.6220 C   0  0  0  0  0  0  0  0  0  0  0  0
    2.9290   -1.9230    1.2080 C   0  0  0  0  0  0  0  0  0  0  0  0
    4.1200   -2.2920    1.8270 C   0  0  0  0  0  0  0  0  0  0  0  0
    5.1180   -1.4110    1.8390 N   0  0  0  0  0  0  0  0  0  0  0  0
    5.0120   -0.1870    1.2770 C   0  0  0  0  0  0  0  0  0  0  0  0
    6.1390    0.6880    1.3410 N   0  0  0  0  0  0  0  0  0  0  0  0
    7.3390    0.2540    1.9910 C   0  0  1  0  0  0  0  0  0  0  0  0
    8.0970   -0.9290    1.5460 C   0  0  0  0  0  0  0  0  0  0  0  0
    8.6150    0.4460    1.2190 C   0  0  1  0  0  0  0  0  0  0  0  0
    8.5290    0.9000   -0.2190 C   0  0  0  0  0  0  0  0  0  0  0  0
    9.7680    0.9900    2.0360 C   0  0  0  0  0  0  0  0  0  0  0  0
    3.8390    0.1670    0.6720 C   0  0  0  0  0  0  0  0  0  0  0  0
   -2.8520   -0.0270   -1.2490 C   0  0  0  0  0  0  0  0  0  0  0  0
  1  2  1  0
  2  3  1  0
  3  4  2  0
  3  8  1  0
  4  5  1  0
  5  6  2  0
  6  7  1  0
  7  8  2  0
  8  9  1  0
  9 10  1  0
 10 11  2  0
 10 12  1  0
 12 13  2  0
 12 34  1  0
 13 14  1  0
 14 15  1  0
 14 16  2  0
 16 17  1  0
 17 18  1  0
 17 34  2  0
 18 19  2  3
 19 20  1  0
 20 21  2  0
 20 22  1  0
 22 23  2  0
 22 33  1  0
 23 24  1  0
 24 25  2  0
 25 26  1  0
 26 27  1  0
 26 33  2  0
 28 27  1  6
 28 29  1  0
 28 30  1  0
 29 30  1  0
 30 31  1  6
 30 32  1  0
M  END
