
     RDKit          3D

 34 39  0  0  0  0  0  0  0  0999 V2000
   -5.2800    2.3170    2.4950 C   0  0  0  0  0  0  0  0  0  0  0  0
   -4.6380    1.2190    2.1900 C   0  0  0  0  0  0  0  0  0  0  0  0
   -3.9760    0.5680    3.2240 C   0  0  0  0  0  0  0  0  0  0  0  0
   -3.2920   -0.5760    2.9580 C   0  0  0  0  0  0  0  0  0  0  0  0
   -3.2570   -1.0690    1.7180 N   0  0  0  0  0  0  0  0  0  0  0  0
   -3.8720   -0.4950    0.6750 C   0  0  0  0  0  0  0  0  0  0  0  0
   -3.8000   -1.0510   -0.6500 C   0  0  0  0  0  0  0  0  0  0  0  0
   -4.9120   -1.5090   -1.3440 C   0  0  0  0  0  0  0  0  0  0  0  0
   -4.7870   -2.0700   -2.6000 C   0  0  0  0  0  0  0  0  0  0  0  0
   -3.5620   -2.1950   -3.2080 C   0  0  0  0  0  0  0  0  0  0  0  0
   -2.4370   -1.7390   -2.5240 C   0  0  0  0  0  0  0  0  0  0  0  0
   -1.1840   -1.8250   -3.0840 C   0  0  0  0  0  0  0  0  0  0  0  0
   -0.0410   -1.3710   -2.4370 C   0  0  0  0  0  0  0  0  0  0  0  0
    1.2190   -1.3260   -2.7160 O   0  0  0  0  0  0  0  0  0  0  0  0
    1.9410   -0.7700   -1.7250 C   0  0  0  0  0  0  0  0  0  0  0  0
    3.3780   -0.6330   -1.8630 C   0  0  0  0  0  0  0  0  0  0  0  0
    3.9960   -1.0730   -3.0100 N   0  0  0  0  0  0  0  0  0  0  0  0
    5.3140   -0.9620   -3.1960 C   0  0  0  0  0  0  0  0  0  0  0  0
    6.1070   -0.3930   -2.2250 C   0  0  0  0  0  0  0  0  0  0  0  0
    5.4930    0.0260   -1.1230 N   0  0  0  0  0  0  0  0  0  0  0  0
    4.1610   -0.0660   -0.8920 C   0  0  0  0  0  0  0  0  0  0  0  0
    3.6020    0.3860    0.3120 N   0  0  0  0  0  0  0  0  0  0  0  0
    4.3570    0.9980    1.3450 C   0  0  0  0  0  0  0  0  0  0  0  0
    5.6910    1.2750    1.3520 C   0  0  0  0  0  0  0  0  0  0  0  0
    6.3500    1.8780    2.4300 C   0  0  0  0  0  0  0  0  0  0  0  0
    5.6260    2.2070    3.5300 C   0  0  0  0  0  0  0  0  0  0  0  0
    4.2740    1.9360    3.5470 C   0  0  0  0  0  0  0  0  0  0  0  0
    3.6910    1.3610    2.4970 N   0  0  0  0  0  0  0  0  0  0  0  0
    1.0690   -0.4560   -0.7800 N   0  0  0  0  0  0  0  0  0  0  0  0
   -0.1580   -0.8120   -1.1850 C   0  0  0  0  0  0  0  0  0  0  0  0
   -1.4250   -0.7250   -0.6180 C   0  0  0  0  0  0  0  0  0  0  0  0
   -2.5550   -1.1800   -1.2730 C   0  0  0  0  0  0  0  0  0  0  0  0
   -4.5780    0.6770    0.9170 C   0  0  0  0  0  0  0  0  0  0  0  0
   -5.1690    1.2640   -0.0840 C   0  0  0  0  0  0  0  0  0  0  0  0
  1  2  2  0
  2  3  1  0
  2 33  1  0
  3  4  2  0
  4  5  1  0
  5  6  2  0
  6  7  1  0
  6 33  1  0
  7  8  2  0
  7 32  1  0
  8  9  1  0
  9 10  2  0
 10 11  1  0
 11 12  2  0
 11 32  1  0
 12 13  1  0
 13 14  1  0
 13 30  2  0
 14 15  1  0
 15 16  1  0
 15 29  2  0
 16 17  2  0
 16 21  1  0
 17 18  1  0
 18 19  2  0
 19 20  1  0
 20 21  2  0
 21 22  1  0
 22 23  1  0
 23 24  2  0
 23 28  1  0
 24 25  1  0
 25 26  2  0
 26 27  1  0
 27 28  2  0
 29 30  1  0
 30 31  1  0
 31 32  2  0
 33 34  2  0
M  END
