
     RDKit          3D

 34 39  0  0  0  0  0  0  0  0999 V2000
    2.5190    1.7280   -2.0090 C   0  0  0  0  0  0  0  0  0  0  0  0
    3.6600    1.0240   -1.3430 C   0  0  0  0  0  0  0  0  0  0  0  0
    4.7910    0.9880   -2.0070 C   0  0  0  0  0  0  0  0  0  0  0  0
    6.0740    0.3970   -1.6630 C   0  0  0  0  0  0  0  0  0  0  0  0
    6.4470    0.4290   -0.2390 C   0  0  0  0  0  0  0  0  0  0  0  0
    7.7490    0.5530    0.1310 N   0  0  0  0  0  0  0  0  0  0  0  0
    7.7540    0.5420    1.4720 C   0  0  0  0  0  0  0  0  0  0  0  0
    6.4820    0.4130    1.9880 C   0  0  0  0  0  0  0  0  0  0  0  0
    5.6530    0.3410    0.8820 C   0  0  0  0  0  0  0  0  0  0  0  0
    4.1880    0.2000    0.9090 C   0  0  0  0  0  0  0  0  0  0  0  0
    3.3070    0.4760   -0.0090 C   0  0  0  0  0  0  0  0  0  0  0  0
    1.8890    0.2850    0.1570 C   0  0  0  0  0  0  0  0  0  0  0  0
    1.3610   -0.2260    1.3550 N   0  0  0  0  0  0  0  0  0  0  0  0
   -0.0580   -0.3870    1.4600 C   0  0  0  0  0  0  0  0  0  0  0  0
   -0.8900   -0.0410    0.3960 C   0  0  0  0  0  0  0  0  0  0  0  0
   -2.2740   -0.1740    0.4400 C   0  0  0  0  0  0  0  0  0  0  0  0
   -3.0650    0.2750   -0.6930 C   0  0  0  0  0  0  0  0  0  0  0  0
   -2.5210    1.0590   -1.6400 C   0  0  0  0  0  0  0  0  0  0  0  0
   -3.2730    1.5290   -2.7970 C   0  0  0  0  0  0  0  0  0  0  0  0
   -4.5010    1.2250   -2.9920 N   0  0  0  0  0  0  0  0  0  0  0  0
   -5.1780    0.4020   -2.0640 C   0  0  0  0  0  0  0  0  0  0  0  0
   -6.4390    0.1700   -2.3990 C   0  0  0  0  0  0  0  0  0  0  0  0
   -7.4110   -0.6290   -1.6750 C   0  0  0  0  0  0  0  0  0  0  0  0
   -7.2330   -1.3070   -0.5360 C   0  0  0  0  0  0  0  0  0  0  0  0
   -8.1890   -1.9980    0.0280 O   0  0  0  0  0  0  0  0  0  0  0  0
   -7.7380   -2.5550    1.1220 C   0  0  0  0  0  0  0  0  0  0  0  0
   -6.4520   -2.2050    1.2590 N   0  0  0  0  0  0  0  0  0  0  0  0
   -6.0850   -1.4050    0.2190 C   0  0  0  0  0  0  0  0  0  0  0  0
   -4.9180   -0.8940    0.0710 N   0  0  0  0  0  0  0  0  0  0  0  0
   -4.4260   -0.0640   -0.9120 N   0  0  0  0  0  0  0  0  0  0  0  0
   -2.7670   -0.6750    1.6170 C   0  0  0  0  0  0  0  0  0  0  0  0
   -1.9450   -1.0290    2.6970 C   0  0  0  0  0  0  0  0  0  0  0  0
   -0.5890   -0.8880    2.6250 C   0  0  0  0  0  0  0  0  0  0  0  0
    0.3050   -1.2650    3.7790 C   0  0  0  0  0  0  0  0  0  0  0  0
  1  2  1  0
  2  3  2  0
  2 11  1  0
  3  4  1  0
  4  5  1  0
  5  6  1  0
  5  9  2  0
  6  7  1  0
  7  8  2  0
  8  9  1  0
  9 10  1  0
 10 11  2  0
 11 12  1  0
 12 13  1  0
 13 14  1  0
 14 15  2  0
 14 33  1  0
 15 16  1  0
 16 17  1  0
 16 31  2  0
 17 18  2  0
 17 30  1  0
 18 19  1  0
 19 20  2  0
 20 21  1  0
 21 22  2  0
 21 30  1  0
 22 23  1  0
 23 24  2  0
 24 25  1  0
 24 28  1  0
 25 26  1  0
 26 27  2  0
 27 28  1  0
 28 29  2  0
 29 30  1  0
 31 32  1  0
 32 33  2  0
 33 34  1  0
M  END
