
     RDKit          3D

 34 39  0  0  0  0  0  0  0  0999 V2000
   -1.9540    4.1690    0.1840 C   0  0  0  0  0  0  0  0  0  0  0  0
   -2.5960    2.8440    0.2350 C   0  0  0  0  0  0  0  0  0  0  0  0
   -1.8790    1.6800    0.4110 C   0  0  0  0  0  0  0  0  0  0  0  0
   -2.5300    0.4670    0.4510 C   0  0  0  0  0  0  0  0  0  0  0  0
   -3.9010    0.3840    0.3170 C   0  0  0  0  0  0  0  0  0  0  0  0
   -4.6030    1.5530    0.1430 C   0  0  0  0  0  0  0  0  0  0  0  0
   -3.9800    2.7860    0.0980 C   0  0  0  0  0  0  0  0  0  0  0  0
   -4.7480    4.0570   -0.0930 C   0  0  0  0  0  0  0  0  0  0  0  0
   -4.8230   -0.7940    0.3260 C   0  0  1  0  0  0  0  0  0  0  0  0
   -5.7250   -0.6910   -0.8860 C   0  0  0  0  0  0  0  0  0  0  0  0
   -6.0770   -2.1440   -1.1390 C   0  0  0  0  0  0  0  0  0  0  0  0
   -5.2350   -2.9520   -0.1740 C   0  0  0  0  0  0  0  0  0  0  0  0
   -4.1450   -2.0340    0.1040 N   0  0  0  0  0  0  0  0  0  0  0  0
   -3.3420   -2.4810    1.2250 C   0  0  0  0  0  0  0  0  0  0  0  0
   -1.9600   -1.9900    0.9830 C   0  0  0  0  0  0  0  0  0  0  0  0
   -0.9730   -2.9320    1.1170 C   0  0  0  0  0  0  0  0  0  0  0  0
    0.3430   -2.5220    0.9000 C   0  0  0  0  0  0  0  0  0  0  0  0
    0.6210   -1.2280    0.5680 C   0  0  0  0  0  0  0  0  0  0  0  0
    1.9290   -0.7680    0.3400 N   0  0  0  0  0  0  0  0  0  0  0  0
    3.1300   -1.5100    0.4070 C   0  0  0  0  0  0  0  0  0  0  0  0
    3.0910   -2.7160    0.6960 O   0  0  0  0  0  0  0  0  0  0  0  0
    4.4580   -0.9190    0.1470 C   0  0  0  0  0  0  0  0  0  0  0  0
    5.5560   -1.7500    0.0580 C   0  0  0  0  0  0  0  0  0  0  0  0
    6.8070   -1.2530   -0.1780 C   0  0  0  0  0  0  0  0  0  0  0  0
    7.0360    0.1100   -0.3380 C   0  0  0  0  0  0  0  0  0  0  0  0
    8.3300    0.6290   -0.5820 N   0  0  0  0  0  0  0  0  0  0  0  0
    9.3170    0.7150    0.2890 C   0  0  0  0  0  0  0  0  0  0  0  0
   10.3840    1.2590   -0.3130 N   0  0  0  0  0  0  0  0  0  0  0  0
   10.0530    1.5140   -1.5810 C   0  0  0  0  0  0  0  0  0  0  0  0
    8.7640    1.1100   -1.7210 N   0  0  0  0  0  0  0  0  0  0  0  0
    5.9180    0.9090   -0.2430 C   0  0  0  0  0  0  0  0  0  0  0  0
    4.6460    0.4190   -0.0040 C   0  0  0  0  0  0  0  0  0  0  0  0
   -0.3880   -0.3110    0.4410 N   0  0  0  0  0  0  0  0  0  0  0  0
   -1.6390   -0.6930    0.6450 C   0  0  0  0  0  0  0  0  0  0  0  0
  1  2  1  0
  2  3  2  0
  2  7  1  0
  3  4  1  0
  4  5  2  0
  4 34  1  0
  5  6  1  0
  5  9  1  0
  6  7  2  0
  7  8  1  0
  9 10  1  6
  9 13  1  0
 10 11  1  0
 11 12  1  0
 12 13  1  0
 13 14  1  0
 14 15  1  0
 15 16  2  0
 15 34  1  0
 16 17  1  0
 17 18  2  0
 18 19  1  0
 18 33  1  0
 19 20  1  0
 20 21  2  0
 20 22  1  0
 22 23  2  0
 22 32  1  0
 23 24  1  0
 24 25  2  0
 25 26  1  0
 25 31  1  0
 26 27  1  0
 26 30  1  0
 27 28  2  0
 28 29  1  0
 29 30  2  0
 31 32  2  0
 33 34  2  0
M  END
