
     RDKit          3D

 30 33  0  0  0  0  0  0  0  0999 V2000
    7.6580    0.6330   -1.4380 C   0  0  0  0  0  0  0  0  0  0  0  0
    7.0460   -0.1020   -0.2550 N   0  0  0  0  0  0  0  0  0  0  0  0
    8.0310   -0.5720    0.6580 C   0  0  0  0  0  0  0  0  0  0  0  0
    5.6500   -0.2160   -0.2350 C   0  0  0  0  0  0  0  0  0  0  0  0
    5.0580    0.3200   -1.2720 O   0  0  0  0  0  0  0  0  0  0  0  0
    4.8310   -0.8340    0.7680 C   0  0  0  0  0  0  0  0  0  0  0  0
    5.2530   -1.4130    1.8680 C   0  0  0  0  0  0  0  0  0  0  0  0
    4.3760   -1.9760    2.7620 O   0  0  0  0  0  0  0  0  0  0  0  0
    2.9970   -2.0110    2.6630 C   0  0  0  0  0  0  0  0  0  0  0  0
    2.5090   -1.3660    1.4360 C   0  0  0  0  0  0  0  0  0  0  0  0
    3.3560   -0.8070    0.5320 C   0  0  0  0  0  0  0  0  0  0  0  0
    2.5830   -0.3140   -0.4500 N   0  0  0  0  0  0  0  0  0  0  0  0
    1.2670   -0.5270   -0.2260 C   0  0  0  0  0  0  0  0  0  0  0  0
    0.1020   -0.2390   -0.8830 C   0  0  0  0  0  0  0  0  0  0  0  0
   -1.1430   -0.6070   -0.3650 C   0  0  0  0  0  0  0  0  0  0  0  0
   -2.3470   -0.2430   -1.1520 C   0  0  0  0  0  0  0  0  0  0  0  0
   -3.4180    0.3060   -0.3830 N   0  0  0  0  0  0  0  0  0  0  0  0
   -4.0000   -0.5380    0.5600 C   0  0  0  0  0  0  0  0  0  0  0  0
   -5.4710   -0.7630    0.4740 C   0  0  0  0  0  0  0  0  0  0  0  0
   -6.1930   -0.1110   -0.6530 C   0  0  0  0  0  0  0  0  0  0  0  0
   -5.3220    0.3690   -1.7600 C   0  0  0  0  0  0  0  0  0  0  0  0
   -4.2180    1.1940   -1.1390 C   0  0  2  0  0  0  0  0  0  0  0  0
   -3.4360    1.7800   -2.2150 C   0  0  0  0  0  0  0  0  0  0  0  0
   -2.8120    2.2670   -3.1050 N   0  0  0  0  0  0  0  0  0  0  0  0
   -4.7560    2.3490   -0.3260 C   0  0  0  0  0  0  0  0  0  0  0  0
   -5.5840    3.2310   -1.2280 C   0  0  0  0  0  0  0  0  0  0  0  0
   -6.2360    4.6300   -0.3300 Cl  0  0  0  0  0  0  0  0  0  0  0  0
   -1.1530   -1.2470    0.7860 N   0  0  0  0  0  0  0  0  0  0  0  0
   -0.0340   -1.5600    1.4820 C   0  0  0  0  0  0  0  0  0  0  0  0
    1.2070   -1.1890    0.9590 C   0  0  0  0  0  0  0  0  0  0  0  0
  1  2  1  0
  2  3  1  0
  2  4  1  0
  4  5  2  0
  4  6  1  0
  6  7  2  0
  6 11  1  0
  7  8  1  0
  8  9  1  0
  9 10  1  0
 10 11  2  0
 10 30  1  0
 11 12  1  0
 12 13  1  0
 13 14  2  0
 13 30  1  0
 14 15  1  0
 15 16  1  0
 15 28  2  0
 16 17  1  0
 17 18  1  0
 17 22  1  0
 18 19  1  0
 19 20  1  0
 20 21  1  0
 21 22  1  0
 22 23  1  6
 22 25  1  0
 23 24  3  0
 25 26  1  0
 26 27  1  0
 28 29  1  0
 29 30  2  0
M  END
