
     RDKit          3D

 30 33  0  0  0  0  0  0  0  0999 V2000
   -4.9480    1.2220    3.0430 C   0  0  0  0  0  0  0  0  0  0  0  0
   -5.5240   -0.0520    2.4680 C   0  0  0  0  0  0  0  0  0  0  0  0
   -5.3830   -0.0330    1.0050 C   0  0  0  0  0  0  0  0  0  0  0  0
   -6.3600    0.1920    0.1320 N   0  0  0  0  0  0  0  0  0  0  0  0
   -5.8970    0.1340   -1.0480 O   0  0  0  0  0  0  0  0  0  0  0  0
   -4.5920   -0.1290   -1.0480 C   0  0  0  0  0  0  0  0  0  0  0  0
   -3.8430   -0.2360   -2.3080 C   0  0  1  0  0  0  0  0  0  0  0  0
   -4.8400   -0.5190   -3.4390 C   0  0  0  0  0  0  0  0  0  0  0  0
   -3.3730    1.0800   -2.6280 O   0  0  0  0  0  0  0  0  0  0  0  0
   -4.2100   -0.2470    0.2520 C   0  0  0  0  0  0  0  0  0  0  0  0
   -2.9410   -0.5890    0.8480 C   0  0  0  0  0  0  0  0  0  0  0  0
   -1.7800   -0.7600    0.0980 N   0  0  0  0  0  0  0  0  0  0  0  0
   -1.1970    0.3920   -0.4680 C   0  0  0  0  0  0  0  0  0  0  0  0
    0.1360    0.7970    0.0640 C   0  0  0  0  0  0  0  0  0  0  0  0
    0.8890   -0.2420    0.7110 N   0  0  0  0  0  0  0  0  0  0  0  0
    2.3160   -0.2820    0.5570 C   0  0  0  0  0  0  0  0  0  0  0  0
    2.9940   -1.1380    1.3370 N   0  0  0  0  0  0  0  0  0  0  0  0
    4.3410   -1.2530    1.2750 C   0  0  0  0  0  0  0  0  0  0  0  0
    4.9960   -0.4540    0.3760 C   0  0  0  0  0  0  0  0  0  0  0  0
    6.3680   -0.5410    0.2810 C   0  0  0  0  0  0  0  0  0  0  0  0
    7.1580   -1.4740    1.1410 C   0  0  0  0  0  0  0  0  0  0  0  0
    6.9890    0.2800   -0.6400 C   0  0  0  0  0  0  0  0  0  0  0  0
    8.7320    0.2000   -0.7890 Cl  0  0  0  0  0  0  0  0  0  0  0  0
    6.2820    1.1560   -1.4400 C   0  0  0  0  0  0  0  0  0  0  0  0
    4.9050    1.2430   -1.3440 C   0  0  0  0  0  0  0  0  0  0  0  0
    4.1300    2.1890   -2.2080 C   0  0  0  0  0  0  0  0  0  0  0  0
    4.2870    0.4220   -0.4230 C   0  0  0  0  0  0  0  0  0  0  0  0
    2.9400    0.5120   -0.3360 N   0  0  0  0  0  0  0  0  0  0  0  0
    0.1750   -1.2200    1.4990 C   0  0  0  0  0  0  0  0  0  0  0  0
   -0.9100   -1.7690    0.5950 C   0  0  0  0  0  0  0  0  0  0  0  0
  1  2  1  0
  2  3  1  0
  3  4  2  0
  3 10  1  0
  4  5  1  0
  5  6  1  0
  6  7  1  0
  6 10  2  0
  7  8  1  6
  7  9  1  0
 10 11  1  0
 11 12  1  0
 12 13  1  0
 12 30  1  0
 13 14  1  0
 14 15  1  0
 15 16  1  0
 15 29  1  0
 16 17  2  0
 16 28  1  0
 17 18  1  0
 18 19  2  0
 19 20  1  0
 19 27  1  0
 20 21  1  0
 20 22  2  0
 22 23  1  0
 22 24  1  0
 24 25  2  0
 25 26  1  0
 25 27  1  0
 27 28  2  0
 29 30  1  0
M  END
