
     RDKit          3D

 31 34  0  0  0  0  0  0  0  0999 V2000
    7.8310   -0.8190   -0.7100 C   0  0  0  0  0  0  0  0  0  0  0  0
    7.1550   -1.3090    0.5200 C   0  0  0  0  0  0  0  0  0  0  0  0
    5.9570   -0.9070    0.8790 C   0  0  0  0  0  0  0  0  0  0  0  0
    5.2070    0.0730    0.0610 C   0  0  0  0  0  0  0  0  0  0  0  0
    3.9280   -0.4130   -0.4320 C   0  0  0  0  0  0  0  0  0  0  0  0
    2.7060   -0.1120   -0.1570 C   0  0  0  0  0  0  0  0  0  0  0  0
    2.2690    0.8750    0.8170 C   0  0  0  0  0  0  0  0  0  0  0  0
    3.0910    1.3480    1.8190 C   0  0  0  0  0  0  0  0  0  0  0  0
    2.6700    2.3970    2.6320 C   0  0  0  0  0  0  0  0  0  0  0  0
    1.4320    2.9570    2.4340 C   0  0  0  0  0  0  0  0  0  0  0  0
    0.5970    2.4960    1.4430 C   0  0  0  0  0  0  0  0  0  0  0  0
    0.9990    1.4500    0.6210 C   0  0  0  0  0  0  0  0  0  0  0  0
    0.0870    0.9140   -0.4090 C   0  0  0  0  0  0  0  0  0  0  0  0
   -0.6810   -0.3190    0.0250 C   0  0  1  0  0  0  0  0  0  0  0  0
   -1.5460   -0.0450    1.1640 N   0  0  0  0  0  0  0  0  0  0  0  0
   -2.9100    0.0630    0.8750 C   0  0  0  0  0  0  0  0  0  0  0  0
   -3.4770    1.2270    0.5410 C   0  0  0  0  0  0  0  0  0  0  0  0
   -2.9470    2.5470    0.3950 N   0  0  0  0  0  0  0  0  0  0  0  0
   -3.8920    3.3340    0.0530 C   0  0  0  0  0  0  0  0  0  0  0  0
   -5.1360    2.5950   -0.0570 C   0  0  0  0  0  0  0  0  0  0  0  0
   -4.8910    1.3170    0.2380 C   0  0  0  0  0  0  0  0  0  0  0  0
   -5.7880    0.1170    0.2850 C   0  0  0  0  0  0  0  0  0  0  0  0
   -4.9830   -1.1590    0.1660 C   0  0  0  0  0  0  0  0  0  0  0  0
   -3.7630   -1.0660    0.9470 N   0  0  0  0  0  0  0  0  0  0  0  0
   -1.3810   -0.9590   -1.1030 C   0  0  0  0  0  0  0  0  0  0  0  0
   -1.6830   -0.2940   -2.2760 C   0  0  0  0  0  0  0  0  0  0  0  0
   -2.3760   -0.8930   -3.3160 C   0  0  0  0  0  0  0  0  0  0  0  0
   -2.7970   -2.2020   -3.2140 C   0  0  0  0  0  0  0  0  0  0  0  0
   -2.5090   -2.8790   -2.0650 C   0  0  0  0  0  0  0  0  0  0  0  0
   -1.8230   -2.2760   -1.0450 C   0  0  0  0  0  0  0  0  0  0  0  0
   -1.5370   -3.0720    0.0930 N   0  0  0  0  0  0  0  0  0  0  0  0
  1  2  1  0
  2  3  2  3
  3  4  1  0
  4  5  1  0
  5  6  2  3
  6  7  1  0
  7  8  2  0
  7 12  1  0
  8  9  1  0
  9 10  2  0
 10 11  1  0
 11 12  2  0
 12 13  1  0
 14 13  1  6
 14 15  1  0
 14 25  1  0
 15 16  1  0
 16 17  2  0
 16 24  1  0
 17 18  1  0
 17 21  1  0
 18 19  2  0
 19 20  1  0
 20 21  2  0
 21 22  1  0
 22 23  1  0
 23 24  1  0
 25 26  2  0
 25 30  1  0
 26 27  1  0
 27 28  2  0
 28 29  1  0
 29 30  2  0
 30 31  1  0
M  CHG  1  15   1
M  END
