
     RDKit          3D

 30 33  0  0  0  0  0  0  0  0999 V2000
   -7.1750    2.5610    2.0210 C   0  0  0  0  0  0  0  0  0  0  0  0
   -6.2820    1.9060    1.3200 C   0  0  0  0  0  0  0  0  0  0  0  0
   -4.8400    2.1720    1.6110 C   0  0  0  0  0  0  0  0  0  0  0  0
   -4.0580    1.7440    0.3620 C   0  0  0  0  0  0  0  0  0  0  0  0
   -4.3040    0.2640    0.2030 C   0  0  2  0  0  0  0  0  0  0  0  0
   -3.2820   -0.4260   -0.5720 C   0  0  0  0  0  0  0  0  0  0  0  0
   -3.5440   -1.0160   -1.5990 O   0  0  0  0  0  0  0  0  0  0  0  0
   -1.8640   -0.4280   -0.1190 C   0  0  0  0  0  0  0  0  0  0  0  0
   -0.9770   -1.1970   -1.0590 C   0  0  0  0  0  0  0  0  0  0  0  0
    0.4010   -1.1960   -0.6180 N   0  0  0  0  0  0  0  0  0  0  0  0
    0.8200   -1.7350    0.6220 C   0  0  0  0  0  0  0  0  0  0  0  0
   -0.0100   -2.2500    1.4080 O   0  0  0  0  0  0  0  0  0  0  0  0
    2.2280   -1.6980    1.0020 C   0  0  0  0  0  0  0  0  0  0  0  0
    2.6310   -2.2290    2.2230 C   0  0  0  0  0  0  0  0  0  0  0  0
    3.9550   -2.2040    2.6020 C   0  0  0  0  0  0  0  0  0  0  0  0
    4.5130   -2.8580    4.1260 Cl  0  0  0  0  0  0  0  0  0  0  0  0
    4.8270   -1.6530    1.7550 N   0  0  0  0  0  0  0  0  0  0  0  0
    4.4640   -1.1350    0.5730 C   0  0  0  0  0  0  0  0  0  0  0  0
    5.4510   -0.5620   -0.2820 N   0  0  0  0  0  0  0  0  0  0  0  0
    6.8280   -0.5440    0.1340 C   0  0  0  0  0  0  0  0  0  0  0  0
    7.7260   -0.0380   -0.9770 C   0  0  0  0  0  0  0  0  0  0  0  0
    7.2650    1.3150   -1.4760 C   0  0  0  0  0  0  0  0  0  0  0  0
    5.7710    1.3850   -1.6610 C   0  0  0  0  0  0  0  0  0  0  0  0
    5.1210    0.0090   -1.5650 C   0  0  0  0  0  0  0  0  0  0  0  0
    3.1670   -1.1640    0.2120 N   0  0  0  0  0  0  0  0  0  0  0  0
   -5.6790    0.0910   -0.3010 C   0  0  0  0  0  0  0  0  0  0  0  0
   -6.2900   -0.6730   -1.1930 C   0  0  0  0  0  0  0  0  0  0  0  0
   -7.7390   -0.3440   -1.2260 C   0  0  0  0  0  0  0  0  0  0  0  0
   -7.8340    0.6970   -0.2350 N   0  0  0  0  0  0  0  0  0  0  0  0
   -6.6950    0.9550    0.2930 C   0  0  0  0  0  0  0  0  0  0  0  0
  1  2  2  0
  2  3  1  0
  2 30  1  0
  3  4  1  0
  4  5  1  0
  5  6  1  6
  5 26  1  0
  6  7  2  0
  6  8  1  0
  8  9  1  0
  9 10  1  0
 10 11  1  0
 11 12  2  0
 11 13  1  0
 13 14  2  0
 13 25  1  0
 14 15  1  0
 15 16  1  0
 15 17  2  0
 17 18  1  0
 18 19  1  0
 18 25  2  0
 19 20  1  0
 19 24  1  0
 20 21  1  0
 21 22  1  0
 22 23  1  0
 23 24  1  0
 26 27  2  0
 26 30  1  0
 27 28  1  0
 28 29  1  0
 29 30  2  0
M  END
