
     RDKit          3D

 20 21  0  0  0  0  0  0  0  0999 V2000
   -0.4210    3.0370   -0.8200 N   0  0  0  0  0  0  0  0  0  0  0  0
   -1.1800    2.1800    0.0190 C   0  0  0  0  0  0  0  0  0  0  0  0
   -1.7980    2.7260    0.9950 O   0  0  0  0  0  0  0  0  0  0  0  0
   -1.2700    0.7710   -0.1960 C   0  0  2  0  0  0  0  0  0  0  0  0
   -2.1200   -0.0410    0.7830 C   0  0  0  0  0  0  0  0  0  0  0  0
   -2.4820   -1.3330    0.0970 C   0  0  2  0  0  0  0  0  0  0  0  0
   -2.0860   -2.4620    0.9560 N   0  0  0  0  0  0  0  0  0  0  0  0
   -1.9050   -1.5770   -1.1860 N   0  0  0  0  0  0  0  0  0  0  0  0
   -0.6050   -1.0980   -1.6040 C   0  0  0  0  0  0  0  0  0  0  0  0
    0.0370   -1.4490   -2.5730 O   0  0  0  0  0  0  0  0  0  0  0  0
   -0.1220   -0.0460   -0.6310 C   0  0  0  0  0  0  0  0  0  0  0  0
    1.1210   -0.0620   -0.2230 C   0  0  0  0  0  0  0  0  0  0  0  0
    1.5870    0.8140    0.8380 C   0  0  0  0  0  0  0  0  0  0  0  0
    0.8480    1.5990    1.4580 O   0  0  0  0  0  0  0  0  0  0  0  0
    2.9560    0.8640    1.2990 N   0  0  0  0  0  0  0  0  0  0  0  0
    3.9240    0.0220    0.7050 C   0  0  0  0  0  0  0  0  0  0  0  0
    5.1200    0.0500    1.0910 O   0  0  0  0  0  0  0  0  0  0  0  0
    3.5300   -0.8520   -0.3290 N   0  0  0  0  0  0  0  0  0  0  0  0
    2.1740   -0.9160   -0.8010 C   0  0  0  0  0  0  0  0  0  0  0  0
    1.9410   -1.7260   -1.7140 O   0  0  0  0  0  0  0  0  0  0  0  0
  1  2  1  0
  2  3  2  0
  4  2  1  1
  4  5  1  0
  4 11  1  0
  5  6  1  0
  6  7  1  1
  6  8  1  0
  8  9  1  0
  9 10  2  0
  9 11  1  0
 11 12  2  3
 12 13  1  0
 12 19  1  0
 13 14  2  0
 13 15  1  0
 15 16  1  0
 16 17  2  0
 16 18  1  0
 18 19  1  0
 19 20  2  0
M  END
