
     RDKit          3D

 20 21  0  0  0  0  0  0  0  0999 V2000
   -3.9100    1.5840    0.7720 N   0  0  0  0  0  0  0  0  0  0  0  0
   -3.8190    0.1390    0.6700 C   0  0  2  0  0  0  0  0  0  0  0  0
   -2.6700   -0.4210    1.4460 C   0  0  0  0  0  0  0  0  0  0  0  0
   -1.4780   -0.7760    0.6010 C   0  0  2  0  0  0  0  0  0  0  0  0
   -0.7840    0.3840    0.1430 N   0  0  0  0  0  0  0  0  0  0  0  0
    0.5710    0.5980    0.5370 C   0  0  0  0  0  0  0  0  0  0  0  0
    1.0830   -0.2740    1.2840 O   0  0  0  0  0  0  0  0  0  0  0  0
    1.3580    1.7570    0.1160 C   0  0  0  0  0  0  0  0  0  0  0  0
    2.7600    1.6610    0.6450 C   0  0  0  0  0  0  0  0  0  0  0  0
    3.4850    0.4900    0.1650 N   0  0  0  0  0  0  0  0  0  0  0  0
    3.5950   -0.7080    0.6800 N   0  0  0  0  0  0  0  0  0  0  0  0
    4.3640   -1.4730   -0.0840 C   0  0  0  0  0  0  0  0  0  0  0  0
    4.7520   -0.7180   -1.1230 N   0  0  0  0  0  0  0  0  0  0  0  0
    4.2090    0.4960   -0.9700 C   0  0  0  0  0  0  0  0  0  0  0  0
    4.3520    1.4780   -1.7560 O   0  0  0  0  0  0  0  0  0  0  0  0
   -1.9040   -1.6880   -0.5270 C   0  0  2  0  0  0  0  0  0  0  0  0
   -0.8260   -2.1590   -1.2490 O   0  0  0  0  0  0  0  0  0  0  0  0
   -2.9050   -0.9810   -1.3300 C   0  0  0  0  0  0  0  0  0  0  0  0
   -2.9270   -1.0370   -2.5780 O   0  0  0  0  0  0  0  0  0  0  0  0
   -3.8540   -0.2260   -0.6700 O   0  0  0  0  0  0  0  0  0  0  0  0
  2  1  1  6
  2  3  1  0
  2 20  1  0
  3  4  1  0
  4  5  1  6
  4 16  1  0
  5  6  1  0
  6  7  2  0
  6  8  1  0
  8  9  1  0
  9 10  1  0
 10 11  1  0
 10 14  1  0
 11 12  2  0
 12 13  1  0
 13 14  1  0
 14 15  2  0
 16 17  1  6
 16 18  1  0
 18 19  2  0
 18 20  1  0
M  END
