
     RDKit          3D

 20 21  0  0  0  0  0  0  0  0999 V2000
    1.0850    1.7940    2.8890 O   0  0  0  0  0  0  0  0  0  0  0  0
    1.3670    1.5350    1.6490 C   0  0  0  0  0  0  0  0  0  0  0  0
    2.0410    0.3330    1.4840 N   0  0  0  0  0  0  0  0  0  0  0  0
    2.5790   -0.3730    0.6610 C   0  0  0  0  0  0  0  0  0  0  0  0
    2.6780   -0.0280   -0.7750 C   0  0  0  0  0  0  0  0  0  0  0  0
    1.9500   -1.1210   -1.5390 C   0  0  1  0  0  0  0  0  0  0  0  0
    2.0730   -2.3340   -0.8930 O   0  0  0  0  0  0  0  0  0  0  0  0
    0.4750   -0.7040   -1.5570 C   0  0  0  0  0  0  0  0  0  0  0  0
   -0.0850   -0.9600   -0.2760 N   0  0  0  0  0  0  0  0  0  0  0  0
   -1.3330   -0.5190    0.2820 C   0  0  0  0  0  0  0  0  0  0  0  0
   -1.8460    0.6900    0.2040 C   0  0  0  0  0  0  0  0  0  0  0  0
   -1.2340    1.8570   -0.4760 C   0  0  0  0  0  0  0  0  0  0  0  0
   -2.1000    2.4240   -1.2710 O   0  0  0  0  0  0  0  0  0  0  0  0
    0.0660    2.3750   -0.3660 N   0  0  0  0  0  0  0  0  0  0  0  0
    0.9450    2.5040    0.7090 N   0  0  0  0  0  0  0  0  0  0  0  0
   -3.1780    0.8700    0.8440 C   0  0  0  0  0  0  0  0  0  0  0  0
   -3.7110    2.0360    0.7860 O   0  0  0  0  0  0  0  0  0  0  0  0
   -3.8570   -0.1540    1.4870 O   0  0  0  0  0  0  0  0  0  0  0  0
   -3.5040   -1.5040    1.1290 C   0  0  0  0  0  0  0  0  0  0  0  0
   -2.0570   -1.5630    1.0140 N   0  0  0  0  0  0  0  0  0  0  0  0
  1  2  2  0
  2  3  1  0
  2 15  1  0
  3  4  2  0
  4  5  1  0
  5  6  1  0
  6  7  1  1
  6  8  1  0
  8  9  1  0
  9 10  1  0
 10 11  2  0
 10 20  1  0
 11 12  1  0
 11 16  1  0
 12 13  2  0
 12 14  1  0
 14 15  1  0
 16 17  2  0
 16 18  1  0
 18 19  1  0
 19 20  1  0
M  END
