
     RDKit          3D

 20 21  0  0  0  0  0  0  0  0999 V2000
   -2.5640   -0.9190   -3.9540 N   0  0  0  0  0  0  0  0  0  0  0  0
   -2.0390   -1.1200   -2.5980 C   0  0  0  0  0  0  0  0  0  0  0  0
   -2.4960   -2.1120   -2.0410 O   0  0  0  0  0  0  0  0  0  0  0  0
   -1.1110   -0.1900   -2.1160 C   0  0  0  0  0  0  0  0  0  0  0  0
   -0.7980    0.8690   -3.0600 O   0  0  0  0  0  0  0  0  0  0  0  0
   -0.4380   -0.0620   -0.9510 C   0  0  0  0  0  0  0  0  0  0  0  0
    0.4250    1.0750   -0.9050 C   0  0  0  0  0  0  0  0  0  0  0  0
    1.2470    1.6480   -0.1030 C   0  0  0  0  0  0  0  0  0  0  0  0
    1.6590    1.3350    1.1910 N   0  0  0  0  0  0  0  0  0  0  0  0
    2.5040    2.1410    1.6950 C   0  0  0  0  0  0  0  0  0  0  0  0
    3.0700    2.0390    2.9850 N   0  0  0  0  0  0  0  0  0  0  0  0
    2.8060    3.1740    0.7670 N   0  0  0  0  0  0  0  0  0  0  0  0
    2.0320    2.9030   -0.3890 C   0  0  0  0  0  0  0  0  0  0  0  0
    1.9740    3.5370   -1.4470 O   0  0  0  0  0  0  0  0  0  0  0  0
   -0.6240   -1.0270    0.1010 C   0  0  0  0  0  0  0  0  0  0  0  0
   -0.1270   -1.1640    1.3080 C   0  0  0  0  0  0  0  0  0  0  0  0
   -0.6840   -2.3530    1.9400 N   0  0  0  0  0  0  0  0  0  0  0  0
   -1.1910   -3.1470    0.8520 C   0  0  1  0  0  0  0  0  0  0  0  0
   -2.2690   -3.8820    1.2920 O   0  0  0  0  0  0  0  0  0  0  0  0
   -1.5160   -2.1340   -0.0650 O   0  0  0  0  0  0  0  0  0  0  0  0
  1  2  1  0
  2  3  2  0
  2  4  1  0
  4  5  1  0
  4  6  2  3
  6  7  1  0
  6 15  1  0
  7  8  2  3
  8  9  1  0
  8 13  1  0
  9 10  2  0
 10 11  1  0
 10 12  1  0
 12 13  1  0
 13 14  2  0
 15 16  2  0
 15 20  1  0
 16 17  1  0
 17 18  1  0
 18 19  1  1
 18 20  1  0
M  END
