
     RDKit          3D

 30 32  0  0  0  0  0  0  0  0999 V2000
   -5.7230   -0.9870   -1.2160 C   0  0  0  0  0  0  0  0  0  0  0  0
   -4.4250   -1.1870   -1.0420 C   0  0  0  0  0  0  0  0  0  0  0  0
   -3.7700   -2.1610   -1.8850 N   0  0  0  0  0  0  0  0  0  0  0  0
   -2.3700   -2.4100   -1.9450 C   0  0  0  0  0  0  0  0  0  0  0  0
   -1.6040   -1.6410   -0.9620 C   0  0  0  0  0  0  0  0  0  0  0  0
   -0.2130   -1.8160   -0.8440 C   0  0  0  0  0  0  0  0  0  0  0  0
    0.5150   -1.1230    0.0330 N   0  0  0  0  0  0  0  0  0  0  0  0
   -0.0540   -0.2250    0.8440 C   0  0  0  0  0  0  0  0  0  0  0  0
    0.6660    0.5750    1.8370 C   0  0  0  0  0  0  0  0  0  0  0  0
    1.7460    1.3470    1.2990 N   0  0  0  0  0  0  0  0  0  0  0  0
    2.9770    0.7540    0.9560 C   0  0  0  0  0  0  0  0  0  0  0  0
    3.0990   -0.4840    1.1370 O   0  0  0  0  0  0  0  0  0  0  0  0
    4.0840    1.4560    0.4220 N   0  0  0  0  0  0  0  0  0  0  0  0
    5.3150    0.8330    0.0890 C   0  0  0  0  0  0  0  0  0  0  0  0
    5.4730    0.3390   -1.1850 C   0  0  0  0  0  0  0  0  0  0  0  0
    4.4560    0.4680   -2.0580 F   0  0  0  0  0  0  0  0  0  0  0  0
    6.6310   -0.2840   -1.6050 C   0  0  0  0  0  0  0  0  0  0  0  0
    7.6730   -0.4190   -0.7160 C   0  0  0  0  0  0  0  0  0  0  0  0
    8.8350   -1.0290   -1.0910 F   0  0  0  0  0  0  0  0  0  0  0  0
    7.5340    0.0670    0.5580 C   0  0  0  0  0  0  0  0  0  0  0  0
    6.3670    0.6880    0.9590 C   0  0  0  0  0  0  0  0  0  0  0  0
    6.1570    1.3210    2.5830 Cl  0  0  0  0  0  0  0  0  0  0  0  0
   -1.3780   -0.0640    0.7260 N   0  0  0  0  0  0  0  0  0  0  0  0
   -2.1750   -0.7260   -0.1330 C   0  0  0  0  0  0  0  0  0  0  0  0
   -3.6360   -0.4320   -0.1150 C   0  0  0  0  0  0  0  0  0  0  0  0
   -4.0580    0.3650    0.8110 C   0  0  0  0  0  0  0  0  0  0  0  0
   -5.3320    0.8210    1.3200 C   0  0  0  0  0  0  0  0  0  0  0  0
   -5.6470    2.5500    1.0840 S   0  0  1  0  0  0  0  0  0  0  0  0
   -4.3950    3.3040    1.3510 O   0  0  0  0  0  0  0  0  0  0  0  0
   -6.1860    2.8210   -0.2960 O   0  0  0  0  0  0  0  0  0  0  0  0
  1  2  2  0
  2  3  1  0
  2 25  1  0
  3  4  1  0
  4  5  1  0
  5  6  2  0
  5 24  1  0
  6  7  1  0
  7  8  2  0
  8  9  1  0
  8 23  1  0
  9 10  1  0
 10 11  1  0
 11 12  2  0
 11 13  1  0
 13 14  1  0
 14 15  2  0
 14 21  1  0
 15 16  1  0
 15 17  1  0
 17 18  2  0
 18 19  1  0
 18 20  1  0
 20 21  2  0
 21 22  1  0
 23 24  2  0
 24 25  1  0
 25 26  2  3
 26 27  1  0
 28 27  1  6
 28 29  2  0
 28 30  2  0
M  END
