
     RDKit          3D

 30 32  0  0  0  0  0  0  0  0999 V2000
   -7.6210    1.1540    0.6130 C   0  0  0  0  0  0  0  0  0  0  0  0
   -7.0200    0.6880   -0.4960 C   0  0  0  0  0  0  0  0  0  0  0  0
   -6.3970   -0.6690   -0.4840 C   0  0  0  0  0  0  0  0  0  0  0  0
   -4.9860   -0.6420   -0.7780 N   0  0  0  0  0  0  0  0  0  0  0  0
   -4.4310   -0.7580   -1.9640 N   0  0  0  0  0  0  0  0  0  0  0  0
   -3.1070   -0.7000   -1.8840 C   0  0  0  0  0  0  0  0  0  0  0  0
   -2.0880   -0.7850   -2.9620 C   0  0  0  0  0  0  0  0  0  0  0  0
   -2.7860   -0.5330   -0.5250 C   0  0  0  0  0  0  0  0  0  0  0  0
   -1.4340   -0.4420   -0.0220 C   0  0  0  0  0  0  0  0  0  0  0  0
   -0.4690   -0.6310   -0.8410 O   0  0  0  0  0  0  0  0  0  0  0  0
   -1.0320   -0.1630    1.3000 N   0  0  0  0  0  0  0  0  0  0  0  0
    0.3450   -0.1160    1.6540 N   0  0  0  0  0  0  0  0  0  0  0  0
    1.2450    0.7520    0.9820 C   0  0  0  0  0  0  0  0  0  0  0  0
    0.8080    1.4840    0.0770 O   0  0  0  0  0  0  0  0  0  0  0  0
    2.6680    0.7570    1.3800 C   0  0  0  0  0  0  0  0  0  0  0  0
    3.1840    1.0710    2.6170 C   0  0  0  0  0  0  0  0  0  0  0  0
    4.5300    0.9310    2.5670 N   0  0  0  0  0  0  0  0  0  0  0  0
    4.9310    0.5380    1.3510 C   0  0  0  0  0  0  0  0  0  0  0  0
    6.1630    0.2550    0.7490 C   0  0  0  0  0  0  0  0  0  0  0  0
    6.1580   -0.1150   -0.5410 C   0  0  0  0  0  0  0  0  0  0  0  0
    7.7790   -0.5470   -1.3090 S   0  0  0  0  0  0  0  0  0  0  0  0
    7.6650   -0.3200   -2.9900 O   0  0  0  0  0  0  0  0  0  0  0  0
    9.0090    0.1170   -0.5420 F   0  0  0  0  0  0  0  0  0  0  0  0
    7.5690    1.3670   -1.5930 F   0  0  0  0  0  0  0  0  0  0  0  0
    5.0570   -0.2430   -1.3360 C   0  0  0  0  0  0  0  0  0  0  0  0
    5.1890   -0.7270   -3.0070 Cl  0  0  0  0  0  0  0  0  0  0  0  0
    3.8220    0.0410   -0.7300 C   0  0  0  0  0  0  0  0  0  0  0  0
    3.7560    0.4260    0.5960 C   0  0  0  0  0  0  0  0  0  0  0  0
   -3.9810   -0.5020    0.1290 C   0  0  0  0  0  0  0  0  0  0  0  0
   -4.2070   -0.3490    1.5740 C   0  0  0  0  0  0  0  0  0  0  0  0
  1  2  2  0
  2  3  1  0
  3  4  1  0
  4  5  1  0
  4 29  1  0
  5  6  2  0
  6  7  1  0
  6  8  1  0
  8  9  1  0
  8 29  2  0
  9 10  2  0
  9 11  1  0
 11 12  1  0
 12 13  1  0
 13 14  2  0
 13 15  1  0
 15 16  2  0
 15 28  1  0
 16 17  1  0
 17 18  1  0
 18 19  2  0
 18 28  1  0
 19 20  1  0
 20 21  1  0
 20 25  2  0
 21 22  2  0
 21 23  1  0
 21 24  1  0
 25 26  1  0
 25 27  1  0
 27 28  2  0
 29 30  1  0
M  END
