
     RDKit          3D

 31 36  0  0  0  0  0  0  0  0999 V2000
    2.8750   -2.2660   -1.7160 C   0  0  0  0  0  0  0  0  0  0  0  0
    3.5000   -1.8410   -0.4460 C   0  0  2  0  0  0  0  0  0  0  0  0
    3.9660   -3.0580    0.3450 C   0  0  0  0  0  0  0  0  0  0  0  0
    4.5570   -2.7000    1.5320 O   0  0  0  0  0  0  0  0  0  0  0  0
    4.7100   -1.3570    1.7570 C   0  0  0  0  0  0  0  0  0  0  0  0
    3.4310   -0.5620    1.6540 C   0  0  0  0  0  0  0  0  0  0  0  0
    2.7540   -1.0010    0.4110 N   0  0  0  0  0  0  0  0  0  0  0  0
    1.4430   -0.4700    0.2360 C   0  0  0  0  0  0  0  0  0  0  0  0
    0.3470   -1.2900    0.0720 C   0  0  0  0  0  0  0  0  0  0  0  0
   -0.9330   -0.7140   -0.0730 C   0  0  0  0  0  0  0  0  0  0  0  0
   -2.0860   -1.6800   -0.0300 C   0  0  2  0  0  0  0  0  0  0  0  0
   -3.7120   -0.9640    0.0220 S   0  0  1  0  0  0  0  0  0  0  0  0
   -3.8340    0.0610    1.0890 O   0  0  0  0  0  0  0  0  0  0  0  0
   -4.0420   -0.3400   -1.3050 O   0  0  0  0  0  0  0  0  0  0  0  0
   -4.9210   -2.2840    0.2380 C   0  0  2  0  0  0  0  0  0  0  0  0
   -6.3680   -1.7960    0.1700 C   0  0  0  0  0  0  0  0  0  0  0  0
   -5.7750   -2.1940    1.3920 C   0  0  0  0  0  0  0  0  0  0  0  0
   -1.9180   -3.0470    0.4430 C   0  0  0  0  0  0  0  0  0  0  0  0
   -2.0230   -2.8600   -1.0060 C   0  0  0  0  0  0  0  0  0  0  0  0
   -1.0430    0.6140   -0.0640 N   0  0  0  0  0  0  0  0  0  0  0  0
    0.0050    1.4110    0.0940 C   0  0  0  0  0  0  0  0  0  0  0  0
   -0.0160    2.8760    0.1350 C   0  0  0  0  0  0  0  0  0  0  0  0
    0.5930    3.3990    1.2900 C   0  0  0  0  0  0  0  0  0  0  0  0
    0.7140    4.7310    1.4980 C   0  0  0  0  0  0  0  0  0  0  0  0
    0.2240    5.5890    0.5420 C   0  0  0  0  0  0  0  0  0  0  0  0
   -0.3780    5.0960   -0.6040 C   0  0  0  0  0  0  0  0  0  0  0  0
   -0.9090    5.6700   -1.7100 N   0  0  0  0  0  0  0  0  0  0  0  0
   -1.3400    4.7390   -2.5650 C   0  0  0  0  0  0  0  0  0  0  0  0
   -1.1000    3.4910   -2.0370 C   0  0  0  0  0  0  0  0  0  0  0  0
   -0.4930    3.7330   -0.7970 C   0  0  0  0  0  0  0  0  0  0  0  0
    1.2520    0.8480    0.2460 N   0  0  0  0  0  0  0  0  0  0  0  0
  2  1  1  6
  2  3  1  0
  2  7  1  0
  3  4  1  0
  4  5  1  0
  5  6  1  0
  6  7  1  0
  7  8  1  0
  8  9  2  0
  8 31  1  0
  9 10  1  0
 11 10  1  6
 10 20  2  0
 11 12  1  0
 11 18  1  0
 11 19  1  0
 12 13  2  0
 12 14  2  0
 12 15  1  1
 15 16  1  6
 15 17  1  0
 16 17  2  0
 18 19  1  0
 20 21  1  0
 21 22  1  0
 21 31  2  0
 22 23  2  0
 22 30  1  0
 23 24  1  0
 24 25  2  0
 25 26  1  0
 26 27  1  0
 26 30  2  0
 27 28  1  0
 28 29  2  0
 29 30  1  0
M  END
