
     RDKit          3D

 30 32  0  0  0  0  0  0  0  0999 V2000
   -5.2930    4.1970    0.7770 C   0  0  0  0  0  0  0  0  0  0  0  0
   -5.1340    3.0480    0.1010 C   0  0  0  0  0  0  0  0  0  0  0  0
   -4.0720    2.1740    0.3840 N   0  0  0  0  0  0  0  0  0  0  0  0
   -3.9430    0.9520   -0.0700 C   0  0  0  0  0  0  0  0  0  0  0  0
   -2.7680    0.2270    0.3520 C   0  0  0  0  0  0  0  0  0  0  0  0
   -1.1870    1.1650    0.6190 S   0  0  0  0  0  0  0  0  0  0  0  0
   -0.1580   -0.2430    0.7330 C   0  0  0  0  0  0  0  0  0  0  0  0
    1.3050   -0.2490    0.9510 C   0  0  0  0  0  0  0  0  0  0  0  0
    1.9230    0.8320    1.0750 O   0  0  0  0  0  0  0  0  0  0  0  0
    2.0240   -1.4680    1.0240 N   0  0  0  0  0  0  0  0  0  0  0  0
    3.4070   -1.4520    1.2310 N   0  0  0  0  0  0  0  0  0  0  0  0
    4.3510   -0.8170    0.4130 C   0  0  0  0  0  0  0  0  0  0  0  0
    3.9200   -0.1960   -0.6110 O   0  0  0  0  0  0  0  0  0  0  0  0
    5.8160   -0.8310    0.6780 C   0  0  0  0  0  0  0  0  0  0  0  0
    6.5450   -0.0760   -0.3620 C   0  0  0  0  0  0  0  0  0  0  0  0
    7.0260   -0.6210   -1.5320 C   0  0  0  0  0  0  0  0  0  0  0  0
    7.6480    0.3760   -2.2550 C   0  0  0  0  0  0  0  0  0  0  0  0
    7.5340    1.4990   -1.5170 N   0  0  0  0  0  0  0  0  0  0  0  0
    6.8880    1.2310   -0.4090 N   0  0  0  0  0  0  0  0  0  0  0  0
   -1.0110   -1.2970    0.5780 C   0  0  0  0  0  0  0  0  0  0  0  0
   -2.3230   -1.0290    0.3930 C   0  0  0  0  0  0  0  0  0  0  0  0
   -3.2900   -2.1700    0.5200 C   0  0  0  0  0  0  0  0  0  0  0  0
   -2.8700   -3.5700    0.3530 C   0  0  0  0  0  0  0  0  0  0  0  0
   -4.4740   -1.9380    0.7710 O   0  0  0  0  0  0  0  0  0  0  0  0
   -4.9330    0.5560   -1.0410 C   0  0  0  0  0  0  0  0  0  0  0  0
   -4.7780   -0.9550   -1.9040 Cl  0  0  0  0  0  0  0  0  0  0  0  0
   -5.9110    1.3590   -1.4390 C   0  0  0  0  0  0  0  0  0  0  0  0
   -6.1070    2.7270   -0.9510 C   0  0  2  0  0  0  0  0  0  0  0  0
   -5.8470    3.5810   -2.0420 F   0  0  0  0  0  0  0  0  0  0  0  0
   -7.4140    2.9280   -0.5240 F   0  0  0  0  0  0  0  0  0  0  0  0
  1  2  2  0
  2  3  1  0
  2 28  1  0
  3  4  2  0
  4  5  1  0
  4 25  1  0
  5  6  1  0
  5 21  2  0
  6  7  1  0
  7  8  1  0
  7 20  2  0
  8  9  2  0
  8 10  1  0
 10 11  1  0
 11 12  1  0
 12 13  2  0
 12 14  1  0
 14 15  1  0
 15 16  2  0
 15 19  1  0
 16 17  1  0
 17 18  2  0
 18 19  1  0
 20 21  1  0
 21 22  1  0
 22 23  1  0
 22 24  2  0
 25 26  1  0
 25 27  2  0
 27 28  1  0
 28 29  1  6
 28 30  1  0
M  END
