
     RDKit          3D

 30 32  0  0  0  0  0  0  0  0999 V2000
   -7.0350    0.5470    2.7400 C   0  0  0  0  0  0  0  0  0  0  0  0
   -7.4730    1.2400    1.7510 C   0  0  0  0  0  0  0  0  0  0  0  0
   -8.9570    2.1830    2.0920 Cl  0  0  0  0  0  0  0  0  0  0  0  0
   -6.9370    1.3440    0.4010 C   0  0  0  0  0  0  0  0  0  0  0  0
   -7.6350    2.1060   -0.3360 N   0  0  0  0  0  0  0  0  0  0  0  0
   -7.5680    2.5120   -1.5540 F   0  0  0  0  0  0  0  0  0  0  0  0
   -6.0910    0.5840   -0.4020 N   0  0  0  0  0  0  0  0  0  0  0  0
   -4.7790    0.2260   -0.1090 C   0  0  0  0  0  0  0  0  0  0  0  0
   -4.2840    0.6390    0.9250 O   0  0  0  0  0  0  0  0  0  0  0  0
   -4.0880   -0.5980   -1.0890 C   0  0  0  0  0  0  0  0  0  0  0  0
   -4.6170   -1.2410   -2.0130 O   0  0  0  0  0  0  0  0  0  0  0  0
   -2.6510   -0.6400   -0.9670 N   0  0  0  0  0  0  0  0  0  0  0  0
   -1.9310   -1.3930   -1.9110 C   0  0  0  0  0  0  0  0  0  0  0  0
   -0.4710   -1.3420   -1.7400 C   0  0  0  0  0  0  0  0  0  0  0  0
    0.2530   -1.9960   -2.5730 O   0  0  0  0  0  0  0  0  0  0  0  0
    0.2340   -0.6440   -0.7460 N   0  0  0  0  0  0  0  0  0  0  0  0
    1.6700   -0.6290   -0.6260 C   0  0  0  0  0  0  0  0  0  0  0  0
    2.5600   -0.1970    0.0210 N   0  0  0  0  0  0  0  0  0  0  0  0
    3.8440   -0.3620   -0.1130 C   0  0  0  0  0  0  0  0  0  0  0  0
    4.2290   -1.1670   -1.1750 C   0  0  0  0  0  0  0  0  0  0  0  0
    5.5520   -1.4600   -1.4790 C   0  0  0  0  0  0  0  0  0  0  0  0
    6.5770   -0.9360   -0.6980 C   0  0  0  0  0  0  0  0  0  0  0  0
    6.1730   -0.1410    0.3480 C   0  0  0  0  0  0  0  0  0  0  0  0
    7.2090    0.3830    1.1290 C   0  0  0  0  0  0  0  0  0  0  0  0
    6.9850    1.1940    2.2110 C   0  0  0  0  0  0  0  0  0  0  0  0
    5.6740    1.4940    2.5240 C   0  0  0  0  0  0  0  0  0  0  0  0
    5.4470    2.2940    3.5910 F   0  0  0  0  0  0  0  0  0  0  0  0
    4.6590    0.9810    1.7600 C   0  0  0  0  0  0  0  0  0  0  0  0
    4.8880    0.1590    0.6640 C   0  0  0  0  0  0  0  0  0  0  0  0
    2.6710   -1.6210   -1.8980 S   0  0  0  0  0  0  0  0  0  0  0  0
  1  2  2  0
  2  3  1  0
  2  4  1  0
  4  5  2  3
  4  7  1  0
  5  6  1  0
  7  8  1  0
  8  9  2  0
  8 10  1  0
 10 11  2  0
 10 12  1  0
 12 13  1  0
 13 14  1  0
 14 15  2  0
 14 16  1  0
 16 17  1  0
 17 18  2  0
 17 30  1  0
 18 19  1  0
 19 20  2  0
 19 29  1  0
 20 21  1  0
 20 30  1  0
 21 22  2  0
 22 23  1  0
 23 24  2  0
 23 29  1  0
 24 25  1  0
 25 26  2  0
 26 27  1  0
 26 28  1  0
 28 29  2  0
M  END
