
     RDKit          3D

 35 37  0  0  0  0  0  0  0  0999 V2000
   -9.4830    0.0190    0.7600 C   0  0  0  0  0  0  0  0  0  0  0  0
   -8.8050    0.3310   -0.5560 C   0  0  1  0  0  0  0  0  0  0  0  0
   -9.2050   -0.7620   -1.5380 C   0  0  0  0  0  0  0  0  0  0  0  0
   -9.3060    1.6730   -1.0230 C   0  0  0  0  0  0  0  0  0  0  0  0
   -7.3250    0.2730   -0.4340 C   0  0  0  0  0  0  0  0  0  0  0  0
   -6.5340    0.5120   -1.5370 C   0  0  0  0  0  0  0  0  0  0  0  0
   -5.1540    0.4560   -1.4250 C   0  0  0  0  0  0  0  0  0  0  0  0
   -4.4910    0.1670   -0.2400 C   0  0  0  0  0  0  0  0  0  0  0  0
   -3.0780    0.1270   -0.2480 N   0  0  0  0  0  0  0  0  0  0  0  0
   -2.2100    0.1430    0.8540 C   0  0  0  0  0  0  0  0  0  0  0  0
   -2.7180    0.2030    2.0120 O   0  0  0  0  0  0  0  0  0  0  0  0
   -0.7500    0.0960    0.7830 C   0  0  0  0  0  0  0  0  0  0  0  0
   -0.0620   -0.0020   -0.4000 C   0  0  0  0  0  0  0  0  0  0  0  0
    1.3420   -0.0490   -0.4300 C   0  0  0  0  0  0  0  0  0  0  0  0
    2.0730    0.0000    0.7280 C   0  0  0  0  0  0  0  0  0  0  0  0
    3.5370   -0.0630    0.6720 C   0  0  0  0  0  0  0  0  0  0  0  0
    4.1340   -0.7950   -0.1270 O   0  0  0  0  0  0  0  0  0  0  0  0
    4.2770    0.7350    1.5510 N   0  0  0  0  0  0  0  0  0  0  0  0
    5.6820    0.8580    1.7100 C   0  0  0  0  0  0  0  0  0  0  0  0
    6.5040    1.2720    0.5590 C   0  0  2  0  0  0  0  0  0  0  0  0
    6.0630    2.4650    0.0050 O   0  0  0  0  0  0  0  0  0  0  0  0
    7.0750    0.2920   -0.3290 C   0  0  0  0  0  0  0  0  0  0  0  0
    7.2040   -1.0280   -0.0210 C   0  0  0  0  0  0  0  0  0  0  0  0
    7.7960   -1.9390   -0.8690 C   0  0  0  0  0  0  0  0  0  0  0  0
    7.9490   -3.3700   -0.5270 C   0  0  0  0  0  0  0  0  0  0  0  0
    9.2360   -3.6130   -0.0250 O   0  0  0  0  0  0  0  0  0  0  0  0
    8.2900   -1.5070   -2.1010 C   0  0  0  0  0  0  0  0  0  0  0  0
    8.1690   -0.1750   -2.4340 C   0  0  0  0  0  0  0  0  0  0  0  0
    7.5740    0.7140   -1.5680 C   0  0  0  0  0  0  0  0  0  0  0  0
    7.4610    2.0440   -1.9170 O   0  0  0  0  0  0  0  0  0  0  0  0
    1.3880    0.0980    1.9170 C   0  0  0  0  0  0  0  0  0  0  0  0
    0.0140    0.1430    1.9310 C   0  0  0  0  0  0  0  0  0  0  0  0
   -0.6490    0.2430    3.1760 N   0  0  0  0  0  0  0  0  0  0  0  0
   -5.2950   -0.0700    0.8510 C   0  0  0  0  0  0  0  0  0  0  0  0
   -6.6950   -0.0160    0.7480 C   0  0  0  0  0  0  0  0  0  0  0  0
  2  1  1  1
  2  3  1  0
  2  4  1  0
  2  5  1  0
  5  6  2  0
  5 35  1  0
  6  7  1  0
  7  8  2  0
  8  9  1  0
  8 34  1  0
  9 10  1  0
 10 11  2  0
 10 12  1  0
 12 13  2  0
 12 32  1  0
 13 14  1  0
 14 15  2  0
 15 16  1  0
 15 31  1  0
 16 17  2  0
 16 18  1  0
 18 19  1  0
 19 20  1  0
 20 21  1  6
 20 22  1  0
 22 23  2  0
 22 29  1  0
 23 24  1  0
 24 25  1  0
 24 27  2  0
 25 26  1  0
 27 28  1  0
 28 29  2  0
 29 30  1  0
 31 32  2  0
 32 33  1  0
 34 35  2  0
M  END
