
     RDKit          3D

 35 37  0  0  0  0  0  0  0  0999 V2000
    1.6380    1.6320    0.2520 C   0  0  0  0  0  0  0  0  0  0  0  0
    1.7130    0.4570   -0.6370 C   0  0  0  0  0  0  0  0  0  0  0  0
    1.6140   -0.8770    0.0100 C   0  0  0  0  0  0  0  0  0  0  0  0
    2.7410   -1.4050    0.5010 C   0  0  0  0  0  0  0  0  0  0  0  0
    3.9860   -0.6010    0.3520 C   0  0  0  0  0  0  0  0  0  0  0  0
    5.1770   -0.9160    0.7520 C   0  0  0  0  0  0  0  0  0  0  0  0
    5.4570   -2.1350    1.4170 N   0  0  0  0  0  0  0  0  0  0  0  0
    6.3320   -0.0540    0.5550 C   0  0  0  0  0  0  0  0  0  0  0  0
    7.4610   -0.4660    0.9890 O   0  0  0  0  0  0  0  0  0  0  0  0
    6.2970    1.1990   -0.0760 N   0  0  0  0  0  0  0  0  0  0  0  0
    7.3840    2.0970   -0.3200 C   0  0  0  0  0  0  0  0  0  0  0  0
    8.3940    1.5220   -1.2360 C   0  0  1  0  0  0  0  0  0  0  0  0
    9.4890    2.5390   -1.5670 C   0  0  0  0  0  0  0  0  0  0  0  0
    8.9650    0.3920   -0.7500 O   0  0  0  0  0  0  0  0  0  0  0  0
    2.7810   -2.7050    1.1640 C   0  0  0  0  0  0  0  0  0  0  0  0
    1.4930   -3.4230    1.2310 C   0  0  0  0  0  0  0  0  0  0  0  0
    0.6830   -3.1520   -0.0110 C   0  0  0  0  0  0  0  0  0  0  0  0
    0.3870   -1.6260    0.0210 C   0  0  0  0  0  0  0  0  0  0  0  0
   -0.8290   -1.3040    0.0720 C   0  0  0  0  0  0  0  0  0  0  0  0
   -1.6550   -0.1460    0.1460 C   0  0  0  0  0  0  0  0  0  0  0  0
   -1.2630    1.0390    0.1610 O   0  0  0  0  0  0  0  0  0  0  0  0
   -3.1490   -0.2240    0.2120 C   0  0  0  0  0  0  0  0  0  0  0  0
   -3.8910    0.8170   -0.3220 C   0  0  0  0  0  0  0  0  0  0  0  0
   -5.2850    0.7140   -0.2970 C   0  0  0  0  0  0  0  0  0  0  0  0
   -5.9050   -0.3810    0.2380 C   0  0  0  0  0  0  0  0  0  0  0  0
   -5.1270   -1.3510    0.7390 N   0  0  0  0  0  0  0  0  0  0  0  0
   -3.7640   -1.2930    0.7370 C   0  0  0  0  0  0  0  0  0  0  0  0
   -3.1490   -2.2650    1.2410 O   0  0  0  0  0  0  0  0  0  0  0  0
   -7.3570   -0.4980    0.2690 C   0  0  0  0  0  0  0  0  0  0  0  0
   -8.1200    0.7750    0.1660 C   0  0  2  0  0  0  0  0  0  0  0  0
   -8.1680    1.4560    1.5160 C   0  0  0  0  0  0  0  0  0  0  0  0
   -9.5670    0.5260   -0.2550 C   0  0  0  0  0  0  0  0  0  0  0  0
   -7.5460    1.7320   -0.8480 C   0  0  0  0  0  0  0  0  0  0  0  0
   -6.0940    1.7850   -0.8490 C   0  0  0  0  0  0  0  0  0  0  0  0
   -5.5110    2.7820   -1.3400 O   0  0  0  0  0  0  0  0  0  0  0  0
  1  2  1  0
  2  3  1  0
  3  4  2  0
  3 18  1  0
  4  5  1  0
  4 15  1  0
  5  6  2  3
  6  7  1  0
  6  8  1  0
  8  9  2  0
  8 10  1  0
 10 11  1  0
 11 12  1  0
 12 13  1  1
 12 14  1  0
 15 16  1  0
 16 17  1  0
 17 18  1  0
 18 19  2  3
 19 20  1  0
 20 21  2  0
 20 22  1  0
 22 23  2  0
 22 27  1  0
 23 24  1  0
 24 25  2  0
 24 34  1  0
 25 26  1  0
 25 29  1  0
 26 27  1  0
 27 28  2  0
 29 30  1  0
 30 31  1  1
 30 32  1  0
 30 33  1  0
 33 34  1  0
 34 35  2  0
M  END
