
     RDKit          3D

 35 39  0  0  0  0  0  0  0  0999 V2000
   -2.8020    0.6010   -1.7280 O   0  0  0  0  0  0  0  0  0  0  0  0
   -3.7030    0.2320   -0.9570 C   0  0  0  0  0  0  0  0  0  0  0  0
   -3.4640    0.1270    0.4990 C   0  0  0  0  0  0  0  0  0  0  0  0
   -2.0580    0.5020    0.7820 C   0  0  0  0  0  0  0  0  0  0  0  0
   -1.1010   -0.4370    1.1030 C   0  0  0  0  0  0  0  0  0  0  0  0
    0.2210   -0.1240    1.3960 C   0  0  0  0  0  0  0  0  0  0  0  0
    1.1720   -1.2200    1.7240 C   0  0  2  0  0  0  0  0  0  0  0  0
    0.8050   -1.7410    3.0810 C   0  0  0  0  0  0  0  0  0  0  0  0
    1.6910   -1.2610    4.1990 C   0  0  0  0  0  0  0  0  0  0  0  0
    3.0980   -1.4480    3.8430 N   0  0  0  0  0  0  0  0  0  0  0  0
    3.3400   -0.5650    2.6980 C   0  0  0  0  0  0  0  0  0  0  0  0
    2.5960   -0.9310    1.4700 C   0  0  1  0  0  0  0  0  0  0  0  0
    3.2660   -2.0320    0.6740 C   0  0  0  0  0  0  0  0  0  0  0  0
    4.5730   -1.8990    0.3850 O   0  0  0  0  0  0  0  0  0  0  0  0
    5.3740   -1.0580   -0.3010 C   0  0  0  0  0  0  0  0  0  0  0  0
    6.7440   -1.3750   -0.2680 C   0  0  0  0  0  0  0  0  0  0  0  0
    7.6980   -0.6280   -0.9090 C   0  0  0  0  0  0  0  0  0  0  0  0
    7.3060    0.4930   -1.6260 C   0  0  0  0  0  0  0  0  0  0  0  0
    5.9640    0.7950   -1.6540 C   0  0  0  0  0  0  0  0  0  0  0  0
    5.0010    0.0420   -1.0070 C   0  0  0  0  0  0  0  0  0  0  0  0
    5.8810    1.9630   -2.4450 O   0  0  0  0  0  0  0  0  0  0  0  0
    7.1770    2.5040   -2.5850 C   0  0  0  0  0  0  0  0  0  0  0  0
    8.0460    1.4110   -2.3550 O   0  0  0  0  0  0  0  0  0  0  0  0
    0.5720    1.2000    1.3570 C   0  0  0  0  0  0  0  0  0  0  0  0
   -0.3910    2.1630    1.0320 C   0  0  0  0  0  0  0  0  0  0  0  0
   -1.6960    1.8390    0.7440 C   0  0  0  0  0  0  0  0  0  0  0  0
   -2.6310    2.7710    0.4310 F   0  0  0  0  0  0  0  0  0  0  0  0
   -4.9780   -0.0900   -1.5200 N   0  0  0  0  0  0  0  0  0  0  0  0
   -5.2950   -0.0120   -2.9200 C   0  0  0  0  0  0  0  0  0  0  0  0
   -6.6990   -0.4160   -3.2120 C   0  0  0  0  0  0  0  0  0  0  0  0
   -7.6450    0.4730   -2.5040 C   0  0  0  0  0  0  0  0  0  0  0  0
   -8.1660    1.6810   -2.9760 C   0  0  0  0  0  0  0  0  0  0  0  0
   -8.9880    2.1380   -2.0170 N   0  0  0  0  0  0  0  0  0  0  0  0
   -8.9980    1.2970   -1.0050 N   0  0  0  0  0  0  0  0  0  0  0  0
   -8.1830    0.2490   -1.2560 C   0  0  0  0  0  0  0  0  0  0  0  0
  1  2  2  0
  2  3  1  0
  2 28  1  0
  3  4  1  0
  4  5  2  0
  4 26  1  0
  5  6  1  0
  7  6  1  1
  6 24  2  0
  7  8  1  0
  7 12  1  0
  8  9  1  0
  9 10  1  0
 10 11  1  0
 11 12  1  0
 12 13  1  1
 13 14  1  0
 14 15  1  0
 15 16  2  0
 15 20  1  0
 16 17  1  0
 17 18  2  0
 18 19  1  0
 18 23  1  0
 19 20  2  0
 19 21  1  0
 21 22  1  0
 22 23  1  0
 24 25  1  0
 25 26  2  0
 26 27  1  0
 28 29  1  0
 29 30  1  0
 30 31  1  0
 31 32  1  0
 31 35  2  0
 32 33  2  0
 33 34  1  0
 34 35  1  0
M  END
