
     RDKit          3D

 28 28  0  0  0  0  0  0  0  0999 V2000
   -6.4660   -1.3650   -3.7050 C   0  0  0  0  0  0  0  0  0  0  0  0
   -6.5960   -0.5190   -2.5080 C   0  0  0  0  0  0  0  0  0  0  0  0
   -6.7280   -1.0410   -1.2930 C   0  0  0  0  0  0  0  0  0  0  0  0
   -6.8610   -0.2000   -0.0730 C   0  0  1  0  0  0  0  0  0  0  0  0
   -8.1740   -0.5800    0.5870 C   0  0  0  0  0  0  0  0  0  0  0  0
   -5.7680   -0.4420    0.9190 C   0  0  0  0  0  0  0  0  0  0  0  0
   -4.4230   -0.1590    0.3830 C   0  0  0  0  0  0  0  0  0  0  0  0
   -4.3370    0.2410   -0.8110 O   0  0  0  0  0  0  0  0  0  0  0  0
   -3.2910   -0.3420    1.2120 N   0  0  0  0  0  0  0  0  0  0  0  0
   -1.9710   -0.0850    0.7520 C   0  0  2  0  0  0  0  0  0  0  0  0
   -1.0710   -1.3050    0.7800 C   0  0  0  0  0  0  0  0  0  0  0  0
    0.3530   -0.7890    0.8360 C   0  0  0  0  0  0  0  0  0  0  0  0
    0.5080    0.4260    0.1710 O   0  0  0  0  0  0  0  0  0  0  0  0
   -0.1100    1.4890    0.8070 C   0  0  2  0  0  0  0  0  0  0  0  0
    0.7990    2.2810    1.6750 C   0  0  0  0  0  0  0  0  0  0  0  0
    1.9150    2.9060    1.0300 N   0  0  0  0  0  0  0  0  0  0  0  0
    2.9620    2.2530    0.3460 C   0  0  0  0  0  0  0  0  0  0  0  0
    2.9870    1.0180    0.2600 O   0  0  0  0  0  0  0  0  0  0  0  0
    4.0110    2.9410   -0.2610 O   0  0  0  0  0  0  0  0  0  0  0  0
    5.0540    2.2670   -0.9410 C   0  0  0  0  0  0  0  0  0  0  0  0
    5.7590    1.3770   -0.0070 C   0  0  0  0  0  0  0  0  0  0  0  0
    5.4240    1.3030    1.1840 O   0  0  0  0  0  0  0  0  0  0  0  0
    6.8510    0.5800   -0.4750 N   0  0  0  0  0  0  0  0  0  0  0  0
    7.5520   -0.3020    0.4430 C   0  0  0  0  0  0  0  0  0  0  0  0
    8.6370   -1.0000   -0.3270 C   0  0  0  0  0  0  0  0  0  0  0  0
    8.1110   -1.7400   -1.3640 O   0  0  0  0  0  0  0  0  0  0  0  0
    7.2300   -2.7230   -0.9760 C   0  0  0  0  0  0  0  0  0  0  0  0
   -1.2960    0.9550    1.6220 C   0  0  0  0  0  0  0  0  0  0  0  0
  1  2  1  0
  2  3  2  3
  3  4  1  0
  4  5  1  1
  4  6  1  0
  6  7  1  0
  7  8  2  0
  7  9  1  0
 10  9  1  1
 10 11  1  0
 10 28  1  0
 11 12  1  0
 12 13  1  0
 13 14  1  0
 14 15  1  1
 14 28  1  0
 15 16  1  0
 16 17  1  0
 17 18  2  0
 17 19  1  0
 19 20  1  0
 20 21  1  0
 21 22  2  0
 21 23  1  0
 23 24  1  0
 24 25  1  0
 25 26  1  0
 26 27  1  0
M  END
