
     RDKit          3D

 28 28  0  0  0  0  0  0  0  0999 V2000
   -5.3230   -3.6380   -0.6510 C   0  0  0  0  0  0  0  0  0  0  0  0
   -5.8040   -2.1830   -0.6540 C   0  0  0  0  0  0  0  0  0  0  0  0
   -4.6780   -1.3700   -0.0520 C   0  0  2  0  0  0  0  0  0  0  0  0
   -5.0110    0.0980    0.0120 C   0  0  0  0  0  0  0  0  0  0  0  0
   -6.2380    0.3730    0.8490 C   0  0  0  0  0  0  0  0  0  0  0  0
   -6.5250    1.8400    0.8810 C   0  0  1  0  0  0  0  0  0  0  0  0
   -5.4060    2.6560    1.4620 C   0  0  0  0  0  0  0  0  0  0  0  0
   -6.8490    2.3650   -0.3550 O   0  0  0  0  0  0  0  0  0  0  0  0
   -3.4800   -1.5410   -0.9580 C   0  0  0  0  0  0  0  0  0  0  0  0
   -2.3300   -0.8160   -0.4970 N   0  0  0  0  0  0  0  0  0  0  0  0
   -1.1140   -0.8630   -1.2290 C   0  0  0  0  0  0  0  0  0  0  0  0
   -1.1060   -1.5660   -2.2880 O   0  0  0  0  0  0  0  0  0  0  0  0
    0.0660   -0.1770   -0.8430 N   0  0  0  0  0  0  0  0  0  0  0  0
    1.2400   -0.2960   -1.6600 C   0  0  0  0  0  0  0  0  0  0  0  0
    2.3650    0.5310   -0.9730 C   0  0  0  0  0  0  0  0  0  0  0  0
    2.6360   -0.0850    0.3420 C   0  0  0  0  0  0  0  0  0  0  0  0
    3.7860    0.0080    0.9570 C   0  0  0  0  0  0  0  0  0  0  0  0
    4.9630    0.7040    0.5230 C   0  0  0  0  0  0  0  0  0  0  0  0
    6.0290    0.5800    1.2720 O   0  0  0  0  0  0  0  0  0  0  0  0
    5.1960    1.5260   -0.5800 N   0  0  0  0  0  0  0  0  0  0  0  0
    6.4930    2.1530   -0.9000 C   0  0  0  0  0  0  0  0  0  0  0  0
    7.4830    1.0460   -1.1460 C   0  0  0  0  0  0  0  0  0  0  0  0
    8.7570    1.4980   -1.4710 O   0  0  0  0  0  0  0  0  0  0  0  0
    9.3360    2.2750   -0.4850 C   0  0  0  0  0  0  0  0  0  0  0  0
    3.8150   -0.6870    2.2040 O   0  0  0  0  0  0  0  0  0  0  0  0
    3.2340   -1.9990    2.3190 C   0  0  0  0  0  0  0  0  0  0  0  0
    1.8090   -1.8460    1.9060 C   0  0  0  0  0  0  0  0  0  0  0  0
    1.6360   -0.8120    0.9920 O   0  0  0  0  0  0  0  0  0  0  0  0
  1  2  1  0
  3  2  1  6
  3  4  1  0
  3  9  1  0
  4  5  1  0
  5  6  1  0
  6  7  1  6
  6  8  1  0
  9 10  1  0
 10 11  1  0
 11 12  2  0
 11 13  1  0
 13 14  1  0
 14 15  1  0
 15 16  1  0
 16 17  2  0
 16 28  1  0
 17 18  1  0
 17 25  1  0
 18 19  2  0
 18 20  1  0
 20 21  1  0
 21 22  1  0
 22 23  1  0
 23 24  1  0
 25 26  1  0
 26 27  1  0
 27 28  1  0
M  END
