
     RDKit          3D

 28 27  0  0  0  0  0  0  0  0999 V2000
    8.4010    1.6000   -2.5700 C   0  0  0  0  0  0  0  0  0  0  0  0
    7.2500    1.8700   -1.7670 O   0  0  0  0  0  0  0  0  0  0  0  0
    6.4750    0.8540   -1.2190 C   0  0  0  0  0  0  0  0  0  0  0  0
    6.8420   -0.3350   -1.4680 O   0  0  0  0  0  0  0  0  0  0  0  0
    5.2800    1.1530   -0.3860 C   0  0  2  0  0  0  0  0  0  0  0  0
    4.3220    1.9330   -1.2790 C   0  0  0  0  0  0  0  0  0  0  0  0
    5.6640    2.0270    0.7680 C   0  0  0  0  0  0  0  0  0  0  0  0
    4.6930   -0.1060    0.0320 N   0  0  0  0  0  0  0  0  0  0  0  0
    3.5350   -0.1940    0.8440 C   0  0  0  0  0  0  0  0  0  0  0  0
    2.9940    0.8630    1.2190 O   0  0  0  0  0  0  0  0  0  0  0  0
    2.9530   -1.4240    1.2570 N   0  0  0  0  0  0  0  0  0  0  0  0
    1.7890   -1.5420    2.0740 C   0  0  2  0  0  0  0  0  0  0  0  0
    2.0660   -2.2110    3.4040 C   0  0  0  0  0  0  0  0  0  0  0  0
    0.6950   -2.3080    1.4270 C   0  0  0  0  0  0  0  0  0  0  0  0
    0.9060   -2.7540    0.2700 O   0  0  0  0  0  0  0  0  0  0  0  0
   -0.5180   -2.5550    2.0100 O   0  0  0  0  0  0  0  0  0  0  0  0
   -1.5730   -3.2710    1.4370 C   0  0  1  0  0  0  0  0  0  0  0  0
   -1.9550   -4.4930    2.2430 C   0  0  0  0  0  0  0  0  0  0  0  0
   -2.8220   -2.4560    1.2380 C   0  0  0  0  0  0  0  0  0  0  0  0
   -2.5870   -1.2650    0.3250 C   0  0  0  0  0  0  0  0  0  0  0  0
   -3.8720   -0.5270    0.1890 C   0  0  0  0  0  0  0  0  0  0  0  0
   -4.9280   -0.9290    0.7880 O   0  0  0  0  0  0  0  0  0  0  0  0
   -4.0220    0.6500   -0.5940 N   0  0  0  0  0  0  0  0  0  0  0  0
   -5.2960    1.3550   -0.7100 C   0  0  1  0  0  0  0  0  0  0  0  0
   -5.2180    2.7440   -0.1750 C   0  0  0  0  0  0  0  0  0  0  0  0
   -5.8100    1.3040   -2.1350 C   0  0  1  0  0  0  0  0  0  0  0  0
   -7.1300    2.0330   -2.2560 C   0  0  0  0  0  0  0  0  0  0  0  0
   -4.8570    1.9270   -3.1170 C   0  0  0  0  0  0  0  0  0  0  0  0
  1  2  1  0
  2  3  1  0
  3  4  2  0
  3  5  1  0
  5  6  1  6
  5  7  1  0
  5  8  1  0
  8  9  1  0
  9 10  2  0
  9 11  1  0
 11 12  1  0
 12 13  1  1
 12 14  1  0
 14 15  2  0
 14 16  1  0
 16 17  1  0
 17 18  1  1
 17 19  1  0
 19 20  1  0
 20 21  1  0
 21 22  2  0
 21 23  1  0
 23 24  1  0
 24 25  1  6
 24 26  1  0
 26 27  1  1
 26 28  1  0
M  END
