
     RDKit          3D

 28 27  0  0  0  0  0  0  0  0999 V2000
    1.4840   -4.0240    1.6990 C   0  0  0  0  0  0  0  0  0  0  0  0
    1.9350   -2.9580    0.8040 C   0  0  0  0  0  0  0  0  0  0  0  0
    1.0720   -1.7110    0.7520 C   0  0  1  0  0  0  0  0  0  0  0  0
    1.6400   -0.7410   -0.1410 C   0  0  0  0  0  0  0  0  0  0  0  0
    0.9850   -0.4850   -1.2590 O   0  0  0  0  0  0  0  0  0  0  0  0
    2.7110    0.0130   -0.1540 N   0  0  0  0  0  0  0  0  0  0  0  0
    3.8430    0.7080    0.0050 C   0  0  0  0  0  0  0  0  0  0  0  0
    4.0060    1.4590   -1.0620 O   0  0  0  0  0  0  0  0  0  0  0  0
    4.7780    0.7910    0.9620 N   0  0  0  0  0  0  0  0  0  0  0  0
    5.9450    1.6320    0.8970 C   0  0  0  0  0  0  0  0  0  0  0  0
    6.8040    1.2380   -0.2540 C   0  0  0  0  0  0  0  0  0  0  0  0
    8.0570    2.0860   -0.3620 C   0  0  1  0  0  0  0  0  0  0  0  0
    8.9150    1.9820    0.8690 C   0  0  0  0  0  0  0  0  0  0  0  0
    8.8730    1.6010   -1.5430 C   0  0  0  0  0  0  0  0  0  0  0  0
   -0.3210   -2.0670    0.2450 C   0  0  1  0  0  0  0  0  0  0  0  0
   -0.7820   -2.9970    1.1510 O   0  0  0  0  0  0  0  0  0  0  0  0
   -1.2680   -0.8840    0.3540 C   0  0  0  0  0  0  0  0  0  0  0  0
   -2.5920   -1.3200   -0.1590 C   0  0  0  0  0  0  0  0  0  0  0  0
   -2.7770   -2.5070   -0.5990 O   0  0  0  0  0  0  0  0  0  0  0  0
   -3.7320   -0.4830   -0.2040 N   0  0  0  0  0  0  0  0  0  0  0  0
   -5.0130   -0.9090   -0.7020 C   0  0  0  0  0  0  0  0  0  0  0  0
   -6.0060    0.1910   -0.6160 C   0  0  0  0  0  0  0  0  0  0  0  0
   -5.6590    1.3230   -0.1450 O   0  0  0  0  0  0  0  0  0  0  0  0
   -7.3090    0.0230   -1.0360 O   0  0  0  0  0  0  0  0  0  0  0  0
   -8.2930    1.0390   -0.9730 C   0  0  2  0  0  0  0  0  0  0  0  0
   -7.8940    2.2370   -1.7800 C   0  0  0  0  0  0  0  0  0  0  0  0
   -8.6010    1.3960    0.4840 C   0  0  0  0  0  0  0  0  0  0  0  0
   -9.5880    0.4820   -1.5670 C   0  0  0  0  0  0  0  0  0  0  0  0
  1  2  1  0
  3  2  1  6
  3  4  1  0
  3 15  1  0
  4  5  2  0
  4  6  1  0
  6  7  1  0
  7  8  2  0
  7  9  1  0
  9 10  1  0
 10 11  1  0
 11 12  1  0
 12 13  1  1
 12 14  1  0
 15 16  1  1
 15 17  1  0
 17 18  1  0
 18 19  2  0
 18 20  1  0
 20 21  1  0
 21 22  1  0
 22 23  2  0
 22 24  1  0
 24 25  1  0
 25 26  1  6
 25 27  1  0
 25 28  1  0
M  END
