
     RDKit          3D

 20 20  0  0  0  0  0  0  0  0999 V2000
   -3.0560   -2.6800    1.8410 C   0  0  0  0  0  0  0  0  0  0  0  0
   -3.2400   -1.1950    1.5390 C   0  0  0  0  0  0  0  0  0  0  0  0
   -2.4140   -0.9010    0.3150 C   0  0  0  0  0  0  0  0  0  0  0  0
   -2.4890    0.5380   -0.1170 C   0  0  2  0  0  0  0  0  0  0  0  0
   -3.8540    1.0180   -0.4620 C   0  0  0  0  0  0  0  0  0  0  0  0
   -4.5360    0.3050   -1.5700 C   0  0  0  0  0  0  0  0  0  0  0  0
   -5.9090    0.9030   -1.8040 C   0  0  0  0  0  0  0  0  0  0  0  0
   -1.6050    0.6580   -1.3380 C   0  0  0  0  0  0  0  0  0  0  0  0
   -0.2840    0.3400   -1.1490 O   0  0  0  0  0  0  0  0  0  0  0  0
    0.7380    0.8310   -0.4270 C   0  0  0  0  0  0  0  0  0  0  0  0
    0.6370    1.9370    0.3620 C   0  0  0  0  0  0  0  0  0  0  0  0
    1.7290    2.3970    1.0920 C   0  0  0  0  0  0  0  0  0  0  0  0
    2.9330    1.7440    1.0290 C   0  0  0  0  0  0  0  0  0  0  0  0
    3.0550    0.6220    0.2340 C   0  0  0  0  0  0  0  0  0  0  0  0
    4.3850   -0.0390    0.2090 C   0  0  2  0  0  0  0  0  0  0  0  0
    5.4040    0.8970    0.0770 O   0  0  0  0  0  0  0  0  0  0  0  0
    4.4780   -1.0670   -0.8720 C   0  0  0  0  0  0  0  0  0  0  0  0
    5.8530   -1.6920   -0.8330 C   0  0  0  0  0  0  0  0  0  0  0  0
    6.9130   -0.7430   -1.0330 N   0  0  0  0  0  0  0  0  0  0  0  0
    1.9800    0.1930   -0.4650 C   0  0  0  0  0  0  0  0  0  0  0  0
  1  2  1  0
  2  3  1  0
  4  3  1  6
  4  5  1  0
  4  8  1  0
  5  6  1  0
  6  7  1  0
  8  9  1  0
  9 10  1  0
 10 11  2  0
 10 20  1  0
 11 12  1  0
 12 13  2  0
 13 14  1  0
 14 15  1  0
 14 20  2  0
 15 16  1  6
 15 17  1  0
 17 18  1  0
 18 19  1  0
M  END
