
     RDKit          3D

 28 27  0  0  0  0  0  0  0  0999 V2000
    0.2230   -2.7840   -2.6000 C   0  0  0  0  0  0  0  0  0  0  0  0
   -0.1200   -2.7360   -1.1630 C   0  0  0  0  0  0  0  0  0  0  0  0
   -0.4750   -1.4100   -0.6540 N   0  0  0  0  0  0  0  0  0  0  0  0
    0.5080   -0.5630   -0.1430 C   0  0  0  0  0  0  0  0  0  0  0  0
    0.2390    0.5290    0.3920 O   0  0  0  0  0  0  0  0  0  0  0  0
    1.9150   -0.9120   -0.2110 C   0  0  0  0  0  0  0  0  0  0  0  0
    2.8560   -0.0990    0.2970 C   0  0  0  0  0  0  0  0  0  0  0  0
    4.2560   -0.4200    0.2410 C   0  0  0  0  0  0  0  0  0  0  0  0
    4.6260   -1.7460   -0.4350 C   0  0  0  0  0  0  0  0  0  0  0  0
    5.2440    0.2880    0.7000 C   0  0  0  0  0  0  0  0  0  0  0  0
    6.5970   -0.2220    0.5390 N   0  0  0  0  0  0  0  0  0  0  0  0
    5.1170    1.5500    1.3710 C   0  0  0  0  0  0  0  0  0  0  0  0
    4.0160    2.0760    1.5750 O   0  0  0  0  0  0  0  0  0  0  0  0
    6.2770    2.2370    1.8250 O   0  0  0  0  0  0  0  0  0  0  0  0
    6.0700    3.4870    2.4830 C   0  0  0  0  0  0  0  0  0  0  0  0
   -1.8820   -0.9410   -0.7040 C   0  0  2  0  0  0  0  0  0  0  0  0
   -2.7220   -2.1710   -1.1860 C   0  0  0  0  0  0  0  0  0  0  0  0
   -2.1340    0.0680   -1.7480 C   0  0  0  0  0  0  0  0  0  0  0  0
   -1.4190    1.3620   -1.7380 C   0  0  0  0  0  0  0  0  0  0  0  0
   -2.3830   -0.6300    0.6200 C   0  0  0  0  0  0  0  0  0  0  0  0
   -1.4760   -0.8770    1.5810 O   0  0  0  0  0  0  0  0  0  0  0  0
   -3.5640   -0.1490    1.1640 N   0  0  0  0  0  0  0  0  0  0  0  0
   -3.5810   -0.0740    2.6490 C   0  0  0  0  0  0  0  0  0  0  0  0
   -2.9860    1.1590    3.2040 C   0  0  0  0  0  0  0  0  0  0  0  0
   -3.5580    2.3570    2.8480 O   0  0  0  0  0  0  0  0  0  0  0  0
   -4.7470    0.2400    0.5160 C   0  0  0  0  0  0  0  0  0  0  0  0
   -5.0470    1.6510    0.1920 C   0  0  0  0  0  0  0  0  0  0  0  0
   -4.1940    2.3560   -0.5970 O   0  0  0  0  0  0  0  0  0  0  0  0
  1  2  1  0
  2  3  1  0
  3  4  1  0
  3 16  1  0
  4  5  2  0
  4  6  1  0
  6  7  2  3
  7  8  1  0
  8  9  1  0
  8 10  2  3
 10 11  1  0
 10 12  1  0
 12 13  2  0
 12 14  1  0
 14 15  1  0
 16 17  1  6
 16 18  1  0
 16 20  1  0
 18 19  1  0
 20 21  2  0
 20 22  1  0
 22 23  1  0
 22 26  1  0
 23 24  1  0
 24 25  1  0
 26 27  1  0
 27 28  1  0
M  END
