
     RDKit          3D

 28 28  0  0  0  0  0  0  0  0999 V2000
   -3.1810   -0.2750   -2.8530 C   0  0  0  0  0  0  0  0  0  0  0  0
   -3.0340    0.2470   -1.5750 C   0  0  0  0  0  0  0  0  0  0  0  0
   -1.7090    0.3590   -1.2260 N   0  0  0  0  0  0  0  0  0  0  0  0
   -1.0120    0.8020   -0.1000 C   0  0  0  0  0  0  0  0  0  0  0  0
   -1.6700    1.2030    0.8690 O   0  0  0  0  0  0  0  0  0  0  0  0
    0.4510    0.8130   -0.0110 N   0  0  0  0  0  0  0  0  0  0  0  0
    0.9890    1.2670    1.2250 C   0  0  0  0  0  0  0  0  0  0  0  0
    1.2380    0.4140   -1.1270 C   0  0  0  0  0  0  0  0  0  0  0  0
    1.5540   -1.0330   -1.2040 C   0  0  0  0  0  0  0  0  0  0  0  0
    2.3980   -1.5960   -0.1100 C   0  0  0  0  0  0  0  0  0  0  0  0
    3.6790   -1.2430    0.0250 O   0  0  0  0  0  0  0  0  0  0  0  0
    4.5620   -0.3030    0.2420 C   0  0  0  0  0  0  0  0  0  0  0  0
    4.1770    0.8730    0.4340 O   0  0  0  0  0  0  0  0  0  0  0  0
    6.0650   -0.5050    0.2840 C   0  0  0  0  0  0  0  0  0  0  0  0
    6.4780   -0.6710    1.7150 C   0  0  2  0  0  0  0  0  0  0  0  0
    7.9740   -0.8630    1.8440 C   0  0  0  0  0  0  0  0  0  0  0  0
    8.1070   -2.3600    1.9740 C   0  0  0  0  0  0  0  0  0  0  0  0
    6.7140   -2.8760    1.8530 C   0  0  0  0  0  0  0  0  0  0  0  0
    5.9170   -1.8290    2.2690 O   0  0  0  0  0  0  0  0  0  0  0  0
   -4.2520    0.5710   -0.9380 C   0  0  0  0  0  0  0  0  0  0  0  0
   -4.5550    1.0460    0.2150 C   0  0  0  0  0  0  0  0  0  0  0  0
   -5.9880    1.2750    0.5920 C   0  0  0  0  0  0  0  0  0  0  0  0
   -6.2600    1.7730    1.7820 C   0  0  0  0  0  0  0  0  0  0  0  0
   -7.5960    2.0160    2.2090 N   0  0  0  0  0  0  0  0  0  0  0  0
   -5.4630    0.3310   -1.7400 O   0  0  0  0  0  0  0  0  0  0  0  0
   -5.8480    1.3590   -2.6360 C   0  0  0  0  0  0  0  0  0  0  0  0
   -7.0940    0.8860   -3.3520 C   0  0  0  0  0  0  0  0  0  0  0  0
   -8.0990    0.6490   -2.4220 O   0  0  0  0  0  0  0  0  0  0  0  0
  1  2  2  0
  2  3  1  0
  2 20  1  0
  3  4  1  0
  4  5  2  0
  4  6  1  0
  6  7  1  0
  6  8  1  0
  8  9  1  0
  9 10  1  0
 10 11  1  0
 11 12  1  0
 12 13  2  0
 12 14  1  0
 15 14  1  6
 15 16  1  0
 15 19  1  0
 16 17  1  0
 17 18  1  0
 18 19  1  0
 20 21  2  3
 20 25  1  0
 21 22  1  0
 22 23  2  3
 23 24  1  0
 25 26  1  0
 26 27  1  0
 27 28  1  0
M  END
