
     RDKit          3D

 21 23  0  0  0  0  0  0  0  0999 V2000
   -6.4750   -0.8980    0.6740 N   0  0  0  0  0  0  0  0  0  0  0  0
   -5.1250   -0.5230    0.4060 C   0  0  0  0  0  0  0  0  0  0  0  0
   -4.1010   -1.4420    0.4300 C   0  0  0  0  0  0  0  0  0  0  0  0
   -2.7770   -1.0600    0.1660 C   0  0  0  0  0  0  0  0  0  0  0  0
   -2.4560    0.2370   -0.1230 C   0  0  0  0  0  0  0  0  0  0  0  0
   -1.0790    0.6180   -0.3900 C   0  0  0  0  0  0  0  0  0  0  0  0
   -0.0640    0.1200    0.3460 C   0  0  0  0  0  0  0  0  0  0  0  0
   -0.4440   -0.7290    1.3070 F   0  0  0  0  0  0  0  0  0  0  0  0
    1.2670    0.6230    0.0800 C   0  0  0  0  0  0  0  0  0  0  0  0
    1.3930    1.7810   -0.6740 C   0  0  0  0  0  0  0  0  0  0  0  0
    2.6500    2.2620   -0.9590 C   0  0  0  0  0  0  0  0  0  0  0  0
    3.7870    1.6390   -0.5210 C   0  0  0  0  0  0  0  0  0  0  0  0
    3.6260    0.4690    0.2400 C   0  0  0  0  0  0  0  0  0  0  0  0
    2.3840   -0.0470    0.5440 C   0  0  0  0  0  0  0  0  0  0  0  0
    2.3400   -1.3030    1.2720 C   0  0  0  0  0  0  0  0  0  0  0  0
    1.2750   -1.8260    1.5780 O   0  0  0  0  0  0  0  0  0  0  0  0
    3.5610   -1.9430    1.6370 O   0  0  0  0  0  0  0  0  0  0  0  0
    4.6790   -1.7090    0.7700 C   0  0  0  0  0  0  0  0  0  0  0  0
    4.8430   -0.2090    0.7500 C   0  0  0  0  0  0  0  0  0  0  0  0
   -3.4960    1.1630   -0.1430 C   0  0  0  0  0  0  0  0  0  0  0  0
   -4.7900    0.7790    0.1160 C   0  0  0  0  0  0  0  0  0  0  0  0
  1  2  1  0
  2  3  2  0
  2 21  1  0
  3  4  1  0
  4  5  2  0
  5  6  1  0
  5 20  1  0
  6  7  2  3
  7  8  1  0
  7  9  1  0
  9 10  2  0
  9 14  1  0
 10 11  1  0
 11 12  2  0
 12 13  1  0
 13 14  2  0
 13 19  1  0
 14 15  1  0
 15 16  2  0
 15 17  1  0
 17 18  1  0
 18 19  1  0
 20 21  2  0
M  END
