
     RDKit          3D

 21 22  0  0  0  0  0  0  0  0999 V2000
    5.2850    2.5190   -0.2320 C   0  0  0  0  0  0  0  0  0  0  0  0
    4.5240    1.4920    0.0890 C   0  0  0  0  0  0  0  0  0  0  0  0
    3.2190    1.2900   -0.5270 C   0  0  0  0  0  0  0  0  0  0  0  0
    2.4610    0.2390   -0.1850 C   0  0  0  0  0  0  0  0  0  0  0  0
    1.1700    0.1660   -0.8900 C   0  0  0  0  0  0  0  0  0  0  0  0
   -0.0110    0.3160   -0.0160 C   0  0  0  0  0  0  0  0  0  0  0  0
    0.0490    0.6470    1.2130 O   0  0  0  0  0  0  0  0  0  0  0  0
   -1.3090    0.0850   -0.5440 N   0  0  0  0  0  0  0  0  0  0  0  0
   -2.5000    0.2280    0.3050 C   0  0  2  0  0  0  0  0  0  0  0  0
   -3.2140   -1.1060    0.3560 C   0  0  0  0  0  0  0  0  0  0  0  0
   -4.1110   -1.2610   -0.8740 C   0  0  0  0  0  0  0  0  0  0  0  0
   -5.3290   -0.3920   -0.6340 C   0  0  0  0  0  0  0  0  0  0  0  0
   -4.9000    0.8560    0.0900 C   0  0  0  0  0  0  0  0  0  0  0  0
   -3.4640    1.2420   -0.2660 C   0  0  0  0  0  0  0  0  0  0  0  0
    2.8500   -0.7560    0.7840 C   0  0  0  0  0  0  0  0  0  0  0  0
    2.1950   -1.8180    1.1720 C   0  0  0  0  0  0  0  0  0  0  0  0
    0.9210   -2.3870    0.8150 C   0  0  0  0  0  0  0  0  0  0  0  0
    2.8570   -2.5860    2.1620 F   0  0  0  0  0  0  0  0  0  0  0  0
    4.1330   -0.5480    1.3850 O   0  0  0  0  0  0  0  0  0  0  0  0
    4.9490    0.5090    1.0760 C   0  0  0  0  0  0  0  0  0  0  0  0
    6.1390    0.6690    1.6610 C   0  0  0  0  0  0  0  0  0  0  0  0
  1  2  2  0
  2  3  1  0
  2 20  1  0
  3  4  2  0
  4  5  1  0
  4 15  1  0
  5  6  1  0
  6  7  2  0
  6  8  1  0
  9  8  1  6
  9 10  1  0
  9 14  1  0
 10 11  1  0
 11 12  1  0
 12 13  1  0
 13 14  1  0
 15 16  2  3
 15 19  1  0
 16 17  1  0
 16 18  1  0
 19 20  1  0
 20 21  2  0
M  END
