
     RDKit          3D

 16 16  0  0  0  0  0  0  0  0999 V2000
    0.7680    2.9740    0.4090 C   0  0  0  0  0  0  0  0  0  0  0  0
    0.9890    1.7310    1.0910 O   0  0  0  0  0  0  0  0  0  0  0  0
    0.2640    0.5780    0.5840 C   0  0  0  0  0  0  0  0  0  0  0  0
   -1.0010    0.5840    0.7910 C   0  0  0  0  0  0  0  0  0  0  0  0
   -2.0800   -0.3170    0.4710 C   0  0  0  0  0  0  0  0  0  0  0  0
   -3.3460   -0.0490    0.8590 C   0  0  0  0  0  0  0  0  0  0  0  0
   -4.0650    1.4150    1.8310 Br  0  0  0  0  0  0  0  0  0  0  0  0
   -4.1810   -1.1840    0.4080 C   0  0  0  0  0  0  0  0  0  0  0  0
   -3.4950   -1.7640   -0.6100 O   0  0  0  0  0  0  0  0  0  0  0  0
   -2.1350   -1.5740   -0.3010 C   0  0  0  0  0  0  0  0  0  0  0  0
    1.0890   -0.3770   -0.0570 C   0  0  0  0  0  0  0  0  0  0  0  0
    0.6460   -1.5540   -0.5930 O   0  0  0  0  0  0  0  0  0  0  0  0
    2.4240   -0.0970   -0.1390 C   0  0  0  0  0  0  0  0  0  0  0  0
    2.9200    1.0760    0.3910 O   0  0  0  0  0  0  0  0  0  0  0  0
    3.3170   -1.0530   -0.7920 C   0  0  0  0  0  0  0  0  0  0  0  0
    3.9820   -0.5140   -1.8910 O   0  0  0  0  0  0  0  0  0  0  0  0
  1  2  1  0
  2  3  1  0
  3  4  2  3
  3 11  1  0
  4  5  1  0
  5  6  2  0
  5 10  1  0
  6  7  1  0
  6  8  1  0
  8  9  1  0
  9 10  1  0
 11 12  1  0
 11 13  2  3
 13 14  1  0
 13 15  1  0
 15 16  1  0
M  END
