
     RDKit          3D

 21 23  0  0  0  0  0  0  0  0999 V2000
   -2.8620   -2.0440    1.4420 C   0  0  0  0  0  0  0  0  0  0  0  0
   -2.8700   -0.8660    0.4090 C   0  0  2  0  0  0  0  0  0  0  0  0
   -3.2420   -1.5290   -0.8930 C   0  0  0  0  0  0  0  0  0  0  0  0
   -1.5080   -0.2700    0.4380 C   0  0  1  0  0  0  0  0  0  0  0  0
   -0.5010   -1.1700    0.1270 O   0  0  0  0  0  0  0  0  0  0  0  0
    0.8170   -0.7920    0.1040 C   0  0  0  0  0  0  0  0  0  0  0  0
    1.8370   -1.7450    0.2580 C   0  0  0  0  0  0  0  0  0  0  0  0
    3.1400   -1.3010    0.2250 C   0  0  0  0  0  0  0  0  0  0  0  0
    4.2710   -2.2690    0.3840 C   0  0  0  0  0  0  0  0  0  0  0  0
    4.8630   -2.5190   -0.8200 F   0  0  0  0  0  0  0  0  0  0  0  0
    3.4620    0.0220    0.0500 C   0  0  0  0  0  0  0  0  0  0  0  0
    4.8030    0.4910    0.0150 N   0  0  0  0  0  0  0  0  0  0  0  0
    2.4480    0.9740   -0.1040 C   0  0  0  0  0  0  0  0  0  0  0  0
    1.1570    0.5430   -0.0730 C   0  0  0  0  0  0  0  0  0  0  0  0
    0.0300    1.4940   -0.2160 C   0  0  0  0  0  0  0  0  0  0  0  0
    0.3210    2.8090   -0.6060 C   0  0  0  0  0  0  0  0  0  0  0  0
   -0.7140    3.6610   -0.9320 C   0  0  0  0  0  0  0  0  0  0  0  0
   -2.0010    3.1960   -0.8640 C   0  0  0  0  0  0  0  0  0  0  0  0
   -2.3100    1.9110   -0.4810 C   0  0  0  0  0  0  0  0  0  0  0  0
   -3.6120    1.4600   -0.4230 O   0  0  0  0  0  0  0  0  0  0  0  0
   -1.2830    1.0420   -0.1460 C   0  0  0  0  0  0  0  0  0  0  0  0
  2  1  1  1
  2  3  1  0
  2  4  1  0
  4  5  1  6
  4 21  1  0
  5  6  1  0
  6  7  2  0
  6 14  1  0
  7  8  1  0
  8  9  1  0
  8 11  2  0
  9 10  1  0
 11 12  1  0
 11 13  1  0
 13 14  2  0
 14 15  1  0
 15 16  2  0
 15 21  1  0
 16 17  1  0
 17 18  2  0
 18 19  1  0
 19 20  1  0
 19 21  2  0
M  END
