
     RDKit          3D

 21 22  0  0  0  0  0  0  0  0999 V2000
    6.4700   -0.8370    0.2450 N   0  0  0  0  0  0  0  0  0  0  0  0
    5.7760    0.5750   -0.5080 S   0  0  1  0  0  0  0  0  0  0  0  0
    6.1280    1.7550    0.3680 O   0  0  0  0  0  0  0  0  0  0  0  0
    6.3570    0.7480   -1.8910 O   0  0  0  0  0  0  0  0  0  0  0  0
    4.0370    0.4210   -0.5770 C   0  0  0  0  0  0  0  0  0  0  0  0
    3.4730   -0.1670   -1.6800 C   0  0  0  0  0  0  0  0  0  0  0  0
    2.1110   -0.3070   -1.7710 C   0  0  0  0  0  0  0  0  0  0  0  0
    1.2300    0.1320   -0.7660 C   0  0  0  0  0  0  0  0  0  0  0  0
   -0.1300   -0.0560   -0.9930 N   0  0  0  0  0  0  0  0  0  0  0  0
   -1.2060    0.0270   -0.0690 C   0  0  0  0  0  0  0  0  0  0  0  0
   -0.9610    0.3230    1.5120 S   0  0  0  0  0  0  0  0  0  0  0  0
   -2.5070   -0.1940   -0.5280 N   0  0  0  0  0  0  0  0  0  0  0  0
   -3.7310   -0.1560    0.1710 C   0  0  0  0  0  0  0  0  0  0  0  0
   -3.9450    0.5190    1.3380 C   0  0  0  0  0  0  0  0  0  0  0  0
   -5.1880    0.4910    2.0000 C   0  0  0  0  0  0  0  0  0  0  0  0
   -6.2480   -0.2210    1.4960 C   0  0  0  0  0  0  0  0  0  0  0  0
   -7.4530   -0.2490    2.1360 F   0  0  0  0  0  0  0  0  0  0  0  0
   -6.0400   -0.9040    0.3170 C   0  0  0  0  0  0  0  0  0  0  0  0
   -4.8300   -0.8810   -0.3330 C   0  0  0  0  0  0  0  0  0  0  0  0
    1.8420    0.7120    0.3130 C   0  0  0  0  0  0  0  0  0  0  0  0
    3.2200    0.8680    0.4350 C   0  0  0  0  0  0  0  0  0  0  0  0
  2  1  1  1
  2  3  2  0
  2  4  2  0
  2  5  1  0
  5  6  2  0
  5 21  1  0
  6  7  1  0
  7  8  2  0
  8  9  1  0
  8 20  1  0
  9 10  1  0
 10 11  2  0
 10 12  1  0
 12 13  1  0
 13 14  2  0
 13 19  1  0
 14 15  1  0
 15 16  2  0
 16 17  1  0
 16 18  1  0
 18 19  2  0
 20 21  2  0
M  END
