
     RDKit          3D

 21 22  0  0  0  0  0  0  0  0999 V2000
    5.2170    1.2670   -1.7350 C   0  0  0  0  0  0  0  0  0  0  0  0
    4.0440    0.5830   -1.1450 C   0  0  0  0  0  0  0  0  0  0  0  0
    3.8890   -0.5470   -0.4700 C   0  0  0  0  0  0  0  0  0  0  0  0
    2.6790   -0.9510   -0.0350 C   0  0  0  0  0  0  0  0  0  0  0  0
    2.4200   -2.2120    0.7330 C   0  0  0  0  0  0  0  0  0  0  0  0
    2.1850   -2.0230    2.1210 N   0  0  0  0  0  0  0  0  0  0  0  0
    2.4190   -3.6490   -0.0020 S   0  0  0  0  0  0  0  0  0  0  0  0
    1.6240   -0.1360   -0.3270 C   0  0  0  0  0  0  0  0  0  0  0  0
    0.2170   -0.2970    0.0010 N   0  0  0  0  0  0  0  0  0  0  0  0
   -0.7010    0.6750   -0.4040 C   0  0  0  0  0  0  0  0  0  0  0  0
   -0.1920    1.6620   -1.0580 O   0  0  0  0  0  0  0  0  0  0  0  0
   -2.1290    0.6710   -0.1610 C   0  0  0  0  0  0  0  0  0  0  0  0
   -2.9800    1.6210   -0.6150 N   0  0  0  0  0  0  0  0  0  0  0  0
   -4.2440    1.3700   -0.2410 C   0  0  0  0  0  0  0  0  0  0  0  0
   -5.4340    2.1580   -0.5350 C   0  0  0  0  0  0  0  0  0  0  0  0
   -5.3550    3.2070   -1.2100 O   0  0  0  0  0  0  0  0  0  0  0  0
   -4.2480    0.2200    0.4860 C   0  0  0  0  0  0  0  0  0  0  0  0
   -5.3330   -0.3700    1.0430 F   0  0  0  0  0  0  0  0  0  0  0  0
   -2.9120   -0.2120    0.5300 C   0  0  0  0  0  0  0  0  0  0  0  0
   -2.5020   -1.4500    1.2460 C   0  0  0  0  0  0  0  0  0  0  0  0
    2.3530    1.2180   -1.2270 S   0  0  0  0  0  0  0  0  0  0  0  0
  1  2  1  0
  2  3  2  0
  2 21  1  0
  3  4  1  0
  4  5  1  0
  4  8  2  0
  5  6  1  0
  5  7  2  0
  8  9  1  0
  8 21  1  0
  9 10  1  0
 10 11  2  0
 10 12  1  0
 12 13  1  0
 12 19  2  0
 13 14  1  0
 14 15  1  0
 14 17  2  0
 15 16  2  0
 17 18  1  0
 17 19  1  0
 19 20  1  0
M  END
