
     RDKit          3D

 21 22  0  0  0  0  0  0  0  0999 V2000
   -4.9140   -3.0070    0.8330 N   0  0  0  0  0  0  0  0  0  0  0  0
   -4.8800   -1.7770    0.1360 C   0  0  0  0  0  0  0  0  0  0  0  0
   -5.9210   -1.2820   -0.3600 O   0  0  0  0  0  0  0  0  0  0  0  0
   -3.5740   -1.0910    0.0120 C   0  0  0  0  0  0  0  0  0  0  0  0
   -2.5710   -1.6120    0.5150 O   0  0  0  0  0  0  0  0  0  0  0  0
   -3.4620    0.1410   -0.6700 N   0  0  0  0  0  0  0  0  0  0  0  0
   -2.3020    0.9070   -0.8700 C   0  0  0  0  0  0  0  0  0  0  0  0
   -1.0460    0.5910   -0.4330 C   0  0  0  0  0  0  0  0  0  0  0  0
    0.0710    1.4060   -0.6700 C   0  0  0  0  0  0  0  0  0  0  0  0
    1.3540    1.0340   -0.1940 N   0  0  0  0  0  0  0  0  0  0  0  0
    1.5170   -0.1950    0.5420 C   0  0  0  0  0  0  0  0  0  0  0  0
    2.9570   -0.3440    0.9220 C   0  0  0  0  0  0  0  0  0  0  0  0
    3.6000   -1.2930    1.5960 C   0  0  0  0  0  0  0  0  0  0  0  0
    4.9220   -1.2040    1.8160 C   0  0  0  0  0  0  0  0  0  0  0  0
    5.5480   -0.0510    1.2860 C   0  0  0  0  0  0  0  0  0  0  0  0
    7.2930    0.4170    1.3750 S   0  0  0  0  0  0  0  0  0  0  0  0
    4.2040    0.7940    0.5270 S   0  0  0  0  0  0  0  0  0  0  0  0
   -0.1360    2.5600   -1.3720 C   0  0  0  0  0  0  0  0  0  0  0  0
   -1.3780    2.9240   -1.8340 C   0  0  0  0  0  0  0  0  0  0  0  0
   -2.4260    2.0980   -1.5770 C   0  0  0  0  0  0  0  0  0  0  0  0
   -3.6590    2.4720   -2.0430 F   0  0  0  0  0  0  0  0  0  0  0  0
  1  2  1  0
  2  3  2  0
  2  4  1  0
  4  5  2  0
  4  6  1  0
  6  7  1  0
  7  8  2  0
  7 20  1  0
  8  9  1  0
  9 10  1  0
  9 18  2  0
 10 11  1  0
 11 12  1  0
 12 13  2  0
 12 17  1  0
 13 14  1  0
 14 15  2  0
 15 16  1  0
 15 17  1  0
 18 19  1  0
 19 20  2  0
 20 21  1  0
M  END
