
     RDKit          3D

 21 22  0  0  0  0  0  0  0  0999 V2000
    3.9910    3.0390    0.5470 C   0  0  0  0  0  0  0  0  0  0  0  0
    3.5660    1.6140    0.4690 C   0  0  0  0  0  0  0  0  0  0  0  0
    2.2840    1.0870    0.2770 C   0  0  0  0  0  0  0  0  0  0  0  0
    2.1500   -0.2350    0.2410 C   0  0  0  0  0  0  0  0  0  0  0  0
    0.9000   -0.9490    0.0520 N   0  0  0  0  0  0  0  0  0  0  0  0
   -0.3680   -0.3160   -0.1240 C   0  0  0  0  0  0  0  0  0  0  0  0
   -0.4060    0.9260   -0.1140 O   0  0  0  0  0  0  0  0  0  0  0  0
   -1.5460   -1.0760   -0.3040 N   0  0  0  0  0  0  0  0  0  0  0  0
   -2.8290   -0.5470   -0.4770 C   0  0  0  0  0  0  0  0  0  0  0  0
   -3.8580   -1.3930   -0.9340 C   0  0  0  0  0  0  0  0  0  0  0  0
   -5.1440   -0.9490   -1.1130 C   0  0  0  0  0  0  0  0  0  0  0  0
   -5.4970    0.3630   -0.8510 C   0  0  0  0  0  0  0  0  0  0  0  0
   -6.7610    0.8160   -1.0220 F   0  0  0  0  0  0  0  0  0  0  0  0
   -4.5270    1.1970   -0.4100 C   0  0  0  0  0  0  0  0  0  0  0  0
   -4.8680    2.8910   -0.0450 S   0  0  0  0  0  0  0  0  0  0  0  0
   -3.2070    0.7360   -0.2270 C   0  0  0  0  0  0  0  0  0  0  0  0
    3.3250   -1.0060    0.4010 C   0  0  0  0  0  0  0  0  0  0  0  0
    3.5100   -2.4360    0.4100 C   0  0  0  0  0  0  0  0  0  0  0  0
    4.8510   -2.9120    0.5970 N   0  0  0  0  0  0  0  0  0  0  0  0
    2.6460   -3.3190    0.2740 O   0  0  0  0  0  0  0  0  0  0  0  0
    4.5730    0.2220    0.5960 S   0  0  0  0  0  0  0  0  0  0  0  0
  1  2  1  0
  2  3  2  0
  2 21  1  0
  3  4  1  0
  4  5  1  0
  4 17  2  0
  5  6  1  0
  6  7  2  0
  6  8  1  0
  8  9  1  0
  9 10  2  0
  9 16  1  0
 10 11  1  0
 11 12  2  0
 12 13  1  0
 12 14  1  0
 14 15  1  0
 14 16  2  0
 17 18  1  0
 17 21  1  0
 18 19  1  0
 18 20  2  0
M  END
