
     RDKit          3D

 20 21  0  0  0  0  0  0  0  0999 V2000
    6.7730    0.2830   -1.6790 N   0  0  0  0  0  0  0  0  0  0  0  0
    6.7740    0.0250   -0.2860 C   0  0  0  0  0  0  0  0  0  0  0  0
    7.8850    0.8140    0.6600 S   0  0  0  0  0  0  0  0  0  0  0  0
    5.8430   -0.8850    0.3830 C   0  0  0  0  0  0  0  0  0  0  0  0
    4.4380   -0.4340    0.1910 C   0  0  0  0  0  0  0  0  0  0  0  0
    4.1310    0.5570   -0.5620 O   0  0  0  0  0  0  0  0  0  0  0  0
    3.4100   -1.1250    0.8720 N   0  0  0  0  0  0  0  0  0  0  0  0
    2.0720   -0.7900    0.7800 N   0  0  0  0  0  0  0  0  0  0  0  0
    1.2470   -0.9470   -0.3300 C   0  0  0  0  0  0  0  0  0  0  0  0
    1.7430   -1.4540   -1.4090 O   0  0  0  0  0  0  0  0  0  0  0  0
   -0.1690   -0.5590   -0.3400 C   0  0  0  0  0  0  0  0  0  0  0  0
   -0.9310    0.0480    0.6320 C   0  0  0  0  0  0  0  0  0  0  0  0
   -2.2140    0.3120    0.3360 C   0  0  0  0  0  0  0  0  0  0  0  0
   -2.7370   -0.0040   -0.8590 C   0  0  0  0  0  0  0  0  0  0  0  0
   -1.3260   -0.7430   -1.6800 S   0  0  0  0  0  0  0  0  0  0  0  0
   -3.9910    0.0850   -1.5570 C   0  0  0  0  0  0  0  0  0  0  0  0
   -5.2390    0.0600   -0.7580 C   0  0  0  0  0  0  0  0  0  0  0  0
   -5.2230    1.0960    0.3330 C   0  0  0  0  0  0  0  0  0  0  0  0
   -4.4390    0.4730    1.4790 C   0  0  0  0  0  0  0  0  0  0  0  0
   -3.0500    1.0000    1.4100 C   0  0  0  0  0  0  0  0  0  0  0  0
  1  2  1  0
  2  3  2  0
  2  4  1  0
  4  5  1  0
  5  6  2  0
  5  7  1  0
  7  8  1  0
  8  9  1  0
  9 10  2  0
  9 11  1  0
 11 12  2  0
 11 15  1  0
 12 13  1  0
 13 14  2  0
 13 20  1  0
 14 15  1  0
 14 16  1  0
 16 17  1  0
 17 18  1  0
 18 19  1  0
 19 20  1  0
M  END
