
     RDKit          3D

 48 52  0  0  0  0  0  0  0  0999 V2000
   12.1900   -2.7440    2.1150 C   0  0  0  0  0  0  0  0  0  0  0  0
   11.3300   -3.6780    1.8230 C   0  0  0  0  0  0  0  0  0  0  0  0
   10.1110   -3.4780    1.0590 C   0  0  0  0  0  0  0  0  0  0  0  0
    9.8600   -2.2000    0.6460 O   0  0  0  0  0  0  0  0  0  0  0  0
    9.4940   -1.3010    1.6150 C   0  0  0  0  0  0  0  0  0  0  0  0
    9.3270    0.0870    1.0940 C   0  0  0  0  0  0  0  0  0  0  0  0
    8.2990    0.2020    0.0500 N   0  0  0  0  0  0  0  0  0  0  0  0
    8.5220    0.0780   -1.3200 C   0  0  0  0  0  0  0  0  0  0  0  0
    9.5480   -0.1490   -1.9990 O   0  0  0  0  0  0  0  0  0  0  0  0
    7.2190    0.2750   -1.9380 N   0  0  0  0  0  0  0  0  0  0  0  0
    6.2090    0.5140   -1.0170 C   0  0  0  0  0  0  0  0  0  0  0  0
    4.9280    0.7840   -1.0270 C   0  0  0  0  0  0  0  0  0  0  0  0
    3.9860    0.9630   -2.0670 C   0  0  0  0  0  0  0  0  0  0  0  0
    2.6830    1.2000   -1.7030 C   0  0  0  0  0  0  0  0  0  0  0  0
    2.3930    1.2410   -0.2590 C   0  0  0  0  0  0  0  0  0  0  0  0
    1.6150    1.4370   -2.6300 C   0  0  0  0  0  0  0  0  0  0  0  0
    0.2190    1.6310   -2.2820 C   0  0  0  0  0  0  0  0  0  0  0  0
   -0.6460    1.8750   -3.1860 O   0  0  0  0  0  0  0  0  0  0  0  0
   -0.3790    1.5920   -1.0660 O   0  0  0  0  0  0  0  0  0  0  0  0
   -1.6660    1.7700   -0.7050 C   0  0  0  0  0  0  0  0  0  0  0  0
   -2.7560    1.1320   -1.2150 C   0  0  0  0  0  0  0  0  0  0  0  0
   -4.0700    1.3480   -0.8050 C   0  0  0  0  0  0  0  0  0  0  0  0
   -5.1270    0.5750   -1.5220 C   0  0  0  0  0  0  0  0  0  0  0  0
   -4.2970    2.2630    0.1820 C   0  0  0  0  0  0  0  0  0  0  0  0
   -5.6360    2.5360    0.7010 C   0  0  0  0  0  0  0  0  0  0  0  0
   -6.1720    1.5810    1.7210 C   0  0  0  0  0  0  0  0  0  0  0  0
   -6.3110    0.1890    1.3200 C   0  0  0  0  0  0  0  0  0  0  0  0
   -7.5080   -0.4280    1.2420 C   0  0  0  0  0  0  0  0  0  0  0  0
   -8.8070    0.1610    1.5310 C   0  0  0  0  0  0  0  0  0  0  0  0
   -9.7430   -0.7700    1.3260 C   0  0  0  0  0  0  0  0  0  0  0  0
   -9.1300   -2.0140    0.8950 C   0  0  0  0  0  0  0  0  0  0  0  0
   -9.6590   -3.2480    0.5600 C   0  0  0  0  0  0  0  0  0  0  0  0
  -11.1240   -3.4960    0.6140 C   0  0  0  0  0  0  0  0  0  0  0  0
   -8.8130   -4.2660    0.1730 C   0  0  0  0  0  0  0  0  0  0  0  0
   -7.4470   -4.0750    0.1150 C   0  0  0  0  0  0  0  0  0  0  0  0
   -6.9410   -2.8220    0.4590 C   0  0  0  0  0  0  0  0  0  0  0  0
   -7.7700   -1.8030    0.8440 C   0  0  0  0  0  0  0  0  0  0  0  0
   -3.1970    2.9400    0.7300 C   0  0  0  0  0  0  0  0  0  0  0  0
   -1.9080    2.7070    0.3040 C   0  0  0  0  0  0  0  0  0  0  0  0
   -0.8830    3.4130    0.8930 O   0  0  0  0  0  0  0  0  0  0  0  0
   -1.1520    4.3440    1.9010 C   0  0  0  0  0  0  0  0  0  0  0  0
    1.8490    1.4430   -3.9610 C   0  0  0  0  0  0  0  0  0  0  0  0
    3.1790    1.2080   -4.4720 C   0  0  0  0  0  0  0  0  0  0  0  0
    3.4860    1.1950   -5.6790 O   0  0  0  0  0  0  0  0  0  0  0  0
    4.2510    0.9650   -3.4760 C   0  0  0  0  0  0  0  0  0  0  0  0
    5.3770    0.7690   -3.9510 O   0  0  0  0  0  0  0  0  0  0  0  0
    6.9320    0.4640    0.3090 C   0  0  0  0  0  0  0  0  0  0  0  0
    6.4250    0.6240    1.4490 O   0  0  0  0  0  0  0  0  0  0  0  0
  1  2  2  0
  2  3  1  0
  3  4  1  0
  4  5  1  0
  5  6  1  0
  6  7  1  0
  7  8  1  0
  7 47  1  0
  8  9  2  0
  8 10  1  0
 10 11  1  0
 11 12  2  3
 11 47  1  0
 12 13  1  0
 13 14  2  0
 13 45  1  0
 14 15  1  0
 14 16  1  0
 16 17  1  0
 16 42  2  0
 17 18  2  0
 17 19  1  0
 19 20  1  0
 20 21  2  0
 20 39  1  0
 21 22  1  0
 22 23  1  0
 22 24  2  0
 24 25  1  0
 24 38  1  0
 25 26  1  0
 26 27  1  0
 27 28  2  3
 28 29  1  0
 28 37  1  0
 29 30  2  0
 30 31  1  0
 31 32  2  0
 31 37  1  0
 32 33  1  0
 32 34  1  0
 34 35  2  0
 35 36  1  0
 36 37  2  0
 38 39  2  0
 39 40  1  0
 40 41  1  0
 42 43  1  0
 43 44  2  0
 43 45  1  0
 45 46  2  0
 47 48  2  0
M  END
