
     RDKit          3D

 34 38  0  0  0  0  0  0  0  0999 V2000
    2.0400    3.5340    1.4950 C   0  0  0  0  0  0  0  0  0  0  0  0
    0.7800    3.5100    1.2400 C   0  0  0  0  0  0  0  0  0  0  0  0
    0.2430    2.9220   -0.0200 C   0  0  0  0  0  0  0  0  0  0  0  0
   -1.1150    2.9830   -0.0780 C   0  0  0  0  0  0  0  0  0  0  0  0
   -2.0610    2.5480   -1.0490 C   0  0  0  0  0  0  0  0  0  0  0  0
   -3.2040    1.8880   -1.0140 C   0  0  0  0  0  0  0  0  0  0  0  0
   -3.9330    1.3590    0.0890 C   0  0  0  0  0  0  0  0  0  0  0  0
   -3.6550    0.0550    0.6500 N   0  0  0  0  0  0  0  0  0  0  0  0
   -4.7600   -0.2820    1.5820 C   0  0  0  0  0  0  0  0  0  0  0  0
   -4.8090    0.5760    2.7980 C   0  0  0  0  0  0  0  0  0  0  0  0
   -2.4660   -0.6100    0.2700 C   0  0  0  0  0  0  0  0  0  0  0  0
   -1.5030    0.0370    0.9910 N   0  0  0  0  0  0  0  0  0  0  0  0
   -0.2380   -0.1860    0.9730 C   0  0  0  0  0  0  0  0  0  0  0  0
    0.3940   -1.1580    0.1920 C   0  0  0  0  0  0  0  0  0  0  0  0
   -0.5200   -1.8930   -0.5990 C   0  0  0  0  0  0  0  0  0  0  0  0
   -0.1980   -2.9320   -1.5150 C   0  0  0  0  0  0  0  0  0  0  0  0
   -1.0500   -3.6330   -2.2990 C   0  0  0  0  0  0  0  0  0  0  0  0
   -2.3620   -3.3580   -2.2460 C   0  0  0  0  0  0  0  0  0  0  0  0
   -2.7230   -2.3760   -1.3880 C   0  0  0  0  0  0  0  0  0  0  0  0
   -1.9230   -1.5840   -0.5250 C   0  0  0  0  0  0  0  0  0  0  0  0
    1.9070   -1.2120    0.2380 C   0  0  0  0  0  0  0  0  0  0  0  0
    2.7150   -1.8850    1.0930 N   0  0  0  0  0  0  0  0  0  0  0  0
    3.9890   -2.0360    1.1540 C   0  0  0  0  0  0  0  0  0  0  0  0
    4.6590   -2.7960    2.1480 N   0  0  0  0  0  0  0  0  0  0  0  0
    4.7460   -1.4130    0.1840 C   0  0  0  0  0  0  0  0  0  0  0  0
    6.0740   -1.3290   -0.1150 C   0  0  0  0  0  0  0  0  0  0  0  0
    6.1650   -0.5460   -1.2430 C   0  0  0  0  0  0  0  0  0  0  0  0
    4.9470   -0.1550   -1.6340 N   0  0  0  0  0  0  0  0  0  0  0  0
    3.9850   -0.6550   -0.7910 C   0  0  0  0  0  0  0  0  0  0  0  0
    2.6280   -0.5560   -0.7700 N   0  0  0  0  0  0  0  0  0  0  0  0
    1.9530    0.1860   -1.7970 C   0  0  0  0  0  0  0  0  0  0  0  0
    1.3990    1.3810   -1.8820 C   0  0  0  0  0  0  0  0  0  0  0  0
    1.2030    2.5100   -1.0200 C   0  0  0  0  0  0  0  0  0  0  0  0
    2.1880    3.4470   -1.2040 O   0  0  0  0  0  0  0  0  0  0  0  0
  1  2  2  0
  2  3  1  0
  3  4  2  0
  3 33  1  0
  4  5  1  0
  5  6  2  0
  6  7  1  0
  7  8  1  0
  8  9  1  0
  8 11  1  0
  9 10  1  0
 11 12  2  0
 11 20  1  0
 12 13  1  0
 13 14  2  0
 14 15  1  0
 14 21  1  0
 15 16  2  0
 15 20  1  0
 16 17  1  0
 17 18  2  0
 18 19  1  0
 19 20  2  0
 21 22  2  0
 21 30  1  0
 22 23  1  0
 23 24  1  0
 23 25  2  0
 25 26  1  0
 25 29  1  0
 26 27  2  0
 27 28  1  0
 28 29  2  0
 29 30  1  0
 30 31  1  0
 31 32  2  0
 32 33  1  0
 33 34  2  0
M  END
