
     RDKit          3D

 47 51  0  0  0  0  0  0  0  0999 V2000
    7.8170    5.7030    1.5170 C   0  0  0  0  0  0  0  0  0  0  0  0
    6.9880    5.3910    2.6080 O   0  0  0  0  0  0  0  0  0  0  0  0
    5.6560    4.9770    2.4010 C   0  0  0  0  0  0  0  0  0  0  0  0
    4.8390    4.6720    3.4590 C   0  0  0  0  0  0  0  0  0  0  0  0
    3.5370    4.2670    3.2500 C   0  0  0  0  0  0  0  0  0  0  0  0
    3.0390    4.1640    1.9630 C   0  0  0  0  0  0  0  0  0  0  0  0
    1.6410    3.7190    1.7540 C   0  0  0  0  0  0  0  0  0  0  0  0
    1.5780    2.5720    0.9480 O   0  0  0  0  0  0  0  0  0  0  0  0
    0.3410    2.0170    0.6710 C   0  0  0  0  0  0  0  0  0  0  0  0
   -0.8080    2.5470    1.1510 C   0  0  0  0  0  0  0  0  0  0  0  0
   -2.0470    1.9550    0.8530 C   0  0  0  0  0  0  0  0  0  0  0  0
   -2.1490    0.8250    0.0760 C   0  0  0  0  0  0  0  0  0  0  0  0
   -3.4310    0.1880   -0.2480 C   0  0  2  0  0  0  0  0  0  0  0  0
   -4.5780    1.1220   -0.0870 C   0  0  0  0  0  0  0  0  0  0  0  0
   -3.5940   -0.9250    0.6610 N   0  0  0  0  0  0  0  0  0  0  0  0
   -3.9420   -0.9860    2.0000 C   0  0  0  0  0  0  0  0  0  0  0  0
   -4.1950    0.0690    2.8290 C   0  0  0  0  0  0  0  0  0  0  0  0
   -4.5600   -0.0920    4.1790 C   0  0  0  0  0  0  0  0  0  0  0  0
   -4.6730   -1.3560    4.7130 C   0  0  0  0  0  0  0  0  0  0  0  0
   -5.0560   -1.5340    6.1150 C   0  0  0  0  0  0  0  0  0  0  0  0
   -5.2740   -0.5180    6.8350 O   0  0  0  0  0  0  0  0  0  0  0  0
   -4.4260   -2.4370    3.9060 C   0  0  0  0  0  0  0  0  0  0  0  0
   -4.5620   -3.7950    4.4980 C   0  0  0  0  0  0  0  0  0  0  0  0
   -4.0700   -2.2420    2.5850 C   0  0  0  0  0  0  0  0  0  0  0  0
   -3.4360   -0.3990   -1.5900 N   0  0  0  0  0  0  0  0  0  0  0  0
   -4.6430   -1.1640   -1.7360 C   0  0  0  0  0  0  0  0  0  0  0  0
   -3.1310    0.4910   -2.6480 C   0  0  0  0  0  0  0  0  0  0  0  0
   -3.1220   -0.1040   -4.0180 C   0  0  1  0  0  0  0  0  0  0  0  0
   -4.4790   -0.4340   -4.5750 C   0  0  0  0  0  0  0  0  0  0  0  0
   -4.2320   -0.2810   -6.0860 C   0  0  0  0  0  0  0  0  0  0  0  0
   -2.8620    0.3930   -6.1730 C   0  0  0  0  0  0  0  0  0  0  0  0
   -2.7610    0.9530   -4.9000 O   0  0  0  0  0  0  0  0  0  0  0  0
   -0.9470    0.3310   -0.3830 C   0  0  0  0  0  0  0  0  0  0  0  0
    0.3120    0.8440   -0.1460 C   0  0  0  0  0  0  0  0  0  0  0  0
    1.4380    0.3850   -0.5830 O   0  0  0  0  0  0  0  0  0  0  0  0
    2.4810   -0.1940   -1.0920 C   0  0  0  0  0  0  0  0  0  0  0  0
    2.8090   -1.6150   -0.7220 C   0  0  0  0  0  0  0  0  0  0  0  0
    2.1270   -2.2890    0.0600 O   0  0  0  0  0  0  0  0  0  0  0  0
    3.9360   -2.1800   -1.2950 O   0  0  0  0  0  0  0  0  0  0  0  0
    4.3950   -3.4830   -1.0640 C   0  0  2  0  0  0  0  0  0  0  0  0
    5.8540   -3.3810   -0.6180 C   0  0  0  0  0  0  0  0  0  0  0  0
    6.3210   -4.7440   -0.1830 C   0  0  0  0  0  0  0  0  0  0  0  0
    5.8540   -5.7140   -1.0540 O   0  0  0  0  0  0  0  0  0  0  0  0
    5.5810   -5.2370   -2.3260 C   0  0  0  0  0  0  0  0  0  0  0  0
    4.4260   -4.2730   -2.3780 C   0  0  0  0  0  0  0  0  0  0  0  0
    3.8460    4.4670    0.9050 C   0  0  0  0  0  0  0  0  0  0  0  0
    5.1570    4.8740    1.1240 C   0  0  0  0  0  0  0  0  0  0  0  0
  1  2  1  0
  2  3  1  0
  3  4  2  0
  3 47  1  0
  4  5  1  0
  5  6  2  0
  6  7  1  0
  6 46  1  0
  7  8  1  0
  8  9  1  0
  9 10  2  0
  9 34  1  0
 10 11  1  0
 11 12  2  0
 12 13  1  0
 12 33  1  0
 13 14  1  6
 13 15  1  0
 13 25  1  0
 15 16  1  0
 16 17  2  0
 16 24  1  0
 17 18  1  0
 18 19  2  0
 19 20  1  0
 19 22  1  0
 20 21  2  0
 22 23  1  0
 22 24  2  0
 25 26  1  0
 25 27  1  0
 28 27  1  1
 28 29  1  0
 28 32  1  0
 29 30  1  0
 30 31  1  0
 31 32  1  0
 33 34  2  0
 34 35  1  0
 35 36  1  0
 36 37  1  0
 37 38  2  0
 37 39  1  0
 40 39  1  6
 40 41  1  0
 40 45  1  0
 41 42  1  0
 42 43  1  0
 43 44  1  0
 44 45  1  0
 46 47  2  0
M  END
