
     RDKit          3D

 48 53  0  0  0  0  0  0  0  0999 V2000
   -4.9120   -2.6620    5.3240 C   0  0  0  0  0  0  0  0  0  0  0  0
   -5.2170   -2.5770    3.9800 C   0  0  0  0  0  0  0  0  0  0  0  0
   -5.5020   -2.5050    2.7440 C   0  0  0  0  0  0  0  0  0  0  0  0
   -4.3530   -2.2260    1.8430 N   0  0  0  0  0  0  0  0  0  0  0  0
   -4.4860   -2.2570    0.4150 C   0  0  0  0  0  0  0  0  0  0  0  0
   -5.5880   -2.4020   -0.0860 O   0  0  0  0  0  0  0  0  0  0  0  0
   -3.2110   -2.1310   -0.2600 N   0  0  0  0  0  0  0  0  0  0  0  0
   -2.3970   -1.1130   -0.1060 C   0  0  0  0  0  0  0  0  0  0  0  0
   -2.5730   -0.0520    0.6220 N   0  0  0  0  0  0  0  0  0  0  0  0
   -3.8860    0.6260    0.6860 C   0  0  0  0  0  0  0  0  0  0  0  0
   -3.7960    1.8570   -0.1880 C   0  0  0  0  0  0  0  0  0  0  0  0
   -4.0690    1.7510   -1.5280 C   0  0  0  0  0  0  0  0  0  0  0  0
   -4.0360    2.8240   -2.3350 C   0  0  0  0  0  0  0  0  0  0  0  0
   -3.7020    4.1450   -1.8580 C   0  0  0  0  0  0  0  0  0  0  0  0
   -3.4430    4.1810   -0.5260 C   0  0  0  0  0  0  0  0  0  0  0  0
   -2.9840    5.5240   -0.0300 C   0  0  0  0  0  0  0  0  0  0  0  0
   -3.4870    3.0830    0.3030 C   0  0  0  0  0  0  0  0  0  0  0  0
   -1.5690    0.5700    1.2060 N   0  0  0  0  0  0  0  0  0  0  0  0
   -0.3010    0.1700    1.0720 C   0  0  0  0  0  0  0  0  0  0  0  0
    0.6660    0.8590    1.9260 C   0  0  0  0  0  0  0  0  0  0  0  0
    0.3400    0.7170    3.3300 C   0  0  0  0  0  0  0  0  0  0  0  0
    0.9260    1.5280    4.2870 C   0  0  0  0  0  0  0  0  0  0  0  0
    1.8420    2.4740    3.8670 C   0  0  0  0  0  0  0  0  0  0  0  0
    2.1720    2.6190    2.5080 C   0  0  0  0  0  0  0  0  0  0  0  0
    1.5490    1.7800    1.6120 C   0  0  0  0  0  0  0  0  0  0  0  0
    2.1020    1.6240    0.1960 C   0  0  0  0  0  0  0  0  0  0  0  0
    1.5200    2.1300   -0.7030 O   0  0  0  0  0  0  0  0  0  0  0  0
    3.3070    0.8430    0.2160 N   0  0  0  0  0  0  0  0  0  0  0  0
    4.0440    0.4220   -0.9230 C   0  0  0  0  0  0  0  0  0  0  0  0
    4.3590   -0.9980   -0.8350 C   0  0  0  0  0  0  0  0  0  0  0  0
    5.1490   -1.5450   -1.8200 C   0  0  0  0  0  0  0  0  0  0  0  0
    5.6470   -0.8240   -2.8650 C   0  0  0  0  0  0  0  0  0  0  0  0
    5.3280    0.5580   -2.9290 C   0  0  0  0  0  0  0  0  0  0  0  0
    4.5270    1.0540   -1.8990 C   0  0  0  0  0  0  0  0  0  0  0  0
    4.2460    2.5630   -2.0610 C   0  0  0  0  0  0  0  0  0  0  0  0
    3.7960    0.3170    1.5300 C   0  0  2  0  0  0  0  0  0  0  0  0
    5.0190    1.1440    2.0560 C   0  0  0  0  0  0  0  0  0  0  0  0
    5.1030   -0.2920    1.7160 C   0  0  0  0  0  0  0  0  0  0  0  0
   -0.0050   -0.9200    0.2790 C   0  0  0  0  0  0  0  0  0  0  0  0
    1.1160   -1.3050    0.0910 O   0  0  0  0  0  0  0  0  0  0  0  0
   -1.0740   -1.5840   -0.3020 N   0  0  0  0  0  0  0  0  0  0  0  0
   -0.8860   -2.8670   -0.8290 C   0  0  0  0  0  0  0  0  0  0  0  0
   -0.3820   -3.2430   -2.1360 C   0  0  0  0  0  0  0  0  0  0  0  0
   -1.0720   -2.8400   -3.3360 C   0  0  0  0  0  0  0  0  0  0  0  0
   -0.6740   -3.5790   -4.4630 C   0  0  0  0  0  0  0  0  0  0  0  0
    0.1950   -4.5460   -4.5710 C   0  0  0  0  0  0  0  0  0  0  0  0
    0.9070   -4.9380   -3.3310 C   0  0  0  0  0  0  0  0  0  0  0  0
    0.5220   -4.2240   -2.2320 C   0  0  0  0  0  0  0  0  0  0  0  0
  1  2  3  0
  2  3  1  0
  3  4  1  0
  4  5  1  0
  5  6  2  0
  5  7  1  0
  7  8  2  3
  8  9  1  0
  8 41  1  0
  9 10  1  0
  9 18  1  0
 10 11  1  0
 11 12  2  0
 11 17  1  0
 12 13  1  0
 13 14  2  0
 14 15  1  0
 15 16  1  0
 15 17  2  0
 18 19  2  0
 19 20  1  0
 19 39  1  0
 20 21  2  0
 20 25  1  0
 21 22  1  0
 22 23  2  0
 23 24  1  0
 24 25  2  0
 25 26  1  0
 26 27  2  0
 26 28  1  0
 28 29  1  0
 36 28  1  6
 29 30  2  0
 29 34  1  0
 30 31  1  0
 31 32  2  0
 32 33  1  0
 33 34  2  0
 34 35  1  0
 36 37  1  0
 36 38  1  0
 37 38  1  0
 39 40  2  0
 39 41  1  0
 41 42  1  0
 42 43  1  0
 43 44  2  0
 43 48  1  0
 44 45  1  0
 45 46  2  0
 46 47  1  0
 47 48  2  0
M  END
