
     RDKit          3D

 47 53  0  0  0  0  0  0  0  0999 V2000
   -8.6320    4.6090   -1.8660 C   0  0  0  0  0  0  0  0  0  0  0  0
   -8.8600    3.8370   -0.7160 O   0  0  0  0  0  0  0  0  0  0  0  0
   -7.7700    3.2650   -0.0710 C   0  0  0  0  0  0  0  0  0  0  0  0
   -7.9520    2.4990    1.0660 C   0  0  0  0  0  0  0  0  0  0  0  0
   -6.8770    1.9290    1.7110 C   0  0  0  0  0  0  0  0  0  0  0  0
   -5.5710    2.1030    1.2440 C   0  0  0  0  0  0  0  0  0  0  0  0
   -4.4590    1.4960    1.9640 C   0  0  0  0  0  0  0  0  0  0  0  0
   -3.9490    0.3380    1.2680 N   0  0  0  0  0  0  0  0  0  0  0  0
   -2.8340    0.4940    0.4120 C   0  0  0  0  0  0  0  0  0  0  0  0
   -2.2930    1.6530    0.3220 O   0  0  0  0  0  0  0  0  0  0  0  0
   -2.3040   -0.6340   -0.3500 C   0  0  1  0  0  0  0  0  0  0  0  0
   -3.2420   -1.0880   -1.4890 C   0  0  0  0  0  0  0  0  0  0  0  0
   -2.6840   -2.3990   -1.8950 C   0  0  0  0  0  0  0  0  0  0  0  0
   -3.4570   -3.5040   -2.1570 C   0  0  0  0  0  0  0  0  0  0  0  0
   -2.8990   -4.7220   -2.5270 C   0  0  0  0  0  0  0  0  0  0  0  0
   -1.5270   -4.8140   -2.6310 C   0  0  0  0  0  0  0  0  0  0  0  0
   -0.7300   -3.7260   -2.3750 C   0  0  0  0  0  0  0  0  0  0  0  0
   -1.3220   -2.5070   -2.0030 C   0  0  0  0  0  0  0  0  0  0  0  0
   -0.4750   -1.3310   -1.7360 C   0  0  0  0  0  0  0  0  0  0  0  0
   -1.0540   -0.2600   -1.0160 N   0  0  2  0  0  0  0  0  0  0  0  0
   -0.1590    0.3570   -0.0780 C   0  0  0  0  0  0  0  0  0  0  0  0
    1.2240   -0.2230   -0.1810 C   0  0  0  0  0  0  0  0  0  0  0  0
    1.7050   -1.1340    0.7270 C   0  0  0  0  0  0  0  0  0  0  0  0
    2.9770   -1.6410    0.5970 C   0  0  0  0  0  0  0  0  0  0  0  0
    3.8320   -1.2770   -0.4280 C   0  0  0  0  0  0  0  0  0  0  0  0
    5.1940   -1.8440   -0.5320 C   0  0  0  0  0  0  0  0  0  0  0  0
    6.2140   -1.0500    0.1000 N   0  0  0  0  0  0  0  0  0  0  0  0
    6.5340   -1.1970    1.5240 C   0  0  0  0  0  0  0  0  0  0  0  0
    6.9260   -0.1040   -0.6680 C   0  0  0  0  0  0  0  0  0  0  0  0
    6.6640    0.0270   -1.9000 O   0  0  0  0  0  0  0  0  0  0  0  0
    7.9690    0.7190   -0.0160 C   0  0  1  0  0  0  0  0  0  0  0  0
    8.6480    1.6400   -1.0400 C   0  0  0  0  0  0  0  0  0  0  0  0
    8.7400    2.9370   -0.3440 N   0  0  0  0  0  0  0  0  0  0  0  0
    9.5780    2.6810    0.8210 C   0  0  0  0  0  0  0  0  0  0  0  0
    8.6570    2.0550    1.8770 C   0  0  0  0  0  0  0  0  0  0  0  0
    7.4740    1.6760    1.0060 C   0  0  1  0  0  0  0  0  0  0  0  0
    7.3640    2.9780    0.1930 C   0  0  0  0  0  0  0  0  0  0  0  0
    3.3430   -0.3680   -1.3300 C   0  0  0  0  0  0  0  0  0  0  0  0
    2.0550    0.1580   -1.2140 C   0  0  0  0  0  0  0  0  0  0  0  0
   -4.5980   -0.9030    1.5170 C   0  0  0  0  0  0  0  0  0  0  0  0
   -5.8510   -1.2410    1.0620 C   0  0  0  0  0  0  0  0  0  0  0  0
   -6.4770   -2.4400    1.3240 C   0  0  0  0  0  0  0  0  0  0  0  0
   -5.8210   -3.3810    2.0920 C   0  0  0  0  0  0  0  0  0  0  0  0
   -4.5580   -3.0830    2.5690 C   0  0  0  0  0  0  0  0  0  0  0  0
   -3.9560   -1.8810    2.2940 C   0  0  0  0  0  0  0  0  0  0  0  0
   -5.4200    2.8620    0.1220 C   0  0  0  0  0  0  0  0  0  0  0  0
   -6.5050    3.4380   -0.5310 C   0  0  0  0  0  0  0  0  0  0  0  0
  1  2  1  0
  2  3  1  0
  3  4  2  0
  3 47  1  0
  4  5  1  0
  5  6  2  0
  6  7  1  0
  6 46  1  0
  7  8  1  0
  8  9  1  0
  8 40  1  0
  9 10  2  0
 11  9  1  6
 11 12  1  0
 11 20  1  0
 12 13  1  0
 13 14  2  0
 13 18  1  0
 14 15  1  0
 15 16  2  0
 16 17  1  0
 17 18  2  0
 18 19  1  0
 19 20  1  0
 20 21  1  1
 21 22  1  0
 22 23  2  0
 22 39  1  0
 23 24  1  0
 24 25  2  0
 25 26  1  0
 25 38  1  0
 26 27  1  0
 27 28  1  0
 27 29  1  0
 29 30  2  0
 31 29  1  6
 31 32  1  0
 31 36  1  0
 32 33  1  0
 33 34  1  0
 33 37  1  0
 34 35  1  0
 36 35  1  1
 36 37  1  0
 38 39  2  0
 40 41  2  0
 40 45  1  0
 41 42  1  0
 42 43  2  0
 43 44  1  0
 44 45  2  0
 46 47  2  0
M  CHG  1  20   1
M  END
