
     RDKit          3D

 40 43  0  0  0  0  0  0  0  0999 V2000
    4.5670    3.7520    1.3510 C   0  0  0  0  0  0  0  0  0  0  0  0
    4.3340    2.4260    0.9880 O   0  0  0  0  0  0  0  0  0  0  0  0
    3.0560    1.9150    0.7950 C   0  0  0  0  0  0  0  0  0  0  0  0
    1.9230    2.6990    0.9620 C   0  0  0  0  0  0  0  0  0  0  0  0
    0.6320    2.1850    0.7650 C   0  0  0  0  0  0  0  0  0  0  0  0
    0.4260    0.8960    0.4000 C   0  0  0  0  0  0  0  0  0  0  0  0
   -0.8180    0.2210    0.1310 C   0  0  0  0  0  0  0  0  0  0  0  0
   -1.4880    0.4060   -1.0420 C   0  0  0  0  0  0  0  0  0  0  0  0
   -1.0260    1.4150   -1.9820 C   0  0  0  0  0  0  0  0  0  0  0  0
   -0.4570    1.1180   -3.0630 O   0  0  0  0  0  0  0  0  0  0  0  0
   -1.2320    2.7790   -1.6710 N   0  0  0  0  0  0  0  0  0  0  0  0
   -0.8590    3.9010   -2.3990 C   0  0  0  0  0  0  0  0  0  0  0  0
   -1.1560    5.1090   -1.9370 C   0  0  0  0  0  0  0  0  0  0  0  0
   -1.8300    5.2200   -0.7360 F   0  0  0  0  0  0  0  0  0  0  0  0
   -0.8450    6.3790   -2.6040 C   0  0  0  0  0  0  0  0  0  0  0  0
   -0.0800    6.1990   -3.7510 O   0  0  0  0  0  0  0  0  0  0  0  0
    0.2360    4.9640   -4.2490 C   0  0  0  0  0  0  0  0  0  0  0  0
   -0.1170    3.8420   -3.6340 C   0  0  0  0  0  0  0  0  0  0  0  0
   -2.6240   -0.3630   -1.2790 C   0  0  0  0  0  0  0  0  0  0  0  0
   -3.0230   -1.2780   -0.3150 C   0  0  0  0  0  0  0  0  0  0  0  0
   -4.2160   -2.1160   -0.5930 C   0  0  0  0  0  0  0  0  0  0  0  0
   -3.8710   -3.4350   -1.0120 N   0  0  0  0  0  0  0  0  0  0  0  0
   -5.0650   -4.1970   -1.3000 C   0  0  0  0  0  0  0  0  0  0  0  0
   -2.9070   -3.4270   -2.0790 C   0  0  0  0  0  0  0  0  0  0  0  0
   -2.3420   -1.4360    0.8350 N   0  0  0  0  0  0  0  0  0  0  0  0
   -1.2440   -0.7100    1.0910 C   0  0  0  0  0  0  0  0  0  0  0  0
   -0.5100   -0.8740    2.2960 N   0  0  0  0  0  0  0  0  0  0  0  0
   -0.8910   -1.8390    3.2950 C   0  0  0  0  0  0  0  0  0  0  0  0
   -2.0260   -1.7060    3.9230 C   0  0  0  0  0  0  0  0  0  0  0  0
   -2.5420   -2.6000    4.9520 C   0  0  0  0  0  0  0  0  0  0  0  0
   -1.5710   -3.8630    5.3060 S   0  0  0  0  0  0  0  0  0  0  0  0
   -0.0300   -3.8990    4.3410 C   0  0  0  0  0  0  0  0  0  0  0  0
    0.0820   -2.9090    3.4990 C   0  0  0  0  0  0  0  0  0  0  0  0
    1.5940    0.1250    0.2400 C   0  0  0  0  0  0  0  0  0  0  0  0
    2.8420    0.6150    0.4300 C   0  0  0  0  0  0  0  0  0  0  0  0
    3.9330   -0.2320    0.2530 O   0  0  0  0  0  0  0  0  0  0  0  0
    3.7660   -1.5930   -0.0980 C   0  0  0  0  0  0  0  0  0  0  0  0
    5.1140   -2.2390   -0.2250 C   0  0  0  0  0  0  0  0  0  0  0  0
    5.9360   -1.5900   -1.3180 C   0  0  0  0  0  0  0  0  0  0  0  0
    6.1970    0.1330   -1.0010 Cl  0  0  0  0  0  0  0  0  0  0  0  0
  1  2  1  0
  2  3  1  0
  3  4  2  0
  3 35  1  0
  4  5  1  0
  5  6  2  0
  6  7  1  0
  6 34  1  0
  7  8  1  0
  7 26  2  0
  8  9  1  0
  8 19  2  0
  9 10  2  0
  9 11  1  0
 11 12  1  0
 12 13  2  0
 12 18  1  0
 13 14  1  0
 13 15  1  0
 15 16  1  0
 16 17  1  0
 17 18  2  0
 19 20  1  0
 20 21  1  0
 20 25  2  0
 21 22  1  0
 22 23  1  0
 22 24  1  0
 25 26  1  0
 26 27  1  0
 27 28  1  0
 28 29  2  0
 28 33  1  0
 29 30  1  0
 30 31  2  0
 31 32  1  0
 32 33  2  0
 34 35  2  0
 35 36  1  0
 36 37  1  0
 37 38  1  0
 38 39  1  0
 39 40  1  0
M  CHG  1  25   1
M  END
