
     RDKit          3D

 48 55  0  0  0  0  0  0  0  0999 V2000
   -5.9410   -4.3090   -0.7700 C   0  0  0  0  0  0  0  0  0  0  0  0
   -4.7820   -3.7960   -0.0310 C   0  0  0  0  0  0  0  0  0  0  0  0
   -4.2090   -2.4850   -0.5100 C   0  0  1  0  0  0  0  0  0  0  0  0
   -3.7110   -3.0490   -1.9610 C   0  0  0  0  0  0  0  0  0  0  0  0
   -5.1940   -1.5330   -1.0430 C   0  0  0  0  0  0  0  0  0  0  0  0
   -6.0300   -1.7570   -2.1330 C   0  0  0  0  0  0  0  0  0  0  0  0
   -6.8920   -0.8080   -2.6470 C   0  0  0  0  0  0  0  0  0  0  0  0
   -6.9570    0.4210   -2.0810 C   0  0  0  0  0  0  0  0  0  0  0  0
   -6.1510    0.6880   -1.0000 C   0  0  0  0  0  0  0  0  0  0  0  0
   -5.2920   -0.2480   -0.4960 C   0  0  0  0  0  0  0  0  0  0  0  0
   -4.5240    0.1100    0.6250 N   0  0  0  0  0  0  0  0  0  0  0  0
   -3.2260   -0.2580    0.8490 C   0  0  0  0  0  0  0  0  0  0  0  0
   -2.9230   -0.9620    1.8600 O   0  0  0  0  0  0  0  0  0  0  0  0
   -2.1340    0.1500   -0.0400 C   0  0  0  0  0  0  0  0  0  0  0  0
   -0.8600   -0.6860    0.0800 C   0  0  1  0  0  0  0  0  0  0  0  0
   -0.2920   -0.7820    1.4560 C   0  0  0  0  0  0  0  0  0  0  0  0
   -0.5160   -1.5580   -1.0870 C   0  0  0  0  0  0  0  0  0  0  0  0
    0.1810   -0.2660   -0.9270 C   0  0  2  0  0  0  0  0  0  0  0  0
    1.6010   -0.3720   -0.5610 C   0  0  0  0  0  0  0  0  0  0  0  0
    2.3190   -1.4870   -0.8290 N   0  0  0  0  0  0  0  0  0  0  0  0
    3.6290   -1.5580   -0.5530 C   0  0  0  0  0  0  0  0  0  0  0  0
    4.2780   -0.4730    0.0220 C   0  0  0  0  0  0  0  0  0  0  0  0
    3.5710    0.6510    0.3000 C   0  0  0  0  0  0  0  0  0  0  0  0
    4.2400    1.7150    0.9060 C   0  0  0  0  0  0  0  0  0  0  0  0
    3.4370    2.8390    1.1880 C   0  0  0  0  0  0  0  0  0  0  0  0
    2.1100    2.9020    0.8990 C   0  0  0  0  0  0  0  0  0  0  0  0
    1.4830    1.8370    0.3040 C   0  0  0  0  0  0  0  0  0  0  0  0
    2.2350    0.7250    0.0170 C   0  0  0  0  0  0  0  0  0  0  0  0
    5.6380    1.6880    1.2700 C   0  0  0  0  0  0  0  0  0  0  0  0
    6.4040    0.5940    0.6700 N   0  0  0  0  0  0  0  0  0  0  0  0
    7.7910    0.8100    0.5550 C   0  0  0  0  0  0  0  0  0  0  0  0
    8.1430    2.0140    0.9670 O   0  0  0  0  0  0  0  0  0  0  0  0
    8.8460    0.0000    0.0910 C   0  0  0  0  0  0  0  0  0  0  0  0
    8.7040   -1.2980   -0.3150 C   0  0  0  0  0  0  0  0  0  0  0  0
    9.8070   -2.0400   -0.7720 C   0  0  0  0  0  0  0  0  0  0  0  0
   11.0450   -1.4970   -0.8250 C   0  0  0  0  0  0  0  0  0  0  0  0
   11.2180   -0.1690   -0.4120 C   0  0  0  0  0  0  0  0  0  0  0  0
   12.4930    0.3210   -0.4870 O   0  0  0  0  0  0  0  0  0  0  0  0
   12.9560    1.5840   -0.1470 C   0  0  0  0  0  0  0  0  0  0  0  0
   10.1550    0.5530    0.0300 C   0  0  0  0  0  0  0  0  0  0  0  0
    5.7400   -0.5860    0.2360 C   0  0  0  0  0  0  0  0  0  0  0  0
   -5.1210    1.0630    1.5720 C   0  0  0  0  0  0  0  0  0  0  0  0
   -5.6020    2.2680    0.7660 C   0  0  2  0  0  0  0  0  0  0  0  0
   -6.3570    3.1690    1.7180 C   0  0  0  0  0  0  0  0  0  0  0  0
   -7.3330    3.9530    1.0230 N   0  0  0  0  0  0  0  0  0  0  0  0
   -8.3910    3.0550    0.6230 C   0  0  0  0  0  0  0  0  0  0  0  0
   -7.8250    1.7450    0.1680 C   0  0  0  0  0  0  0  0  0  0  0  0
   -6.4150    1.9210   -0.3250 N   0  0  2  0  0  0  0  0  0  0  0  0
  1  2  1  0
  2  3  1  0
  3  4  1  6
  3  5  1  0
  5  6  2  0
  5 10  1  0
  6  7  1  0
  7  8  2  0
  8  9  1  0
  9 10  2  0
  9 48  1  0
 10 11  1  0
 11 12  1  0
 11 42  1  0
 12 13  2  0
 12 14  1  0
 14 15  1  0
 15 16  1  1
 15 17  1  0
 15 18  1  0
 17 18  1  0
 18 19  1  1
 19 20  2  0
 19 28  1  0
 20 21  1  0
 21 22  2  0
 22 23  1  0
 22 41  1  0
 23 24  2  0
 23 28  1  0
 24 25  1  0
 24 29  1  0
 25 26  2  0
 26 27  1  0
 27 28  2  0
 29 30  1  0
 30 31  1  0
 30 41  1  0
 31 32  2  0
 31 33  1  0
 33 34  2  0
 33 40  1  0
 34 35  1  0
 35 36  2  0
 36 37  1  0
 37 38  1  0
 37 40  2  0
 38 39  1  0
 43 42  1  1
 43 44  1  0
 43 48  1  0
 44 45  1  0
 45 46  1  0
 46 47  1  0
 48 47  1  1
M  CHG  1  48   1
M  END
