
     RDKit          3D

 40 44  0  0  0  0  0  0  0  0999 V2000
   -6.5920    4.1780    1.1420 C   0  0  0  0  0  0  0  0  0  0  0  0
   -5.2180    3.9160    0.5590 C   0  0  0  0  0  0  0  0  0  0  0  0
   -4.7900    2.6140    0.4810 C   0  0  0  0  0  0  0  0  0  0  0  0
   -3.5170    2.2710   -0.0510 C   0  0  0  0  0  0  0  0  0  0  0  0
   -2.9640    1.0850   -0.1930 N   0  0  0  0  0  0  0  0  0  0  0  0
   -1.8620    0.8500   -0.6590 C   0  0  0  0  0  0  0  0  0  0  0  0
   -1.0390   -0.2960   -0.9240 N   0  0  0  0  0  0  0  0  0  0  0  0
    0.1380   -0.1600   -1.5240 O   0  0  0  0  0  0  0  0  0  0  0  0
    1.2340   -0.3590   -0.7120 C   0  0  0  0  0  0  0  0  0  0  0  0
    2.4800   -0.1730   -1.4980 C   0  0  0  0  0  0  0  0  0  0  0  0
    2.4130    0.1250   -2.7110 O   0  0  0  0  0  0  0  0  0  0  0  0
    3.7750   -0.3210   -0.9180 N   0  0  0  0  0  0  0  0  0  0  0  0
    3.8750   -0.6640    0.4700 C   0  0  0  0  0  0  0  0  0  0  0  0
    5.0390    0.0320    1.1170 C   0  0  0  0  0  0  0  0  0  0  0  0
    6.1780    0.0820    0.4200 C   0  0  0  0  0  0  0  0  0  0  0  0
    7.3310    0.7530    1.0210 C   0  0  0  0  0  0  0  0  0  0  0  0
    8.5430   -0.0970    1.2330 C   0  0  0  0  0  0  0  0  0  0  0  0
    9.1170   -0.6710    0.0590 N   0  0  0  0  0  0  0  0  0  0  0  0
    6.2050   -0.5320   -0.9220 C   0  0  0  0  0  0  0  0  0  0  0  0
    4.9700   -0.1330   -1.7020 C   0  0  0  0  0  0  0  0  0  0  0  0
   -1.5220   -1.5480   -0.5280 C   0  0  0  0  0  0  0  0  0  0  0  0
   -0.8300   -2.6130   -0.7370 O   0  0  0  0  0  0  0  0  0  0  0  0
   -2.7330   -1.7930    0.1010 O   0  0  0  0  0  0  0  0  0  0  0  0
   -3.1980   -3.0690    0.4900 C   0  0  0  0  0  0  0  0  0  0  0  0
   -3.3570   -4.0300   -0.6640 C   0  0  0  0  0  0  0  0  0  0  0  0
   -3.8530   -5.3130   -0.0480 C   0  0  0  0  0  0  0  0  0  0  0  0
   -4.9740   -5.9460   -0.2960 C   0  0  0  0  0  0  0  0  0  0  0  0
   -5.0220   -7.1520    0.5470 C   0  0  0  0  0  0  0  0  0  0  0  0
   -3.7670   -7.1300    1.3210 C   0  0  0  0  0  0  0  0  0  0  0  0
   -3.1040   -6.0500    0.9570 C   0  0  0  0  0  0  0  0  0  0  0  0
   -1.2770    2.5360   -1.0610 S   0  0  0  0  0  0  0  0  0  0  0  0
   -2.8020    3.3400   -0.4570 C   0  0  0  0  0  0  0  0  0  0  0  0
   -3.1870    4.6580   -0.4000 C   0  0  0  0  0  0  0  0  0  0  0  0
   -2.3610    5.6710   -0.8500 C   0  0  0  0  0  0  0  0  0  0  0  0
   -2.7570    6.9840   -0.7880 C   0  0  0  0  0  0  0  0  0  0  0  0
   -1.7620    8.3060   -1.3390 Cl  0  0  0  0  0  0  0  0  0  0  0  0
   -4.0160    7.2820   -0.2580 C   0  0  0  0  0  0  0  0  0  0  0  0
   -4.4240    8.5710   -0.1870 F   0  0  0  0  0  0  0  0  0  0  0  0
   -4.8620    6.2560    0.2030 C   0  0  0  0  0  0  0  0  0  0  0  0
   -4.4470    4.9620    0.1300 C   0  0  0  0  0  0  0  0  0  0  0  0
  1  2  1  0
  2  3  2  0
  2 40  1  0
  3  4  1  0
  4  5  1  0
  4 32  2  0
  5  6  2  0
  6  7  1  0
  6 31  1  0
  7  8  1  0
  7 21  1  0
  8  9  1  0
  9 10  1  0
 10 11  2  0
 10 12  1  0
 12 13  1  0
 12 20  1  0
 13 14  1  0
 14 15  2  0
 15 16  1  0
 15 19  1  0
 16 17  1  0
 17 18  1  0
 19 20  1  0
 21 22  2  0
 21 23  1  0
 23 24  1  0
 24 25  1  0
 25 26  1  0
 26 27  2  0
 26 30  1  0
 27 28  1  0
 28 29  1  0
 29 30  2  0
 31 32  1  0
 32 33  1  0
 33 34  2  0
 33 40  1  0
 34 35  1  0
 35 36  1  0
 35 37  2  0
 37 38  1  0
 37 39  1  0
 39 40  2  0
M  CHG  1  18   1
M  END
