
     RDKit          3D

 40 43  0  0  0  0  0  0  0  0999 V2000
   -9.8370   -2.0420    0.3620 C   0  0  0  0  0  0  0  0  0  0  0  0
  -10.1430   -0.8150    0.2590 C   0  0  0  0  0  0  0  0  0  0  0  0
  -11.9290   -0.4850    0.3200 Cl  0  0  0  0  0  0  0  0  0  0  0  0
   -9.2870    0.3810    0.1030 C   0  0  0  0  0  0  0  0  0  0  0  0
  -10.0120    1.4930    0.0270 C   0  0  0  0  0  0  0  0  0  0  0  0
   -9.6930    2.8690   -0.1220 C   0  0  0  0  0  0  0  0  0  0  0  0
   -8.4190    3.2710   -0.2200 F   0  0  0  0  0  0  0  0  0  0  0  0
   -7.8520    0.3770    0.0380 C   0  0  0  0  0  0  0  0  0  0  0  0
   -7.2790    1.5120   -0.1010 O   0  0  0  0  0  0  0  0  0  0  0  0
   -6.9350   -0.6840    0.1030 N   0  0  0  0  0  0  0  0  0  0  0  0
   -5.5090   -0.5590    0.0150 C   0  0  0  0  0  0  0  0  0  0  0  0
   -4.7480   -1.5750    0.5900 C   0  0  0  0  0  0  0  0  0  0  0  0
   -3.3700   -1.5290    0.5180 C   0  0  0  0  0  0  0  0  0  0  0  0
   -2.6960   -0.5060   -0.1070 C   0  0  0  0  0  0  0  0  0  0  0  0
   -1.3160   -0.4790   -0.1670 O   0  0  0  0  0  0  0  0  0  0  0  0
   -0.6040    0.1630    0.8520 C   0  0  0  0  0  0  0  0  0  0  0  0
   -1.2330    0.7760    1.9140 C   0  0  0  0  0  0  0  0  0  0  0  0
   -0.5430    1.4100    2.9220 C   0  0  0  0  0  0  0  0  0  0  0  0
    0.8480    1.4400    2.8770 C   0  0  0  0  0  0  0  0  0  0  0  0
    1.5360    2.0500    3.8370 N   0  0  0  0  0  0  0  0  0  0  0  0
    2.8750    2.0690    3.7730 C   0  0  0  0  0  0  0  0  0  0  0  0
    3.5240    2.6390    4.6670 O   0  0  0  0  0  0  0  0  0  0  0  0
    3.5380    1.4670    2.7280 C   0  0  0  0  0  0  0  0  0  0  0  0
    4.7990    1.4610    2.6270 O   0  0  0  0  0  0  0  0  0  0  0  0
    2.8580    0.8400    1.7400 N   0  0  0  0  0  0  0  0  0  0  0  0
    3.5240    0.2030    0.6380 C   0  0  0  0  0  0  0  0  0  0  0  0
    3.7120    1.1370   -0.5380 C   0  0  0  0  0  0  0  0  0  0  0  0
    4.3770    0.4780   -1.6310 N   0  0  1  0  0  0  0  0  0  0  0  0
    5.5910    1.1550   -2.0300 C   0  0  0  0  0  0  0  0  0  0  0  0
    6.8490    0.4350   -1.6170 C   0  0  0  0  0  0  0  0  0  0  0  0
    6.8540   -1.0080   -2.0580 C   0  0  1  0  0  0  0  0  0  0  0  0
    7.9240   -1.2360   -3.0930 C   0  0  0  0  0  0  0  0  0  0  0  0
    7.2380   -2.0870   -0.6320 S   0  0  0  0  0  0  0  0  0  0  0  0
    7.2440   -3.8140   -1.1330 C   0  0  0  0  0  0  0  0  0  0  0  0
    5.4700   -1.4290   -2.5470 C   0  0  0  0  0  0  0  0  0  0  0  0
    4.5200   -0.9360   -1.4440 C   0  0  0  0  0  0  0  0  0  0  0  0
    1.5100    0.8230    1.8080 C   0  0  0  0  0  0  0  0  0  0  0  0
    0.7800    0.1980    0.8190 C   0  0  0  0  0  0  0  0  0  0  0  0
   -3.4590    0.4880   -0.6700 C   0  0  0  0  0  0  0  0  0  0  0  0
   -4.8680    0.4620   -0.6090 C   0  0  0  0  0  0  0  0  0  0  0  0
  1  2  2  0
  2  3  1  0
  2  4  1  0
  4  5  2  3
  4  8  1  0
  5  6  1  0
  6  7  1  0
  8  9  2  0
  8 10  1  0
 10 11  1  0
 11 12  2  0
 11 40  1  0
 12 13  1  0
 13 14  2  0
 14 15  1  0
 14 39  1  0
 15 16  1  0
 16 17  2  0
 16 38  1  0
 17 18  1  0
 18 19  2  0
 19 20  1  0
 19 37  1  0
 20 21  1  0
 21 22  2  0
 21 23  1  0
 23 24  2  0
 23 25  1  0
 25 26  1  0
 25 37  1  0
 26 27  1  0
 28 27  1  1
 28 29  1  0
 28 36  1  0
 29 30  1  0
 30 31  1  0
 31 32  1  6
 31 33  1  0
 31 35  1  0
 33 34  1  0
 35 36  1  0
 37 38  2  0
 39 40  2  0
M  CHG  1  28   1
M  END
