
     RDKit          3D

 40 43  0  0  0  0  0  0  0  0999 V2000
   -8.0350    1.7760    1.5510 C   0  0  0  0  0  0  0  0  0  0  0  0
   -7.1380    1.0650    0.5870 C   0  0  0  0  0  0  0  0  0  0  0  0
   -7.5360   -0.0010    0.1280 O   0  0  0  0  0  0  0  0  0  0  0  0
   -5.8770    1.6750    0.2650 C   0  0  0  0  0  0  0  0  0  0  0  0
   -5.5230    2.8870    0.8960 C   0  0  0  0  0  0  0  0  0  0  0  0
   -4.3420    3.5120    0.6580 C   0  0  0  0  0  0  0  0  0  0  0  0
   -3.9730    5.0150    1.4770 Cl  0  0  0  0  0  0  0  0  0  0  0  0
   -3.4770    2.9270   -0.2320 C   0  0  0  0  0  0  0  0  0  0  0  0
   -3.8060    1.7440   -0.8570 C   0  0  0  0  0  0  0  0  0  0  0  0
   -5.0190    1.0830   -0.6270 C   0  0  0  0  0  0  0  0  0  0  0  0
   -5.2560   -0.1120   -1.3440 N   0  0  0  0  0  0  0  0  0  0  0  0
   -4.0220   -0.9120   -2.2520 S   0  0  2  0  0  0  0  0  0  0  0  0
   -3.5920   -0.0130   -3.3550 O   0  0  0  0  0  0  0  0  0  0  0  0
   -4.5880   -2.1640   -2.8830 O   0  0  0  0  0  0  0  0  0  0  0  0
   -2.6950   -1.4140   -1.2070 C   0  0  0  0  0  0  0  0  0  0  0  0
   -1.4900   -1.0680   -1.4990 C   0  0  0  0  0  0  0  0  0  0  0  0
   -0.2340   -1.3380   -0.8400 C   0  0  0  0  0  0  0  0  0  0  0  0
    0.8680   -0.5610   -1.1480 N   0  0  0  0  0  0  0  0  0  0  0  0
    2.0660   -0.7410   -0.5960 C   0  0  0  0  0  0  0  0  0  0  0  0
    3.1710    0.1030   -0.9660 N   0  0  0  0  0  0  0  0  0  0  0  0
    4.4600   -0.1200   -0.3710 C   0  0  0  0  0  0  0  0  0  0  0  0
    5.4070    0.9720   -0.8220 C   0  0  0  0  0  0  0  0  0  0  0  0
    4.8430    2.1810   -0.3690 O   0  0  0  0  0  0  0  0  0  0  0  0
    5.6740    3.2550   -0.7540 C   0  0  0  0  0  0  0  0  0  0  0  0
    6.9930    2.9620   -0.1280 C   0  0  0  0  0  0  0  0  0  0  0  0
    8.1120    2.7990   -0.8040 C   0  0  0  0  0  0  0  0  0  0  0  0
    9.1990    2.5250    0.1460 C   0  0  0  0  0  0  0  0  0  0  0  0
    8.4990    2.5620    1.4620 C   0  0  0  0  0  0  0  0  0  0  0  0
    7.2130    2.8180    1.2870 C   0  0  0  0  0  0  0  0  0  0  0  0
    2.1960   -1.7290    0.3010 N   0  0  0  0  0  0  0  0  0  0  0  0
    1.1660   -2.5210    0.6430 C   0  0  0  0  0  0  0  0  0  0  0  0
   -0.1060   -2.3450    0.0670 C   0  0  0  0  0  0  0  0  0  0  0  0
   -1.1190   -3.3470    0.4000 C   0  0  0  0  0  0  0  0  0  0  0  0
   -1.5920   -4.1700   -0.6110 C   0  0  0  0  0  0  0  0  0  0  0  0
   -2.4690   -5.1600   -0.3330 C   0  0  0  0  0  0  0  0  0  0  0  0
   -2.9130   -5.3750    0.9470 C   0  0  0  0  0  0  0  0  0  0  0  0
   -3.7940   -6.3790    1.1800 F   0  0  0  0  0  0  0  0  0  0  0  0
   -2.4340   -4.5470    1.9460 C   0  0  0  0  0  0  0  0  0  0  0  0
   -1.5430   -3.5350    1.6910 C   0  0  0  0  0  0  0  0  0  0  0  0
   -1.0140   -2.6270    2.7330 C   0  0  0  0  0  0  0  0  0  0  0  0
  1  2  1  0
  2  3  2  0
  2  4  1  0
  4  5  2  0
  4 10  1  0
  5  6  1  0
  6  7  1  0
  6  8  2  0
  8  9  1  0
  9 10  2  0
 10 11  1  0
 12 11  1  1
 12 13  2  0
 12 14  2  0
 12 15  1  0
 15 16  2  3
 16 17  1  0
 17 18  2  0
 17 32  1  0
 18 19  1  0
 19 20  1  0
 19 30  2  0
 20 21  1  0
 21 22  1  0
 22 23  1  0
 23 24  1  0
 24 25  1  0
 25 26  2  0
 25 29  1  0
 26 27  1  0
 27 28  1  0
 28 29  2  0
 30 31  1  0
 31 32  2  0
 32 33  1  0
 33 34  2  0
 33 39  1  0
 34 35  1  0
 35 36  2  0
 36 37  1  0
 36 38  1  0
 38 39  2  0
 39 40  1  0
M  CHG  1  18   1
M  END
