
     RDKit          3D

 26 28  0  0  0  0  0  0  0  0999 V2000
   -6.4960    2.1310   -0.4780 C   0  0  0  0  0  0  0  0  0  0  0  0
   -5.2600    1.2680   -0.1700 C   0  0  0  0  0  0  0  0  0  0  0  0
   -5.6660   -0.1660    0.0730 C   0  0  0  0  0  0  0  0  0  0  0  0
   -4.4180   -0.9770    0.3440 C   0  0  0  0  0  0  0  0  0  0  0  0
   -3.1800   -0.8180    0.6000 N   0  0  0  0  0  0  0  0  0  0  0  0
   -2.6570   -1.9600    0.8220 C   0  0  0  0  0  0  0  0  0  0  0  0
   -0.9760   -1.6730    0.2830 C   0  0  1  0  0  0  0  0  0  0  0  0
   -0.1250   -2.7160    0.8910 C   0  0  0  0  0  0  0  0  0  0  0  0
   -1.2690   -2.1500   -1.1950 C   0  0  0  0  0  0  0  0  0  0  0  0
   -0.7380   -0.3740    0.1860 O   0  0  0  0  0  0  0  0  0  0  0  0
    0.4380    0.2060    0.0640 C   0  0  0  0  0  0  0  0  0  0  0  0
    0.5130    1.5810   -0.1310 C   0  0  0  0  0  0  0  0  0  0  0  0
    1.6770    2.2770   -0.2140 C   0  0  0  0  0  0  0  0  0  0  0  0
    1.7010    3.6470   -0.2710 C   0  0  0  0  0  0  0  0  0  0  0  0
    1.7150    4.9830   -0.3450 N   0  0  0  0  0  0  0  0  0  0  0  0
    2.8790    1.5670   -0.1410 C   0  0  0  0  0  0  0  0  0  0  0  0
    2.8340    0.2140    0.0170 C   0  0  0  0  0  0  0  0  0  0  0  0
    1.6750   -0.4040    0.1260 N   0  0  0  0  0  0  0  0  0  0  0  0
    3.8360   -0.8320    0.0290 N   0  0  0  0  0  0  0  0  0  0  0  0
    5.2300   -0.7870   -0.3960 C   0  0  0  0  0  0  0  0  0  0  0  0
    6.0610   -0.1320    0.6930 C   0  0  0  0  0  0  0  0  0  0  0  0
    6.0320    1.3080    0.6590 N   0  0  0  0  0  0  0  0  0  0  0  0
    5.2530    2.3740    0.2410 C   0  0  0  0  0  0  0  0  0  0  0  0
    3.9710    2.5390   -0.1140 C   0  0  0  0  0  0  0  0  0  0  0  0
   -2.6540   -3.0710    0.9270 C   0  0  0  0  0  0  0  0  0  0  0  0
   -4.7760   -2.8490    0.3980 S   0  0  0  0  0  0  0  0  0  0  0  0
  1  2  1  0
  2  3  1  0
  3  4  1  0
  4  5  2  0
  4 26  1  0
  5  6  1  0
  6  7  1  0
  6 25  2  0
  7  8  1  1
  7  9  1  0
  7 10  1  0
 10 11  1  0
 11 12  2  0
 11 18  1  0
 12 13  1  0
 13 14  1  0
 13 16  2  0
 14 15  3  0
 16 17  1  0
 16 24  1  0
 17 18  2  0
 17 19  1  0
 19 20  1  0
 20 21  1  0
 21 22  1  0
 22 23  1  0
 23 24  2  0
 25 26  1  0
M  END
