
     RDKit          3D

 26 28  0  0  0  0  0  0  0  0999 V2000
    7.3700   -3.4390    1.2910 C   0  0  0  0  0  0  0  0  0  0  0  0
    6.9270   -2.1570    0.7280 C   0  0  0  0  0  0  0  0  0  0  0  0
    7.3470   -1.4780   -0.3760 C   0  0  0  0  0  0  0  0  0  0  0  0
    6.7780   -0.3150   -0.6820 C   0  0  0  0  0  0  0  0  0  0  0  0
    5.7780    0.1840    0.1170 C   0  0  0  0  0  0  0  0  0  0  0  0
    5.0030    1.3570    0.0550 N   0  0  0  0  0  0  0  0  0  0  0  0
    3.7300    1.3790   -0.0140 C   0  0  0  0  0  0  0  0  0  0  0  0
    3.0320    0.2030   -0.0330 C   0  0  0  0  0  0  0  0  0  0  0  0
    1.6420    0.2450   -0.1080 C   0  0  0  0  0  0  0  0  0  0  0  0
    0.9510    1.4500   -0.1630 C   0  0  0  0  0  0  0  0  0  0  0  0
   -0.4460    1.4430   -0.2340 N   0  0  0  0  0  0  0  0  0  0  0  0
   -1.3390    2.5210   -0.3150 C   0  0  0  0  0  0  0  0  0  0  0  0
   -0.8740    3.6860   -0.3340 O   0  0  0  0  0  0  0  0  0  0  0  0
   -2.8280    2.3870   -0.3810 C   0  0  0  0  0  0  0  0  0  0  0  0
   -3.2920    1.0240   -0.3220 N   0  0  0  0  0  0  0  0  0  0  0  0
   -3.0470    0.5280    1.0180 C   0  0  0  0  0  0  0  0  0  0  0  0
   -4.7160    1.0650   -0.6170 C   0  0  0  0  0  0  0  0  0  0  0  0
   -5.3290   -0.2720   -0.5990 C   0  0  0  0  0  0  0  0  0  0  0  0
   -6.6840   -0.4000   -0.8090 C   0  0  0  0  0  0  0  0  0  0  0  0
   -7.3070   -1.6510   -0.8000 C   0  0  0  0  0  0  0  0  0  0  0  0
   -6.5550   -2.7810   -0.5780 C   0  0  0  0  0  0  0  0  0  0  0  0
   -5.1990   -2.6170   -0.3700 C   0  0  0  0  0  0  0  0  0  0  0  0
   -4.6090   -1.3850   -0.3830 N   0  0  0  0  0  0  0  0  0  0  0  0
    1.6930    2.5960   -0.1410 C   0  0  0  0  0  0  0  0  0  0  0  0
    3.0640    2.5300   -0.0680 N   0  0  0  0  0  0  0  0  0  0  0  0
    5.6410   -1.1060    1.4000 S   0  0  0  0  0  0  0  0  0  0  0  0
  1  2  1  0
  2  3  2  0
  2 26  1  0
  3  4  1  0
  4  5  2  0
  5  6  1  0
  5 26  1  0
  6  7  2  3
  7  8  1  0
  7 25  1  0
  8  9  2  0
  9 10  1  0
 10 11  1  0
 10 24  2  0
 11 12  1  0
 12 13  2  0
 12 14  1  0
 14 15  1  0
 15 16  1  0
 15 17  1  0
 17 18  1  0
 18 19  2  0
 18 23  1  0
 19 20  1  0
 20 21  2  0
 21 22  1  0
 22 23  2  0
 24 25  1  0
M  END
