
     RDKit          3D

 26 28  0  0  0  0  0  0  0  0999 V2000
    7.9710    1.4810    0.5460 C   0  0  0  0  0  0  0  0  0  0  0  0
    7.0240    0.3640    0.2810 C   0  0  0  0  0  0  0  0  0  0  0  0
    7.5610   -0.8870    0.0740 C   0  0  0  0  0  0  0  0  0  0  0  0
    6.6770   -1.9120   -0.1760 C   0  0  0  0  0  0  0  0  0  0  0  0
    7.3270   -3.5360   -0.4810 S   0  0  0  0  0  0  0  0  0  0  0  0
    5.3560   -1.6240   -0.1960 N   0  0  0  0  0  0  0  0  0  0  0  0
    4.8440   -0.4130    0.0070 C   0  0  0  0  0  0  0  0  0  0  0  0
    3.3810   -0.0760   -0.0270 C   0  0  0  0  0  0  0  0  0  0  0  0
    2.9690    0.2950   -1.4380 C   0  0  0  0  0  0  0  0  0  0  0  0
    1.6180    0.7340   -1.5430 N   0  0  0  0  0  0  0  0  0  0  0  0
    0.4740   -0.0040   -1.1780 C   0  0  0  0  0  0  0  0  0  0  0  0
    0.4740   -1.3670   -1.0590 C   0  0  0  0  0  0  0  0  0  0  0  0
   -0.6400   -2.0780   -0.6540 C   0  0  0  0  0  0  0  0  0  0  0  0
   -1.7690   -1.3480   -0.3700 C   0  0  0  0  0  0  0  0  0  0  0  0
   -1.8220    0.0390   -0.4720 C   0  0  0  0  0  0  0  0  0  0  0  0
   -3.0480    0.7230   -0.1200 N   0  0  0  0  0  0  0  0  0  0  0  0
   -4.2560    0.1040   -0.0930 C   0  0  0  0  0  0  0  0  0  0  0  0
   -5.2360    1.0070    0.2970 C   0  0  0  0  0  0  0  0  0  0  0  0
   -6.6890    0.6840    0.4540 C   0  0  1  0  0  0  0  0  0  0  0  0
   -6.8480   -0.8530    0.4000 C   0  0  0  0  0  0  0  0  0  0  0  0
   -7.1190    1.1050    1.8450 C   0  0  0  0  0  0  0  0  0  0  0  0
   -7.4730    1.2080   -0.5410 O   0  0  0  0  0  0  0  0  0  0  0  0
   -4.5710    2.1920    0.5010 C   0  0  0  0  0  0  0  0  0  0  0  0
   -3.2620    1.9520    0.2320 N   0  0  0  0  0  0  0  0  0  0  0  0
   -0.7070    0.7030   -0.8770 C   0  0  0  0  0  0  0  0  0  0  0  0
    5.7140    0.6060    0.2520 N   0  0  0  0  0  0  0  0  0  0  0  0
  1  2  1  0
  2  3  2  0
  2 26  1  0
  3  4  1  0
  4  5  1  0
  4  6  2  0
  6  7  1  0
  7  8  1  0
  7 26  2  0
  8  9  1  0
  9 10  1  0
 10 11  1  0
 11 12  2  0
 11 25  1  0
 12 13  1  0
 13 14  2  0
 14 15  1  0
 15 16  1  0
 15 25  2  0
 16 17  1  0
 16 24  1  0
 17 18  2  0
 18 19  1  0
 18 23  1  0
 19 20  1  1
 19 21  1  0
 19 22  1  0
 23 24  2  0
M  END
