
     RDKit          3D

 26 28  0  0  0  0  0  0  0  0999 V2000
    8.0990   -1.4590    2.5470 C   0  0  0  0  0  0  0  0  0  0  0  0
    7.2610   -0.6010    1.6550 C   0  0  0  0  0  0  0  0  0  0  0  0
    6.5400    0.5340    1.9160 C   0  0  0  0  0  0  0  0  0  0  0  0
    5.8720    1.0940    0.8890 C   0  0  0  0  0  0  0  0  0  0  0  0
    5.9240    0.5490   -0.3250 C   0  0  0  0  0  0  0  0  0  0  0  0
    5.3300    0.9130   -1.5630 N   0  0  0  0  0  0  0  0  0  0  0  0
    4.0530    0.8080   -1.6770 C   0  0  0  0  0  0  0  0  0  0  0  0
    3.4560    1.1550   -2.8690 C   0  0  0  0  0  0  0  0  0  0  0  0
    2.0950    1.0410   -2.9760 C   0  0  0  0  0  0  0  0  0  0  0  0
    1.2720    0.5870   -1.9320 C   0  0  0  0  0  0  0  0  0  0  0  0
   -0.1230    0.4860   -2.1250 N   0  0  0  0  0  0  0  0  0  0  0  0
   -1.1150    0.2820   -1.1530 C   0  0  0  0  0  0  0  0  0  0  0  0
   -0.7750    0.1740    0.0450 O   0  0  0  0  0  0  0  0  0  0  0  0
   -2.5620    0.1980   -1.5590 C   0  0  0  0  0  0  0  0  0  0  0  0
   -3.4060   -0.0040   -0.4010 N   0  0  0  0  0  0  0  0  0  0  0  0
   -3.2220   -1.2960    0.2010 C   0  0  0  0  0  0  0  0  0  0  0  0
   -4.7790    0.0700   -0.8990 C   0  0  0  0  0  0  0  0  0  0  0  0
   -5.7000   -0.1130    0.2360 C   0  0  0  0  0  0  0  0  0  0  0  0
   -6.2040    0.9740    0.9520 C   0  0  0  0  0  0  0  0  0  0  0  0
   -7.0650    0.7950    2.0090 C   0  0  0  0  0  0  0  0  0  0  0  0
   -7.4180   -0.4830    2.3430 C   0  0  0  0  0  0  0  0  0  0  0  0
   -6.9080   -1.5290    1.6230 C   0  0  0  0  0  0  0  0  0  0  0  0
   -6.0710   -1.3460    0.5970 N   0  0  0  0  0  0  0  0  0  0  0  0
    1.9490    0.2630   -0.7820 C   0  0  0  0  0  0  0  0  0  0  0  0
    3.3010    0.3720   -0.6610 N   0  0  0  0  0  0  0  0  0  0  0  0
    6.9810   -0.8670   -0.0670 S   0  0  0  0  0  0  0  0  0  0  0  0
  1  2  1  0
  2  3  2  0
  2 26  1  0
  3  4  1  0
  4  5  2  0
  5  6  1  0
  5 26  1  0
  6  7  2  3
  7  8  1  0
  7 25  1  0
  8  9  2  0
  9 10  1  0
 10 11  1  0
 10 24  2  0
 11 12  1  0
 12 13  2  0
 12 14  1  0
 14 15  1  0
 15 16  1  0
 15 17  1  0
 17 18  1  0
 18 19  2  0
 18 23  1  0
 19 20  1  0
 20 21  2  0
 21 22  1  0
 22 23  2  0
 24 25  1  0
M  END
