
     RDKit          3D

 26 28  0  0  0  0  0  0  0  0999 V2000
   -5.8610    0.5960    1.6430 C   0  0  0  0  0  0  0  0  0  0  0  0
   -6.6010    0.4080    0.3320 C   0  0  0  0  0  0  0  0  0  0  0  0
   -7.8350    0.8790    0.0600 N   0  0  0  0  0  0  0  0  0  0  0  0
   -8.1590    0.4810   -1.2060 C   0  0  0  0  0  0  0  0  0  0  0  0
   -7.0930   -0.2450   -1.7110 C   0  0  0  0  0  0  0  0  0  0  0  0
   -6.0970   -0.2980   -0.7450 C   0  0  0  0  0  0  0  0  0  0  0  0
   -4.7570   -0.8970   -0.9080 C   0  0  0  0  0  0  0  0  0  0  0  0
   -4.6140   -2.1230   -0.9310 O   0  0  0  0  0  0  0  0  0  0  0  0
   -3.6070   -0.0810   -1.0540 N   0  0  0  0  0  0  0  0  0  0  0  0
   -2.2700   -0.4680   -1.2180 C   0  0  0  0  0  0  0  0  0  0  0  0
   -1.3450    0.5560   -1.5290 C   0  0  0  0  0  0  0  0  0  0  0  0
   -0.0270    0.2830   -1.7200 C   0  0  0  0  0  0  0  0  0  0  0  0
    0.4740   -1.0150   -1.6150 C   0  0  0  0  0  0  0  0  0  0  0  0
    2.1980   -1.3820   -1.8560 S   0  0  0  0  0  0  0  0  0  0  0  0
    3.1850    0.0880   -1.8680 C   0  0  0  0  0  0  0  0  0  0  0  0
    3.4830    0.5730   -0.5040 C   0  0  0  0  0  0  0  0  0  0  0  0
    2.7300    1.4600    0.1870 C   0  0  0  0  0  0  0  0  0  0  0  0
    3.1870    1.8530    1.4460 C   0  0  0  0  0  0  0  0  0  0  0  0
    4.3330    1.3710    1.9610 N   0  0  0  0  0  0  0  0  0  0  0  0
    5.0970    0.4750    1.2680 C   0  0  0  0  0  0  0  0  0  0  0  0
    6.3410    0.0300    1.8170 N   0  0  0  0  0  0  0  0  0  0  0  0
    7.1290   -1.0090    1.2090 C   0  0  0  0  0  0  0  0  0  0  0  0
    6.9060    0.6310    3.0130 C   0  0  0  0  0  0  0  0  0  0  0  0
    4.6770    0.0700    0.0350 C   0  0  0  0  0  0  0  0  0  0  0  0
   -0.4410   -1.9460   -1.3170 N   0  0  0  0  0  0  0  0  0  0  0  0
   -1.7560   -1.7070   -1.1230 C   0  0  0  0  0  0  0  0  0  0  0  0
  1  2  1  0
  2  3  1  0
  2  6  2  0
  3  4  1  0
  4  5  2  0
  5  6  1  0
  6  7  1  0
  7  8  2  0
  7  9  1  0
  9 10  1  0
 10 11  2  0
 10 26  1  0
 11 12  1  0
 12 13  2  0
 13 14  1  0
 13 25  1  0
 14 15  1  0
 15 16  1  0
 16 17  2  0
 16 24  1  0
 17 18  1  0
 18 19  2  0
 19 20  1  0
 20 21  1  0
 20 24  2  0
 21 22  1  0
 21 23  1  0
 25 26  2  0
M  END
