
     RDKit          3D

 26 28  0  0  0  0  0  0  0  0999 V2000
    6.7050   -2.9360   -1.0710 C   0  0  0  0  0  0  0  0  0  0  0  0
    6.3980   -1.5030   -0.8790 C   0  0  0  0  0  0  0  0  0  0  0  0
    7.3190   -0.4710   -0.8850 C   0  0  0  0  0  0  0  0  0  0  0  0
    6.8880    0.8300   -0.6970 C   0  0  0  0  0  0  0  0  0  0  0  0
    8.1060    2.1270   -0.6990 S   0  0  0  0  0  0  0  0  0  0  0  0
    5.5630    1.0970   -0.5020 N   0  0  0  0  0  0  0  0  0  0  0  0
    4.6950    0.1190   -0.4940 C   0  0  0  0  0  0  0  0  0  0  0  0
    3.2220    0.2770   -0.2950 C   0  0  0  0  0  0  0  0  0  0  0  0
    2.9470    0.2450    1.2140 C   0  0  0  0  0  0  0  0  0  0  0  0
    1.5780    0.2050    1.5420 N   0  0  0  0  0  0  0  0  0  0  0  0
    0.5400    1.0170    1.0540 C   0  0  0  0  0  0  0  0  0  0  0  0
    0.7350    2.2490    0.5290 C   0  0  0  0  0  0  0  0  0  0  0  0
   -0.3460    2.9640   -0.0020 C   0  0  0  0  0  0  0  0  0  0  0  0
   -1.6390    2.4330   -0.0020 C   0  0  0  0  0  0  0  0  0  0  0  0
   -1.8490    1.1840    0.5270 C   0  0  0  0  0  0  0  0  0  0  0  0
   -3.1430    0.5500    0.5690 N   0  0  0  0  0  0  0  0  0  0  0  0
   -4.0850    0.3830   -0.3580 C   0  0  0  0  0  0  0  0  0  0  0  0
   -5.1100   -0.3540    0.2000 C   0  0  0  0  0  0  0  0  0  0  0  0
   -6.3750   -0.8230   -0.4280 C   0  0  1  0  0  0  0  0  0  0  0  0
   -7.3140    0.2940   -0.7760 C   0  0  0  0  0  0  0  0  0  0  0  0
   -6.0750   -1.6630   -1.6590 C   0  0  0  0  0  0  0  0  0  0  0  0
   -7.0380   -1.6690    0.4810 O   0  0  0  0  0  0  0  0  0  0  0  0
   -4.7200   -0.6140    1.5220 C   0  0  0  0  0  0  0  0  0  0  0  0
   -3.5400   -0.0550    1.6980 N   0  0  0  0  0  0  0  0  0  0  0  0
   -0.7660    0.5160    1.0360 C   0  0  0  0  0  0  0  0  0  0  0  0
    5.1230   -1.1680   -0.6840 N   0  0  0  0  0  0  0  0  0  0  0  0
  1  2  1  0
  2  3  2  0
  2 26  1  0
  3  4  1  0
  4  5  1  0
  4  6  2  0
  6  7  1  0
  7  8  1  0
  7 26  2  0
  8  9  1  0
  9 10  1  0
 10 11  1  0
 11 12  2  0
 11 25  1  0
 12 13  1  0
 13 14  2  0
 14 15  1  0
 15 16  1  0
 15 25  2  0
 16 17  1  0
 16 24  1  0
 17 18  2  0
 18 19  1  0
 18 23  1  0
 19 20  1  6
 19 21  1  0
 19 22  1  0
 23 24  2  0
M  END
