
     RDKit          3D

 26 28  0  0  0  0  0  0  0  0999 V2000
   -3.9530    3.7520    1.6230 C   0  0  0  0  0  0  0  0  0  0  0  0
   -4.0840    3.2910    0.1670 C   0  0  0  0  0  0  0  0  0  0  0  0
   -3.4080    1.9740   -0.0310 C   0  0  0  0  0  0  0  0  0  0  0  0
   -3.9540    0.7520   -0.1580 N   0  0  0  0  0  0  0  0  0  0  0  0
   -2.9970   -0.1660   -0.3190 N   0  0  0  0  0  0  0  0  0  0  0  0
   -3.2200   -1.5650   -0.4830 C   0  0  0  0  0  0  0  0  0  0  0  0
   -2.9320   -2.5020    0.4700 C   0  0  0  0  0  0  0  0  0  0  0  0
   -3.1870   -3.8440    0.2120 C   0  0  0  0  0  0  0  0  0  0  0  0
   -3.7250   -4.1860   -1.0070 C   0  0  0  0  0  0  0  0  0  0  0  0
   -4.0090   -3.2230   -1.9580 C   0  0  0  0  0  0  0  0  0  0  0  0
   -3.7490   -1.9530   -1.6670 N   0  0  0  0  0  0  0  0  0  0  0  0
   -1.7920    0.4260   -0.3030 C   0  0  0  0  0  0  0  0  0  0  0  0
   -0.4370   -0.2230   -0.4490 C   0  0  0  0  0  0  0  0  0  0  0  0
    0.1490   -0.2600    0.9400 C   0  0  0  0  0  0  0  0  0  0  0  0
    1.4440   -0.8460    1.0380 N   0  0  0  0  0  0  0  0  0  0  0  0
    2.5310   -0.2250    0.3040 C   0  0  0  0  0  0  0  0  0  0  0  0
    2.2870    0.7930   -0.3740 O   0  0  0  0  0  0  0  0  0  0  0  0
    3.8250   -0.7550    0.3550 N   0  0  0  0  0  0  0  0  0  0  0  0
    4.9670   -0.2060   -0.3400 C   0  0  0  0  0  0  0  0  0  0  0  0
    4.9550    0.8680   -1.1170 C   0  0  0  0  0  0  0  0  0  0  0  0
    6.1030    1.2910   -1.7210 C   0  0  0  0  0  0  0  0  0  0  0  0
    7.2900    0.1030   -1.1660 S   0  0  0  0  0  0  0  0  0  0  0  0
    6.2230   -0.8520   -0.1960 C   0  0  0  0  0  0  0  0  0  0  0  0
    6.5200   -2.0830    0.6230 C   0  0  0  0  0  0  0  0  0  0  0  0
   -2.0430    1.7710   -0.1220 C   0  0  0  0  0  0  0  0  0  0  0  0
   -1.0270    2.8430   -0.0370 C   0  0  0  0  0  0  0  0  0  0  0  0
  1  2  1  0
  2  3  1  0
  3  4  2  0
  3 25  1  0
  4  5  1  0
  5  6  1  0
  5 12  1  0
  6  7  2  0
  6 11  1  0
  7  8  1  0
  8  9  2  0
  9 10  1  0
 10 11  2  0
 12 13  1  0
 12 25  2  0
 13 14  1  0
 14 15  1  0
 15 16  1  0
 16 17  2  0
 16 18  1  0
 18 19  1  0
 19 20  1  0
 19 23  2  0
 20 21  2  0
 21 22  1  0
 22 23  1  0
 23 24  1  0
 25 26  1  0
M  END
