
     RDKit          3D

 26 28  0  0  0  0  0  0  0  0999 V2000
    3.1070    4.5940   -0.6820 C   0  0  0  0  0  0  0  0  0  0  0  0
    4.2200    3.6880   -1.1740 C   0  0  0  0  0  0  0  0  0  0  0  0
    4.0600    2.4100   -0.5220 N   0  0  0  0  0  0  0  0  0  0  0  0
    2.9150    1.6020   -0.6420 C   0  0  0  0  0  0  0  0  0  0  0  0
    1.9660    2.0110   -1.3620 O   0  0  0  0  0  0  0  0  0  0  0  0
    2.7720    0.3460    0.0060 N   0  0  0  0  0  0  0  0  0  0  0  0
    1.5980   -0.4260   -0.1580 C   0  0  0  0  0  0  0  0  0  0  0  0
    0.5510   -0.0700   -0.9210 N   0  0  0  0  0  0  0  0  0  0  0  0
   -0.4080   -1.0420   -0.8620 C   0  0  0  0  0  0  0  0  0  0  0  0
   -1.9870   -1.0900   -1.6870 S   0  0  0  0  0  0  0  0  0  0  0  0
   -3.2820   -0.3120   -0.7160 C   0  0  0  0  0  0  0  0  0  0  0  0
   -3.0610    1.1580   -0.5910 C   0  0  0  0  0  0  0  0  0  0  0  0
   -3.6250    1.9790   -1.5700 C   0  0  0  0  0  0  0  0  0  0  0  0
   -3.4730    3.3390   -1.5320 C   0  0  0  0  0  0  0  0  0  0  0  0
   -2.7430    3.9290   -0.5030 C   0  0  0  0  0  0  0  0  0  0  0  0
   -2.2020    3.0870    0.4430 C   0  0  0  0  0  0  0  0  0  0  0  0
   -2.3690    1.7400    0.3810 N   0  0  0  0  0  0  0  0  0  0  0  0
    0.0400   -2.0140   -0.0570 N   0  0  0  0  0  0  0  0  0  0  0  0
   -0.6250   -3.2250    0.2940 C   0  0  0  0  0  0  0  0  0  0  0  0
   -0.9810   -3.4140    1.6100 C   0  0  0  0  0  0  0  0  0  0  0  0
   -1.6230   -4.5780    1.9660 C   0  0  0  0  0  0  0  0  0  0  0  0
   -1.9100   -5.5490    1.0220 C   0  0  0  0  0  0  0  0  0  0  0  0
   -1.5420   -5.3330   -0.2890 C   0  0  0  0  0  0  0  0  0  0  0  0
   -0.9000   -4.1770   -0.6620 C   0  0  0  0  0  0  0  0  0  0  0  0
    1.2570   -1.6520    0.3770 C   0  0  0  0  0  0  0  0  0  0  0  0
    2.1350   -2.4160    1.2880 C   0  0  0  0  0  0  0  0  0  0  0  0
  1  2  1  0
  2  3  1  0
  3  4  1  0
  4  5  2  0
  4  6  1  0
  6  7  1  0
  7  8  1  0
  7 25  2  0
  8  9  2  0
  9 10  1  0
  9 18  1  0
 10 11  1  0
 11 12  1  0
 12 13  2  0
 12 17  1  0
 13 14  1  0
 14 15  2  0
 15 16  1  0
 16 17  2  0
 18 19  1  0
 18 25  1  0
 19 20  2  0
 19 24  1  0
 20 21  1  0
 21 22  2  0
 22 23  1  0
 23 24  2  0
 25 26  1  0
M  END
