
     RDKit          3D

 26 28  0  0  0  0  0  0  0  0999 V2000
    6.6990    0.2400    0.2210 C   0  0  0  0  0  0  0  0  0  0  0  0
    6.7280   -1.2860    0.2930 C   0  0  0  0  0  0  0  0  0  0  0  0
    5.8060   -1.6970    1.3820 C   0  0  0  0  0  0  0  0  0  0  0  0
    4.4040   -1.1200    1.1730 C   0  0  0  0  0  0  0  0  0  0  0  0
    3.5060   -0.6250    0.8520 N   0  0  0  0  0  0  0  0  0  0  0  0
    2.3970   -0.2400    0.6940 C   0  0  0  0  0  0  0  0  0  0  0  0
    1.3660    0.4830   -0.0610 C   0  0  1  0  0  0  0  0  0  0  0  0
    1.9120    1.9000   -0.4510 C   0  0  0  0  0  0  0  0  0  0  0  0
    0.7290   -0.2330   -1.1030 C   0  0  0  0  0  0  0  0  0  0  0  0
    0.2360    0.8940    0.9110 O   0  0  0  0  0  0  0  0  0  0  0  0
   -0.9630    1.1460    0.2850 C   0  0  0  0  0  0  0  0  0  0  0  0
   -1.3660    2.3560   -0.2860 C   0  0  0  0  0  0  0  0  0  0  0  0
   -2.6380    1.9210   -0.8800 C   0  0  0  0  0  0  0  0  0  0  0  0
   -2.8790    2.8500   -2.0540 C   0  0  0  0  0  0  0  0  0  0  0  0
   -3.1390    3.8160   -3.2920 N   0  0  0  0  0  0  0  0  0  0  0  0
   -3.3810    1.0510   -1.0430 C   0  0  0  0  0  0  0  0  0  0  0  0
   -2.8590   -0.1600   -0.3800 C   0  0  0  0  0  0  0  0  0  0  0  0
   -1.7190   -0.0690    0.2340 N   0  0  0  0  0  0  0  0  0  0  0  0
   -3.3490   -1.4750   -0.3080 N   0  0  0  0  0  0  0  0  0  0  0  0
   -4.6490   -2.0430    0.0830 C   0  0  0  0  0  0  0  0  0  0  0  0
   -5.6700   -1.0290    0.5760 C   0  0  0  0  0  0  0  0  0  0  0  0
   -6.2700   -0.2800   -0.4520 N   0  0  0  0  0  0  0  0  0  0  0  0
   -5.9000    0.7830   -1.3300 C   0  0  0  0  0  0  0  0  0  0  0  0
   -4.6920    1.3240   -1.5660 C   0  0  0  0  0  0  0  0  0  0  0  0
    1.6950   -1.1450    1.7890 C   0  0  0  0  0  0  0  0  0  0  0  0
    3.1610   -2.0430    2.4470 S   0  0  0  0  0  0  0  0  0  0  0  0
  1  2  1  0
  2  3  1  0
  3  4  1  0
  4  5  2  0
  4 26  1  0
  5  6  1  0
  6  7  1  0
  6 25  2  0
  7  8  1  6
  7  9  1  0
  7 10  1  0
 10 11  1  0
 11 12  2  0
 11 18  1  0
 12 13  1  0
 13 14  1  0
 13 16  2  0
 14 15  3  0
 16 17  1  0
 16 24  1  0
 17 18  2  0
 17 19  1  0
 19 20  1  0
 20 21  1  0
 21 22  1  0
 22 23  1  0
 23 24  2  0
 25 26  1  0
M  END
