
     RDKit          3D

 37 41  0  0  0  0  0  0  0  0999 V2000
   -3.6610   -0.1920   -5.5220 C   0  0  0  0  0  0  0  0  0  0  0  0
   -3.7220   -0.0090   -4.1940 C   0  0  0  0  0  0  0  0  0  0  0  0
   -2.4930    0.1880   -3.4360 C   0  0  0  0  0  0  0  0  0  0  0  0
   -2.3380    0.3940   -2.1680 C   0  0  0  0  0  0  0  0  0  0  0  0
   -0.9620    0.5580   -1.5990 C   0  0  0  0  0  0  0  0  0  0  0  0
   -0.8830   -0.1760   -0.3490 N   0  0  0  0  0  0  0  0  0  0  0  0
    0.4410   -0.3890    0.1920 C   0  0  0  0  0  0  0  0  0  0  0  0
    0.6220   -1.0120    1.2350 O   0  0  0  0  0  0  0  0  0  0  0  0
    1.5850    0.1190   -0.4850 N   0  0  0  0  0  0  0  0  0  0  0  0
    2.9370   -0.0080   -0.1300 C   0  0  0  0  0  0  0  0  0  0  0  0
    3.4390   -0.5160    1.0290 C   0  0  0  0  0  0  0  0  0  0  0  0
    4.8320   -0.6280    1.2100 C   0  0  0  0  0  0  0  0  0  0  0  0
    5.7260   -0.2440    0.2540 C   0  0  0  0  0  0  0  0  0  0  0  0
    7.1250   -0.3990    0.4160 N   0  0  0  0  0  0  0  0  0  0  0  0
    7.9080   -1.0260   -0.5210 C   0  0  0  0  0  0  0  0  0  0  0  0
    9.2110   -1.0530   -0.1250 C   0  0  0  0  0  0  0  0  0  0  0  0
    9.2200   -0.4130    1.1070 C   0  0  0  0  0  0  0  0  0  0  0  0
   10.4120   -0.1920    1.9790 C   0  0  1  0  0  0  0  0  0  0  0  0
   10.9190   -1.4170    2.3900 F   0  0  0  0  0  0  0  0  0  0  0  0
   11.4020    0.5490    1.3400 F   0  0  0  0  0  0  0  0  0  0  0  0
   10.0340    0.4880    3.1080 F   0  0  0  0  0  0  0  0  0  0  0  0
    7.9620   -0.0530    1.3700 N   0  0  0  0  0  0  0  0  0  0  0  0
    5.2260    0.2700   -0.9120 C   0  0  0  0  0  0  0  0  0  0  0  0
    3.8690    0.3840   -1.0970 C   0  0  0  0  0  0  0  0  0  0  0  0
   -2.0390   -0.6920    0.3270 C   0  0  0  0  0  0  0  0  0  0  0  0
   -3.2810   -0.0210   -0.0100 C   0  0  0  0  0  0  0  0  0  0  0  0
   -3.4350    0.5170   -1.2220 C   0  0  0  0  0  0  0  0  0  0  0  0
   -4.6100    1.2290   -1.5870 N   0  0  0  0  0  0  0  0  0  0  0  0
   -5.7830    1.2520   -0.7670 C   0  0  0  0  0  0  0  0  0  0  0  0
   -5.5400    0.6480    0.5520 C   0  0  0  0  0  0  0  0  0  0  0  0
   -6.4190    0.5560    1.6620 C   0  0  0  0  0  0  0  0  0  0  0  0
   -7.8050    1.1090    1.6560 C   0  0  0  0  0  0  0  0  0  0  0  0
   -5.7750   -0.0750    2.6070 N   0  0  0  0  0  0  0  0  0  0  0  0
   -4.5190   -0.4200    2.2220 N   0  0  0  0  0  0  0  0  0  0  0  0
   -3.5790   -1.1000    3.0480 C   0  0  0  0  0  0  0  0  0  0  0  0
   -2.7900   -0.1720    3.9280 C   0  0  0  0  0  0  0  0  0  0  0  0
   -4.3920    0.0280    0.9730 C   0  0  0  0  0  0  0  0  0  0  0  0
  1  2  2  0
  2  3  1  0
  3  4  2  3
  4  5  1  0
  4 27  1  0
  5  6  1  0
  6  7  1  0
  6 25  1  0
  7  8  2  0
  7  9  1  0
  9 10  1  0
 10 11  2  0
 10 24  1  0
 11 12  1  0
 12 13  2  0
 13 14  1  0
 13 23  1  0
 14 15  1  0
 14 22  1  0
 15 16  2  0
 16 17  1  0
 17 18  1  0
 17 22  2  0
 18 19  1  1
 18 20  1  0
 18 21  1  0
 23 24  2  0
 25 26  1  0
 26 27  2  0
 26 37  1  0
 27 28  1  0
 28 29  1  0
 29 30  1  0
 30 31  1  0
 30 37  2  0
 31 32  1  0
 31 33  2  0
 33 34  1  0
 34 35  1  0
 34 37  1  0
 35 36  1  0
M  END
