
     RDKit          3D

 16 17  0  0  0  0  0  0  0  0999 V2000
   -0.6930    0.0800    2.5680 O   0  0  0  0  0  0  0  0  0  0  0  0
   -0.9260   -0.2420    1.3760 C   0  0  0  0  0  0  0  0  0  0  0  0
    0.1640   -0.6310    0.5760 N   0  0  0  0  0  0  0  0  0  0  0  0
    1.5340   -0.6770    1.0600 C   0  0  0  0  0  0  0  0  0  0  0  0
    2.4870   -1.1310   -0.0230 C   0  0  2  0  0  0  0  0  0  0  0  0
    3.7950   -1.1510    0.5190 O   0  0  0  0  0  0  0  0  0  0  0  0
    4.6610   -0.4950   -0.3480 C   0  0  0  0  0  0  0  0  0  0  0  0
    6.2860   -0.4090   -0.2010 S   0  0  0  0  0  0  0  0  0  0  0  0
    3.9400    0.1130   -1.4130 N   0  0  0  0  0  0  0  0  0  0  0  0
    2.5310   -0.0560   -1.0770 C   0  0  2  0  0  0  0  0  0  0  0  0
    2.0770    1.1770   -0.6050 O   0  0  0  0  0  0  0  0  0  0  0  0
   -2.3030   -0.2160    0.8210 C   0  0  1  0  0  0  0  0  0  0  0  0
   -2.8320    1.2110    0.7560 C   0  0  0  0  0  0  0  0  0  0  0  0
   -4.0160    1.0010   -0.1930 C   0  0  0  0  0  0  0  0  0  0  0  0
   -3.5530   -0.1750   -0.9970 C   0  0  0  0  0  0  0  0  0  0  0  0
   -2.3520   -0.6010   -0.4960 O   0  0  0  0  0  0  0  0  0  0  0  0
  1  2  2  0
  2  3  1  0
 12  2  1  6
  3  4  1  0
  5  4  1  1
  5  6  1  0
  5 10  1  0
  6  7  1  0
  7  8  2  0
  7  9  1  0
  9 10  1  0
 10 11  1  1
 12 13  1  0
 12 16  1  0
 13 14  1  0
 14 15  1  0
 15 16  1  0
M  END
