
     RDKit          3D

 16 17  0  0  0  0  0  0  0  0999 V2000
    0.4850   -2.3980   -0.7420 C   0  0  0  0  0  0  0  0  0  0  0  0
    0.0840   -0.9680   -0.3720 C   0  0  1  0  0  0  0  0  0  0  0  0
    1.2570   -0.0550   -0.4040 C   0  0  0  0  0  0  0  0  0  0  0  0
    1.2770    0.9420   -1.1720 O   0  0  0  0  0  0  0  0  0  0  0  0
    2.3880   -0.2750    0.4260 N   0  0  0  0  0  0  0  0  0  0  0  0
    3.5010    0.6190    0.3740 C   0  0  0  0  0  0  0  0  0  0  0  0
    3.4690    1.7250   -0.5100 N   0  0  0  0  0  0  0  0  0  0  0  0
    4.8130    0.4150    1.2960 S   0  0  0  0  0  0  0  0  0  0  0  0
   -0.8820   -0.5700   -1.2440 O   0  0  0  0  0  0  0  0  0  0  0  0
   -1.7070    0.4210   -0.8600 C   0  0  1  0  0  0  0  0  0  0  0  0
   -3.0630   -0.0010   -0.2800 C   0  0  0  0  0  0  0  0  0  0  0  0
   -2.9530    1.2760    0.5650 C   0  0  0  0  0  0  0  0  0  0  0  0
   -1.4330    1.0740    0.4450 C   0  0  1  0  0  0  0  0  0  0  0  0
   -1.0250    0.1970    1.4560 O   0  0  0  0  0  0  0  0  0  0  0  0
   -0.4230   -1.0050    1.0340 C   0  0  0  0  0  0  0  0  0  0  0  0
   -0.3240   -2.0050    1.7670 O   0  0  0  0  0  0  0  0  0  0  0  0
  2  1  1  6
  2  3  1  0
  2  9  1  0
  2 15  1  0
  3  4  2  0
  3  5  1  0
  5  6  1  0
  6  7  1  0
  6  8  2  0
  9 10  1  0
 10 11  1  1
 10 13  1  0
 11 12  1  0
 13 12  1  1
 13 14  1  0
 14 15  1  0
 15 16  2  0
M  END
