
     RDKit          3D

 16 17  0  0  0  0  0  0  0  0999 V2000
    5.7220    0.3300    0.1890 C   0  0  0  0  0  0  0  0  0  0  0  0
    4.7150   -0.6840    0.1250 O   0  0  0  0  0  0  0  0  0  0  0  0
    3.3970   -0.3440   -0.0890 C   0  0  0  0  0  0  0  0  0  0  0  0
    3.0810    0.8840   -0.2290 O   0  0  0  0  0  0  0  0  0  0  0  0
    2.3700   -1.3250   -0.1580 N   0  0  0  0  0  0  0  0  0  0  0  0
    1.0540   -0.9190   -0.3770 N   0  0  0  0  0  0  0  0  0  0  0  0
    0.1790   -0.8320    0.7310 C   0  0  0  0  0  0  0  0  0  0  0  0
    0.6230   -1.1240    1.8610 O   0  0  0  0  0  0  0  0  0  0  0  0
   -1.2260   -0.4120    0.5870 C   0  0  2  0  0  0  0  0  0  0  0  0
   -1.8580   -0.7940   -0.7240 C   0  0  1  0  0  0  0  0  0  0  0  0
   -3.2920   -1.1890   -0.6420 C   0  0  0  0  0  0  0  0  0  0  0  0
   -4.0420   -0.5350    0.8940 S   0  0  0  0  0  0  0  0  0  0  0  0
   -3.5430    1.2300    0.9490 C   0  0  0  0  0  0  0  0  0  0  0  0
   -2.7760    1.4630   -0.3350 C   0  0  0  0  0  0  0  0  0  0  0  0
   -1.5460    0.6040   -0.4330 C   0  0  1  0  0  0  0  0  0  0  0  0
   -0.4610    1.2490   -1.0080 O   0  0  0  0  0  0  0  0  0  0  0  0
  1  2  1  0
  2  3  1  0
  3  4  2  0
  3  5  1  0
  5  6  1  0
  6  7  1  0
  7  8  2  0
  9  7  1  6
  9 10  1  0
  9 15  1  0
 10 11  1  1
 10 15  1  0
 11 12  1  0
 12 13  1  0
 13 14  1  0
 14 15  1  0
 15 16  1  6
M  END
