
     RDKit          3D

 16 17  0  0  0  0  0  0  0  0999 V2000
    4.8680   -0.6940    0.1630 C   0  0  0  0  0  0  0  0  0  0  0  0
    3.5370   -0.6730    0.7630 N   0  0  0  0  0  0  0  0  0  0  0  0
    2.5160    0.1120    0.1630 C   0  0  0  0  0  0  0  0  0  0  0  0
    2.7960    0.7640   -0.8690 O   0  0  0  0  0  0  0  0  0  0  0  0
    1.2050    0.2250    0.6260 N   0  0  0  0  0  0  0  0  0  0  0  0
    0.1740    1.0240    0.0120 C   0  0  2  0  0  0  0  0  0  0  0  0
   -0.4140    2.0970    0.7860 C   0  0  0  0  0  0  0  0  0  0  0  0
   -2.1510    1.7810    0.8280 S   0  0  1  0  0  0  0  0  0  0  0  0
   -2.6060    1.0880    2.0490 O   0  0  0  0  0  0  0  0  0  0  0  0
   -2.9710    2.9940    0.4990 O   0  0  0  0  0  0  0  0  0  0  0  0
   -2.1910    0.6260   -0.5270 C   0  0  2  0  0  0  0  0  0  0  0  0
   -3.1330   -0.5000   -0.2780 C   0  0  0  0  0  0  0  0  0  0  0  0
   -2.2800   -1.7260   -0.5150 C   0  0  0  0  0  0  0  0  0  0  0  0
   -0.9510   -1.2430    0.0990 C   0  0  2  0  0  0  0  0  0  0  0  0
   -1.2500   -1.0890    1.4570 O   0  0  0  0  0  0  0  0  0  0  0  0
   -0.8020    0.1150   -0.6020 C   0  0  2  0  0  0  0  0  0  0  0  0
  1  2  1  0
  2  3  1  0
  3  4  2  0
  3  5  1  0
  6  5  1  1
  6  7  1  0
 16  6  1  1
  8  7  1  1
  8  9  2  0
  8 10  2  0
  8 11  1  0
 11 12  1  1
 11 16  1  0
 12 13  1  0
 13 14  1  0
 14 15  1  1
 14 16  1  0
M  END
