
     RDKit          3D

 16 17  0  0  0  0  0  0  0  0999 V2000
    2.7080   -0.6680    1.4380 C   0  0  0  0  0  0  0  0  0  0  0  0
    2.2140    0.1720    0.2820 C   0  0  2  0  0  0  0  0  0  0  0  0
    0.8960   -0.2600   -0.2510 C   0  0  0  0  0  0  0  0  0  0  0  0
    0.8360   -0.6190   -1.4530 O   0  0  0  0  0  0  0  0  0  0  0  0
   -0.2650   -0.2910    0.4970 O   0  0  0  0  0  0  0  0  0  0  0  0
   -1.5190   -0.7120   -0.0460 C   0  0  1  0  0  0  0  0  0  0  0  0
   -2.0990   -1.8130    0.7610 C   0  0  0  0  0  0  0  0  0  0  0  0
   -1.5010   -2.7980    1.2550 O   0  0  0  0  0  0  0  0  0  0  0  0
   -3.4920   -1.5800    0.8990 N   0  0  0  0  0  0  0  0  0  0  0  0
   -3.8270   -0.3720    0.1860 C   0  0  0  0  0  0  0  0  0  0  0  0
   -4.9730   -0.0630   -0.2350 O   0  0  0  0  0  0  0  0  0  0  0  0
   -2.5530    0.3860    0.0740 C   0  0  2  0  0  0  0  0  0  0  0  0
   -2.5550    1.2010   -1.1450 N   0  0  0  0  0  0  0  0  0  0  0  0
    3.2340    0.5250   -0.7570 C   0  0  0  0  0  0  0  0  0  0  0  0
    2.4500    1.7560   -1.0830 C   0  0  0  0  0  0  0  0  0  0  0  0
    2.1160    1.9590    0.6890 S   0  0  0  0  0  0  0  0  0  0  0  0
  2  1  1  1
  2  3  1  0
  2 14  1  0
  2 16  1  0
  3  4  2  0
  3  5  1  0
  6  5  1  1
  6  7  1  0
  6 12  1  0
  7  8  2  0
  7  9  1  0
  9 10  1  0
 10 11  2  0
 10 12  1  0
 12 13  1  6
 14 15  1  0
 15 16  1  0
M  END
