
     RDKit          3D

 30 31  0  0  0  0  0  0  0  0999 V2000
   -3.7030    1.0970   -4.0140 C   0  0  0  0  0  0  0  0  0  0  0  0
   -4.2790    0.1120   -3.0510 C   0  0  0  0  0  0  0  0  0  0  0  0
   -3.0530   -0.8830   -2.2040 S   0  0  0  0  0  0  0  0  0  0  0  0
   -2.0990    0.1070   -1.0600 C   0  0  0  0  0  0  0  0  0  0  0  0
   -1.0980   -0.5480   -0.4430 C   0  0  0  0  0  0  0  0  0  0  0  0
   -0.9520   -1.9530   -0.8020 C   0  0  0  0  0  0  0  0  0  0  0  0
   -1.1120   -2.8560    0.4280 C   0  0  0  0  0  0  0  0  0  0  0  0
   -0.9500   -4.2400    0.0740 N   0  0  0  0  0  0  0  0  0  0  0  0
   -1.1070   -5.0600    1.2540 C   0  0  0  0  0  0  0  0  0  0  0  0
   -0.1730    0.0540    0.5650 C   0  0  0  0  0  0  0  0  0  0  0  0
    1.2070   -0.3610    0.2500 C   0  0  0  0  0  0  0  0  0  0  0  0
    1.4020   -1.5320   -0.2160 O   0  0  0  0  0  0  0  0  0  0  0  0
    2.3750    0.4010    0.3720 N   0  0  0  0  0  0  0  0  0  0  0  0
    3.7170    0.0190    0.1050 C   0  0  0  0  0  0  0  0  0  0  0  0
    4.0950   -1.0910   -0.5880 C   0  0  0  0  0  0  0  0  0  0  0  0
    5.4440   -1.4200   -0.7960 C   0  0  0  0  0  0  0  0  0  0  0  0
    6.4470   -0.6310   -0.3060 C   0  0  0  0  0  0  0  0  0  0  0  0
    7.7930   -0.9110   -0.4830 O   0  0  0  0  0  0  0  0  0  0  0  0
    6.0800    0.4970    0.3980 C   0  0  0  0  0  0  0  0  0  0  0  0
    4.7630    0.8210    0.6030 C   0  0  0  0  0  0  0  0  0  0  0  0
   -0.3730    1.1000    1.3070 C   0  0  0  0  0  0  0  0  0  0  0  0
    0.6100    1.5240    2.2780 C   0  0  0  0  0  0  0  0  0  0  0  0
    0.4430    2.6330    2.8780 O   0  0  0  0  0  0  0  0  0  0  0  0
    1.7330    0.8330    2.6580 O   0  0  0  0  0  0  0  0  0  0  0  0
    2.6370    1.3310    3.6530 C   0  0  0  0  0  0  0  0  0  0  0  0
   -1.5340    1.8980    1.2370 O   0  0  0  0  0  0  0  0  0  0  0  0
   -2.3590    2.3040    0.2170 C   0  0  2  0  0  0  0  0  0  0  0  0
   -3.7080    2.6040    0.7260 N   0  0  0  0  0  0  0  0  0  0  0  0
   -4.2560    3.7360    0.0050 C   0  0  0  0  0  0  0  0  0  0  0  0
   -2.5030    1.4550   -0.9190 N   0  0  0  0  0  0  0  0  0  0  0  0
  1  2  1  0
  2  3  1  0
  3  4  1  0
  4  5  2  0
  4 30  1  0
  5  6  1  0
  5 10  1  0
  6  7  1  0
  7  8  1  0
  8  9  1  0
 10 11  1  0
 10 21  2  0
 11 12  2  0
 11 13  1  0
 13 14  1  0
 14 15  2  0
 14 20  1  0
 15 16  1  0
 16 17  2  0
 17 18  1  0
 17 19  1  0
 19 20  2  0
 21 22  1  0
 21 26  1  0
 22 23  2  0
 22 24  1  0
 24 25  1  0
 26 27  1  0
 27 28  1  1
 27 30  1  0
 28 29  1  0
M  CHG  1  28   1
M  END
