
     RDKit          3D

 29 32  0  0  0  0  0  0  0  0999 V2000
   -2.5380    1.8720   -0.3610 C   0  0  0  0  0  0  0  0  0  0  0  0
   -2.4950    0.5800   -0.1660 C   0  0  0  0  0  0  0  0  0  0  0  0
   -3.7480   -0.1100   -0.4330 C   0  0  0  0  0  0  0  0  0  0  0  0
   -4.2830    0.0680   -1.7170 C   0  0  0  0  0  0  0  0  0  0  0  0
   -5.4820   -0.5160   -2.0090 C   0  0  0  0  0  0  0  0  0  0  0  0
   -6.1810   -1.2690   -1.0910 C   0  0  0  0  0  0  0  0  0  0  0  0
   -5.6250   -1.4190    0.1560 C   0  0  0  0  0  0  0  0  0  0  0  0
   -4.4040   -0.8390    0.4920 C   0  0  0  0  0  0  0  0  0  0  0  0
   -1.2730   -0.1150    0.1730 C   0  0  1  0  0  0  0  0  0  0  0  0
   -1.3580   -1.0720    1.3610 C   0  0  0  0  0  0  0  0  0  0  0  0
   -1.6500   -2.4260    0.8120 C   0  0  0  0  0  0  0  0  0  0  0  0
   -1.4700   -2.3990   -0.6660 C   0  0  1  0  0  0  0  0  0  0  0  0
   -2.5850   -2.6670   -1.4180 O   0  0  0  0  0  0  0  0  0  0  0  0
   -0.8380   -1.0530   -0.9260 C   0  0  2  0  0  0  0  0  0  0  0  0
    0.6290   -1.2150   -0.6280 C   0  0  0  0  0  0  0  0  0  0  0  0
    1.0130    0.1130   -0.0810 C   0  0  0  0  0  0  0  0  0  0  0  0
    2.3790    0.6280    0.0190 C   0  0  0  0  0  0  0  0  0  0  0  0
    3.1540    1.0090   -1.1510 C   0  0  0  0  0  0  0  0  0  0  0  0
    3.4070   -0.1030   -2.1310 C   0  0  0  0  0  0  0  0  0  0  0  0
    4.0960   -1.2840   -1.5040 C   0  0  0  0  0  0  0  0  0  0  0  0
    5.4410   -0.8690   -0.9320 C   0  0  0  0  0  0  0  0  0  0  0  0
    6.1190   -2.0940   -0.3060 C   0  0  0  0  0  0  0  0  0  0  0  0
   -0.0770    0.7560    0.3880 C   0  0  0  0  0  0  0  0  0  0  0  0
    0.0320    2.0550    1.0570 C   0  0  0  0  0  0  0  0  0  0  0  0
   -0.6430    2.2580    2.2720 C   0  0  0  0  0  0  0  0  0  0  0  0
   -0.5760    3.4560    2.9450 C   0  0  0  0  0  0  0  0  0  0  0  0
    0.1630    4.5180    2.4520 C   0  0  0  0  0  0  0  0  0  0  0  0
    0.8260    4.3410    1.2720 C   0  0  0  0  0  0  0  0  0  0  0  0
    0.7500    3.1350    0.6070 C   0  0  0  0  0  0  0  0  0  0  0  0
  1  2  2  0
  2  3  1  0
  9  2  1  6
  3  4  2  0
  3  8  1  0
  4  5  1  0
  5  6  2  0
  6  7  1  0
  7  8  2  0
  9 10  1  0
  9 14  1  0
  9 23  1  0
 10 11  1  0
 11 12  1  0
 12 13  1  6
 12 14  1  0
 14 15  1  1
 15 16  1  0
 16 17  1  0
 16 23  2  0
 17 18  1  0
 18 19  1  0
 19 20  1  0
 20 21  1  0
 21 22  1  0
 23 24  1  0
 24 25  2  0
 24 29  1  0
 25 26  1  0
 26 27  2  0
 27 28  1  0
 28 29  2  0
M  END
