
     RDKit          3D

 31 34  0  0  0  0  0  0  0  0999 V2000
    6.4760    3.4180    0.4500 C   0  0  0  0  0  0  0  0  0  0  0  0
    7.0650    2.2600   -0.2300 C   0  0  0  0  0  0  0  0  0  0  0  0
    8.3220    2.4980   -0.5870 O   0  0  0  0  0  0  0  0  0  0  0  0
    6.5840    0.9810   -0.5820 C   0  0  0  0  0  0  0  0  0  0  0  0
    5.6030    0.2010   -0.5090 C   0  0  0  0  0  0  0  0  0  0  0  0
    4.2960    0.1220    0.0150 N   0  0  0  0  0  0  0  0  0  0  0  0
    3.4320   -0.7220   -0.5500 N   0  0  0  0  0  0  0  0  0  0  0  0
    2.1840   -0.9970   -0.1670 C   0  0  0  0  0  0  0  0  0  0  0  0
    1.3910   -1.9210   -0.8880 N   0  0  0  0  0  0  0  0  0  0  0  0
    0.1010   -2.4220   -0.7380 C   0  0  1  0  0  0  0  0  0  0  0  0
   -0.1980   -3.2030    0.4940 C   0  0  0  0  0  0  0  0  0  0  0  0
   -1.5480   -3.8160    0.4980 C   0  0  0  0  0  0  0  0  0  0  0  0
   -2.5610   -3.3580   -0.4600 C   0  0  0  0  0  0  0  0  0  0  0  0
   -2.1520   -2.4210   -1.5430 C   0  0  0  0  0  0  0  0  0  0  0  0
   -1.0540   -1.4600   -0.9810 C   0  0  1  0  0  0  0  0  0  0  0  0
   -1.6630   -0.9560    0.2230 N   0  0  0  0  0  0  0  0  0  0  0  0
   -2.6320    0.0700    0.1380 C   0  0  0  0  0  0  0  0  0  0  0  0
   -3.2820    0.3910    1.3260 C   0  0  0  0  0  0  0  0  0  0  0  0
   -4.2320    1.3770    1.3500 C   0  0  0  0  0  0  0  0  0  0  0  0
   -4.5390    2.0570    0.1680 C   0  0  0  0  0  0  0  0  0  0  0  0
   -5.4910    3.0510    0.1750 C   0  0  0  0  0  0  0  0  0  0  0  0
   -5.7600    3.6920   -1.0130 C   0  0  0  0  0  0  0  0  0  0  0  0
   -5.0580    3.2970   -2.1320 C   0  0  0  0  0  0  0  0  0  0  0  0
   -5.3290    3.9070   -3.2100 O   0  0  0  0  0  0  0  0  0  0  0  0
   -4.1590    2.3530   -2.1230 O   0  0  0  0  0  0  0  0  0  0  0  0
   -3.8820    1.7240   -1.0010 C   0  0  0  0  0  0  0  0  0  0  0  0
   -2.9210    0.7280   -1.0340 C   0  0  0  0  0  0  0  0  0  0  0  0
    1.7320   -0.3320    0.9430 C   0  0  0  0  0  0  0  0  0  0  0  0
    2.5820    0.5460    1.5630 C   0  0  0  0  0  0  0  0  0  0  0  0
    3.8760    0.7750    1.0960 C   0  0  0  0  0  0  0  0  0  0  0  0
    4.5960    1.5910    1.7340 O   0  0  0  0  0  0  0  0  0  0  0  0
  1  2  1  0
  2  3  2  0
  2  4  1  0
  4  5  2  3
  5  6  1  0
  6  7  1  0
  6 30  1  0
  7  8  2  0
  8  9  1  0
  8 28  1  0
 10  9  1  1
 10 11  1  0
 10 15  1  0
 11 12  1  0
 12 13  1  0
 13 14  1  0
 14 15  1  0
 15 16  1  1
 16 17  1  0
 17 18  2  0
 17 27  1  0
 18 19  1  0
 19 20  2  0
 20 21  1  0
 20 26  1  0
 21 22  2  0
 22 23  1  0
 23 24  2  0
 23 25  1  0
 25 26  1  0
 26 27  2  0
 28 29  2  0
 29 30  1  0
 30 31  2  0
M  END
