
     RDKit          3D

 33 36  0  0  0  0  0  0  0  0999 V2000
   -2.3230   -3.6010   -0.9130 C   0  0  0  0  0  0  0  0  0  0  0  0
   -2.3500   -2.6940    0.2660 C   0  0  0  0  0  0  0  0  0  0  0  0
   -3.1650   -1.4750    0.1110 C   0  0  0  0  0  0  0  0  0  0  0  0
   -4.5300   -1.5190    0.1480 C   0  0  0  0  0  0  0  0  0  0  0  0
   -5.2810   -2.8020    0.3230 C   0  0  0  0  0  0  0  0  0  0  0  0
   -5.2220   -0.3820    0.0240 N   0  0  0  0  0  0  0  0  0  0  0  0
   -4.6040    0.8180   -0.1370 C   0  0  0  0  0  0  0  0  0  0  0  0
   -5.3010    1.8610   -0.2600 O   0  0  0  0  0  0  0  0  0  0  0  0
   -3.2120    0.9370   -0.1800 C   0  0  0  0  0  0  0  0  0  0  0  0
   -2.5210    2.2120   -0.1930 C   0  0  0  0  0  0  0  0  0  0  0  0
   -1.3710    2.5550   -0.8000 N   0  0  0  0  0  0  0  0  0  0  0  0
   -0.9970    3.8160   -0.4780 C   0  0  0  0  0  0  0  0  0  0  0  0
   -1.9290    4.3330    0.3730 C   0  0  0  0  0  0  0  0  0  0  0  0
   -2.8920    3.3140    0.5530 C   0  0  0  0  0  0  0  0  0  0  0  0
   -4.0160    3.5600    1.4910 C   0  0  0  0  0  0  0  0  0  0  0  0
   -2.5280   -0.2400   -0.0540 C   0  0  0  0  0  0  0  0  0  0  0  0
   -1.1040   -0.2610   -0.0550 N   0  0  0  0  0  0  0  0  0  0  0  0
   -0.4590   -0.6360   -1.2790 C   0  0  0  0  0  0  0  0  0  0  0  0
   -1.2140   -0.9230   -2.3810 N   0  0  0  0  0  0  0  0  0  0  0  0
   -0.7020   -1.2690   -3.5670 C   0  0  0  0  0  0  0  0  0  0  0  0
    0.6690   -1.3370   -3.6680 C   0  0  0  0  0  0  0  0  0  0  0  0
    1.4230   -1.0590   -2.6000 N   0  0  0  0  0  0  0  0  0  0  0  0
    0.8880   -0.7030   -1.3840 C   0  0  0  0  0  0  0  0  0  0  0  0
    1.7480   -0.4180   -0.2980 N   0  0  0  0  0  0  0  0  0  0  0  0
    3.1790   -0.5140   -0.4820 C   0  0  0  0  0  0  0  0  0  0  0  0
    3.9570   -0.1270    0.7540 C   0  0  2  0  0  0  0  0  0  0  0  0
    3.6420    1.2790    1.1060 C   0  0  0  0  0  0  0  0  0  0  0  0
    4.3300    1.7860    2.3250 C   0  0  0  0  0  0  0  0  0  0  0  0
    5.7090    1.7760    2.2560 O   0  0  0  0  0  0  0  0  0  0  0  0
    5.4480   -0.2750    0.5000 C   0  0  0  0  0  0  0  0  0  0  0  0
    5.9890   -1.0870    1.6300 C   0  0  0  0  0  0  0  0  0  0  0  0
    5.0000   -1.0760    2.5800 O   0  0  0  0  0  0  0  0  0  0  0  0
    3.7730   -1.0890    1.9050 C   0  0  0  0  0  0  0  0  0  0  0  0
  1  2  1  0
  2  3  1  0
  3  4  2  0
  3 16  1  0
  4  5  1  0
  4  6  1  0
  6  7  1  0
  7  8  2  0
  7  9  1  0
  9 10  1  0
  9 16  2  0
 10 11  1  0
 10 14  2  0
 11 12  1  0
 12 13  2  0
 13 14  1  0
 14 15  1  0
 16 17  1  0
 17 18  1  0
 18 19  2  0
 18 23  1  0
 19 20  1  0
 20 21  2  0
 21 22  1  0
 22 23  2  0
 23 24  1  0
 24 25  1  0
 26 25  1  6
 26 27  1  0
 26 30  1  0
 26 33  1  0
 27 28  1  0
 28 29  1  0
 30 31  1  0
 31 32  1  0
 32 33  1  0
M  END
