
     RDKit          3D

 33 35  0  0  0  0  0  0  0  0999 V2000
    6.0570    5.6260    1.5060 C   0  0  0  0  0  0  0  0  0  0  0  0
    5.0360    4.8450    1.1730 C   0  0  0  0  0  0  0  0  0  0  0  0
    4.5210    3.8690    2.0650 N   0  0  0  0  0  0  0  0  0  0  0  0
    3.4250    3.0070    1.7500 C   0  0  0  0  0  0  0  0  0  0  0  0
    2.8150    3.0630    0.5990 C   0  0  0  0  0  0  0  0  0  0  0  0
    1.7320    2.2540    0.2130 N   0  0  0  0  0  0  0  0  0  0  0  0
    1.1350    1.2550    1.0030 C   0  0  0  0  0  0  0  0  0  0  0  0
    1.5360    0.9930    2.1430 O   0  0  0  0  0  0  0  0  0  0  0  0
   -0.0330    0.4410    0.5110 C   0  0  0  0  0  0  0  0  0  0  0  0
   -0.4620   -0.4500    1.3560 C   0  0  0  0  0  0  0  0  0  0  0  0
   -1.5550   -1.3720    1.1620 C   0  0  0  0  0  0  0  0  0  0  0  0
   -1.9080   -2.2330    2.1110 C   0  0  0  0  0  0  0  0  0  0  0  0
   -1.1750   -2.2320    3.3500 N   0  0  0  0  0  0  0  0  0  0  0  0
   -0.5020   -3.4010    3.7720 C   0  0  0  0  0  0  0  0  0  0  0  0
    0.2560   -3.3990    5.0540 C   0  0  0  0  0  0  0  0  0  0  0  0
   -0.5310   -4.4640    3.0720 O   0  0  0  0  0  0  0  0  0  0  0  0
   -3.0170   -3.1690    1.9120 C   0  0  1  0  0  0  0  0  0  0  0  0
   -4.4250   -2.6950    1.9060 C   0  0  0  0  0  0  0  0  0  0  0  0
   -3.8060   -3.1780    0.6050 C   0  0  0  0  0  0  0  0  0  0  0  0
   -0.5170    0.7720   -0.7400 N   0  0  0  0  0  0  0  0  0  0  0  0
   -1.1010    0.1480   -1.8310 C   0  0  0  0  0  0  0  0  0  0  0  0
   -2.4520    0.1530   -1.8100 C   0  0  0  0  0  0  0  0  0  0  0  0
   -3.3930   -0.3940   -2.7660 C   0  0  0  0  0  0  0  0  0  0  0  0
   -3.1760   -0.6440   -4.0780 C   0  0  0  0  0  0  0  0  0  0  0  0
   -1.9510   -0.4200   -4.8200 C   0  0  0  0  0  0  0  0  0  0  0  0
   -2.0420   -0.3090   -6.3200 C   0  0  0  0  0  0  0  0  0  0  0  0
   -0.7520   -0.3020   -4.3260 N   0  0  0  0  0  0  0  0  0  0  0  0
   -0.3210   -0.3600   -2.9120 C   0  0  0  0  0  0  0  0  0  0  0  0
    0.8250   -0.9150   -2.7790 C   0  0  0  0  0  0  0  0  0  0  0  0
    1.5550   -1.1420   -1.5190 C   0  0  0  0  0  0  0  0  0  0  0  0
    3.3060    4.0640   -0.3830 C   0  0  0  0  0  0  0  0  0  0  0  0
    2.7340    4.1500   -1.5250 O   0  0  0  0  0  0  0  0  0  0  0  0
    4.3810    4.9200   -0.0950 N   0  0  0  0  0  0  0  0  0  0  0  0
  1  2  2  0
  2  3  1  0
  2 33  1  0
  3  4  1  0
  4  5  2  0
  5  6  1  0
  5 31  1  0
  6  7  1  0
  7  8  2  0
  7  9  1  0
  9 10  2  3
  9 20  1  0
 10 11  1  0
 11 12  2  3
 12 13  1  0
 17 12  1  6
 13 14  1  0
 14 15  1  0
 14 16  2  0
 17 18  1  0
 17 19  1  0
 18 19  1  0
 20 21  1  0
 21 22  2  0
 21 28  1  0
 22 23  1  0
 23 24  2  0
 24 25  1  0
 25 26  1  0
 25 27  2  0
 27 28  1  0
 28 29  2  3
 29 30  1  0
 31 32  2  0
 31 33  1  0
M  END
