
     RDKit          3D

 33 36  0  0  0  0  0  0  0  0999 V2000
   -8.3350    3.0350    1.8950 C   0  0  0  0  0  0  0  0  0  0  0  0
   -7.8060    1.8660    1.1270 C   0  0  0  0  0  0  0  0  0  0  0  0
   -7.4600    0.6810    1.9870 C   0  0  0  0  0  0  0  0  0  0  0  0
   -6.9620   -0.3590    1.0740 N   0  0  0  0  0  0  0  0  0  0  0  0
   -7.6530   -1.3070    0.4490 C   0  0  0  0  0  0  0  0  0  0  0  0
   -6.8190   -2.0860   -0.3200 C   0  0  0  0  0  0  0  0  0  0  0  0
   -5.5260   -1.5670   -0.1450 C   0  0  0  0  0  0  0  0  0  0  0  0
   -4.3680   -2.1030   -0.7810 N   0  0  0  0  0  0  0  0  0  0  0  0
   -3.0490   -1.5540   -0.5810 C   0  0  0  0  0  0  0  0  0  0  0  0
   -2.9070   -0.5820    0.1680 O   0  0  0  0  0  0  0  0  0  0  0  0
   -1.9450   -2.1250   -1.2350 N   0  0  0  0  0  0  0  0  0  0  0  0
   -0.5940   -1.7120   -1.1500 C   0  0  0  0  0  0  0  0  0  0  0  0
   -0.2070   -0.6430   -0.3950 C   0  0  0  0  0  0  0  0  0  0  0  0
    1.1410   -0.2480   -0.3300 C   0  0  0  0  0  0  0  0  0  0  0  0
    2.1400   -0.9010   -1.0100 C   0  0  0  0  0  0  0  0  0  0  0  0
    3.4820   -0.4270   -0.9930 N   0  0  0  0  0  0  0  0  0  0  0  0
    4.0200    0.4440   -0.0050 C   0  0  0  0  0  0  0  0  0  0  0  0
    3.3180    0.8410    0.9360 O   0  0  0  0  0  0  0  0  0  0  0  0
    5.4540    0.8780   -0.1150 C   0  0  0  0  0  0  0  0  0  0  0  0
    5.8740    1.8330    0.9390 C   0  0  1  0  0  0  0  0  0  0  0  0
    5.1270    3.1270    0.9750 C   0  0  0  0  0  0  0  0  0  0  0  0
    5.3200    3.7820   -0.3060 N   0  0  0  0  0  0  0  0  0  0  0  0
    6.1300    1.2110    2.3000 C   0  0  0  0  0  0  0  0  0  0  0  0
    7.5410    0.8950    1.8050 C   0  0  0  0  0  0  0  0  0  0  0  0
    7.3790    2.0810    0.8510 C   0  0  0  0  0  0  0  0  0  0  0  0
    1.7510   -1.9960   -1.7830 C   0  0  0  0  0  0  0  0  0  0  0  0
    2.7110   -2.6960   -2.4700 C   0  0  0  0  0  0  0  0  0  0  0  0
    3.9270   -2.4470   -2.4840 O   0  0  0  0  0  0  0  0  0  0  0  0
    2.3230   -3.7640   -3.2060 N   0  0  0  0  0  0  0  0  0  0  0  0
    1.0620   -4.1580   -3.2880 C   0  0  0  0  0  0  0  0  0  0  0  0
    0.0890   -3.4600   -2.5990 C   0  0  0  0  0  0  0  0  0  0  0  0
    0.4080   -2.3740   -1.8370 C   0  0  0  0  0  0  0  0  0  0  0  0
   -5.6750   -0.5210    0.7100 C   0  0  0  0  0  0  0  0  0  0  0  0
  1  2  1  0
  2  3  1  0
  3  4  1  0
  4  5  1  0
  4 33  1  0
  5  6  2  0
  6  7  1  0
  7  8  1  0
  7 33  2  0
  8  9  1  0
  9 10  2  0
  9 11  1  0
 11 12  1  0
 12 13  2  0
 12 32  1  0
 13 14  1  0
 14 15  2  0
 15 16  1  0
 15 26  1  0
 16 17  1  0
 17 18  2  0
 17 19  1  0
 20 19  1  6
 20 21  1  0
 20 23  1  0
 20 25  1  0
 21 22  1  0
 23 24  1  0
 24 25  1  0
 26 27  1  0
 26 32  2  0
 27 28  2  0
 27 29  1  0
 29 30  1  0
 30 31  2  0
 31 32  1  0
M  END
