
     RDKit          3D

 29 31  0  0  0  0  0  0  0  0999 V2000
    5.5920    2.3440    1.9050 C   0  0  0  0  0  0  0  0  0  0  0  0
    5.3410    1.2630    0.8980 C   0  0  0  0  0  0  0  0  0  0  0  0
    4.0800    0.7600    0.6550 C   0  0  0  0  0  0  0  0  0  0  0  0
    3.8400   -0.2350   -0.2700 C   0  0  0  0  0  0  0  0  0  0  0  0
    2.2780   -0.8960   -0.6070 S   0  0  2  0  0  0  0  0  0  0  0  0
    2.2810   -2.3650   -0.3170 O   0  0  0  0  0  0  0  0  0  0  0  0
    1.9320   -0.6900   -2.0560 O   0  0  0  0  0  0  0  0  0  0  0  0
    1.0100   -0.1420    0.3810 C   0  0  0  0  0  0  0  0  0  0  0  0
   -0.2850   -0.6790    0.1120 N   0  0  0  0  0  0  0  0  0  0  0  0
   -0.7420   -1.8370    0.8910 C   0  0  0  0  0  0  0  0  0  0  0  0
   -1.1530   -0.1510   -0.8720 C   0  0  0  0  0  0  0  0  0  0  0  0
   -0.7520    0.8550   -1.5490 O   0  0  0  0  0  0  0  0  0  0  0  0
   -2.4550   -0.7010   -1.1350 C   0  0  0  0  0  0  0  0  0  0  0  0
   -3.6530   -0.3530   -0.5470 C   0  0  0  0  0  0  0  0  0  0  0  0
   -3.8870    0.6200    0.4470 N   0  0  0  0  0  0  0  0  0  0  0  0
   -3.5920    2.0290    0.2940 C   0  0  0  0  0  0  0  0  0  0  0  0
   -4.8070    2.7950    0.7470 C   0  0  0  0  0  0  0  0  0  0  0  0
   -5.2280    2.4900    2.0070 O   0  0  0  0  0  0  0  0  0  0  0  0
   -4.6140    1.4320    2.6100 C   0  0  0  0  0  0  0  0  0  0  0  0
   -4.4630    0.2170    1.7270 C   0  0  0  0  0  0  0  0  0  0  0  0
   -4.6090   -1.1240   -1.0970 N   0  0  0  0  0  0  0  0  0  0  0  0
   -4.0830   -1.9380   -1.9970 N   0  0  0  0  0  0  0  0  0  0  0  0
   -2.7610   -1.6980   -2.0400 C   0  0  0  0  0  0  0  0  0  0  0  0
   -1.7810   -2.3890   -2.9150 C   0  0  0  0  0  0  0  0  0  0  0  0
    4.9230   -0.7230   -0.9610 C   0  0  0  0  0  0  0  0  0  0  0  0
    4.7250   -1.7640   -1.9400 N   0  0  0  0  0  0  0  0  0  0  0  0
    6.2130   -0.2620   -0.7650 C   0  0  0  0  0  0  0  0  0  0  0  0
    6.3920    0.7340    0.1730 C   0  0  0  0  0  0  0  0  0  0  0  0
    7.6470    1.2310    0.4100 F   0  0  0  0  0  0  0  0  0  0  0  0
  1  2  1  0
  2  3  2  0
  2 28  1  0
  3  4  1  0
  4  5  1  0
  4 25  2  0
  5  6  2  0
  5  7  2  0
  5  8  1  1
  8  9  1  0
  9 10  1  0
  9 11  1  0
 11 12  2  0
 11 13  1  0
 13 14  1  0
 13 23  2  0
 14 15  1  0
 14 21  2  0
 15 16  1  0
 15 20  1  0
 16 17  1  0
 17 18  1  0
 18 19  1  0
 19 20  1  0
 21 22  1  0
 22 23  1  0
 23 24  1  0
 25 26  1  0
 25 27  1  0
 27 28  2  0
 28 29  1  0
M  END
