
     RDKit          3D

 30 32  0  0  0  0  0  0  0  0999 V2000
    7.2500    1.9440    1.7570 C   0  0  0  0  0  0  0  0  0  0  0  0
    6.2590    0.8830    1.3560 C   0  0  0  0  0  0  0  0  0  0  0  0
    6.7000   -0.1940    0.6290 C   0  0  0  0  0  0  0  0  0  0  0  0
    5.7800   -1.1410    0.2780 C   0  0  0  0  0  0  0  0  0  0  0  0
    4.4510   -1.0290    0.6360 C   0  0  0  0  0  0  0  0  0  0  0  0
    4.0360    0.0230    1.3410 N   0  0  0  0  0  0  0  0  0  0  0  0
    2.6720    0.1550    1.6910 C   0  0  0  0  0  0  0  0  0  0  0  0
    2.3070    1.1580    2.3900 O   0  0  0  0  0  0  0  0  0  0  0  0
    1.6960   -0.8310    1.2660 C   0  0  0  0  0  0  0  0  0  0  0  0
    0.7580   -1.4270    2.0830 C   0  0  0  0  0  0  0  0  0  0  0  0
    0.0360   -2.2340    1.3030 N   0  0  0  0  0  0  0  0  0  0  0  0
    0.4840   -2.1640    0.0400 C   0  0  0  0  0  0  0  0  0  0  0  0
   -0.0500   -2.9150   -1.1190 C   0  0  0  0  0  0  0  0  0  0  0  0
   -1.1520   -2.0990   -1.7500 C   0  0  0  0  0  0  0  0  0  0  0  0
   -0.5740   -0.8240   -2.1710 N   0  0  0  0  0  0  0  0  0  0  0  0
   -1.8320    0.1060   -2.8960 S   0  0  1  0  0  0  0  0  0  0  0  0
   -1.2860    1.0100   -3.9740 O   0  0  0  0  0  0  0  0  0  0  0  0
   -2.8100   -0.8500   -3.5440 O   0  0  0  0  0  0  0  0  0  0  0  0
   -2.5790    1.0670   -1.7040 N   0  0  0  0  0  0  0  0  0  0  0  0
   -3.7080    0.4480   -1.0550 C   0  0  1  0  0  0  0  0  0  0  0  0
   -3.4820    0.4110    0.4110 C   0  0  0  0  0  0  0  0  0  0  0  0
   -4.7450    0.4310    1.2370 C   0  0  0  0  0  0  0  0  0  0  0  0
   -5.6950    1.5300    0.8200 C   0  0  2  0  0  0  0  0  0  0  0  0
   -5.9890    2.4130    1.8140 F   0  0  0  0  0  0  0  0  0  0  0  0
   -6.8880    0.9270    0.4230 F   0  0  0  0  0  0  0  0  0  0  0  0
   -5.1640    2.2830   -0.3880 C   0  0  0  0  0  0  0  0  0  0  0  0
   -4.9460    1.2210   -1.4550 C   0  0  0  0  0  0  0  0  0  0  0  0
    1.5130   -1.2980   -0.0000 N   0  0  0  0  0  0  0  0  0  0  0  0
    4.9330    0.9680    1.6970 C   0  0  0  0  0  0  0  0  0  0  0  0
    4.5410    1.9750    2.3710 O   0  0  0  0  0  0  0  0  0  0  0  0
  1  2  1  0
  2  3  2  0
  2 29  1  0
  3  4  1  0
  4  5  2  0
  5  6  1  0
  6  7  1  0
  6 29  1  0
  7  8  2  0
  7  9  1  0
  9 10  2  0
  9 28  1  0
 10 11  1  0
 11 12  2  0
 12 13  1  0
 12 28  1  0
 13 14  1  0
 14 15  1  0
 16 15  1  1
 16 17  2  0
 16 18  2  0
 16 19  1  0
 20 19  1  6
 20 21  1  0
 20 27  1  0
 21 22  1  0
 22 23  1  0
 23 24  1  1
 23 25  1  0
 23 26  1  0
 26 27  1  0
 29 30  2  0
M  END
