
     RDKit          3D

 31 35  0  0  0  0  0  0  0  0999 V2000
   -2.7110   -1.2560   -3.0890 C   0  0  0  0  0  0  0  0  0  0  0  0
   -2.6530   -1.2500   -1.7300 C   0  0  0  0  0  0  0  0  0  0  0  0
   -2.1470   -2.3790   -1.0310 C   0  0  0  0  0  0  0  0  0  0  0  0
   -1.9740   -2.6460    0.2270 C   0  0  0  0  0  0  0  0  0  0  0  0
   -1.3810   -4.0360    0.5620 C   0  0  0  0  0  0  0  0  0  0  0  0
   -2.2030   -4.5790    1.6520 N   0  0  0  0  0  0  0  0  0  0  0  0
   -2.4920   -3.7470    2.7690 C   0  0  0  0  0  0  0  0  0  0  0  0
   -2.7600   -4.0440    4.0200 C   0  0  0  0  0  0  0  0  0  0  0  0
   -2.9740   -2.7630    4.7310 C   0  0  0  0  0  0  0  0  0  0  0  0
   -2.8240   -1.7520    3.8760 C   0  0  0  0  0  0  0  0  0  0  0  0
   -2.5100   -2.3060    2.5720 C   0  0  0  0  0  0  0  0  0  0  0  0
   -2.2540   -1.7910    1.3500 C   0  0  0  0  0  0  0  0  0  0  0  0
   -2.2000   -0.3140    1.2370 C   0  0  0  0  0  0  0  0  0  0  0  0
   -0.9290    0.0610    0.6830 N   0  0  0  0  0  0  0  0  0  0  0  0
    0.1800   -0.2070    1.5210 C   0  0  0  0  0  0  0  0  0  0  0  0
    0.8030    0.9550    2.1940 C   0  0  0  0  0  0  0  0  0  0  0  0
    0.3630    2.3010    1.7540 C   0  0  0  0  0  0  0  0  0  0  0  0
   -0.1260    2.3930    0.3520 C   0  0  1  0  0  0  0  0  0  0  0  0
    0.9440    2.7320   -0.6360 C   0  0  0  0  0  0  0  0  0  0  0  0
    0.8530    3.7940   -1.2940 O   0  0  0  0  0  0  0  0  0  0  0  0
    2.0600    1.9150   -0.8710 N   0  0  0  0  0  0  0  0  0  0  0  0
    3.1290    2.1060   -1.7540 C   0  0  0  0  0  0  0  0  0  0  0  0
    4.0720    1.0800   -1.9250 C   0  0  0  0  0  0  0  0  0  0  0  0
    5.1240    1.1890   -2.7470 N   0  0  0  0  0  0  0  0  0  0  0  0
    5.3620    2.2940   -3.4760 C   0  0  0  0  0  0  0  0  0  0  0  0
    6.2940    2.6500   -4.3340 O   0  0  0  0  0  0  0  0  0  0  0  0
    6.0640    3.8710   -4.7810 N   0  0  0  0  0  0  0  0  0  0  0  0
    4.9290    4.3190   -4.1790 C   0  0  0  0  0  0  0  0  0  0  0  0
    4.4720    3.3300   -3.3490 C   0  0  0  0  0  0  0  0  0  0  0  0
    3.3770    3.2290   -2.5000 C   0  0  0  0  0  0  0  0  0  0  0  0
   -0.9330    1.2260   -0.1010 C   0  0  0  0  0  0  0  0  0  0  0  0
  1  2  2  0
  2  3  1  0
  3  4  2  3
  4  5  1  0
  4 12  1  0
  5  6  1  0
  6  7  1  0
  7  8  2  0
  7 11  1  0
  8  9  1  0
  9 10  2  0
 10 11  1  0
 11 12  2  0
 12 13  1  0
 13 14  1  0
 14 15  1  0
 14 31  1  0
 15 16  1  0
 16 17  1  0
 17 18  1  0
 18 19  1  6
 18 31  1  0
 19 20  2  0
 19 21  1  0
 21 22  1  0
 22 23  2  0
 22 30  1  0
 23 24  1  0
 24 25  2  0
 25 26  1  0
 25 29  1  0
 26 27  1  0
 27 28  2  0
 28 29  1  0
 29 30  2  0
M  END
