
     RDKit          3D

 31 33  0  0  0  0  0  0  0  0999 V2000
   -6.9300   -2.5320    2.0860 C   0  0  0  0  0  0  0  0  0  0  0  0
   -5.9990   -1.8070    1.1740 C   0  0  0  0  0  0  0  0  0  0  0  0
   -4.6750   -1.7790    1.4780 C   0  0  0  0  0  0  0  0  0  0  0  0
   -3.7610   -1.1040    0.6410 C   0  0  0  0  0  0  0  0  0  0  0  0
   -2.4530   -1.0930    0.9620 O   0  0  0  0  0  0  0  0  0  0  0  0
   -1.3460   -0.5180    0.3940 C   0  0  0  0  0  0  0  0  0  0  0  0
   -1.4320    0.9850    0.4450 C   0  0  0  0  0  0  0  0  0  0  0  0
   -0.2810    1.5320   -0.1560 O   0  0  0  0  0  0  0  0  0  0  0  0
    0.9860    1.3020    0.4510 C   0  0  0  0  0  0  0  0  0  0  0  0
    1.0630    0.6510    1.4790 O   0  0  0  0  0  0  0  0  0  0  0  0
    2.1560    1.8190   -0.1220 N   0  0  0  0  0  0  0  0  0  0  0  0
    3.5030    1.7960    0.1760 C   0  0  0  0  0  0  0  0  0  0  0  0
    4.2220    1.2740    1.1220 C   0  0  0  0  0  0  0  0  0  0  0  0
    3.9690    0.4800    2.2950 C   0  0  0  0  0  0  0  0  0  0  0  0
    5.1630    0.1050    3.1010 N   0  0  0  0  0  0  0  0  0  0  0  0
    2.9680    0.0260    2.8030 O   0  0  0  0  0  0  0  0  0  0  0  0
    5.6860    1.6500    0.8500 C   0  0  1  0  0  0  0  0  0  0  0  0
    6.4170    0.5320    0.1950 C   0  0  0  0  0  0  0  0  0  0  0  0
    5.8490    0.1150   -1.1200 C   0  0  0  0  0  0  0  0  0  0  0  0
    6.6470   -0.9990   -1.6680 C   0  0  0  0  0  0  0  0  0  0  0  0
    6.3120   -1.5730   -2.9140 N   0  0  0  0  0  0  0  0  0  0  0  0
    7.6240   -1.4410   -1.0330 O   0  0  0  0  0  0  0  0  0  0  0  0
    5.6020    2.7820   -0.0190 N   0  0  0  0  0  0  0  0  0  0  0  0
    4.4220    2.5050   -0.7420 N   0  0  0  0  0  0  0  0  0  0  0  0
   -4.2570   -0.4850   -0.4800 C   0  0  0  0  0  0  0  0  0  0  0  0
   -5.6210   -0.5080   -0.8020 C   0  0  0  0  0  0  0  0  0  0  0  0
   -6.4640   -1.1620    0.0200 C   0  0  0  0  0  0  0  0  0  0  0  0
   -8.2060   -1.2580   -0.2840 S   0  0  0  0  0  0  0  0  0  0  0  0
   -8.5370   -0.3640   -1.8000 C   0  0  0  0  0  0  0  0  0  0  0  0
   -7.3320    0.2040   -2.3910 C   0  0  0  0  0  0  0  0  0  0  0  0
   -6.0980    0.1600   -1.9960 C   0  0  0  0  0  0  0  0  0  0  0  0
  1  2  1  0
  2  3  2  0
  2 27  1  0
  3  4  1  0
  4  5  1  0
  4 25  2  0
  5  6  1  0
  6  7  1  0
  7  8  1  0
  8  9  1  0
  9 10  2  0
  9 11  1  0
 11 12  1  0
 12 13  2  0
 12 24  1  0
 13 14  1  0
 13 17  1  0
 14 15  1  0
 14 16  2  0
 17 18  1  6
 17 23  1  0
 18 19  1  0
 19 20  1  0
 20 21  1  0
 20 22  2  0
 23 24  1  0
 25 26  1  0
 26 27  2  0
 26 31  1  0
 27 28  1  0
 28 29  1  0
 29 30  1  0
 30 31  2  0
M  END
