
     RDKit          3D

 31 35  0  0  0  0  0  0  0  0999 V2000
    7.0350    0.2290    0.8130 C   0  0  0  0  0  0  0  0  0  0  0  0
    6.6520    1.1120   -0.0890 C   0  0  0  0  0  0  0  0  0  0  0  0
    7.5040    1.9580   -0.9570 C   0  0  0  0  0  0  0  0  0  0  0  0
    6.5820    3.0690   -1.3680 C   0  0  0  0  0  0  0  0  0  0  0  0
    5.2010    2.5240   -1.1240 C   0  0  0  0  0  0  0  0  0  0  0  0
    5.2400    1.4270   -0.4070 C   0  0  0  0  0  0  0  0  0  0  0  0
    4.0630    0.7470   -0.0580 O   0  0  0  0  0  0  0  0  0  0  0  0
    2.8160    1.1780   -0.4380 C   0  0  0  0  0  0  0  0  0  0  0  0
    1.5880    0.4150   -0.0400 C   0  0  0  0  0  0  0  0  0  0  0  0
    1.6920   -0.6610    0.6690 C   0  0  0  0  0  0  0  0  0  0  0  0
    3.0370   -1.0010    0.9980 O   0  0  0  0  0  0  0  0  0  0  0  0
    3.6340   -2.1500    0.4290 C   0  0  0  0  0  0  0  0  0  0  0  0
    0.6790   -1.5270    1.1500 C   0  0  0  0  0  0  0  0  0  0  0  0
    0.9900   -2.6360    1.9200 N   0  0  0  0  0  0  0  0  0  0  0  0
   -0.1250   -3.2620    2.2290 N   0  0  0  0  0  0  0  0  0  0  0  0
   -1.1720   -2.6390    1.7110 C   0  0  0  0  0  0  0  0  0  0  0  0
   -2.5100   -2.8650    1.7300 C   0  0  0  0  0  0  0  0  0  0  0  0
   -3.3670   -1.9780    1.0530 C   0  0  0  0  0  0  0  0  0  0  0  0
   -4.7500   -2.2010    1.0390 N   0  0  0  0  0  0  0  0  0  0  0  0
   -5.6790   -1.3520    0.4280 C   0  0  0  0  0  0  0  0  0  0  0  0
   -6.9260   -1.9270    0.1330 C   0  0  0  0  0  0  0  0  0  0  0  0
   -7.8810   -1.1500   -0.4430 C   0  0  0  0  0  0  0  0  0  0  0  0
   -7.6850    0.1800   -0.7540 C   0  0  0  0  0  0  0  0  0  0  0  0
   -8.7820    0.9860   -1.3910 C   0  0  0  0  0  0  0  0  0  0  0  0
   -6.4680    0.7540   -0.4690 C   0  0  0  0  0  0  0  0  0  0  0  0
   -5.4790   -0.0210    0.1190 C   0  0  0  0  0  0  0  0  0  0  0  0
   -2.8500   -0.9300    0.4040 N   0  0  0  0  0  0  0  0  0  0  0  0
   -1.5190   -0.7380    0.4080 C   0  0  0  0  0  0  0  0  0  0  0  0
   -0.6520   -1.5700    1.0490 N   0  0  0  0  0  0  0  0  0  0  0  0
    2.7310    2.2680   -1.1550 C   0  0  0  0  0  0  0  0  0  0  0  0
    3.9050    3.0650   -1.5800 C   0  0  0  0  0  0  0  0  0  0  0  0
  1  2  2  0
  2  3  1  0
  2  6  1  0
  3  4  1  0
  4  5  1  0
  5  6  2  0
  5 31  1  0
  6  7  1  0
  7  8  1  0
  8  9  1  0
  8 30  2  0
  9 10  2  3
 10 11  1  0
 10 13  1  0
 11 12  1  0
 13 14  2  0
 13 29  1  0
 14 15  1  0
 15 16  2  0
 16 17  1  0
 16 29  1  0
 17 18  2  0
 18 19  1  0
 18 27  1  0
 19 20  1  0
 20 21  2  0
 20 26  1  0
 21 22  1  0
 22 23  2  0
 23 24  1  0
 23 25  1  0
 25 26  2  0
 27 28  2  0
 28 29  1  0
 30 31  1  0
M  END
