
     RDKit          3D

 23 25  0  0  0  0  0  0  0  0999 V2000
   -4.9820    2.0000   -0.6830 C   0  0  0  0  0  0  0  0  0  0  0  0
   -4.8190    0.9580    0.2590 O   0  0  0  0  0  0  0  0  0  0  0  0
   -3.7830    0.1400   -0.1310 C   0  0  2  0  0  0  0  0  0  0  0  0
   -4.3080   -1.2770   -0.3220 C   0  0  0  0  0  0  0  0  0  0  0  0
   -3.2400   -2.2350   -0.7020 C   0  0  0  0  0  0  0  0  0  0  0  0
   -1.9230   -2.0610   -0.0030 C   0  0  2  0  0  0  0  0  0  0  0  0
   -1.9290   -2.7870    1.1940 O   0  0  0  0  0  0  0  0  0  0  0  0
   -1.5070   -0.6340    0.1940 C   0  0  2  0  0  0  0  0  0  0  0  0
   -0.3410   -0.5470    0.9400 O   0  0  0  0  0  0  0  0  0  0  0  0
    0.8680    0.0040    0.5410 C   0  0  0  0  0  0  0  0  0  0  0  0
    1.1130    1.3450    0.7470 C   0  0  0  0  0  0  0  0  0  0  0  0
    0.1280    2.2590    1.3950 C   0  0  0  0  0  0  0  0  0  0  0  0
    2.3240    1.8610    0.3380 C   0  0  0  0  0  0  0  0  0  0  0  0
    2.5910    3.3070    0.5600 C   0  0  0  0  0  0  0  0  0  0  0  0
    3.2960    1.0910   -0.2660 C   0  0  0  0  0  0  0  0  0  0  0  0
    3.0640   -0.2520   -0.4790 C   0  0  0  0  0  0  0  0  0  0  0  0
    4.0460   -1.1230   -1.1110 C   0  0  0  0  0  0  0  0  0  0  0  0
    5.3250   -0.9170   -0.8380 C   0  0  0  0  0  0  0  0  0  0  0  0
    6.4480   -0.2220   -0.1780 C   0  0  0  0  0  0  0  0  0  0  0  0
    6.7400   -1.2390   -0.9860 C   0  0  0  0  0  0  0  0  0  0  0  0
    1.8470   -0.7710   -0.0680 C   0  0  0  0  0  0  0  0  0  0  0  0
    1.6430   -2.2190   -0.3080 C   0  0  0  0  0  0  0  0  0  0  0  0
   -2.6920    0.0340    0.9100 C   0  0  0  0  0  0  0  0  0  0  0  0
  1  2  1  0
  3  2  1  1
  3  4  1  0
  3 23  1  0
  4  5  1  0
  5  6  1  0
  6  7  1  1
  6  8  1  0
  8  9  1  1
  8 23  1  0
  9 10  1  0
 10 11  2  0
 10 21  1  0
 11 12  1  0
 11 13  1  0
 13 14  1  0
 13 15  2  0
 15 16  1  0
 16 17  1  0
 16 21  2  0
 17 18  2  3
 18 19  1  0
 18 20  1  0
 19 20  2  0
 21 22  1  0
M  END
