
     RDKit          3D

 23 25  0  0  0  0  0  0  0  0999 V2000
   -0.7050   -4.7950   -0.7100 C   0  0  0  0  0  0  0  0  0  0  0  0
    0.1100   -3.6680   -1.2940 C   0  0  0  0  0  0  0  0  0  0  0  0
    0.1420   -2.4930   -0.3600 C   0  0  1  0  0  0  0  0  0  0  0  0
    0.9480   -1.3460   -0.9100 C   0  0  0  0  0  0  0  0  0  0  0  0
    0.8310   -0.0890   -0.1150 C   0  0  0  0  0  0  0  0  0  0  0  0
    1.8950    0.9140   -0.3580 C   0  0  0  0  0  0  0  0  0  0  0  0
    3.1790    0.4780   -0.7060 C   0  0  0  0  0  0  0  0  0  0  0  0
    4.2100    1.3520   -1.0230 C   0  0  0  0  0  0  0  0  0  0  0  0
    3.9860    2.6930   -1.0000 C   0  0  0  0  0  0  0  0  0  0  0  0
    5.0300    3.7040   -1.3230 C   0  0  0  0  0  0  0  0  0  0  0  0
    2.7540    3.1610   -0.6690 C   0  0  0  0  0  0  0  0  0  0  0  0
    1.7090    2.2680   -0.3500 C   0  0  0  0  0  0  0  0  0  0  0  0
    0.3660    2.8670   -0.0930 C   0  0  0  0  0  0  0  0  0  0  0  0
   -0.2190    0.1280    0.6340 C   0  0  0  0  0  0  0  0  0  0  0  0
   -1.3180   -0.8160    0.7290 C   0  0  0  0  0  0  0  0  0  0  0  0
   -2.3810   -0.5750    1.4970 C   0  0  0  0  0  0  0  0  0  0  0  0
   -2.6390    0.6130    2.3450 C   0  0  0  0  0  0  0  0  0  0  0  0
   -4.1560    0.7000    2.3260 C   0  0  0  0  0  0  0  0  0  0  0  0
   -4.6500   -0.6640    1.9460 C   0  0  1  0  0  0  0  0  0  0  0  0
   -5.3990   -0.6390    0.7630 O   0  0  0  0  0  0  0  0  0  0  0  0
   -3.4770   -1.4080    1.6560 O   0  0  0  0  0  0  0  0  0  0  0  0
   -1.2520   -2.0480   -0.0340 C   0  0  0  0  0  0  0  0  0  0  0  0
   -2.2740   -2.6720   -0.3810 O   0  0  0  0  0  0  0  0  0  0  0  0
  1  2  1  0
  3  2  1  6
  3  4  1  0
  3 22  1  0
  4  5  1  0
  5  6  1  0
  5 14  2  0
  6  7  2  0
  6 12  1  0
  7  8  1  0
  8  9  2  0
  9 10  1  0
  9 11  1  0
 11 12  2  0
 12 13  1  0
 14 15  1  0
 15 16  2  3
 15 22  1  0
 16 17  1  0
 16 21  1  0
 17 18  1  0
 18 19  1  0
 19 20  1  6
 19 21  1  0
 22 23  2  0
M  END
