
     RDKit          3D

 11 11  0  0  0  0  0  0  0  0999 V2000
   -2.6730   -0.1540    0.5370 N   0  0  0  0  0  0  0  0  0  0  0  0
   -1.4930   -0.5490   -0.2380 C   0  0  1  0  0  0  0  0  0  0  0  0
   -1.3310    0.3980   -1.3590 C   0  0  0  0  0  0  0  0  0  0  0  0
   -0.2760    1.2640   -1.2740 O   0  0  0  0  0  0  0  0  0  0  0  0
    0.0880    1.5630    0.0230 C   0  0  0  0  0  0  0  0  0  0  0  0
    0.7360    0.2880    0.5700 C   0  0  2  0  0  0  0  0  0  0  0  0
    1.7620   -0.0330   -0.3270 O   0  0  0  0  0  0  0  0  0  0  0  0
    3.0190    0.0290    0.2860 C   0  0  0  0  0  0  0  0  0  0  0  0
    3.9560   -0.3050   -0.6820 O   0  0  0  0  0  0  0  0  0  0  0  0
   -0.3010   -0.7630    0.6270 C   0  0  2  0  0  0  0  0  0  0  0  0
    0.3120   -2.0050    0.3760 O   0  0  0  0  0  0  0  0  0  0  0  0
  2  1  1  1
  2  3  1  0
  2 10  1  0
  3  4  1  0
  4  5  1  0
  5  6  1  0
  6  7  1  6
  6 10  1  0
  7  8  1  0
  8  9  1  0
 10 11  1  6
M  CHG  1   1   1
M  END
