
     RDKit          3D

 23 25  0  0  0  0  0  0  0  0999 V2000
   -5.5730   -1.1060    0.1490 C   0  0  0  0  0  0  0  0  0  0  0  0
   -4.3630   -0.7220    0.5180 C   0  0  0  0  0  0  0  0  0  0  0  0
   -3.6140   -1.7190    1.3440 C   0  0  0  0  0  0  0  0  0  0  0  0
   -2.2020   -1.1960    1.4710 C   0  0  0  0  0  0  0  0  0  0  0  0
   -1.4900   -1.1400    0.1660 C   0  0  0  0  0  0  0  0  0  0  0  0
   -1.4720    0.2130   -0.4830 C   0  0  2  0  0  0  0  0  0  0  0  0
   -0.3640    1.0660   -0.0150 C   0  0  0  0  0  0  0  0  0  0  0  0
    0.9970    0.6460   -0.1940 C   0  0  0  0  0  0  0  0  0  0  0  0
    1.6700    0.1510    0.9210 C   0  0  0  0  0  0  0  0  0  0  0  0
    2.9760   -0.2880    0.8900 C   0  0  0  0  0  0  0  0  0  0  0  0
    3.6780   -0.2480   -0.2950 C   0  0  0  0  0  0  0  0  0  0  0  0
    3.0260    0.2440   -1.4300 C   0  0  0  0  0  0  0  0  0  0  0  0
    1.7210    0.6750   -1.3650 C   0  0  0  0  0  0  0  0  0  0  0  0
    1.0870    1.1550   -2.4740 O   0  0  0  0  0  0  0  0  0  0  0  0
    1.7790    1.2090   -3.7020 C   0  0  0  0  0  0  0  0  0  0  0  0
    5.0430   -0.7780   -0.0360 C   0  0  0  0  0  0  0  0  0  0  0  0
    5.1670   -0.5830    1.4590 C   0  0  2  0  0  0  0  0  0  0  0  0
    6.0730   -1.6120    2.0910 C   0  0  0  0  0  0  0  0  0  0  0  0
    3.8320   -0.8150    1.8770 O   0  0  0  0  0  0  0  0  0  0  0  0
   -2.6870    0.9220   -0.3190 O   0  0  0  0  0  0  0  0  0  0  0  0
   -3.9700    0.6170    0.0570 C   0  0  0  0  0  0  0  0  0  0  0  0
   -4.9040    1.5430    0.0150 C   0  0  0  0  0  0  0  0  0  0  0  0
   -4.5760    2.9100   -0.4400 C   0  0  0  0  0  0  0  0  0  0  0  0
  1  2  2  0
  2  3  1  0
  2 21  1  0
  3  4  1  0
  4  5  1  0
  5  6  1  0
  6  7  1  1
  6 20  1  0
  7  8  1  0
  8  9  2  0
  8 13  1  0
  9 10  1  0
 10 11  2  0
 10 19  1  0
 11 12  1  0
 11 16  1  0
 12 13  2  0
 13 14  1  0
 14 15  1  0
 16 17  1  0
 17 18  1  1
 17 19  1  0
 20 21  1  0
 21 22  2  3
 22 23  1  0
M  END
