
     RDKit          3D

 23 25  0  0  0  0  0  0  0  0999 V2000
   -6.1310   -0.0930   -1.1830 C   0  0  0  0  0  0  0  0  0  0  0  0
   -5.1050   -0.3650   -0.0700 C   0  0  1  0  0  0  0  0  0  0  0  0
   -5.9440   -0.8870    1.1060 C   0  0  0  0  0  0  0  0  0  0  0  0
   -4.1960   -1.4190   -0.5440 C   0  0  0  0  0  0  0  0  0  0  0  0
   -2.7870   -1.3640   -0.1150 C   0  0  0  0  0  0  0  0  0  0  0  0
   -2.5470   -0.3180    0.9540 C   0  0  1  0  0  0  0  0  0  0  0  0
   -1.1340   -0.2430    1.3460 C   0  0  0  0  0  0  0  0  0  0  0  0
   -0.8180   -0.4670    2.5420 O   0  0  0  0  0  0  0  0  0  0  0  0
   -0.1380    0.0630    0.4610 O   0  0  0  0  0  0  0  0  0  0  0  0
    1.2310    0.1530    0.7580 C   0  0  0  0  0  0  0  0  0  0  0  0
    1.9390    0.5180   -0.5480 C   0  0  2  0  0  0  0  0  0  0  0  0
    1.6670   -0.5020   -1.4500 O   0  0  0  0  0  0  0  0  0  0  0  0
    3.3900    0.7280   -0.3410 C   0  0  0  0  0  0  0  0  0  0  0  0
    3.9460    2.0040   -0.3270 C   0  0  0  0  0  0  0  0  0  0  0  0
    5.3060    2.1000   -0.1270 C   0  0  0  0  0  0  0  0  0  0  0  0
    6.1110    0.9890    0.0550 C   0  0  0  0  0  0  0  0  0  0  0  0
    5.5430   -0.2640    0.0380 C   0  0  0  0  0  0  0  0  0  0  0  0
    4.1720   -0.3920   -0.1620 C   0  0  0  0  0  0  0  0  0  0  0  0
    6.5890   -1.2310    0.2490 C   0  0  0  0  0  0  0  0  0  0  0  0
    7.7420   -0.6440    0.3910 C   0  0  0  0  0  0  0  0  0  0  0  0
    7.5510    0.8160    0.2820 C   0  0  0  0  0  0  0  0  0  0  0  0
   -3.0200    0.9880    0.3040 C   0  0  0  0  0  0  0  0  0  0  0  0
   -4.5250    0.9300    0.3270 C   0  0  0  0  0  0  0  0  0  0  0  0
  2  1  1  6
  2  3  1  0
  2  4  1  0
  2 23  1  0
  4  5  1  0
  5  6  1  0
  6  7  1  6
  6 22  1  0
  7  8  2  0
  7  9  1  0
  9 10  1  0
 10 11  1  0
 11 12  1  6
 11 13  1  0
 13 14  2  0
 13 18  1  0
 14 15  1  0
 15 16  2  0
 16 17  1  0
 16 21  1  0
 17 18  2  0
 17 19  1  0
 19 20  2  0
 20 21  1  0
 22 23  1  0
M  END
