
     RDKit          3D

 42 47  0  0  0  0  0  0  0  0999 V2000
   -4.7640   -3.3760   -0.9910 C   0  0  0  0  0  0  0  0  0  0  0  0
   -5.6430   -2.9720   -0.0980 C   0  0  0  0  0  0  0  0  0  0  0  0
   -6.8020   -3.7340    0.1600 O   0  0  0  0  0  0  0  0  0  0  0  0
   -7.7550   -3.3610    1.0770 C   0  0  0  0  0  0  0  0  0  0  0  0
   -7.6100   -2.2440    1.7640 C   0  0  0  0  0  0  0  0  0  0  0  0
   -6.4540   -1.3940    1.5700 C   0  0  0  0  0  0  0  0  0  0  0  0
   -5.5140   -1.7500    0.6750 C   0  0  0  0  0  0  0  0  0  0  0  0
   -4.3720   -0.9070    0.4770 N   0  0  0  0  0  0  0  0  0  0  0  0
   -3.1050   -1.3790    0.8220 C   0  0  0  0  0  0  0  0  0  0  0  0
   -3.1200   -2.5930    1.3180 O   0  0  0  0  0  0  0  0  0  0  0  0
   -1.8340   -0.7380    0.7100 C   0  0  0  0  0  0  0  0  0  0  0  0
   -1.5130    0.4550    0.2570 C   0  0  0  0  0  0  0  0  0  0  0  0
   -2.8990    1.4960   -0.3250 S   0  0  0  0  0  0  0  0  0  0  0  0
   -2.2940    3.0380   -0.9050 C   0  0  0  0  0  0  0  0  0  0  0  0
   -2.2080    4.1400   -0.0640 C   0  0  0  0  0  0  0  0  0  0  0  0
   -1.7410    5.3300   -0.5230 C   0  0  0  0  0  0  0  0  0  0  0  0
   -1.3470    5.4360   -1.8500 C   0  0  0  0  0  0  0  0  0  0  0  0
   -0.7440    6.9700   -2.4460 Cl  0  0  0  0  0  0  0  0  0  0  0  0
   -1.4240    4.3550   -2.7070 C   0  0  0  0  0  0  0  0  0  0  0  0
   -1.8980    3.1510   -2.2350 C   0  0  0  0  0  0  0  0  0  0  0  0
   -0.2170    1.0180    0.0880 C   0  0  0  0  0  0  0  0  0  0  0  0
   -0.2380    2.3030   -0.2060 O   0  0  0  0  0  0  0  0  0  0  0  0
    1.0890    0.5260    0.1770 N   0  0  0  0  0  0  0  0  0  0  0  0
    2.0410    1.3670    0.7240 C   0  0  0  0  0  0  0  0  0  0  0  0
    1.6360    2.4800    1.1400 O   0  0  0  0  0  0  0  0  0  0  0  0
    3.3650    1.0690    0.8360 C   0  0  0  0  0  0  0  0  0  0  0  0
    4.4190    1.8170    1.3710 C   0  0  0  0  0  0  0  0  0  0  0  0
    5.5430    1.0390    1.2410 C   0  0  0  0  0  0  0  0  0  0  0  0
    6.8610    1.3030    1.6160 C   0  0  0  0  0  0  0  0  0  0  0  0
    7.8190    0.3490    1.3830 C   0  0  0  0  0  0  0  0  0  0  0  0
    7.4590   -0.8300    0.7910 C   0  0  0  0  0  0  0  0  0  0  0  0
    8.4060   -1.8270    0.5370 O   0  0  0  0  0  0  0  0  0  0  0  0
    6.1300   -1.0750    0.4220 C   0  0  0  0  0  0  0  0  0  0  0  0
    5.1470   -0.1510    0.6360 C   0  0  0  0  0  0  0  0  0  0  0  0
    3.8060   -0.1250    0.3890 N   0  0  0  0  0  0  0  0  0  0  0  0
    2.9390   -1.0010   -0.1670 C   0  0  0  0  0  0  0  0  0  0  0  0
    3.3850   -2.1700   -0.7170 C   0  0  0  0  0  0  0  0  0  0  0  0
    2.4770   -2.9940   -1.3780 C   0  0  0  0  0  0  0  0  0  0  0  0
    3.0750   -4.4920   -2.0730 Cl  0  0  0  0  0  0  0  0  0  0  0  0
    1.1650   -2.6380   -1.4760 C   0  0  0  0  0  0  0  0  0  0  0  0
    0.7000   -1.4740   -0.9310 C   0  0  0  0  0  0  0  0  0  0  0  0
    1.5800   -0.6380   -0.2590 C   0  0  0  0  0  0  0  0  0  0  0  0
  1  2  2  0
  2  3  1  0
  2  7  1  0
  3  4  1  0
  4  5  2  0
  5  6  1  0
  6  7  2  0
  7  8  1  0
  8  9  1  0
  9 10  2  0
  9 11  1  0
 11 12  2  3
 12 13  1  0
 12 21  1  0
 13 14  1  0
 14 15  2  0
 14 20  1  0
 15 16  1  0
 16 17  2  0
 17 18  1  0
 17 19  1  0
 19 20  2  0
 21 22  2  0
 21 23  1  0
 23 24  1  0
 23 42  1  0
 24 25  2  0
 24 26  1  0
 26 27  2  0
 26 35  1  0
 27 28  1  0
 28 29  2  0
 28 34  1  0
 29 30  1  0
 30 31  2  0
 31 32  1  0
 31 33  1  0
 33 34  2  0
 34 35  1  0
 35 36  1  0
 36 37  2  0
 36 42  1  0
 37 38  1  0
 38 39  1  0
 38 40  2  0
 40 41  1  0
 41 42  2  0
M  END
