
     RDKit          3D

 47 50  0  0  0  0  0  0  0  0999 V2000
  -10.2770    1.4060   -2.0910 C   0  0  0  0  0  0  0  0  0  0  0  0
   -9.1600    1.6600   -1.1130 C   0  0  0  0  0  0  0  0  0  0  0  0
   -9.0170    1.1180    0.1440 C   0  0  0  0  0  0  0  0  0  0  0  0
   -7.9160    1.5990    0.6440 O   0  0  0  0  0  0  0  0  0  0  0  0
   -7.3170    2.4130   -0.1740 C   0  0  0  0  0  0  0  0  0  0  0  0
   -6.0380    3.1280    0.0970 C   0  0  0  0  0  0  0  0  0  0  0  0
   -5.4840    2.6630    1.3150 N   0  0  0  0  0  0  0  0  0  0  0  0
   -5.9240    3.4340    2.5470 C   0  0  0  0  0  0  0  0  0  0  0  0
   -4.6180    1.6390    1.5580 C   0  0  0  0  0  0  0  0  0  0  0  0
   -4.2880    1.4900    2.8220 O   0  0  0  0  0  0  0  0  0  0  0  0
   -3.9920    0.6880    0.6870 C   0  0  0  0  0  0  0  0  0  0  0  0
   -4.2910    0.5580   -0.6390 C   0  0  0  0  0  0  0  0  0  0  0  0
   -3.5780   -0.3640   -1.4120 C   0  0  0  0  0  0  0  0  0  0  0  0
   -2.5810   -1.1490   -0.8780 C   0  0  0  0  0  0  0  0  0  0  0  0
   -2.2690   -1.0290    0.4640 C   0  0  0  0  0  0  0  0  0  0  0  0
   -1.1960   -1.8400    1.0660 C   0  0  0  0  0  0  0  0  0  0  0  0
   -1.3750   -2.4180    2.1780 O   0  0  0  0  0  0  0  0  0  0  0  0
    0.0650   -2.0010    0.4330 N   0  0  0  0  0  0  0  0  0  0  0  0
    1.1420   -2.7810    0.9830 C   0  0  1  0  0  0  0  0  0  0  0  0
    1.6420   -3.8650    0.0660 C   0  0  0  0  0  0  0  0  0  0  0  0
    0.5680   -4.8310   -0.2710 C   0  0  0  0  0  0  0  0  0  0  0  0
   -0.2380   -4.5870   -1.3820 C   0  0  0  0  0  0  0  0  0  0  0  0
   -1.2450   -5.4660   -1.7280 C   0  0  0  0  0  0  0  0  0  0  0  0
   -1.4670   -6.5980   -0.9790 C   0  0  0  0  0  0  0  0  0  0  0  0
   -0.6750   -6.8520    0.1250 C   0  0  0  0  0  0  0  0  0  0  0  0
    0.3370   -5.9700    0.4730 C   0  0  0  0  0  0  0  0  0  0  0  0
    2.2880   -1.8960    1.4710 C   0  0  2  0  0  0  0  0  0  0  0  0
    1.7550   -1.0640    2.4520 O   0  0  0  0  0  0  0  0  0  0  0  0
    2.8400   -1.0240    0.3740 C   0  0  0  0  0  0  0  0  0  0  0  0
    3.8610   -0.1360    0.8220 N   0  0  0  0  0  0  0  0  0  0  0  0
    4.9660   -0.7390    1.4690 C   0  0  0  0  0  0  0  0  0  0  0  0
    6.2230   -0.4260    0.6850 C   0  0  2  0  0  0  0  0  0  0  0  0
    6.1130   -0.9670   -0.7310 C   0  0  0  0  0  0  0  0  0  0  0  0
    7.4500   -1.0090    1.3800 C   0  0  0  0  0  0  0  0  0  0  0  0
    3.4010    1.3950    1.3000 S   0  0  1  0  0  0  0  0  0  0  0  0
    1.8800    1.4980    1.3190 O   0  0  0  0  0  0  0  0  0  0  0  0
    3.8790    1.8250    2.6560 O   0  0  0  0  0  0  0  0  0  0  0  0
    3.9180    2.5860    0.1060 C   0  0  0  0  0  0  0  0  0  0  0  0
    5.1430    3.2200    0.2650 C   0  0  0  0  0  0  0  0  0  0  0  0
    5.5670    4.1550   -0.6430 C   0  0  0  0  0  0  0  0  0  0  0  0
    4.8100    4.5010   -1.7340 C   0  0  0  0  0  0  0  0  0  0  0  0
    5.2330    5.5130   -2.7370 C   0  0  0  0  0  0  0  0  0  0  0  0
    5.9830    4.9360   -3.7510 O   0  0  0  0  0  0  0  0  0  0  0  0
    3.5960    3.8730   -1.8940 C   0  0  0  0  0  0  0  0  0  0  0  0
    3.1530    2.9210   -0.9790 C   0  0  0  0  0  0  0  0  0  0  0  0
   -2.9590   -0.1340    1.2230 C   0  0  0  0  0  0  0  0  0  0  0  0
   -8.0900    2.4660   -1.2960 N   0  0  0  0  0  0  0  0  0  0  0  0
  1  2  1  0
  2  3  2  0
  2 47  1  0
  3  4  1  0
  4  5  1  0
  5  6  1  0
  5 47  2  0
  6  7  1  0
  7  8  1  0
  7  9  1  0
  9 10  2  0
  9 11  1  0
 11 12  2  0
 11 46  1  0
 12 13  1  0
 13 14  2  0
 14 15  1  0
 15 16  1  0
 15 46  2  0
 16 17  2  0
 16 18  1  0
 18 19  1  0
 19 20  1  6
 19 27  1  0
 20 21  1  0
 21 22  2  0
 21 26  1  0
 22 23  1  0
 23 24  2  0
 24 25  1  0
 25 26  2  0
 27 28  1  1
 27 29  1  0
 29 30  1  0
 30 31  1  0
 35 30  1  6
 31 32  1  0
 32 33  1  6
 32 34  1  0
 35 36  2  0
 35 37  2  0
 35 38  1  0
 38 39  2  0
 38 45  1  0
 39 40  1  0
 40 41  2  0
 41 42  1  0
 41 44  1  0
 42 43  1  0
 44 45  2  0
M  END
