
     RDKit          3D

 42 47  0  0  0  0  0  0  0  0999 V2000
    2.2580   -2.3810   -3.0780 O   0  0  0  0  0  0  0  0  0  0  0  0
    1.1950   -2.9470   -3.3920 C   0  0  0  0  0  0  0  0  0  0  0  0
   -0.0140   -2.7310   -2.6310 C   0  0  0  0  0  0  0  0  0  0  0  0
   -1.2190   -3.3610   -2.9640 C   0  0  0  0  0  0  0  0  0  0  0  0
   -2.3520   -3.1180   -2.1930 C   0  0  0  0  0  0  0  0  0  0  0  0
   -2.3310   -2.2730   -1.1040 C   0  0  0  0  0  0  0  0  0  0  0  0
   -3.4810   -2.0540   -0.3570 O   0  0  0  0  0  0  0  0  0  0  0  0
   -4.3450   -0.9820   -0.5780 C   0  0  0  0  0  0  0  0  0  0  0  0
   -4.0160   -0.2110   -1.5070 O   0  0  0  0  0  0  0  0  0  0  0  0
   -5.5460   -0.7810    0.2220 C   0  0  0  0  0  0  0  0  0  0  0  0
   -5.9980   -1.5460    1.2360 N   0  0  0  0  0  0  0  0  0  0  0  0
   -7.1240   -1.0600    1.7260 N   0  0  0  0  0  0  0  0  0  0  0  0
   -7.4700    0.0600    1.0500 C   0  0  0  0  0  0  0  0  0  0  0  0
   -8.6610    0.8730    1.3090 C   0  0  0  0  0  0  0  0  0  0  0  0
   -8.9580    2.0190    0.6000 C   0  0  0  0  0  0  0  0  0  0  0  0
  -10.0960    2.7670    0.8660 C   0  0  0  0  0  0  0  0  0  0  0  0
  -10.9380    2.3380    1.8660 C   0  0  0  0  0  0  0  0  0  0  0  0
  -10.6350    1.2250    2.5440 N   0  0  0  0  0  0  0  0  0  0  0  0
   -9.5490    0.4870    2.3100 C   0  0  0  0  0  0  0  0  0  0  0  0
   -6.4690    0.2340    0.0990 C   0  0  0  0  0  0  0  0  0  0  0  0
   -6.4250    1.2610   -0.8090 O   0  0  0  0  0  0  0  0  0  0  0  0
   -1.1270   -1.6630   -0.7960 C   0  0  0  0  0  0  0  0  0  0  0  0
    0.0160   -1.8850   -1.5440 C   0  0  0  0  0  0  0  0  0  0  0  0
    1.2170   -1.2710   -1.2310 O   0  0  0  0  0  0  0  0  0  0  0  0
    1.3960   -0.3830   -0.1520 C   0  0  0  0  0  0  0  0  0  0  0  0
    2.8280    0.0830   -0.1270 C   0  0  0  0  0  0  0  0  0  0  0  0
    3.2230    1.1990   -0.8350 C   0  0  0  0  0  0  0  0  0  0  0  0
    4.5370    1.6410   -0.8230 C   0  0  0  0  0  0  0  0  0  0  0  0
    5.4850    0.9630   -0.0900 C   0  0  0  0  0  0  0  0  0  0  0  0
    6.7740    1.4120   -0.0880 C   0  0  0  0  0  0  0  0  0  0  0  0
    7.7490    0.7600    0.6330 C   0  0  0  0  0  0  0  0  0  0  0  0
    9.1650    1.2330    0.6510 C   0  0  0  0  0  0  0  0  0  0  0  0
   10.1850    0.3320    0.4820 C   0  0  0  0  0  0  0  0  0  0  0  0
   11.6710    1.3570    0.5790 S   0  0  0  0  0  0  0  0  0  0  0  0
   10.7900    2.8950    0.8370 C   0  0  0  0  0  0  0  0  0  0  0  0
    9.4680    2.5310    0.8310 C   0  0  0  0  0  0  0  0  0  0  0  0
    8.2530    3.8550    1.0690 Cl  0  0  0  0  0  0  0  0  0  0  0  0
    7.3820   -0.3570    1.3500 C   0  0  0  0  0  0  0  0  0  0  0  0
    8.6250   -1.1970    2.2780 Cl  0  0  0  0  0  0  0  0  0  0  0  0
    6.0700   -0.8150    1.3490 C   0  0  0  0  0  0  0  0  0  0  0  0
    5.1030   -0.1530    0.6220 C   0  0  0  0  0  0  0  0  0  0  0  0
    3.7790   -0.5940    0.6060 C   0  0  0  0  0  0  0  0  0  0  0  0
  1  2  2  0
  2  3  1  0
  3  4  2  0
  3 23  1  0
  4  5  1  0
  5  6  2  0
  6  7  1  0
  6 22  1  0
  7  8  1  0
  8  9  2  0
  8 10  1  0
 10 11  2  0
 10 20  1  0
 11 12  1  0
 12 13  1  0
 13 14  1  0
 13 20  2  0
 14 15  2  0
 14 19  1  0
 15 16  1  0
 16 17  2  0
 17 18  1  0
 18 19  2  0
 20 21  1  0
 22 23  2  0
 23 24  1  0
 24 25  1  0
 25 26  1  0
 26 27  2  0
 26 42  1  0
 27 28  1  0
 28 29  2  0
 29 30  1  0
 29 41  1  0
 30 31  2  0
 31 32  1  0
 31 38  1  0
 32 33  2  0
 32 36  1  0
 33 34  1  0
 34 35  1  0
 35 36  2  0
 36 37  1  0
 38 39  1  0
 38 40  2  0
 40 41  1  0
 41 42  2  0
M  END
