
     RDKit          3D

 42 47  0  0  0  0  0  0  0  0999 V2000
    3.6200    0.8490    0.2280 O   0  0  0  0  0  0  0  0  0  0  0  0
    3.7630   -0.2650   -0.2930 C   0  0  0  0  0  0  0  0  0  0  0  0
    5.1580   -0.7270   -0.6100 C   0  0  0  0  0  0  0  0  0  0  0  0
    6.1790    0.3150   -0.2120 C   0  0  0  0  0  0  0  0  0  0  0  0
    7.5210   -0.2170   -0.5550 C   0  0  0  0  0  0  0  0  0  0  0  0
    7.6750   -1.3450   -1.0780 O   0  0  0  0  0  0  0  0  0  0  0  0
    8.7040    0.5940   -0.2770 C   0  0  0  0  0  0  0  0  0  0  0  0
    8.6160    1.8470    0.2910 C   0  0  0  0  0  0  0  0  0  0  0  0
    9.7230    2.6180    0.5560 C   0  0  0  0  0  0  0  0  0  0  0  0
   10.9890    2.1460    0.2520 C   0  0  0  0  0  0  0  0  0  0  0  0
   11.0910    0.8970   -0.3150 C   0  0  0  0  0  0  0  0  0  0  0  0
    9.9680    0.1340   -0.5750 C   0  0  0  0  0  0  0  0  0  0  0  0
   10.1080   -1.4900   -1.3120 S   0  0  0  0  0  0  0  0  0  0  0  0
    2.6900   -1.0930   -0.5900 N   0  0  0  0  0  0  0  0  0  0  0  0
    1.3390   -0.8270   -0.3650 C   0  0  0  0  0  0  0  0  0  0  0  0
    0.8940    0.3290    0.2030 C   0  0  0  0  0  0  0  0  0  0  0  0
   -0.4580    0.5530    0.4110 C   0  0  0  0  0  0  0  0  0  0  0  0
   -0.9350    1.7170    0.9860 C   0  0  0  0  0  0  0  0  0  0  0  0
   -2.2780    1.9290    1.1870 C   0  0  0  0  0  0  0  0  0  0  0  0
   -3.1850    0.9380    0.7980 C   0  0  0  0  0  0  0  0  0  0  0  0
   -4.5060    1.1120    0.9810 N   0  0  0  0  0  0  0  0  0  0  0  0
   -5.3770    0.1630    0.6090 C   0  0  0  0  0  0  0  0  0  0  0  0
   -4.9000   -0.9920    0.0380 C   0  0  0  0  0  0  0  0  0  0  0  0
   -3.5600   -1.2270   -0.1730 C   0  0  0  0  0  0  0  0  0  0  0  0
   -2.6900   -0.2230    0.2240 C   0  0  0  0  0  0  0  0  0  0  0  0
   -1.3410   -0.4260    0.0260 C   0  0  0  0  0  0  0  0  0  0  0  0
   -0.9010   -1.5400   -0.5230 O   0  0  0  0  0  0  0  0  0  0  0  0
    0.3610   -1.7720   -0.7270 C   0  0  0  0  0  0  0  0  0  0  0  0
    0.7520   -2.8440   -1.2520 O   0  0  0  0  0  0  0  0  0  0  0  0
   -5.7870   -1.9590   -0.3400 C   0  0  0  0  0  0  0  0  0  0  0  0
   -5.3740   -3.0330   -0.8670 O   0  0  0  0  0  0  0  0  0  0  0  0
   -7.1140   -1.7470   -0.1400 N   0  0  0  0  0  0  0  0  0  0  0  0
   -7.6110   -0.6320    0.4110 C   0  0  0  0  0  0  0  0  0  0  0  0
   -8.9600   -0.4750    0.6080 C   0  0  0  0  0  0  0  0  0  0  0  0
   -9.9040   -1.4610    0.1280 C   0  0  0  0  0  0  0  0  0  0  0  0
  -10.0000   -1.6900   -1.1590 C   0  0  0  0  0  0  0  0  0  0  0  0
   -9.0180   -0.8240   -2.2980 Cl  0  0  0  0  0  0  0  0  0  0  0  0
  -11.1300   -2.8830   -1.7360 Cl  0  0  0  0  0  0  0  0  0  0  0  0
   -9.4100    0.6850    1.2050 C   0  0  0  0  0  0  0  0  0  0  0  0
   -8.5440    1.6870    1.6040 C   0  0  0  0  0  0  0  0  0  0  0  0
   -7.1910    1.5420    1.4100 C   0  0  0  0  0  0  0  0  0  0  0  0
   -6.7350    0.3870    0.8160 C   0  0  0  0  0  0  0  0  0  0  0  0
  1  2  2  0
  2  3  1  0
  2 14  1  0
  3  4  1  0
  4  5  1  0
  5  6  2  0
  5  7  1  0
  7  8  2  0
  7 12  1  0
  8  9  1  0
  9 10  2  0
 10 11  1  0
 11 12  2  0
 12 13  1  0
 14 15  1  0
 15 16  2  0
 15 28  1  0
 16 17  1  0
 17 18  2  0
 17 26  1  0
 18 19  1  0
 19 20  2  0
 20 21  1  0
 20 25  1  0
 21 22  2  0
 22 23  1  0
 22 42  1  0
 23 24  2  0
 23 30  1  0
 24 25  1  0
 25 26  2  0
 26 27  1  0
 27 28  1  0
 28 29  2  0
 30 31  2  0
 30 32  1  0
 32 33  1  0
 33 34  2  0
 33 42  1  0
 34 35  1  0
 34 39  1  0
 35 36  2  3
 36 37  1  0
 36 38  1  0
 39 40  2  0
 40 41  1  0
 41 42  2  0
M  END
