
     RDKit          3D

 23 25  0  0  0  0  0  0  0  0999 V2000
   -5.5070   -2.1020   -0.7000 C   0  0  0  0  0  0  0  0  0  0  0  0
   -4.3310   -1.3000   -0.2690 C   0  0  0  0  0  0  0  0  0  0  0  0
   -4.3000    0.0750   -0.5300 C   0  0  0  0  0  0  0  0  0  0  0  0
   -3.2240    0.8470   -0.1470 C   0  0  0  0  0  0  0  0  0  0  0  0
   -2.1690    0.2220    0.5070 C   0  0  0  0  0  0  0  0  0  0  0  0
   -2.2060   -1.1300    0.7600 C   0  0  0  0  0  0  0  0  0  0  0  0
   -0.8480   -1.9370    1.5930 S   0  0  0  0  0  0  0  0  0  0  0  0
    0.3710   -2.5530    0.4000 C   0  0  0  0  0  0  0  0  0  0  0  0
    1.0320   -1.4200   -0.2540 C   0  0  0  0  0  0  0  0  0  0  0  0
    0.5230   -0.9340   -1.2950 O   0  0  0  0  0  0  0  0  0  0  0  0
    2.2350   -0.8370    0.2320 N   0  0  0  0  0  0  0  0  0  0  0  0
    2.7850   -1.4090    1.4540 C   0  0  0  0  0  0  0  0  0  0  0  0
    2.8490    0.2190   -0.4800 C   0  0  0  0  0  0  0  0  0  0  0  0
    2.1800    0.6170   -1.5060 O   0  0  0  0  0  0  0  0  0  0  0  0
    4.0900    0.8640   -0.1890 C   0  0  0  0  0  0  0  0  0  0  0  0
    5.0420    0.6400    0.7780 C   0  0  0  0  0  0  0  0  0  0  0  0
    6.0970    1.5230    0.6320 C   0  0  0  0  0  0  0  0  0  0  0  0
    5.7700    2.2940   -0.4480 C   0  0  0  0  0  0  0  0  0  0  0  0
    4.5940    1.9020   -0.9220 N   0  0  0  0  0  0  0  0  0  0  0  0
   -3.2830   -1.8990    0.3760 C   0  0  0  0  0  0  0  0  0  0  0  0
   -1.1490    1.2930    0.8050 C   0  0  0  0  0  0  0  0  0  0  0  0
   -2.0360    2.5140    0.9070 C   0  0  0  0  0  0  0  0  0  0  0  0
   -2.9510    2.3040   -0.3060 C   0  0  0  0  0  0  0  0  0  0  0  0
  1  2  1  0
  2  3  2  0
  2 20  1  0
  3  4  1  0
  4  5  2  0
  4 23  1  0
  5  6  1  0
  5 21  1  0
  6  7  1  0
  6 20  2  0
  7  8  1  0
  8  9  1  0
  9 10  2  0
  9 11  1  0
 11 12  1  0
 11 13  1  0
 13 14  2  0
 13 15  1  0
 15 16  2  0
 15 19  1  0
 16 17  1  0
 17 18  2  0
 18 19  1  0
 21 22  1  0
 22 23  1  0
M  END
