
     RDKit          3D

 23 25  0  0  0  0  0  0  0  0999 V2000
   -4.8310   -1.1070    2.0520 C   0  0  0  0  0  0  0  0  0  0  0  0
   -5.4250   -0.2840    1.2110 C   0  0  0  0  0  0  0  0  0  0  0  0
   -6.8640    0.1520    1.2860 C   0  0  0  0  0  0  0  0  0  0  0  0
   -7.0590    0.6650   -0.0710 N   0  0  0  0  0  0  0  0  0  0  0  0
   -5.8100    0.8990   -0.6580 C   0  0  0  0  0  0  0  0  0  0  0  0
   -4.8120    0.3540    0.0670 C   0  0  0  0  0  0  0  0  0  0  0  0
   -3.3970    0.4460   -0.3140 C   0  0  2  0  0  0  0  0  0  0  0  0
   -2.7150   -0.8550   -0.5720 C   0  0  0  0  0  0  0  0  0  0  0  0
   -1.4080   -0.8190    0.2360 C   0  0  0  0  0  0  0  0  0  0  0  0
   -1.2270    0.6090    0.3660 N   0  0  0  0  0  0  0  0  0  0  0  0
   -0.0050    1.2830    0.1690 C   0  0  0  0  0  0  0  0  0  0  0  0
   -0.0370    2.5560    0.3210 O   0  0  0  0  0  0  0  0  0  0  0  0
    1.2650    0.6410   -0.1850 C   0  0  0  0  0  0  0  0  0  0  0  0
    2.3730    1.6560   -0.3930 C   0  0  0  0  0  0  0  0  0  0  0  0
    3.6160    0.8870   -0.7170 C   0  0  0  0  0  0  0  0  0  0  0  0
    4.8420    1.4410   -1.1060 C   0  0  0  0  0  0  0  0  0  0  0  0
    5.7210    0.4080   -1.3060 C   0  0  0  0  0  0  0  0  0  0  0  0
    5.0180   -0.7510   -1.0360 C   0  0  0  0  0  0  0  0  0  0  0  0
    5.5170   -2.1500   -1.1030 C   0  0  0  0  0  0  0  0  0  0  0  0
    6.2290   -2.5170    0.5320 S   0  0  0  0  0  0  0  0  0  0  0  0
    7.6810   -1.4340    0.7180 C   0  0  0  0  0  0  0  0  0  0  0  0
    3.8060   -0.3930   -0.7000 O   0  0  0  0  0  0  0  0  0  0  0  0
   -2.5290    1.1330    0.7260 C   0  0  0  0  0  0  0  0  0  0  0  0
  1  2  2  0
  2  3  1  0
  2  6  1  0
  3  4  1  0
  4  5  1  0
  5  6  2  0
  7  6  1  1
  7  8  1  0
  7 23  1  0
  8  9  1  0
  9 10  1  0
 10 11  1  0
 10 23  1  0
 11 12  2  0
 11 13  1  0
 13 14  1  0
 14 15  1  0
 15 16  2  0
 15 22  1  0
 16 17  1  0
 17 18  2  0
 18 19  1  0
 18 22  1  0
 19 20  1  0
 20 21  1  0
M  END
