
     RDKit          3D

 23 25  0  0  0  0  0  0  0  0999 V2000
   -4.7180   -0.5410    2.3590 C   0  0  0  0  0  0  0  0  0  0  0  0
   -4.8390   -0.4110    1.0580 C   0  0  0  0  0  0  0  0  0  0  0  0
   -6.3730   -0.8190    0.2430 S   0  0  0  0  0  0  0  0  0  0  0  0
   -6.1120   -0.4980   -1.4770 C   0  0  0  0  0  0  0  0  0  0  0  0
   -4.9530   -0.0540   -1.8950 C   0  0  0  0  0  0  0  0  0  0  0  0
   -3.7880    0.2260   -1.0800 C   0  0  0  0  0  0  0  0  0  0  0  0
   -3.7290    0.0690    0.2240 C   0  0  0  0  0  0  0  0  0  0  0  0
   -2.4670    0.3470    0.9890 C   0  0  0  0  0  0  0  0  0  0  0  0
   -1.3450    0.7070    0.1710 N   0  0  0  0  0  0  0  0  0  0  0  0
   -0.7600   -0.1670   -0.7760 C   0  0  0  0  0  0  0  0  0  0  0  0
   -1.2450   -1.3140   -0.8940 O   0  0  0  0  0  0  0  0  0  0  0  0
    0.3670    0.2430   -1.5890 C   0  0  0  0  0  0  0  0  0  0  0  0
    1.6670   -0.0760   -1.0720 N   0  0  0  0  0  0  0  0  0  0  0  0
    2.3040   -1.2320   -1.3200 C   0  0  0  0  0  0  0  0  0  0  0  0
    3.5430   -1.5040   -0.8040 C   0  0  0  0  0  0  0  0  0  0  0  0
    4.1880   -0.5930   -0.0030 C   0  0  0  0  0  0  0  0  0  0  0  0
    5.4480   -0.8490    0.5330 C   0  0  0  0  0  0  0  0  0  0  0  0
    6.0970    0.0650    1.3380 C   0  0  0  0  0  0  0  0  0  0  0  0
    5.4430    1.2570    1.5950 C   0  0  0  0  0  0  0  0  0  0  0  0
    4.1960    1.5020    1.0600 C   0  0  0  0  0  0  0  0  0  0  0  0
    3.5470    0.5970    0.2600 C   0  0  0  0  0  0  0  0  0  0  0  0
    2.2900    0.8210   -0.2900 C   0  0  0  0  0  0  0  0  0  0  0  0
    1.7660    1.9360   -0.0040 O   0  0  0  0  0  0  0  0  0  0  0  0
  1  2  2  0
  2  3  1  0
  2  7  1  0
  3  4  1  0
  4  5  2  0
  5  6  1  0
  6  7  2  0
  7  8  1  0
  8  9  1  0
  9 10  1  0
 10 11  2  0
 10 12  1  0
 12 13  1  0
 13 14  1  0
 13 22  1  0
 14 15  2  0
 15 16  1  0
 16 17  2  0
 16 21  1  0
 17 18  1  0
 18 19  2  0
 19 20  1  0
 20 21  2  0
 21 22  1  0
 22 23  2  0
M  END
