
     RDKit          3D

 23 25  0  0  0  0  0  0  0  0999 V2000
   -5.2620    0.9340    1.8560 C   0  0  0  0  0  0  0  0  0  0  0  0
   -5.4580   -0.3680    1.1060 C   0  0  0  0  0  0  0  0  0  0  0  0
   -4.1020   -0.8870    0.6080 C   0  0  0  0  0  0  0  0  0  0  0  0
   -3.5670    0.2050   -0.2710 C   0  0  0  0  0  0  0  0  0  0  0  0
   -2.2980   -0.0480   -0.8760 N   0  0  0  0  0  0  0  0  0  0  0  0
   -2.0330   -0.5830   -2.0800 C   0  0  0  0  0  0  0  0  0  0  0  0
   -3.0000   -1.0780   -3.0790 C   0  0  0  0  0  0  0  0  0  0  0  0
   -0.6660   -0.6270   -2.2760 C   0  0  0  0  0  0  0  0  0  0  0  0
   -0.0920   -0.0970   -1.1380 C   0  0  0  0  0  0  0  0  0  0  0  0
    1.3690   -0.0380   -0.9240 C   0  0  0  0  0  0  0  0  0  0  0  0
    2.0310    0.6960   -1.6870 O   0  0  0  0  0  0  0  0  0  0  0  0
    1.9750   -0.7830    0.0820 N   0  0  0  0  0  0  0  0  0  0  0  0
    3.3250   -0.8230    0.4320 C   0  0  0  0  0  0  0  0  0  0  0  0
    3.9580   -2.3410    1.2890 S   0  0  0  0  0  0  0  0  0  0  0  0
    5.5880   -1.8020    1.5050 C   0  0  0  0  0  0  0  0  0  0  0  0
    5.5840   -0.5160    0.9330 C   0  0  0  0  0  0  0  0  0  0  0  0
    4.4530   -0.0560    0.4150 C   0  0  0  0  0  0  0  0  0  0  0  0
    4.7140    1.3760    0.0350 C   0  0  0  0  0  0  0  0  0  0  0  0
    3.9700    2.2100   -0.5120 O   0  0  0  0  0  0  0  0  0  0  0  0
    6.0970    1.7600    0.4160 C   0  0  0  0  0  0  0  0  0  0  0  0
    6.7410    0.4790    0.7570 C   0  0  0  0  0  0  0  0  0  0  0  0
   -1.0860    0.2480   -0.3020 C   0  0  0  0  0  0  0  0  0  0  0  0
   -0.9950    0.8590    1.0450 C   0  0  0  0  0  0  0  0  0  0  0  0
  1  2  1  0
  2  3  1  0
  3  4  1  0
  4  5  1  0
  5  6  1  0
  5 22  1  0
  6  7  1  0
  6  8  2  0
  8  9  1  0
  9 10  1  0
  9 22  2  0
 10 11  2  0
 10 12  1  0
 12 13  1  0
 13 14  1  0
 13 17  2  0
 14 15  1  0
 15 16  2  0
 16 17  1  0
 16 21  1  0
 17 18  1  0
 18 19  2  0
 18 20  1  0
 20 21  1  0
 22 23  1  0
M  END
