
     RDKit          3D

 23 25  0  0  0  0  0  0  0  0999 V2000
   -5.5790    2.9710    1.9730 C   0  0  0  0  0  0  0  0  0  0  0  0
   -4.4430    2.0840    1.5410 C   0  0  0  0  0  0  0  0  0  0  0  0
   -4.5910    0.7010    1.5930 C   0  0  0  0  0  0  0  0  0  0  0  0
   -3.5260   -0.1060    1.1880 C   0  0  0  0  0  0  0  0  0  0  0  0
   -2.3490    0.4370    0.7460 C   0  0  0  0  0  0  0  0  0  0  0  0
   -1.2400   -0.4870    0.3270 C   0  0  0  0  0  0  0  0  0  0  0  0
   -0.2530   -0.8490    1.7280 S   0  0  1  0  0  0  0  0  0  0  0  0
    0.2190    0.4970    2.2900 O   0  0  0  0  0  0  0  0  0  0  0  0
   -1.1710   -1.4130    2.8250 O   0  0  0  0  0  0  0  0  0  0  0  0
    1.0330   -1.9060    1.5200 N   0  0  0  0  0  0  0  0  0  0  0  0
    2.1260   -1.6770    0.6580 C   0  0  0  0  0  0  0  0  0  0  0  0
    3.4220   -1.7250    1.2100 C   0  0  0  0  0  0  0  0  0  0  0  0
    4.5180   -1.4890    0.4350 C   0  0  0  0  0  0  0  0  0  0  0  0
    4.3520   -1.2040   -0.8910 C   0  0  0  0  0  0  0  0  0  0  0  0
    5.4800   -0.9390   -1.7860 C   0  0  0  0  0  0  0  0  0  0  0  0
    6.3700   -0.7450   -2.4720 N   0  0  0  0  0  0  0  0  0  0  0  0
    3.0660   -1.1550   -1.4500 C   0  0  0  0  0  0  0  0  0  0  0  0
    2.9450   -0.8540   -2.8790 C   0  0  1  0  0  0  0  0  0  0  0  0
    1.5720   -0.5500   -3.4370 C   0  0  0  0  0  0  0  0  0  0  0  0
    2.6650    0.5060   -3.3810 C   0  0  0  0  0  0  0  0  0  0  0  0
    1.9580   -1.3910   -0.6780 C   0  0  0  0  0  0  0  0  0  0  0  0
   -2.2210    1.7990    0.7010 C   0  0  0  0  0  0  0  0  0  0  0  0
   -3.2780    2.6320    1.1030 C   0  0  0  0  0  0  0  0  0  0  0  0
  1  2  1  0
  2  3  2  0
  2 23  1  0
  3  4  1  0
  4  5  2  0
  5  6  1  0
  5 22  1  0
  7  6  1  6
  7  8  2  0
  7  9  2  0
  7 10  1  0
 10 11  1  0
 11 12  2  0
 11 21  1  0
 12 13  1  0
 13 14  2  0
 14 15  1  0
 14 17  1  0
 15 16  3  0
 18 17  1  1
 17 21  2  0
 18 19  1  0
 18 20  1  0
 19 20  1  0
 22 23  2  0
M  END
