
     RDKit          3D

 22 23  0  0  0  0  0  0  0  0999 V2000
    5.7890    2.0640   -0.9660 C   0  0  0  0  0  0  0  0  0  0  0  0
    5.7990    0.6850   -1.5780 C   0  0  0  0  0  0  0  0  0  0  0  0
    5.6920   -0.3970   -0.5390 C   0  0  0  0  0  0  0  0  0  0  0  0
    4.4520   -0.3370    0.2860 C   0  0  0  0  0  0  0  0  0  0  0  0
    3.1940   -0.4570   -0.4590 C   0  0  0  0  0  0  0  0  0  0  0  0
    3.0600   -0.6130   -1.7120 N   0  0  0  0  0  0  0  0  0  0  0  0
    1.8180   -0.7240   -2.3820 C   0  0  0  0  0  0  0  0  0  0  0  0
    1.6480   -0.4190   -3.5900 O   0  0  0  0  0  0  0  0  0  0  0  0
    0.6300   -1.2320   -1.6160 C   0  0  0  0  0  0  0  0  0  0  0  0
    0.6530   -0.5000   -0.2950 C   0  0  0  0  0  0  0  0  0  0  0  0
   -0.4580   -0.0350    0.1610 C   0  0  0  0  0  0  0  0  0  0  0  0
   -0.8280    0.7150    1.3780 C   0  0  0  0  0  0  0  0  0  0  0  0
   -2.1440    0.2740    1.8570 C   0  0  0  0  0  0  0  0  0  0  0  0
   -2.5550    0.2920    3.3280 C   0  0  0  0  0  0  0  0  0  0  0  0
   -2.9990   -0.1580    0.9350 C   0  0  0  0  0  0  0  0  0  0  0  0
   -4.3640   -0.6500    1.1190 C   0  0  0  0  0  0  0  0  0  0  0  0
   -5.5250    0.1370    0.7390 C   0  0  0  0  0  0  0  0  0  0  0  0
   -5.7510    0.6030   -0.6420 C   0  0  0  0  0  0  0  0  0  0  0  0
   -4.7480    1.5860   -1.1680 C   0  0  0  0  0  0  0  0  0  0  0  0
   -2.1020   -0.1500   -0.6210 S   0  0  0  0  0  0  0  0  0  0  0  0
    1.9530   -0.3910    0.3360 C   0  0  0  0  0  0  0  0  0  0  0  0
    2.0070   -0.2390    1.5740 O   0  0  0  0  0  0  0  0  0  0  0  0
  1  2  1  0
  2  3  1  0
  3  4  1  0
  4  5  1  0
  5  6  2  0
  5 21  1  0
  6  7  1  0
  7  8  2  0
  7  9  1  0
  9 10  1  0
 10 11  2  3
 10 21  1  0
 11 12  1  0
 11 20  1  0
 12 13  1  0
 13 14  1  0
 13 15  2  0
 15 16  1  0
 15 20  1  0
 16 17  1  0
 17 18  1  0
 18 19  1  0
 21 22  2  0
M  END
