
     RDKit          3D

 22 22  0  0  0  0  0  0  0  0999 V2000
    2.5650   -2.9440    1.5050 C   0  0  0  0  0  0  0  0  0  0  0  0
    3.2830   -1.8020    1.1660 O   0  0  0  0  0  0  0  0  0  0  0  0
    3.0150   -1.4720   -0.1300 C   0  0  2  0  0  0  0  0  0  0  0  0
    4.2000   -1.6460   -0.8700 O   0  0  0  0  0  0  0  0  0  0  0  0
    2.4550   -0.0900   -0.3130 C   0  0  0  0  0  0  0  0  0  0  0  0
    1.1700    0.1410    0.4030 C   0  0  2  0  0  0  0  0  0  0  0  0
    1.2530   -0.0250    1.7810 O   0  0  0  0  0  0  0  0  0  0  0  0
    0.1160   -0.6160   -0.1080 O   0  0  0  0  0  0  0  0  0  0  0  0
   -0.9400    0.2770   -0.2890 C   0  0  2  0  0  0  0  0  0  0  0  0
   -1.9240   -0.1740   -1.3200 C   0  0  1  0  0  0  0  0  0  0  0  0
   -1.2230   -0.3010   -2.5350 O   0  0  0  0  0  0  0  0  0  0  0  0
   -2.5600   -1.4930   -1.0370 C   0  0  2  0  0  0  0  0  0  0  0  0
   -3.5170   -1.7810   -2.1790 C   0  0  0  0  0  0  0  0  0  0  0  0
   -4.1690   -2.9950   -2.0160 O   0  0  0  0  0  0  0  0  0  0  0  0
   -3.3580   -1.5230    0.2290 C   0  0  0  0  0  0  0  0  0  0  0  0
   -2.6160   -1.2390    1.3580 O   0  0  0  0  0  0  0  0  0  0  0  0
   -0.2460    1.3780   -0.8480 O   0  0  0  0  0  0  0  0  0  0  0  0
    0.7440    1.5820    0.1080 C   0  0  1  0  0  0  0  0  0  0  0  0
    0.1700    2.1860    1.1950 O   0  0  0  0  0  0  0  0  0  0  0  0
    0.7460    3.3910    1.5090 C   0  0  0  0  0  0  0  0  0  0  0  0
    0.6780    4.4190    0.4260 C   0  0  0  0  0  0  0  0  0  0  0  0
    1.3140    5.5790    0.9230 O   0  0  0  0  0  0  0  0  0  0  0  0
  1  2  1  0
  2  3  1  0
  3  4  1  6
  3  5  1  0
  5  6  1  0
  6  7  1  1
  6  8  1  0
  6 18  1  0
  9  8  1  6
  9 10  1  0
  9 17  1  0
 10 11  1  6
 10 12  1  0
 12 13  1  6
 12 15  1  0
 13 14  1  0
 15 16  1  0
 17 18  1  0
 18 19  1  1
 19 20  1  0
 20 21  1  0
 21 22  1  0
M  END
