
     RDKit          3D

 22 22  0  0  0  0  0  0  0  0999 V2000
   -1.0390   -1.1710    1.2590 O   0  0  0  0  0  0  0  0  0  0  0  0
   -0.9390   -1.4060   -0.0010 C   0  0  0  0  0  0  0  0  0  0  0  0
    0.0200   -2.4400   -0.4460 C   0  0  0  0  0  0  0  0  0  0  0  0
    1.4130   -2.2610    0.1110 C   0  0  0  0  0  0  0  0  0  0  0  0
    2.0490   -0.9840   -0.3310 C   0  0  2  0  0  0  0  0  0  0  0  0
    2.1320   -0.9910   -1.7460 O   0  0  0  0  0  0  0  0  0  0  0  0
    3.4880   -0.8330    0.1490 C   0  0  0  0  0  0  0  0  0  0  0  0
    3.5200    0.7090    0.2290 C   0  0  2  0  0  0  0  0  0  0  0  0
    3.5340    1.1490   -1.0740 O   0  0  0  0  0  0  0  0  0  0  0  0
    4.6710    1.1860    1.0430 C   0  0  0  0  0  0  0  0  0  0  0  0
    5.8990    0.7720    0.5520 O   0  0  0  0  0  0  0  0  0  0  0  0
    2.1710    0.9010    0.8810 C   0  0  1  0  0  0  0  0  0  0  0  0
    1.7670    2.2320    0.8520 O   0  0  0  0  0  0  0  0  0  0  0  0
    1.3480    0.0880    0.1230 O   0  0  0  0  0  0  0  0  0  0  0  0
   -1.7490   -0.6570   -0.8250 O   0  0  0  0  0  0  0  0  0  0  0  0
   -2.6590    0.3160   -0.3400 C   0  0  1  0  0  0  0  0  0  0  0  0
   -2.1850    1.7210   -0.6910 C   0  0  0  0  0  0  0  0  0  0  0  0
   -2.0720    1.8660   -2.0850 O   0  0  0  0  0  0  0  0  0  0  0  0
   -3.9490    0.1090   -0.7450 O   0  0  0  0  0  0  0  0  0  0  0  0
   -4.7680   -0.1040    0.3420 C   0  0  0  0  0  0  0  0  0  0  0  0
   -6.2180   -0.3240   -0.0830 C   0  0  0  0  0  0  0  0  0  0  0  0
   -6.6700    0.8210   -0.7690 O   0  0  0  0  0  0  0  0  0  0  0  0
  1  2  2  0
  2  3  1  0
  2 15  1  0
  3  4  1  0
  4  5  1  0
  5  6  1  6
  5  7  1  0
  5 14  1  0
  7  8  1  0
  8  9  1  6
  8 10  1  0
  8 12  1  0
 10 11  1  0
 12 13  1  6
 12 14  1  0
 15 16  1  0
 16 17  1  6
 16 19  1  0
 17 18  1  0
 19 20  1  0
 20 21  1  0
 21 22  1  0
M  END
