
     RDKit          3D

 22 22  0  0  0  0  0  0  0  0999 V2000
   -1.4070   -0.8150    1.9990 O   0  0  0  0  0  0  0  0  0  0  0  0
   -1.7980    0.1310    1.2820 C   0  0  0  0  0  0  0  0  0  0  0  0
   -3.1340    0.1030    0.8950 O   0  0  0  0  0  0  0  0  0  0  0  0
   -3.9800   -0.9510    1.3070 C   0  0  0  0  0  0  0  0  0  0  0  0
   -5.3860   -0.7770    0.7710 C   0  0  2  0  0  0  0  0  0  0  0  0
   -6.2070   -1.8140    1.1790 O   0  0  0  0  0  0  0  0  0  0  0  0
   -5.3390   -0.7940   -0.7460 C   0  0  0  0  0  0  0  0  0  0  0  0
   -4.5270    0.2270   -1.2300 O   0  0  0  0  0  0  0  0  0  0  0  0
   -0.8650    1.1950    0.8910 C   0  0  2  0  0  0  0  0  0  0  0  0
   -1.5830    2.1930    0.1720 O   0  0  0  0  0  0  0  0  0  0  0  0
    0.2410    0.7380   -0.0500 C   0  0  1  0  0  0  0  0  0  0  0  0
   -0.3680    0.2100   -1.1900 O   0  0  0  0  0  0  0  0  0  0  0  0
    0.9760    2.0040   -0.4770 C   0  0  0  0  0  0  0  0  0  0  0  0
    1.6510    2.6140    0.5560 O   0  0  0  0  0  0  0  0  0  0  0  0
    1.1080   -0.2760    0.5950 C   0  0  0  0  0  0  0  0  0  0  0  0
    2.2450   -0.7880   -0.2580 C   0  0  2  0  0  0  0  0  0  0  0  0
    2.9790   -1.7460    0.4500 O   0  0  0  0  0  0  0  0  0  0  0  0
    4.3020   -1.6240    0.1260 C   0  0  0  0  0  0  0  0  0  0  0  0
    4.3800   -0.4260   -0.7540 C   0  0  2  0  0  0  0  0  0  0  0  0
    5.5410    0.4690   -0.3710 C   0  0  0  0  0  0  0  0  0  0  0  0
    6.7330   -0.2050   -0.5440 O   0  0  0  0  0  0  0  0  0  0  0  0
    3.1670    0.1970   -0.6000 O   0  0  0  0  0  0  0  0  0  0  0  0
  1  2  2  0
  2  3  1  0
  2  9  1  0
  3  4  1  0
  4  5  1  0
  5  6  1  1
  5  7  1  0
  7  8  1  0
  9 10  1  6
  9 11  1  0
 11 12  1  6
 11 13  1  0
 11 15  1  0
 13 14  1  0
 16 15  1  1
 16 17  1  0
 16 22  1  0
 17 18  1  0
 18 19  1  0
 19 20  1  1
 19 22  1  0
 20 21  1  0
M  END
