
     RDKit          3D

 14 14  0  0  0  0  0  0  0  0999 V2000
   -1.7040   -1.9150   -1.0450 C   0  0  0  0  0  0  0  0  0  0  0  0
   -2.1370   -0.8390   -0.4710 C   0  0  0  0  0  0  0  0  0  0  0  0
   -1.1910    0.2000   -0.1010 C   0  0  0  0  0  0  0  0  0  0  0  0
    0.1940   -0.0270   -0.3950 N   0  0  0  0  0  0  0  0  0  0  0  0
    1.2460    0.2270    0.5360 C   0  0  0  0  0  0  0  0  0  0  0  0
    2.5510   -0.1110   -0.0840 C   0  0  0  0  0  0  0  0  0  0  0  0
    2.6800   -0.5510   -1.2500 O   0  0  0  0  0  0  0  0  0  0  0  0
    3.7170    0.0600    0.6500 O   0  0  0  0  0  0  0  0  0  0  0  0
    4.9970   -0.2220    0.1760 C   0  0  0  0  0  0  0  0  0  0  0  0
   -1.5960    1.3040    0.4830 C   0  0  0  0  0  0  0  0  0  0  0  0
   -2.9380    1.6540    0.8330 C   0  0  0  0  0  0  0  0  0  0  0  0
   -4.0140    0.9340    0.6330 C   0  0  0  0  0  0  0  0  0  0  0  0
   -3.8620   -0.6470   -0.1450 S   0  0  0  0  0  0  0  0  0  0  0  0
   -4.6950   -0.7380   -1.4090 O   0  0  0  0  0  0  0  0  0  0  0  0
  1  2  2  0
  2  3  1  0
  2 13  1  0
  3  4  1  0
  3 10  2  0
  4  5  1  0
  5  6  1  0
  6  7  2  0
  6  8  1  0
  8  9  1  0
 10 11  1  0
 11 12  2  0
 13 12  1  6
 13 14  2  0
M  END
