
     RDKit          3D

 25 26  0  0  0  0  0  0  0  0999 V2000
   -3.1370   -3.8330   -0.6240 C   0  0  0  0  0  0  0  0  0  0  0  0
   -3.1790   -2.6570    0.2520 C   0  0  0  0  0  0  0  0  0  0  0  0
   -3.6420   -2.7720    1.4370 O   0  0  0  0  0  0  0  0  0  0  0  0
   -2.7330   -1.3580   -0.1150 N   0  0  0  0  0  0  0  0  0  0  0  0
   -2.7900   -0.2140    0.7800 C   0  0  1  0  0  0  0  0  0  0  0  0
   -1.4280    0.1970    1.0780 C   0  0  0  0  0  0  0  0  0  0  0  0
   -0.7000   -0.5210    1.8590 N   0  0  0  0  0  0  0  0  0  0  0  0
    0.5900   -0.1860    2.1790 O   0  0  0  0  0  0  0  0  0  0  0  0
    1.5940   -0.5040    1.2590 C   0  0  0  0  0  0  0  0  0  0  0  0
    1.2300   -1.0710    0.2140 O   0  0  0  0  0  0  0  0  0  0  0  0
    2.9440   -0.2120    1.4760 N   0  0  0  0  0  0  0  0  0  0  0  0
    4.0160   -0.4850    0.6230 C   0  0  0  0  0  0  0  0  0  0  0  0
    5.3100   -0.1930    1.0680 C   0  0  0  0  0  0  0  0  0  0  0  0
    6.4340   -0.4200    0.3030 C   0  0  0  0  0  0  0  0  0  0  0  0
    6.3290   -0.9490   -0.9430 C   0  0  0  0  0  0  0  0  0  0  0  0
    5.0820   -1.2510   -1.4220 C   0  0  0  0  0  0  0  0  0  0  0  0
    3.9420   -1.0160   -0.6350 C   0  0  0  0  0  0  0  0  0  0  0  0
   -0.9310    1.3580    0.5190 O   0  0  0  0  0  0  0  0  0  0  0  0
   -1.5480    1.8330   -0.6390 C   0  0  2  0  0  0  0  0  0  0  0  0
   -0.9710    3.2200   -0.9170 C   0  0  0  0  0  0  0  0  0  0  0  0
    0.3950    3.1880   -1.1070 O   0  0  0  0  0  0  0  0  0  0  0  0
   -3.0390    1.9620   -0.4840 C   0  0  1  0  0  0  0  0  0  0  0  0
   -3.5620    2.1170   -1.7700 O   0  0  0  0  0  0  0  0  0  0  0  0
   -3.6900    0.8440    0.2460 C   0  0  2  0  0  0  0  0  0  0  0  0
   -4.4690    1.3740    1.2780 O   0  0  0  0  0  0  0  0  0  0  0  0
  1  2  1  0
  2  3  2  0
  2  4  1  0
  5  4  1  6
  5  6  1  0
  5 24  1  0
  6  7  2  3
  6 18  1  0
  7  8  1  0
  8  9  1  0
  9 10  2  0
  9 11  1  0
 11 12  1  0
 12 13  2  0
 12 17  1  0
 13 14  1  0
 14 15  2  0
 15 16  1  0
 16 17  2  0
 18 19  1  0
 19 20  1  1
 19 22  1  0
 20 21  1  0
 22 23  1  6
 22 24  1  0
 24 25  1  1
M  END
