
     RDKit          3D

 25 26  0  0  0  0  0  0  0  0999 V2000
    5.2420    0.2200   -1.2220 C   0  0  0  0  0  0  0  0  0  0  0  0
    5.5340    0.6200    0.2190 C   0  0  0  0  0  0  0  0  0  0  0  0
    4.4110    0.1710    1.1320 C   0  0  2  0  0  0  0  0  0  0  0  0
    4.2460   -1.1930    1.0980 O   0  0  0  0  0  0  0  0  0  0  0  0
    3.1580    0.8970    0.8750 C   0  0  0  0  0  0  0  0  0  0  0  0
    3.1120    2.1410    0.8660 O   0  0  0  0  0  0  0  0  0  0  0  0
    1.9130    0.1590    0.6210 N   0  0  0  0  0  0  0  0  0  0  0  0
    0.7380    0.8610    0.3800 C   0  0  0  0  0  0  0  0  0  0  0  0
   -0.5550    0.2990    0.1140 C   0  0  0  0  0  0  0  0  0  0  0  0
   -0.9530   -0.9300    0.0300 C   0  0  0  0  0  0  0  0  0  0  0  0
    0.0430   -2.0370    0.2310 C   0  0  0  0  0  0  0  0  0  0  0  0
   -2.3770   -1.3610   -0.2620 C   0  0  2  0  0  0  0  0  0  0  0  0
   -3.2840   -0.2490   -0.4440 C   0  0  0  0  0  0  0  0  0  0  0  0
   -2.8740    1.0040   -0.3580 C   0  0  0  0  0  0  0  0  0  0  0  0
   -3.8400    2.1150   -0.5530 C   0  0  0  0  0  0  0  0  0  0  0  0
   -5.0260    1.8450   -0.7960 O   0  0  0  0  0  0  0  0  0  0  0  0
   -3.4150    3.4320   -0.4630 O   0  0  0  0  0  0  0  0  0  0  0  0
   -4.3240    4.5140   -0.6460 C   0  0  0  0  0  0  0  0  0  0  0  0
   -1.5900    1.2950   -0.0950 O   0  0  0  0  0  0  0  0  0  0  0  0
   -2.7600   -2.2000    0.8850 N   0  0  0  0  0  0  0  0  0  0  0  0
   -3.2470   -3.4520    0.4190 C   0  0  0  0  0  0  0  0  0  0  0  0
   -3.7950   -4.3050    1.1640 O   0  0  0  0  0  0  0  0  0  0  0  0
   -2.9930   -3.5160   -0.9830 N   0  0  0  0  0  0  0  0  0  0  0  0
   -2.3520   -2.3150   -1.3920 C   0  0  0  0  0  0  0  0  0  0  0  0
   -1.8410   -2.0700   -2.5120 O   0  0  0  0  0  0  0  0  0  0  0  0
  1  2  1  0
  2  3  1  0
  3  4  1  6
  3  5  1  0
  5  6  2  0
  5  7  1  0
  7  8  1  0
  8  9  1  0
  9 10  2  0
  9 19  1  0
 10 11  1  0
 10 12  1  0
 12 13  1  0
 12 20  1  1
 12 24  1  0
 13 14  2  0
 14 15  1  0
 14 19  1  0
 15 16  2  0
 15 17  1  0
 17 18  1  0
 20 21  1  0
 21 22  2  0
 21 23  1  0
 23 24  1  0
 24 25  2  0
M  END
