
     RDKit          3D

 25 26  0  0  0  0  0  0  0  0999 V2000
   -6.3970    1.8910   -0.5960 C   0  0  0  0  0  0  0  0  0  0  0  0
   -6.3610    0.4780   -0.0960 C   0  0  0  0  0  0  0  0  0  0  0  0
   -5.1940    0.2020    0.6500 O   0  0  0  0  0  0  0  0  0  0  0  0
   -5.0340   -1.0700    1.1720 C   0  0  0  0  0  0  0  0  0  0  0  0
   -5.9330   -1.9160    0.9560 O   0  0  0  0  0  0  0  0  0  0  0  0
   -3.8620   -1.4660    1.9610 C   0  0  1  0  0  0  0  0  0  0  0  0
   -3.0400   -2.4960    1.1910 C   0  0  0  0  0  0  0  0  0  0  0  0
   -2.2790   -1.6160    0.2300 C   0  0  0  0  0  0  0  0  0  0  0  0
   -2.2920   -0.2810    0.9140 C   0  0  2  0  0  0  0  0  0  0  0  0
   -0.9040    0.2910    1.1180 C   0  0  0  0  0  0  0  0  0  0  0  0
   -0.2490    0.4600   -0.1430 N   0  0  0  0  0  0  0  0  0  0  0  0
    1.0680    0.9830   -0.2180 C   0  0  0  0  0  0  0  0  0  0  0  0
    1.6450    1.2940    0.8500 O   0  0  0  0  0  0  0  0  0  0  0  0
    1.7620    1.1710   -1.4370 N   0  0  0  0  0  0  0  0  0  0  0  0
    3.1020    1.7030   -1.5100 C   0  0  0  0  0  0  0  0  0  0  0  0
    4.0880    0.8910   -0.7880 C   0  0  0  0  0  0  0  0  0  0  0  0
    4.7720    1.4210    0.1990 C   0  0  0  0  0  0  0  0  0  0  0  0
    5.7750    0.6570    0.9620 C   0  0  2  0  0  0  0  0  0  0  0  0
    7.0500    1.3370    0.7690 N   0  0  0  0  0  0  0  0  0  0  0  0
    5.9520   -0.6620    0.5710 O   0  0  0  0  0  0  0  0  0  0  0  0
    5.2440   -1.2240   -0.4570 C   0  0  0  0  0  0  0  0  0  0  0  0
    5.4260   -2.5640   -0.8520 O   0  0  0  0  0  0  0  0  0  0  0  0
    4.3560   -0.5100   -1.1150 C   0  0  0  0  0  0  0  0  0  0  0  0
    3.6000   -1.0360   -2.1790 O   0  0  0  0  0  0  0  0  0  0  0  0
   -2.9430   -0.4520    2.1300 O   0  0  0  0  0  0  0  0  0  0  0  0
  1  2  1  0
  2  3  1  0
  3  4  1  0
  4  5  2  0
  6  4  1  6
  6  7  1  0
  6 25  1  0
  7  8  1  0
  8  9  1  0
  9 10  1  1
  9 25  1  0
 10 11  1  0
 11 12  1  0
 12 13  2  0
 12 14  1  0
 14 15  1  0
 15 16  1  0
 16 17  2  0
 16 23  1  0
 17 18  1  0
 18 19  1  6
 18 20  1  0
 20 21  1  0
 21 22  1  0
 21 23  2  0
 23 24  1  0
M  END
