
     RDKit          3D

 20 20  0  0  0  0  0  0  0  0999 V2000
    3.7400   -0.4760   -0.0360 O   0  0  0  0  0  0  0  0  0  0  0  0
    3.7260    0.7750   -0.0070 C   0  0  0  0  0  0  0  0  0  0  0  0
    4.9190    1.4300    0.2290 O   0  0  0  0  0  0  0  0  0  0  0  0
    2.4720    1.5300   -0.2190 C   0  0  0  0  0  0  0  0  0  0  0  0
    1.3650    0.7180   -0.4430 O   0  0  0  0  0  0  0  0  0  0  0  0
    0.9000   -0.2320    0.4680 C   0  0  0  0  0  0  0  0  0  0  0  0
    1.5420   -0.3290    1.5400 O   0  0  0  0  0  0  0  0  0  0  0  0
   -0.2830   -1.0800    0.1960 C   0  0  2  0  0  0  0  0  0  0  0  0
   -1.7350   -0.0410   -0.1610 P   0  0  0  0  0  0  0  0  0  0  0  0
   -3.2420   -0.8540   -0.0150 O   0  0  0  0  0  0  0  0  0  0  0  0
   -1.7030    1.4940    0.5990 O   0  0  0  0  0  0  0  0  0  0  0  0
   -2.8740    2.1620    0.3040 C   0  0  0  0  0  0  0  0  0  0  0  0
   -2.8930    3.4360    0.9100 O   0  0  0  0  0  0  0  0  0  0  0  0
   -3.9970    4.0690    0.6320 O   0  0  0  0  0  0  0  0  0  0  0  0
   -0.4740   -1.9100    1.2990 O   0  0  0  0  0  0  0  0  0  0  0  0
    0.7190   -2.3900    1.6280 O   0  0  0  0  0  0  0  0  0  0  0  0
    1.1250   -3.1860    0.1050 P   0  0  0  0  0  0  0  0  0  0  0  0
    0.5490   -4.8010    0.0780 O   0  0  0  0  0  0  0  0  0  0  0  0
    0.0330   -2.0600   -0.9500 C   0  0  2  0  0  0  0  0  0  0  0  0
    0.7440   -1.4680   -1.9550 O   0  0  0  0  0  0  0  0  0  0  0  0
  1  2  2  0
  2  3  1  0
  2  4  1  0
  4  5  1  0
  5  6  1  0
  6  7  2  0
  6  8  1  0
  8  9  1  6
  8 15  1  0
  8 19  1  0
  9 10  1  0
  9 11  1  0
 11 12  1  0
 12 13  1  0
 13 14  1  0
 15 16  1  0
 16 17  1  0
 17 18  1  0
 17 19  1  0
 19 20  1  6
M  END
