
     RDKit          3D

 20 21  0  0  0  0  0  0  0  0999 V2000
    5.5890   -0.1960    1.4020 O   0  0  0  0  0  0  0  0  0  0  0  0
    4.5740    0.4510    1.0340 C   0  0  0  0  0  0  0  0  0  0  0  0
    3.8110    0.2370   -0.2480 C   0  0  0  0  0  0  0  0  0  0  0  0
    2.4480    0.4800    0.2340 N   0  0  0  0  0  0  0  0  0  0  0  0
    1.2760   -0.2000   -0.1880 C   0  0  0  0  0  0  0  0  0  0  0  0
    1.3640   -1.0990   -1.0530 O   0  0  0  0  0  0  0  0  0  0  0  0
   -0.0100    0.0940    0.3300 N   0  0  0  0  0  0  0  0  0  0  0  0
   -1.2170   -0.5430   -0.0450 C   0  0  2  0  0  0  0  0  0  0  0  0
   -1.3220   -2.2760    0.5860 P   0  0  0  0  0  0  0  0  0  0  0  0
   -2.8070   -3.0170    0.1620 O   0  0  0  0  0  0  0  0  0  0  0  0
    0.0560   -3.2130    0.2050 O   0  0  0  0  0  0  0  0  0  0  0  0
   -1.5770   -0.4270   -1.4970 C   0  0  0  0  0  0  0  0  0  0  0  0
   -1.8490    0.9270   -1.6450 O   0  0  0  0  0  0  0  0  0  0  0  0
   -2.4250    1.3720   -0.4320 C   0  0  0  0  0  0  0  0  0  0  0  0
   -2.9240    2.5510   -0.1740 C   0  0  0  0  0  0  0  0  0  0  0  0
   -3.4360    2.8120    1.0400 F   0  0  0  0  0  0  0  0  0  0  0  0
   -2.3720    0.2380    0.5520 C   0  0  0  0  0  0  0  0  0  0  0  0
    2.5840    1.5210    1.1890 C   0  0  0  0  0  0  0  0  0  0  0  0
    1.6860    2.3210    1.5330 O   0  0  0  0  0  0  0  0  0  0  0  0
    3.9080    1.4880    1.6730 O   0  0  0  0  0  0  0  0  0  0  0  0
  1  2  2  0
  2  3  1  0
  2 20  1  0
  3  4  1  0
  4  5  1  0
  4 18  1  0
  5  6  2  0
  5  7  1  0
  8  7  1  6
  8  9  1  0
  8 12  1  0
  8 17  1  0
  9 10  1  0
  9 11  1  0
 12 13  1  0
 13 14  1  0
 14 15  2  3
 14 17  1  0
 15 16  1  0
 18 19  2  0
 18 20  1  0
M  END
