
     RDKit          3D

 18 18  0  0  0  0  0  0  0  0999 V2000
   -2.2340   -2.1140    0.8930 C   0  0  0  0  0  0  0  0  0  0  0  0
   -2.3820   -0.9980   -0.1180 C   0  0  2  0  0  0  0  0  0  0  0  0
   -3.4910   -1.3940   -1.0940 C   0  0  0  0  0  0  0  0  0  0  0  0
   -1.2260   -0.8120   -0.8640 O   0  0  0  0  0  0  0  0  0  0  0  0
   -0.8380    0.4090   -0.7350 O   0  0  0  0  0  0  0  0  0  0  0  0
    0.4500    0.5640   -0.2490 C   0  0  2  0  0  0  0  0  0  0  0  0
    0.6230   -0.0520    1.1290 C   0  0  0  0  0  0  0  0  0  0  0  0
    0.6620    2.0270   -0.0760 C   0  0  0  0  0  0  0  0  0  0  0  0
   -0.2450    2.8340    0.6870 N   0  0  0  0  0  0  0  0  0  0  0  0
   -0.6350    3.9900    0.2810 C   0  0  0  0  0  0  0  0  0  0  0  0
   -1.5130    4.6870    1.0940 O   0  0  0  0  0  0  0  0  0  0  0  0
    1.7180    2.3520   -0.6940 N   0  0  0  0  0  0  0  0  0  0  0  0
    2.3200    1.2870   -1.3120 O   0  0  0  0  0  0  0  0  0  0  0  0
    1.5120    0.1340   -1.1940 C   0  0  1  0  0  0  0  0  0  0  0  0
    2.3920   -0.9640   -0.5870 C   0  0  0  0  0  0  0  0  0  0  0  0
    3.4730   -1.1900   -1.4430 O   0  0  0  0  0  0  0  0  0  0  0  0
    4.2040   -2.1500   -0.8700 O   0  0  0  0  0  0  0  0  0  0  0  0
    5.3990   -1.6320   -0.5740 O   0  0  0  0  0  0  0  0  0  0  0  0
  2  1  1  1
  2  3  1  0
  2  4  1  0
  4  5  1  0
  5  6  1  0
  6  7  1  1
  6  8  1  0
  6 14  1  0
  8  9  1  0
  8 12  2  0
  9 10  2  3
 10 11  1  0
 12 13  1  0
 13 14  1  0
 14 15  1  1
 15 16  1  0
 16 17  1  0
 17 18  1  0
M  END
