
     RDKit          3D

 27 28  0  0  0  0  0  0  0  0999 V2000
   -2.3180    3.2040    1.1560 O   0  0  0  0  0  0  0  0  0  0  0  0
   -2.5330    2.0210    1.5480 C   0  0  0  0  0  0  0  0  0  0  0  0
   -1.3010    1.3220    2.0710 C   0  0  0  0  0  0  0  0  0  0  0  0
   -0.2770    1.1590    1.2130 O   0  0  0  0  0  0  0  0  0  0  0  0
    0.5890    0.3410    0.6040 C   0  0  0  0  0  0  0  0  0  0  0  0
    1.5030   -0.3350    1.2190 O   0  0  0  0  0  0  0  0  0  0  0  0
    0.6820    0.0490   -0.8720 C   0  0  1  0  0  0  0  0  0  0  0  0
    2.0820   -0.0680   -1.3230 C   0  0  0  0  0  0  0  0  0  0  0  0
    2.4360   -1.1060   -1.9360 O   0  0  0  0  0  0  0  0  0  0  0  0
    3.0290    0.8900   -1.1160 O   0  0  0  0  0  0  0  0  0  0  0  0
    4.3610    0.9180   -1.4670 C   0  0  0  0  0  0  0  0  0  0  0  0
    5.2080   -0.1210   -0.8200 C   0  0  0  0  0  0  0  0  0  0  0  0
    4.7960   -1.3860   -1.1220 O   0  0  0  0  0  0  0  0  0  0  0  0
    5.6090   -2.2420   -0.5020 O   0  0  0  0  0  0  0  0  0  0  0  0
    6.8020   -1.6750   -0.5360 O   0  0  0  0  0  0  0  0  0  0  0  0
    7.0960   -1.3170    0.6930 O   0  0  0  0  0  0  0  0  0  0  0  0
    0.0190   -1.1350   -1.2650 O   0  0  0  0  0  0  0  0  0  0  0  0
   -1.2020   -0.9310   -0.8540 C   0  0  1  0  0  0  0  0  0  0  0  0
   -1.9810    0.2050   -1.4310 C   0  0  0  0  0  0  0  0  0  0  0  0
   -3.4370    0.0280   -1.2050 C   0  0  0  0  0  0  0  0  0  0  0  0
   -3.6360   -0.9640   -0.0930 C   0  0  1  0  0  0  0  0  0  0  0  0
   -4.8890   -1.2200    0.2920 O   0  0  0  0  0  0  0  0  0  0  0  0
   -5.4300   -0.2420    1.1810 C   0  0  0  0  0  0  0  0  0  0  0  0
   -6.6880   -0.1030    1.1700 O   0  0  0  0  0  0  0  0  0  0  0  0
   -4.5270    0.5640    2.0690 C   0  0  0  0  0  0  0  0  0  0  0  0
   -3.7730    1.5220    1.4670 O   0  0  0  0  0  0  0  0  0  0  0  0
   -2.5000   -2.2100   -0.7580 S   0  0  0  0  0  0  0  0  0  0  0  0
  1  2  2  0
  2  3  1  0
  2 26  1  0
  3  4  1  0
  4  5  1  0
  5  6  2  0
  5  7  1  0
  7  8  1  1
  7 17  1  0
  8  9  2  0
  8 10  1  0
 10 11  1  0
 11 12  1  0
 12 13  1  0
 13 14  1  0
 14 15  1  0
 15 16  1  0
 17 18  1  0
 18 19  1  6
 18 27  1  0
 19 20  1  0
 21 20  1  6
 21 22  1  0
 21 27  1  0
 22 23  1  0
 23 24  2  0
 23 25  1  0
 25 26  1  0
M  END
