
     RDKit          3D

 27 27  0  0  0  0  0  0  0  0999 V2000
   -6.2520    1.1490   -2.3970 O   0  0  0  0  0  0  0  0  0  0  0  0
   -6.8660    0.1970   -1.8630 C   0  0  0  0  0  0  0  0  0  0  0  0
   -8.1010   -0.1360   -2.3870 O   0  0  0  0  0  0  0  0  0  0  0  0
   -6.2670   -0.4420   -0.8000 O   0  0  0  0  0  0  0  0  0  0  0  0
   -5.0090   -0.0240   -0.3520 C   0  0  0  0  0  0  0  0  0  0  0  0
   -3.9030   -0.1220   -1.3410 C   0  0  0  0  0  0  0  0  0  0  0  0
   -2.7280    0.3130   -0.7990 O   0  0  0  0  0  0  0  0  0  0  0  0
   -2.2220   -0.3590    0.2670 C   0  0  2  0  0  0  0  0  0  0  0  0
   -2.0600    0.4790    1.4780 C   0  0  0  0  0  0  0  0  0  0  0  0
   -1.6090    0.0430    2.5600 O   0  0  0  0  0  0  0  0  0  0  0  0
   -2.4250    1.8100    1.4070 O   0  0  0  0  0  0  0  0  0  0  0  0
   -0.8860   -0.9520   -0.0530 C   0  0  0  0  0  0  0  0  0  0  0  0
   -0.3800   -0.7940   -1.1910 O   0  0  0  0  0  0  0  0  0  0  0  0
   -0.1970   -1.6750    0.8890 O   0  0  0  0  0  0  0  0  0  0  0  0
    0.9990   -2.2320    0.6720 O   0  0  0  0  0  0  0  0  0  0  0  0
    1.6740   -2.3940    1.8990 C   0  0  0  0  0  0  0  0  0  0  0  0
    1.8900   -0.7730    2.6710 S   0  0  0  0  0  0  0  0  0  0  0  0
    2.9950    0.1970    1.6640 C   0  0  0  0  0  0  0  0  0  0  0  0
    3.4900   -0.3180    0.5730 C   0  0  0  0  0  0  0  0  0  0  0  0
    4.4050    0.4120   -0.3100 C   0  0  1  0  0  0  0  0  0  0  0  0
    3.8690    0.4350   -1.6270 O   0  0  0  0  0  0  0  0  0  0  0  0
    4.7280   -0.2970   -2.4350 C   0  0  0  0  0  0  0  0  0  0  0  0
    4.8300   -1.6210   -1.9840 O   0  0  0  0  0  0  0  0  0  0  0  0
    4.6770    1.6890    0.1450 O   0  0  0  0  0  0  0  0  0  0  0  0
    4.1770    2.2470    1.2730 C   0  0  0  0  0  0  0  0  0  0  0  0
    4.5280    3.5420    1.6220 O   0  0  0  0  0  0  0  0  0  0  0  0
    3.3420    1.5500    2.0580 C   0  0  0  0  0  0  0  0  0  0  0  0
  1  2  2  0
  2  3  1  0
  2  4  1  0
  4  5  1  0
  5  6  1  0
  6  7  1  0
  8  7  1  6
  8  9  1  0
  8 12  1  0
  9 10  2  0
  9 11  1  0
 12 13  2  0
 12 14  1  0
 14 15  1  0
 15 16  1  0
 16 17  1  0
 17 18  1  0
 18 19  2  0
 18 27  1  0
 19 20  1  0
 20 21  1  6
 20 24  1  0
 21 22  1  0
 22 23  1  0
 24 25  1  0
 25 26  1  0
 25 27  2  0
M  END
