
     RDKit          3D

 26 26  0  0  0  0  0  0  0  0999 V2000
   -0.2680   -2.9620   -1.7770 O   0  0  0  0  0  0  0  0  0  0  0  0
   -0.4290   -2.3920   -0.6430 C   0  0  0  0  0  0  0  0  0  0  0  0
    0.3520   -1.6250    0.0700 O   0  0  0  0  0  0  0  0  0  0  0  0
    1.1180   -0.4920    0.1220 C   0  0  2  0  0  0  0  0  0  0  0  0
    2.5450   -0.9520    0.2680 C   0  0  0  0  0  0  0  0  0  0  0  0
    3.5560   -0.0740    0.3930 O   0  0  0  0  0  0  0  0  0  0  0  0
    4.1760    0.8220   -0.4030 C   0  0  0  0  0  0  0  0  0  0  0  0
    3.8350    0.9700   -1.5960 O   0  0  0  0  0  0  0  0  0  0  0  0
    5.5650    1.8930    0.1960 P   0  0  0  0  0  0  0  0  0  0  0  0
    6.8550    0.8550    0.6450 O   0  0  0  0  0  0  0  0  0  0  0  0
    5.0050    2.8440    1.5320 O   0  0  0  0  0  0  0  0  0  0  0  0
    0.8600    0.2950    1.3990 C   0  0  0  0  0  0  0  0  0  0  0  0
    0.0330   -0.1680    2.1990 O   0  0  0  0  0  0  0  0  0  0  0  0
    1.5160    1.4720    1.6610 O   0  0  0  0  0  0  0  0  0  0  0  0
    0.9580    0.4840   -0.9720 C   0  0  0  0  0  0  0  0  0  0  0  0
   -0.7760    0.8350   -1.3740 S   0  0  0  0  0  0  0  0  0  0  0  0
   -1.6160    1.8590   -0.1860 C   0  0  0  0  0  0  0  0  0  0  0  0
   -2.7860    1.1950    0.4910 C   0  0  0  0  0  0  0  0  0  0  0  0
   -3.7720    0.5560   -0.4190 C   0  0  1  0  0  0  0  0  0  0  0  0
   -4.8740    1.3930   -0.6040 O   0  0  0  0  0  0  0  0  0  0  0  0
   -3.2270    0.0560   -1.6980 C   0  0  0  0  0  0  0  0  0  0  0  0
   -3.2950    0.8510   -2.6850 O   0  0  0  0  0  0  0  0  0  0  0  0
   -2.6900   -1.1850   -1.7820 O   0  0  0  0  0  0  0  0  0  0  0  0
   -2.8950   -2.3390   -1.0690 C   0  0  0  0  0  0  0  0  0  0  0  0
   -1.8090   -2.7270   -0.1010 C   0  0  2  0  0  0  0  0  0  0  0  0
   -2.0010   -2.2500    1.1740 O   0  0  0  0  0  0  0  0  0  0  0  0
  1  2  2  0
  2  3  1  0
  2 25  1  0
  3  4  1  0
  4  5  1  1
  4 12  1  0
  4 15  1  0
  5  6  1  0
  6  7  1  0
  7  8  2  0
  7  9  1  0
  9 10  1  0
  9 11  1  0
 12 13  2  0
 12 14  1  0
 15 16  1  0
 16 17  1  0
 17 18  1  0
 18 19  1  0
 19 20  1  6
 19 21  1  0
 21 22  2  0
 21 23  1  0
 23 24  1  0
 24 25  1  0
 25 26  1  1
M  END
