
     RDKit          3D

 27 29  0  0  0  0  0  0  0  0999 V2000
   -5.3700    2.5220   -2.7360 O   0  0  0  0  0  0  0  0  0  0  0  0
   -5.3100    1.6130   -1.8200 C   0  0  0  0  0  0  0  0  0  0  0  0
   -6.2060    1.7030   -0.6880 O   0  0  0  0  0  0  0  0  0  0  0  0
   -5.8550    0.5750    0.0910 C   0  0  0  0  0  0  0  0  0  0  0  0
   -4.4380    0.3630   -0.2630 C   0  0  2  0  0  0  0  0  0  0  0  0
   -3.9860   -0.8620    0.1540 O   0  0  0  0  0  0  0  0  0  0  0  0
   -2.6950   -1.2060   -0.2540 C   0  0  0  0  0  0  0  0  0  0  0  0
   -1.7000   -0.1910    0.2750 C   0  0  1  0  0  0  0  0  0  0  0  0
   -1.2700   -0.5870    1.6810 C   0  0  0  0  0  0  0  0  0  0  0  0
   -0.7660   -1.8710    1.6920 O   0  0  0  0  0  0  0  0  0  0  0  0
   -0.5260   -0.2130   -0.6990 C   0  0  0  0  0  0  0  0  0  0  0  0
    0.5620    0.3800   -0.1730 O   0  0  0  0  0  0  0  0  0  0  0  0
    1.6380    0.4610   -0.9990 C   0  0  0  0  0  0  0  0  0  0  0  0
    2.7830   -0.2510   -0.4250 C   0  0  2  0  0  0  0  0  0  0  0  0
    2.7830   -0.3120    1.1330 C   0  0  0  0  0  0  0  0  0  0  0  0
    3.6950    0.6610    1.4210 O   0  0  0  0  0  0  0  0  0  0  0  0
    3.3190    1.7990    1.9960 O   0  0  0  0  0  0  0  0  0  0  0  0
    4.3940    2.6010    1.6930 O   0  0  0  0  0  0  0  0  0  0  0  0
    4.7310    2.6250    0.4600 O   0  0  0  0  0  0  0  0  0  0  0  0
    4.0170    0.0650   -0.9330 O   0  0  0  0  0  0  0  0  0  0  0  0
    4.9400   -0.8190   -0.3800 C   0  0  0  0  0  0  0  0  0  0  0  0
    4.6530   -2.0890   -1.2400 C   0  0  0  0  0  0  0  0  0  0  0  0
    2.8030   -2.0230   -1.0300 S   0  0  0  0  0  0  0  0  0  0  0  0
   -2.1890    1.1140    0.3780 O   0  0  0  0  0  0  0  0  0  0  0  0
   -3.5430    1.3500    0.2980 C   0  0  0  0  0  0  0  0  0  0  0  0
   -4.0520    2.4640    0.7590 O   0  0  0  0  0  0  0  0  0  0  0  0
   -4.4730    0.5240   -1.6970 O   0  0  0  0  0  0  0  0  0  0  0  0
  1  2  2  0
  2  3  1  0
  2 27  1  0
  3  4  1  0
  5  4  1  1
  5  6  1  0
  5 25  1  0
  5 27  1  0
  6  7  1  0
  7  8  1  0
  8  9  1  1
  8 11  1  0
  8 24  1  0
  9 10  1  0
 11 12  1  0
 12 13  1  0
 14 13  1  6
 14 15  1  0
 14 20  1  0
 14 23  1  0
 15 16  1  0
 16 17  1  0
 17 18  1  0
 18 19  1  0
 20 21  1  0
 21 22  1  0
 22 23  1  0
 24 25  1  0
 25 26  2  0
M  END
