
     RDKit          3D

 27 28  0  0  0  0  0  0  0  0999 V2000
   -0.5120    4.2310    1.0640 O   0  0  0  0  0  0  0  0  0  0  0  0
   -0.2900    4.0630   -0.1630 C   0  0  0  0  0  0  0  0  0  0  0  0
    0.1140    5.1910   -0.8760 O   0  0  0  0  0  0  0  0  0  0  0  0
   -0.4430    2.8170   -0.7570 O   0  0  0  0  0  0  0  0  0  0  0  0
   -0.8500    1.7550    0.0410 C   0  0  1  0  0  0  0  0  0  0  0  0
   -2.1990    2.0000    0.6810 C   0  0  0  0  0  0  0  0  0  0  0  0
   -2.8160    0.7900    0.9860 O   0  0  0  0  0  0  0  0  0  0  0  0
   -3.6370    0.3300   -0.0140 C   0  0  0  0  0  0  0  0  0  0  0  0
   -3.9830   -1.1220    0.2740 C   0  0  0  0  0  0  0  0  0  0  0  0
   -2.8920   -1.9540    0.2390 O   0  0  0  0  0  0  0  0  0  0  0  0
   -2.9230   -2.8820   -0.7990 C   0  0  0  0  0  0  0  0  0  0  0  0
   -1.5810   -3.5130   -0.9090 C   0  0  0  0  0  0  0  0  0  0  0  0
   -1.4680   -4.6250   -1.5180 O   0  0  0  0  0  0  0  0  0  0  0  0
   -0.4790   -2.8740   -0.3450 O   0  0  0  0  0  0  0  0  0  0  0  0
   -0.6930   -2.0860    0.7190 O   0  0  0  0  0  0  0  0  0  0  0  0
    0.1910   -1.3030    1.3970 C   0  0  0  0  0  0  0  0  0  0  0  0
    0.4970   -1.4020    2.6190 O   0  0  0  0  0  0  0  0  0  0  0  0
    0.8890   -0.2120    0.6730 C   0  0  1  0  0  0  0  0  0  0  0  0
    2.3510   -0.3550    0.7020 C   0  0  0  0  0  0  0  0  0  0  0  0
    2.8140   -1.3480    1.3150 O   0  0  0  0  0  0  0  0  0  0  0  0
    3.1930    0.5430    0.0950 O   0  0  0  0  0  0  0  0  0  0  0  0
    4.5860    0.3810    0.1350 C   0  0  0  0  0  0  0  0  0  0  0  0
    5.0860   -0.8810   -0.5030 C   0  0  0  0  0  0  0  0  0  0  0  0
    6.4820   -0.9650   -0.4220 O   0  0  0  0  0  0  0  0  0  0  0  0
    0.3520    0.0160   -0.7230 C   0  0  0  0  0  0  0  0  0  0  0  0
   -0.9110    0.5390   -0.6100 O   0  0  0  0  0  0  0  0  0  0  0  0
    0.3580    1.4020    1.3850 S   0  0  0  0  0  0  0  0  0  0  0  0
  1  2  2  0
  2  3  1  0
  2  4  1  0
  5  4  1  6
  5  6  1  0
  5 26  1  0
  5 27  1  0
  6  7  1  0
  7  8  1  0
  8  9  1  0
  9 10  1  0
 10 11  1  0
 11 12  1  0
 12 13  2  0
 12 14  1  0
 14 15  1  0
 15 16  1  0
 16 17  2  0
 16 18  1  0
 18 19  1  6
 18 25  1  0
 18 27  1  0
 19 20  2  0
 19 21  1  0
 21 22  1  0
 22 23  1  0
 23 24  1  0
 25 26  1  0
M  END
