
     RDKit          3D

 27 27  0  0  0  0  0  0  0  0999 V2000
   -6.1760   -2.0370   -0.4730 O   0  0  0  0  0  0  0  0  0  0  0  0
   -6.6570   -1.6950    0.6370 C   0  0  0  0  0  0  0  0  0  0  0  0
   -8.0170   -1.4000    0.7520 O   0  0  0  0  0  0  0  0  0  0  0  0
   -5.7990   -1.6230    1.7210 O   0  0  0  0  0  0  0  0  0  0  0  0
   -4.4410   -1.9300    1.5480 C   0  0  0  0  0  0  0  0  0  0  0  0
   -3.7690   -1.0640    0.5750 C   0  0  0  0  0  0  0  0  0  0  0  0
   -4.3780   -0.1500   -0.0220 O   0  0  0  0  0  0  0  0  0  0  0  0
   -2.4270   -1.2550    0.3060 O   0  0  0  0  0  0  0  0  0  0  0  0
   -1.6930   -0.4680   -0.6180 C   0  0  2  0  0  0  0  0  0  0  0  0
   -1.0480   -1.3420   -1.6730 C   0  0  0  0  0  0  0  0  0  0  0  0
    0.2510   -1.7370   -0.9560 C   0  0  0  0  0  0  0  0  0  0  0  0
    0.6960   -0.4170   -0.4210 C   0  0  2  0  0  0  0  0  0  0  0  0
    1.7390   -0.4910    0.4740 O   0  0  0  0  0  0  0  0  0  0  0  0
    2.8730    0.2080    0.0630 C   0  0  0  0  0  0  0  0  0  0  0  0
    3.9070    0.0350    1.1270 C   0  0  0  0  0  0  0  0  0  0  0  0
    5.2040    0.7270    0.8470 C   0  0  0  0  0  0  0  0  0  0  0  0
    5.8810    0.2650   -0.4100 C   0  0  0  0  0  0  0  0  0  0  0  0
    6.1710   -1.0980   -0.3570 O   0  0  0  0  0  0  0  0  0  0  0  0
   -0.5480    0.1810    0.1460 C   0  0  2  0  0  0  0  0  0  0  0  0
   -0.6440   -0.0670    1.4990 O   0  0  0  0  0  0  0  0  0  0  0  0
   -0.5100    1.6570   -0.1360 C   0  0  0  0  0  0  0  0  0  0  0  0
   -0.5610    2.5170    0.7640 O   0  0  0  0  0  0  0  0  0  0  0  0
   -0.4150    2.0900   -1.4500 O   0  0  0  0  0  0  0  0  0  0  0  0
   -0.3650    3.7260   -1.8770 S   0  0  1  0  0  0  0  0  0  0  0  0
    1.0580    4.1480   -2.1180 O   0  0  0  0  0  0  0  0  0  0  0  0
   -1.0960    3.8680   -3.2030 O   0  0  0  0  0  0  0  0  0  0  0  0
   -1.0620    4.6830   -0.7070 O   0  0  0  0  0  0  0  0  0  0  0  0
  1  2  2  0
  2  3  1  0
  2  4  1  0
  4  5  1  0
  5  6  1  0
  6  7  2  0
  6  8  1  0
  9  8  1  1
  9 10  1  0
  9 19  1  0
 10 11  1  0
 11 12  1  0
 12 13  1  1
 12 19  1  0
 13 14  1  0
 14 15  1  0
 15 16  1  0
 16 17  1  0
 17 18  1  0
 19 20  1  1
 19 21  1  0
 21 22  2  0
 21 23  1  0
 23 24  1  0
 24 25  2  0
 24 26  2  0
 24 27  1  1
M  END
