
     RDKit          3D

 44 50  0  0  0  0  0  0  0  0999 V2000
  -10.3640    0.9170   -0.4460 N   0  0  0  0  0  0  0  0  0  0  0  0
   -9.1170    0.5230   -0.9840 C   0  0  0  0  0  0  0  0  0  0  0  0
   -8.9930    0.2190   -2.2920 N   0  0  0  0  0  0  0  0  0  0  0  0
   -7.8500   -0.1560   -2.8480 C   0  0  0  0  0  0  0  0  0  0  0  0
   -6.7540   -0.2420   -2.0870 N   0  0  0  0  0  0  0  0  0  0  0  0
   -6.7710    0.0430   -0.7550 C   0  0  0  0  0  0  0  0  0  0  0  0
   -7.9780    0.4290   -0.2110 C   0  0  0  0  0  0  0  0  0  0  0  0
   -7.7260    0.6460    1.0850 N   0  0  0  0  0  0  0  0  0  0  0  0
   -6.4280    0.4050    1.3320 C   0  0  0  0  0  0  0  0  0  0  0  0
   -5.8200    0.0280    0.1930 N   0  0  0  0  0  0  0  0  0  0  0  0
   -4.4530   -0.3330   -0.0540 C   0  0  2  0  0  0  0  0  0  0  0  0
   -3.8240   -0.7630    1.1150 O   0  0  0  0  0  0  0  0  0  0  0  0
   -2.4570   -0.6810    0.8700 C   0  0  2  0  0  0  0  0  0  0  0  0
   -1.6400   -0.5620    2.1390 C   0  0  0  0  0  0  0  0  0  0  0  0
   -0.9400   -1.7560    2.2710 O   0  0  0  0  0  0  0  0  0  0  0  0
    0.5320   -1.8680    1.8300 P   0  0  0  0  0  0  0  0  0  0  0  0
    1.0310   -0.9250    3.0720 O   0  0  0  0  0  0  0  0  0  0  0  0
    0.4980   -3.4990    2.0850 O   0  0  0  0  0  0  0  0  0  0  0  0
    1.9650   -1.9580    1.2730 O   0  0  0  0  0  0  0  0  0  0  0  0
    2.5790   -0.7440    0.9740 C   0  0  2  0  0  0  0  0  0  0  0  0
    2.4270   -0.3730   -0.4930 C   0  0  1  0  0  0  0  0  0  0  0  0
    1.7840    0.9890   -0.5350 C   0  0  0  0  0  0  0  0  0  0  0  0
    1.1550    1.3050   -1.6890 O   0  0  0  0  0  0  0  0  0  0  0  0
   -0.4940    1.4330   -1.6360 P   0  0  0  0  0  0  0  0  0  0  0  0
   -0.5190    0.8900   -3.1020 O   0  0  0  0  0  0  0  0  0  0  0  0
   -0.4100    2.3430   -0.4140 O   0  0  0  0  0  0  0  0  0  0  0  0
   -1.3960    0.2730   -0.9770 O   0  0  0  0  0  0  0  0  0  0  0  0
   -2.2830    0.5760    0.0070 C   0  0  1  0  0  0  0  0  0  0  0  0
   -3.6770    0.8760   -0.4790 C   0  0  1  0  0  0  0  0  0  0  0  0
   -3.7300    1.0160   -1.8660 O   0  0  0  0  0  0  0  0  0  0  0  0
    3.7360   -0.3000   -0.9490 O   0  0  0  0  0  0  0  0  0  0  0  0
    4.4780   -1.2490   -0.2820 C   0  0  1  0  0  0  0  0  0  0  0  0
    5.8800   -1.0020   -0.3740 N   0  0  0  0  0  0  0  0  0  0  0  0
    6.8630   -1.9130   -0.6320 C   0  0  0  0  0  0  0  0  0  0  0  0
    8.0530   -1.3110   -0.6400 N   0  0  0  0  0  0  0  0  0  0  0  0
    7.8660   -0.0120   -0.3900 C   0  0  0  0  0  0  0  0  0  0  0  0
    8.7030    1.0650   -0.2790 C   0  0  0  0  0  0  0  0  0  0  0  0
   10.0970    0.9060   -0.4430 N   0  0  0  0  0  0  0  0  0  0  0  0
    8.2040    2.2780   -0.0140 N   0  0  0  0  0  0  0  0  0  0  0  0
    6.8790    2.4550    0.1460 C   0  0  0  0  0  0  0  0  0  0  0  0
    6.0460    1.4190    0.0420 N   0  0  0  0  0  0  0  0  0  0  0  0
    6.4950    0.1740   -0.2240 C   0  0  0  0  0  0  0  0  0  0  0  0
    4.0590   -0.9990    1.1640 C   0  0  2  0  0  0  0  0  0  0  0  0
    4.3310   -2.1280    1.8980 O   0  0  0  0  0  0  0  0  0  0  0  0
  1  2  1  0
  2  3  2  0
  2  7  1  0
  3  4  1  0
  4  5  2  0
  5  6  1  0
  6  7  2  0
  6 10  1  0
  7  8  1  0
  8  9  2  0
  9 10  1  0
 11 10  1  1
 11 12  1  0
 11 29  1  0
 12 13  1  0
 13 14  1  1
 13 28  1  0
 14 15  1  0
 15 16  1  0
 16 17  1  0
 16 18  1  0
 16 19  1  0
 20 19  1  6
 20 21  1  0
 20 43  1  0
 21 22  1  1
 21 31  1  0
 22 23  1  0
 23 24  1  0
 24 25  1  0
 24 26  1  0
 24 27  1  0
 28 27  1  6
 28 29  1  0
 29 30  1  6
 31 32  1  0
 32 33  1  1
 32 43  1  0
 33 34  1  0
 33 42  1  0
 34 35  2  0
 35 36  1  0
 36 37  2  0
 36 42  1  0
 37 38  1  0
 37 39  1  0
 39 40  2  0
 40 41  1  0
 41 42  2  0
 43 44  1  1
M  END
