
     RDKit          3D

 32 34  0  0  0  0  0  0  0  0999 V2000
    3.6030    0.7880    1.5730 C   0  0  0  0  0  0  0  0  0  0  0  0
    3.3670   -0.6050    1.0720 C   0  0  1  0  0  0  0  0  0  0  0  0
    1.9090   -0.9530    0.8840 C   0  0  0  0  0  0  0  0  0  0  0  0
    1.1880   -0.8360    2.1970 C   0  0  0  0  0  0  0  0  0  0  0  0
   -0.2050   -1.1420    2.1440 N   0  0  0  0  0  0  0  0  0  0  0  0
   -1.1030   -0.3820    1.3050 C   0  0  0  0  0  0  0  0  0  0  0  0
   -0.5780    0.5440    0.6460 O   0  0  0  0  0  0  0  0  0  0  0  0
   -2.5480   -0.7200    1.2640 C   0  0  2  0  0  0  0  0  0  0  0  0
   -2.8380   -1.7380    2.1870 O   0  0  0  0  0  0  0  0  0  0  0  0
   -2.9410   -1.1130   -0.1220 C   0  0  0  0  0  0  0  0  0  0  0  0
   -2.7120   -0.0790   -1.0660 N   0  0  0  0  0  0  0  0  0  0  0  0
   -1.6100    0.1050   -1.8370 C   0  0  0  0  0  0  0  0  0  0  0  0
   -1.7940    1.1900   -2.6180 N   0  0  0  0  0  0  0  0  0  0  0  0
   -3.0270    1.6800   -2.3230 C   0  0  0  0  0  0  0  0  0  0  0  0
   -3.6090    0.8940   -1.3540 C   0  0  0  0  0  0  0  0  0  0  0  0
   -4.8890    1.0380   -0.7490 N   0  0  0  0  0  0  0  0  0  0  0  0
   -5.0800    1.9000    0.2850 C   0  0  0  0  0  0  0  0  0  0  0  0
   -6.2820    2.0480    0.8650 N   0  0  0  0  0  0  0  0  0  0  0  0
   -7.3370    1.3240    0.4160 C   0  0  0  0  0  0  0  0  0  0  0  0
   -8.6430    1.2740    0.8090 N   0  0  0  0  0  0  0  0  0  0  0  0
   -9.3070    0.3900    0.0450 C   0  0  0  0  0  0  0  0  0  0  0  0
   -8.3780   -0.1120   -0.8390 C   0  0  0  0  0  0  0  0  0  0  0  0
   -7.1640    0.4700   -0.6040 N   0  0  0  0  0  0  0  0  0  0  0  0
   -5.9620    0.3440   -1.1590 C   0  0  0  0  0  0  0  0  0  0  0  0
   -5.8320   -0.4660   -2.1130 O   0  0  0  0  0  0  0  0  0  0  0  0
    4.1660   -0.8320   -0.0960 N   0  0  0  0  0  0  0  0  0  0  0  0
    5.5630   -0.7350    0.2670 C   0  0  0  0  0  0  0  0  0  0  0  0
    6.4500   -0.9720   -0.9470 C   0  0  0  0  0  0  0  0  0  0  0  0
    6.1370    0.0710   -1.9970 C   0  0  0  0  0  0  0  0  0  0  0  0
    6.4540    1.7560   -1.3370 P   0  0  0  0  0  0  0  0  0  0  0  0
    7.1700    2.7570   -2.5750 O   0  0  0  0  0  0  0  0  0  0  0  0
    7.4390    1.7390    0.0740 O   0  0  0  0  0  0  0  0  0  0  0  0
  2  1  1  6
  2  3  1  0
  2 26  1  0
  3  4  1  0
  4  5  1  0
  5  6  1  0
  6  7  2  0
  6  8  1  0
  8  9  1  1
  8 10  1  0
 10 11  1  0
 11 12  1  0
 11 15  1  0
 12 13  2  0
 13 14  1  0
 14 15  2  0
 15 16  1  0
 16 17  1  0
 16 24  1  0
 17 18  2  0
 18 19  1  0
 19 20  2  0
 19 23  1  0
 20 21  1  0
 21 22  2  0
 22 23  1  0
 23 24  1  0
 24 25  2  0
 26 27  1  0
 27 28  1  0
 28 29  1  0
 29 30  1  0
 30 31  1  0
 30 32  1  0
M  END
