
     RDKit          3D

 33 34  0  0  0  0  0  0  0  0999 V2000
   -6.1830    0.6830    0.9010 C   0  0  0  0  0  0  0  0  0  0  0  0
   -5.5890    2.0360    0.6180 C   0  0  1  0  0  0  0  0  0  0  0  0
   -6.0000    2.9840    1.7080 C   0  0  0  0  0  0  0  0  0  0  0  0
   -4.0430    1.8450    0.6960 C   0  0  2  0  0  0  0  0  0  0  0  0
   -3.5790    0.8790   -0.2870 C   0  0  0  0  0  0  0  0  0  0  0  0
   -2.5920   -0.1150   -0.0680 N   0  0  0  0  0  0  0  0  0  0  0  0
   -2.5890   -1.1720   -0.9910 C   0  0  0  0  0  0  0  0  0  0  0  0
   -1.7040   -2.0950   -0.7540 O   0  0  0  0  0  0  0  0  0  0  0  0
   -3.3500   -1.4450   -2.1320 N   0  0  0  0  0  0  0  0  0  0  0  0
   -2.9900   -2.7540   -2.7970 C   0  0  0  0  0  0  0  0  0  0  0  0
   -4.3770   -0.7030   -2.7710 C   0  0  0  0  0  0  0  0  0  0  0  0
   -1.5910   -0.1400    0.9610 C   0  0  2  0  0  0  0  0  0  0  0  0
   -0.9000    1.2280    1.0630 C   0  0  0  0  0  0  0  0  0  0  0  0
   -0.5840   -1.2260    0.9800 C   0  0  0  0  0  0  0  0  0  0  0  0
    0.3170   -0.9110    2.2180 C   0  0  0  0  0  0  0  0  0  0  0  0
    1.3400   -1.8830    2.3850 N   0  0  0  0  0  0  0  0  0  0  0  0
    2.4820   -1.9360    1.5730 C   0  0  0  0  0  0  0  0  0  0  0  0
    2.7370   -0.9890    0.6170 C   0  0  0  0  0  0  0  0  0  0  0  0
    3.8560   -1.0810   -0.1830 C   0  0  0  0  0  0  0  0  0  0  0  0
    4.7160   -2.1330   -0.0130 C   0  0  0  0  0  0  0  0  0  0  0  0
    5.8640   -2.2450   -0.8200 N   0  0  0  0  0  0  0  0  0  0  0  0
    6.1230   -1.2830   -1.7920 N   0  0  0  0  0  0  0  0  0  0  0  0
    6.8810   -0.2250   -1.1640 C   0  0  0  0  0  0  0  0  0  0  0  0
    7.2300    0.8900   -2.1180 C   0  0  0  0  0  0  0  0  0  0  0  0
    8.2010    2.1560   -1.1320 P   0  0  0  0  0  0  0  0  0  0  0  0
    8.5940    3.5280   -2.1180 O   0  0  0  0  0  0  0  0  0  0  0  0
    9.6170    1.3720   -0.5290 O   0  0  0  0  0  0  0  0  0  0  0  0
    4.4160   -3.0300    0.9400 N   0  0  0  0  0  0  0  0  0  0  0  0
    3.3610   -2.9540    1.7030 N   0  0  0  0  0  0  0  0  0  0  0  0
   -2.3310   -0.2710    2.2040 O   0  0  0  0  0  0  0  0  0  0  0  0
   -3.1740    0.6430    2.7950 C   0  0  0  0  0  0  0  0  0  0  0  0
   -3.4120    0.4920    3.9960 O   0  0  0  0  0  0  0  0  0  0  0  0
   -3.7570    1.7240    2.0660 N   0  0  0  0  0  0  0  0  0  0  0  0
  2  1  1  1
  2  3  1  0
  2  4  1  0
  4  5  1  6
  4 33  1  0
  5  6  1  0
  6  7  1  0
  6 12  1  0
  7  8  2  0
  7  9  1  0
  9 10  1  0
  9 11  1  0
 12 13  1  1
 12 14  1  0
 12 30  1  0
 14 15  1  0
 15 16  1  0
 16 17  1  0
 17 18  2  0
 17 29  1  0
 18 19  1  0
 19 20  2  0
 20 21  1  0
 20 28  1  0
 21 22  1  0
 22 23  1  0
 23 24  1  0
 24 25  1  0
 25 26  1  0
 25 27  1  0
 28 29  2  0
 30 31  1  0
 31 32  2  0
 31 33  1  0
M  END
