
     RDKit          3D

 33 34  0  0  0  0  0  0  0  0999 V2000
   -4.8430    2.3800   -1.9910 C   0  0  0  0  0  0  0  0  0  0  0  0
   -4.4550    1.2070   -2.8010 C   0  0  0  0  0  0  0  0  0  0  0  0
   -3.8370    0.0450   -2.1220 C   0  0  0  0  0  0  0  0  0  0  0  0
   -2.5770    0.2690   -1.3800 C   0  0  0  0  0  0  0  0  0  0  0  0
   -2.5280    1.1230   -0.2680 N   0  0  0  0  0  0  0  0  0  0  0  0
   -3.0500    0.9190    1.0180 C   0  0  0  0  0  0  0  0  0  0  0  0
   -4.3750    1.2940    1.3490 N   0  0  0  0  0  0  0  0  0  0  0  0
   -5.5800    0.5990    1.0600 C   0  0  0  0  0  0  0  0  0  0  0  0
   -5.7090   -0.7300    1.7950 C   0  0  0  0  0  0  0  0  0  0  0  0
   -6.9500   -1.2630    1.3760 O   0  0  0  0  0  0  0  0  0  0  0  0
   -2.3390    0.3940    1.9930 C   0  0  0  0  0  0  0  0  0  0  0  0
   -2.9450    0.1960    3.3400 C   0  0  0  0  0  0  0  0  0  0  0  0
   -0.9520    0.0470    1.8110 C   0  0  0  0  0  0  0  0  0  0  0  0
   -0.3830    0.3030    0.6740 N   0  0  0  0  0  0  0  0  0  0  0  0
    0.9250    0.0790    0.2280 N   0  0  0  0  0  0  0  0  0  0  0  0
    1.2010    0.5470   -1.0870 C   0  0  0  0  0  0  0  0  0  0  0  0
    2.3830    0.3840   -1.6340 N   0  0  0  0  0  0  0  0  0  0  0  0
    3.4580   -0.2580   -0.9690 C   0  0  0  0  0  0  0  0  0  0  0  0
    4.7080   -0.3970   -1.6370 N   0  0  0  0  0  0  0  0  0  0  0  0
    5.5990   -1.4290   -1.2430 C   0  0  0  0  0  0  0  0  0  0  0  0
    6.7400   -1.1010   -0.6670 C   0  0  0  0  0  0  0  0  0  0  0  0
    7.0570    0.3270   -0.4500 C   0  0  0  0  0  0  0  0  0  0  0  0
    8.6160    0.7890   -1.3550 P   0  0  0  0  0  0  0  0  0  0  0  0
    9.5000   -0.6980   -1.6260 O   0  0  0  0  0  0  0  0  0  0  0  0
    8.1700    1.4370   -2.8960 O   0  0  0  0  0  0  0  0  0  0  0  0
    5.2620   -2.8480   -1.4690 C   0  0  0  0  0  0  0  0  0  0  0  0
    4.1810   -3.1830   -2.0140 O   0  0  0  0  0  0  0  0  0  0  0  0
    6.1360   -3.8460   -1.0840 O   0  0  0  0  0  0  0  0  0  0  0  0
    3.2530   -0.6960    0.2250 N   0  0  0  0  0  0  0  0  0  0  0  0
    2.0070   -0.5630    0.8930 C   0  0  0  0  0  0  0  0  0  0  0  0
    1.9850   -1.0400    2.0930 N   0  0  0  0  0  0  0  0  0  0  0  0
    0.9100   -1.0530    3.0470 C   0  0  0  0  0  0  0  0  0  0  0  0
   -0.3200   -0.6150    2.9740 C   0  0  0  0  0  0  0  0  0  0  0  0
  1  2  1  0
  2  3  1  0
  3  4  1  0
  4  5  1  0
  5  6  1  0
  6  7  1  0
  6 11  2  3
  7  8  1  0
  8  9  1  0
  9 10  1  0
 11 12  1  0
 11 13  1  0
 13 14  2  0
 13 33  1  0
 14 15  1  0
 15 16  1  0
 15 30  1  0
 16 17  2  0
 17 18  1  0
 18 19  1  0
 18 29  2  0
 19 20  1  0
 20 21  2  3
 20 26  1  0
 21 22  1  0
 22 23  1  0
 23 24  1  0
 23 25  1  0
 26 27  2  0
 26 28  1  0
 29 30  1  0
 30 31  2  0
 31 32  1  0
 32 33  2  0
M  END
