
     RDKit          3D

 33 34  0  0  0  0  0  0  0  0999 V2000
    6.6230    1.8040    2.7640 C   0  0  0  0  0  0  0  0  0  0  0  0
    5.9070    0.8810    1.7950 C   0  0  0  0  0  0  0  0  0  0  0  0
    4.6500    0.6200    2.3070 O   0  0  0  0  0  0  0  0  0  0  0  0
    3.7150   -0.4210    1.3090 P   0  0  0  0  0  0  0  0  0  0  0  0
    4.6590   -1.6850    0.5900 O   0  0  0  0  0  0  0  0  0  0  0  0
    4.9400   -1.4150   -0.7480 C   0  0  0  0  0  0  0  0  0  0  0  0
    5.7570   -2.5050   -1.3790 C   0  0  0  0  0  0  0  0  0  0  0  0
    2.9860    0.4880    0.0540 O   0  0  0  0  0  0  0  0  0  0  0  0
    2.1850    1.5220    0.5310 C   0  0  0  0  0  0  0  0  0  0  0  0
    1.5530    2.3090   -0.5850 C   0  0  0  0  0  0  0  0  0  0  0  0
    0.7160    1.4100   -1.3930 N   0  0  0  0  0  0  0  0  0  0  0  0
   -0.4860    0.8600   -0.8130 C   0  0  0  0  0  0  0  0  0  0  0  0
   -1.1840    1.6240   -0.0570 N   0  0  0  0  0  0  0  0  0  0  0  0
   -2.3630    1.1670    0.5440 C   0  0  0  0  0  0  0  0  0  0  0  0
   -3.0190    2.0070    1.3600 C   0  0  0  0  0  0  0  0  0  0  0  0
   -2.4850    3.3390    1.5800 C   0  0  0  0  0  0  0  0  0  0  0  0
   -3.0600    4.1950    2.3470 N   0  0  0  0  0  0  0  0  0  0  0  0
   -2.5160    5.4640    2.5330 N   0  0  0  0  0  0  0  0  0  0  0  0
   -2.8710   -0.1900    0.2960 C   0  0  1  0  0  0  0  0  0  0  0  0
   -2.8980   -0.8980    1.6550 C   0  0  0  0  0  0  0  0  0  0  0  0
   -4.2470   -0.1630   -0.2870 C   0  0  0  0  0  0  0  0  0  0  0  0
   -4.8820    0.8720   -0.5300 O   0  0  0  0  0  0  0  0  0  0  0  0
   -4.8450   -1.4290   -0.5730 N   0  0  0  0  0  0  0  0  0  0  0  0
   -6.1850   -1.5190   -1.1430 C   0  0  0  0  0  0  0  0  0  0  0  0
   -6.5260   -2.9750   -1.3250 C   0  0  0  0  0  0  0  0  0  0  0  0
   -6.4740   -3.5750   -0.0480 O   0  0  0  0  0  0  0  0  0  0  0  0
   -2.0250   -1.0060   -0.5710 C   0  0  0  0  0  0  0  0  0  0  0  0
   -0.8980   -0.5150   -1.0980 C   0  0  0  0  0  0  0  0  0  0  0  0
   -0.0690   -1.3420   -1.9540 C   0  0  0  0  0  0  0  0  0  0  0  0
    1.0870   -1.0640   -2.5420 N   0  0  0  0  0  0  0  0  0  0  0  0
    1.5310   -2.1080   -3.2600 C   0  0  0  0  0  0  0  0  0  0  0  0
    0.6170   -3.0790   -3.1170 N   0  0  0  0  0  0  0  0  0  0  0  0
   -0.3530   -2.6040   -2.3210 N   0  0  0  0  0  0  0  0  0  0  0  0
  1  2  1  0
  2  3  1  0
  3  4  1  0
  4  5  1  0
  4  8  1  0
  5  6  1  0
  6  7  1  0
  8  9  1  0
  9 10  1  0
 10 11  1  0
 11 12  1  0
 12 13  2  0
 12 28  1  0
 13 14  1  0
 14 15  2  3
 14 19  1  0
 15 16  1  0
 16 17  2  3
 17 18  1  0
 19 20  1  1
 19 21  1  0
 19 27  1  0
 21 22  2  0
 21 23  1  0
 23 24  1  0
 24 25  1  0
 25 26  1  0
 27 28  2  0
 28 29  1  0
 29 30  2  0
 29 33  1  0
 30 31  1  0
 31 32  2  0
 32 33  1  0
M  END
