
     RDKit          3D

 46 50  0  0  0  0  0  0  0  0999 V2000
   13.1440    1.7320    2.6360 C   0  0  0  0  0  0  0  0  0  0  0  0
   12.2890    1.9770    1.6570 C   0  0  0  0  0  0  0  0  0  0  0  0
   11.5840    0.8460    0.9290 C   0  0  0  0  0  0  0  0  0  0  0  0
   10.3090    0.9270    1.0400 O   0  0  0  0  0  0  0  0  0  0  0  0
    9.0360    0.9610    1.1190 C   0  0  0  0  0  0  0  0  0  0  0  0
    8.2440   -0.0250    0.4900 C   0  0  0  0  0  0  0  0  0  0  0  0
    6.8820   -0.0240    0.5500 C   0  0  0  0  0  0  0  0  0  0  0  0
    6.2650    0.9760    1.2520 C   0  0  0  0  0  0  0  0  0  0  0  0
    7.0160    1.9720    1.8890 C   0  0  0  0  0  0  0  0  0  0  0  0
    8.3750    1.9870    1.8390 C   0  0  0  0  0  0  0  0  0  0  0  0
    9.1420    2.9270    2.4380 F   0  0  0  0  0  0  0  0  0  0  0  0
    4.8070    0.7560    1.1700 C   0  0  0  0  0  0  0  0  0  0  0  0
    4.6490   -0.4640    0.3430 C   0  0  0  0  0  0  0  0  0  0  0  0
    3.5570   -1.1540   -0.0860 N   0  0  0  0  0  0  0  0  0  0  0  0
    3.5980   -2.2540   -0.8370 C   0  0  0  0  0  0  0  0  0  0  0  0
    2.3940   -2.9980   -1.2850 C   0  0  2  0  0  0  0  0  0  0  0  0
    2.6670   -4.3680   -1.0280 O   0  0  0  0  0  0  0  0  0  0  0  0
    2.1510   -2.8000   -2.7230 C   0  0  0  0  0  0  0  0  0  0  0  0
    1.8820   -1.4510   -3.2600 C   0  0  1  0  0  0  0  0  0  0  0  0
    2.9070   -0.3990   -3.0660 C   0  0  0  0  0  0  0  0  0  0  0  0
    1.8420   -1.6580   -4.6930 O   0  0  0  0  0  0  0  0  0  0  0  0
    0.5400   -0.8900   -2.8990 C   0  0  0  0  0  0  0  0  0  0  0  0
   -0.3030   -0.8490   -3.8220 O   0  0  0  0  0  0  0  0  0  0  0  0
    0.2380   -0.4370   -1.6210 N   0  0  0  0  0  0  0  0  0  0  0  0
   -0.9810    0.0910   -1.1970 C   0  0  0  0  0  0  0  0  0  0  0  0
   -2.1080    0.1510   -1.9630 C   0  0  0  0  0  0  0  0  0  0  0  0
   -3.3240    0.6990   -1.4880 C   0  0  0  0  0  0  0  0  0  0  0  0
   -3.4130    1.1950   -0.2210 C   0  0  0  0  0  0  0  0  0  0  0  0
   -4.5920    1.7230    0.2380 O   0  0  0  0  0  0  0  0  0  0  0  0
   -5.7430    1.7640   -0.6070 C   0  0  0  0  0  0  0  0  0  0  0  0
   -6.9060    2.3720    0.1250 C   0  0  0  0  0  0  0  0  0  0  0  0
   -7.3030    1.6420    1.3550 C   0  0  0  0  0  0  0  0  0  0  0  0
   -7.7140    0.2320    1.1960 C   0  0  2  0  0  0  0  0  0  0  0  0
   -8.0780   -0.3130    2.5630 C   0  0  0  0  0  0  0  0  0  0  0  0
   -6.6430   -0.5860    0.7580 O   0  0  0  0  0  0  0  0  0  0  0  0
   -8.8230    0.0060    0.2100 C   0  0  1  0  0  0  0  0  0  0  0  0
   -9.2100   -1.4320    0.0720 C   0  0  0  0  0  0  0  0  0  0  0  0
  -10.7020   -1.3870   -0.2690 C   0  0  0  0  0  0  0  0  0  0  0  0
  -11.0860   -0.0600    0.2810 C   0  0  0  0  0  0  0  0  0  0  0  0
   -9.9700    0.6950    0.4320 O   0  0  0  0  0  0  0  0  0  0  0  0
   -2.3010    1.1490    0.5710 C   0  0  0  0  0  0  0  0  0  0  0  0
   -2.3950    1.6880    1.9520 C   0  0  0  0  0  0  0  0  0  0  0  0
   -1.1210    0.6160    0.1050 C   0  0  0  0  0  0  0  0  0  0  0  0
    4.8600   -2.7410   -1.2160 C   0  0  0  0  0  0  0  0  0  0  0  0
    5.9930   -2.0790   -0.8080 C   0  0  0  0  0  0  0  0  0  0  0  0
    5.8780   -0.9430   -0.0300 C   0  0  0  0  0  0  0  0  0  0  0  0
  1  2  2  0
  2  3  1  0
  3  4  1  0
  4  5  1  0
  5  6  2  0
  5 10  1  0
  6  7  1  0
  7  8  2  0
  7 46  1  0
  8  9  1  0
  8 12  1  0
  9 10  2  0
 10 11  1  0
 12 13  1  0
 13 14  2  0
 13 46  1  0
 14 15  1  0
 15 16  1  0
 15 44  2  0
 16 17  1  6
 16 18  1  0
 18 19  1  0
 19 20  1  6
 19 21  1  0
 19 22  1  0
 22 23  2  0
 22 24  1  0
 24 25  1  0
 25 26  2  0
 25 43  1  0
 26 27  1  0
 27 28  2  0
 28 29  1  0
 28 41  1  0
 29 30  1  0
 30 31  1  0
 31 32  1  0
 32 33  1  0
 33 34  1  1
 33 35  1  0
 33 36  1  0
 36 37  1  1
 36 40  1  0
 37 38  1  0
 38 39  1  0
 39 40  1  0
 41 42  1  0
 41 43  2  0
 44 45  1  0
 45 46  2  0
M  END
