
     RDKit          3D

 46 50  0  0  0  0  0  0  0  0999 V2000
   -4.5260   -3.1510   -1.5940 C   0  0  0  0  0  0  0  0  0  0  0  0
   -4.4820   -1.7060   -1.7970 N   0  0  0  0  0  0  0  0  0  0  0  0
   -5.7580   -1.0890   -1.4810 C   0  0  1  0  0  0  0  0  0  0  0  0
   -6.8280   -2.1690   -1.4440 C   0  0  0  0  0  0  0  0  0  0  0  0
   -5.7040   -0.4250   -0.1410 C   0  0  0  0  0  0  0  0  0  0  0  0
   -6.4020   -0.9660    0.9100 C   0  0  0  0  0  0  0  0  0  0  0  0
   -6.3610   -0.3990    2.1800 C   0  0  0  0  0  0  0  0  0  0  0  0
   -5.6080    0.7290    2.3940 C   0  0  0  0  0  0  0  0  0  0  0  0
   -4.9110    1.2560    1.3070 C   0  0  0  0  0  0  0  0  0  0  0  0
   -4.9230    0.7300    0.0410 C   0  0  0  0  0  0  0  0  0  0  0  0
   -4.2640    1.2420   -1.0900 N   0  0  0  0  0  0  0  0  0  0  0  0
   -3.3740    2.3250   -1.0870 C   0  0  0  0  0  0  0  0  0  0  0  0
   -3.0930    2.9340   -0.0300 O   0  0  0  0  0  0  0  0  0  0  0  0
   -2.7010    2.8330   -2.3180 C   0  0  2  0  0  0  0  0  0  0  0  0
   -3.7640    3.0100   -3.3640 C   0  0  0  0  0  0  0  0  0  0  0  0
   -3.4060    2.5160   -4.6140 O   0  0  0  0  0  0  0  0  0  0  0  0
   -3.1420    1.1500   -4.5700 C   0  0  0  0  0  0  0  0  0  0  0  0
   -2.0630    0.8110   -3.5800 C   0  0  0  0  0  0  0  0  0  0  0  0
   -1.5920    2.0110   -2.8360 C   0  0  2  0  0  0  0  0  0  0  0  0
   -0.5390    1.7090   -1.8490 C   0  0  0  0  0  0  0  0  0  0  0  0
   -0.2970    0.5630   -1.5650 O   0  0  0  0  0  0  0  0  0  0  0  0
    0.2170    2.7990   -1.2080 C   0  0  0  0  0  0  0  0  0  0  0  0
    1.1970    2.2530   -0.3080 O   0  0  0  0  0  0  0  0  0  0  0  0
    2.1930    1.4170   -0.7420 C   0  0  0  0  0  0  0  0  0  0  0  0
    2.2380    1.1250   -1.9800 O   0  0  0  0  0  0  0  0  0  0  0  0
    3.2070    0.8350    0.1090 C   0  0  0  0  0  0  0  0  0  0  0  0
    3.2220    1.1080    1.4680 C   0  0  0  0  0  0  0  0  0  0  0  0
    4.1770    0.5670    2.2970 C   0  0  0  0  0  0  0  0  0  0  0  0
    5.1460   -0.2620    1.8020 C   0  0  0  0  0  0  0  0  0  0  0  0
    6.1800   -0.8560    2.6870 C   0  0  2  0  0  0  0  0  0  0  0  0
    6.6530    0.1360    3.5670 O   0  0  0  0  0  0  0  0  0  0  0  0
    7.3640   -1.3160    1.9000 C   0  0  0  0  0  0  0  0  0  0  0  0
    7.5560   -2.6720    1.7510 C   0  0  0  0  0  0  0  0  0  0  0  0
    8.6180   -3.1860    1.0370 C   0  0  0  0  0  0  0  0  0  0  0  0
    8.8450   -4.9060    0.8600 Cl  0  0  0  0  0  0  0  0  0  0  0  0
    9.4940   -2.2770    0.4670 C   0  0  0  0  0  0  0  0  0  0  0  0
   10.6490   -2.7850   -0.3080 C   0  0  0  0  0  0  0  0  0  0  0  0
    9.3040   -0.9250    0.6150 C   0  0  0  0  0  0  0  0  0  0  0  0
    8.2220   -0.4160    1.3420 C   0  0  0  0  0  0  0  0  0  0  0  0
    8.0490    1.0500    1.4860 C   0  0  0  0  0  0  0  0  0  0  0  0
    5.1510   -0.5490    0.4490 C   0  0  0  0  0  0  0  0  0  0  0  0
    4.1890    0.0010   -0.3640 C   0  0  0  0  0  0  0  0  0  0  0  0
    4.2060   -0.2960   -1.7220 O   0  0  0  0  0  0  0  0  0  0  0  0
   -5.7300    1.1400    3.8220 C   0  0  0  0  0  0  0  0  0  0  0  0
   -6.9950    0.4810    4.2650 C   0  0  0  0  0  0  0  0  0  0  0  0
   -7.0180   -0.7970    3.4520 C   0  0  0  0  0  0  0  0  0  0  0  0
  1  2  1  0
  2  3  1  0
  3  4  1  1
  3  5  1  0
  5  6  2  0
  5 10  1  0
  6  7  1  0
  7  8  2  0
  7 46  1  0
  8  9  1  0
  8 44  1  0
  9 10  2  0
 10 11  1  0
 11 12  1  0
 12 13  2  0
 14 12  1  1
 14 15  1  0
 14 19  1  0
 15 16  1  0
 16 17  1  0
 17 18  1  0
 18 19  1  0
 19 20  1  1
 20 21  2  0
 20 22  1  0
 22 23  1  0
 23 24  1  0
 24 25  2  0
 24 26  1  0
 26 27  2  0
 26 42  1  0
 27 28  1  0
 28 29  2  0
 29 30  1  0
 29 41  1  0
 30 31  1  1
 30 32  1  0
 32 33  2  0
 32 39  1  0
 33 34  1  0
 34 35  1  0
 34 36  2  0
 36 37  1  0
 36 38  1  0
 38 39  2  0
 39 40  1  0
 41 42  2  0
 42 43  1  0
 44 45  1  0
 45 46  1  0
M  CHG  1   2   1
M  END
