
     RDKit          3D

 46 50  0  0  0  0  0  0  0  0999 V2000
    4.3480    0.3400   -0.4100 C   0  0  0  0  0  0  0  0  0  0  0  0
    4.5860   -1.0920   -0.1430 C   0  0  0  0  0  0  0  0  0  0  0  0
    3.4730   -1.8830    0.1830 C   0  0  0  0  0  0  0  0  0  0  0  0
    3.6320   -3.2250    0.4410 C   0  0  0  0  0  0  0  0  0  0  0  0
    2.5290   -3.9870    0.7600 O   0  0  0  0  0  0  0  0  0  0  0  0
    1.2840   -3.3840    0.8010 C   0  0  0  0  0  0  0  0  0  0  0  0
    0.5000   -3.4030   -0.3350 C   0  0  0  0  0  0  0  0  0  0  0  0
   -0.7590   -2.8210   -0.3750 C   0  0  0  0  0  0  0  0  0  0  0  0
   -1.2800   -2.1940    0.7330 C   0  0  0  0  0  0  0  0  0  0  0  0
   -2.5830   -1.5930    0.6870 C   0  0  0  0  0  0  0  0  0  0  0  0
   -3.1200   -0.9740   -0.3250 C   0  0  0  0  0  0  0  0  0  0  0  0
   -2.5580   -0.7390   -1.6220 N   0  0  0  0  0  0  0  0  0  0  0  0
   -3.6480   -0.7480   -2.5590 C   0  0  0  0  0  0  0  0  0  0  0  0
   -3.5020   -0.6510   -3.7970 O   0  0  0  0  0  0  0  0  0  0  0  0
   -4.9190   -0.8920   -1.7610 C   0  0  0  0  0  0  0  0  0  0  0  0
   -4.4730   -0.3310   -0.4270 C   0  0  1  0  0  0  0  0  0  0  0  0
   -5.3010   -0.6190    0.6230 O   0  0  0  0  0  0  0  0  0  0  0  0
   -5.6620    0.5960    1.2050 C   0  0  0  0  0  0  0  0  0  0  0  0
   -6.5800    0.4040    2.3900 C   0  0  2  0  0  0  0  0  0  0  0  0
   -5.8690   -0.3760    3.3220 O   0  0  0  0  0  0  0  0  0  0  0  0
   -7.8200   -0.3100    1.9230 C   0  0  0  0  0  0  0  0  0  0  0  0
   -8.6000    0.4110    0.9690 N   0  0  0  0  0  0  0  0  0  0  0  0
   -9.1770    1.6730    1.2230 C   0  0  0  0  0  0  0  0  0  0  0  0
   -8.9650    2.1570    2.3700 O   0  0  0  0  0  0  0  0  0  0  0  0
   -9.9680    2.3840    0.2310 C   0  0  0  0  0  0  0  0  0  0  0  0
  -10.3150    1.7980   -0.9560 C   0  0  0  0  0  0  0  0  0  0  0  0
  -11.0760    2.4970   -1.8990 C   0  0  0  0  0  0  0  0  0  0  0  0
  -11.4990    3.7900   -1.6670 C   0  0  0  0  0  0  0  0  0  0  0  0
  -12.4530    4.6950   -2.8240 Cl  0  0  0  0  0  0  0  0  0  0  0  0
  -11.1460    4.3880   -0.4590 C   0  0  0  0  0  0  0  0  0  0  0  0
  -10.3890    3.6740    0.4650 C   0  0  0  0  0  0  0  0  0  0  0  0
   -0.4780   -2.1840    1.8690 C   0  0  0  0  0  0  0  0  0  0  0  0
    0.7740   -2.7620    1.9110 C   0  0  0  0  0  0  0  0  0  0  0  0
    4.9110   -3.7710    0.3700 C   0  0  0  0  0  0  0  0  0  0  0  0
    5.0960   -5.2250    0.6480 C   0  0  0  0  0  0  0  0  0  0  0  0
    5.9720   -2.9760    0.0500 C   0  0  0  0  0  0  0  0  0  0  0  0
    5.8400   -1.6180   -0.2150 C   0  0  0  0  0  0  0  0  0  0  0  0
    7.0010   -0.7740   -0.5490 C   0  0  0  0  0  0  0  0  0  0  0  0
    7.3520    0.0190    0.7030 C   0  0  1  0  0  0  0  0  0  0  0  0
    7.6540   -0.9220    1.7090 O   0  0  0  0  0  0  0  0  0  0  0  0
    8.5460    0.9010    0.5190 C   0  0  0  0  0  0  0  0  0  0  0  0
    8.3280    1.8570   -0.4530 O   0  0  0  0  0  0  0  0  0  0  0  0
    9.4020    2.6900   -0.6470 C   0  0  1  0  0  0  0  0  0  0  0  0
    9.8150    2.7580   -2.1000 C   0  0  0  0  0  0  0  0  0  0  0  0
   10.1190    4.2390   -1.8560 C   0  0  0  0  0  0  0  0  0  0  0  0
    9.0780    4.1670   -0.7370 C   0  0  0  0  0  0  0  0  0  0  0  0
  1  2  1  0
  2  3  2  0
  2 37  1  0
  3  4  1  0
  4  5  1  0
  4 34  2  0
  5  6  1  0
  6  7  2  0
  6 33  1  0
  7  8  1  0
  8  9  2  0
  9 10  1  0
  9 32  1  0
 10 11  2  3
 11 12  1  0
 11 16  1  0
 12 13  1  0
 13 14  2  0
 13 15  1  0
 15 16  1  0
 16 17  1  1
 17 18  1  0
 18 19  1  0
 19 20  1  1
 19 21  1  0
 21 22  1  0
 22 23  1  0
 23 24  2  0
 23 25  1  0
 25 26  2  0
 25 31  1  0
 26 27  1  0
 27 28  2  0
 28 29  1  0
 28 30  1  0
 30 31  2  0
 32 33  2  0
 34 35  1  0
 34 36  1  0
 36 37  2  0
 37 38  1  0
 38 39  1  0
 39 40  1  1
 39 41  1  0
 41 42  1  0
 43 42  1  6
 43 44  1  0
 43 46  1  0
 44 45  1  0
 45 46  1  0
M  END
