
     RDKit          3D

 46 50  0  0  0  0  0  0  0  0999 V2000
    7.5580   -2.8690   -2.8820 C   0  0  0  0  0  0  0  0  0  0  0  0
    6.6980   -1.6310   -2.5690 C   0  0  0  0  0  0  0  0  0  0  0  0
    6.8950   -1.3000   -1.2600 O   0  0  0  0  0  0  0  0  0  0  0  0
    6.2150   -0.1920   -0.7990 C   0  0  1  0  0  0  0  0  0  0  0  0
    4.7350   -0.3660   -0.9320 C   0  0  0  0  0  0  0  0  0  0  0  0
    3.9530    0.7500   -0.4800 N   0  0  0  0  0  0  0  0  0  0  0  0
    2.5420    0.5170   -0.5980 C   0  0  1  0  0  0  0  0  0  0  0  0
    2.1280   -0.5200    0.3620 C   0  0  0  0  0  0  0  0  0  0  0  0
    2.9470   -1.1640    1.0260 O   0  0  0  0  0  0  0  0  0  0  0  0
    0.7190   -0.7740    0.5210 C   0  0  0  0  0  0  0  0  0  0  0  0
   -0.1800    0.1790    0.1300 C   0  0  0  0  0  0  0  0  0  0  0  0
   -1.4090   -0.2460    0.3680 O   0  0  0  0  0  0  0  0  0  0  0  0
   -1.3630   -1.4360    0.8970 C   0  0  0  0  0  0  0  0  0  0  0  0
   -2.4790   -2.2720    1.3160 C   0  0  0  0  0  0  0  0  0  0  0  0
   -2.2200   -3.4010    1.8330 O   0  0  0  0  0  0  0  0  0  0  0  0
   -3.8380   -1.8740    1.1710 N   0  0  0  0  0  0  0  0  0  0  0  0
   -4.8840   -2.7210    1.6980 C   0  0  0  0  0  0  0  0  0  0  0  0
   -5.1330   -2.4810    3.1330 C   0  0  0  0  0  0  0  0  0  0  0  0
   -6.2760   -2.9650    3.7550 C   0  0  0  0  0  0  0  0  0  0  0  0
   -6.4810   -2.7370    5.1000 C   0  0  0  0  0  0  0  0  0  0  0  0
   -5.5490   -2.0240    5.8350 C   0  0  0  0  0  0  0  0  0  0  0  0
   -5.7710   -1.8120    7.1520 F   0  0  0  0  0  0  0  0  0  0  0  0
   -4.4150   -1.5440    5.2130 C   0  0  0  0  0  0  0  0  0  0  0  0
   -4.2120   -1.7750    3.8680 C   0  0  0  0  0  0  0  0  0  0  0  0
   -4.1700   -0.6800    0.5160 C   0  0  0  0  0  0  0  0  0  0  0  0
   -3.8300   -0.5770   -0.8360 C   0  0  0  0  0  0  0  0  0  0  0  0
   -4.1400    0.5740   -1.5100 C   0  0  0  0  0  0  0  0  0  0  0  0
   -4.7710    1.6170   -0.8870 C   0  0  0  0  0  0  0  0  0  0  0  0
   -5.0750    2.8330   -1.7020 C   0  0  0  0  0  0  0  0  0  0  0  0
   -6.4410    2.6690   -2.2800 C   0  0  0  0  0  0  0  0  0  0  0  0
   -6.6200    1.4790   -3.1720 C   0  0  0  0  0  0  0  0  0  0  0  0
   -5.7890    1.4870   -4.2860 O   0  0  0  0  0  0  0  0  0  0  0  0
   -5.1140    1.5400    0.4380 C   0  0  0  0  0  0  0  0  0  0  0  0
   -4.7980    0.3690    1.1190 C   0  0  0  0  0  0  0  0  0  0  0  0
   -0.0170   -1.8130    1.0130 C   0  0  0  0  0  0  0  0  0  0  0  0
    0.5220   -3.0790    1.5580 C   0  0  0  0  0  0  0  0  0  0  0  0
    0.2100    1.4550   -0.4550 C   0  0  1  0  0  0  0  0  0  0  0  0
   -0.3680    2.4920    0.3160 O   0  0  0  0  0  0  0  0  0  0  0  0
    1.6460    1.6740   -0.7050 C   0  0  2  0  0  0  0  0  0  0  0  0
    1.7940    2.2700   -2.1370 C   0  0  0  0  0  0  0  0  0  0  0  0
    2.0960    2.7900    0.1980 C   0  0  0  0  0  0  0  0  0  0  0  0
    3.4370    3.3620   -0.0840 C   0  0  0  0  0  0  0  0  0  0  0  0
    6.6680   -0.0260    0.6640 C   0  0  0  0  0  0  0  0  0  0  0  0
    8.0280    0.6080    0.4170 C   0  0  0  0  0  0  0  0  0  0  0  0
    7.9640    1.2480   -0.7900 O   0  0  0  0  0  0  0  0  0  0  0  0
    6.7280    1.1060   -1.3590 C   0  0  0  0  0  0  0  0  0  0  0  0
  1  2  1  0
  2  3  1  0
  3  4  1  0
  4  5  1  1
  4 43  1  0
  4 46  1  0
  5  6  1  0
  7  6  1  1
  7  8  1  0
  7 39  1  0
  8  9  2  0
  8 10  1  0
 10 11  2  0
 10 35  1  0
 11 12  1  0
 11 37  1  0
 12 13  1  0
 13 14  1  0
 13 35  2  0
 14 15  2  0
 14 16  1  0
 16 17  1  0
 16 25  1  0
 17 18  1  0
 18 19  2  0
 18 24  1  0
 19 20  1  0
 20 21  2  0
 21 22  1  0
 21 23  1  0
 23 24  2  0
 25 26  2  0
 25 34  1  0
 26 27  1  0
 27 28  2  0
 28 29  1  0
 28 33  1  0
 29 30  1  0
 30 31  1  0
 31 32  1  0
 33 34  2  0
 35 36  1  0
 37 38  1  1
 37 39  1  0
 39 40  1  6
 39 41  1  0
 41 42  1  0
 43 44  1  0
 44 45  1  0
 45 46  1  0
M  END
