
     RDKit          3D

 46 50  0  0  0  0  0  0  0  0999 V2000
   -5.1420   -4.9740    4.4710 C   0  0  0  0  0  0  0  0  0  0  0  0
   -4.0530   -4.3450    3.5980 C   0  0  0  0  0  0  0  0  0  0  0  0
   -4.6860   -3.1780    2.8860 C   0  0  2  0  0  0  0  0  0  0  0  0
   -5.7530   -3.4930    2.0900 O   0  0  0  0  0  0  0  0  0  0  0  0
   -3.6240   -2.3950    2.1810 C   0  0  0  0  0  0  0  0  0  0  0  0
   -2.5830   -2.2030    2.8560 O   0  0  0  0  0  0  0  0  0  0  0  0
   -3.7870   -1.9170    0.8770 N   0  0  0  0  0  0  0  0  0  0  0  0
   -2.8220   -1.1680    0.1660 C   0  0  0  0  0  0  0  0  0  0  0  0
   -1.5750   -0.8300    0.6380 C   0  0  0  0  0  0  0  0  0  0  0  0
   -0.6790   -0.0730   -0.1450 C   0  0  0  0  0  0  0  0  0  0  0  0
   -0.9800    0.3670   -1.4010 C   0  0  0  0  0  0  0  0  0  0  0  0
   -0.0640    1.1510   -2.2640 C   0  0  0  0  0  0  0  0  0  0  0  0
    1.1460    1.4860   -1.8120 O   0  0  0  0  0  0  0  0  0  0  0  0
    2.2960    0.9990   -1.3570 C   0  0  0  0  0  0  0  0  0  0  0  0
    2.3320   -0.3050   -1.3310 O   0  0  0  0  0  0  0  0  0  0  0  0
    3.4610    1.7930   -0.9050 C   0  0  0  0  0  0  0  0  0  0  0  0
    4.4650    2.1790   -1.9090 C   0  0  0  0  0  0  0  0  0  0  0  0
    5.2280    1.0560   -2.5480 C   0  0  0  0  0  0  0  0  0  0  0  0
    6.0240    0.2540   -1.5600 C   0  0  0  0  0  0  0  0  0  0  0  0
    5.6270   -0.9750   -1.0710 C   0  0  0  0  0  0  0  0  0  0  0  0
    6.3780   -1.6600   -0.1330 C   0  0  0  0  0  0  0  0  0  0  0  0
    7.5570   -1.1450    0.3530 C   0  0  0  0  0  0  0  0  0  0  0  0
    8.2670   -1.8680    1.2820 O   0  0  0  0  0  0  0  0  0  0  0  0
    9.4420   -1.5240    1.8810 C   0  0  0  0  0  0  0  0  0  0  0  0
    9.4980   -1.4020    3.2550 C   0  0  0  0  0  0  0  0  0  0  0  0
   10.7120   -1.0460    3.8680 C   0  0  0  0  0  0  0  0  0  0  0  0
   11.8300   -0.8230    3.0930 C   0  0  0  0  0  0  0  0  0  0  0  0
   11.7490   -0.9510    1.7310 C   0  0  0  0  0  0  0  0  0  0  0  0
   10.5640   -1.3000    1.1230 C   0  0  0  0  0  0  0  0  0  0  0  0
   10.5780   -1.4220   -0.2310 F   0  0  0  0  0  0  0  0  0  0  0  0
    7.9620    0.0870   -0.1330 C   0  0  0  0  0  0  0  0  0  0  0  0
    7.2180    0.7700   -1.0650 C   0  0  0  0  0  0  0  0  0  0  0  0
   -2.2400    0.0270   -1.8790 C   0  0  0  0  0  0  0  0  0  0  0  0
   -3.1260   -0.7110   -1.1290 C   0  0  0  0  0  0  0  0  0  0  0  0
   -4.3520   -0.9090   -1.9230 C   0  0  0  0  0  0  0  0  0  0  0  0
   -5.1220   -1.8770   -1.8360 O   0  0  0  0  0  0  0  0  0  0  0  0
   -4.4040    0.2840   -2.8010 C   0  0  1  0  0  0  0  0  0  0  0  0
   -4.7380    1.5090   -2.2420 N   0  0  0  0  0  0  0  0  0  0  0  0
   -5.9810    1.7870   -1.6520 C   0  0  1  0  0  0  0  0  0  0  0  0
   -6.3780    1.0300   -0.4390 C   0  0  0  0  0  0  0  0  0  0  0  0
   -7.6900    1.5550    0.1020 C   0  0  0  0  0  0  0  0  0  0  0  0
   -8.0650    2.7750   -0.4670 O   0  0  0  0  0  0  0  0  0  0  0  0
   -6.9770    3.6400   -0.2640 C   0  0  2  0  0  0  0  0  0  0  0  0
   -7.3760    5.0820   -0.4590 C   0  0  0  0  0  0  0  0  0  0  0  0
   -5.9500    3.2880   -1.2890 C   0  0  0  0  0  0  0  0  0  0  0  0
   -2.8910    0.3670   -3.1970 C   0  0  0  0  0  0  0  0  0  0  0  0
  1  2  1  0
  2  3  1  0
  3  4  1  6
  3  5  1  0
  5  6  2  0
  5  7  1  0
  7  8  1  0
  8  9  2  0
  8 34  1  0
  9 10  1  0
 10 11  2  0
 11 12  1  0
 11 33  1  0
 12 13  1  0
 13 14  1  0
 14 15  2  0
 14 16  1  0
 16 17  1  0
 17 18  1  0
 18 19  1  0
 19 20  2  0
 19 32  1  0
 20 21  1  0
 21 22  2  0
 22 23  1  0
 22 31  1  0
 23 24  1  0
 24 25  2  0
 24 29  1  0
 25 26  1  0
 26 27  2  0
 27 28  1  0
 28 29  2  0
 29 30  1  0
 31 32  2  0
 33 34  2  0
 33 46  1  0
 34 35  1  0
 35 36  2  0
 35 37  1  0
 37 38  1  1
 37 46  1  0
 39 38  1  1
 39 40  1  0
 39 45  1  0
 40 41  1  0
 41 42  1  0
 42 43  1  0
 43 44  1  6
 43 45  1  0
M  END
