
     RDKit          3D

 27 28  0  0  0  0  0  0  0  0999 V2000
   -6.4750    2.5620    1.2900 C   0  0  0  0  0  0  0  0  0  0  0  0
   -6.3030    1.2770    1.5990 C   0  0  0  0  0  0  0  0  0  0  0  0
   -5.4580    0.3820    0.7680 C   0  0  2  0  0  0  0  0  0  0  0  0
   -3.9830    0.5140    1.0650 C   0  0  0  0  0  0  0  0  0  0  0  0
   -3.1560    0.1150   -0.0220 N   0  0  0  0  0  0  0  0  0  0  0  0
   -1.8700   -0.4870    0.2750 C   0  0  0  0  0  0  0  0  0  0  0  0
   -1.8990   -1.8840    0.8150 C   0  0  0  0  0  0  0  0  0  0  0  0
   -0.8130    0.2200    0.0460 C   0  0  0  0  0  0  0  0  0  0  0  0
   -1.0330    1.6280   -0.5200 C   0  0  0  0  0  0  0  0  0  0  0  0
    0.5620   -0.0590    0.2590 C   0  0  0  0  0  0  0  0  0  0  0  0
    1.4820    0.8030   -0.0680 O   0  0  0  0  0  0  0  0  0  0  0  0
    1.1660   -1.1790    0.8080 N   0  0  0  0  0  0  0  0  0  0  0  0
    2.5810   -1.3060    0.8720 C   0  0  0  0  0  0  0  0  0  0  0  0
    2.9960   -2.0550    1.7140 N   0  0  0  0  0  0  0  0  0  0  0  0
    4.6670   -2.2330    1.8660 S   0  0  2  0  0  0  0  0  0  0  0  0
    5.0850   -3.4310    1.1100 O   0  0  0  0  0  0  0  0  0  0  0  0
    5.1180   -2.0980    3.2570 O   0  0  0  0  0  0  0  0  0  0  0  0
    5.2490   -0.7940    0.9100 C   0  0  1  0  0  0  0  0  0  0  0  0
    6.5940   -1.0550    0.3530 C   0  0  0  0  0  0  0  0  0  0  0  0
    7.0220    0.1710   -0.4260 C   0  0  0  0  0  0  0  0  0  0  0  0
    8.2820    0.0230   -0.9930 O   0  0  0  0  0  0  0  0  0  0  0  0
    8.5590    1.2080   -1.6770 C   0  0  0  0  0  0  0  0  0  0  0  0
    3.9330   -0.9590   -0.3190 S   0  0  0  0  0  0  0  0  0  0  0  0
   -3.5680    0.2850   -1.3750 C   0  0  0  0  0  0  0  0  0  0  0  0
   -5.0200   -0.2260   -1.4290 C   0  0  2  0  0  0  0  0  0  0  0  0
   -5.5750   -0.0460   -2.8260 C   0  0  0  0  0  0  0  0  0  0  0  0
   -5.7560    0.5730   -0.5670 O   0  0  0  0  0  0  0  0  0  0  0  0
  1  2  2  0
  3  2  1  1
  3  4  1  0
  3 27  1  0
  4  5  1  0
  5  6  1  0
  5 24  1  0
  6  7  1  0
  6  8  2  3
  8  9  1  0
  8 10  1  0
 10 11  2  0
 10 12  1  0
 12 13  1  0
 13 14  2  0
 13 23  1  0
 15 14  1  1
 15 16  2  0
 15 17  2  0
 15 18  1  0
 18 19  1  6
 18 23  1  0
 19 20  1  0
 20 21  1  0
 21 22  1  0
 24 25  1  0
 25 26  1  6
 25 27  1  0
M  END
