
     RDKit          3D

 28 29  0  0  0  0  0  0  0  0999 V2000
   -3.5740    2.7720    3.0520 C   0  0  0  0  0  0  0  0  0  0  0  0
   -3.8070    1.4920    2.4750 O   0  0  0  0  0  0  0  0  0  0  0  0
   -2.7270    0.6700    2.1550 C   0  0  0  0  0  0  0  0  0  0  0  0
   -1.5830    1.1280    2.4060 O   0  0  0  0  0  0  0  0  0  0  0  0
   -2.9060   -0.6750    1.5510 C   0  0  0  0  0  0  0  0  0  0  0  0
   -2.6480   -0.6630    0.0580 C   0  0  2  0  0  0  0  0  0  0  0  0
   -2.8580   -2.0680   -0.4400 C   0  0  0  0  0  0  0  0  0  0  0  0
   -2.6090   -2.2890   -2.1930 S   0  0  0  0  0  0  0  0  0  0  0  0
   -3.8110   -1.4500   -3.2130 C   0  0  0  0  0  0  0  0  0  0  0  0
   -1.3080   -0.1860   -0.1420 N   0  0  0  0  0  0  0  0  0  0  0  0
   -0.1350   -0.8610    0.3500 C   0  0  0  0  0  0  0  0  0  0  0  0
    1.1640   -0.2190    0.0210 C   0  0  2  0  0  0  0  0  0  0  0  0
    1.5010   -0.1790   -1.4520 C   0  0  0  0  0  0  0  0  0  0  0  0
    2.6130    0.6840   -1.5630 O   0  0  0  0  0  0  0  0  0  0  0  0
    3.7300    0.3380   -0.7620 C   0  0  0  0  0  0  0  0  0  0  0  0
    4.9140    0.8200   -1.0630 C   0  0  0  0  0  0  0  0  0  0  0  0
    5.0690    1.8780   -2.4480 Cl  0  0  0  0  0  0  0  0  0  0  0  0
    3.5470   -0.5440    0.3770 C   0  0  0  0  0  0  0  0  0  0  0  0
    4.5290   -0.9160    1.1720 C   0  0  0  0  0  0  0  0  0  0  0  0
    4.3320   -1.8190    2.3350 C   0  0  0  0  0  0  0  0  0  0  0  0
    5.1440   -3.0310    2.1850 N   0  0  0  0  0  0  0  0  0  0  0  0
    2.2290   -0.9980    0.5990 O   0  0  0  0  0  0  0  0  0  0  0  0
   -1.1550    1.0370   -0.8610 C   0  0  0  0  0  0  0  0  0  0  0  0
   -0.4740    2.0540   -0.5710 N   0  0  0  0  0  0  0  0  0  0  0  0
   -0.4720    3.1370   -1.4200 C   0  0  0  0  0  0  0  0  0  0  0  0
   -0.1470    4.3230   -1.0690 O   0  0  0  0  0  0  0  0  0  0  0  0
   -0.8820    2.8510   -2.8190 C   0  0  0  0  0  0  0  0  0  0  0  0
   -1.9590    1.4030   -2.4390 S   0  0  0  0  0  0  0  0  0  0  0  0
  1  2  1  0
  2  3  1  0
  3  4  2  0
  3  5  1  0
  6  5  1  1
  6  7  1  0
  6 10  1  0
  7  8  1  0
  8  9  1  0
 10 11  1  0
 10 23  1  0
 12 11  1  6
 12 13  1  0
 12 22  1  0
 13 14  1  0
 14 15  1  0
 15 16  2  3
 15 18  1  0
 16 17  1  0
 18 19  2  3
 18 22  1  0
 19 20  1  0
 20 21  1  0
 23 24  2  0
 23 28  1  0
 24 25  1  0
 25 26  2  0
 25 27  1  0
 27 28  1  0
M  END
