
     RDKit          3D

 27 29  0  0  0  0  0  0  0  0999 V2000
    0.6270    0.9090   -0.8440 O   0  0  0  0  0  0  0  0  0  0  0  0
    1.2050    0.2660    0.0640 C   0  0  0  0  0  0  0  0  0  0  0  0
    2.0220   -0.9340   -0.2490 C   0  0  0  0  0  0  0  0  0  0  0  0
    3.3790   -0.4470   -0.6910 C   0  0  1  0  0  0  0  0  0  0  0  0
    4.1470    0.5110    0.6350 S   0  0  0  0  0  0  0  0  0  0  0  0
    5.9100    0.5030    0.3390 C   0  0  0  0  0  0  0  0  0  0  0  0
    6.6820    1.4680    0.9260 N   0  0  0  0  0  0  0  0  0  0  0  0
    8.0070    1.5030    0.7420 C   0  0  0  0  0  0  0  0  0  0  0  0
    8.5440    0.5210   -0.0630 C   0  0  0  0  0  0  0  0  0  0  0  0
    7.8090   -0.4290   -0.6440 N   0  0  0  0  0  0  0  0  0  0  0  0
    6.4560   -0.4560   -0.4510 C   0  0  0  0  0  0  0  0  0  0  0  0
    5.6750   -1.4670   -1.0780 N   0  0  0  0  0  0  0  0  0  0  0  0
    4.2890   -1.5920   -0.9610 C   0  0  0  0  0  0  0  0  0  0  0  0
    3.7570   -2.7240   -1.0870 O   0  0  0  0  0  0  0  0  0  0  0  0
    1.0880    0.6710    1.3820 O   0  0  0  0  0  0  0  0  0  0  0  0
    0.3210    1.7970    1.6840 C   0  0  0  0  0  0  0  0  0  0  0  0
   -1.0980    1.5980    1.2480 C   0  0  0  0  0  0  0  0  0  0  0  0
   -1.9750    2.4760    1.4130 O   0  0  0  0  0  0  0  0  0  0  0  0
   -1.5030    0.4150    0.6340 O   0  0  0  0  0  0  0  0  0  0  0  0
   -2.8530    0.2270    0.2200 C   0  0  2  0  0  0  0  0  0  0  0  0
   -3.4270   -0.9600    0.9500 C   0  0  0  0  0  0  0  0  0  0  0  0
   -4.5960   -1.5890    0.2820 C   0  0  0  0  0  0  0  0  0  0  0  0
   -5.9110   -0.9520    0.6360 C   0  0  0  0  0  0  0  0  0  0  0  0
   -6.4850   -0.2530   -0.5980 C   0  0  0  0  0  0  0  0  0  0  0  0
   -5.6910    1.0020   -0.9090 C   0  0  0  0  0  0  0  0  0  0  0  0
   -4.3770    0.6040   -2.0600 S   0  0  0  0  0  0  0  0  0  0  0  0
   -2.8520    0.0630   -1.2660 C   0  0  0  0  0  0  0  0  0  0  0  0
  1  2  2  0
  2  3  1  0
  2 15  1  0
  4  3  1  1
  4  5  1  0
  4 13  1  0
  5  6  1  0
  6  7  2  0
  6 11  1  0
  7  8  1  0
  8  9  2  0
  9 10  1  0
 10 11  2  0
 11 12  1  0
 12 13  1  0
 13 14  2  0
 15 16  1  0
 16 17  1  0
 17 18  2  0
 17 19  1  0
 20 19  1  1
 20 21  1  0
 20 27  1  0
 21 22  1  0
 22 23  1  0
 23 24  1  0
 24 25  1  0
 25 26  1  0
 26 27  1  0
M  END
