
     RDKit          3D

 21 22  0  0  0  0  0  0  0  0999 V2000
   -2.5100    2.1950   -0.3720 N   0  0  0  0  0  0  0  0  0  0  0  0
   -2.4660    1.0200    0.4740 C   0  0  0  0  0  0  0  0  0  0  0  0
   -1.1770    0.2940    0.2010 C   0  0  2  0  0  0  0  0  0  0  0  0
   -1.1510   -0.0640   -1.1310 O   0  0  0  0  0  0  0  0  0  0  0  0
   -2.0500   -1.0970   -1.2830 C   0  0  2  0  0  0  0  0  0  0  0  0
   -3.2890   -0.7100   -1.7470 O   0  0  0  0  0  0  0  0  0  0  0  0
   -2.1370   -1.8390    0.0180 C   0  0  2  0  0  0  0  0  0  0  0  0
   -3.4010   -1.8850    0.5550 O   0  0  0  0  0  0  0  0  0  0  0  0
   -1.1500   -1.0730    0.8820 C   0  0  2  0  0  0  0  0  0  0  0  0
   -1.5370   -1.0070    2.2020 O   0  0  0  0  0  0  0  0  0  0  0  0
    0.2000   -1.6970    0.6720 C   0  0  0  0  0  0  0  0  0  0  0  0
    0.6540   -1.3700   -0.5840 O   0  0  0  0  0  0  0  0  0  0  0  0
    1.8420   -1.9660   -0.9390 C   0  0  0  0  0  0  0  0  0  0  0  0
    3.0470   -1.3790   -0.2670 C   0  0  0  0  0  0  0  0  0  0  0  0
    3.4570   -0.1940   -0.8730 O   0  0  0  0  0  0  0  0  0  0  0  0
    3.6410    0.8330    0.0480 C   0  0  0  0  0  0  0  0  0  0  0  0
    2.9900    2.0840   -0.5130 C   0  0  0  0  0  0  0  0  0  0  0  0
    1.8460    2.4000    0.1780 O   0  0  0  0  0  0  0  0  0  0  0  0
    0.6850    1.8610   -0.4270 C   0  0  0  0  0  0  0  0  0  0  0  0
   -0.0410    1.1210    0.6580 C   0  0  1  0  0  0  0  0  0  0  0  0
   -0.5050    2.0830    1.5710 O   0  0  0  0  0  0  0  0  0  0  0  0
  1  2  1  0
  3  2  1  6
  3  4  1  0
  3  9  1  0
  3 20  1  0
  4  5  1  0
  5  6  1  1
  5  7  1  0
  7  8  1  1
  7  9  1  0
  9 10  1  1
  9 11  1  0
 11 12  1  0
 12 13  1  0
 13 14  1  0
 14 15  1  0
 15 16  1  0
 16 17  1  0
 17 18  1  0
 18 19  1  0
 19 20  1  0
 20 21  1  1
M  CHG  1   1   1
M  END
