
     RDKit          3D

 19 19  0  0  0  0  0  0  0  0999 V2000
   -7.5860   -0.0590    1.4630 C   0  0  0  0  0  0  0  0  0  0  0  0
   -6.2770   -0.2090    0.9710 O   0  0  0  0  0  0  0  0  0  0  0  0
   -5.9530   -0.8610   -0.1970 C   0  0  0  0  0  0  0  0  0  0  0  0
   -6.9140   -1.3540   -0.8630 O   0  0  0  0  0  0  0  0  0  0  0  0
   -4.5760   -0.9800   -0.6500 C   0  0  0  0  0  0  0  0  0  0  0  0
   -3.5450   -0.4860    0.0040 C   0  0  0  0  0  0  0  0  0  0  0  0
   -3.7580    0.2410    1.2790 C   0  0  0  0  0  0  0  0  0  0  0  0
   -2.1890   -0.6650   -0.5460 C   0  0  0  0  0  0  0  0  0  0  0  0
   -1.5070    0.6590   -0.8260 C   0  0  0  0  0  0  0  0  0  0  0  0
   -0.1510    0.3940   -1.3760 C   0  0  0  0  0  0  0  0  0  0  0  0
    0.9520    0.8270   -0.7680 C   0  0  0  0  0  0  0  0  0  0  0  0
    0.8430    1.5960    0.4930 C   0  0  0  0  0  0  0  0  0  0  0  0
    2.2930    0.5450   -1.3450 C   0  0  0  0  0  0  0  0  0  0  0  0
    3.0780   -0.2460   -0.3400 C   0  0  0  0  0  0  0  0  0  0  0  0
    4.4600   -0.6020   -0.7960 C   0  0  1  0  0  0  0  0  0  0  0  0
    5.3750    0.3780   -1.1200 O   0  0  0  0  0  0  0  0  0  0  0  0
    5.6100   -0.2720    0.0720 C   0  0  1  0  0  0  0  0  0  0  0  0
    5.4380    0.5940    1.2970 C   0  0  0  0  0  0  0  0  0  0  0  0
    6.6790   -1.3130    0.1930 C   0  0  0  0  0  0  0  0  0  0  0  0
  1  2  1  0
  2  3  1  0
  3  4  2  0
  3  5  1  0
  5  6  2  3
  6  7  1  0
  6  8  1  0
  8  9  1  0
  9 10  1  0
 10 11  2  3
 11 12  1  0
 11 13  1  0
 13 14  1  0
 15 14  1  1
 15 16  1  0
 15 17  1  0
 16 17  1  0
 17 18  1  1
 17 19  1  0
M  END
