
     RDKit          3D

 14 14  0  0  0  0  0  0  0  0999 V2000
   -4.2540    1.0750   -0.0850 C   0  0  0  0  0  0  0  0  0  0  0  0
   -3.3970   -0.0410    0.2530 N   0  0  0  0  0  0  0  0  0  0  0  0
   -2.2290    0.0260   -0.6010 C   0  0  1  0  0  0  0  0  0  0  0  0
   -1.4980    1.3160   -0.2970 C   0  0  0  0  0  0  0  0  0  0  0  0
   -0.1730    0.9200   -0.1330 O   0  0  0  0  0  0  0  0  0  0  0  0
   -0.3110   -0.1960    0.6620 C   0  0  2  0  0  0  0  0  0  0  0  0
    0.9500   -0.7970    1.1340 C   0  0  0  0  0  0  0  0  0  0  0  0
    1.8730   -1.2420    0.1330 N   0  0  0  0  0  0  0  0  0  0  0  0
    3.1850   -0.6240    0.3060 C   0  0  0  0  0  0  0  0  0  0  0  0
    3.4550    0.3530   -0.7880 C   0  0  0  0  0  0  0  0  0  0  0  0
    4.6730    1.0810   -0.8270 N   0  0  0  0  0  0  0  0  0  0  0  0
    2.6190    0.5590   -1.6990 O   0  0  0  0  0  0  0  0  0  0  0  0
   -1.2200   -1.0520   -0.1570 C   0  0  2  0  0  0  0  0  0  0  0  0
   -0.6740   -1.5640   -1.3050 O   0  0  0  0  0  0  0  0  0  0  0  0
  1  2  1  0
  3  2  1  1
  3  4  1  0
  3 13  1  0
  4  5  1  0
  5  6  1  0
  6  7  1  6
  6 13  1  0
  7  8  1  0
  8  9  1  0
  9 10  1  0
 10 11  1  0
 10 12  2  0
 13 14  1  6
M  CHG  1   8   1
M  END
