
     RDKit          3D

 15 14  0  0  0  0  0  0  0  0999 V2000
    2.8010    2.0680   -0.5190 C   0  0  0  0  0  0  0  0  0  0  0  0
    2.5690    0.7770   -0.3930 C   0  0  0  0  0  0  0  0  0  0  0  0
    3.6590   -0.0640   -0.0250 N   0  0  0  0  0  0  0  0  0  0  0  0
    1.1910    0.2520   -0.6370 C   0  0  1  0  0  0  0  0  0  0  0  0
    1.3070   -0.7130   -1.6330 O   0  0  0  0  0  0  0  0  0  0  0  0
    0.4930   -0.1860    0.5940 C   0  0  2  0  0  0  0  0  0  0  0  0
    1.1460   -1.2890    1.3680 C   0  0  0  0  0  0  0  0  0  0  0  0
    1.3150   -2.4720    0.7050 O   0  0  0  0  0  0  0  0  0  0  0  0
   -0.9600   -0.5240    0.3850 C   0  0  2  0  0  0  0  0  0  0  0  0
   -1.1250   -1.5860   -0.5590 N   0  0  0  0  0  0  0  0  0  0  0  0
   -1.7610    0.5870   -0.0110 N   0  0  0  0  0  0  0  0  0  0  0  0
   -3.0200    0.4710   -0.1240 C   0  0  0  0  0  0  0  0  0  0  0  0
   -3.6560   -0.7400    0.1330 O   0  0  0  0  0  0  0  0  0  0  0  0
   -3.9090    1.6120   -0.5380 C   0  0  0  0  0  0  0  0  0  0  0  0
   -4.8100    1.8270    0.5020 O   0  0  0  0  0  0  0  0  0  0  0  0
  1  2  2  0
  2  3  1  0
  2  4  1  0
  4  5  1  6
  4  6  1  0
  6  7  1  6
  6  9  1  0
  7  8  1  0
  9 10  1  6
  9 11  1  0
 11 12  2  3
 12 13  1  0
 12 14  1  0
 14 15  1  0
M  CHG  1   3   1
M  END
