
     RDKit          3D

 15 15  0  0  0  0  0  0  0  0999 V2000
   -3.4290    1.7600    0.4660 C   0  0  0  0  0  0  0  0  0  0  0  0
   -2.8970    0.9910   -0.6240 O   0  0  0  0  0  0  0  0  0  0  0  0
   -1.7540    0.2290   -0.4310 C   0  0  0  0  0  0  0  0  0  0  0  0
   -0.5430    0.6710   -0.1500 C   0  0  0  0  0  0  0  0  0  0  0  0
    0.3580   -0.4650   -0.0300 C   0  0  2  0  0  0  0  0  0  0  0  0
    1.7490   -0.1860   -0.4370 C   0  0  0  0  0  0  0  0  0  0  0  0
    2.2980   -0.8170   -1.3670 O   0  0  0  0  0  0  0  0  0  0  0  0
    2.5070    0.8180    0.2250 N   0  0  0  0  0  0  0  0  0  0  0  0
    3.8540    1.1190   -0.1370 C   0  0  0  0  0  0  0  0  0  0  0  0
    4.5770    2.1320    0.5510 N   0  0  0  0  0  0  0  0  0  0  0  0
    4.4190    0.4930   -1.0700 O   0  0  0  0  0  0  0  0  0  0  0  0
   -0.2920   -1.5170   -0.8980 C   0  0  1  0  0  0  0  0  0  0  0  0
    0.0960   -2.7990   -0.5960 O   0  0  0  0  0  0  0  0  0  0  0  0
   -1.7610   -1.2570   -0.5250 C   0  0  1  0  0  0  0  0  0  0  0  0
   -2.0350   -1.8950    0.7320 N   0  0  0  0  0  0  0  0  0  0  0  0
  1  2  1  0
  2  3  1  0
  3  4  2  0
  3 14  1  0
  4  5  1  0
  5  6  1  6
  5 12  1  0
  6  7  2  0
  6  8  1  0
  8  9  1  0
  9 10  1  0
  9 11  2  0
 12 13  1  1
 12 14  1  0
 14 15  1  1
M  CHG  1  15   1
M  END
