
     RDKit          3D

 15 15  0  0  0  0  0  0  0  0999 V2000
    4.0400   -1.3460    0.5150 N   0  0  0  0  0  0  0  0  0  0  0  0
    2.6580   -1.1080    0.7740 C   0  0  0  0  0  0  0  0  0  0  0  0
    2.1270   -1.8060    1.6730 O   0  0  0  0  0  0  0  0  0  0  0  0
    1.8840   -0.0680    0.0030 C   0  0  0  0  0  0  0  0  0  0  0  0
    0.6120   -0.0820    0.4770 O   0  0  0  0  0  0  0  0  0  0  0  0
   -0.3010    0.7670   -0.0540 C   0  0  1  0  0  0  0  0  0  0  0  0
   -0.0290    2.1980    0.0530 C   0  0  0  0  0  0  0  0  0  0  0  0
    1.0740    2.8180    0.6510 N   0  0  0  0  0  0  0  0  0  0  0  0
   -0.9040    2.9740   -0.4630 O   0  0  0  0  0  0  0  0  0  0  0  0
   -0.7090    0.4180   -1.4760 C   0  0  0  0  0  0  0  0  0  0  0  0
   -1.6060   -0.7870   -1.3230 C   0  0  0  0  0  0  0  0  0  0  0  0
   -1.8690   -0.9400    0.1660 C   0  0  2  0  0  0  0  0  0  0  0  0
   -3.1800   -1.4120    0.4630 N   0  0  0  0  0  0  0  0  0  0  0  0
   -1.6070    0.4450    0.6470 C   0  0  0  0  0  0  0  0  0  0  0  0
   -2.2490    1.1470    1.3970 O   0  0  0  0  0  0  0  0  0  0  0  0
  1  2  1  0
  2  3  2  0
  2  4  1  0
  4  5  1  0
  6  5  1  1
  6  7  1  0
  6 10  1  0
  6 14  1  0
  7  8  1  0
  7  9  2  0
 10 11  1  0
 11 12  1  0
 12 13  1  6
 12 14  1  0
 14 15  2  0
M  CHG  1  13   1
M  END
