
     RDKit          3D

 15 15  0  0  0  0  0  0  0  0999 V2000
    0.9620    2.8420    0.6420 N   0  0  0  0  0  0  0  0  0  0  0  0
   -0.0690    1.9210    0.4900 C   0  0  0  0  0  0  0  0  0  0  0  0
   -1.2320    2.5300    0.5870 O   0  0  0  0  0  0  0  0  0  0  0  0
   -0.1340    0.5300    0.2640 C   0  0  0  0  0  0  0  0  0  0  0  0
    0.8760   -0.2850    0.1180 C   0  0  0  0  0  0  0  0  0  0  0  0
    2.2340    0.0830    0.1620 C   0  0  0  0  0  0  0  0  0  0  0  0
    3.1950   -0.9890   -0.0130 N   0  0  0  0  0  0  0  0  0  0  0  0
    2.7260    1.1810    0.3290 O   0  0  0  0  0  0  0  0  0  0  0  0
    0.4770   -1.7530   -0.1490 C   0  0  0  0  0  0  0  0  0  0  0  0
   -0.6570   -1.8260   -1.1270 C   0  0  0  0  0  0  0  0  0  0  0  0
   -1.4690   -0.6820   -1.1380 O   0  0  0  0  0  0  0  0  0  0  0  0
   -1.4490   -0.2060    0.1720 C   0  0  2  0  0  0  0  0  0  0  0  0
   -2.6220    0.5430    0.5550 C   0  0  0  0  0  0  0  0  0  0  0  0
   -3.5930    0.8250   -0.4280 N   0  0  0  0  0  0  0  0  0  0  0  0
   -2.8570    0.9760    1.7130 O   0  0  0  0  0  0  0  0  0  0  0  0
  1  2  1  0
  2  3  2  0
  2  4  1  0
  4  5  2  0
  4 12  1  0
  5  6  1  0
  5  9  1  0
  6  7  1  0
  6  8  2  0
  9 10  1  0
 10 11  1  0
 11 12  1  0
 12 13  1  6
 13 14  1  0
 13 15  2  0
M  CHG  1   7   1
M  END
