
     RDKit          3D

 14 14  0  0  0  0  0  0  0  0999 V2000
    3.6700    0.6950   -0.5980 N   0  0  0  0  0  0  0  0  0  0  0  0
    3.1960    0.0260    0.6070 C   0  0  0  0  0  0  0  0  0  0  0  0
    1.7690   -0.3070    0.3910 C   0  0  0  0  0  0  0  0  0  0  0  0
    0.8310    0.8170    0.1330 C   0  0  0  0  0  0  0  0  0  0  0  0
   -0.5380    0.2220   -0.0500 C   0  0  2  0  0  0  0  0  0  0  0  0
   -0.6260   -0.6650   -1.0940 O   0  0  0  0  0  0  0  0  0  0  0  0
   -1.7290   -1.4580   -0.9240 C   0  0  0  0  0  0  0  0  0  0  0  0
   -2.9850   -0.7980   -0.5530 C   0  0  0  0  0  0  0  0  0  0  0  0
   -2.9070    0.5510    0.0520 C   0  0  1  0  0  0  0  0  0  0  0  0
   -2.9080    0.4620    1.4630 O   0  0  0  0  0  0  0  0  0  0  0  0
   -1.6010    1.2730   -0.2980 C   0  0  1  0  0  0  0  0  0  0  0  0
   -1.3940    2.3670    0.5140 O   0  0  0  0  0  0  0  0  0  0  0  0
    1.4090   -1.5300    0.4360 N   0  0  0  0  0  0  0  0  0  0  0  0
    2.2830   -2.5370    0.6730 O   0  0  0  0  0  0  0  0  0  0  0  0
  1  2  1  0
  2  3  1  0
  3  4  1  0
  3 13  2  3
  5  4  1  6
  5  6  1  0
  5 11  1  0
  6  7  1  0
  7  8  1  0
  8  9  1  0
  9 10  1  1
  9 11  1  0
 11 12  1  1
 13 14  1  0
M  CHG  1   1   1
M  END
