
     RDKit          3D

 26 29  0  0  0  0  0  0  0  0999 V2000
   -4.7710    1.9670    0.5990 O   0  0  0  0  0  0  0  0  0  0  0  0
   -3.6070    1.5870    1.2400 C   0  0  2  0  0  0  0  0  0  0  0  0
   -2.8490    2.7910    1.7550 C   0  0  0  0  0  0  0  0  0  0  0  0
   -1.8380    3.2720    0.7340 C   0  0  0  0  0  0  0  0  0  0  0  0
   -0.7980    2.1890    0.4500 C   0  0  0  0  0  0  0  0  0  0  0  0
   -1.3660    0.8160    0.7580 C   0  0  2  0  0  0  0  0  0  0  0  0
   -0.4900   -0.2160    0.3480 N   0  0  0  0  0  0  0  0  0  0  0  0
    0.7730   -0.1700    1.0550 C   0  0  0  0  0  0  0  0  0  0  0  0
    1.9340    0.1730    0.1570 C   0  0  0  0  0  0  0  0  0  0  0  0
    2.1090   -0.7490   -0.9210 N   0  0  0  0  0  0  0  0  0  0  0  0
    3.1900   -1.6710   -0.7700 C   0  0  0  0  0  0  0  0  0  0  0  0
    4.5140   -1.0360   -0.6640 C   0  0  0  0  0  0  0  0  0  0  0  0
    4.7460    0.2980   -0.9070 C   0  0  0  0  0  0  0  0  0  0  0  0
    5.9990    0.8690   -0.7970 C   0  0  0  0  0  0  0  0  0  0  0  0
    7.0680    0.0870   -0.4300 C   0  0  0  0  0  0  0  0  0  0  0  0
    6.8090   -1.2520   -0.1920 C   0  0  0  0  0  0  0  0  0  0  0  0
    5.5770   -1.7800   -0.3070 N   0  0  0  0  0  0  0  0  0  0  0  0
    0.8530   -1.3960   -1.2220 C   0  0  0  0  0  0  0  0  0  0  0  0
   -0.2370   -0.3270   -1.0550 C   0  0  0  0  0  0  0  0  0  0  0  0
   -2.7450    0.7900    0.2420 C   0  0  1  0  0  0  0  0  0  0  0  0
   -3.3790   -0.4940    0.0490 C   0  0  0  0  0  0  0  0  0  0  0  0
   -3.9740   -0.7500   -1.1840 C   0  0  0  0  0  0  0  0  0  0  0  0
   -4.6040   -1.9180   -1.4950 C   0  0  0  0  0  0  0  0  0  0  0  0
   -4.6690   -2.9140   -0.5520 C   0  0  0  0  0  0  0  0  0  0  0  0
   -4.0710   -2.6470    0.6750 C   0  0  0  0  0  0  0  0  0  0  0  0
   -3.4620   -1.4830    0.9370 N   0  0  0  0  0  0  0  0  0  0  0  0
  2  1  1  6
  2  3  1  0
  2 20  1  0
  3  4  1  0
  4  5  1  0
  5  6  1  0
  6  7  1  6
  6 20  1  0
  7  8  1  0
  7 19  1  0
  8  9  1  0
  9 10  1  0
 10 11  1  0
 10 18  1  0
 11 12  1  0
 12 13  2  0
 12 17  1  0
 13 14  1  0
 14 15  2  0
 15 16  1  0
 16 17  2  0
 18 19  1  0
 20 21  1  1
 21 22  2  0
 21 26  1  0
 22 23  1  0
 23 24  2  0
 24 25  1  0
 25 26  2  0
M  CHG  2  17   1  26   1
M  END
