
     RDKit          3D

 26 29  0  0  0  0  0  0  0  0999 V2000
    8.1740   -2.3420   -4.2630 N   0  0  0  0  0  0  0  0  0  0  0  0
    7.1720   -1.7410   -3.9600 C   0  0  0  0  0  0  0  0  0  0  0  0
    5.9690   -1.0310   -3.6220 C   0  0  0  0  0  0  0  0  0  0  0  0
    6.2180    0.0760   -2.6180 C   0  0  0  0  0  0  0  0  0  0  0  0
    5.0350    0.8550   -2.2070 C   0  0  0  0  0  0  0  0  0  0  0  0
    3.9730    0.0810   -1.5000 C   0  0  0  0  0  0  0  0  0  0  0  0
    4.1230   -1.1520   -1.3030 O   0  0  0  0  0  0  0  0  0  0  0  0
    2.7880    0.6900   -1.0340 N   0  0  0  0  0  0  0  0  0  0  0  0
    1.7190    0.0790   -0.3620 C   0  0  0  0  0  0  0  0  0  0  0  0
    1.5320   -1.2770   -0.3050 C   0  0  0  0  0  0  0  0  0  0  0  0
    0.4570   -1.8210    0.4100 C   0  0  0  0  0  0  0  0  0  0  0  0
   -0.4350   -0.9450    1.0740 C   0  0  0  0  0  0  0  0  0  0  0  0
   -0.2730    0.3890    1.0310 C   0  0  0  0  0  0  0  0  0  0  0  0
    0.8100    0.9120    0.3100 C   0  0  0  0  0  0  0  0  0  0  0  0
   -1.2110    1.3140    1.7010 C   0  0  0  0  0  0  0  0  0  0  0  0
   -1.9040    0.6540    2.7470 N   0  0  0  0  0  0  0  0  0  0  0  0
   -2.9090    1.5110    3.3690 C   0  0  0  0  0  0  0  0  0  0  0  0
   -3.8820    1.9780    2.3320 C   0  0  0  0  0  0  0  0  0  0  0  0
   -4.3400    0.8670    1.5020 C   0  0  0  0  0  0  0  0  0  0  0  0
   -5.4580    1.0280    0.6960 C   0  0  0  0  0  0  0  0  0  0  0  0
   -5.9380    0.0610   -0.0750 N   0  0  0  0  0  0  0  0  0  0  0  0
   -5.3640   -1.1500   -0.1240 C   0  0  0  0  0  0  0  0  0  0  0  0
   -4.2310   -1.3460    0.6800 C   0  0  0  0  0  0  0  0  0  0  0  0
   -3.7080   -0.3620    1.4910 C   0  0  0  0  0  0  0  0  0  0  0  0
   -2.5060   -0.5990    2.3330 C   0  0  1  0  0  0  0  0  0  0  0  0
   -1.5260   -1.5880    1.8390 C   0  0  0  0  0  0  0  0  0  0  0  0
  1  2  3  0
  2  3  1  0
  3  4  1  0
  4  5  1  0
  5  6  1  0
  6  7  2  0
  6  8  1  0
  8  9  1  0
  9 10  2  0
  9 14  1  0
 10 11  1  0
 11 12  2  0
 12 13  1  0
 12 26  1  0
 13 14  2  0
 13 15  1  0
 15 16  1  0
 16 17  1  0
 16 25  1  0
 17 18  1  0
 18 19  1  0
 19 20  2  0
 19 24  1  0
 20 21  1  0
 21 22  2  0
 22 23  1  0
 23 24  2  0
 24 25  1  0
 25 26  1  6
M  CHG  1  21   1
M  END
