
     RDKit          3D

 26 28  0  0  0  0  0  0  0  0999 V2000
   -0.2760   -4.5260   -1.2990 C   0  0  0  0  0  0  0  0  0  0  0  0
    0.5170   -3.3770   -0.8900 C   0  0  0  0  0  0  0  0  0  0  0  0
    0.0830   -2.2770   -0.3760 C   0  0  0  0  0  0  0  0  0  0  0  0
    1.0100   -1.2180   -0.0300 N   0  0  0  0  0  0  0  0  0  0  0  0
    0.5210   -0.0280    0.5420 C   0  0  0  0  0  0  0  0  0  0  0  0
    1.4050    0.8730    0.8840 N   0  0  0  0  0  0  0  0  0  0  0  0
    2.8120    0.6610    0.6850 C   0  0  0  0  0  0  0  0  0  0  0  0
    3.5780   -0.2510    1.5390 C   0  0  0  0  0  0  0  0  0  0  0  0
    3.3710    1.3240   -0.2960 C   0  0  0  0  0  0  0  0  0  0  0  0
    4.7300    1.3330   -0.7470 C   0  0  0  0  0  0  0  0  0  0  0  0
    5.8730    0.5900   -0.2150 C   0  0  0  0  0  0  0  0  0  0  0  0
    4.9990    2.0920   -1.7540 O   0  0  0  0  0  0  0  0  0  0  0  0
   -0.9120    0.2020    0.7510 C   0  0  1  0  0  0  0  0  0  0  0  0
   -1.2770    1.6370    0.7680 C   0  0  0  0  0  0  0  0  0  0  0  0
   -1.8330    2.1860    1.9050 C   0  0  0  0  0  0  0  0  0  0  0  0
   -2.1870    3.4790    1.9880 N   0  0  0  0  0  0  0  0  0  0  0  0
   -2.0030    4.2930    0.9370 C   0  0  0  0  0  0  0  0  0  0  0  0
   -1.4530    3.7880   -0.2100 C   0  0  0  0  0  0  0  0  0  0  0  0
   -1.2290    4.6620   -1.4110 C   0  0  0  0  0  0  0  0  0  0  0  0
   -1.0860    2.4560   -0.3030 C   0  0  0  0  0  0  0  0  0  0  0  0
   -1.7380   -0.5760   -0.2580 C   0  0  2  0  0  0  0  0  0  0  0  0
   -3.2150   -0.4290    0.0390 C   0  0  0  0  0  0  0  0  0  0  0  0
   -3.8920   -1.6460   -0.3260 N   0  0  0  0  0  0  0  0  0  0  0  0
   -3.5250   -2.6610    0.6660 C   0  0  0  0  0  0  0  0  0  0  0  0
   -2.0800   -2.9630    0.3700 C   0  0  0  0  0  0  0  0  0  0  0  0
   -1.3250   -1.9870   -0.0790 C   0  0  0  0  0  0  0  0  0  0  0  0
  1  2  1  0
  2  3  2  3
  3  4  1  0
  3 26  1  0
  4  5  1  0
  5  6  2  3
  5 13  1  0
  6  7  1  0
  7  8  1  0
  7  9  2  3
  9 10  1  0
 10 11  1  0
 10 12  2  0
 13 14  1  6
 13 21  1  0
 14 15  2  0
 14 20  1  0
 15 16  1  0
 16 17  2  0
 17 18  1  0
 18 19  1  0
 18 20  2  0
 21 22  1  1
 21 26  1  0
 22 23  1  0
 23 24  1  0
 24 25  1  0
 25 26  2  0
M  CHG  1  23   1
M  END
