
     RDKit          3D

 26 29  0  0  0  0  0  0  0  0999 V2000
   -3.6720   -3.6600    0.0980 C   0  0  0  0  0  0  0  0  0  0  0  0
   -3.7210   -2.1980   -0.1500 C   0  0  0  0  0  0  0  0  0  0  0  0
   -4.6950   -1.5870   -0.8900 C   0  0  0  0  0  0  0  0  0  0  0  0
   -4.7090   -0.2190   -1.1000 C   0  0  0  0  0  0  0  0  0  0  0  0
   -3.7260    0.5690   -0.5580 C   0  0  0  0  0  0  0  0  0  0  0  0
   -2.7380   -0.0660    0.1960 C   0  0  0  0  0  0  0  0  0  0  0  0
   -1.7180    0.6970    0.7980 N   0  0  0  0  0  0  0  0  0  0  0  0
   -0.6710    0.0600    1.5420 C   0  0  2  0  0  0  0  0  0  0  0  0
    0.1630    1.0210    2.3590 C   0  0  0  0  0  0  0  0  0  0  0  0
    0.5790    2.1630    1.5090 C   0  0  0  0  0  0  0  0  0  0  0  0
    1.1020    1.7050    0.1660 C   0  0  0  0  0  0  0  0  0  0  0  0
    1.3110    0.3240    0.0720 N   0  0  0  0  0  0  0  0  0  0  0  0
    2.6170   -0.2010    0.0660 C   0  0  0  0  0  0  0  0  0  0  0  0
    3.4530    0.0810   -1.1530 C   0  0  1  0  0  0  0  0  0  0  0  0
    3.6530    1.4320   -1.3890 O   0  0  0  0  0  0  0  0  0  0  0  0
    4.8220   -0.4710   -0.8330 C   0  0  0  0  0  0  0  0  0  0  0  0
    5.5670    0.3140    0.0460 C   0  0  0  0  0  0  0  0  0  0  0  0
    6.8250   -0.0930    0.4060 C   0  0  0  0  0  0  0  0  0  0  0  0
    7.2830   -1.2810   -0.1370 C   0  0  0  0  0  0  0  0  0  0  0  0
    6.5450   -2.0240   -0.9850 N   0  0  0  0  0  0  0  0  0  0  0  0
    5.2890   -1.6420   -1.3610 C   0  0  0  0  0  0  0  0  0  0  0  0
    0.3520   -0.5760    0.5820 C   0  0  0  0  0  0  0  0  0  0  0  0
   -2.7540   -1.3970    0.3800 N   0  0  0  0  0  0  0  0  0  0  0  0
   -3.9500    1.9910   -0.9150 C   0  0  0  0  0  0  0  0  0  0  0  0
   -4.7300    1.8420   -2.2150 C   0  0  0  0  0  0  0  0  0  0  0  0
   -5.6520    0.6750   -1.8620 C   0  0  0  0  0  0  0  0  0  0  0  0
  1  2  1  0
  2  3  2  0
  2 23  1  0
  3  4  1  0
  4  5  2  0
  4 26  1  0
  5  6  1  0
  5 24  1  0
  6  7  1  0
  6 23  2  0
  8  7  1  6
  8  9  1  0
  8 22  1  0
  9 10  1  0
 10 11  1  0
 11 12  1  0
 12 13  1  0
 12 22  1  0
 13 14  1  0
 14 15  1  1
 14 16  1  0
 16 17  2  0
 16 21  1  0
 17 18  1  0
 18 19  2  0
 19 20  1  0
 20 21  2  0
 24 25  1  0
 25 26  1  0
M  CHG  1  23   1
M  END
