
     RDKit          3D

 23 25  0  0  0  0  0  0  0  0999 V2000
    2.7800    1.0950    0.5870 O   0  0  0  0  0  0  0  0  0  0  0  0
    2.9710    1.5000   -0.5670 C   0  0  0  0  0  0  0  0  0  0  0  0
    4.2830    1.9460   -0.8950 N   0  0  0  0  0  0  0  0  0  0  0  0
    5.3720    1.9420    0.0490 C   0  0  0  0  0  0  0  0  0  0  0  0
    5.6390    0.5680    0.5340 C   0  0  0  0  0  0  0  0  0  0  0  0
    5.2840   -0.2200    1.3980 N   0  0  0  0  0  0  0  0  0  0  0  0
    5.7250   -1.4300    1.5910 C   0  0  0  0  0  0  0  0  0  0  0  0
    6.6860   -1.8930    0.7500 C   0  0  0  0  0  0  0  0  0  0  0  0
    6.9300   -0.4840   -0.3460 S   0  0  0  0  0  0  0  0  0  0  0  0
    1.9050    1.5060   -1.4970 N   0  0  0  0  0  0  0  0  0  0  0  0
    0.6040    1.0600   -1.1590 C   0  0  0  0  0  0  0  0  0  0  0  0
   -0.4630    1.0570   -2.0660 C   0  0  0  0  0  0  0  0  0  0  0  0
   -1.5650    0.5840   -1.4690 N   0  0  0  0  0  0  0  0  0  0  0  0
   -1.2650    0.2730   -0.1970 C   0  0  0  0  0  0  0  0  0  0  0  0
   -2.1940   -0.2710    0.7790 C   0  0  0  0  0  0  0  0  0  0  0  0
   -1.7700   -0.5130    1.9340 O   0  0  0  0  0  0  0  0  0  0  0  0
   -3.5340   -0.5130    0.4150 N   0  0  0  0  0  0  0  0  0  0  0  0
   -4.5100   -1.0590    1.3600 C   0  0  0  0  0  0  0  0  0  0  0  0
   -5.8200   -1.2030    0.7020 C   0  0  0  0  0  0  0  0  0  0  0  0
   -7.0200   -0.7010    0.9310 C   0  0  0  0  0  0  0  0  0  0  0  0
   -7.5420   -1.4270   -0.2070 C   0  0  0  0  0  0  0  0  0  0  0  0
   -6.3660   -1.9080   -0.4160 N   0  0  0  0  0  0  0  0  0  0  0  0
    0.0880    0.5660    0.0090 C   0  0  0  0  0  0  0  0  0  0  0  0
  1  2  2  0
  2  3  1  0
  2 10  1  0
  3  4  1  0
  4  5  1  0
  5  6  2  0
  5  9  1  0
  6  7  1  0
  7  8  2  0
  8  9  1  0
 10 11  1  0
 11 12  2  0
 11 23  1  0
 12 13  1  0
 13 14  1  0
 14 15  1  0
 14 23  2  0
 15 16  2  0
 15 17  1  0
 17 18  1  0
 18 19  1  0
 19 20  2  0
 19 22  1  0
 20 21  1  0
 21 22  2  0
M  CHG  1  22   1
M  END
