
     RDKit          3D

 23 24  0  0  0  0  0  0  0  0999 V2000
    7.0120    2.1550   -0.4010 C   0  0  0  0  0  0  0  0  0  0  0  0
    6.6620    0.8970   -0.3080 C   0  0  0  0  0  0  0  0  0  0  0  0
    5.9450    0.3580    0.7260 O   0  0  0  0  0  0  0  0  0  0  0  0
    4.6840   -0.2230    0.6590 C   0  0  2  0  0  0  0  0  0  0  0  0
    4.6130   -1.4090   -0.2510 C   0  0  0  0  0  0  0  0  0  0  0  0
    3.2650   -2.0100   -0.4240 C   0  0  0  0  0  0  0  0  0  0  0  0
    2.1470   -1.1530   -0.1530 N   0  0  0  0  0  0  0  0  0  0  0  0
    0.8750   -1.4430   -0.7080 C   0  0  0  0  0  0  0  0  0  0  0  0
    0.6700   -2.7460   -1.6630 S   0  0  0  0  0  0  0  0  0  0  0  0
   -0.2560   -0.6110   -0.4520 N   0  0  0  0  0  0  0  0  0  0  0  0
   -1.4410   -1.0810   -0.3360 C   0  0  0  0  0  0  0  0  0  0  0  0
   -1.6550   -2.4690   -0.4650 N   0  0  0  0  0  0  0  0  0  0  0  0
   -2.5210   -0.2120   -0.0770 N   0  0  0  0  0  0  0  0  0  0  0  0
   -2.4430    1.2360    0.0900 C   0  0  0  0  0  0  0  0  0  0  0  0
   -3.8230    1.7800   -0.0590 C   0  0  0  0  0  0  0  0  0  0  0  0
   -4.7040    0.6220    0.0970 N   0  0  0  0  0  0  0  0  0  0  0  0
   -6.1010    0.7800    0.2270 C   0  0  0  0  0  0  0  0  0  0  0  0
   -6.6170    1.0100    1.4050 C   0  0  0  0  0  0  0  0  0  0  0  0
   -6.9230    0.6860   -0.9100 N   0  0  0  0  0  0  0  0  0  0  0  0
   -3.9050   -0.5330    0.0830 C   0  0  0  0  0  0  0  0  0  0  0  0
   -4.3350   -1.7190    0.1960 O   0  0  0  0  0  0  0  0  0  0  0  0
    2.2850    0.0090    0.6810 C   0  0  0  0  0  0  0  0  0  0  0  0
    3.5660    0.7270    0.2920 C   0  0  0  0  0  0  0  0  0  0  0  0
  1  2  2  0
  2  3  1  0
  4  3  1  6
  4  5  1  0
  4 23  1  0
  5  6  1  0
  6  7  1  0
  7  8  1  0
  7 22  1  0
  8  9  2  0
  8 10  1  0
 10 11  2  3
 11 12  1  0
 11 13  1  0
 13 14  1  0
 13 20  1  0
 14 15  1  0
 15 16  1  0
 16 17  1  0
 16 20  1  0
 17 18  2  0
 17 19  1  0
 20 21  2  0
 22 23  1  0
M  CHG  1  19   1
M  END
