
     RDKit          3D

 23 25  0  0  0  0  0  0  0  0999 V2000
   -6.0810   -2.0170    0.9630 C   0  0  0  0  0  0  0  0  0  0  0  0
   -4.8710   -1.2710    0.6560 N   0  0  0  0  0  0  0  0  0  0  0  0
   -4.7850    0.0150    0.5270 N   0  0  0  0  0  0  0  0  0  0  0  0
   -3.4940    0.3710    0.2380 C   0  0  0  0  0  0  0  0  0  0  0  0
   -3.0850    1.7490    0.0280 C   0  0  0  0  0  0  0  0  0  0  0  0
   -4.2720    2.6120    0.1740 N   0  0  0  0  0  0  0  0  0  0  0  0
   -2.7380   -0.7450    0.1820 C   0  0  0  0  0  0  0  0  0  0  0  0
   -1.3960   -1.0650   -0.0380 N   0  0  0  0  0  0  0  0  0  0  0  0
   -0.2830   -0.2260   -0.1410 C   0  0  0  0  0  0  0  0  0  0  0  0
   -0.3810    0.9930   -0.0340 O   0  0  0  0  0  0  0  0  0  0  0  0
    1.0500   -0.7420   -0.3810 N   0  0  0  0  0  0  0  0  0  0  0  0
    2.1470    0.1320   -0.4880 C   0  0  0  0  0  0  0  0  0  0  0  0
    1.9320    1.4610   -0.3960 N   0  0  0  0  0  0  0  0  0  0  0  0
    2.9260    2.3570   -0.5100 C   0  0  0  0  0  0  0  0  0  0  0  0
    4.2020    1.9330   -0.7250 C   0  0  0  0  0  0  0  0  0  0  0  0
    4.4810    0.5870   -0.8280 C   0  0  0  0  0  0  0  0  0  0  0  0
    3.4300   -0.3140   -0.7040 C   0  0  0  0  0  0  0  0  0  0  0  0
    3.6650   -1.7650   -0.7880 C   0  0  0  0  0  0  0  0  0  0  0  0
    5.3280   -2.2310   -0.1400 S   0  0  0  0  0  0  0  0  0  0  0  0
    6.3320   -0.7170    0.0470 C   0  0  0  0  0  0  0  0  0  0  0  0
    5.8790    0.1940   -1.0790 C   0  0  0  0  0  0  0  0  0  0  0  0
   -3.6570   -1.7860    0.4560 C   0  0  0  0  0  0  0  0  0  0  0  0
   -3.4230   -3.0260    0.5160 O   0  0  0  0  0  0  0  0  0  0  0  0
  1  2  1  0
  2  3  1  0
  2 22  1  0
  3  4  1  0
  4  5  1  0
  4  7  2  0
  5  6  1  0
  7  8  1  0
  7 22  1  0
  8  9  1  0
  9 10  2  0
  9 11  1  0
 11 12  1  0
 12 13  2  0
 12 17  1  0
 13 14  1  0
 14 15  2  0
 15 16  1  0
 16 17  2  0
 16 21  1  0
 17 18  1  0
 18 19  1  0
 19 20  1  0
 20 21  1  0
 22 23  2  0
M  CHG  1   6   1
M  END
