
     RDKit          3D

 20 20  0  0  0  0  0  0  0  0999 V2000
    3.6560    0.7490    4.0600 C   0  0  0  0  0  0  0  0  0  0  0  0
    3.7230    0.5010    2.5610 C   0  0  0  0  0  0  0  0  0  0  0  0
    4.6690    1.1380    1.9020 C   0  0  0  0  0  0  0  0  0  0  0  0
    4.8880    1.0150    0.4420 C   0  0  0  0  0  0  0  0  0  0  0  0
    3.4990    0.2780   -0.3850 S   0  0  0  0  0  0  0  0  0  0  0  0
    2.4010   -0.4680    0.8880 C   0  0  0  0  0  0  0  0  0  0  0  0
    1.5610   -1.6140    0.6890 N   0  0  0  0  0  0  0  0  0  0  0  0
    0.4760   -1.3220   -0.1400 C   0  0  0  0  0  0  0  0  0  0  0  0
    0.4420   -0.0500   -0.3930 O   0  0  0  0  0  0  0  0  0  0  0  0
   -0.4900   -2.2960   -0.6400 C   0  0  0  0  0  0  0  0  0  0  0  0
   -1.4900   -1.6270   -1.3730 O   0  0  0  0  0  0  0  0  0  0  0  0
   -2.2510   -0.6700   -0.7010 C   0  0  0  0  0  0  0  0  0  0  0  0
   -1.9910   -0.4730    0.5060 O   0  0  0  0  0  0  0  0  0  0  0  0
   -3.2970    0.0750   -1.3480 C   0  0  0  0  0  0  0  0  0  0  0  0
   -3.5590   -0.2080   -2.7990 C   0  0  0  0  0  0  0  0  0  0  0  0
   -3.9160   -1.5310   -3.0110 O   0  0  0  0  0  0  0  0  0  0  0  0
   -3.9980    0.9650   -0.7030 C   0  0  0  0  0  0  0  0  0  0  0  0
   -3.7350    1.2380    0.7220 C   0  0  0  0  0  0  0  0  0  0  0  0
   -4.9950    1.6540   -1.3760 O   0  0  0  0  0  0  0  0  0  0  0  0
    2.7240   -0.2190    2.0020 N   0  0  0  0  0  0  0  0  0  0  0  0
  1  2  1  0
  2  3  2  0
  2 20  1  0
  3  4  1  0
  4  5  1  0
  5  6  1  0
  6  7  1  0
  6 20  2  0
  7  8  1  0
  8  9  2  0
  8 10  1  0
 10 11  1  0
 11 12  1  0
 12 13  2  0
 12 14  1  0
 14 15  1  0
 14 17  2  3
 15 16  1  0
 17 18  1  0
 17 19  1  0
M  END
