
     RDKit          3D

 13 13  0  0  0  0  0  0  0  0999 V2000
   -0.1480   -1.4760    0.4360 N   0  0  0  0  0  0  0  0  0  0  0  0
   -0.1380   -0.0640    0.0070 C   0  0  0  0  0  0  0  0  0  0  0  0
   -1.3150    0.5630   -0.1360 C   0  0  0  0  0  0  0  0  0  0  0  0
   -2.6950    0.0750    0.0680 C   0  0  0  0  0  0  0  0  0  0  0  0
   -3.6700    0.8260   -0.1210 O   0  0  0  0  0  0  0  0  0  0  0  0
   -2.8720   -1.2350    0.4720 O   0  0  0  0  0  0  0  0  0  0  0  0
   -0.9220    2.1860   -0.6440 S   0  0  0  0  0  0  0  0  0  0  0  0
    0.8660    1.9450   -0.6420 C   0  0  0  0  0  0  0  0  0  0  0  0
    2.0930    3.1410   -1.0540 Cl  0  0  0  0  0  0  0  0  0  0  0  0
    1.0060    0.6140   -0.2440 C   0  0  0  0  0  0  0  0  0  0  0  0
    2.6470   -0.1370   -0.0820 S   0  0  1  0  0  0  0  0  0  0  0  0
    2.5120   -1.6280   -0.2210 O   0  0  0  0  0  0  0  0  0  0  0  0
    3.5140    0.4370   -1.1520 O   0  0  0  0  0  0  0  0  0  0  0  0
  1  2  1  0
  2  3  2  0
  2 10  1  0
  3  4  1  0
  3  7  1  0
  4  5  2  0
  4  6  1  0
  7  8  1  0
  8  9  1  0
  8 10  2  0
 11 10  1  6
 11 12  2  0
 11 13  2  0
M  END
