
     RDKit          3D

 21 22  0  0  0  0  0  0  0  0999 V2000
   -6.1610   -0.1430    0.3460 N   0  0  0  0  0  0  0  0  0  0  0  0
   -4.7850   -0.2890    0.2990 O   0  0  0  0  0  0  0  0  0  0  0  0
   -3.9860    0.5710   -0.4470 C   0  0  0  0  0  0  0  0  0  0  0  0
   -4.5130    1.5150   -1.1060 O   0  0  0  0  0  0  0  0  0  0  0  0
   -2.5390    0.3430   -0.4370 C   0  0  0  0  0  0  0  0  0  0  0  0
   -2.0320   -0.7190    0.2810 C   0  0  0  0  0  0  0  0  0  0  0  0
   -0.6820   -0.9600    0.3140 C   0  0  0  0  0  0  0  0  0  0  0  0
   -0.1690   -2.0260    1.0440 C   0  0  0  0  0  0  0  0  0  0  0  0
   -1.2890   -3.0690    1.9140 Cl  0  0  0  0  0  0  0  0  0  0  0  0
    1.1820   -2.2430    1.0690 C   0  0  0  0  0  0  0  0  0  0  0  0
    2.0370   -1.3950    0.3640 C   0  0  0  0  0  0  0  0  0  0  0  0
    3.4040   -1.6020    0.3760 O   0  0  0  0  0  0  0  0  0  0  0  0
    1.5540   -0.3280   -0.3680 C   0  0  0  0  0  0  0  0  0  0  0  0
    2.4320    0.5940   -1.0920 C   0  0  0  0  0  0  0  0  0  0  0  0
    3.0010    1.7010   -0.2370 C   0  0  0  0  0  0  0  0  0  0  0  0
    4.0440    1.1160    1.1040 S   0  0  0  0  0  0  0  0  0  0  0  0
    5.5410    0.4850    0.5060 O   0  0  0  0  0  0  0  0  0  0  0  0
    0.1780   -0.1060   -0.3950 C   0  0  0  0  0  0  0  0  0  0  0  0
   -0.3680    0.9100   -1.0750 N   0  0  0  0  0  0  0  0  0  0  0  0
   -1.6820    1.1780   -1.1310 C   0  0  0  0  0  0  0  0  0  0  0  0
   -2.1710    2.1320   -1.7720 O   0  0  0  0  0  0  0  0  0  0  0  0
  1  2  1  0
  2  3  1  0
  3  4  2  0
  3  5  1  0
  5  6  2  0
  5 20  1  0
  6  7  1  0
  7  8  2  0
  7 18  1  0
  8  9  1  0
  8 10  1  0
 10 11  2  0
 11 12  1  0
 11 13  1  0
 13 14  1  0
 13 18  2  0
 14 15  1  0
 15 16  1  0
 16 17  1  0
 18 19  1  0
 19 20  1  0
 20 21  2  0
M  END
