
     RDKit          3D

 20 21  0  0  0  0  0  0  0  0999 V2000
   -5.1260    1.6760    0.6570 C   0  0  0  0  0  0  0  0  0  0  0  0
   -3.8310    1.7180    0.0450 N   0  0  0  0  0  0  0  0  0  0  0  0
   -3.0120    0.5660   -0.1290 C   0  0  0  0  0  0  0  0  0  0  0  0
   -3.4750   -0.6530    0.3070 C   0  0  0  0  0  0  0  0  0  0  0  0
   -2.7030   -1.7930    0.1530 C   0  0  0  0  0  0  0  0  0  0  0  0
   -3.1860   -3.0180    0.5990 O   0  0  0  0  0  0  0  0  0  0  0  0
   -1.4510   -1.7210   -0.4450 C   0  0  0  0  0  0  0  0  0  0  0  0
   -0.6900   -2.8810   -0.5900 O   0  0  0  0  0  0  0  0  0  0  0  0
   -0.9750   -0.5030   -0.8870 C   0  0  0  0  0  0  0  0  0  0  0  0
    0.2620   -0.3580   -1.4910 O   0  0  0  0  0  0  0  0  0  0  0  0
    1.4070   -0.0900   -0.7540 C   0  0  0  0  0  0  0  0  0  0  0  0
    1.2870    0.0140    0.4670 O   0  0  0  0  0  0  0  0  0  0  0  0
    2.6370    0.0480   -1.4210 N   0  0  0  0  0  0  0  0  0  0  0  0
    3.8530    0.3190   -0.7600 C   0  0  0  0  0  0  0  0  0  0  0  0
    4.1610    0.4980    0.4840 C   0  0  0  0  0  0  0  0  0  0  0  0
    5.5180    0.7600    0.8250 C   0  0  0  0  0  0  0  0  0  0  0  0
    5.9160    1.2780    1.9270 O   0  0  0  0  0  0  0  0  0  0  0  0
    6.5070    0.3840   -0.2160 C   0  0  0  0  0  0  0  0  0  0  0  0
    5.4030    0.4790   -1.6840 S   0  0  0  0  0  0  0  0  0  0  0  0
   -1.7770    0.6020   -0.7120 C   0  0  0  0  0  0  0  0  0  0  0  0
  1  2  1  0
  2  3  1  0
  3  4  2  0
  3 20  1  0
  4  5  1  0
  5  6  1  0
  5  7  2  0
  7  8  1  0
  7  9  1  0
  9 10  1  0
  9 20  2  0
 10 11  1  0
 11 12  2  0
 11 13  1  0
 13 14  1  0
 14 15  2  0
 14 19  1  0
 15 16  1  0
 16 17  2  0
 16 18  1  0
 18 19  1  0
M  END
