
     RDKit          3D

 29 32  0  0  0  0  0  0  0  0999 V2000
    5.5550    1.1560   -1.8900 C   0  0  0  0  0  0  0  0  0  0  0  0
    5.5690    0.6300   -0.6940 C   0  0  0  0  0  0  0  0  0  0  0  0
    6.7900    0.1560   -0.2120 O   0  0  0  0  0  0  0  0  0  0  0  0
    7.2860   -1.1040   -0.6660 C   0  0  0  0  0  0  0  0  0  0  0  0
    4.3880    0.5180    0.1430 C   0  0  0  0  0  0  0  0  0  0  0  0
    3.1780    0.9740   -0.3060 C   0  0  0  0  0  0  0  0  0  0  0  0
    2.0350    0.8700    0.4950 C   0  0  0  0  0  0  0  0  0  0  0  0
    0.7650    1.3670   -0.0170 C   0  0  0  0  0  0  0  0  0  0  0  0
    0.5060    2.5820    0.2370 O   0  0  0  0  0  0  0  0  0  0  0  0
   -0.1050    0.5450   -0.7450 N   0  0  0  0  0  0  0  0  0  0  0  0
    0.2230   -0.8400   -1.0180 C   0  0  0  0  0  0  0  0  0  0  0  0
   -0.9850   -1.7260   -1.0390 C   0  0  0  0  0  0  0  0  0  0  0  0
   -2.1910   -1.0750   -0.5000 C   0  0  0  0  0  0  0  0  0  0  0  0
   -2.4280    0.2440   -0.5910 C   0  0  0  0  0  0  0  0  0  0  0  0
   -1.3880    1.0080   -1.2760 C   0  0  0  0  0  0  0  0  0  0  0  0
   -3.6410    0.8220   -0.0360 C   0  0  0  0  0  0  0  0  0  0  0  0
   -3.8610    2.1810   -0.1440 C   0  0  0  0  0  0  0  0  0  0  0  0
   -4.9940    2.7920    0.3610 C   0  0  0  0  0  0  0  0  0  0  0  0
   -5.9500    2.0330    1.0000 C   0  0  0  0  0  0  0  0  0  0  0  0
   -5.7310    0.6830    1.1080 C   0  0  0  0  0  0  0  0  0  0  0  0
   -4.5920    0.0560    0.6010 C   0  0  0  0  0  0  0  0  0  0  0  0
   -4.3870   -1.3920    0.7330 C   0  0  1  0  0  0  0  0  0  0  0  0
   -5.5540   -2.1870    0.1600 C   0  0  0  0  0  0  0  0  0  0  0  0
   -3.1620   -1.8760    0.1530 N   0  0  0  0  0  0  0  0  0  0  0  0
    2.1700    0.3010    1.7300 C   0  0  0  0  0  0  0  0  0  0  0  0
    0.7690    0.1470    2.7720 Cl  0  0  0  0  0  0  0  0  0  0  0  0
    3.3910   -0.1640    2.1950 C   0  0  0  0  0  0  0  0  0  0  0  0
    4.5090   -0.0630    1.4130 C   0  0  0  0  0  0  0  0  0  0  0  0
    5.7620   -0.5110    1.8200 O   0  0  0  0  0  0  0  0  0  0  0  0
  1  2  2  0
  2  3  1  0
  2  5  1  0
  3  4  1  0
  5  6  2  0
  5 28  1  0
  6  7  1  0
  7  8  1  0
  7 25  2  0
  8  9  2  0
  8 10  1  0
 10 11  1  0
 10 15  1  0
 11 12  1  0
 12 13  1  0
 13 14  2  0
 13 24  1  0
 14 15  1  0
 14 16  1  0
 16 17  2  0
 16 21  1  0
 17 18  1  0
 18 19  2  0
 19 20  1  0
 20 21  2  0
 21 22  1  0
 22 23  1  6
 22 24  1  0
 25 26  1  0
 25 27  1  0
 27 28  2  0
 28 29  1  0
M  END
