
     RDKit          3D

 29 32  0  0  0  0  0  0  0  0999 V2000
    5.6670   -1.2470    2.0520 C   0  0  0  0  0  0  0  0  0  0  0  0
    5.7840   -0.8850    0.6130 C   0  0  0  0  0  0  0  0  0  0  0  0
    6.9560   -0.9700    0.0270 C   0  0  0  0  0  0  0  0  0  0  0  0
    8.3820   -1.5110    0.9410 Cl  0  0  0  0  0  0  0  0  0  0  0  0
    7.1540   -0.6300   -1.3960 C   0  0  2  0  0  0  0  0  0  0  0  0
    8.2310    0.4720   -1.4850 C   0  0  0  0  0  0  0  0  0  0  0  0
    6.0150   -0.2110   -2.0770 O   0  0  0  0  0  0  0  0  0  0  0  0
    4.7830   -0.1070   -1.5120 C   0  0  0  0  0  0  0  0  0  0  0  0
    3.7070    0.3160   -2.2570 C   0  0  0  0  0  0  0  0  0  0  0  0
    2.4680    0.3980   -1.6080 C   0  0  0  0  0  0  0  0  0  0  0  0
    2.3070    0.0770   -0.2920 C   0  0  0  0  0  0  0  0  0  0  0  0
    1.0800    0.1230    0.3920 N   0  0  0  0  0  0  0  0  0  0  0  0
   -0.1620    0.1440   -0.2520 C   0  0  0  0  0  0  0  0  0  0  0  0
   -0.2720    0.1170   -1.4830 O   0  0  0  0  0  0  0  0  0  0  0  0
   -1.3970    0.2020    0.6090 C   0  0  0  0  0  0  0  0  0  0  0  0
   -2.6190    0.2180   -0.2460 C   0  0  0  0  0  0  0  0  0  0  0  0
   -2.4500    0.1820   -1.4800 O   0  0  0  0  0  0  0  0  0  0  0  0
   -3.9180    0.2690    0.2640 N   0  0  0  0  0  0  0  0  0  0  0  0
   -5.1380    0.2880   -0.4400 C   0  0  0  0  0  0  0  0  0  0  0  0
   -5.2480    0.2580   -1.8000 C   0  0  0  0  0  0  0  0  0  0  0  0
   -6.4770    0.2780   -2.4840 C   0  0  0  0  0  0  0  0  0  0  0  0
   -7.6490    0.3310   -1.7690 C   0  0  0  0  0  0  0  0  0  0  0  0
   -7.5590    0.3620   -0.3750 C   0  0  0  0  0  0  0  0  0  0  0  0
   -6.3540    0.3420    0.2620 C   0  0  0  0  0  0  0  0  0  0  0  0
   -6.5140    0.3790    1.5810 C   0  0  0  0  0  0  0  0  0  0  0  0
   -7.9820    0.4300    1.8550 C   0  0  0  0  0  0  0  0  0  0  0  0
   -8.5560    0.4130    0.4890 C   0  0  0  0  0  0  0  0  0  0  0  0
    3.4230   -0.3520    0.4460 C   0  0  0  0  0  0  0  0  0  0  0  0
    4.6290   -0.4380   -0.1600 C   0  0  0  0  0  0  0  0  0  0  0  0
  1  2  1  0
  2  3  2  0
  2 29  1  0
  3  4  1  0
  3  5  1  0
  5  6  1  1
  5  7  1  0
  7  8  1  0
  8  9  2  0
  8 29  1  0
  9 10  1  0
 10 11  2  0
 11 12  1  0
 11 28  1  0
 12 13  1  0
 13 14  2  0
 13 15  1  0
 15 16  1  0
 16 17  2  0
 16 18  1  0
 18 19  1  0
 19 20  2  0
 19 24  1  0
 20 21  1  0
 21 22  2  0
 22 23  1  0
 23 24  1  0
 23 27  2  0
 24 25  2  0
 25 26  1  0
 26 27  1  0
 28 29  2  0
M  END
