
     RDKit          3D

 29 31  0  0  0  0  0  0  0  0999 V2000
   -1.3150   -3.7210   -1.8990 C   0  0  0  0  0  0  0  0  0  0  0  0
   -2.3280   -3.2840   -1.2350 C   0  0  0  0  0  0  0  0  0  0  0  0
   -3.6400   -4.4610   -1.0150 Cl  0  0  0  0  0  0  0  0  0  0  0  0
   -2.4660   -2.0150   -0.5790 C   0  0  0  0  0  0  0  0  0  0  0  0
   -3.7290   -1.8610   -0.1340 C   0  0  0  0  0  0  0  0  0  0  0  0
   -4.4910   -0.8450    0.5600 C   0  0  0  0  0  0  0  0  0  0  0  0
   -4.1780    0.3910    0.8980 C   0  0  0  0  0  0  0  0  0  0  0  0
   -2.9940    1.2110    0.7320 C   0  0  0  0  0  0  0  0  0  0  0  0
   -1.8040    1.1670    0.1490 C   0  0  0  0  0  0  0  0  0  0  0  0
   -0.9880    2.3410    0.3520 C   0  0  0  0  0  0  0  0  0  0  0  0
   -1.2710    3.5140    0.8750 C   0  0  0  0  0  0  0  0  0  0  0  0
   -0.2250    4.5970    0.9780 C   0  0  0  0  0  0  0  0  0  0  0  0
    0.3110    2.0040   -0.1770 C   0  0  0  0  0  0  0  0  0  0  0  0
    0.3010    0.7810   -0.6580 C   0  0  0  0  0  0  0  0  0  0  0  0
   -0.9570    0.0940   -0.5390 C   0  0  0  0  0  0  0  0  0  0  0  0
   -1.2190   -1.2110   -0.5940 C   0  0  0  0  0  0  0  0  0  0  0  0
   -0.3090   -2.2360   -0.0010 C   0  0  0  0  0  0  0  0  0  0  0  0
   -0.8000   -3.4210    0.1360 O   0  0  0  0  0  0  0  0  0  0  0  0
    1.0580   -2.1350    0.4850 C   0  0  0  0  0  0  0  0  0  0  0  0
    1.1480   -1.2660    1.6240 N   0  0  0  0  0  0  0  0  0  0  0  0
    2.2610   -1.1880    2.4700 C   0  0  0  0  0  0  0  0  0  0  0  0
    2.1020   -1.2340    3.7670 O   0  0  0  0  0  0  0  0  0  0  0  0
    3.6120   -1.0520    2.0150 N   0  0  0  0  0  0  0  0  0  0  0  0
    3.9870   -0.0490    1.0740 C   0  0  0  0  0  0  0  0  0  0  0  0
    5.2240    0.0750    0.8250 O   0  0  0  0  0  0  0  0  0  0  0  0
    2.9570    0.8220    0.4090 C   0  0  0  0  0  0  0  0  0  0  0  0
    2.7800    0.4520   -1.0210 C   0  0  0  0  0  0  0  0  0  0  0  0
    1.4150    0.2320   -1.5270 C   0  0  2  0  0  0  0  0  0  0  0  0
    1.3530    1.0730   -2.8710 C   0  0  0  0  0  0  0  0  0  0  0  0
  1  2  2  0
  2  3  1  0
  2  4  1  0
  4  5  2  0
  4 16  1  0
  5  6  1  0
  6  7  2  0
  7  8  1  0
  8  9  2  0
  9 10  1  0
  9 15  1  0
 10 11  2  3
 10 13  1  0
 11 12  1  0
 13 14  2  0
 14 15  1  0
 14 28  1  0
 15 16  2  0
 16 17  1  0
 17 18  2  0
 17 19  1  0
 19 20  1  0
 20 21  1  0
 21 22  2  0
 21 23  1  0
 23 24  1  0
 24 25  2  0
 24 26  1  0
 26 27  1  0
 27 28  1  0
 28 29  1  6
M  END
