
     RDKit          3D

 29 32  0  0  0  0  0  0  0  0999 V2000
    3.9270   -2.7100    2.2700 C   0  0  0  0  0  0  0  0  0  0  0  0
    3.5710   -1.5420    1.4240 C   0  0  0  0  0  0  0  0  0  0  0  0
    2.3340   -0.9400    1.5270 C   0  0  0  0  0  0  0  0  0  0  0  0
    1.9550    0.1380    0.7480 C   0  0  0  0  0  0  0  0  0  0  0  0
    0.6450    0.7500    0.8420 C   0  0  0  0  0  0  0  0  0  0  0  0
    0.5060    1.8890    1.3730 O   0  0  0  0  0  0  0  0  0  0  0  0
   -0.5140    0.0500    0.3330 N   0  0  0  0  0  0  0  0  0  0  0  0
   -1.8360    0.6920    0.4390 C   0  0  0  0  0  0  0  0  0  0  0  0
   -2.8970   -0.2580   -0.0510 C   0  0  2  0  0  0  0  0  0  0  0  0
   -4.2690    0.1360    0.1870 C   0  0  0  0  0  0  0  0  0  0  0  0
   -5.3840   -0.6540   -0.0650 C   0  0  0  0  0  0  0  0  0  0  0  0
   -5.4890   -2.0200   -0.6210 C   0  0  0  0  0  0  0  0  0  0  0  0
   -6.4930    0.0320    0.2870 N   0  0  0  0  0  0  0  0  0  0  0  0
   -6.1320    1.1790    0.7350 O   0  0  0  0  0  0  0  0  0  0  0  0
   -4.8000    1.2970    0.6980 C   0  0  0  0  0  0  0  0  0  0  0  0
   -4.0700    2.4860    1.1390 C   0  0  0  0  0  0  0  0  0  0  0  0
   -2.6410   -1.5470    0.7380 C   0  0  0  0  0  0  0  0  0  0  0  0
   -2.1810   -2.5360   -0.2660 C   0  0  0  0  0  0  0  0  0  0  0  0
   -2.1160   -1.7690   -1.5470 C   0  0  0  0  0  0  0  0  0  0  0  0
   -2.6610   -0.5400   -1.3600 O   0  0  0  0  0  0  0  0  0  0  0  0
    2.8580    0.6190   -0.1630 C   0  0  0  0  0  0  0  0  0  0  0  0
    4.1160    0.0180   -0.2730 C   0  0  0  0  0  0  0  0  0  0  0  0
    4.4930   -1.0670    0.5110 C   0  0  0  0  0  0  0  0  0  0  0  0
    6.0880   -1.7430    0.2920 Cl  0  0  0  0  0  0  0  0  0  0  0  0
    5.1980    0.4490   -1.1730 C   0  0  0  0  0  0  0  0  0  0  0  0
    5.4070    1.6860   -1.5630 C   0  0  0  0  0  0  0  0  0  0  0  0
    4.7030    2.9190   -1.2570 C   0  0  0  0  0  0  0  0  0  0  0  0
    3.2970    2.9520   -0.9250 C   0  0  0  0  0  0  0  0  0  0  0  0
    2.4250    1.7620   -0.9880 C   0  0  0  0  0  0  0  0  0  0  0  0
  1  2  1  0
  2  3  2  0
  2 23  1  0
  3  4  1  0
  4  5  1  0
  4 21  2  0
  5  6  2  0
  5  7  1  0
  7  8  1  0
  9  8  1  1
  9 10  1  0
  9 17  1  0
  9 20  1  0
 10 11  1  0
 10 15  2  0
 11 12  1  0
 11 13  2  0
 13 14  1  0
 14 15  1  0
 15 16  1  0
 17 18  1  0
 18 19  1  0
 19 20  1  0
 21 22  1  0
 21 29  1  0
 22 23  2  0
 22 25  1  0
 23 24  1  0
 25 26  2  0
 26 27  1  0
 27 28  1  0
 28 29  1  0
M  END
