
     RDKit          3D

 19 20  0  0  0  0  0  0  0  0999 V2000
    2.3960    1.9670    0.9520 C   0  0  0  0  0  0  0  0  0  0  0  0
    2.4670    0.5140    1.1720 C   0  0  0  0  0  0  0  0  0  0  0  0
    2.3470    0.0850    2.3020 O   0  0  0  0  0  0  0  0  0  0  0  0
    2.6820   -0.4140    0.0320 C   0  0  2  0  0  0  0  0  0  0  0  0
    4.0240   -0.0620   -0.5830 C   0  0  0  0  0  0  0  0  0  0  0  0
    1.6430   -0.1600   -1.0700 C   0  0  0  0  0  0  0  0  0  0  0  0
    0.3750   -0.5460   -0.4790 N   0  0  0  0  0  0  0  0  0  0  0  0
   -0.7820    0.2080   -0.7810 C   0  0  0  0  0  0  0  0  0  0  0  0
   -0.6890    1.1940   -1.5550 O   0  0  0  0  0  0  0  0  0  0  0  0
   -2.0830   -0.1250   -0.2190 C   0  0  0  0  0  0  0  0  0  0  0  0
   -2.3580   -1.1120    0.6000 N   0  0  0  0  0  0  0  0  0  0  0  0
   -3.7120   -1.1280    0.9320 N   0  0  0  0  0  0  0  0  0  0  0  0
   -4.2170    0.2050    0.6630 C   0  0  0  0  0  0  0  0  0  0  0  0
   -3.3370    0.5890   -0.4680 C   0  0  0  0  0  0  0  0  0  0  0  0
   -3.5750    1.3830   -1.4890 C   0  0  0  0  0  0  0  0  0  0  0  0
   -4.8190    1.9900   -1.5850 O   0  0  0  0  0  0  0  0  0  0  0  0
    0.2890   -1.6660    0.3940 C   0  0  0  0  0  0  0  0  0  0  0  0
    1.5660   -2.3460    0.7350 C   0  0  0  0  0  0  0  0  0  0  0  0
    2.7250   -1.7280    0.3930 O   0  0  0  0  0  0  0  0  0  0  0  0
  1  2  1  0
  2  3  2  0
  2  4  1  0
  4  5  1  6
  4  6  1  0
  4 19  1  0
  6  7  1  0
  7  8  1  0
  7 17  1  0
  8  9  2  0
  8 10  1  0
 10 11  2  0
 10 14  1  0
 11 12  1  0
 12 13  1  0
 13 14  1  0
 14 15  2  3
 15 16  1  0
 17 18  1  0
 18 19  1  0
M  END
