
     RDKit          3D

 19 20  0  0  0  0  0  0  0  0999 V2000
    5.7630   -0.7730    0.2080 C   0  0  0  0  0  0  0  0  0  0  0  0
    4.6470   -0.0750    0.0700 C   0  0  0  0  0  0  0  0  0  0  0  0
    4.5860    1.3230    0.5670 C   0  0  0  0  0  0  0  0  0  0  0  0
    3.2430    1.5470    1.1520 C   0  0  0  0  0  0  0  0  0  0  0  0
    3.1560    2.2470    2.1910 O   0  0  0  0  0  0  0  0  0  0  0  0
    2.1010    0.9400    0.4830 C   0  0  0  0  0  0  0  0  0  0  0  0
    2.2310   -0.1090   -0.3400 C   0  0  0  0  0  0  0  0  0  0  0  0
    1.0810   -0.7060   -1.0010 C   0  0  0  0  0  0  0  0  0  0  0  0
    1.2780   -1.6850   -1.7580 O   0  0  0  0  0  0  0  0  0  0  0  0
   -0.2190   -0.2170   -0.8140 N   0  0  0  0  0  0  0  0  0  0  0  0
   -1.1770   -0.9360   -0.2830 C   0  0  0  0  0  0  0  0  0  0  0  0
   -0.8560   -2.2660    0.1100 N   0  0  0  0  0  0  0  0  0  0  0  0
   -2.4690   -0.4150   -0.1100 N   0  0  0  0  0  0  0  0  0  0  0  0
   -2.8930    0.7270   -0.8840 C   0  0  0  0  0  0  0  0  0  0  0  0
   -3.9490    1.5500   -0.1870 C   0  0  0  0  0  0  0  0  0  0  0  0
   -4.9880    0.6780    0.1490 O   0  0  0  0  0  0  0  0  0  0  0  0
   -4.5290   -0.1060    1.2000 C   0  0  0  0  0  0  0  0  0  0  0  0
   -3.3960   -1.0040    0.8360 C   0  0  0  0  0  0  0  0  0  0  0  0
    3.5140   -0.5940   -0.5270 O   0  0  0  0  0  0  0  0  0  0  0  0
  1  2  2  0
  2  3  1  0
  2 19  1  0
  3  4  1  0
  4  5  2  0
  4  6  1  0
  6  7  2  0
  7  8  1  0
  7 19  1  0
  8  9  2  0
  8 10  1  0
 10 11  2  3
 11 12  1  0
 11 13  1  0
 13 14  1  0
 13 18  1  0
 14 15  1  0
 15 16  1  0
 16 17  1  0
 17 18  1  0
M  END
