
     RDKit          3D

 19 20  0  0  0  0  0  0  0  0999 V2000
    6.0640   -0.4780    0.6040 C   0  0  0  0  0  0  0  0  0  0  0  0
    4.6390   -0.9380    0.7930 C   0  0  0  0  0  0  0  0  0  0  0  0
    3.7860   -0.1250    0.0110 O   0  0  0  0  0  0  0  0  0  0  0  0
    2.4240   -0.3590    0.0230 C   0  0  0  0  0  0  0  0  0  0  0  0
    1.9960   -1.2990    0.7380 O   0  0  0  0  0  0  0  0  0  0  0  0
    1.5480    0.4760   -0.7800 C   0  0  0  0  0  0  0  0  0  0  0  0
    0.2390    0.2840   -0.7970 C   0  0  0  0  0  0  0  0  0  0  0  0
   -0.6330    1.1570   -1.6300 C   0  0  0  0  0  0  0  0  0  0  0  0
   -1.9870    1.3280   -1.0320 C   0  0  2  0  0  0  0  0  0  0  0  0
   -1.9780    2.2620    0.1640 C   0  0  0  0  0  0  0  0  0  0  0  0
   -2.6020   -0.0030   -0.6380 C   0  0  2  0  0  0  0  0  0  0  0  0
   -3.7810    0.2200    0.1490 N   0  0  0  0  0  0  0  0  0  0  0  0
   -4.3300   -0.8250    0.9220 C   0  0  0  0  0  0  0  0  0  0  0  0
   -5.5530   -0.7580    1.2990 O   0  0  0  0  0  0  0  0  0  0  0  0
   -3.5780   -1.9650    1.3090 N   0  0  0  0  0  0  0  0  0  0  0  0
   -2.2310   -2.0000    0.8710 C   0  0  0  0  0  0  0  0  0  0  0  0
   -1.4960   -2.9690    1.1680 O   0  0  0  0  0  0  0  0  0  0  0  0
   -1.6700   -0.8990    0.0580 C   0  0  0  0  0  0  0  0  0  0  0  0
   -0.4070   -0.7290   -0.0490 N   0  0  0  0  0  0  0  0  0  0  0  0
  1  2  1  0
  2  3  1  0
  3  4  1  0
  4  5  2  0
  4  6  1  0
  6  7  2  3
  7  8  1  0
  7 19  1  0
  8  9  1  0
  9 10  1  1
  9 11  1  0
 11 12  1  1
 11 18  1  0
 12 13  1  0
 13 14  2  0
 13 15  1  0
 15 16  1  0
 16 17  2  0
 16 18  1  0
 18 19  2  0
M  END
