
     RDKit          3D

 37 40  0  0  0  0  0  0  0  0999 V2000
    2.5150   -4.6470   -3.3150 C   0  0  0  0  0  0  0  0  0  0  0  0
    2.6250   -3.5110   -2.3370 C   0  0  0  0  0  0  0  0  0  0  0  0
    3.8470   -2.9100   -2.1290 C   0  0  0  0  0  0  0  0  0  0  0  0
    3.9650   -1.8550   -1.2240 C   0  0  0  0  0  0  0  0  0  0  0  0
    5.2620   -1.1880   -0.9700 C   0  0  0  0  0  0  0  0  0  0  0  0
    2.8240   -1.4420   -0.5560 C   0  0  0  0  0  0  0  0  0  0  0  0
    2.9730   -0.3340    0.3420 N   0  0  0  0  0  0  0  0  0  0  0  0
    2.6290    0.8400   -0.0210 C   0  0  0  0  0  0  0  0  0  0  0  0
    2.7350    1.9790    0.7660 N   0  0  0  0  0  0  0  0  0  0  0  0
    3.2940    2.0050    2.0620 C   0  0  0  0  0  0  0  0  0  0  0  0
    3.7310    0.9450    2.5620 O   0  0  0  0  0  0  0  0  0  0  0  0
    3.3740    3.2810    2.8400 C   0  0  0  0  0  0  0  0  0  0  0  0
    4.0860    3.1020    4.1380 C   0  0  2  0  0  0  0  0  0  0  0  0
    3.4450    2.1130    5.0800 C   0  0  0  0  0  0  0  0  0  0  0  0
    4.3090    4.3970    4.8640 C   0  0  0  0  0  0  0  0  0  0  0  0
    1.5980   -2.0100   -0.7320 C   0  0  0  0  0  0  0  0  0  0  0  0
    0.4500   -1.5390    0.0230 C   0  0  0  0  0  0  0  0  0  0  0  0
    0.5200   -0.6140    0.8700 O   0  0  0  0  0  0  0  0  0  0  0  0
   -0.8740   -2.0850   -0.1270 N   0  0  0  0  0  0  0  0  0  0  0  0
   -2.0090   -1.6120    0.6320 C   0  0  2  0  0  0  0  0  0  0  0  0
   -2.5450   -2.6950    1.5400 C   0  0  0  0  0  0  0  0  0  0  0  0
   -3.5720   -3.5670    0.8850 C   0  0  0  0  0  0  0  0  0  0  0  0
   -4.6340   -2.8280    0.1620 C   0  0  0  0  0  0  0  0  0  0  0  0
   -3.9390   -1.9710   -0.9100 C   0  0  0  0  0  0  0  0  0  0  0  0
   -3.1070   -0.9680   -0.1850 C   0  0  2  0  0  0  0  0  0  0  0  0
   -2.6680    0.1210   -1.0640 C   0  0  1  0  0  0  0  0  0  0  0  0
   -1.7910   -0.2720   -2.1860 N   0  0  0  0  0  0  0  0  0  0  0  0
   -2.0150    0.6720   -3.2790 C   0  0  0  0  0  0  0  0  0  0  0  0
   -1.4960    0.6820   -4.4010 O   0  0  0  0  0  0  0  0  0  0  0  0
   -3.0180    1.6520   -2.7770 C   0  0  0  0  0  0  0  0  0  0  0  0
   -3.3290    2.8420   -2.9690 N   0  0  0  0  0  0  0  0  0  0  0  0
   -4.3520    3.5440   -2.3280 N   0  0  0  0  0  0  0  0  0  0  0  0
   -4.6450    4.9340   -2.6060 C   0  0  0  0  0  0  0  0  0  0  0  0
   -5.0870    2.7810   -1.3680 C   0  0  0  0  0  0  0  0  0  0  0  0
   -4.8110    1.4970   -1.1240 C   0  0  0  0  0  0  0  0  0  0  0  0
   -3.7890    0.7930   -1.7920 C   0  0  2  0  0  0  0  0  0  0  0  0
    1.5390   -3.0610   -1.6490 C   0  0  0  0  0  0  0  0  0  0  0  0
  1  2  1  0
  2  3  2  0
  2 37  1  0
  3  4  1  0
  4  5  1  0
  4  6  2  0
  6  7  1  0
  6 16  1  0
  7  8  2  3
  8  9  1  0
  9 10  1  0
 10 11  2  0
 10 12  1  0
 12 13  1  0
 13 14  1  1
 13 15  1  0
 16 17  1  0
 16 37  2  0
 17 18  2  0
 17 19  1  0
 20 19  1  6
 20 21  1  0
 20 25  1  0
 21 22  1  0
 22 23  1  0
 23 24  1  0
 25 24  1  6
 25 26  1  0
 26 27  1  6
 26 36  1  0
 27 28  1  0
 28 29  2  0
 28 30  1  0
 30 31  2  0
 30 36  1  0
 31 32  1  0
 32 33  1  0
 32 34  1  0
 34 35  2  0
 36 35  1  1
M  CHG  1   7   1
M  END
