
     RDKit          3D

 37 39  0  0  0  0  0  0  0  0999 V2000
   -4.9890    6.6400    1.0270 C   0  0  0  0  0  0  0  0  0  0  0  0
   -4.5590    6.2130    2.4160 C   0  0  1  0  0  0  0  0  0  0  0  0
   -5.7070    5.5380    3.1660 C   0  0  0  0  0  0  0  0  0  0  0  0
   -3.4580    5.1780    2.2700 C   0  0  0  0  0  0  0  0  0  0  0  0
   -3.9680    3.9790    1.4970 C   0  0  0  0  0  0  0  0  0  0  0  0
   -2.8640    2.9850    1.3760 C   0  0  0  0  0  0  0  0  0  0  0  0
   -1.7600    3.2450    1.9490 O   0  0  0  0  0  0  0  0  0  0  0  0
   -2.9840    1.7890    0.6670 N   0  0  0  0  0  0  0  0  0  0  0  0
   -1.8500    0.7870    0.5540 C   0  0  2  0  0  0  0  0  0  0  0  0
   -1.2870    1.0160   -0.7400 C   0  0  0  0  0  0  0  0  0  0  0  0
   -0.1090    0.3050   -1.2560 C   0  0  0  0  0  0  0  0  0  0  0  0
   -0.0800   -0.5510   -2.3190 C   0  0  0  0  0  0  0  0  0  0  0  0
    1.0540   -1.2070   -2.7360 C   0  0  0  0  0  0  0  0  0  0  0  0
    2.2880   -1.0400   -2.0850 C   0  0  0  0  0  0  0  0  0  0  0  0
    3.4120   -1.7290   -2.5770 N   0  0  0  0  0  0  0  0  0  0  0  0
    4.6420   -1.9570   -1.9240 C   0  0  0  0  0  0  0  0  0  0  0  0
    4.7600   -1.5050   -0.7660 O   0  0  0  0  0  0  0  0  0  0  0  0
    5.7470   -2.6960   -2.5690 C   0  0  0  0  0  0  0  0  0  0  0  0
    6.9320   -2.9840   -1.7410 C   0  0  0  0  0  0  0  0  0  0  0  0
    7.5650   -1.7840   -1.2080 C   0  0  0  0  0  0  0  0  0  0  0  0
    8.3880   -1.0210   -1.9990 C   0  0  0  0  0  0  0  0  0  0  0  0
    9.0420    0.1060   -1.5090 C   0  0  0  0  0  0  0  0  0  0  0  0
    8.8570    0.4590   -0.1990 C   0  0  0  0  0  0  0  0  0  0  0  0
    9.6710    1.8900    0.4600 Cl  0  0  0  0  0  0  0  0  0  0  0  0
    8.0420   -0.2820    0.6170 C   0  0  0  0  0  0  0  0  0  0  0  0
    7.3960   -1.4090    0.1040 C   0  0  0  0  0  0  0  0  0  0  0  0
    2.2680   -0.1840   -1.0200 C   0  0  0  0  0  0  0  0  0  0  0  0
    1.1270    0.4720   -0.6060 C   0  0  0  0  0  0  0  0  0  0  0  0
   -2.2690   -0.4270    1.1380 C   0  0  0  0  0  0  0  0  0  0  0  0
   -2.8650   -0.1760    2.3490 O   0  0  0  0  0  0  0  0  0  0  0  0
   -2.2890   -1.7920    0.9140 N   0  0  0  0  0  0  0  0  0  0  0  0
   -1.8770   -2.4100   -0.2980 C   0  0  0  0  0  0  0  0  0  0  0  0
   -2.3550   -3.7760   -0.6120 C   0  0  0  0  0  0  0  0  0  0  0  0
   -3.2360   -4.4640    0.3500 C   0  0  2  0  0  0  0  0  0  0  0  0
   -4.3870   -5.1020   -0.3960 C   0  0  0  0  0  0  0  0  0  0  0  0
   -3.8310   -3.5410    1.3930 C   0  0  0  0  0  0  0  0  0  0  0  0
   -2.7250   -2.7350    1.9850 C   0  0  0  0  0  0  0  0  0  0  0  0
  2  1  1  6
  2  3  1  0
  2  4  1  0
  4  5  1  0
  5  6  1  0
  6  7  2  0
  6  8  1  0
  8  9  1  0
  9 10  1  6
  9 29  1  0
 10 11  1  0
 11 12  2  0
 11 28  1  0
 12 13  1  0
 13 14  2  0
 14 15  1  0
 14 27  1  0
 15 16  1  0
 16 17  2  0
 16 18  1  0
 18 19  1  0
 19 20  1  0
 20 21  2  0
 20 26  1  0
 21 22  1  0
 22 23  2  0
 23 24  1  0
 23 25  1  0
 25 26  2  0
 27 28  2  0
 29 30  2  0
 29 31  1  0
 31 32  1  0
 31 37  1  0
 32 33  1  0
 33 34  1  0
 34 35  1  6
 34 36  1  0
 36 37  1  0
M  END
