
     RDKit          3D

 37 39  0  0  0  0  0  0  0  0999 V2000
   -3.7200    5.9050   -0.2480 C   0  0  0  0  0  0  0  0  0  0  0  0
   -4.6320    4.9590   -0.3190 C   0  0  0  0  0  0  0  0  0  0  0  0
   -4.2630    3.5520   -0.0580 C   0  0  0  0  0  0  0  0  0  0  0  0
   -4.6380    2.6060   -1.5560 S   0  0  0  0  0  0  0  0  0  0  0  0
   -4.2210    0.9000   -1.2770 C   0  0  0  0  0  0  0  0  0  0  0  0
   -4.4150    0.0710   -2.2130 O   0  0  0  0  0  0  0  0  0  0  0  0
   -3.6850    0.4960   -0.0310 N   0  0  0  0  0  0  0  0  0  0  0  0
   -3.3400   -0.8550    0.2360 C   0  0  0  0  0  0  0  0  0  0  0  0
   -4.3710   -1.8880    0.1610 C   0  0  0  0  0  0  0  0  0  0  0  0
   -5.5720   -1.5780   -0.1410 N   0  0  0  0  0  0  0  0  0  0  0  0
   -6.6080   -2.5460   -0.2260 C   0  0  0  0  0  0  0  0  0  0  0  0
   -6.7520   -3.5440    0.7080 C   0  0  0  0  0  0  0  0  0  0  0  0
   -7.7560   -4.4660    0.6040 C   0  0  0  0  0  0  0  0  0  0  0  0
   -7.8680   -5.4660    1.5760 O   0  0  0  0  0  0  0  0  0  0  0  0
   -8.6440   -4.4590   -0.3870 N   0  0  0  0  0  0  0  0  0  0  0  0
   -8.5310   -3.4940   -1.3190 C   0  0  0  0  0  0  0  0  0  0  0  0
   -9.3660   -3.4830   -2.2570 O   0  0  0  0  0  0  0  0  0  0  0  0
   -7.5400   -2.5390   -1.2660 C   0  0  0  0  0  0  0  0  0  0  0  0
   -7.4280   -1.5610   -2.2110 F   0  0  0  0  0  0  0  0  0  0  0  0
   -2.0960   -1.2220    0.5540 C   0  0  0  0  0  0  0  0  0  0  0  0
   -1.0140   -0.2540    0.6460 C   0  0  0  0  0  0  0  0  0  0  0  0
   -1.1790    0.9760    0.4320 O   0  0  0  0  0  0  0  0  0  0  0  0
    0.2970   -0.6750    0.9900 N   0  0  0  0  0  0  0  0  0  0  0  0
    1.3480    0.2300    1.0840 N   0  0  0  0  0  0  0  0  0  0  0  0
    2.6390   -0.1050    0.6300 C   0  0  0  0  0  0  0  0  0  0  0  0
    2.8950   -1.3410    0.0690 C   0  0  0  0  0  0  0  0  0  0  0  0
    4.1530   -1.6870   -0.3750 C   0  0  0  0  0  0  0  0  0  0  0  0
    5.1890   -0.7530   -0.2490 C   0  0  0  0  0  0  0  0  0  0  0  0
    6.4640   -1.0700   -0.6820 C   0  0  0  0  0  0  0  0  0  0  0  0
    7.5200   -0.1950   -0.5810 C   0  0  0  0  0  0  0  0  0  0  0  0
    8.8580   -0.6020   -1.0660 C   0  0  0  0  0  0  0  0  0  0  0  0
    7.2910    1.0440   -0.0250 C   0  0  0  0  0  0  0  0  0  0  0  0
    8.4240    1.9860    0.0910 C   0  0  0  0  0  0  0  0  0  0  0  0
    8.0790    3.2520    0.6800 N   0  0  0  0  0  0  0  0  0  0  0  0
    6.0230    1.4000    0.4220 C   0  0  0  0  0  0  0  0  0  0  0  0
    4.9680    0.4870    0.3060 C   0  0  0  0  0  0  0  0  0  0  0  0
    3.6930    0.7930    0.7380 C   0  0  0  0  0  0  0  0  0  0  0  0
  1  2  2  0
  2  3  1  0
  3  4  1  0
  4  5  1  0
  5  6  2  0
  5  7  1  0
  7  8  1  0
  8  9  1  0
  8 20  2  3
  9 10  2  3
 10 11  1  0
 11 12  1  0
 11 18  2  0
 12 13  2  0
 13 14  1  0
 13 15  1  0
 15 16  1  0
 16 17  2  0
 16 18  1  0
 18 19  1  0
 20 21  1  0
 21 22  2  0
 21 23  1  0
 23 24  1  0
 24 25  1  0
 25 26  2  0
 25 37  1  0
 26 27  1  0
 27 28  2  0
 28 29  1  0
 28 36  1  0
 29 30  2  0
 30 31  1  0
 30 32  1  0
 32 33  1  0
 32 35  2  0
 33 34  1  0
 35 36  1  0
 36 37  2  0
M  CHG  1  34   1
M  END
