
     RDKit          3D

 37 40  0  0  0  0  0  0  0  0999 V2000
    6.3860   -0.0520    1.3880 C   0  0  0  0  0  0  0  0  0  0  0  0
    6.8930    0.9740    0.3790 C   0  0  0  0  0  0  0  0  0  0  0  0
    7.0340    0.3240   -0.9340 C   0  0  0  0  0  0  0  0  0  0  0  0
    8.2640    0.2640   -1.5020 C   0  0  0  0  0  0  0  0  0  0  0  0
    9.5550    0.7830   -0.9850 C   0  0  0  0  0  0  0  0  0  0  0  0
    8.1290   -0.4630   -2.7190 C   0  0  0  0  0  0  0  0  0  0  0  0
    8.9960   -0.7750   -3.5880 O   0  0  0  0  0  0  0  0  0  0  0  0
    6.7390   -0.8250   -2.8280 C   0  0  0  0  0  0  0  0  0  0  0  0
    6.0460   -0.3510   -1.7480 C   0  0  0  0  0  0  0  0  0  0  0  0
    4.6640   -0.6850   -1.5980 C   0  0  0  0  0  0  0  0  0  0  0  0
    4.3200   -1.6340   -2.4960 O   0  0  0  0  0  0  0  0  0  0  0  0
    3.5710   -0.3480   -0.8380 N   0  0  0  0  0  0  0  0  0  0  0  0
    3.5450    0.8600   -0.0570 C   0  0  0  0  0  0  0  0  0  0  0  0
    3.1440    0.6540    1.3800 C   0  0  0  0  0  0  0  0  0  0  0  0
    1.6680    0.5990    1.4520 N   0  0  0  0  0  0  0  0  0  0  0  0
    1.2120    1.6490    2.2530 C   0  0  0  0  0  0  0  0  0  0  0  0
    2.0430    2.4120    2.8850 O   0  0  0  0  0  0  0  0  0  0  0  0
   -0.1850    1.9000    2.3870 N   0  0  0  0  0  0  0  0  0  0  0  0
   -1.0350    1.0140    1.6740 C   0  0  0  0  0  0  0  0  0  0  0  0
   -2.4760    1.1920    1.7270 N   0  0  0  0  0  0  0  0  0  0  0  0
   -3.3500    0.4690    0.8760 C   0  0  0  0  0  0  0  0  0  0  0  0
   -4.7840    0.7370    1.0290 C   0  0  0  0  0  0  0  0  0  0  0  0
   -5.6290    0.0230    0.1730 C   0  0  0  0  0  0  0  0  0  0  0  0
   -6.9950    0.1900    0.2240 C   0  0  0  0  0  0  0  0  0  0  0  0
   -7.9310   -0.5530   -0.6710 C   0  0  1  0  0  0  0  0  0  0  0  0
   -8.8440   -1.3570    0.1990 C   0  0  0  0  0  0  0  0  0  0  0  0
   -8.6890    0.4500   -1.5220 C   0  0  0  0  0  0  0  0  0  0  0  0
   -9.6350   -0.2700   -2.4290 C   0  0  0  0  0  0  0  0  0  0  0  0
   -7.5780    1.0720    1.1250 C   0  0  0  0  0  0  0  0  0  0  0  0
   -6.7090    1.7530    1.9470 C   0  0  0  0  0  0  0  0  0  0  0  0
   -5.3650    1.5760    1.8830 N   0  0  0  0  0  0  0  0  0  0  0  0
   -0.5950    0.0560    0.9770 N   0  0  0  0  0  0  0  0  0  0  0  0
    0.7740   -0.2940    0.8030 C   0  0  2  0  0  0  0  0  0  0  0  0
    0.9000   -1.6870    1.4740 C   0  0  0  0  0  0  0  0  0  0  0  0
    1.1220   -0.5050   -0.6530 C   0  0  0  0  0  0  0  0  0  0  0  0
    2.4190   -1.2730   -0.7610 C   0  0  1  0  0  0  0  0  0  0  0  0
    2.3380   -2.3350   -1.7920 C   0  0  0  0  0  0  0  0  0  0  0  0
  1  2  1  0
  2  3  1  0
  3  4  2  0
  3  9  1  0
  4  5  1  0
  4  6  1  0
  6  7  2  0
  6  8  1  0
  8  9  2  0
  9 10  1  0
 10 11  2  0
 10 12  1  0
 12 13  1  0
 12 36  1  0
 13 14  1  0
 14 15  1  0
 15 16  1  0
 15 33  1  0
 16 17  2  0
 16 18  1  0
 18 19  1  0
 19 20  1  0
 19 32  2  0
 20 21  1  0
 21 22  1  0
 22 23  2  0
 22 31  1  0
 23 24  1  0
 24 25  1  0
 24 29  2  0
 25 26  1  1
 25 27  1  0
 27 28  1  0
 29 30  1  0
 30 31  2  0
 32 33  1  0
 33 34  1  1
 33 35  1  0
 35 36  1  0
 36 37  1  6
M  CHG  1  31   1
M  END
