
     RDKit          3D

 37 39  0  0  0  0  0  0  0  0999 V2000
   -8.9760   -1.8220    0.2690 C   0  0  0  0  0  0  0  0  0  0  0  0
   -7.7130   -1.0570    0.0610 C   0  0  0  0  0  0  0  0  0  0  0  0
   -7.7660    0.2800   -0.0310 C   0  0  0  0  0  0  0  0  0  0  0  0
   -6.5530    1.0300   -0.2350 C   0  0  0  0  0  0  0  0  0  0  0  0
   -6.4980    2.3390   -0.4040 C   0  0  0  0  0  0  0  0  0  0  0  0
   -7.4860    3.3710   -0.4490 C   0  0  1  0  0  0  0  0  0  0  0  0
   -8.9280    3.0860   -0.5520 C   0  0  0  0  0  0  0  0  0  0  0  0
   -7.2400    4.3440    0.7160 C   0  0  0  0  0  0  0  0  0  0  0  0
   -5.2060    0.3680   -0.2870 C   0  0  0  0  0  0  0  0  0  0  0  0
   -5.2930   -1.0770   -0.1760 C   0  0  0  0  0  0  0  0  0  0  0  0
   -4.0340   -1.9150   -0.2450 C   0  0  1  0  0  0  0  0  0  0  0  0
   -4.4190   -3.3590   -0.0370 C   0  0  0  0  0  0  0  0  0  0  0  0
   -3.4360   -1.8410   -1.5680 N   0  0  0  0  0  0  0  0  0  0  0  0
   -4.3110   -2.3120   -2.6530 C   0  0  0  0  0  0  0  0  0  0  0  0
   -2.1520   -1.3780   -1.8690 C   0  0  0  0  0  0  0  0  0  0  0  0
   -1.8010   -1.3850   -3.0910 O   0  0  0  0  0  0  0  0  0  0  0  0
   -1.1630   -0.8770   -0.8870 C   0  0  1  0  0  0  0  0  0  0  0  0
   -0.7680   -1.8620    0.1560 C   0  0  0  0  0  0  0  0  0  0  0  0
    0.6540   -2.3080    0.1370 C   0  0  0  0  0  0  0  0  0  0  0  0
    1.5660   -1.1920    0.0240 N   0  0  0  0  0  0  0  0  0  0  0  0
    2.8790   -1.3270    0.5700 C   0  0  0  0  0  0  0  0  0  0  0  0
    3.1950   -2.4210    1.1480 O   0  0  0  0  0  0  0  0  0  0  0  0
    3.8570   -0.3060    0.5020 N   0  0  0  0  0  0  0  0  0  0  0  0
    5.1550   -0.5420    1.0850 C   0  0  0  0  0  0  0  0  0  0  0  0
    6.0720    0.6090    0.9230 C   0  0  0  0  0  0  0  0  0  0  0  0
    5.6550    1.6210    0.3300 O   0  0  0  0  0  0  0  0  0  0  0  0
    7.3920    0.6190    1.4030 N   0  0  0  0  0  0  0  0  0  0  0  0
    8.3310    1.7060    1.2730 C   0  0  1  0  0  0  0  0  0  0  0  0
    8.8360    2.2280    2.5840 C   0  0  0  0  0  0  0  0  0  0  0  0
   10.1140    1.6260    2.8550 N   0  0  0  0  0  0  0  0  0  0  0  0
   10.4420    0.8030    1.7100 C   0  0  0  0  0  0  0  0  0  0  0  0
    9.5940    1.2990    0.5700 C   0  0  1  0  0  0  0  0  0  0  0  0
    9.3530    0.2300   -0.4710 C   0  0  0  0  0  0  0  0  0  0  0  0
   10.5580   -0.1600   -1.1460 N   0  0  0  0  0  0  0  0  0  0  0  0
    1.1240   -0.0020   -0.6250 C   0  0  0  0  0  0  0  0  0  0  0  0
    0.0560   -0.3540   -1.6300 C   0  0  0  0  0  0  0  0  0  0  0  0
   -6.4290   -1.7020   -0.0200 C   0  0  0  0  0  0  0  0  0  0  0  0
  1  2  1  0
  2  3  2  0
  2 37  1  0
  3  4  1  0
  4  5  2  3
  4  9  1  0
  5  6  1  0
  6  7  1  1
  6  8  1  0
  9 10  1  0
 10 11  1  0
 10 37  2  0
 11 12  1  6
 11 13  1  0
 13 14  1  0
 13 15  1  0
 15 16  2  0
 17 15  1  6
 17 18  1  0
 17 36  1  0
 18 19  1  0
 19 20  1  0
 20 21  1  0
 20 35  1  0
 21 22  2  0
 21 23  1  0
 23 24  1  0
 24 25  1  0
 25 26  2  0
 25 27  1  0
 28 27  1  1
 28 29  1  0
 28 32  1  0
 29 30  1  0
 30 31  1  0
 31 32  1  0
 32 33  1  6
 33 34  1  0
 35 36  1  0
M  CHG  1  34   1
M  END
