
     RDKit          3D

 37 39  0  0  0  0  0  0  0  0999 V2000
   -7.7860    1.7380   -3.5890 C   0  0  0  0  0  0  0  0  0  0  0  0
   -7.3070    0.8890   -2.6740 C   0  0  0  0  0  0  0  0  0  0  0  0
   -8.1710    0.2390   -1.7270 C   0  0  0  0  0  0  0  0  0  0  0  0
   -7.7530   -0.6010   -0.8220 C   0  0  0  0  0  0  0  0  0  0  0  0
   -8.7120   -1.2530    0.1490 C   0  0  0  0  0  0  0  0  0  0  0  0
   -7.9030   -1.9300    1.2480 C   0  0  0  0  0  0  0  0  0  0  0  0
   -6.7520   -1.0640    1.6680 C   0  0  0  0  0  0  0  0  0  0  0  0
   -5.6970   -1.0200    0.6150 C   0  0  2  0  0  0  0  0  0  0  0  0
   -4.8140    0.1450    0.8090 N   0  0  0  0  0  0  0  0  0  0  0  0
   -3.4310   -0.2730    0.6290 C   0  0  2  0  0  0  0  0  0  0  0  0
   -3.2530   -1.5070    1.5460 C   0  0  0  0  0  0  0  0  0  0  0  0
   -2.4520    0.7650    1.1240 C   0  0  2  0  0  0  0  0  0  0  0  0
   -2.7010    2.0860    0.5670 C   0  0  0  0  0  0  0  0  0  0  0  0
   -3.8940    2.5730    0.4460 O   0  0  0  0  0  0  0  0  0  0  0  0
   -1.7090    2.9360    0.1230 N   0  0  0  0  0  0  0  0  0  0  0  0
   -0.4520    2.5720   -0.0470 C   0  0  0  0  0  0  0  0  0  0  0  0
    0.5180    3.5200   -0.5200 C   0  0  0  0  0  0  0  0  0  0  0  0
    1.7580    3.3500   -0.7640 C   0  0  0  0  0  0  0  0  0  0  0  0
    2.5540    2.1700   -0.6480 C   0  0  0  0  0  0  0  0  0  0  0  0
    2.1060    1.0840   -0.2920 O   0  0  0  0  0  0  0  0  0  0  0  0
    3.9740    2.1820   -0.9510 N   0  0  0  0  0  0  0  0  0  0  0  0
    4.7220    0.9250   -0.8230 C   0  0  1  0  0  0  0  0  0  0  0  0
    5.6020    0.8040   -2.0420 C   0  0  0  0  0  0  0  0  0  0  0  0
    5.5430    0.9270    0.4180 C   0  0  0  0  0  0  0  0  0  0  0  0
    5.6090    1.9460    1.1200 O   0  0  0  0  0  0  0  0  0  0  0  0
    6.2420   -0.2400    0.7890 N   0  0  0  0  0  0  0  0  0  0  0  0
    7.0570   -0.2500    2.0100 C   0  0  0  0  0  0  0  0  0  0  0  0
    8.3570   -0.9300    1.6550 C   0  0  0  0  0  0  0  0  0  0  0  0
    8.6020   -0.8380    0.1580 C   0  0  1  0  0  0  0  0  0  0  0  0
    9.9800   -1.3540   -0.1450 C   0  0  0  0  0  0  0  0  0  0  0  0
    7.5810   -1.7080   -0.5780 C   0  0  0  0  0  0  0  0  0  0  0  0
    6.2170   -1.4920    0.0430 C   0  0  0  0  0  0  0  0  0  0  0  0
   -0.2320    1.2590    0.3750 N   0  0  0  0  0  0  0  0  0  0  0  0
   -1.0340    0.4030    0.8890 C   0  0  0  0  0  0  0  0  0  0  0  0
   -0.4440   -0.9500    1.2310 C   0  0  0  0  0  0  0  0  0  0  0  0
   -6.3610   -0.9920   -0.7170 C   0  0  0  0  0  0  0  0  0  0  0  0
   -5.7060   -1.3230   -1.8010 N   0  0  0  0  0  0  0  0  0  0  0  0
  1  2  2  0
  2  3  1  0
  3  4  2  3
  4  5  1  0
  4 36  1  0
  5  6  1  0
  6  7  1  0
  7  8  1  0
  8  9  1  1
  8 36  1  0
  9 10  1  0
 10 11  1  1
 10 12  1  0
 12 13  1  6
 12 34  1  0
 13 14  2  0
 13 15  1  0
 15 16  2  0
 16 17  1  0
 16 33  1  0
 17 18  2  3
 18 19  1  0
 19 20  2  0
 19 21  1  0
 21 22  1  0
 22 23  1  6
 22 24  1  0
 24 25  2  0
 24 26  1  0
 26 27  1  0
 26 32  1  0
 27 28  1  0
 28 29  1  0
 29 30  1  1
 29 31  1  0
 31 32  1  0
 33 34  2  0
 34 35  1  0
 36 37  2  0
M  CHG  1   9   1
M  END
