
     RDKit          3D

 35 38  0  0  0  0  0  0  0  0999 V2000
    8.5200    2.6900   -1.8400 C   0  0  0  0  0  0  0  0  0  0  0  0
    7.4440    1.8210   -1.4510 O   0  0  0  0  0  0  0  0  0  0  0  0
    6.1650    2.3610   -1.2250 C   0  0  0  0  0  0  0  0  0  0  0  0
    6.0650    3.6130   -1.4040 O   0  0  0  0  0  0  0  0  0  0  0  0
    5.0730    1.4950   -0.8130 C   0  0  0  0  0  0  0  0  0  0  0  0
    3.8920    1.9940   -0.5850 C   0  0  0  0  0  0  0  0  0  0  0  0
    2.6900    1.2780   -0.1690 C   0  0  0  0  0  0  0  0  0  0  0  0
    1.5600    1.9570    0.0280 C   0  0  0  0  0  0  0  0  0  0  0  0
    1.6610    3.7170   -0.2670 Cl  0  0  0  0  0  0  0  0  0  0  0  0
    0.3030    1.4640    0.5320 C   0  0  0  0  0  0  0  0  0  0  0  0
   -0.6590    0.7530   -0.3920 C   0  0  0  0  0  0  0  0  0  0  0  0
   -1.6670    0.1680    0.4920 N   0  0  0  0  0  0  0  0  0  0  0  0
   -2.9110    0.7470    0.5480 C   0  0  1  0  0  0  0  0  0  0  0  0
   -3.0430    2.2080    0.8790 C   0  0  0  0  0  0  0  0  0  0  0  0
   -3.9940    0.3210   -0.3590 C   0  0  0  0  0  0  0  0  0  0  0  0
   -3.9880   -0.2150   -1.6310 C   0  0  0  0  0  0  0  0  0  0  0  0
   -5.2630   -0.4260   -2.0100 O   0  0  0  0  0  0  0  0  0  0  0  0
   -6.0820   -0.0620   -1.0600 C   0  0  0  0  0  0  0  0  0  0  0  0
   -7.5660   -0.1260   -1.0570 C   0  0  0  0  0  0  0  0  0  0  0  0
   -8.2670   -0.6670   -2.0810 C   0  0  0  0  0  0  0  0  0  0  0  0
   -9.6570   -0.6880   -2.0760 C   0  0  0  0  0  0  0  0  0  0  0  0
  -10.3660   -0.1450   -0.9980 C   0  0  0  0  0  0  0  0  0  0  0  0
   -9.6450    0.3780   -0.0070 N   0  0  0  0  0  0  0  0  0  0  0  0
   -8.2810    0.4130    0.0140 C   0  0  0  0  0  0  0  0  0  0  0  0
   -5.3280    0.3950   -0.0490 N   0  0  0  0  0  0  0  0  0  0  0  0
   -1.5980   -1.2910    0.4390 C   0  0  0  0  0  0  0  0  0  0  0  0
   -0.4120   -1.6740    1.1490 C   0  0  0  0  0  0  0  0  0  0  0  0
    0.5110   -1.9590    1.6830 C   0  0  0  0  0  0  0  0  0  0  0  0
    1.7100   -2.3170    2.3740 C   0  0  0  0  0  0  0  0  0  0  0  0
    2.8790   -2.0620    1.5320 N   0  0  2  0  0  0  0  0  0  0  0  0
    3.9780   -2.8460    1.9970 C   0  0  2  0  0  0  0  0  0  0  0  0
    5.3760   -2.5960    1.5290 C   0  0  0  0  0  0  0  0  0  0  0  0
    4.6530   -3.7790    1.0130 C   0  0  0  0  0  0  0  0  0  0  0  0
    3.1190   -0.6450    1.4110 C   0  0  0  0  0  0  0  0  0  0  0  0
    2.8130   -0.1780   -0.0060 C   0  0  0  0  0  0  0  0  0  0  0  0
  1  2  1  0
  2  3  1  0
  3  4  2  0
  3  5  1  0
  5  6  2  3
  6  7  1  0
  7  8  2  0
  7 35  1  0
  8  9  1  0
  8 10  1  0
 10 11  1  0
 11 12  1  0
 12 13  1  0
 12 26  1  0
 13 14  1  6
 13 15  1  0
 15 16  2  0
 15 25  1  0
 16 17  1  0
 17 18  1  0
 18 19  1  0
 18 25  2  0
 19 20  2  0
 19 24  1  0
 20 21  1  0
 21 22  2  0
 22 23  1  0
 23 24  2  0
 26 27  1  0
 27 28  3  0
 28 29  1  0
 30 29  1  1
 30 31  1  0
 30 34  1  0
 31 32  1  6
 31 33  1  0
 32 33  1  0
 34 35  1  0
M  CHG  1  30   1
M  END
