
     RDKit          3D

 36 39  0  0  0  0  0  0  0  0999 V2000
   -4.9050    6.1820    1.1250 C   0  0  0  0  0  0  0  0  0  0  0  0
   -4.4750    4.9180    0.4390 C   0  0  0  0  0  0  0  0  0  0  0  0
   -5.3550    3.9160    0.1130 C   0  0  0  0  0  0  0  0  0  0  0  0
   -4.6110    2.9400   -0.4910 C   0  0  0  0  0  0  0  0  0  0  0  0
   -3.3050    3.3630   -0.5210 C   0  0  0  0  0  0  0  0  0  0  0  0
   -2.1940    2.6520   -1.0600 C   0  0  0  0  0  0  0  0  0  0  0  0
   -1.6670    1.4540   -0.6680 C   0  0  0  0  0  0  0  0  0  0  0  0
   -0.5250    1.0680   -1.4980 C   0  0  0  0  0  0  0  0  0  0  0  0
    0.7250    1.1710   -0.8810 N   0  0  1  0  0  0  0  0  0  0  0  0
    0.7770    1.1040    0.5380 C   0  0  0  0  0  0  0  0  0  0  0  0
    1.8600    0.5510   -1.4730 C   0  0  2  0  0  0  0  0  0  0  0  0
    2.2450    1.0290   -2.8410 C   0  0  0  0  0  0  0  0  0  0  0  0
    2.0020   -0.0640   -3.8550 C   0  0  0  0  0  0  0  0  0  0  0  0
    3.0300   -1.1520   -3.6340 C   0  0  0  0  0  0  0  0  0  0  0  0
    3.0600   -1.3870   -2.1650 N   0  0  0  0  0  0  0  0  0  0  0  0
    4.1930   -1.9830   -1.6320 C   0  0  0  0  0  0  0  0  0  0  0  0
    5.1570   -2.3250   -2.4370 O   0  0  0  0  0  0  0  0  0  0  0  0
    4.3990   -2.2590   -0.2330 C   0  0  0  0  0  0  0  0  0  0  0  0
    5.5840   -2.8620    0.1660 C   0  0  0  0  0  0  0  0  0  0  0  0
    5.8090   -3.1310    1.4780 C   0  0  0  0  0  0  0  0  0  0  0  0
    4.8760   -2.8180    2.4430 C   0  0  0  0  0  0  0  0  0  0  0  0
    5.1470   -3.1570    4.1470 Cl  0  0  0  0  0  0  0  0  0  0  0  0
    3.7020   -2.2150    1.9970 C   0  0  0  0  0  0  0  0  0  0  0  0
    2.6940   -1.8760    3.0440 C   0  0  0  0  0  0  0  0  0  0  0  0
    3.5210   -1.9700    0.7190 N   0  0  0  0  0  0  0  0  0  0  0  0
    1.8920   -0.9630   -1.4620 C   0  0  0  0  0  0  0  0  0  0  0  0
   -2.2640    0.8230    0.4470 C   0  0  0  0  0  0  0  0  0  0  0  0
   -3.1920    1.5630    1.0700 O   0  0  0  0  0  0  0  0  0  0  0  0
   -2.1000   -0.4280    1.0460 N   0  0  0  0  0  0  0  0  0  0  0  0
   -1.2680   -1.4740    0.5740 C   0  0  0  0  0  0  0  0  0  0  0  0
   -2.2410   -2.6290    0.2400 C   0  0  0  0  0  0  0  0  0  0  0  0
   -2.7310   -3.1060    1.5970 C   0  0  2  0  0  0  0  0  0  0  0  0
   -3.5030   -4.2190    1.4260 F   0  0  0  0  0  0  0  0  0  0  0  0
   -3.4600   -2.0250    2.3350 C   0  0  0  0  0  0  0  0  0  0  0  0
   -2.8550   -0.6850    2.2870 C   0  0  0  0  0  0  0  0  0  0  0  0
   -3.2900    4.5630    0.0550 O   0  0  0  0  0  0  0  0  0  0  0  0
  1  2  1  0
  2  3  2  0
  2 36  1  0
  3  4  1  0
  4  5  2  0
  5  6  1  0
  5 36  1  0
  6  7  2  3
  7  8  1  0
  7 27  1  0
  8  9  1  0
  9 10  1  1
  9 11  1  0
 11 12  1  6
 11 26  1  0
 12 13  1  0
 13 14  1  0
 14 15  1  0
 15 16  1  0
 15 26  1  0
 16 17  2  0
 16 18  1  0
 18 19  2  0
 18 25  1  0
 19 20  1  0
 20 21  2  0
 21 22  1  0
 21 23  1  0
 23 24  1  0
 23 25  2  0
 27 28  2  0
 27 29  1  0
 29 30  1  0
 29 35  1  0
 30 31  1  0
 31 32  1  0
 32 33  1  6
 32 34  1  0
 34 35  1  0
M  CHG  1   9   1
M  END
