
     RDKit          3D

 36 39  0  0  0  0  0  0  0  0999 V2000
   -8.5730   -0.3620   -0.0300 C   0  0  0  0  0  0  0  0  0  0  0  0
   -7.6780   -0.2420    1.1660 C   0  0  0  0  0  0  0  0  0  0  0  0
   -8.1800   -0.2070    2.3060 O   0  0  0  0  0  0  0  0  0  0  0  0
   -6.2750   -0.1720    0.9310 N   0  0  0  0  0  0  0  0  0  0  0  0
   -5.7190   -0.2170   -0.3780 C   0  0  0  0  0  0  0  0  0  0  0  0
   -4.2910   -0.5660   -0.4660 C   0  0  0  0  0  0  0  0  0  0  0  0
   -3.6730   -1.0450    0.7720 N   0  0  0  0  0  0  0  0  0  0  0  0
   -2.3100   -1.3380    0.6920 C   0  0  0  0  0  0  0  0  0  0  0  0
   -1.6460   -1.7560    1.6450 O   0  0  0  0  0  0  0  0  0  0  0  0
   -1.5670   -1.1570   -0.5770 C   0  0  0  0  0  0  0  0  0  0  0  0
   -0.9700    0.0680   -0.8960 C   0  0  0  0  0  0  0  0  0  0  0  0
   -0.2840    0.2660   -2.0700 C   0  0  0  0  0  0  0  0  0  0  0  0
    0.3150    1.5550   -2.3600 C   0  0  1  0  0  0  0  0  0  0  0  0
    0.6180    2.4140   -1.1970 C   0  0  0  0  0  0  0  0  0  0  0  0
    1.6350    3.2130   -1.5830 C   0  0  0  0  0  0  0  0  0  0  0  0
    1.9640    2.8370   -3.0110 C   0  0  0  0  0  0  0  0  0  0  0  0
    1.6840    1.4220   -2.9220 N   0  0  1  0  0  0  0  0  0  0  0  0
    2.4690    0.7250   -1.9850 C   0  0  0  0  0  0  0  0  0  0  0  0
    3.7400    1.2660   -1.5280 C   0  0  0  0  0  0  0  0  0  0  0  0
    4.2320    2.3300   -1.9200 O   0  0  0  0  0  0  0  0  0  0  0  0
    4.5340    0.5300   -0.5260 C   0  0  0  0  0  0  0  0  0  0  0  0
    5.6790    0.9770   -0.0900 C   0  0  0  0  0  0  0  0  0  0  0  0
    6.4260    0.2210    0.8960 C   0  0  0  0  0  0  0  0  0  0  0  0
    6.0950   -0.9830    1.4980 C   0  0  0  0  0  0  0  0  0  0  0  0
    7.0810   -1.3520    2.3750 C   0  0  0  0  0  0  0  0  0  0  0  0
    7.0700   -2.7980    3.3490 Cl  0  0  0  0  0  0  0  0  0  0  0  0
    8.0170   -0.3940    2.3240 N   0  0  0  0  0  0  0  0  0  0  0  0
    9.2490   -0.4230    3.1260 C   0  0  0  0  0  0  0  0  0  0  0  0
    7.6570    0.5680    1.4450 C   0  0  0  0  0  0  0  0  0  0  0  0
   -0.2140   -0.8260   -2.9340 C   0  0  0  0  0  0  0  0  0  0  0  0
   -0.7890   -2.0430   -2.6530 C   0  0  0  0  0  0  0  0  0  0  0  0
   -1.4690   -2.2050   -1.4650 C   0  0  0  0  0  0  0  0  0  0  0  0
   -2.0660   -3.3910   -1.1210 F   0  0  0  0  0  0  0  0  0  0  0  0
   -4.4140   -1.2100    1.9820 C   0  0  1  0  0  0  0  0  0  0  0  0
   -3.5340   -1.2650    3.1850 C   0  0  0  0  0  0  0  0  0  0  0  0
   -5.4060   -0.0510    2.0830 C   0  0  0  0  0  0  0  0  0  0  0  0
  1  2  1  0
  2  3  2  0
  2  4  1  0
  4  5  1  0
  4 36  1  0
  5  6  1  0
  6  7  1  0
  7  8  1  0
  7 34  1  0
  8  9  2  0
  8 10  1  0
 10 11  2  0
 10 32  1  0
 11 12  1  0
 13 12  1  1
 12 30  2  0
 13 14  1  0
 13 17  1  0
 14 15  2  0
 15 16  1  0
 16 17  1  0
 17 18  1  1
 18 19  1  0
 19 20  2  0
 19 21  1  0
 21 22  2  3
 22 23  1  0
 23 24  1  0
 23 29  2  0
 24 25  2  0
 25 26  1  0
 25 27  1  0
 27 28  1  0
 27 29  1  0
 30 31  1  0
 31 32  2  0
 32 33  1  0
 34 35  1  1
 34 36  1  0
M  CHG  1  17   1
M  END
