
     RDKit          3D

 36 39  0  0  0  0  0  0  0  0999 V2000
   -2.4190   -4.5180   -0.3680 C   0  0  0  0  0  0  0  0  0  0  0  0
   -2.0920   -3.1070   -0.1200 C   0  0  0  0  0  0  0  0  0  0  0  0
   -1.2630   -2.7930    0.8650 C   0  0  0  0  0  0  0  0  0  0  0  0
   -0.7000   -3.8510    1.6700 C   0  0  0  0  0  0  0  0  0  0  0  0
    0.1160   -3.6020    2.6500 C   0  0  0  0  0  0  0  0  0  0  0  0
    0.6400   -4.6330    3.4030 F   0  0  0  0  0  0  0  0  0  0  0  0
    0.5800   -1.9740    3.0590 Cl  0  0  0  0  0  0  0  0  0  0  0  0
   -0.9440   -1.4520    1.1120 O   0  0  0  0  0  0  0  0  0  0  0  0
   -1.8000   -0.4300    0.6960 C   0  0  0  0  0  0  0  0  0  0  0  0
   -3.0940   -0.5970    0.8310 N   0  0  0  0  0  0  0  0  0  0  0  0
   -3.7520    0.5430    0.3520 C   0  0  0  0  0  0  0  0  0  0  0  0
   -4.9030    1.1600    0.1300 C   0  0  0  0  0  0  0  0  0  0  0  0
   -6.1940    0.6960    0.3990 C   0  0  0  0  0  0  0  0  0  0  0  0
   -7.2900    1.4770    0.1000 C   0  0  0  0  0  0  0  0  0  0  0  0
   -7.0430    2.7080   -0.4630 C   0  0  0  0  0  0  0  0  0  0  0  0
   -5.7820    3.1830   -0.7350 C   0  0  0  0  0  0  0  0  0  0  0  0
   -5.5530    4.5220   -1.3470 C   0  0  0  0  0  0  0  0  0  0  0  0
   -4.6840    2.3890   -0.4310 C   0  0  0  0  0  0  0  0  0  0  0  0
   -3.4030    2.6010   -0.5860 N   0  0  0  0  0  0  0  0  0  0  0  0
   -2.7150    1.4540   -0.1050 C   0  0  0  0  0  0  0  0  0  0  0  0
   -1.5320    0.8590    0.1070 C   0  0  0  0  0  0  0  0  0  0  0  0
   -0.2400    1.4450   -0.2480 C   0  0  0  0  0  0  0  0  0  0  0  0
    0.6450    1.7120    0.8630 N   0  0  1  0  0  0  0  0  0  0  0  0
   -0.1140    1.7540    2.0680 C   0  0  0  0  0  0  0  0  0  0  0  0
    1.8070    0.8370    0.8960 C   0  0  2  0  0  0  0  0  0  0  0  0
    2.5160    0.9730    2.2410 C   0  0  0  0  0  0  0  0  0  0  0  0
    2.7330    1.1710   -0.2230 C   0  0  0  0  0  0  0  0  0  0  0  0
    2.4770    2.1500   -0.9670 O   0  0  0  0  0  0  0  0  0  0  0  0
    3.9290    0.4370   -0.5230 N   0  0  0  0  0  0  0  0  0  0  0  0
    4.7000    0.9620   -1.6010 C   0  0  0  0  0  0  0  0  0  0  0  0
    4.9510    0.0910   -2.7670 C   0  0  0  0  0  0  0  0  0  0  0  0
    5.7120   -1.0160   -2.5500 O   0  0  0  0  0  0  0  0  0  0  0  0
    6.0590   -1.2180   -1.2230 C   0  0  0  0  0  0  0  0  0  0  0  0
    4.8460   -1.8120   -0.5500 C   0  0  2  0  0  0  0  0  0  0  0  0
    3.8400   -2.3160   -1.5760 C   0  0  0  0  0  0  0  0  0  0  0  0
    4.2050   -0.7270    0.2810 C   0  0  0  0  0  0  0  0  0  0  0  0
  1  2  1  0
  2  3  2  3
  3  4  1  0
  3  8  1  0
  4  5  2  3
  5  6  1  0
  5  7  1  0
  8  9  1  0
  9 10  2  0
  9 21  1  0
 10 11  1  0
 11 12  2  0
 11 20  1  0
 12 13  1  0
 12 18  1  0
 13 14  2  0
 14 15  1  0
 15 16  2  0
 16 17  1  0
 16 18  1  0
 18 19  2  0
 19 20  1  0
 20 21  2  0
 21 22  1  0
 22 23  1  0
 23 24  1  1
 23 25  1  0
 25 26  1  1
 25 27  1  0
 27 28  2  0
 27 29  1  0
 29 30  1  0
 29 36  1  0
 30 31  1  0
 31 32  1  0
 32 33  1  0
 33 34  1  0
 34 35  1  6
 34 36  1  0
M  CHG  1  23   1
M  END
