
     RDKit          3D

 47 49  0  0  0  0  0  0  0  0999 V2000
   -9.3310   -2.1910    3.3510 C   0  0  0  0  0  0  0  0  0  0  0  0
   -8.4020   -2.7310    2.4080 N   0  0  0  0  0  0  0  0  0  0  0  0
   -7.2220   -1.9750    2.0890 C   0  0  0  0  0  0  0  0  0  0  0  0
   -7.0570   -0.8730    2.6530 O   0  0  0  0  0  0  0  0  0  0  0  0
   -6.2690   -2.5180    1.1240 C   0  0  0  0  0  0  0  0  0  0  0  0
   -5.1270   -1.6300    0.7640 C   0  0  0  0  0  0  0  0  0  0  0  0
   -5.5550   -0.3400    0.1100 C   0  0  2  0  0  0  0  0  0  0  0  0
   -6.3110   -0.6640   -1.1600 C   0  0  0  0  0  0  0  0  0  0  0  0
   -4.4150    0.5090   -0.1370 N   0  0  0  0  0  0  0  0  0  0  0  0
   -3.3900    0.0710   -1.0050 C   0  0  0  0  0  0  0  0  0  0  0  0
   -3.4790   -1.0010   -1.6130 O   0  0  0  0  0  0  0  0  0  0  0  0
   -2.1510    0.9090   -1.2100 C   0  0  0  0  0  0  0  0  0  0  0  0
   -1.3040    0.2260   -2.1290 N   0  0  0  0  0  0  0  0  0  0  0  0
   -1.6920    0.0890   -3.5180 C   0  0  0  0  0  0  0  0  0  0  0  0
   -0.0710   -0.3520   -1.7350 C   0  0  0  0  0  0  0  0  0  0  0  0
    0.2010   -1.6900   -1.8880 C   0  0  0  0  0  0  0  0  0  0  0  0
    1.3890   -2.2600   -1.5130 C   0  0  0  0  0  0  0  0  0  0  0  0
    2.4170   -1.4910   -0.9390 C   0  0  0  0  0  0  0  0  0  0  0  0
    3.6590   -2.1460   -0.6160 C   0  0  0  0  0  0  0  0  0  0  0  0
    3.7410   -3.3860   -1.0800 O   0  0  0  0  0  0  0  0  0  0  0  0
    4.7710   -1.7220    0.0870 N   0  0  0  0  0  0  0  0  0  0  0  0
    4.9670   -0.4710    0.7470 C   0  0  0  0  0  0  0  0  0  0  0  0
    5.5530    0.6180   -0.0450 C   0  0  0  0  0  0  0  0  0  0  0  0
    5.8440    0.4460   -1.3900 C   0  0  0  0  0  0  0  0  0  0  0  0
    6.3700    1.5060   -2.0970 C   0  0  0  0  0  0  0  0  0  0  0  0
    6.6040    2.7190   -1.4800 C   0  0  0  0  0  0  0  0  0  0  0  0
    6.3130    2.8810   -0.1500 C   0  0  0  0  0  0  0  0  0  0  0  0
    6.5450    4.1770    0.5800 C   0  0  0  0  0  0  0  0  0  0  0  0
    5.7810    1.8310    0.5970 C   0  0  0  0  0  0  0  0  0  0  0  0
    5.4880    2.0200    2.0180 C   0  0  0  0  0  0  0  0  0  0  0  0
    5.8780   -2.7270    0.1690 C   0  0  2  0  0  0  0  0  0  0  0  0
    6.3160   -3.1950   -1.1780 C   0  0  0  0  0  0  0  0  0  0  0  0
    5.4110   -3.8970    0.9530 C   0  0  0  0  0  0  0  0  0  0  0  0
    4.2500   -3.8890    1.4410 O   0  0  0  0  0  0  0  0  0  0  0  0
    6.2080   -5.0090    1.1720 O   0  0  0  0  0  0  0  0  0  0  0  0
    5.7880   -6.1370    1.9150 C   0  0  0  0  0  0  0  0  0  0  0  0
    2.1450   -0.1530   -0.7870 C   0  0  0  0  0  0  0  0  0  0  0  0
    0.9350    0.4020   -1.1740 C   0  0  0  0  0  0  0  0  0  0  0  0
    0.7180    1.7410   -1.0000 O   0  0  0  0  0  0  0  0  0  0  0  0
    1.7030    2.5710   -0.4370 C   0  0  0  0  0  0  0  0  0  0  0  0
   -4.2890    1.7770    0.4860 C   0  0  0  0  0  0  0  0  0  0  0  0
   -3.7520    1.8860    1.7430 C   0  0  0  0  0  0  0  0  0  0  0  0
   -3.6360    3.1320    2.3210 C   0  0  0  0  0  0  0  0  0  0  0  0
   -4.0330    4.2950    1.7030 C   0  0  0  0  0  0  0  0  0  0  0  0
   -4.5740    4.1670    0.4320 C   0  0  0  0  0  0  0  0  0  0  0  0
   -5.0150    5.3980   -0.2750 C   0  0  0  0  0  0  0  0  0  0  0  0
   -4.6940    2.9320   -0.1520 C   0  0  0  0  0  0  0  0  0  0  0  0
  1  2  1  0
  2  3  1  0
  3  4  2  0
  3  5  1  0
  5  6  1  0
  6  7  1  0
  7  8  1  6
  7  9  1  0
  9 10  1  0
  9 41  1  0
 10 11  2  0
 10 12  1  0
 12 13  1  0
 13 14  1  0
 13 15  1  0
 15 16  2  0
 15 38  1  0
 16 17  1  0
 17 18  2  0
 18 19  1  0
 18 37  1  0
 19 20  2  0
 19 21  1  0
 21 22  1  0
 21 31  1  0
 22 23  1  0
 23 24  2  0
 23 29  1  0
 24 25  1  0
 25 26  2  0
 26 27  1  0
 27 28  1  0
 27 29  2  0
 29 30  1  0
 31 32  1  6
 31 33  1  0
 33 34  2  0
 33 35  1  0
 35 36  1  0
 37 38  2  0
 38 39  1  0
 39 40  1  0
 41 42  2  0
 41 47  1  0
 42 43  1  0
 43 44  2  0
 44 45  1  0
 45 46  1  0
 45 47  2  0
M  END
