
     RDKit          3D

 47 50  0  0  0  0  0  0  0  0999 V2000
   -3.4830   -0.9060    0.8760 C   0  0  0  0  0  0  0  0  0  0  0  0
   -2.6790   -1.0440   -0.3350 C   0  0  0  0  0  0  0  0  0  0  0  0
   -2.5880   -2.2540   -0.8440 C   0  0  0  0  0  0  0  0  0  0  0  0
   -3.1110   -3.5080   -0.4340 C   0  0  0  0  0  0  0  0  0  0  0  0
   -2.8520   -4.5310   -1.2060 O   0  0  0  0  0  0  0  0  0  0  0  0
   -3.8550   -3.8150    0.6730 O   0  0  0  0  0  0  0  0  0  0  0  0
   -4.3290   -5.1230    0.9970 C   0  0  0  0  0  0  0  0  0  0  0  0
   -3.1990   -6.1080    1.1670 C   0  0  0  0  0  0  0  0  0  0  0  0
   -2.2970   -5.6490    2.2930 C   0  0  2  0  0  0  0  0  0  0  0  0
   -1.1380   -6.6520    2.4080 C   0  0  0  0  0  0  0  0  0  0  0  0
   -3.0560   -5.6970    3.5550 C   0  0  0  0  0  0  0  0  0  0  0  0
   -3.6700   -5.7220    4.5460 N   0  0  0  0  0  0  0  0  0  0  0  0
   -1.8840    0.0150   -0.9300 C   0  0  0  0  0  0  0  0  0  0  0  0
   -0.6550   -0.5190   -1.6100 C   0  0  0  0  0  0  0  0  0  0  0  0
    0.1240    0.2080   -2.2170 O   0  0  0  0  0  0  0  0  0  0  0  0
   -0.3450   -1.8410   -1.5690 O   0  0  0  0  0  0  0  0  0  0  0  0
    0.7610   -2.5100   -2.0890 C   0  0  0  0  0  0  0  0  0  0  0  0
    2.0380   -2.1340   -1.4470 C   0  0  0  0  0  0  0  0  0  0  0  0
    3.2190   -2.4330   -2.0710 C   0  0  0  0  0  0  0  0  0  0  0  0
    4.4580   -2.1840   -1.5030 C   0  0  0  0  0  0  0  0  0  0  0  0
    4.5320   -1.6180   -0.2680 C   0  0  0  0  0  0  0  0  0  0  0  0
    5.7180   -1.3500    0.3620 O   0  0  0  0  0  0  0  0  0  0  0  0
    7.0210   -1.5480   -0.0720 C   0  0  1  0  0  0  0  0  0  0  0  0
    7.3110   -0.7220   -1.3120 C   0  0  0  0  0  0  0  0  0  0  0  0
    8.0220   -1.1070    1.0070 C   0  0  0  0  0  0  0  0  0  0  0  0
    7.3140   -3.0140   -0.3700 C   0  0  0  0  0  0  0  0  0  0  0  0
    3.3220   -1.2950    0.4040 C   0  0  0  0  0  0  0  0  0  0  0  0
    2.1190   -1.5610   -0.2030 C   0  0  0  0  0  0  0  0  0  0  0  0
   -1.8620    1.2880   -0.6720 C   0  0  0  0  0  0  0  0  0  0  0  0
   -0.9560    2.0880   -1.5110 N   0  0  0  0  0  0  0  0  0  0  0  0
   -0.3520    3.3220   -1.1350 C   0  0  0  0  0  0  0  0  0  0  0  0
    0.9310    3.4720   -1.5620 C   0  0  0  0  0  0  0  0  0  0  0  0
    1.6550    4.5770   -1.1900 C   0  0  0  0  0  0  0  0  0  0  0  0
    1.0780    5.5570   -0.3660 C   0  0  0  0  0  0  0  0  0  0  0  0
   -0.2350    5.4270    0.0850 C   0  0  0  0  0  0  0  0  0  0  0  0
   -0.8900    4.3200   -0.3250 C   0  0  0  0  0  0  0  0  0  0  0  0
   -2.2800    4.3320    0.1590 C   0  0  0  0  0  0  0  0  0  0  0  0
   -2.9960    3.2120    0.6150 C   0  0  0  0  0  0  0  0  0  0  0  0
   -4.2330    3.3740    1.1590 C   0  0  0  0  0  0  0  0  0  0  0  0
   -4.7420    4.6140    1.2400 N   0  0  0  0  0  0  0  0  0  0  0  0
   -4.0490    5.7000    0.7880 C   0  0  0  0  0  0  0  0  0  0  0  0
   -4.6300    7.0560    0.8320 C   0  0  0  0  0  0  0  0  0  0  0  0
   -5.3330    7.4930   -0.3660 C   0  0  0  0  0  0  0  0  0  0  0  0
   -5.5320    6.8250   -1.3340 O   0  0  0  0  0  0  0  0  0  0  0  0
   -2.7700    5.6020    0.2170 C   0  0  0  0  0  0  0  0  0  0  0  0
   -2.0790    6.7130   -0.3990 C   0  0  0  0  0  0  0  0  0  0  0  0
   -2.5690    1.8370    0.4610 N   0  0  0  0  0  0  0  0  0  0  0  0
  1  2  1  0
  2  3  2  3
  2 13  1  0
  3  4  1  0
  4  5  2  0
  4  6  1  0
  6  7  1  0
  7  8  1  0
  8  9  1  0
  9 10  1  1
  9 11  1  0
 11 12  3  0
 13 14  1  0
 13 29  2  3
 14 15  2  0
 14 16  1  0
 16 17  1  0
 17 18  1  0
 18 19  2  0
 18 28  1  0
 19 20  1  0
 20 21  2  0
 21 22  1  0
 21 27  1  0
 22 23  1  0
 23 24  1  6
 23 25  1  0
 23 26  1  0
 27 28  2  0
 29 30  1  0
 29 47  1  0
 30 31  1  0
 31 32  2  0
 31 36  1  0
 32 33  1  0
 33 34  2  0
 34 35  1  0
 35 36  2  0
 36 37  1  0
 37 38  2  0
 37 45  1  0
 38 39  1  0
 38 47  1  0
 39 40  2  0
 40 41  1  0
 41 42  1  0
 41 45  2  0
 42 43  1  0
 43 44  2  0
 45 46  1  0
M  END
