
     RDKit          3D

 35 38  0  0  0  0  0  0  0  0999 V2000
    1.7860    5.7370   -1.3860 C   0  0  0  0  0  0  0  0  0  0  0  0
    1.4140    4.3920   -1.9780 C   0  0  0  0  0  0  0  0  0  0  0  0
    0.5960    4.4600   -3.2000 C   0  0  0  0  0  0  0  0  0  0  0  0
    1.8750    3.3090   -1.3910 C   0  0  0  0  0  0  0  0  0  0  0  0
    1.6580    1.9080   -1.7610 C   0  0  0  0  0  0  0  0  0  0  0  0
    1.1390    1.0480   -0.7340 N   0  0  0  0  0  0  0  0  0  0  0  0
   -0.1830    0.7550   -0.4080 C   0  0  0  0  0  0  0  0  0  0  0  0
   -0.2800   -0.1490    0.5500 O   0  0  0  0  0  0  0  0  0  0  0  0
   -1.4020    1.2360   -0.9030 N   0  0  0  0  0  0  0  0  0  0  0  0
   -1.5720    2.2520   -1.9120 C   0  0  0  0  0  0  0  0  0  0  0  0
   -2.6350    0.6640   -0.3640 C   0  0  1  0  0  0  0  0  0  0  0  0
   -2.7730   -0.7990   -0.5800 C   0  0  0  0  0  0  0  0  0  0  0  0
   -3.2410   -1.5880    0.5950 C   0  0  0  0  0  0  0  0  0  0  0  0
   -4.3280   -0.9760    1.4100 C   0  0  2  0  0  0  0  0  0  0  0  0
   -5.6790   -1.4050    1.0780 C   0  0  0  0  0  0  0  0  0  0  0  0
   -6.4340   -2.0610    2.0260 C   0  0  0  0  0  0  0  0  0  0  0  0
   -7.7270   -2.4960    1.7710 C   0  0  0  0  0  0  0  0  0  0  0  0
   -8.2890   -2.2850    0.5670 N   0  0  0  0  0  0  0  0  0  0  0  0
   -7.5610   -1.6410   -0.3760 C   0  0  0  0  0  0  0  0  0  0  0  0
   -6.2720   -1.1980   -0.1490 C   0  0  0  0  0  0  0  0  0  0  0  0
   -4.2700    0.5500    1.3920 C   0  0  0  0  0  0  0  0  0  0  0  0
   -2.8130    0.9640    1.1090 C   0  0  0  0  0  0  0  0  0  0  0  0
    2.1340    0.3410    0.0880 C   0  0  0  0  0  0  0  0  0  0  0  0
    2.2540    0.5700    1.4300 C   0  0  0  0  0  0  0  0  0  0  0  0
    3.2090   -0.1270    2.1860 C   0  0  0  0  0  0  0  0  0  0  0  0
    4.0230   -1.0440    1.5650 C   0  0  0  0  0  0  0  0  0  0  0  0
    3.9120   -1.2840    0.2170 C   0  0  0  0  0  0  0  0  0  0  0  0
    4.7150   -2.2040   -0.4560 O   0  0  0  0  0  0  0  0  0  0  0  0
    5.6680   -2.9770    0.1790 C   0  0  0  0  0  0  0  0  0  0  0  0
    5.2880   -4.2310    0.6600 C   0  0  0  0  0  0  0  0  0  0  0  0
    6.2040   -5.0360    1.3000 C   0  0  0  0  0  0  0  0  0  0  0  0
    7.5140   -4.6540    1.4930 C   0  0  0  0  0  0  0  0  0  0  0  0
    7.9000   -3.4140    1.0200 C   0  0  0  0  0  0  0  0  0  0  0  0
    6.9770   -2.6110    0.3800 C   0  0  0  0  0  0  0  0  0  0  0  0
    2.9570   -0.5760   -0.5000 C   0  0  0  0  0  0  0  0  0  0  0  0
  1  2  1  0
  2  3  1  0
  2  4  2  3
  4  5  1  0
  5  6  1  0
  6  7  1  0
  6 23  1  0
  7  8  2  0
  7  9  1  0
  9 10  1  0
 11  9  1  1
 11 12  1  0
 11 22  1  0
 12 13  1  0
 13 14  1  0
 14 15  1  6
 14 21  1  0
 15 16  2  0
 15 20  1  0
 16 17  1  0
 17 18  2  0
 18 19  1  0
 19 20  2  0
 21 22  1  0
 23 24  2  0
 23 35  1  0
 24 25  1  0
 25 26  2  0
 26 27  1  0
 27 28  1  0
 27 35  2  0
 28 29  1  0
 29 30  2  0
 29 34  1  0
 30 31  1  0
 31 32  2  0
 32 33  1  0
 33 34  2  0
M  END
