
     RDKit          3D

 47 51  0  0  0  0  0  0  0  0999 V2000
    9.4870   -2.3340    3.1190 C   0  0  0  0  0  0  0  0  0  0  0  0
    9.7230   -1.5790    1.8550 C   0  0  0  0  0  0  0  0  0  0  0  0
    9.1940   -2.2690    0.6530 C   0  0  0  0  0  0  0  0  0  0  0  0
    7.7330   -2.5360    0.6200 C   0  0  1  0  0  0  0  0  0  0  0  0
    7.2040   -3.3570    1.6510 N   0  0  0  0  0  0  0  0  0  0  0  0
    5.8460   -2.9700    1.8070 C   0  0  0  0  0  0  0  0  0  0  0  0
    4.9100   -3.6410    2.3550 O   0  0  0  0  0  0  0  0  0  0  0  0
    5.6490   -1.6730    1.2480 N   0  0  0  0  0  0  0  0  0  0  0  0
    4.4290   -0.9100    1.1920 C   0  0  0  0  0  0  0  0  0  0  0  0
    3.2350   -1.4240    0.7410 C   0  0  0  0  0  0  0  0  0  0  0  0
    2.0960   -0.6460    0.7040 C   0  0  0  0  0  0  0  0  0  0  0  0
    2.1060    0.6750    1.1160 C   0  0  0  0  0  0  0  0  0  0  0  0
    0.9980    1.5010    1.1020 O   0  0  0  0  0  0  0  0  0  0  0  0
   -0.2820    0.9870    0.6290 C   0  0  0  0  0  0  0  0  0  0  0  0
   -1.1550    0.6550    1.5050 C   0  0  0  0  0  0  0  0  0  0  0  0
   -2.4730    0.1330    1.4920 C   0  0  0  0  0  0  0  0  0  0  0  0
   -3.1090   -0.0970    2.6430 C   0  0  0  0  0  0  0  0  0  0  0  0
   -2.6430    0.1140    3.9820 C   0  0  0  0  0  0  0  0  0  0  0  0
   -3.4690   -0.1940    4.9560 O   0  0  0  0  0  0  0  0  0  0  0  0
   -1.4600    0.5910    4.4580 O   0  0  0  0  0  0  0  0  0  0  0  0
   -1.1490    0.7430    5.8240 C   0  0  0  0  0  0  0  0  0  0  0  0
   -3.1980   -0.1890    0.2480 C   0  0  0  0  0  0  0  0  0  0  0  0
   -2.6800   -0.0170   -0.8500 O   0  0  0  0  0  0  0  0  0  0  0  0
   -4.5300   -0.7140    0.2190 N   0  0  0  0  0  0  0  0  0  0  0  0
   -5.2420   -1.0340   -0.9610 C   0  0  0  0  0  0  0  0  0  0  0  0
   -6.6120   -1.3100   -0.8360 C   0  0  0  0  0  0  0  0  0  0  0  0
   -7.4250   -1.6400   -1.8760 C   0  0  0  0  0  0  0  0  0  0  0  0
   -6.8990   -1.7150   -3.1370 C   0  0  0  0  0  0  0  0  0  0  0  0
   -7.8110   -2.0770   -4.2600 C   0  0  0  0  0  0  0  0  0  0  0  0
   -5.5680   -1.4580   -3.3230 C   0  0  0  0  0  0  0  0  0  0  0  0
   -5.0140   -1.5420   -4.6950 C   0  0  0  0  0  0  0  0  0  0  0  0
   -4.7530   -1.1200   -2.2320 C   0  0  0  0  0  0  0  0  0  0  0  0
   -0.3160    0.9520   -0.7610 N   0  0  0  0  0  0  0  0  0  0  0  0
   -0.5000    2.2300   -1.4800 C   0  0  1  0  0  0  0  0  0  0  0  0
   -0.4760    1.8910   -2.9330 C   0  0  0  0  0  0  0  0  0  0  0  0
   -1.3550    2.7990   -3.7180 C   0  0  0  0  0  0  0  0  0  0  0  0
   -2.7880    2.5570   -3.2170 C   0  0  0  0  0  0  0  0  0  0  0  0
   -2.7970    3.1500   -1.8370 C   0  0  0  0  0  0  0  0  0  0  0  0
   -3.8690    3.8500   -1.3870 C   0  0  0  0  0  0  0  0  0  0  0  0
   -3.8570    4.4020   -0.1340 C   0  0  0  0  0  0  0  0  0  0  0  0
   -2.7710    4.2690    0.7070 C   0  0  0  0  0  0  0  0  0  0  0  0
   -1.6850    3.5460    0.2190 C   0  0  0  0  0  0  0  0  0  0  0  0
   -1.6790    2.9840   -1.0360 C   0  0  0  0  0  0  0  0  0  0  0  0
    3.3160    1.1840    1.5690 C   0  0  0  0  0  0  0  0  0  0  0  0
    4.4560    0.4120    1.6080 C   0  0  0  0  0  0  0  0  0  0  0  0
    6.9240   -1.2830    0.7480 C   0  0  0  0  0  0  0  0  0  0  0  0
    7.2850   -0.1100    0.4730 O   0  0  0  0  0  0  0  0  0  0  0  0
  1  2  1  0
  2  3  1  0
  4  3  1  1
  4  5  1  0
  4 46  1  0
  5  6  1  0
  6  7  2  0
  6  8  1  0
  8  9  1  0
  8 46  1  0
  9 10  2  0
  9 45  1  0
 10 11  1  0
 11 12  2  0
 12 13  1  0
 12 44  1  0
 13 14  1  0
 14 15  2  3
 14 33  1  0
 15 16  1  0
 16 17  2  3
 16 22  1  0
 17 18  1  0
 18 19  2  0
 18 20  1  0
 20 21  1  0
 22 23  2  0
 22 24  1  0
 24 25  1  0
 25 26  2  0
 25 32  1  0
 26 27  1  0
 27 28  2  0
 28 29  1  0
 28 30  1  0
 30 31  1  0
 30 32  2  0
 34 33  1  1
 34 35  1  0
 34 43  1  0
 35 36  1  0
 36 37  1  0
 37 38  1  0
 38 39  2  0
 38 43  1  0
 39 40  1  0
 40 41  2  0
 41 42  1  0
 42 43  2  0
 44 45  2  0
 46 47  2  0
M  END
