
     RDKit          3D

 36 39  0  0  0  0  0  0  0  0999 V2000
   -6.0260    2.6090    2.5310 C   0  0  0  0  0  0  0  0  0  0  0  0
   -6.5040    1.4180    1.7760 C   0  0  0  0  0  0  0  0  0  0  0  0
   -7.7100    1.3510    1.2580 C   0  0  0  0  0  0  0  0  0  0  0  0
   -8.5380    2.4280    1.4340 F   0  0  0  0  0  0  0  0  0  0  0  0
   -5.5590    0.2600    1.6090 C   0  0  0  0  0  0  0  0  0  0  0  0
   -4.3580    0.7900    0.8690 C   0  0  0  0  0  0  0  0  0  0  0  0
   -3.4290   -0.2080    0.6940 O   0  0  0  0  0  0  0  0  0  0  0  0
   -3.8800   -1.2650   -0.0310 C   0  0  0  0  0  0  0  0  0  0  0  0
   -2.8390   -2.3380   -0.2500 C   0  0  0  0  0  0  0  0  0  0  0  0
   -1.6420   -1.8570   -0.9820 C   0  0  0  0  0  0  0  0  0  0  0  0
   -1.4750   -0.5720   -1.4520 C   0  0  0  0  0  0  0  0  0  0  0  0
   -0.3070   -0.2190   -2.1340 C   0  0  0  0  0  0  0  0  0  0  0  0
    0.7180   -1.1140   -2.3680 C   0  0  0  0  0  0  0  0  0  0  0  0
    1.8800   -0.7000   -3.0730 N   0  0  0  0  0  0  0  0  0  0  0  0
    2.9210   -0.2030   -2.3570 C   0  0  0  0  0  0  0  0  0  0  0  0
    4.0780    0.2200   -2.9590 C   0  0  0  0  0  0  0  0  0  0  0  0
    4.1610    0.1270   -4.3390 C   0  0  0  0  0  0  0  0  0  0  0  0
    5.2270    0.5170   -4.8890 O   0  0  0  0  0  0  0  0  0  0  0  0
    3.1150   -0.3670   -5.0100 N   0  0  0  0  0  0  0  0  0  0  0  0
    1.9860   -0.7790   -4.4080 C   0  0  0  0  0  0  0  0  0  0  0  0
    0.9980   -1.2450   -5.0300 O   0  0  0  0  0  0  0  0  0  0  0  0
    5.2000    0.7580   -2.1620 C   0  0  0  0  0  0  0  0  0  0  0  0
    4.9760    0.7950   -0.7110 C   0  0  0  0  0  0  0  0  0  0  0  0
    3.8870    0.4030   -0.0800 C   0  0  0  0  0  0  0  0  0  0  0  0
    3.7960    0.4950    1.3790 C   0  0  0  0  0  0  0  0  0  0  0  0
    2.7710    0.1460    2.1960 C   0  0  0  0  0  0  0  0  0  0  0  0
    3.1560    0.4220    3.5130 C   0  0  0  0  0  0  0  0  0  0  0  0
    4.4200    0.9320    3.4030 C   0  0  0  0  0  0  0  0  0  0  0  0
    5.2220    1.3680    4.6010 C   0  0  0  0  0  0  0  0  0  0  0  0
    6.4590    1.8810    4.2030 O   0  0  0  0  0  0  0  0  0  0  0  0
    4.7460    0.9560    2.1560 O   0  0  0  0  0  0  0  0  0  0  0  0
    2.8160   -0.1150   -0.9070 C   0  0  0  0  0  0  0  0  0  0  0  0
    1.7630   -0.4990   -0.3610 O   0  0  0  0  0  0  0  0  0  0  0  0
    0.5370   -2.3970   -1.8920 C   0  0  0  0  0  0  0  0  0  0  0  0
   -0.6130   -2.7510   -1.2190 C   0  0  0  0  0  0  0  0  0  0  0  0
   -0.7490   -4.0880   -0.7490 N   0  0  0  0  0  0  0  0  0  0  0  0
  1  2  1  0
  2  3  2  3
  2  5  1  0
  3  4  1  0
  5  6  1  0
  6  7  1  0
  7  8  1  0
  8  9  1  0
  9 10  1  0
 10 11  2  0
 10 35  1  0
 11 12  1  0
 12 13  2  0
 13 14  1  0
 13 34  1  0
 14 15  1  0
 14 20  1  0
 15 16  2  0
 15 32  1  0
 16 17  1  0
 16 22  1  0
 17 18  2  0
 17 19  1  0
 19 20  1  0
 20 21  2  0
 22 23  1  0
 23 24  2  0
 24 25  1  0
 24 32  1  0
 25 26  2  0
 25 31  1  0
 26 27  1  0
 27 28  2  0
 28 29  1  0
 28 31  1  0
 29 30  1  0
 32 33  2  0
 34 35  2  0
 35 36  1  0
M  END
