
     RDKit          3D

 36 39  0  0  0  0  0  0  0  0999 V2000
   -7.5050   -3.7370   -0.6390 C   0  0  0  0  0  0  0  0  0  0  0  0
   -7.2330   -2.3480   -0.6890 O   0  0  0  0  0  0  0  0  0  0  0  0
   -5.9410   -1.8940   -0.4900 C   0  0  0  0  0  0  0  0  0  0  0  0
   -4.9780   -2.6530   -0.2630 O   0  0  0  0  0  0  0  0  0  0  0  0
   -5.7020   -0.4280   -0.5510 C   0  0  0  0  0  0  0  0  0  0  0  0
   -4.3150   -0.1010   -0.3260 N   0  0  0  0  0  0  0  0  0  0  0  0
   -3.6790   -0.4620    0.8990 C   0  0  0  0  0  0  0  0  0  0  0  0
   -4.3500   -1.0580    1.7550 O   0  0  0  0  0  0  0  0  0  0  0  0
   -2.2710   -0.1190    1.1040 C   0  0  0  0  0  0  0  0  0  0  0  0
   -1.4470    0.5340    0.2270 C   0  0  0  0  0  0  0  0  0  0  0  0
   -0.2200    0.6340    0.8440 C   0  0  0  0  0  0  0  0  0  0  0  0
    1.0420    1.2540    0.3400 C   0  0  1  0  0  0  0  0  0  0  0  0
    1.2210    2.5420    1.1280 C   0  0  0  0  0  0  0  0  0  0  0  0
    0.0750    3.4750    0.9300 C   0  0  0  0  0  0  0  0  0  0  0  0
   -0.1020    3.8730   -0.5250 C   0  0  0  0  0  0  0  0  0  0  0  0
   -1.2710    4.8080   -0.6280 C   0  0  0  0  0  0  0  0  0  0  0  0
   -1.2870    6.1770   -0.5390 C   0  0  0  0  0  0  0  0  0  0  0  0
   -2.6040    6.5510   -0.7000 C   0  0  0  0  0  0  0  0  0  0  0  0
   -3.3090    5.4680   -0.8730 O   0  0  0  0  0  0  0  0  0  0  0  0
   -2.5600    4.4110   -0.8370 C   0  0  0  0  0  0  0  0  0  0  0  0
    2.1030    0.3070    0.6600 N   0  0  0  0  0  0  0  0  0  0  0  0
    2.9730   -0.2190   -0.3280 C   0  0  0  0  0  0  0  0  0  0  0  0
    2.8760    0.1020   -1.5310 O   0  0  0  0  0  0  0  0  0  0  0  0
    4.0130   -1.1610    0.0560 C   0  0  0  0  0  0  0  0  0  0  0  0
    4.7010   -1.0460    1.2560 C   0  0  0  0  0  0  0  0  0  0  0  0
    5.6790   -1.9310    1.6170 C   0  0  0  0  0  0  0  0  0  0  0  0
    6.3640   -1.8320    2.7930 F   0  0  0  0  0  0  0  0  0  0  0  0
    6.0010   -2.9730    0.7750 C   0  0  0  0  0  0  0  0  0  0  0  0
    5.3500   -3.1380   -0.4340 C   0  0  0  0  0  0  0  0  0  0  0  0
    5.4420   -4.0530   -1.4670 C   0  0  0  0  0  0  0  0  0  0  0  0
    6.3780   -5.2060   -1.5140 C   0  0  0  0  0  0  0  0  0  0  0  0
    4.4990   -3.6460   -2.3880 C   0  0  0  0  0  0  0  0  0  0  0  0
    3.8830   -2.5600   -1.9380 O   0  0  0  0  0  0  0  0  0  0  0  0
    4.3710   -2.2280   -0.7660 C   0  0  0  0  0  0  0  0  0  0  0  0
   -0.3190    0.0400    2.0850 C   0  0  0  0  0  0  0  0  0  0  0  0
   -1.5660   -0.4070    2.2200 N   0  0  0  0  0  0  0  0  0  0  0  0
  1  2  1  0
  2  3  1  0
  3  4  2  0
  3  5  1  0
  5  6  1  0
  6  7  1  0
  7  8  2  0
  7  9  1  0
  9 10  2  0
  9 36  1  0
 10 11  1  0
 11 12  1  0
 11 35  2  0
 12 13  1  1
 12 21  1  0
 13 14  1  0
 14 15  1  0
 15 16  1  0
 16 17  1  0
 16 20  2  0
 17 18  2  0
 18 19  1  0
 19 20  1  0
 21 22  1  0
 22 23  2  0
 22 24  1  0
 24 25  2  0
 24 34  1  0
 25 26  1  0
 26 27  1  0
 26 28  2  0
 28 29  1  0
 29 30  1  0
 29 34  2  0
 30 31  1  0
 30 32  2  0
 32 33  1  0
 33 34  1  0
 35 36  1  0
M  END
