
     RDKit          3D

 36 39  0  0  0  0  0  0  0  0999 V2000
   -6.9440   -2.7210   -1.4940 C   0  0  0  0  0  0  0  0  0  0  0  0
   -5.5040   -2.5650   -1.8760 C   0  0  0  0  0  0  0  0  0  0  0  0
   -4.6870   -2.0970   -0.7330 C   0  0  0  0  0  0  0  0  0  0  0  0
   -3.9260   -3.0140   -0.1090 N   0  0  0  0  0  0  0  0  0  0  0  0
   -3.1720   -2.6500    0.9310 C   0  0  0  0  0  0  0  0  0  0  0  0
   -2.4730   -3.5380    1.4900 O   0  0  0  0  0  0  0  0  0  0  0  0
   -3.1790   -1.3450    1.3580 C   0  0  0  0  0  0  0  0  0  0  0  0
   -2.3330   -0.9640    2.5080 C   0  0  0  0  0  0  0  0  0  0  0  0
   -0.9250   -0.8250    2.0940 C   0  0  0  0  0  0  0  0  0  0  0  0
    0.0330   -1.7980    2.2480 C   0  0  0  0  0  0  0  0  0  0  0  0
    1.3330   -1.6100    1.8350 C   0  0  0  0  0  0  0  0  0  0  0  0
    1.7420   -0.4260    1.2410 C   0  0  0  0  0  0  0  0  0  0  0  0
    3.1470   -0.2890    0.8150 C   0  0  0  0  0  0  0  0  0  0  0  0
    3.8460   -1.3220    0.7400 O   0  0  0  0  0  0  0  0  0  0  0  0
    3.6810    0.9760    0.5050 N   0  0  0  0  0  0  0  0  0  0  0  0
    5.0120    1.1750    0.0880 C   0  0  0  0  0  0  0  0  0  0  0  0
    5.4760    2.5020    0.0790 C   0  0  0  0  0  0  0  0  0  0  0  0
    6.7470    2.8460   -0.3160 C   0  0  0  0  0  0  0  0  0  0  0  0
    7.6120    1.8400   -0.7250 C   0  0  0  0  0  0  0  0  0  0  0  0
    7.1990    0.5310   -0.7320 C   0  0  0  0  0  0  0  0  0  0  0  0
    5.9090    0.2440   -0.3240 C   0  0  0  0  0  0  0  0  0  0  0  0
    8.0620   -0.5330   -1.1490 N   0  0  0  0  0  0  0  0  0  0  0  0
    9.3730   -0.1400   -1.5530 C   0  0  0  0  0  0  0  0  0  0  0  0
   10.3520   -0.9540   -1.4750 O   0  0  0  0  0  0  0  0  0  0  0  0
    9.5270    1.2460   -2.0610 C   0  0  0  0  0  0  0  0  0  0  0  0
    8.9100    2.1150   -1.1370 O   0  0  0  0  0  0  0  0  0  0  0  0
    0.7930    0.5480    1.0840 C   0  0  0  0  0  0  0  0  0  0  0  0
   -0.5260    0.3650    1.5000 C   0  0  0  0  0  0  0  0  0  0  0  0
   -3.9480   -0.3840    0.7410 C   0  0  0  0  0  0  0  0  0  0  0  0
   -4.7260   -0.7860   -0.3430 C   0  0  0  0  0  0  0  0  0  0  0  0
   -5.5340    0.2140   -0.9960 C   0  0  0  0  0  0  0  0  0  0  0  0
   -6.2830   -0.0100   -1.9710 O   0  0  0  0  0  0  0  0  0  0  0  0
   -5.4970    1.5220   -0.5310 O   0  0  0  0  0  0  0  0  0  0  0  0
   -6.2840    2.5500   -1.1500 C   0  0  0  0  0  0  0  0  0  0  0  0
   -6.0450    3.8710   -0.4390 C   0  0  0  0  0  0  0  0  0  0  0  0
   -4.6860    4.1480   -0.5620 F   0  0  0  0  0  0  0  0  0  0  0  0
  1  2  1  0
  2  3  1  0
  3  4  1  0
  3 30  2  0
  4  5  1  0
  5  6  2  0
  5  7  1  0
  7  8  1  0
  7 29  2  0
  8  9  1  0
  9 10  2  0
  9 28  1  0
 10 11  1  0
 11 12  2  0
 12 13  1  0
 12 27  1  0
 13 14  2  0
 13 15  1  0
 15 16  1  0
 16 17  2  0
 16 21  1  0
 17 18  1  0
 18 19  2  0
 19 20  1  0
 19 26  1  0
 20 21  2  0
 20 22  1  0
 22 23  1  0
 23 24  2  0
 23 25  1  0
 25 26  1  0
 27 28  2  0
 29 30  1  0
 30 31  1  0
 31 32  2  0
 31 33  1  0
 33 34  1  0
 34 35  1  0
 35 36  1  0
M  END
