
     RDKit          3D

 36 39  0  0  0  0  0  0  0  0999 V2000
    3.6940   -0.8270   -1.5530 C   0  0  0  0  0  0  0  0  0  0  0  0
    4.3910   -0.9480   -0.2560 C   0  0  0  0  0  0  0  0  0  0  0  0
    3.8830   -0.9150    1.0210 C   0  0  0  0  0  0  0  0  0  0  0  0
    2.4690   -0.7180    1.3370 C   0  0  0  0  0  0  0  0  0  0  0  0
    1.9890   -1.2000    2.4380 O   0  0  0  0  0  0  0  0  0  0  0  0
    1.5650   -0.0150    0.5130 N   0  0  0  0  0  0  0  0  0  0  0  0
    0.2300    0.1170    0.8420 O   0  0  0  0  0  0  0  0  0  0  0  0
   -0.4060    0.3900   -0.3990 C   0  0  0  0  0  0  0  0  0  0  0  0
   -1.8630    0.5670   -0.3350 C   0  0  0  0  0  0  0  0  0  0  0  0
   -2.7940   -0.4430   -0.4150 C   0  0  0  0  0  0  0  0  0  0  0  0
   -4.1400   -0.1700   -0.5990 C   0  0  0  0  0  0  0  0  0  0  0  0
   -5.0900   -1.1780   -0.8490 N   0  0  0  0  0  0  0  0  0  0  0  0
   -5.5520   -2.1700    0.0430 C   0  0  0  0  0  0  0  0  0  0  0  0
   -5.1220   -2.2240    1.2160 O   0  0  0  0  0  0  0  0  0  0  0  0
   -6.5600   -3.1750   -0.4000 C   0  0  0  0  0  0  0  0  0  0  0  0
   -6.9290   -4.2390    0.5420 C   0  0  0  0  0  0  0  0  0  0  0  0
   -5.7810   -5.0510    0.8700 N   0  0  0  0  0  0  0  0  0  0  0  0
   -4.6110    1.1150   -0.6970 C   0  0  0  0  0  0  0  0  0  0  0  0
   -3.6770    2.1680   -0.6140 C   0  0  0  0  0  0  0  0  0  0  0  0
   -2.3540    1.8950   -0.4390 C   0  0  0  0  0  0  0  0  0  0  0  0
   -1.3540    2.8690   -0.3280 O   0  0  0  0  0  0  0  0  0  0  0  0
   -1.5370    4.2400   -0.2920 C   0  0  0  0  0  0  0  0  0  0  0  0
   -1.4570    5.1000   -1.3180 C   0  0  0  0  0  0  0  0  0  0  0  0
   -1.6740    6.4510   -1.1460 C   0  0  0  0  0  0  0  0  0  0  0  0
   -1.9780    6.9370    0.0870 C   0  0  0  0  0  0  0  0  0  0  0  0
   -2.2020    8.2930    0.2330 F   0  0  0  0  0  0  0  0  0  0  0  0
   -2.0650    6.0880    1.1490 C   0  0  0  0  0  0  0  0  0  0  0  0
   -1.8510    4.7580    0.9660 C   0  0  0  0  0  0  0  0  0  0  0  0
    4.8600   -1.0920    1.8450 O   0  0  0  0  0  0  0  0  0  0  0  0
    6.0010   -1.2410    1.1850 C   0  0  0  0  0  0  0  0  0  0  0  0
    5.7400   -1.1560   -0.1710 C   0  0  0  0  0  0  0  0  0  0  0  0
    6.8370   -1.3090   -1.1000 C   0  0  0  0  0  0  0  0  0  0  0  0
    6.8190   -0.6110   -2.1500 O   0  0  0  0  0  0  0  0  0  0  0  0
    7.9700   -2.2700   -0.8370 C   0  0  0  0  0  0  0  0  0  0  0  0
    7.9860   -2.5930    0.6240 C   0  0  0  0  0  0  0  0  0  0  0  0
    7.4390   -1.4710    1.5100 C   0  0  0  0  0  0  0  0  0  0  0  0
  1  2  1  0
  2  3  2  0
  2 31  1  0
  3  4  1  0
  3 29  1  0
  4  5  2  0
  4  6  1  0
  6  7  1  0
  7  8  1  0
  8  9  1  0
  9 10  2  0
  9 20  1  0
 10 11  1  0
 11 12  1  0
 11 18  2  0
 12 13  1  0
 13 14  2  0
 13 15  1  0
 15 16  1  0
 16 17  1  0
 18 19  1  0
 19 20  2  0
 20 21  1  0
 21 22  1  0
 22 23  2  0
 22 28  1  0
 23 24  1  0
 24 25  2  0
 25 26  1  0
 25 27  1  0
 27 28  2  0
 29 30  1  0
 30 31  2  0
 30 36  1  0
 31 32  1  0
 32 33  2  0
 32 34  1  0
 34 35  1  0
 35 36  1  0
M  END
