
     RDKit          3D

 36 39  0  0  0  0  0  0  0  0999 V2000
   -4.2530    2.6040   -1.4470 C   0  0  0  0  0  0  0  0  0  0  0  0
   -2.8100    2.3680   -1.1020 C   0  0  0  0  0  0  0  0  0  0  0  0
   -2.4620    1.1300   -0.7580 C   0  0  0  0  0  0  0  0  0  0  0  0
   -3.4770    0.1660   -0.7400 N   0  0  0  0  0  0  0  0  0  0  0  0
   -3.4000   -1.2040   -0.4170 C   0  0  0  0  0  0  0  0  0  0  0  0
   -2.3250   -1.6950   -0.0960 O   0  0  0  0  0  0  0  0  0  0  0  0
   -4.6710   -1.9780   -0.4920 C   0  0  0  0  0  0  0  0  0  0  0  0
   -4.5210   -3.3790   -0.1500 C   0  0  0  0  0  0  0  0  0  0  0  0
   -4.6260   -4.0210    1.0730 C   0  0  0  0  0  0  0  0  0  0  0  0
   -4.3980   -5.3690    0.9110 C   0  0  0  0  0  0  0  0  0  0  0  0
   -4.1520   -5.5290   -0.4430 C   0  0  0  0  0  0  0  0  0  0  0  0
   -4.2300   -4.3430   -1.0430 N   0  0  0  0  0  0  0  0  0  0  0  0
   -1.0830    0.8470   -0.5260 C   0  0  0  0  0  0  0  0  0  0  0  0
   -0.2270    1.7980   -0.7000 O   0  0  0  0  0  0  0  0  0  0  0  0
   -0.4810   -0.3250   -0.1280 O   0  0  0  0  0  0  0  0  0  0  0  0
    0.8810   -0.4680    0.0640 C   0  0  0  0  0  0  0  0  0  0  0  0
    1.7420   -0.8920   -0.9330 C   0  0  0  0  0  0  0  0  0  0  0  0
    3.1040   -1.0120   -0.6650 C   0  0  0  0  0  0  0  0  0  0  0  0
    3.6020   -0.7130    0.5850 C   0  0  0  0  0  0  0  0  0  0  0  0
    5.0420   -0.8420    0.8720 C   0  0  0  0  0  0  0  0  0  0  0  0
    5.9800   -1.2530   -0.0220 C   0  0  0  0  0  0  0  0  0  0  0  0
    7.1860   -1.2350    0.6370 C   0  0  0  0  0  0  0  0  0  0  0  0
    6.9390   -0.8030    1.9460 C   0  0  0  0  0  0  0  0  0  0  0  0
    7.9290   -0.6310    3.0030 C   0  0  0  0  0  0  0  0  0  0  0  0
    7.5910   -0.2380    4.1380 O   0  0  0  0  0  0  0  0  0  0  0  0
    9.2560   -0.9050    2.7540 O   0  0  0  0  0  0  0  0  0  0  0  0
    5.6480   -0.5930    1.9990 O   0  0  0  0  0  0  0  0  0  0  0  0
    2.7050   -0.2950    1.5450 C   0  0  0  0  0  0  0  0  0  0  0  0
    1.3550   -0.1610    1.3300 C   0  0  0  0  0  0  0  0  0  0  0  0
    0.5010    0.2600    2.3190 F   0  0  0  0  0  0  0  0  0  0  0  0
   -1.9620    3.5370   -1.0820 C   0  0  0  0  0  0  0  0  0  0  0  0
   -1.3170    4.0000    0.0430 C   0  0  0  0  0  0  0  0  0  0  0  0
   -0.4940    5.1100    0.0700 C   0  0  0  0  0  0  0  0  0  0  0  0
   -0.2980    5.8060   -1.0940 C   0  0  0  0  0  0  0  0  0  0  0  0
   -0.9370    5.3550   -2.2270 C   0  0  0  0  0  0  0  0  0  0  0  0
   -1.7300    4.2710   -2.2140 N   0  0  0  0  0  0  0  0  0  0  0  0
  1  2  1  0
  2  3  2  3
  2 31  1  0
  3  4  1  0
  3 13  1  0
  4  5  1  0
  5  6  2  0
  5  7  1  0
  7  8  1  0
  8  9  2  0
  8 12  1  0
  9 10  1  0
 10 11  2  0
 11 12  1  0
 13 14  2  0
 13 15  1  0
 15 16  1  0
 16 17  2  0
 16 29  1  0
 17 18  1  0
 18 19  2  0
 19 20  1  0
 19 28  1  0
 20 21  2  0
 20 27  1  0
 21 22  1  0
 22 23  2  0
 23 24  1  0
 23 27  1  0
 24 25  2  0
 24 26  1  0
 28 29  2  0
 29 30  1  0
 31 32  2  0
 31 36  1  0
 32 33  1  0
 33 34  2  0
 34 35  1  0
 35 36  2  0
M  END
