
     RDKit          3D

 36 39  0  0  0  0  0  0  0  0999 V2000
   -5.6750    0.9530    0.8560 C   0  0  0  0  0  0  0  0  0  0  0  0
   -5.3940   -0.1680   -0.1140 C   0  0  0  0  0  0  0  0  0  0  0  0
   -4.0820   -0.7450    0.1570 C   0  0  0  0  0  0  0  0  0  0  0  0
   -2.9980   -0.6270   -0.4940 C   0  0  0  0  0  0  0  0  0  0  0  0
   -1.8090   -1.3800    0.0540 N   0  0  0  0  0  0  0  0  0  0  0  0
   -0.6270   -0.6800    0.0930 C   0  0  0  0  0  0  0  0  0  0  0  0
   -0.5760    0.5520    0.7010 O   0  0  0  0  0  0  0  0  0  0  0  0
    0.5400   -1.1640   -0.4620 C   0  0  0  0  0  0  0  0  0  0  0  0
    1.6090   -0.2890   -0.2990 N   0  0  0  0  0  0  0  0  0  0  0  0
    2.9430   -0.3320   -0.6630 C   0  0  0  0  0  0  0  0  0  0  0  0
    3.4110   -1.2900   -1.2530 O   0  0  0  0  0  0  0  0  0  0  0  0
    3.8960    0.7690   -0.3680 C   0  0  0  0  0  0  0  0  0  0  0  0
    3.5390    2.0800   -0.5620 C   0  0  0  0  0  0  0  0  0  0  0  0
    4.4130    3.1020   -0.2870 C   0  0  0  0  0  0  0  0  0  0  0  0
    5.6270    2.7730    0.1770 N   0  0  0  0  0  0  0  0  0  0  0  0
    6.0220    1.5080    0.3830 C   0  0  0  0  0  0  0  0  0  0  0  0
    7.3910    1.2800    0.8960 C   0  0  2  0  0  0  0  0  0  0  0  0
    7.9310   -0.0340    1.2350 C   0  0  0  0  0  0  0  0  0  0  0  0
    7.3610    0.7600    2.3500 C   0  0  0  0  0  0  0  0  0  0  0  0
    5.1500    0.4770    0.1090 C   0  0  0  0  0  0  0  0  0  0  0  0
    0.4650   -2.4230   -1.1300 C   0  0  0  0  0  0  0  0  0  0  0  0
    1.5220   -3.1830   -1.7860 C   0  0  0  0  0  0  0  0  0  0  0  0
   -0.7230   -3.0080   -1.1770 O   0  0  0  0  0  0  0  0  0  0  0  0
   -2.6170    0.1910   -1.5890 C   0  0  0  0  0  0  0  0  0  0  0  0
   -1.4230    0.0100   -2.1130 O   0  0  0  0  0  0  0  0  0  0  0  0
   -3.3710    1.2460   -2.2370 C   0  0  0  0  0  0  0  0  0  0  0  0
   -2.9120    1.9640   -3.3740 C   0  0  0  0  0  0  0  0  0  0  0  0
   -3.8840    2.8750   -3.6920 C   0  0  0  0  0  0  0  0  0  0  0  0
   -4.8940    2.7210   -2.7860 C   0  0  0  0  0  0  0  0  0  0  0  0
   -4.5230    1.7820   -2.0030 O   0  0  0  0  0  0  0  0  0  0  0  0
   -4.0700   -1.5810    1.4270 C   0  0  0  0  0  0  0  0  0  0  0  0
   -3.1140   -1.5230    2.3670 C   0  0  0  0  0  0  0  0  0  0  0  0
   -3.4470   -2.4360    3.3800 C   0  0  0  0  0  0  0  0  0  0  0  0
   -4.6450   -2.9970    2.9360 C   0  0  0  0  0  0  0  0  0  0  0  0
   -5.3080   -3.9390    3.6400 F   0  0  0  0  0  0  0  0  0  0  0  0
   -4.9710   -2.4530    1.7720 O   0  0  0  0  0  0  0  0  0  0  0  0
  1  2  1  0
  2  3  1  0
  3  4  2  3
  3 31  1  0
  4  5  1  0
  4 24  1  0
  5  6  1  0
  6  7  1  0
  6  8  2  3
  8  9  1  0
  8 21  1  0
  9 10  1  0
 10 11  2  0
 10 12  1  0
 12 13  2  0
 12 20  1  0
 13 14  1  0
 14 15  2  0
 15 16  1  0
 17 16  1  6
 16 20  2  0
 17 18  1  0
 17 19  1  0
 18 19  1  0
 21 22  1  0
 21 23  2  0
 24 25  2  0
 24 26  1  0
 26 27  2  0
 26 30  1  0
 27 28  1  0
 28 29  2  0
 29 30  1  0
 31 32  2  0
 31 36  1  0
 32 33  1  0
 33 34  2  0
 34 35  1  0
 34 36  1  0
M  END
