
     RDKit          3D

 36 39  0  0  0  0  0  0  0  0999 V2000
    7.5790    0.6770   -1.5850 C   0  0  0  0  0  0  0  0  0  0  0  0
    6.7120   -0.4180   -1.8180 O   0  0  0  0  0  0  0  0  0  0  0  0
    5.6130   -0.5640   -0.9860 C   0  0  0  0  0  0  0  0  0  0  0  0
    4.7840   -1.6440   -1.2400 C   0  0  0  0  0  0  0  0  0  0  0  0
    3.6860   -1.8100   -0.4270 C   0  0  0  0  0  0  0  0  0  0  0  0
    3.3800   -0.9420    0.6310 C   0  0  0  0  0  0  0  0  0  0  0  0
    4.1970    0.1200    0.8790 C   0  0  0  0  0  0  0  0  0  0  0  0
    5.3140    0.2760    0.0400 C   0  0  0  0  0  0  0  0  0  0  0  0
    4.0370    1.1390    1.9460 C   0  0  0  0  0  0  0  0  0  0  0  0
    3.2450    2.2420    1.4810 O   0  0  0  0  0  0  0  0  0  0  0  0
    1.8740    1.9840    1.2000 C   0  0  0  0  0  0  0  0  0  0  0  0
    1.3040    2.0900    2.4080 N   0  0  0  0  0  0  0  0  0  0  0  0
    0.0020    1.9140    2.6420 C   0  0  0  0  0  0  0  0  0  0  0  0
   -0.8620    1.5930    1.5920 C   0  0  0  0  0  0  0  0  0  0  0  0
   -0.2650    1.4920    0.3550 C   0  0  0  0  0  0  0  0  0  0  0  0
    1.1550    1.6920    0.1310 C   0  0  0  0  0  0  0  0  0  0  0  0
    1.5230    1.5190   -1.3370 C   0  0  0  0  0  0  0  0  0  0  0  0
   -2.2940    1.3310    1.8230 N   0  0  0  0  0  0  0  0  0  0  0  0
   -3.2820    2.3400    1.5540 C   0  0  0  0  0  0  0  0  0  0  0  0
   -4.0150    2.7860    2.5110 O   0  0  0  0  0  0  0  0  0  0  0  0
   -3.5070    2.8950    0.2480 N   0  0  0  0  0  0  0  0  0  0  0  0
   -3.6530    2.1140   -0.9630 C   0  0  2  0  0  0  0  0  0  0  0  0
   -4.7980    2.6950   -1.7650 C   0  0  0  0  0  0  0  0  0  0  0  0
   -3.9550    0.6940   -0.7450 C   0  0  0  0  0  0  0  0  0  0  0  0
   -5.1960    0.1890   -0.8000 N   0  0  0  0  0  0  0  0  0  0  0  0
   -5.4350   -1.1260   -0.6030 C   0  0  0  0  0  0  0  0  0  0  0  0
   -6.8090   -1.7010   -0.6620 C   0  0  0  0  0  0  0  0  0  0  0  0
   -4.4030   -1.9230   -0.3500 N   0  0  0  0  0  0  0  0  0  0  0  0
   -3.1240   -1.4830   -0.2800 C   0  0  0  0  0  0  0  0  0  0  0  0
   -2.9690   -0.1600   -0.4870 N   0  0  0  0  0  0  0  0  0  0  0  0
   -2.0520   -2.3720   -0.0070 N   0  0  0  0  0  0  0  0  0  0  0  0
   -1.7810   -3.5190   -0.8980 C   0  0  0  0  0  0  0  0  0  0  0  0
   -1.1510   -2.2570    1.1360 C   0  0  0  0  0  0  0  0  0  0  0  0
    0.2750   -2.5720    0.8060 C   0  0  0  0  0  0  0  0  0  0  0  0
    1.0600   -1.4600    0.5550 O   0  0  0  0  0  0  0  0  0  0  0  0
    2.1420   -1.2990    1.3930 C   0  0  0  0  0  0  0  0  0  0  0  0
  1  2  1  0
  2  3  1  0
  3  4  2  0
  3  8  1  0
  4  5  1  0
  5  6  2  0
  6  7  1  0
  6 36  1  0
  7  8  2  0
  7  9  1  0
  9 10  1  0
 10 11  1  0
 11 12  2  0
 11 16  1  0
 12 13  1  0
 13 14  2  0
 14 15  1  0
 14 18  1  0
 15 16  2  0
 16 17  1  0
 18 19  1  0
 19 20  2  0
 19 21  1  0
 21 22  1  0
 22 23  1  6
 22 24  1  0
 24 25  2  0
 24 30  1  0
 25 26  1  0
 26 27  1  0
 26 28  2  0
 28 29  1  0
 29 30  2  0
 29 31  1  0
 31 32  1  0
 31 33  1  0
 33 34  1  0
 34 35  1  0
 35 36  1  0
M  END
