
     RDKit          3D

 37 40  0  0  0  0  0  0  0  0999 V2000
   -5.3500   -2.2730   -4.5250 C   0  0  0  0  0  0  0  0  0  0  0  0
   -4.1030   -1.5860   -4.4060 O   0  0  0  0  0  0  0  0  0  0  0  0
   -3.3980   -1.5790   -3.2040 C   0  0  0  0  0  0  0  0  0  0  0  0
   -3.8410   -2.2190   -2.0660 C   0  0  0  0  0  0  0  0  0  0  0  0
   -3.0810   -2.1640   -0.9150 C   0  0  0  0  0  0  0  0  0  0  0  0
   -1.8660   -1.4730   -0.8650 C   0  0  0  0  0  0  0  0  0  0  0  0
   -1.1230   -1.4330    0.3050 O   0  0  0  0  0  0  0  0  0  0  0  0
   -1.6180   -2.1070    1.4530 C   0  0  0  0  0  0  0  0  0  0  0  0
   -1.4240   -0.8340   -2.0000 C   0  0  0  0  0  0  0  0  0  0  0  0
   -0.2060   -0.1300   -1.9740 N   0  0  0  0  0  0  0  0  0  0  0  0
   -0.0230    0.8540   -1.1210 C   0  0  0  0  0  0  0  0  0  0  0  0
   -1.0740    1.1800   -0.2430 N   0  0  0  0  0  0  0  0  0  0  0  0
   -0.9980    2.1300    0.6250 C   0  0  0  0  0  0  0  0  0  0  0  0
   -2.1130    2.4420    1.5260 C   0  0  0  0  0  0  0  0  0  0  0  0
   -3.3270    1.8210    1.3130 C   0  0  0  0  0  0  0  0  0  0  0  0
   -4.4240    2.0800    2.1400 C   0  0  0  0  0  0  0  0  0  0  0  0
   -4.3170    2.9640    3.1910 C   0  0  0  0  0  0  0  0  0  0  0  0
   -5.3720    3.2540    4.0380 O   0  0  0  0  0  0  0  0  0  0  0  0
   -3.0960    3.5850    3.4020 C   0  0  0  0  0  0  0  0  0  0  0  0
   -2.0060    3.3240    2.5740 C   0  0  0  0  0  0  0  0  0  0  0  0
    0.2220    2.8500    0.6570 N   0  0  0  0  0  0  0  0  0  0  0  0
    1.2410    2.6430   -0.0910 C   0  0  0  0  0  0  0  0  0  0  0  0
    2.3560    3.5060    0.1330 N   0  0  0  0  0  0  0  0  0  0  0  0
    1.2340    1.5900   -1.0960 C   0  0  1  0  0  0  0  0  0  0  0  0
    2.4530    0.7090   -1.0680 C   0  0  2  0  0  0  0  0  0  0  0  0
    2.5430   -0.1900    0.0910 C   0  0  0  0  0  0  0  0  0  0  0  0
    2.1080   -1.5120    0.0410 C   0  0  0  0  0  0  0  0  0  0  0  0
    2.1900   -2.3670    1.1190 C   0  0  0  0  0  0  0  0  0  0  0  0
    2.7180   -1.9430    2.3200 C   0  0  0  0  0  0  0  0  0  0  0  0
    2.8330   -2.8160    3.5080 C   0  0  0  0  0  0  0  0  0  0  0  0
    4.0810   -3.5500    3.5360 N   0  0  0  0  0  0  0  0  0  0  0  0
    3.1540   -0.6380    2.3890 C   0  0  0  0  0  0  0  0  0  0  0  0
    3.0690    0.2250    1.2960 C   0  0  0  0  0  0  0  0  0  0  0  0
    3.6400    1.4970   -1.3080 N   0  0  0  0  0  0  0  0  0  0  0  0
    4.7750    0.5610   -1.2150 C   0  0  0  0  0  0  0  0  0  0  0  0
    3.6600    1.9830   -2.6800 C   0  0  0  0  0  0  0  0  0  0  0  0
   -2.2040   -0.8970   -3.1620 C   0  0  0  0  0  0  0  0  0  0  0  0
  1  2  1  0
  2  3  1  0
  3  4  2  0
  3 37  1  0
  4  5  1  0
  5  6  2  0
  6  7  1  0
  6  9  1  0
  7  8  1  0
  9 10  1  0
  9 37  2  0
 10 11  2  3
 11 12  1  0
 24 11  1  1
 12 13  2  0
 13 14  1  0
 13 21  1  0
 14 15  2  0
 14 20  1  0
 15 16  1  0
 16 17  2  0
 17 18  1  0
 17 19  1  0
 19 20  2  0
 21 22  2  0
 22 23  1  0
 22 24  1  0
 24 25  1  0
 25 26  1  0
 25 34  1  1
 26 27  2  0
 26 33  1  0
 27 28  1  0
 28 29  2  0
 29 30  1  0
 29 32  1  0
 30 31  1  0
 32 33  2  0
 34 35  1  0
 34 36  1  0
M  CHG  1  31   1
M  END
