
     RDKit          3D

 37 40  0  0  0  0  0  0  0  0999 V2000
   -5.4610   -4.6980   -2.3440 C   0  0  0  0  0  0  0  0  0  0  0  0
   -3.9750   -4.9400   -2.5300 C   0  0  0  0  0  0  0  0  0  0  0  0
   -3.1660   -4.8250   -1.3070 C   0  0  0  0  0  0  0  0  0  0  0  0
   -3.0070   -3.6590   -0.5090 C   0  0  0  0  0  0  0  0  0  0  0  0
   -3.1890   -2.3690   -0.5630 C   0  0  0  0  0  0  0  0  0  0  0  0
   -3.6930   -1.6120   -1.6550 C   0  0  0  0  0  0  0  0  0  0  0  0
   -3.9960   -2.1190   -2.7820 O   0  0  0  0  0  0  0  0  0  0  0  0
   -3.8970   -0.1820   -1.5610 N   0  0  0  0  0  0  0  0  0  0  0  0
   -3.5680    0.4350   -0.3320 C   0  0  0  0  0  0  0  0  0  0  0  0
   -3.6810    1.7650   -0.0200 N   0  0  0  0  0  0  0  0  0  0  0  0
   -3.2690    1.9490    1.2350 C   0  0  0  0  0  0  0  0  0  0  0  0
   -3.2500    3.2620    1.9080 C   0  0  2  0  0  0  0  0  0  0  0  0
   -4.4610    4.0220    1.7170 N   0  0  0  0  0  0  0  0  0  0  0  0
   -2.1040    4.1310    1.4430 C   0  0  0  0  0  0  0  0  0  0  0  0
   -2.1570    4.4140   -0.0520 C   0  0  0  0  0  0  0  0  0  0  0  0
   -2.8890    0.7310    1.7350 C   0  0  0  0  0  0  0  0  0  0  0  0
   -3.0760   -0.2480    0.7390 C   0  0  0  0  0  0  0  0  0  0  0  0
   -2.8410   -1.6640    0.7210 C   0  0  2  0  0  0  0  0  0  0  0  0
   -1.5060   -2.0820    1.2170 C   0  0  0  0  0  0  0  0  0  0  0  0
   -1.3280   -2.7720    2.3990 C   0  0  0  0  0  0  0  0  0  0  0  0
   -0.1090   -3.1430    2.8330 N   0  0  0  0  0  0  0  0  0  0  0  0
    0.9760   -2.8360    2.1000 C   0  0  0  0  0  0  0  0  0  0  0  0
    0.8350   -2.1620    0.9430 N   0  0  0  0  0  0  0  0  0  0  0  0
    2.0640   -1.8560    0.1970 C   0  0  0  0  0  0  0  0  0  0  0  0
    2.5660   -0.5120    0.6820 C   0  0  0  0  0  0  0  0  0  0  0  0
    3.8450   -0.1770   -0.0540 C   0  0  0  0  0  0  0  0  0  0  0  0
    4.3180   -0.9590   -0.9050 O   0  0  0  0  0  0  0  0  0  0  0  0
    4.5290    1.0270    0.2070 N   0  0  0  0  0  0  0  0  0  0  0  0
    5.7160    1.5010   -0.3750 C   0  0  0  0  0  0  0  0  0  0  0  0
    6.3640    2.6340    0.1460 C   0  0  0  0  0  0  0  0  0  0  0  0
    7.5200    3.1330   -0.4030 C   0  0  0  0  0  0  0  0  0  0  0  0
    8.1100    2.5510   -1.4990 C   0  0  0  0  0  0  0  0  0  0  0  0
    9.3530    3.1000   -2.0760 C   0  0  0  0  0  0  0  0  0  0  0  0
    7.5070    1.4460   -2.0350 C   0  0  0  0  0  0  0  0  0  0  0  0
    6.3230    0.9410   -1.4660 C   0  0  0  0  0  0  0  0  0  0  0  0
   -0.3880   -1.7740    0.4800 C   0  0  0  0  0  0  0  0  0  0  0  0
   -0.4560   -1.1480   -0.6090 O   0  0  0  0  0  0  0  0  0  0  0  0
  1  2  1  0
  2  3  1  0
  3  4  1  0
  4  5  2  3
  5  6  1  0
  5 18  1  0
  6  7  2  0
  6  8  1  0
  8  9  1  0
  9 10  1  0
  9 17  2  0
 10 11  1  0
 11 12  1  0
 11 16  2  0
 12 13  1  6
 12 14  1  0
 14 15  1  0
 16 17  1  0
 17 18  1  0
 18 19  1  6
 19 20  2  0
 19 36  1  0
 20 21  1  0
 21 22  2  0
 22 23  1  0
 23 24  1  0
 23 36  1  0
 24 25  1  0
 25 26  1  0
 26 27  2  0
 26 28  1  0
 28 29  1  0
 29 30  2  0
 29 35  1  0
 30 31  1  0
 31 32  2  0
 32 33  1  0
 32 34  1  0
 34 35  2  0
 36 37  2  0
M  CHG  1  13   1
M  END
