
     RDKit          3D

 37 40  0  0  0  0  0  0  0  0999 V2000
   -3.5880    0.8320    3.1380 C   0  0  0  0  0  0  0  0  0  0  0  0
   -2.2990    0.0790    3.1050 C   0  0  0  0  0  0  0  0  0  0  0  0
   -1.8090   -0.2820    1.7870 N   0  0  0  0  0  0  0  0  0  0  0  0
   -2.3220   -1.5030    1.2760 C   0  0  0  0  0  0  0  0  0  0  0  0
   -3.0800   -2.1190    2.1660 O   0  0  0  0  0  0  0  0  0  0  0  0
   -2.1640   -2.1340    0.0500 N   0  0  0  0  0  0  0  0  0  0  0  0
   -2.7770   -3.4870   -0.0470 C   0  0  0  0  0  0  0  0  0  0  0  0
   -3.2120   -3.8310   -1.4200 C   0  0  0  0  0  0  0  0  0  0  0  0
   -3.6190   -2.6200   -2.2170 C   0  0  1  0  0  0  0  0  0  0  0  0
   -4.8910   -2.0940   -1.5460 C   0  0  0  0  0  0  0  0  0  0  0  0
   -2.5800   -1.5660   -2.2550 C   0  0  0  0  0  0  0  0  0  0  0  0
   -1.5290   -1.6930   -1.1300 C   0  0  0  0  0  0  0  0  0  0  0  0
   -0.8180    0.4130    1.0700 C   0  0  0  0  0  0  0  0  0  0  0  0
    0.4850   -0.1930    1.0260 C   0  0  0  0  0  0  0  0  0  0  0  0
    1.5140    0.3700    0.3380 C   0  0  0  0  0  0  0  0  0  0  0  0
    2.8010   -0.2980    0.2450 C   0  0  0  0  0  0  0  0  0  0  0  0
    2.7790   -1.5230   -0.1350 O   0  0  0  0  0  0  0  0  0  0  0  0
    4.0690    0.2530    0.5240 N   0  0  0  0  0  0  0  0  0  0  0  0
    5.1970   -0.4750    0.3760 C   0  0  0  0  0  0  0  0  0  0  0  0
    6.2780   -0.1320   -0.4260 C   0  0  0  0  0  0  0  0  0  0  0  0
    7.3890   -1.0430   -0.4530 C   0  0  0  0  0  0  0  0  0  0  0  0
    7.8700   -1.7940   -1.3930 C   0  0  0  0  0  0  0  0  0  0  0  0
    8.0090   -3.3200   -1.0940 C   0  0  0  0  0  0  0  0  0  0  0  0
    6.9470   -3.5220   -0.0220 N   0  0  0  0  0  0  0  0  0  0  0  0
    6.5900   -2.4100    0.7310 C   0  0  0  0  0  0  0  0  0  0  0  0
    5.4620   -1.8370    1.0140 C   0  0  0  0  0  0  0  0  0  0  0  0
    7.8220   -1.4760    0.9720 C   0  0  0  0  0  0  0  0  0  0  0  0
    1.3070    1.5540   -0.3350 C   0  0  0  0  0  0  0  0  0  0  0  0
    0.0660    2.1340   -0.2950 C   0  0  0  0  0  0  0  0  0  0  0  0
   -0.9960    1.5750    0.4000 C   0  0  0  0  0  0  0  0  0  0  0  0
   -2.2670    2.3020    0.3940 C   0  0  0  0  0  0  0  0  0  0  0  0
   -2.1910    3.4820   -0.4570 N   0  0  0  0  0  0  0  0  0  0  0  0
   -3.4690    4.1720   -0.5090 C   0  0  2  0  0  0  0  0  0  0  0  0
   -3.7590    4.7190   -1.8940 C   0  0  0  0  0  0  0  0  0  0  0  0
   -3.4080    5.3200    0.4220 C   0  0  0  0  0  0  0  0  0  0  0  0
   -2.2570    5.5320    1.2130 N   0  0  0  0  0  0  0  0  0  0  0  0
   -4.3650    6.1280    0.5340 O   0  0  0  0  0  0  0  0  0  0  0  0
  1  2  1  0
  2  3  1  0
  3  4  1  0
  3 13  1  0
  4  5  2  0
  4  6  1  0
  6  7  1  0
  6 12  1  0
  7  8  1  0
  8  9  1  0
  9 10  1  1
  9 11  1  0
 11 12  1  0
 13 14  2  0
 13 30  1  0
 14 15  1  0
 15 16  1  0
 15 28  2  0
 16 17  2  0
 16 18  1  0
 18 19  1  0
 19 20  2  0
 19 26  1  0
 20 21  1  0
 21 22  2  0
 21 27  1  0
 22 23  1  0
 23 24  1  0
 24 25  1  0
 25 26  2  0
 25 27  1  0
 28 29  1  0
 29 30  2  0
 30 31  1  0
 31 32  1  0
 32 33  1  0
 33 34  1  6
 33 35  1  0
 35 36  1  0
 35 37  2  0
M  CHG  1  32   1
M  END
