
     RDKit          3D

 36 39  0  0  0  0  0  0  0  0999 V2000
    0.7420    0.2100    3.6960 C   0  0  0  0  0  0  0  0  0  0  0  0
    0.3160    0.3780    2.3680 O   0  0  0  0  0  0  0  0  0  0  0  0
    0.6490   -0.3640    1.2700 C   0  0  0  0  0  0  0  0  0  0  0  0
    1.4770   -1.4620    1.2210 C   0  0  0  0  0  0  0  0  0  0  0  0
    1.7640   -2.1470    0.0880 C   0  0  0  0  0  0  0  0  0  0  0  0
    2.5630   -3.2880    0.0710 C   0  0  0  0  0  0  0  0  0  0  0  0
    3.1490   -3.7570    1.2690 N   0  0  0  0  0  0  0  0  0  0  0  0
    4.4540   -3.2300    1.6590 C   0  0  0  0  0  0  0  0  0  0  0  0
    5.2270   -3.8800    2.5720 C   0  0  0  0  0  0  0  0  0  0  0  0
    6.4810   -3.3260    2.9060 C   0  0  0  0  0  0  0  0  0  0  0  0
    7.5600   -4.0800    4.0350 Cl  0  0  0  0  0  0  0  0  0  0  0  0
    6.8750   -2.1260    2.2730 C   0  0  0  0  0  0  0  0  0  0  0  0
    8.1210   -1.5970    2.6100 O   0  0  0  0  0  0  0  0  0  0  0  0
    8.4060   -0.7160    3.6570 C   0  0  0  0  0  0  0  0  0  0  0  0
    6.0900   -1.4890    1.3640 C   0  0  0  0  0  0  0  0  0  0  0  0
    6.5930    0.0310    0.6080 Cl  0  0  0  0  0  0  0  0  0  0  0  0
    4.8480   -2.0490    1.0390 C   0  0  0  0  0  0  0  0  0  0  0  0
    2.8010   -3.9780   -1.0860 C   0  0  0  0  0  0  0  0  0  0  0  0
    3.5780   -5.2660   -1.0370 C   0  0  0  0  0  0  0  0  0  0  0  0
    4.1480   -6.2130   -1.0170 N   0  0  0  0  0  0  0  0  0  0  0  0
    2.2630   -3.5750   -2.2700 C   0  0  0  0  0  0  0  0  0  0  0  0
    1.4650   -2.4470   -2.2850 N   0  0  0  0  0  0  0  0  0  0  0  0
    1.2320   -1.7640   -1.1130 C   0  0  0  0  0  0  0  0  0  0  0  0
    0.3820   -0.6560   -1.1250 C   0  0  0  0  0  0  0  0  0  0  0  0
    0.0960    0.0230    0.0160 C   0  0  0  0  0  0  0  0  0  0  0  0
   -0.7550    1.0970    0.0500 O   0  0  0  0  0  0  0  0  0  0  0  0
   -1.4080    1.6180   -1.0670 C   0  0  0  0  0  0  0  0  0  0  0  0
   -2.4880    2.6410   -0.6260 C   0  0  0  0  0  0  0  0  0  0  0  0
   -3.1240    3.0490   -1.9340 C   0  0  0  0  0  0  0  0  0  0  0  0
   -4.2360    3.9420   -1.7020 N   0  0  2  0  0  0  0  0  0  0  0  0
   -5.0630    3.4700   -0.5830 C   0  0  0  0  0  0  0  0  0  0  0  0
   -5.5650    2.0940   -0.8330 C   0  0  0  0  0  0  0  0  0  0  0  0
   -6.4830    2.1470   -1.9770 N   0  0  2  0  0  0  0  0  0  0  0  0
   -6.7530    0.7340   -2.3350 C   0  0  0  0  0  0  0  0  0  0  0  0
   -5.7600    2.6810   -3.1220 C   0  0  0  0  0  0  0  0  0  0  0  0
   -5.1190    4.0020   -2.8680 C   0  0  0  0  0  0  0  0  0  0  0  0
  1  2  1  0
  2  3  1  0
  3  4  2  0
  3 25  1  0
  4  5  1  0
  5  6  2  0
  5 23  1  0
  6  7  1  0
  6 18  1  0
  7  8  1  0
  8  9  2  0
  8 17  1  0
  9 10  1  0
 10 11  1  0
 10 12  2  0
 12 13  1  0
 12 15  1  0
 13 14  1  0
 15 16  1  0
 15 17  2  0
 18 19  1  0
 18 21  2  0
 19 20  3  0
 21 22  1  0
 22 23  2  0
 23 24  1  0
 24 25  2  0
 25 26  1  0
 26 27  1  0
 27 28  1  0
 28 29  1  0
 30 29  1  6
 30 31  1  0
 30 36  1  0
 31 32  1  0
 32 33  1  0
 33 34  1  6
 33 35  1  0
 35 36  1  0
M  CHG  2  30   1  33   1
M  END
