
     RDKit          3D

 36 40  0  0  0  0  0  0  0  0999 V2000
    1.8690   -4.7780    0.2140 C   0  0  0  0  0  0  0  0  0  0  0  0
    1.6380   -3.3180    0.2420 C   0  0  0  0  0  0  0  0  0  0  0  0
    2.7170   -2.4770    0.1010 C   0  0  0  0  0  0  0  0  0  0  0  0
    2.5010   -1.1220    0.1260 C   0  0  0  0  0  0  0  0  0  0  0  0
    3.5730   -0.1930   -0.1030 N   0  0  0  0  0  0  0  0  0  0  0  0
    4.9470   -0.4700   -0.0590 C   0  0  0  0  0  0  0  0  0  0  0  0
    5.4820   -1.6560    0.2130 N   0  0  0  0  0  0  0  0  0  0  0  0
    6.7690   -1.9650    0.2670 C   0  0  0  0  0  0  0  0  0  0  0  0
    7.6560   -0.9650    0.0180 N   0  0  0  0  0  0  0  0  0  0  0  0
    7.1560    0.2590   -0.2630 C   0  0  0  0  0  0  0  0  0  0  0  0
    8.0080    1.1780   -0.4930 O   0  0  0  0  0  0  0  0  0  0  0  0
    5.8470    0.5260   -0.3070 N   0  0  0  0  0  0  0  0  0  0  0  0
    1.2090   -0.5720    0.2930 C   0  0  0  0  0  0  0  0  0  0  0  0
    0.1520   -1.4740    0.4290 C   0  0  0  0  0  0  0  0  0  0  0  0
    0.4430   -2.8080    0.3940 N   0  0  0  0  0  0  0  0  0  0  0  0
   -1.2220   -1.1260    0.6010 N   0  0  0  0  0  0  0  0  0  0  0  0
   -2.1780   -0.5830   -0.3030 C   0  0  1  0  0  0  0  0  0  0  0  0
   -3.3430   -1.5800   -0.5420 C   0  0  1  0  0  0  0  0  0  0  0  0
   -2.8980   -2.8860   -1.0640 C   0  0  0  0  0  0  0  0  0  0  0  0
   -3.4490   -3.8860   -0.0640 C   0  0  0  0  0  0  0  0  0  0  0  0
   -4.4230   -3.0450    0.7440 C   0  0  0  0  0  0  0  0  0  0  0  0
   -3.8750   -1.7890    0.7170 O   0  0  0  0  0  0  0  0  0  0  0  0
   -2.8730    0.6340    0.2920 C   0  0  0  0  0  0  0  0  0  0  0  0
   -3.4140    1.5360   -0.7670 C   0  0  0  0  0  0  0  0  0  0  0  0
   -3.7550    2.9220   -0.3680 C   0  0  0  0  0  0  0  0  0  0  0  0
   -2.7610    3.4660    0.4130 O   0  0  0  0  0  0  0  0  0  0  0  0
   -1.9690    4.3310   -0.2990 N   0  0  0  0  0  0  0  0  0  0  0  0
   -2.6400    5.2830   -1.1440 C   0  0  0  0  0  0  0  0  0  0  0  0
   -0.5440    4.2660   -0.1870 C   0  0  0  0  0  0  0  0  0  0  0  0
   -0.0070    5.4120   -0.4540 O   0  0  0  0  0  0  0  0  0  0  0  0
    0.3060    3.1240    0.1790 C   0  0  0  0  0  0  0  0  0  0  0  0
    1.2320    3.5420    1.1770 C   0  0  0  0  0  0  0  0  0  0  0  0
    2.0920    2.6530    1.7840 C   0  0  0  0  0  0  0  0  0  0  0  0
    2.0350    1.3480    1.4020 C   0  0  0  0  0  0  0  0  0  0  0  0
    1.1140    0.9150    0.4040 C   0  0  0  0  0  0  0  0  0  0  0  0
    0.2520    1.8030   -0.2150 C   0  0  0  0  0  0  0  0  0  0  0  0
  1  2  1  0
  2  3  2  0
  2 15  1  0
  3  4  1  0
  4  5  1  0
  4 13  2  0
  5  6  1  0
  6  7  2  0
  6 12  1  0
  7  8  1  0
  8  9  2  0
  9 10  1  0
 10 11  2  0
 10 12  1  0
 13 14  1  0
 13 35  1  0
 14 15  2  0
 14 16  1  0
 16 17  1  0
 17 18  1  0
 17 23  1  1
 18 19  1  1
 18 22  1  0
 19 20  1  0
 20 21  1  0
 21 22  1  0
 23 24  1  0
 24 25  1  0
 25 26  1  0
 26 27  1  0
 27 28  1  0
 27 29  1  0
 29 30  2  0
 29 31  1  0
 31 32  1  0
 31 36  2  0
 32 33  2  0
 33 34  1  0
 34 35  2  0
 35 36  1  0
M  END
