
     RDKit          3D

 33 36  0  0  0  0  0  0  0  0999 V2000
    5.1080    2.5980   -1.3830 C   0  0  0  0  0  0  0  0  0  0  0  0
    5.5310    2.2980   -0.0160 N   0  0  0  0  0  0  0  0  0  0  0  0
    6.4040    3.0950    0.6170 C   0  0  0  0  0  0  0  0  0  0  0  0
    6.8080    2.8180    1.9080 C   0  0  0  0  0  0  0  0  0  0  0  0
    6.2740    1.6950    2.5040 C   0  0  0  0  0  0  0  0  0  0  0  0
    6.6130    1.4000    3.6830 O   0  0  0  0  0  0  0  0  0  0  0  0
    5.3730    0.8870    1.8250 C   0  0  0  0  0  0  0  0  0  0  0  0
    4.8260   -0.2370    2.3950 C   0  0  0  0  0  0  0  0  0  0  0  0
    3.9150   -1.0360    1.6830 C   0  0  0  0  0  0  0  0  0  0  0  0
    3.5240   -0.7490    0.4050 C   0  0  0  0  0  0  0  0  0  0  0  0
    2.6020   -1.4980   -0.3690 N   0  0  0  0  0  0  0  0  0  0  0  0
    1.8060   -2.5720    0.0790 C   0  0  0  0  0  0  0  0  0  0  0  0
    1.8590   -2.9550    1.2530 O   0  0  0  0  0  0  0  0  0  0  0  0
    0.8890   -3.2370   -0.9190 C   0  0  0  0  0  0  0  0  0  0  0  0
    0.0250   -4.2520   -0.2410 C   0  0  0  0  0  0  0  0  0  0  0  0
   -0.8660   -3.6090    0.7760 C   0  0  0  0  0  0  0  0  0  0  0  0
   -1.8170   -2.6540    0.1370 C   0  0  0  0  0  0  0  0  0  0  0  0
   -1.8630   -2.6200   -1.1050 O   0  0  0  0  0  0  0  0  0  0  0  0
   -2.6280   -1.8260    0.9410 N   0  0  0  0  0  0  0  0  0  0  0  0
   -3.5570   -0.8920    0.4760 C   0  0  0  0  0  0  0  0  0  0  0  0
   -3.8150   -0.6520   -0.8400 C   0  0  0  0  0  0  0  0  0  0  0  0
   -4.7680    0.3060   -1.2170 C   0  0  0  0  0  0  0  0  0  0  0  0
   -5.4690    1.0310   -0.2820 C   0  0  0  0  0  0  0  0  0  0  0  0
   -6.4260    1.9920   -0.7260 N   0  0  0  0  0  0  0  0  0  0  0  0
   -7.2450    1.9130   -1.8170 C   0  0  0  0  0  0  0  0  0  0  0  0
   -8.0090    3.0520   -1.8780 C   0  0  0  0  0  0  0  0  0  0  0  0
   -7.6450    3.8270   -0.8070 C   0  0  0  0  0  0  0  0  0  0  0  0
   -6.6940    3.1480   -0.1480 N   0  0  0  0  0  0  0  0  0  0  0  0
   -5.2220    0.8030    1.0310 C   0  0  0  0  0  0  0  0  0  0  0  0
   -4.2850   -0.1400    1.3910 C   0  0  0  0  0  0  0  0  0  0  0  0
   -4.0510   -0.3550    2.7010 F   0  0  0  0  0  0  0  0  0  0  0  0
    4.0950    0.4030   -0.1560 C   0  0  0  0  0  0  0  0  0  0  0  0
    4.9860    1.1860    0.5380 C   0  0  0  0  0  0  0  0  0  0  0  0
  1  2  1  0
  2  3  1  0
  2 33  1  0
  3  4  2  0
  4  5  1  0
  5  6  2  0
  5  7  1  0
  7  8  2  0
  7 33  1  0
  8  9  1  0
  9 10  2  0
 10 11  1  0
 10 32  1  0
 11 12  1  0
 12 13  2  0
 12 14  1  0
 14 15  1  0
 15 16  1  0
 16 17  1  0
 17 18  2  0
 17 19  1  0
 19 20  1  0
 20 21  2  0
 20 30  1  0
 21 22  1  0
 22 23  2  0
 23 24  1  0
 23 29  1  0
 24 25  1  0
 24 28  1  0
 25 26  2  0
 26 27  1  0
 27 28  2  0
 29 30  2  0
 30 31  1  0
 32 33  2  0
M  END
