
     RDKit          3D

 33 35  0  0  0  0  0  0  0  0999 V2000
    6.1990    4.7840    0.2720 C   0  0  0  0  0  0  0  0  0  0  0  0
    5.2670    3.8490    0.2870 C   0  0  0  0  0  0  0  0  0  0  0  0
    3.9770    4.0170    0.5220 N   0  0  0  0  0  0  0  0  0  0  0  0
    3.3260    2.8460    0.4560 C   0  0  0  0  0  0  0  0  0  0  0  0
    1.9920    2.5210    0.6260 C   0  0  0  0  0  0  0  0  0  0  0  0
    1.5840    1.2200    0.5020 C   0  0  0  0  0  0  0  0  0  0  0  0
    2.4870    0.1900    0.2020 C   0  0  0  0  0  0  0  0  0  0  0  0
    2.0010   -1.1090    0.1120 N   0  0  0  0  0  0  0  0  0  0  0  0
    2.6770   -2.1730   -0.4910 C   0  0  0  0  0  0  0  0  0  0  0  0
    3.8240   -2.0370   -1.0200 O   0  0  0  0  0  0  0  0  0  0  0  0
    2.1380   -3.5630   -0.5770 C   0  0  0  0  0  0  0  0  0  0  0  0
    0.8080   -3.5650   -0.1530 O   0  0  0  0  0  0  0  0  0  0  0  0
   -0.1500   -2.8480   -0.8710 C   0  0  0  0  0  0  0  0  0  0  0  0
    0.1530   -2.1230   -2.0190 C   0  0  0  0  0  0  0  0  0  0  0  0
   -0.8380   -1.4360   -2.6870 C   0  0  0  0  0  0  0  0  0  0  0  0
   -2.1090   -1.5090   -2.1640 C   0  0  0  0  0  0  0  0  0  0  0  0
   -2.4520   -2.2140   -1.0310 C   0  0  0  0  0  0  0  0  0  0  0  0
   -3.7980   -2.3260   -0.5310 C   0  0  0  0  0  0  0  0  0  0  0  0
   -4.5370   -3.1850   -1.1280 O   0  0  0  0  0  0  0  0  0  0  0  0
   -4.3040   -1.5750    0.5400 N   0  0  0  0  0  0  0  0  0  0  0  0
   -5.6910   -1.8080    0.9860 C   0  0  0  0  0  0  0  0  0  0  0  0
   -3.5600   -0.5900    1.2530 C   0  0  0  0  0  0  0  0  0  0  0  0
   -3.7640    0.7950    0.7860 C   0  0  1  0  0  0  0  0  0  0  0  0
   -3.4220    1.0940   -0.6290 C   0  0  0  0  0  0  0  0  0  0  0  0
   -5.1540    1.2870    1.1550 C   0  0  0  0  0  0  0  0  0  0  0  0
   -5.3410    2.6600    0.7060 N   0  0  0  0  0  0  0  0  0  0  0  0
   -1.4280   -2.8960   -0.3830 C   0  0  0  0  0  0  0  0  0  0  0  0
   -1.7820   -3.6700    0.8490 C   0  0  0  0  0  0  0  0  0  0  0  0
    3.7860    0.5620    0.0450 C   0  0  0  0  0  0  0  0  0  0  0  0
    4.2650    1.8680    0.1590 C   0  0  0  0  0  0  0  0  0  0  0  0
    5.4840    2.4950    0.0520 C   0  0  0  0  0  0  0  0  0  0  0  0
    6.6280    1.9210   -0.2200 C   0  0  0  0  0  0  0  0  0  0  0  0
    6.9410    0.5240   -0.4770 C   0  0  0  0  0  0  0  0  0  0  0  0
  1  2  2  0
  2  3  1  0
  2 31  1  0
  3  4  1  0
  4  5  2  0
  4 30  1  0
  5  6  1  0
  6  7  2  0
  7  8  1  0
  7 29  1  0
  8  9  1  0
  9 10  2  0
  9 11  1  0
 11 12  1  0
 12 13  1  0
 13 14  2  0
 13 27  1  0
 14 15  1  0
 15 16  2  0
 16 17  1  0
 17 18  1  0
 17 27  2  0
 18 19  2  0
 18 20  1  0
 20 21  1  0
 20 22  1  0
 22 23  1  0
 23 24  1  6
 23 25  1  0
 25 26  1  0
 27 28  1  0
 29 30  2  0
 30 31  1  0
 31 32  2  3
 32 33  1  0
M  CHG  1  26   1
M  END
