
     RDKit          3D

 33 36  0  0  0  0  0  0  0  0999 V2000
    5.5720    4.0600   -1.2130 C   0  0  0  0  0  0  0  0  0  0  0  0
    5.9760    3.3120    0.0410 C   0  0  0  0  0  0  0  0  0  0  0  0
    5.0540    2.2300    0.3270 N   0  0  0  0  0  0  0  0  0  0  0  0
    4.8340    1.1470   -0.5750 C   0  0  0  0  0  0  0  0  0  0  0  0
    5.4360    0.9950   -1.7620 N   0  0  0  0  0  0  0  0  0  0  0  0
    4.9730   -0.1200   -2.2920 O   0  0  0  0  0  0  0  0  0  0  0  0
    4.0980   -0.6880   -1.4940 C   0  0  0  0  0  0  0  0  0  0  0  0
    3.3790   -1.9730   -1.8000 C   0  0  0  0  0  0  0  0  0  0  0  0
    2.5040   -2.2340   -0.6650 N   0  0  0  0  0  0  0  0  0  0  0  0
    2.7620   -2.9410    0.5290 C   0  0  0  0  0  0  0  0  0  0  0  0
    1.5320   -2.8030    1.3480 C   0  0  0  0  0  0  0  0  0  0  0  0
    1.2090   -3.2650    2.6290 C   0  0  0  0  0  0  0  0  0  0  0  0
    2.2840   -4.0110    3.3470 C   0  0  0  0  0  0  0  0  0  0  0  0
   -0.0270   -3.0520    3.1890 C   0  0  0  0  0  0  0  0  0  0  0  0
   -0.9700   -2.3480    2.4280 C   0  0  0  0  0  0  0  0  0  0  0  0
   -0.6990   -1.8800    1.1780 C   0  0  0  0  0  0  0  0  0  0  0  0
   -1.6160   -1.1160    0.3350 C   0  0  0  0  0  0  0  0  0  0  0  0
   -2.6770   -1.7230    0.0170 O   0  0  0  0  0  0  0  0  0  0  0  0
   -1.3490    0.2160   -0.1030 N   0  0  0  0  0  0  0  0  0  0  0  0
   -2.3020    0.8420   -0.9460 C   0  0  0  0  0  0  0  0  0  0  0  0
   -3.6630    1.0130   -0.4100 C   0  0  0  0  0  0  0  0  0  0  0  0
   -4.0850    0.6650    0.8440 C   0  0  0  0  0  0  0  0  0  0  0  0
   -5.4130    0.8710    1.2130 C   0  0  0  0  0  0  0  0  0  0  0  0
   -6.3320    1.4220    0.3450 C   0  0  0  0  0  0  0  0  0  0  0  0
   -7.7500    1.6210    0.7530 C   0  0  0  0  0  0  0  0  0  0  0  0
   -5.9010    1.7750   -0.9220 C   0  0  0  0  0  0  0  0  0  0  0  0
   -6.8080    2.3220   -1.7730 F   0  0  0  0  0  0  0  0  0  0  0  0
   -4.5920    1.5740   -1.2930 C   0  0  0  0  0  0  0  0  0  0  0  0
   -4.1930    1.9700   -2.6530 C   0  0  0  0  0  0  0  0  0  0  0  0
    0.5770   -2.1210    0.6500 C   0  0  0  0  0  0  0  0  0  0  0  0
    1.1630   -1.7530   -0.6230 C   0  0  0  0  0  0  0  0  0  0  0  0
    0.5690   -1.1120   -1.5380 O   0  0  0  0  0  0  0  0  0  0  0  0
    4.0120    0.1010   -0.4240 N   0  0  0  0  0  0  0  0  0  0  0  0
  1  2  1  0
  2  3  1  0
  3  4  1  0
  4  5  2  0
  4 33  1  0
  5  6  1  0
  6  7  1  0
  7  8  1  0
  7 33  2  0
  8  9  1  0
  9 10  1  0
  9 31  1  0
 10 11  1  0
 11 12  2  0
 11 30  1  0
 12 13  1  0
 12 14  1  0
 14 15  2  0
 15 16  1  0
 16 17  1  0
 16 30  2  0
 17 18  2  0
 17 19  1  0
 19 20  1  0
 20 21  1  0
 21 22  2  0
 21 28  1  0
 22 23  1  0
 23 24  2  0
 24 25  1  0
 24 26  1  0
 26 27  1  0
 26 28  2  0
 28 29  1  0
 30 31  1  0
 31 32  2  0
M  END
