
     RDKit          3D

 32 33  0  0  0  0  0  0  0  0999 V2000
    8.9430    1.5200   -0.2150 C   0  0  0  0  0  0  0  0  0  0  0  0
    7.9580    0.6870    0.0450 C   0  0  0  0  0  0  0  0  0  0  0  0
    6.8200    1.1290    0.8060 C   0  0  0  0  0  0  0  0  0  0  0  0
    5.8300    0.3100    1.0740 C   0  0  0  0  0  0  0  0  0  0  0  0
    4.5720    0.5270    1.8260 C   0  0  0  0  0  0  0  0  0  0  0  0
    3.5880   -0.1510    0.9160 N   0  0  0  0  0  0  0  0  0  0  0  0
    2.3490    0.4240    0.6870 C   0  0  0  0  0  0  0  0  0  0  0  0
    2.2580    1.6190    1.2320 O   0  0  0  0  0  0  0  0  0  0  0  0
    1.1870   -0.0320   -0.0100 C   0  0  0  0  0  0  0  0  0  0  0  0
    0.8920   -1.1510   -0.6220 C   0  0  0  0  0  0  0  0  0  0  0  0
    1.7670   -2.2660   -0.7270 N   0  0  0  0  0  0  0  0  0  0  0  0
   -0.4430   -1.1800   -1.2180 C   0  0  0  0  0  0  0  0  0  0  0  0
   -1.0980   -2.1040   -1.8720 C   0  0  0  0  0  0  0  0  0  0  0  0
   -0.7350   -3.4470   -2.2440 C   0  0  0  0  0  0  0  0  0  0  0  0
    0.4340   -4.0350   -1.9430 F   0  0  0  0  0  0  0  0  0  0  0  0
   -1.6020   -4.2040   -2.9320 C   0  0  0  0  0  0  0  0  0  0  0  0
   -1.2430   -5.4500   -3.2680 F   0  0  0  0  0  0  0  0  0  0  0  0
   -2.7940   -3.6580   -3.2470 F   0  0  0  0  0  0  0  0  0  0  0  0
   -1.0160    0.1530   -0.8950 C   0  0  0  0  0  0  0  0  0  0  0  0
   -2.2170    0.5890   -1.2280 C   0  0  0  0  0  0  0  0  0  0  0  0
   -2.7260    1.9060   -0.8860 C   0  0  0  0  0  0  0  0  0  0  0  0
   -3.9660    1.8110   -0.0260 N   0  0  0  0  0  0  0  0  0  0  0  0
   -4.9430    1.2580   -0.9810 C   0  0  0  0  0  0  0  0  0  0  0  0
   -3.6900    0.8810    1.0180 C   0  0  0  0  0  0  0  0  0  0  0  0
   -4.5080    0.8400    2.2350 C   0  0  0  0  0  0  0  0  0  0  0  0
   -5.9670    0.6030    2.0890 C   0  0  0  0  0  0  0  0  0  0  0  0
   -6.7220    1.6210    1.4290 N   0  0  0  0  0  0  0  0  0  0  0  0
   -0.0200    0.8710   -0.1500 C   0  0  0  0  0  0  0  0  0  0  0  0
   -0.1250    2.0440    0.3090 O   0  0  0  0  0  0  0  0  0  0  0  0
    4.2180   -1.3130    0.4230 C   0  0  0  0  0  0  0  0  0  0  0  0
    5.7080   -1.0870    0.6890 C   0  0  0  0  0  0  0  0  0  0  0  0
    6.6160   -1.9460    0.5870 O   0  0  0  0  0  0  0  0  0  0  0  0
  1  2  2  0
  2  3  1  0
  3  4  2  3
  4  5  1  0
  4 31  1  0
  5  6  1  0
  6  7  1  0
  6 30  1  0
  7  8  2  0
  7  9  1  0
  9 10  2  0
  9 28  1  0
 10 11  1  0
 10 12  1  0
 12 13  2  3
 12 19  1  0
 13 14  1  0
 14 15  1  0
 14 16  2  3
 16 17  1  0
 16 18  1  0
 19 20  2  3
 19 28  1  0
 20 21  1  0
 21 22  1  0
 22 23  1  0
 22 24  1  0
 24 25  1  0
 25 26  1  0
 26 27  1  0
 28 29  2  0
 30 31  1  0
 31 32  2  0
M  CHG  1  27   1
M  END
