
     RDKit          3D

 33 35  0  0  0  0  0  0  0  0999 V2000
    0.4640   -2.3780   -5.6440 C   0  0  0  0  0  0  0  0  0  0  0  0
    0.4410   -2.1460   -4.2570 C   0  0  0  0  0  0  0  0  0  0  0  0
    0.1960   -1.3500   -3.2110 O   0  0  0  0  0  0  0  0  0  0  0  0
   -0.7530   -0.5940   -2.6770 C   0  0  0  0  0  0  0  0  0  0  0  0
   -1.9980   -0.3990   -3.2370 C   0  0  0  0  0  0  0  0  0  0  0  0
   -2.9400    0.4280   -2.6180 C   0  0  0  0  0  0  0  0  0  0  0  0
   -4.1590    0.6470   -3.1380 N   0  0  0  0  0  0  0  0  0  0  0  0
   -5.0760    1.4650   -2.5390 C   0  0  0  0  0  0  0  0  0  0  0  0
   -4.7820    2.1050   -1.3540 C   0  0  0  0  0  0  0  0  0  0  0  0
   -5.7110    2.9230   -0.6860 C   0  0  0  0  0  0  0  0  0  0  0  0
   -6.5100    3.6550   -0.0940 N   0  0  0  0  0  0  0  0  0  0  0  0
   -3.5150    1.8730   -0.8160 C   0  0  0  0  0  0  0  0  0  0  0  0
   -3.1790    2.4330    0.4220 N   0  0  0  0  0  0  0  0  0  0  0  0
   -3.3470    1.6780    1.6240 C   0  0  0  0  0  0  0  0  0  0  0  0
   -3.7870    0.3540    1.4800 C   0  0  0  0  0  0  0  0  0  0  0  0
   -3.9400   -0.4540    2.5660 C   0  0  0  0  0  0  0  0  0  0  0  0
   -3.6670    0.0120    3.8550 C   0  0  0  0  0  0  0  0  0  0  0  0
   -3.8290   -0.8230    4.9100 F   0  0  0  0  0  0  0  0  0  0  0  0
   -3.2380    1.3030    4.0310 C   0  0  0  0  0  0  0  0  0  0  0  0
   -2.8910    1.9530    5.6120 Cl  0  0  0  0  0  0  0  0  0  0  0  0
   -3.0850    2.1300    2.8720 C   0  0  0  0  0  0  0  0  0  0  0  0
   -2.6190    1.0470   -1.4480 C   0  0  0  0  0  0  0  0  0  0  0  0
   -1.3590    0.8360   -0.9010 C   0  0  0  0  0  0  0  0  0  0  0  0
   -0.4030    0.0380   -1.4590 C   0  0  0  0  0  0  0  0  0  0  0  0
    0.8760   -0.1760   -0.9380 N   0  0  0  0  0  0  0  0  0  0  0  0
    1.3180    0.1460    0.3750 C   0  0  0  0  0  0  0  0  0  0  0  0
    0.4330    0.6630    1.1240 O   0  0  0  0  0  0  0  0  0  0  0  0
    2.6340   -0.0370    0.9270 C   0  0  0  0  0  0  0  0  0  0  0  0
    3.7220   -0.4760    0.3840 C   0  0  0  0  0  0  0  0  0  0  0  0
    5.0470   -0.6310    1.0460 C   0  0  0  0  0  0  0  0  0  0  0  0
    5.0510   -0.3150    2.4450 N   0  0  2  0  0  0  0  0  0  0  0  0
    6.4810    0.0280    2.7440 C   0  0  0  0  0  0  0  0  0  0  0  0
    4.8570   -1.5280    3.2610 C   0  0  0  0  0  0  0  0  0  0  0  0
  1  2  1  0
  2  3  1  0
  3  4  1  0
  4  5  2  0
  4 24  1  0
  5  6  1  0
  6  7  2  0
  6 22  1  0
  7  8  1  0
  8  9  2  0
  9 10  1  0
  9 12  1  0
 10 11  3  0
 12 13  1  0
 12 22  2  0
 13 14  1  0
 14 15  2  0
 14 21  1  0
 15 16  1  0
 16 17  2  0
 17 18  1  0
 17 19  1  0
 19 20  1  0
 19 21  2  0
 22 23  1  0
 23 24  2  0
 24 25  1  0
 25 26  1  0
 26 27  2  0
 26 28  1  0
 28 29  2  3
 29 30  1  0
 30 31  1  0
 31 32  1  1
 31 33  1  0
M  CHG  1  31   1
M  END
