
     RDKit          3D

 32 33  0  0  0  0  0  0  0  0999 V2000
    4.3090    1.6810   -1.9340 C   0  0  0  0  0  0  0  0  0  0  0  0
    3.0280    1.1480   -1.4020 C   0  0  0  0  0  0  0  0  0  0  0  0
    1.8190    1.9410   -1.3790 C   0  0  0  0  0  0  0  0  0  0  0  0
    1.7650    3.0280   -0.4830 N   0  0  0  0  0  0  0  0  0  0  0  0
    3.0130   -0.1540   -1.0270 C   0  0  0  0  0  0  0  0  0  0  0  0
    4.2450   -0.8690   -1.2080 C   0  0  0  0  0  0  0  0  0  0  0  0
    4.7830   -2.0100   -1.0360 C   0  0  0  0  0  0  0  0  0  0  0  0
    6.2730   -2.1270   -1.4870 C   0  0  0  0  0  0  0  0  0  0  0  0
    6.7180   -0.9370   -1.9950 O   0  0  0  0  0  0  0  0  0  0  0  0
    4.2830   -3.2540   -0.4860 C   0  0  1  0  0  0  0  0  0  0  0  0
    3.3710   -3.8250   -1.3410 F   0  0  0  0  0  0  0  0  0  0  0  0
    5.3910   -4.1970   -0.4880 F   0  0  0  0  0  0  0  0  0  0  0  0
    3.9080   -3.1620    0.8160 F   0  0  0  0  0  0  0  0  0  0  0  0
    1.7970   -0.6600   -0.4020 C   0  0  0  0  0  0  0  0  0  0  0  0
    1.7260   -1.8800   -0.1180 O   0  0  0  0  0  0  0  0  0  0  0  0
    0.7130    0.1910   -0.1070 N   0  0  0  0  0  0  0  0  0  0  0  0
   -0.2610   -0.0250    0.6850 C   0  0  0  0  0  0  0  0  0  0  0  0
   -0.3560   -1.2930    1.4350 C   0  0  0  0  0  0  0  0  0  0  0  0
   -1.1200   -2.3210    0.7760 N   0  0  0  0  0  0  0  0  0  0  0  0
   -2.4810   -2.2340    0.4130 C   0  0  0  0  0  0  0  0  0  0  0  0
   -3.1190   -1.1940    0.6720 O   0  0  0  0  0  0  0  0  0  0  0  0
   -3.2090   -3.3340   -0.2740 C   0  0  1  0  0  0  0  0  0  0  0  0
   -4.5930   -3.6110    0.2570 C   0  0  0  0  0  0  0  0  0  0  0  0
   -4.3970   -3.0400   -1.1120 C   0  0  0  0  0  0  0  0  0  0  0  0
   -1.2930    0.9690    0.8140 N   0  0  0  0  0  0  0  0  0  0  0  0
   -1.8500    1.4000    2.0720 C   0  0  0  0  0  0  0  0  0  0  0  0
   -3.1340    2.1290    1.7350 C   0  0  1  0  0  0  0  0  0  0  0  0
   -4.3450    1.5370    2.4090 C   0  0  0  0  0  0  0  0  0  0  0  0
   -3.0310    3.5800    2.1690 C   0  0  0  0  0  0  0  0  0  0  0  0
   -3.3200    2.0460    0.2540 C   0  0  0  0  0  0  0  0  0  0  0  0
   -1.9290    1.6970   -0.2450 C   0  0  2  0  0  0  0  0  0  0  0  0
   -2.0680    0.9390   -1.5310 C   0  0  0  0  0  0  0  0  0  0  0  0
  1  2  1  0
  2  3  1  0
  2  5  2  3
  3  4  1  0
  5  6  1  0
  5 14  1  0
  6  7  2  3
  7  8  1  0
  7 10  1  0
  8  9  1  0
 10 11  1  6
 10 12  1  0
 10 13  1  0
 14 15  2  0
 14 16  1  0
 16 17  2  3
 17 18  1  0
 17 25  1  0
 18 19  1  0
 19 20  1  0
 20 21  2  0
 22 20  1  1
 22 23  1  0
 22 24  1  0
 23 24  1  0
 25 26  1  0
 25 31  1  0
 26 27  1  0
 27 28  1  1
 27 29  1  0
 27 30  1  0
 30 31  1  0
 31 32  1  6
M  CHG  1   4   1
M  END
