
     RDKit          3D

 32 33  0  0  0  0  0  0  0  0999 V2000
   -4.9200    0.4270   -0.5060 O   0  0  0  0  0  0  0  0  0  0  0  0
   -4.2290   -0.5140   -0.1130 C   0  0  0  0  0  0  0  0  0  0  0  0
   -4.8590   -1.8030   -0.0090 N   0  0  0  0  0  0  0  0  0  0  0  0
   -6.2560   -1.9020   -0.3750 C   0  0  0  0  0  0  0  0  0  0  0  0
   -6.7080   -3.3390   -0.1870 C   0  0  0  0  0  0  0  0  0  0  0  0
   -5.8920   -4.2710   -1.0600 C   0  0  0  0  0  0  0  0  0  0  0  0
   -6.0660   -3.9030   -2.3880 O   0  0  0  0  0  0  0  0  0  0  0  0
   -2.8740   -0.3240    0.2190 N   0  0  0  0  0  0  0  0  0  0  0  0
   -2.2140    1.0000    0.1440 C   0  0  1  0  0  0  0  0  0  0  0  0
   -0.7620    0.6290    0.4420 C   0  0  0  0  0  0  0  0  0  0  0  0
   -0.4460   -0.5620    0.5560 O   0  0  0  0  0  0  0  0  0  0  0  0
    0.1920    1.6470    0.5850 N   0  0  0  0  0  0  0  0  0  0  0  0
    1.5670    1.4440    0.8550 C   0  0  0  0  0  0  0  0  0  0  0  0
    2.1930    0.3100    1.0120 C   0  0  0  0  0  0  0  0  0  0  0  0
    3.6180    0.1670    1.2900 C   0  0  0  0  0  0  0  0  0  0  0  0
    4.1930   -1.0070    1.4380 C   0  0  0  0  0  0  0  0  0  0  0  0
    5.6310   -1.1590    1.7190 C   0  0  0  0  0  0  0  0  0  0  0  0
    6.2910   -1.9340    0.6560 N   0  0  1  0  0  0  0  0  0  0  0  0
    5.9130   -1.4710   -0.6440 C   0  0  0  0  0  0  0  0  0  0  0  0
    7.1780   -1.3190   -1.4520 C   0  0  0  0  0  0  0  0  0  0  0  0
    8.1990   -0.9830   -0.3770 C   0  0  0  0  0  0  0  0  0  0  0  0
    7.7110   -1.8080    0.7890 C   0  0  0  0  0  0  0  0  0  0  0  0
    2.4250    2.6820    0.9780 C   0  0  1  0  0  0  0  0  0  0  0  0
    3.3910    2.5900    0.0120 F   0  0  0  0  0  0  0  0  0  0  0  0
    1.6350    3.8240    0.7900 F   0  0  0  0  0  0  0  0  0  0  0  0
    3.0120    2.7070    2.2200 F   0  0  0  0  0  0  0  0  0  0  0  0
   -2.2410    1.5210   -1.2180 C   0  0  0  0  0  0  0  0  0  0  0  0
   -2.0510    2.9620   -1.4040 C   0  0  0  0  0  0  0  0  0  0  0  0
   -2.5980    3.9220   -0.4340 C   0  0  0  0  0  0  0  0  0  0  0  0
   -3.9650    3.5500    0.1070 C   0  0  0  0  0  0  0  0  0  0  0  0
   -3.8160    2.6360    1.3030 C   0  0  0  0  0  0  0  0  0  0  0  0
   -2.5750    1.8500    1.2930 C   0  0  0  0  0  0  0  0  0  0  0  0
  1  2  2  0
  2  3  1  0
  2  8  1  0
  3  4  1  0
  4  5  1  0
  5  6  1  0
  6  7  1  0
  9  8  1  6
  9 10  1  0
  9 27  1  0
  9 32  1  0
 10 11  2  0
 10 12  1  0
 12 13  1  0
 13 14  2  3
 13 23  1  0
 14 15  1  0
 15 16  2  3
 16 17  1  0
 18 17  1  1
 18 19  1  0
 18 22  1  0
 19 20  1  0
 20 21  1  0
 21 22  1  0
 23 24  1  6
 23 25  1  0
 23 26  1  0
 27 28  1  0
 28 29  1  0
 29 30  1  0
 30 31  1  0
 31 32  1  0
M  CHG  1  18   1
M  END
