
     RDKit          3D

 36 39  0  0  0  0  0  0  0  0999 V2000
   -7.1670   -1.1490    0.5870 C   0  0  0  0  0  0  0  0  0  0  0  0
   -5.7620   -1.6570    0.3210 C   0  0  0  0  0  0  0  0  0  0  0  0
   -4.8000   -0.6060    0.7250 C   0  0  0  0  0  0  0  0  0  0  0  0
   -4.1130   -0.7500    1.8960 N   0  0  0  0  0  0  0  0  0  0  0  0
   -3.2310    0.1680    2.3180 C   0  0  0  0  0  0  0  0  0  0  0  0
   -2.5960    0.0260    3.4100 O   0  0  0  0  0  0  0  0  0  0  0  0
   -3.0040    1.2890    1.5600 C   0  0  0  0  0  0  0  0  0  0  0  0
   -2.0340    2.3640    1.9610 C   0  0  0  0  0  0  0  0  0  0  0  0
   -0.6560    1.9210    1.7050 C   0  0  0  0  0  0  0  0  0  0  0  0
    0.1010    1.4350    2.7390 C   0  0  0  0  0  0  0  0  0  0  0  0
    1.3930    1.0160    2.4830 C   0  0  0  0  0  0  0  0  0  0  0  0
    1.9640    1.0630    1.2290 C   0  0  0  0  0  0  0  0  0  0  0  0
    3.3560    0.6000    1.0330 C   0  0  0  0  0  0  0  0  0  0  0  0
    3.9870    0.2130    2.0450 O   0  0  0  0  0  0  0  0  0  0  0  0
    3.9910    0.5740   -0.2040 N   0  0  0  0  0  0  0  0  0  0  0  0
    5.3050    0.1590   -0.5130 C   0  0  0  0  0  0  0  0  0  0  0  0
    5.7510    0.1600   -1.8410 C   0  0  0  0  0  0  0  0  0  0  0  0
    7.0070   -0.2220   -2.2140 C   0  0  0  0  0  0  0  0  0  0  0  0
    7.9160   -0.6380   -1.2680 C   0  0  0  0  0  0  0  0  0  0  0  0
    7.5310   -0.6580    0.0470 C   0  0  0  0  0  0  0  0  0  0  0  0
    6.2430   -0.2630    0.4030 C   0  0  0  0  0  0  0  0  0  0  0  0
    8.4440   -1.0830    1.0650 N   0  0  0  0  0  0  0  0  0  0  0  0
    9.7440   -1.4750    0.6430 C   0  0  0  0  0  0  0  0  0  0  0  0
   10.6890   -1.4030    1.4730 O   0  0  0  0  0  0  0  0  0  0  0  0
    9.9070   -1.9450   -0.7490 C   0  0  0  0  0  0  0  0  0  0  0  0
    9.2090   -1.0370   -1.6000 O   0  0  0  0  0  0  0  0  0  0  0  0
    1.1810    1.5530    0.2280 C   0  0  0  0  0  0  0  0  0  0  0  0
   -0.1180    1.9830    0.4380 C   0  0  0  0  0  0  0  0  0  0  0  0
   -3.6950    1.4420    0.3760 C   0  0  0  0  0  0  0  0  0  0  0  0
   -4.6010    0.4930   -0.0520 C   0  0  0  0  0  0  0  0  0  0  0  0
   -5.2890    0.7090   -1.2970 C   0  0  0  0  0  0  0  0  0  0  0  0
   -5.0420    1.7980   -1.9420 O   0  0  0  0  0  0  0  0  0  0  0  0
   -6.2010   -0.1340   -1.8940 O   0  0  0  0  0  0  0  0  0  0  0  0
   -6.8010    0.2070   -3.1230 C   0  0  0  0  0  0  0  0  0  0  0  0
   -7.7590   -0.8880   -3.5560 C   0  0  0  0  0  0  0  0  0  0  0  0
   -8.3370   -0.5380   -4.7600 F   0  0  0  0  0  0  0  0  0  0  0  0
  1  2  1  0
  2  3  1  0
  3  4  1  0
  3 30  2  0
  4  5  1  0
  5  6  2  0
  5  7  1  0
  7  8  1  0
  7 29  2  0
  8  9  1  0
  9 10  2  0
  9 28  1  0
 10 11  1  0
 11 12  2  0
 12 13  1  0
 12 27  1  0
 13 14  2  0
 13 15  1  0
 15 16  1  0
 16 17  2  0
 16 21  1  0
 17 18  1  0
 18 19  2  0
 19 20  1  0
 19 26  1  0
 20 21  2  0
 20 22  1  0
 22 23  1  0
 23 24  2  0
 23 25  1  0
 25 26  1  0
 27 28  2  0
 29 30  1  0
 30 31  1  0
 31 32  2  0
 31 33  1  0
 33 34  1  0
 34 35  1  0
 35 36  1  0
M  END
