
     RDKit          3D

 36 39  0  0  0  0  0  0  0  0999 V2000
   -4.7810    1.7120    3.2340 C   0  0  0  0  0  0  0  0  0  0  0  0
   -4.9630    0.6960    2.1840 C   0  0  0  0  0  0  0  0  0  0  0  0
   -3.9830    0.0170    1.5060 C   0  0  0  0  0  0  0  0  0  0  0  0
   -2.5240    0.1190    1.6320 C   0  0  0  0  0  0  0  0  0  0  0  0
   -2.0510    0.9410    2.4470 O   0  0  0  0  0  0  0  0  0  0  0  0
   -1.6520   -0.6820    0.8590 N   0  0  0  0  0  0  0  0  0  0  0  0
   -0.2950   -0.6300    0.9210 O   0  0  0  0  0  0  0  0  0  0  0  0
    0.1140   -0.5180   -0.4080 C   0  0  0  0  0  0  0  0  0  0  0  0
    1.5690   -0.4390   -0.4930 C   0  0  0  0  0  0  0  0  0  0  0  0
    2.3650   -0.4690    0.6210 C   0  0  0  0  0  0  0  0  0  0  0  0
    3.7610   -0.3860    0.5500 C   0  0  0  0  0  0  0  0  0  0  0  0
    4.4660   -0.4410    1.7690 N   0  0  0  0  0  0  0  0  0  0  0  0
    5.8320   -0.0830    1.8770 C   0  0  0  0  0  0  0  0  0  0  0  0
    6.5370    0.3140    0.9280 O   0  0  0  0  0  0  0  0  0  0  0  0
    6.4730   -0.1930    3.2430 C   0  0  0  0  0  0  0  0  0  0  0  0
    7.9230    0.2540    3.1680 C   0  0  0  0  0  0  0  0  0  0  0  0
    8.5150    0.1400    4.4830 N   0  0  0  0  0  0  0  0  0  0  0  0
    4.3080   -0.2740   -0.6920 C   0  0  0  0  0  0  0  0  0  0  0  0
    3.5100   -0.2420   -1.8420 C   0  0  0  0  0  0  0  0  0  0  0  0
    2.1420   -0.3230   -1.7600 C   0  0  0  0  0  0  0  0  0  0  0  0
    1.2880   -0.2990   -2.8370 O   0  0  0  0  0  0  0  0  0  0  0  0
    1.6380   -0.1890   -4.1610 C   0  0  0  0  0  0  0  0  0  0  0  0
    1.7490    1.0540   -4.7400 C   0  0  0  0  0  0  0  0  0  0  0  0
    2.0970    1.1630   -6.0630 C   0  0  0  0  0  0  0  0  0  0  0  0
    2.3340    0.0120   -6.8020 C   0  0  0  0  0  0  0  0  0  0  0  0
    2.6750    0.1230   -8.0960 F   0  0  0  0  0  0  0  0  0  0  0  0
    2.2250   -1.2410   -6.2280 C   0  0  0  0  0  0  0  0  0  0  0  0
    1.8720   -1.3430   -4.8900 C   0  0  0  0  0  0  0  0  0  0  0  0
   -4.6090   -0.7930    0.6660 O   0  0  0  0  0  0  0  0  0  0  0  0
   -5.8900   -0.6790    0.7600 C   0  0  0  0  0  0  0  0  0  0  0  0
   -6.1720    0.2690    1.7240 C   0  0  0  0  0  0  0  0  0  0  0  0
   -7.5800    0.5920    2.0220 C   0  0  0  0  0  0  0  0  0  0  0  0
   -7.8180    0.9450    3.2140 O   0  0  0  0  0  0  0  0  0  0  0  0
   -8.6230    0.4980    0.9650 C   0  0  0  0  0  0  0  0  0  0  0  0
   -8.0300   -0.1510   -0.2500 C   0  0  0  0  0  0  0  0  0  0  0  0
   -7.0910   -1.3020    0.1000 C   0  0  0  0  0  0  0  0  0  0  0  0
  1  2  1  0
  2  3  2  0
  2 31  1  0
  3  4  1  0
  3 29  1  0
  4  5  2  0
  4  6  1  0
  6  7  1  0
  7  8  1  0
  8  9  1  0
  9 10  2  0
  9 20  1  0
 10 11  1  0
 11 12  1  0
 11 18  2  0
 12 13  1  0
 13 14  2  0
 13 15  1  0
 15 16  1  0
 16 17  1  0
 18 19  1  0
 19 20  2  0
 20 21  1  0
 21 22  1  0
 22 23  2  0
 22 28  1  0
 23 24  1  0
 24 25  2  0
 25 26  1  0
 25 27  1  0
 27 28  2  0
 29 30  1  0
 30 31  2  0
 30 36  1  0
 31 32  1  0
 32 33  2  0
 32 34  1  0
 34 35  1  0
 35 36  1  0
M  END
