
     RDKit          3D

 36 39  0  0  0  0  0  0  0  0999 V2000
   -4.2120   -1.5890   -0.2170 C   0  0  0  0  0  0  0  0  0  0  0  0
   -2.7750   -1.3800   -0.3760 C   0  0  0  0  0  0  0  0  0  0  0  0
   -2.0470   -0.4620    0.1890 C   0  0  0  0  0  0  0  0  0  0  0  0
   -2.3230    0.5670    1.0830 N   0  0  0  0  0  0  0  0  0  0  0  0
   -3.4760    1.0120    1.7150 C   0  0  0  0  0  0  0  0  0  0  0  0
   -4.5500    0.4440    1.5140 O   0  0  0  0  0  0  0  0  0  0  0  0
   -3.4280    2.2090    2.6670 C   0  0  0  0  0  0  0  0  0  0  0  0
   -4.8000    2.4280    3.1650 C   0  0  0  0  0  0  0  0  0  0  0  0
   -5.7350    3.2400    2.5700 C   0  0  0  0  0  0  0  0  0  0  0  0
   -6.8780    3.1700    3.3410 C   0  0  0  0  0  0  0  0  0  0  0  0
   -6.6270    2.3170    4.3970 C   0  0  0  0  0  0  0  0  0  0  0  0
   -5.3500    1.8790    4.2630 N   0  0  0  0  0  0  0  0  0  0  0  0
   -0.6150   -0.3940   -0.3030 C   0  0  0  0  0  0  0  0  0  0  0  0
   -0.2570   -1.1420   -1.1880 O   0  0  0  0  0  0  0  0  0  0  0  0
    0.2310    0.5100    0.2660 O   0  0  0  0  0  0  0  0  0  0  0  0
    1.5630    0.6120   -0.1500 C   0  0  0  0  0  0  0  0  0  0  0  0
    2.4860   -0.1650    0.4870 C   0  0  0  0  0  0  0  0  0  0  0  0
    3.8190   -0.0770    0.0870 C   0  0  0  0  0  0  0  0  0  0  0  0
    4.2120    0.7660   -0.9240 C   0  0  0  0  0  0  0  0  0  0  0  0
    5.6470    0.7950   -1.2830 C   0  0  0  0  0  0  0  0  0  0  0  0
    6.2000    1.5850   -2.2690 C   0  0  0  0  0  0  0  0  0  0  0  0
    7.5430    1.3000   -2.2640 C   0  0  0  0  0  0  0  0  0  0  0  0
    7.7610    0.3550   -1.2840 C   0  0  0  0  0  0  0  0  0  0  0  0
    9.0790   -0.1940   -0.9860 C   0  0  0  0  0  0  0  0  0  0  0  0
   10.1090    0.1550   -1.6010 O   0  0  0  0  0  0  0  0  0  0  0  0
    9.2580   -1.1560    0.0210 O   0  0  0  0  0  0  0  0  0  0  0  0
    6.6110    0.1040   -0.7490 O   0  0  0  0  0  0  0  0  0  0  0  0
    3.2910    1.5390   -1.5570 C   0  0  0  0  0  0  0  0  0  0  0  0
    1.9580    1.4490   -1.1550 C   0  0  0  0  0  0  0  0  0  0  0  0
    1.0010    2.2090   -1.7650 F   0  0  0  0  0  0  0  0  0  0  0  0
   -2.1180   -2.4570   -1.1970 C   0  0  0  0  0  0  0  0  0  0  0  0
   -2.4810   -2.6710   -2.5010 C   0  0  0  0  0  0  0  0  0  0  0  0
   -1.9510   -3.7030   -3.2340 C   0  0  0  0  0  0  0  0  0  0  0  0
   -1.0330   -4.5470   -2.6510 C   0  0  0  0  0  0  0  0  0  0  0  0
   -0.6740   -4.3250   -1.3410 C   0  0  0  0  0  0  0  0  0  0  0  0
   -1.2180   -3.3000   -0.6550 N   0  0  0  0  0  0  0  0  0  0  0  0
  1  2  1  0
  2  3  2  3
  2 31  1  0
  3  4  1  0
  3 13  1  0
  4  5  1  0
  5  6  2  0
  5  7  1  0
  7  8  1  0
  8  9  2  0
  8 12  1  0
  9 10  1  0
 10 11  2  0
 11 12  1  0
 13 14  2  0
 13 15  1  0
 15 16  1  0
 16 17  2  0
 16 29  1  0
 17 18  1  0
 18 19  2  0
 19 20  1  0
 19 28  1  0
 20 21  2  0
 20 27  1  0
 21 22  1  0
 22 23  2  0
 23 24  1  0
 23 27  1  0
 24 25  2  0
 24 26  1  0
 28 29  2  0
 29 30  1  0
 31 32  2  0
 31 36  1  0
 32 33  1  0
 33 34  2  0
 34 35  1  0
 35 36  2  0
M  END
