
     RDKit          3D

 36 39  0  0  0  0  0  0  0  0999 V2000
   -8.5640    0.2540    1.6470 C   0  0  0  0  0  0  0  0  0  0  0  0
   -7.0980    0.3250    1.5720 C   0  0  0  0  0  0  0  0  0  0  0  0
   -6.4390    0.2060    0.3660 C   0  0  0  0  0  0  0  0  0  0  0  0
   -5.0400    0.2730    0.2890 C   0  0  0  0  0  0  0  0  0  0  0  0
   -4.3790    0.1560   -0.9020 O   0  0  0  0  0  0  0  0  0  0  0  0
   -4.9330   -0.0310   -2.1370 C   0  0  1  0  0  0  0  0  0  0  0  0
   -4.5030    1.0920   -3.0980 C   0  0  0  0  0  0  0  0  0  0  0  0
   -4.4570   -1.3110   -2.8230 C   0  0  0  0  0  0  0  0  0  0  0  0
   -4.2910    0.4590    1.4210 C   0  0  0  0  0  0  0  0  0  0  0  0
   -2.8290    0.5370    1.3890 C   0  0  0  0  0  0  0  0  0  0  0  0
   -2.0450    0.7100    2.4590 N   0  0  0  0  0  0  0  0  0  0  0  0
   -0.7190    0.7420    2.1110 C   0  0  0  0  0  0  0  0  0  0  0  0
    0.3540    0.9100    3.0420 C   0  0  0  0  0  0  0  0  0  0  0  0
    1.6110    0.9940    3.0610 C   0  0  0  0  0  0  0  0  0  0  0  0
    2.5830    0.9460    2.0130 C   0  0  0  0  0  0  0  0  0  0  0  0
    2.2970    0.8040    0.8160 O   0  0  0  0  0  0  0  0  0  0  0  0
    4.0060    1.0690    2.3250 N   0  0  0  0  0  0  0  0  0  0  0  0
    4.9570    1.0110    1.2710 C   0  0  0  0  0  0  0  0  0  0  0  0
    5.0110   -0.2970    0.5800 C   0  0  0  0  0  0  0  0  0  0  0  0
    4.2470   -1.3750    0.9670 C   0  0  0  0  0  0  0  0  0  0  0  0
    4.3940   -2.5710    0.2520 C   0  0  0  0  0  0  0  0  0  0  0  0
    3.7180   -3.5810    0.5680 O   0  0  0  0  0  0  0  0  0  0  0  0
    5.2310   -2.6740   -0.7570 O   0  0  0  0  0  0  0  0  0  0  0  0
    5.9650   -1.6700   -1.1410 C   0  0  0  0  0  0  0  0  0  0  0  0
    5.8850   -0.4570   -0.4960 C   0  0  0  0  0  0  0  0  0  0  0  0
    6.6610    0.5920   -0.9090 O   0  0  0  0  0  0  0  0  0  0  0  0
    7.5580    0.5560   -1.9540 C   0  0  0  0  0  0  0  0  0  0  0  0
    7.6370   -0.7450   -2.6390 C   0  0  0  0  0  0  0  0  0  0  0  0
    8.5630   -0.9190   -3.7820 C   0  0  0  0  0  0  0  0  0  0  0  0
    9.2530    0.0440   -4.1340 O   0  0  0  0  0  0  0  0  0  0  0  0
    6.8950   -1.7640   -2.2520 C   0  0  0  0  0  0  0  0  0  0  0  0
   -0.7320    0.5780    0.7630 C   0  0  0  0  0  0  0  0  0  0  0  0
   -2.0400    0.4530    0.3350 N   0  0  0  0  0  0  0  0  0  0  0  0
   -4.9580    0.5790    2.6460 C   0  0  0  0  0  0  0  0  0  0  0  0
   -6.3330    0.5110    2.7030 C   0  0  0  0  0  0  0  0  0  0  0  0
   -6.9030    0.6390    3.9440 F   0  0  0  0  0  0  0  0  0  0  0  0
  1  2  1  0
  2  3  2  0
  2 35  1  0
  3  4  1  0
  4  5  1  0
  4  9  2  0
  5  6  1  0
  6  7  1  6
  6  8  1  0
  9 10  1  0
  9 34  1  0
 10 11  2  0
 10 33  1  0
 11 12  1  0
 12 13  1  0
 12 32  2  0
 13 14  2  3
 14 15  1  0
 15 16  2  0
 15 17  1  0
 17 18  1  0
 18 19  1  0
 19 20  2  0
 19 25  1  0
 20 21  1  0
 21 22  2  0
 21 23  1  0
 23 24  1  0
 24 25  2  0
 24 31  1  0
 25 26  1  0
 26 27  1  0
 27 28  1  0
 28 29  1  0
 28 31  2  0
 29 30  2  0
 32 33  1  0
 34 35  2  0
 35 36  1  0
M  END
