
     RDKit          3D

 36 39  0  0  0  0  0  0  0  0999 V2000
   -3.0010   -5.7730   -0.4750 C   0  0  0  0  0  0  0  0  0  0  0  0
   -2.5210   -4.5110    0.0530 N   0  0  0  0  0  0  0  0  0  0  0  0
   -2.9060   -4.0550    1.2520 C   0  0  0  0  0  0  0  0  0  0  0  0
   -3.8670   -4.9210    2.0270 C   0  0  1  0  0  0  0  0  0  0  0  0
   -3.4580   -5.0630    3.4730 C   0  0  0  0  0  0  0  0  0  0  0  0
   -4.6860   -4.3250    3.1060 C   0  0  0  0  0  0  0  0  0  0  0  0
   -2.4670   -2.8620    1.7780 C   0  0  0  0  0  0  0  0  0  0  0  0
   -1.5760   -2.0500    1.0670 C   0  0  0  0  0  0  0  0  0  0  0  0
   -1.1570   -0.8330    1.6950 C   0  0  0  0  0  0  0  0  0  0  0  0
   -1.6090   -0.6390    2.9330 O   0  0  0  0  0  0  0  0  0  0  0  0
   -0.3600    0.2220    1.2850 N   0  0  0  0  0  0  0  0  0  0  0  0
    0.2650    0.3570    0.0120 C   0  0  0  0  0  0  0  0  0  0  0  0
    1.6150   -0.2650   -0.1260 C   0  0  0  0  0  0  0  0  0  0  0  0
    2.1300   -0.0760   -1.5140 C   0  0  0  0  0  0  0  0  0  0  0  0
    2.2830    1.3590   -1.9440 C   0  0  0  0  0  0  0  0  0  0  0  0
    2.8130    1.3580   -3.3390 C   0  0  0  0  0  0  0  0  0  0  0  0
    3.1100    0.2540   -4.1020 C   0  0  0  0  0  0  0  0  0  0  0  0
    3.5650    0.6960   -5.3070 C   0  0  0  0  0  0  0  0  0  0  0  0
    3.5360    2.0650   -5.2540 C   0  0  0  0  0  0  0  0  0  0  0  0
    3.0860    2.4180   -4.0750 O   0  0  0  0  0  0  0  0  0  0  0  0
   -0.1380    1.3180    2.2010 C   0  0  0  0  0  0  0  0  0  0  0  0
   -0.6970    1.2270    3.3310 O   0  0  0  0  0  0  0  0  0  0  0  0
    0.6630    2.4750    1.8940 C   0  0  0  0  0  0  0  0  0  0  0  0
    0.1310    3.5430    1.2180 C   0  0  0  0  0  0  0  0  0  0  0  0
    0.9250    4.6500    0.9110 C   0  0  0  0  0  0  0  0  0  0  0  0
    0.3640    5.7820    0.1960 C   0  0  0  0  0  0  0  0  0  0  0  0
   -0.9380    5.7310   -0.1600 F   0  0  0  0  0  0  0  0  0  0  0  0
    1.0690    6.8360   -0.1110 C   0  0  0  0  0  0  0  0  0  0  0  0
    0.4490    7.8880   -0.8040 O   0  0  0  0  0  0  0  0  0  0  0  0
    2.2420    4.6720    1.2850 C   0  0  0  0  0  0  0  0  0  0  0  0
    2.7600    3.6090    1.9540 N   0  0  0  0  0  0  0  0  0  0  0  0
    1.9830    2.5390    2.2480 C   0  0  0  0  0  0  0  0  0  0  0  0
    2.4920    1.5750    2.8700 O   0  0  0  0  0  0  0  0  0  0  0  0
   -1.1930   -2.5200   -0.1410 C   0  0  0  0  0  0  0  0  0  0  0  0
   -1.6710   -3.7520   -0.6400 C   0  0  0  0  0  0  0  0  0  0  0  0
   -1.2900   -4.1540   -1.7730 O   0  0  0  0  0  0  0  0  0  0  0  0
  1  2  1  0
  2  3  1  0
  2 35  1  0
  4  3  1  6
  3  7  2  0
  4  5  1  0
  4  6  1  0
  5  6  1  0
  7  8  1  0
  8  9  1  0
  8 34  2  0
  9 10  2  0
  9 11  1  0
 11 12  1  0
 11 21  1  0
 12 13  1  0
 13 14  1  0
 14 15  1  0
 15 16  1  0
 16 17  2  0
 16 20  1  0
 17 18  1  0
 18 19  2  0
 19 20  1  0
 21 22  2  0
 21 23  1  0
 23 24  2  0
 23 32  1  0
 24 25  1  0
 25 26  1  0
 25 30  2  0
 26 27  1  0
 26 28  2  3
 28 29  1  0
 30 31  1  0
 31 32  1  0
 32 33  2  0
 34 35  1  0
 35 36  2  0
M  END
