
     RDKit          3D

 36 39  0  0  0  0  0  0  0  0999 V2000
   -5.7180    2.8840   -0.0800 C   0  0  0  0  0  0  0  0  0  0  0  0
   -5.9740    1.4960    0.4070 C   0  0  0  0  0  0  0  0  0  0  0  0
   -7.1240    1.2210    1.1180 C   0  0  0  0  0  0  0  0  0  0  0  0
   -7.3570   -0.0350    1.5660 C   0  0  0  0  0  0  0  0  0  0  0  0
   -8.5280   -0.4090    2.2720 N   0  0  0  0  0  0  0  0  0  0  0  0
   -9.7100    0.3710    2.3400 C   0  0  0  0  0  0  0  0  0  0  0  0
   -9.8300    1.4510    1.7840 O   0  0  0  0  0  0  0  0  0  0  0  0
   -6.4100   -1.0290    1.2920 C   0  0  0  0  0  0  0  0  0  0  0  0
   -5.2720   -0.7380    0.5840 C   0  0  0  0  0  0  0  0  0  0  0  0
   -5.0320    0.5270    0.1270 C   0  0  0  0  0  0  0  0  0  0  0  0
   -3.8870    0.8610   -0.6000 O   0  0  0  0  0  0  0  0  0  0  0  0
   -2.8680   -0.0130   -0.8950 C   0  0  0  0  0  0  0  0  0  0  0  0
   -3.0740   -0.9950   -1.8630 C   0  0  0  0  0  0  0  0  0  0  0  0
   -2.0760   -1.8930   -2.1950 C   0  0  0  0  0  0  0  0  0  0  0  0
   -0.8530   -1.7660   -1.5130 C   0  0  0  0  0  0  0  0  0  0  0  0
   -0.6160   -0.8370   -0.5790 C   0  0  0  0  0  0  0  0  0  0  0  0
   -1.6340    0.0650   -0.2510 C   0  0  0  0  0  0  0  0  0  0  0  0
    0.6850   -0.6950    0.1080 C   0  0  0  0  0  0  0  0  0  0  0  0
    1.7690   -1.2860   -0.6070 N   0  0  0  0  0  0  0  0  0  0  0  0
    3.0820   -0.7670   -0.5600 C   0  0  0  0  0  0  0  0  0  0  0  0
    4.1290   -1.4800    0.0330 C   0  0  0  0  0  0  0  0  0  0  0  0
    5.4220   -1.0110    0.0650 C   0  0  0  0  0  0  0  0  0  0  0  0
    5.7520    0.2100   -0.4980 C   0  0  0  0  0  0  0  0  0  0  0  0
    7.1280    0.7150   -0.4860 C   0  0  0  0  0  0  0  0  0  0  0  0
    7.4120    1.8270   -0.9970 O   0  0  0  0  0  0  0  0  0  0  0  0
    8.1130   -0.0580    0.1010 O   0  0  0  0  0  0  0  0  0  0  0  0
    9.4440    0.3880    0.1500 C   0  0  0  0  0  0  0  0  0  0  0  0
    9.5510    1.5540    1.0360 C   0  0  0  0  0  0  0  0  0  0  0  0
    8.4270    1.8950    1.8640 N   0  0  0  0  0  0  0  0  0  0  0  0
   10.6040    2.2500    1.0850 O   0  0  0  0  0  0  0  0  0  0  0  0
    4.7270    0.9190   -1.0830 C   0  0  0  0  0  0  0  0  0  0  0  0
    3.4320    0.4460   -1.1140 C   0  0  0  0  0  0  0  0  0  0  0  0
    2.4470    1.1620   -1.6920 F   0  0  0  0  0  0  0  0  0  0  0  0
    1.4950   -2.4520   -1.4120 C   0  0  0  0  0  0  0  0  0  0  0  0
    2.4570   -3.2090   -1.6840 O   0  0  0  0  0  0  0  0  0  0  0  0
    0.1670   -2.7630   -1.9090 C   0  0  0  0  0  0  0  0  0  0  0  0
  1  2  1  0
  2  3  2  0
  2 10  1  0
  3  4  1  0
  4  5  1  0
  4  8  2  0
  5  6  1  0
  6  7  2  0
  8  9  1  0
  9 10  2  0
 10 11  1  0
 11 12  1  0
 12 13  2  0
 12 17  1  0
 13 14  1  0
 14 15  2  0
 15 16  1  0
 15 36  1  0
 16 17  2  0
 16 18  1  0
 18 19  1  0
 19 20  1  0
 19 34  1  0
 20 21  2  0
 20 32  1  0
 21 22  1  0
 22 23  2  0
 23 24  1  0
 23 31  1  0
 24 25  2  0
 24 26  1  0
 26 27  1  0
 27 28  1  0
 28 29  1  0
 28 30  2  0
 31 32  2  0
 32 33  1  0
 34 35  2  0
 34 36  1  0
M  END
