
     RDKit          3D

 36 41  0  0  0  0  0  0  0  0999 V2000
   -4.8850   -1.0050   -2.1560 C   0  0  0  0  0  0  0  0  0  0  0  0
   -3.8650   -1.3390   -1.0880 C   0  0  0  0  0  0  0  0  0  0  0  0
   -4.0010   -2.2280   -0.1920 N   0  0  0  0  0  0  0  0  0  0  0  0
   -2.9130   -2.2980    0.6190 C   0  0  2  0  0  0  0  0  0  0  0  0
   -3.0100   -2.2180    2.0550 C   0  0  0  0  0  0  0  0  0  0  0  0
   -4.1110   -2.2610    2.7050 O   0  0  0  0  0  0  0  0  0  0  0  0
   -1.7760   -2.0840    2.7420 N   0  0  0  0  0  0  0  0  0  0  0  0
   -0.6850   -1.4970    2.0630 C   0  0  0  0  0  0  0  0  0  0  0  0
   -0.6970   -1.0460    0.7970 C   0  0  0  0  0  0  0  0  0  0  0  0
   -2.0000   -1.2330    0.1060 C   0  0  0  0  0  0  0  0  0  0  0  0
   -2.5330   -0.6680   -0.9030 C   0  0  0  0  0  0  0  0  0  0  0  0
   -2.0460    0.3580   -1.7860 N   0  0  0  0  0  0  0  0  0  0  0  0
   -1.7760    1.7140   -1.5820 C   0  0  0  0  0  0  0  0  0  0  0  0
   -0.7610    2.2360   -2.1450 O   0  0  0  0  0  0  0  0  0  0  0  0
   -2.5890    2.6440   -0.7480 C   0  0  0  0  0  0  0  0  0  0  0  0
   -3.1640    1.9960    0.4740 C   0  0  0  0  0  0  0  0  0  0  0  0
   -2.1540    1.5440    1.4040 N   0  0  0  0  0  0  0  0  0  0  0  0
   -0.8350    1.9510    1.5630 C   0  0  0  0  0  0  0  0  0  0  0  0
   -0.6090    2.4020    2.7820 O   0  0  0  0  0  0  0  0  0  0  0  0
    0.3220    1.9830    0.6850 N   0  0  0  0  0  0  0  0  0  0  0  0
    0.8420    3.3430    0.5000 C   0  0  0  0  0  0  0  0  0  0  0  0
    2.2070    3.4440   -0.0010 C   0  0  0  0  0  0  0  0  0  0  0  0
    2.9470    4.5530   -0.0560 C   0  0  0  0  0  0  0  0  0  0  0  0
    4.2400    4.2160   -0.6300 C   0  0  0  0  0  0  0  0  0  0  0  0
    4.1300    2.7640   -0.9130 C   0  0  0  0  0  0  0  0  0  0  0  0
    2.9470    2.3200   -0.5380 C   0  0  0  0  0  0  0  0  0  0  0  0
    2.3040    1.0140   -0.4690 C   0  0  0  0  0  0  0  0  0  0  0  0
    2.9890    0.0910   -0.9740 O   0  0  0  0  0  0  0  0  0  0  0  0
    0.9660    0.8210    0.1420 C   0  0  0  0  0  0  0  0  0  0  0  0
    0.5380   -0.4600    0.2820 C   0  0  0  0  0  0  0  0  0  0  0  0
    1.5710   -1.4590    0.1120 N   0  0  0  0  0  0  0  0  0  0  0  0
    1.5580   -2.1840   -1.1230 C   0  0  0  0  0  0  0  0  0  0  0  0
    2.7460   -3.1170   -1.2560 C   0  0  0  0  0  0  0  0  0  0  0  0
    2.6640   -4.0710   -0.1720 N   0  0  0  0  0  0  0  0  0  0  0  0
    2.5520   -3.4570    1.1160 C   0  0  0  0  0  0  0  0  0  0  0  0
    2.5920   -1.8990    0.9790 C   0  0  0  0  0  0  0  0  0  0  0  0
  1  2  1  0
  2  3  2  0
  2 11  1  0
  4  3  1  6
  4  5  1  0
  4 10  1  0
  5  6  2  0
  5  7  1  0
  7  8  1  0
  8  9  2  0
  9 10  1  0
  9 30  1  0
 10 11  2  0
 11 12  1  0
 12 13  1  0
 13 14  2  0
 13 15  1  0
 15 16  1  0
 16 17  1  0
 17 18  1  0
 18 19  2  0
 18 20  1  0
 20 21  1  0
 20 29  1  0
 21 22  1  0
 22 23  2  0
 22 26  1  0
 23 24  1  0
 24 25  1  0
 25 26  2  0
 26 27  1  0
 27 28  2  0
 27 29  1  0
 29 30  2  0
 30 31  1  0
 31 32  1  0
 31 36  1  0
 32 33  1  0
 33 34  1  0
 34 35  1  0
 35 36  1  0
M  CHG  1  34   1
M  END
