
     RDKit          3D

 37 40  0  0  0  0  0  0  0  0999 V2000
    2.0200   -1.4330    0.9590 C   0  0  0  0  0  0  0  0  0  0  0  0
    2.4060   -0.6480   -0.2710 C   0  0  1  0  0  0  0  0  0  0  0  0
    1.9470    0.7680   -0.1820 C   0  0  0  0  0  0  0  0  0  0  0  0
    0.4840    0.9090   -0.0450 N   0  0  0  0  0  0  0  0  0  0  0  0
    0.0230    0.9460    1.3160 C   0  0  0  0  0  0  0  0  0  0  0  0
   -0.3270    0.9940   -1.1790 C   0  0  0  0  0  0  0  0  0  0  0  0
    0.3310    0.9060   -2.3360 O   0  0  0  0  0  0  0  0  0  0  0  0
   -1.7490    1.1610   -1.3210 C   0  0  0  0  0  0  0  0  0  0  0  0
   -2.6440    1.2950   -0.2420 N   0  0  0  0  0  0  0  0  0  0  0  0
   -3.0620    2.4780    0.3890 C   0  0  0  0  0  0  0  0  0  0  0  0
   -4.0190    2.2860    1.2840 O   0  0  0  0  0  0  0  0  0  0  0  0
   -2.6840    3.8470    0.2800 C   0  0  0  0  0  0  0  0  0  0  0  0
   -1.6200    4.2620   -0.4760 C   0  0  0  0  0  0  0  0  0  0  0  0
   -1.2110    5.6040   -0.5820 C   0  0  0  0  0  0  0  0  0  0  0  0
   -1.8930    6.5160    0.0870 N   0  0  0  0  0  0  0  0  0  0  0  0
   -2.9290    6.2130    0.8390 C   0  0  0  0  0  0  0  0  0  0  0  0
   -3.3570    4.8800    0.9610 C   0  0  0  0  0  0  0  0  0  0  0  0
   -4.4280    4.6240    1.7450 O   0  0  0  0  0  0  0  0  0  0  0  0
   -3.2540    0.0430    0.2160 C   0  0  0  0  0  0  0  0  0  0  0  0
   -3.8560   -0.7560   -0.6930 C   0  0  0  0  0  0  0  0  0  0  0  0
   -4.4730   -1.9540   -0.2730 C   0  0  0  0  0  0  0  0  0  0  0  0
   -4.4850   -2.3380    1.0370 C   0  0  0  0  0  0  0  0  0  0  0  0
   -5.1130   -3.5270    1.5060 N   0  0  0  0  0  0  0  0  0  0  0  0
   -5.9880   -4.2640    0.6770 C   0  0  0  0  0  0  0  0  0  0  0  0
   -5.9050   -5.6940    0.5860 N   0  0  0  0  0  0  0  0  0  0  0  0
   -6.8860   -3.6200    0.0080 N   0  0  0  0  0  0  0  0  0  0  0  0
   -3.8570   -1.4980    1.9610 C   0  0  0  0  0  0  0  0  0  0  0  0
   -3.2600   -0.3330    1.5290 C   0  0  0  0  0  0  0  0  0  0  0  0
    3.9140   -0.6260   -0.3450 C   0  0  0  0  0  0  0  0  0  0  0  0
    4.6500   -0.1320    0.7320 C   0  0  0  0  0  0  0  0  0  0  0  0
    6.0300   -0.0980    0.6710 C   0  0  0  0  0  0  0  0  0  0  0  0
    6.7270   -0.5430   -0.4380 C   0  0  0  0  0  0  0  0  0  0  0  0
    5.9980   -1.0300   -1.5010 C   0  0  0  0  0  0  0  0  0  0  0  0
    4.6200   -1.0630   -1.4360 C   0  0  0  0  0  0  0  0  0  0  0  0
    6.9400   -1.4420   -2.5670 C   0  0  0  0  0  0  0  0  0  0  0  0
    8.1920   -1.7480   -1.7720 C   0  0  0  0  0  0  0  0  0  0  0  0
    8.1880   -0.6180   -0.7650 C   0  0  0  0  0  0  0  0  0  0  0  0
  2  1  1  1
  2  3  1  0
  2 29  1  0
  3  4  1  0
  4  5  1  0
  4  6  1  0
  6  7  2  0
  6  8  1  0
  8  9  1  0
  9 10  1  0
  9 19  1  0
 10 11  2  0
 10 12  1  0
 12 13  2  0
 12 17  1  0
 13 14  1  0
 14 15  2  0
 15 16  1  0
 16 17  2  0
 17 18  1  0
 19 20  2  0
 19 28  1  0
 20 21  1  0
 21 22  2  0
 22 23  1  0
 22 27  1  0
 23 24  1  0
 24 25  1  0
 24 26  2  0
 27 28  2  0
 29 30  2  0
 29 34  1  0
 30 31  1  0
 31 32  2  0
 32 33  1  0
 32 37  1  0
 33 34  2  0
 33 35  1  0
 35 36  1  0
 36 37  1  0
M  CHG  1  26   1
M  END
