
     RDKit          3D

 37 40  0  0  0  0  0  0  0  0999 V2000
   -2.3050   -0.2390    2.9940 C   0  0  0  0  0  0  0  0  0  0  0  0
   -1.3790   -1.0020    2.1050 C   0  0  0  0  0  0  0  0  0  0  0  0
   -1.2700   -0.3990    0.8010 N   0  0  0  0  0  0  0  0  0  0  0  0
   -2.0770   -0.7000   -0.2620 C   0  0  0  0  0  0  0  0  0  0  0  0
   -1.6770   -0.1400   -1.3870 O   0  0  0  0  0  0  0  0  0  0  0  0
   -3.2120   -1.4600   -0.4020 N   0  0  0  0  0  0  0  0  0  0  0  0
   -3.9260   -2.1750    0.5910 C   0  0  0  0  0  0  0  0  0  0  0  0
   -4.2220   -3.6160    0.1650 C   0  0  0  0  0  0  0  0  0  0  0  0
   -4.9440   -3.6330   -1.1630 C   0  0  1  0  0  0  0  0  0  0  0  0
   -6.3320   -4.2260   -1.0370 C   0  0  0  0  0  0  0  0  0  0  0  0
   -5.1100   -2.2270   -1.7080 C   0  0  0  0  0  0  0  0  0  0  0  0
   -3.7770   -1.5600   -1.7930 C   0  0  0  0  0  0  0  0  0  0  0  0
   -0.1690    0.5540    0.6700 C   0  0  0  0  0  0  0  0  0  0  0  0
    1.0780    0.0120    0.5980 C   0  0  0  0  0  0  0  0  0  0  0  0
    2.2060    0.8100    0.4770 C   0  0  0  0  0  0  0  0  0  0  0  0
    3.5410    0.2660    0.3930 C   0  0  0  0  0  0  0  0  0  0  0  0
    4.2870    0.3150    1.3930 O   0  0  0  0  0  0  0  0  0  0  0  0
    3.9480   -0.3160   -0.8640 N   0  0  0  0  0  0  0  0  0  0  0  0
    5.1700   -0.8550   -1.0400 C   0  0  0  0  0  0  0  0  0  0  0  0
    5.4270   -2.1690   -1.4100 C   0  0  0  0  0  0  0  0  0  0  0  0
    6.8020   -2.5420   -1.5880 C   0  0  0  0  0  0  0  0  0  0  0  0
    7.5750   -3.3540   -0.9340 C   0  0  0  0  0  0  0  0  0  0  0  0
    8.9220   -2.7810   -0.3950 C   0  0  0  0  0  0  0  0  0  0  0  0
    8.5910   -1.3020   -0.2480 N   0  0  0  0  0  0  0  0  0  0  0  0
    7.5800   -0.8020   -1.0600 C   0  0  0  0  0  0  0  0  0  0  0  0
    6.4970   -0.1240   -0.8460 C   0  0  0  0  0  0  0  0  0  0  0  0
    7.5780   -1.5170   -2.4540 C   0  0  0  0  0  0  0  0  0  0  0  0
    2.0090    2.1590    0.4330 C   0  0  0  0  0  0  0  0  0  0  0  0
    0.7640    2.7450    0.5020 C   0  0  0  0  0  0  0  0  0  0  0  0
   -0.3410    1.8940    0.6240 C   0  0  0  0  0  0  0  0  0  0  0  0
   -1.6780    2.4770    0.7050 C   0  0  0  0  0  0  0  0  0  0  0  0
   -1.6150    3.9490    0.6270 N   0  0  0  0  0  0  0  0  0  0  0  0
   -2.9560    4.5040    0.7570 C   0  0  2  0  0  0  0  0  0  0  0  0
   -3.6490    4.6350   -0.5780 C   0  0  0  0  0  0  0  0  0  0  0  0
   -2.8440    5.8370    1.3560 C   0  0  0  0  0  0  0  0  0  0  0  0
   -1.5900    6.3880    1.7090 N   0  0  0  0  0  0  0  0  0  0  0  0
   -3.8740    6.5390    1.5770 O   0  0  0  0  0  0  0  0  0  0  0  0
  1  2  1  0
  2  3  1  0
  3  4  1  0
  3 13  1  0
  4  5  2  0
  4  6  1  0
  6  7  1  0
  6 12  1  0
  7  8  1  0
  8  9  1  0
  9 10  1  1
  9 11  1  0
 11 12  1  0
 13 14  2  0
 13 30  1  0
 14 15  1  0
 15 16  1  0
 15 28  2  0
 16 17  2  0
 16 18  1  0
 18 19  1  0
 19 20  2  0
 19 26  1  0
 20 21  1  0
 21 22  2  0
 21 27  1  0
 22 23  1  0
 23 24  1  0
 24 25  1  0
 25 26  2  0
 25 27  1  0
 28 29  1  0
 29 30  2  0
 30 31  1  0
 31 32  1  0
 32 33  1  0
 33 34  1  6
 33 35  1  0
 35 36  1  0
 35 37  2  0
M  CHG  1  32   1
M  END
