
     RDKit          3D

 37 40  0  0  0  0  0  0  0  0999 V2000
    0.1600    5.8230    0.3210 C   0  0  0  0  0  0  0  0  0  0  0  0
   -0.9360    4.6940    0.4260 C   0  0  0  0  0  0  0  0  0  0  0  0
   -0.7660    3.7710   -0.7120 C   0  0  0  0  0  0  0  0  0  0  0  0
   -1.5780    2.6210   -0.9030 C   0  0  0  0  0  0  0  0  0  0  0  0
   -2.5550    1.9510   -0.3910 C   0  0  0  0  0  0  0  0  0  0  0  0
   -3.2450    2.2970    0.8160 C   0  0  0  0  0  0  0  0  0  0  0  0
   -3.1650    3.4090    1.3870 O   0  0  0  0  0  0  0  0  0  0  0  0
   -4.1280    1.3700    1.5070 N   0  0  0  0  0  0  0  0  0  0  0  0
   -4.3000    0.0870    0.9270 C   0  0  0  0  0  0  0  0  0  0  0  0
   -4.9590   -1.0170    1.4150 N   0  0  0  0  0  0  0  0  0  0  0  0
   -4.7650   -2.0470    0.5870 C   0  0  0  0  0  0  0  0  0  0  0  0
   -5.3220   -3.4310    0.7770 C   0  0  2  0  0  0  0  0  0  0  0  0
   -4.3060   -4.4180    0.5180 N   0  0  0  0  0  0  0  0  0  0  0  0
   -6.4820   -3.6710   -0.1650 C   0  0  0  0  0  0  0  0  0  0  0  0
   -6.9980   -5.0740    0.0720 C   0  0  0  0  0  0  0  0  0  0  0  0
   -3.9800   -1.6100   -0.4460 C   0  0  0  0  0  0  0  0  0  0  0  0
   -3.6790   -0.2460   -0.2390 C   0  0  0  0  0  0  0  0  0  0  0  0
   -2.9620    0.6960   -1.0910 C   0  0  2  0  0  0  0  0  0  0  0  0
   -1.8030    0.0330   -1.7220 C   0  0  0  0  0  0  0  0  0  0  0  0
   -1.8610   -0.2530   -3.0650 C   0  0  0  0  0  0  0  0  0  0  0  0
   -0.7890   -0.8670   -3.6470 N   0  0  0  0  0  0  0  0  0  0  0  0
    0.3090   -1.1980   -2.9560 C   0  0  0  0  0  0  0  0  0  0  0  0
    0.3750   -0.9200   -1.6330 N   0  0  0  0  0  0  0  0  0  0  0  0
    1.5900   -1.2850   -0.8890 C   0  0  0  0  0  0  0  0  0  0  0  0
    2.4980   -0.0640   -1.0020 C   0  0  0  0  0  0  0  0  0  0  0  0
    3.7900   -0.3180   -0.2720 C   0  0  0  0  0  0  0  0  0  0  0  0
    3.9370   -1.4110    0.2850 O   0  0  0  0  0  0  0  0  0  0  0  0
    4.7950    0.6630   -0.2290 N   0  0  0  0  0  0  0  0  0  0  0  0
    6.0520    0.5540    0.4220 C   0  0  0  0  0  0  0  0  0  0  0  0
    6.4210   -0.4750    1.2260 C   0  0  0  0  0  0  0  0  0  0  0  0
    7.6910   -0.5070    1.8220 C   0  0  0  0  0  0  0  0  0  0  0  0
    8.6170    0.4920    1.6250 C   0  0  0  0  0  0  0  0  0  0  0  0
    9.9490    0.4130    2.2760 C   0  0  0  0  0  0  0  0  0  0  0  0
    8.2430    1.5330    0.8120 C   0  0  0  0  0  0  0  0  0  0  0  0
    7.0040    1.5680    0.2280 C   0  0  0  0  0  0  0  0  0  0  0  0
   -0.6580   -0.3220   -1.0470 C   0  0  0  0  0  0  0  0  0  0  0  0
   -0.5680   -0.0770    0.1820 O   0  0  0  0  0  0  0  0  0  0  0  0
  1  2  1  0
  2  3  1  0
  3  4  1  0
  4  5  2  3
  5  6  1  0
  5 18  1  0
  6  7  2  0
  6  8  1  0
  8  9  1  0
  9 10  1  0
  9 17  2  0
 10 11  1  0
 11 12  1  0
 11 16  2  0
 12 13  1  6
 12 14  1  0
 14 15  1  0
 16 17  1  0
 17 18  1  0
 18 19  1  1
 19 20  2  0
 19 36  1  0
 20 21  1  0
 21 22  2  0
 22 23  1  0
 23 24  1  0
 23 36  1  0
 24 25  1  0
 25 26  1  0
 26 27  2  0
 26 28  1  0
 28 29  1  0
 29 30  2  0
 29 35  1  0
 30 31  1  0
 31 32  2  0
 32 33  1  0
 32 34  1  0
 34 35  2  0
 36 37  2  0
M  CHG  1  13   1
M  END
