
     RDKit          3D

 36 39  0  0  0  0  0  0  0  0999 V2000
   -2.2550   -2.7000    2.9510 C   0  0  0  0  0  0  0  0  0  0  0  0
   -1.1280   -2.2640    2.2470 O   0  0  0  0  0  0  0  0  0  0  0  0
   -1.1490   -1.0530    1.5810 C   0  0  0  0  0  0  0  0  0  0  0  0
   -2.2520   -0.2540    1.5630 C   0  0  0  0  0  0  0  0  0  0  0  0
   -2.2260    0.9410    0.8880 C   0  0  0  0  0  0  0  0  0  0  0  0
   -3.3560    1.7310    0.9020 C   0  0  0  0  0  0  0  0  0  0  0  0
   -4.5000    1.2770    1.5990 N   0  0  0  0  0  0  0  0  0  0  0  0
   -5.5030    0.4720    0.9810 C   0  0  0  0  0  0  0  0  0  0  0  0
   -5.3780    0.2660   -0.3620 C   0  0  0  0  0  0  0  0  0  0  0  0
   -6.3200   -0.5200   -1.0050 C   0  0  0  0  0  0  0  0  0  0  0  0
   -6.1430   -0.7750   -2.7320 Cl  0  0  0  0  0  0  0  0  0  0  0  0
   -7.3790   -1.1050   -0.3550 C   0  0  0  0  0  0  0  0  0  0  0  0
   -8.3100   -1.8870   -1.0240 O   0  0  0  0  0  0  0  0  0  0  0  0
   -9.4630   -1.2580   -1.5610 C   0  0  0  0  0  0  0  0  0  0  0  0
   -7.4640   -0.8680    1.0060 C   0  0  0  0  0  0  0  0  0  0  0  0
   -8.7940   -1.5920    1.9010 Cl  0  0  0  0  0  0  0  0  0  0  0  0
   -6.5370   -0.0870    1.6720 C   0  0  0  0  0  0  0  0  0  0  0  0
   -3.2800    2.9170    0.2290 C   0  0  0  0  0  0  0  0  0  0  0  0
   -4.4230    3.7950    0.1980 C   0  0  0  0  0  0  0  0  0  0  0  0
   -5.3410    4.5110    0.1560 N   0  0  0  0  0  0  0  0  0  0  0  0
   -2.1250    3.2840   -0.4230 C   0  0  0  0  0  0  0  0  0  0  0  0
   -1.0150    2.5120   -0.4400 N   0  0  0  0  0  0  0  0  0  0  0  0
   -1.0850    1.3310    0.2280 C   0  0  0  0  0  0  0  0  0  0  0  0
    0.0360    0.5020    0.2560 C   0  0  0  0  0  0  0  0  0  0  0  0
    0.0640   -0.7010    0.9170 C   0  0  0  0  0  0  0  0  0  0  0  0
    1.1050   -1.5370    0.9890 O   0  0  0  0  0  0  0  0  0  0  0  0
    2.3890   -1.6290    0.5570 C   0  0  0  0  0  0  0  0  0  0  0  0
    3.3320   -0.5360    1.0560 C   0  0  0  0  0  0  0  0  0  0  0  0
    4.7420   -0.7090    0.6170 C   0  0  0  0  0  0  0  0  0  0  0  0
    4.9960   -0.7350   -0.7810 N   0  0  2  0  0  0  0  0  0  0  0  0
    6.3750   -1.1840   -0.9580 C   0  0  0  0  0  0  0  0  0  0  0  0
    7.1000   -0.4160   -2.0130 C   0  0  0  0  0  0  0  0  0  0  0  0
    7.1290    1.0050   -1.7510 N   0  0  2  0  0  0  0  0  0  0  0  0
    8.0570    1.3300   -0.6830 C   0  0  0  0  0  0  0  0  0  0  0  0
    5.8370    1.5130   -1.3590 C   0  0  0  0  0  0  0  0  0  0  0  0
    4.7370    0.4930   -1.4880 C   0  0  0  0  0  0  0  0  0  0  0  0
  1  2  1  0
  2  3  1  0
  3  4  2  0
  3 25  1  0
  4  5  1  0
  5  6  2  0
  5 23  1  0
  6  7  1  0
  6 18  1  0
  7  8  1  0
  8  9  2  0
  8 17  1  0
  9 10  1  0
 10 11  1  0
 10 12  2  0
 12 13  1  0
 12 15  1  0
 13 14  1  0
 15 16  1  0
 15 17  2  0
 18 19  1  0
 18 21  2  0
 19 20  3  0
 21 22  1  0
 22 23  2  0
 23 24  1  0
 24 25  2  0
 25 26  1  0
 26 27  1  0
 27 28  1  0
 28 29  1  0
 30 29  1  1
 30 31  1  0
 30 36  1  0
 31 32  1  0
 32 33  1  0
 33 34  1  1
 33 35  1  0
 35 36  1  0
M  CHG  2  30   1  33   1
M  END
