
     RDKit          3D

 36 40  0  0  0  0  0  0  0  0999 V2000
   -6.8130    0.1760   -1.8670 C   0  0  0  0  0  0  0  0  0  0  0  0
   -6.7860    0.4900   -0.4840 O   0  0  0  0  0  0  0  0  0  0  0  0
   -5.5340    0.5450    0.1420 C   0  0  0  0  0  0  0  0  0  0  0  0
   -4.3700    0.3070   -0.5380 C   0  0  0  0  0  0  0  0  0  0  0  0
   -3.1760    0.3760    0.1340 C   0  0  0  0  0  0  0  0  0  0  0  0
   -1.8660    0.1340   -0.5420 C   0  0  1  0  0  0  0  0  0  0  0  0
   -1.2930    1.4750   -0.9100 C   0  0  0  0  0  0  0  0  0  0  0  0
   -0.4430    2.0350    0.1100 N   0  0  0  0  0  0  0  0  0  0  0  0
    0.0570    3.3650    0.1450 C   0  0  0  0  0  0  0  0  0  0  0  0
   -0.1380    4.0450    1.2470 O   0  0  0  0  0  0  0  0  0  0  0  0
    0.7520    4.0350   -0.8980 N   0  0  0  0  0  0  0  0  0  0  0  0
    2.0440    3.7430   -1.4030 C   0  0  0  0  0  0  0  0  0  0  0  0
    3.1770    4.0030   -0.8140 C   0  0  0  0  0  0  0  0  0  0  0  0
    4.2440    3.2740   -0.8470 C   0  0  0  0  0  0  0  0  0  0  0  0
    4.5420    1.9510   -0.2800 C   0  0  0  0  0  0  0  0  0  0  0  0
    5.8310    1.9480    0.3030 C   0  0  0  0  0  0  0  0  0  0  0  0
    6.4000    0.8700    0.9280 C   0  0  0  0  0  0  0  0  0  0  0  0
    5.6110   -0.2490    0.9520 C   0  0  0  0  0  0  0  0  0  0  0  0
    4.3280   -0.2950    0.3870 C   0  0  0  0  0  0  0  0  0  0  0  0
    3.7920    0.8030   -0.2310 C   0  0  0  0  0  0  0  0  0  0  0  0
    3.7360   -1.6570    0.6290 C   0  0  2  0  0  0  0  0  0  0  0  0
    4.7410   -2.7830    0.1930 C   0  0  0  0  0  0  0  0  0  0  0  0
    3.4580   -2.5600   -0.4540 C   0  0  1  0  0  0  0  0  0  0  0  0
    2.2660   -3.4540   -0.0910 C   0  0  0  0  0  0  0  0  0  0  0  0
    2.7190   -4.5990    0.2030 O   0  0  0  0  0  0  0  0  0  0  0  0
    1.0040   -2.8890   -0.1500 N   0  0  0  0  0  0  0  0  0  0  0  0
    0.7070   -1.8690   -1.2110 C   0  0  0  0  0  0  0  0  0  0  0  0
    0.3520   -0.6290   -0.3960 C   0  0  0  0  0  0  0  0  0  0  0  0
   -0.9870   -0.7280    0.1580 N   0  0  2  0  0  0  0  0  0  0  0  0
   -1.3460   -2.1310    0.1380 C   0  0  2  0  0  0  0  0  0  0  0  0
   -2.4620   -2.4060    1.1670 C   0  0  0  0  0  0  0  0  0  0  0  0
   -0.2010   -3.0250    0.6170 C   0  0  0  0  0  0  0  0  0  0  0  0
   -3.1790    0.6820    1.4700 C   0  0  0  0  0  0  0  0  0  0  0  0
   -4.3390    0.9230    2.1650 C   0  0  0  0  0  0  0  0  0  0  0  0
   -5.5390    0.8540    1.4930 C   0  0  0  0  0  0  0  0  0  0  0  0
   -6.7490    1.0940    2.1690 O   0  0  0  0  0  0  0  0  0  0  0  0
  1  2  1  0
  2  3  1  0
  3  4  2  0
  3 35  1  0
  4  5  1  0
  6  5  1  1
  5 33  2  0
  6  7  1  0
  6 29  1  0
  7  8  1  0
  8  9  1  0
  9 10  2  0
  9 11  1  0
 11 12  1  0
 12 13  2  0
 13 14  2  0
 14 15  1  0
 15 16  2  0
 15 20  1  0
 16 17  1  0
 17 18  2  0
 18 19  1  0
 19 20  2  0
 19 21  1  0
 21 22  1  1
 21 23  1  0
 23 22  1  1
 23 24  1  0
 24 25  2  0
 24 26  1  0
 26 27  1  0
 26 32  1  0
 27 28  1  0
 29 28  1  6
 29 30  1  0
 30 31  1  1
 30 32  1  0
 33 34  1  0
 34 35  2  0
 35 36  1  0
M  CHG  1  29   1
M  END
