
     RDKit          3D

 36 39  0  0  0  0  0  0  0  0999 V2000
    6.7620   -3.4780    0.6320 C   0  0  0  0  0  0  0  0  0  0  0  0
    7.8340   -2.4400    0.8630 C   0  0  0  0  0  0  0  0  0  0  0  0
    7.5300   -1.2920    0.1420 O   0  0  0  0  0  0  0  0  0  0  0  0
    6.4090   -0.5000    0.2660 C   0  0  0  0  0  0  0  0  0  0  0  0
    6.2410    0.6180   -0.5260 C   0  0  0  0  0  0  0  0  0  0  0  0
    5.1520    1.4370   -0.4450 C   0  0  0  0  0  0  0  0  0  0  0  0
    4.1510    1.1660    0.4600 C   0  0  0  0  0  0  0  0  0  0  0  0
    3.0020    2.0490    0.5310 C   0  0  0  0  0  0  0  0  0  0  0  0
    2.9170    3.0350   -0.2000 O   0  0  0  0  0  0  0  0  0  0  0  0
    1.9990    1.7530    1.4490 O   0  0  0  0  0  0  0  0  0  0  0  0
    0.8170    2.5590    1.5960 C   0  0  0  0  0  0  0  0  0  0  0  0
   -0.0870    2.4900    0.3580 C   0  0  0  0  0  0  0  0  0  0  0  0
    0.3690    1.4550   -0.5370 C   0  0  0  0  0  0  0  0  0  0  0  0
   -0.1640    1.0670   -1.7480 C   0  0  0  0  0  0  0  0  0  0  0  0
   -1.2700    1.7870   -2.1280 C   0  0  0  0  0  0  0  0  0  0  0  0
   -1.7590    2.8120   -1.2750 C   0  0  0  0  0  0  0  0  0  0  0  0
   -1.2230    3.1830   -0.0480 C   0  0  0  0  0  0  0  0  0  0  0  0
   -2.0780    4.0520    0.8180 N   0  0  0  0  0  0  0  0  0  0  0  0
   -3.1090    3.2530    1.5670 C   0  0  0  0  0  0  0  0  0  0  0  0
   -3.8170    3.7780    2.3920 O   0  0  0  0  0  0  0  0  0  0  0  0
   -3.1570    1.8370    1.2010 C   0  0  0  0  0  0  0  0  0  0  0  0
   -4.1620    0.9260    1.7450 C   0  0  1  0  0  0  0  0  0  0  0  0
   -5.5390    1.4110    1.3440 C   0  0  0  0  0  0  0  0  0  0  0  0
   -4.0380   -0.4600    1.1070 C   0  0  0  0  0  0  0  0  0  0  0  0
   -4.6690   -1.4500    1.6750 C   0  0  0  0  0  0  0  0  0  0  0  0
   -4.6350   -2.7830    1.1840 N   0  0  0  0  0  0  0  0  0  0  0  0
   -3.2060   -0.4960   -0.1010 C   0  0  0  0  0  0  0  0  0  0  0  0
   -2.9190   -1.6400   -0.8230 N   0  0  0  0  0  0  0  0  0  0  0  0
   -2.8040   -1.4320   -2.2400 C   0  0  0  0  0  0  0  0  0  0  0  0
   -1.5030   -1.8450   -2.8820 C   0  0  0  0  0  0  0  0  0  0  0  0
   -0.4010   -1.3450   -2.2460 N   0  0  0  0  0  0  0  0  0  0  0  0
   -0.4480   -1.6400   -0.8580 C   0  0  0  0  0  0  0  0  0  0  0  0
   -1.7470   -2.3180   -0.4070 C   0  0  0  0  0  0  0  0  0  0  0  0
    0.3110   -0.1770   -2.5070 C   0  0  0  0  0  0  0  0  0  0  0  0
    4.2860    0.0520    1.2710 C   0  0  0  0  0  0  0  0  0  0  0  0
    5.4060   -0.7630    1.1660 C   0  0  0  0  0  0  0  0  0  0  0  0
  1  2  1  0
  2  3  1  0
  3  4  1  0
  4  5  2  0
  4 36  1  0
  5  6  1  0
  6  7  2  0
  7  8  1  0
  7 35  1  0
  8  9  2  0
  8 10  1  0
 10 11  1  0
 11 12  1  0
 12 13  2  0
 12 17  1  0
 13 14  1  0
 14 15  2  0
 14 34  1  0
 15 16  1  0
 16 17  2  0
 17 18  1  0
 18 19  1  0
 19 20  2  0
 19 21  1  0
 21 22  1  0
 22 23  1  6
 22 24  1  0
 24 25  2  3
 24 27  1  0
 25 26  1  0
 27 28  1  0
 28 29  1  0
 28 33  1  0
 29 30  1  0
 30 31  1  0
 31 32  1  0
 31 34  1  0
 32 33  1  0
 35 36  2  0
M  CHG  1  26   1
M  END
