
     RDKit          3D

 36 41  0  0  0  0  0  0  0  0999 V2000
    1.9850   -4.5500    1.1060 C   0  0  0  0  0  0  0  0  0  0  0  0
    1.3150   -4.1140   -0.1370 C   0  0  2  0  0  0  0  0  0  0  0  0
    2.4110   -3.4470   -1.0090 C   0  0  0  0  0  0  0  0  0  0  0  0
    2.8650   -2.1900   -0.4850 N   0  0  0  0  0  0  0  0  0  0  0  0
    2.6230   -1.0740   -1.3710 C   0  0  0  0  0  0  0  0  0  0  0  0
    2.7500    0.2680   -0.7130 C   0  0  2  0  0  0  0  0  0  0  0  0
    3.1180    0.0750    0.7490 C   0  0  0  0  0  0  0  0  0  0  0  0
    1.5970    0.9990   -0.8890 O   0  0  0  0  0  0  0  0  0  0  0  0
    1.1700    2.0100   -1.6490 C   0  0  0  0  0  0  0  0  0  0  0  0
    0.7340    1.9420   -2.8620 O   0  0  0  0  0  0  0  0  0  0  0  0
    1.1620    3.3590   -1.1240 N   0  0  0  0  0  0  0  0  0  0  0  0
    1.6930    3.7570    0.1320 C   0  0  0  0  0  0  0  0  0  0  0  0
    0.8880    4.6190    1.0130 C   0  0  0  0  0  0  0  0  0  0  0  0
   -0.3820    5.1910    0.5140 C   0  0  0  0  0  0  0  0  0  0  0  0
   -1.3690    4.2340   -0.0280 C   0  0  0  0  0  0  0  0  0  0  0  0
   -2.3060    4.6970   -0.9640 C   0  0  0  0  0  0  0  0  0  0  0  0
   -3.2040    3.8270   -1.5080 C   0  0  0  0  0  0  0  0  0  0  0  0
   -3.2440    2.4510   -1.1760 C   0  0  0  0  0  0  0  0  0  0  0  0
   -2.3390    1.9870   -0.2770 C   0  0  0  0  0  0  0  0  0  0  0  0
   -1.4470    2.9170    0.2560 C   0  0  0  0  0  0  0  0  0  0  0  0
   -0.5660    2.3660    1.1820 O   0  0  0  0  0  0  0  0  0  0  0  0
   -1.1400    1.4060    2.0520 C   0  0  0  0  0  0  0  0  0  0  0  0
   -1.4640    0.1750    1.2140 C   0  0  0  0  0  0  0  0  0  0  0  0
   -1.0850   -1.1340    1.4440 C   0  0  0  0  0  0  0  0  0  0  0  0
   -1.6750   -1.9780    0.5520 C   0  0  0  0  0  0  0  0  0  0  0  0
   -2.5600   -1.6150   -0.4670 C   0  0  0  0  0  0  0  0  0  0  0  0
   -3.1770   -2.4350   -1.4080 C   0  0  0  0  0  0  0  0  0  0  0  0
   -3.8810   -1.6080   -2.1480 N   0  0  0  0  0  0  0  0  0  0  0  0
   -3.7360   -0.3170   -1.7200 C   0  0  0  0  0  0  0  0  0  0  0  0
   -4.3580    0.5370   -2.3590 O   0  0  0  0  0  0  0  0  0  0  0  0
   -2.9170   -0.3210   -0.6760 N   0  0  0  0  0  0  0  0  0  0  0  0
   -2.3460    0.5690    0.1830 C   0  0  0  0  0  0  0  0  0  0  0  0
   -1.0300   -3.3710    0.6930 C   0  0  2  0  0  0  0  0  0  0  0  0
   -0.9540   -3.3680    2.1600 C   0  0  0  0  0  0  0  0  0  0  0  0
   -0.2500   -1.9970    2.3440 C   0  0  0  0  0  0  0  0  0  0  0  0
    0.2120   -3.1840   -0.1040 C   0  0  0  0  0  0  0  0  0  0  0  0
  2  1  1  1
  2  3  1  0
  2 36  1  0
  3  4  1  0
  4  5  1  0
  5  6  1  0
  6  7  1  1
  6  8  1  0
  8  9  1  0
  9 10  2  0
  9 11  1  0
 11 12  1  0
 12 13  1  0
 13 14  1  0
 14 15  1  0
 15 16  1  0
 15 20  2  0
 16 17  2  0
 17 18  1  0
 18 19  2  0
 19 20  1  0
 19 32  1  0
 20 21  1  0
 21 22  1  0
 22 23  1  0
 23 24  1  0
 23 32  2  0
 24 25  2  0
 24 35  1  0
 25 26  1  0
 25 33  1  0
 26 27  2  0
 26 31  1  0
 27 28  1  0
 28 29  1  0
 29 30  2  0
 29 31  1  0
 31 32  1  0
 33 34  1  1
 33 36  1  0
 34 35  1  0
M  CHG  1   4   1
M  END
