
     RDKit          3D

 36 40  0  0  0  0  0  0  0  0999 V2000
    6.9170   -0.5200    1.2670 C   0  0  0  0  0  0  0  0  0  0  0  0
    5.7660   -1.3250    1.1270 N   0  0  0  0  0  0  0  0  0  0  0  0
    4.5650   -0.9220    0.7360 C   0  0  0  0  0  0  0  0  0  0  0  0
    4.4740    0.5190    0.4310 C   0  0  0  0  0  0  0  0  0  0  0  0
    3.8870    1.0790   -0.6020 C   0  0  0  0  0  0  0  0  0  0  0  0
    2.9170    1.9700    0.1810 C   0  0  1  0  0  0  0  0  0  0  0  0
    3.9660    2.7970    0.9020 C   0  0  0  0  0  0  0  0  0  0  0  0
    4.9810    1.6810    1.2720 C   0  0  0  0  0  0  0  0  0  0  0  0
    1.9810    2.7180   -0.6710 C   0  0  0  0  0  0  0  0  0  0  0  0
    0.6470    2.6110   -0.0750 N   0  0  1  0  0  0  0  0  0  0  0  0
   -0.2220    3.6760   -0.4630 C   0  0  0  0  0  0  0  0  0  0  0  0
    0.0630    1.3010   -0.2470 C   0  0  0  0  0  0  0  0  0  0  0  0
   -0.5540    1.1200   -1.5990 C   0  0  0  0  0  0  0  0  0  0  0  0
   -0.5320    2.1220   -2.3600 O   0  0  0  0  0  0  0  0  0  0  0  0
   -1.1160   -0.1140   -1.9600 N   0  0  0  0  0  0  0  0  0  0  0  0
   -1.5990   -1.0640   -0.9550 C   0  0  1  0  0  0  0  0  0  0  0  0
   -3.0080   -0.6620   -0.6700 C   0  0  0  0  0  0  0  0  0  0  0  0
   -3.8070   -0.3690   -1.7570 C   0  0  0  0  0  0  0  0  0  0  0  0
   -5.1150    0.0090   -1.5600 C   0  0  0  0  0  0  0  0  0  0  0  0
   -5.6070    0.0880   -0.2560 C   0  0  0  0  0  0  0  0  0  0  0  0
   -4.8230   -0.2000    0.8410 C   0  0  0  0  0  0  0  0  0  0  0  0
   -3.5140   -0.5770    0.6160 C   0  0  0  0  0  0  0  0  0  0  0  0
   -5.3760   -0.1000    2.0900 O   0  0  0  0  0  0  0  0  0  0  0  0
   -6.7150    0.1940    2.3770 C   0  0  0  0  0  0  0  0  0  0  0  0
   -7.6050    0.2580    1.1800 C   0  0  0  0  0  0  0  0  0  0  0  0
   -6.9120    0.4640   -0.0340 O   0  0  0  0  0  0  0  0  0  0  0  0
   -1.6450   -2.4580   -1.5470 C   0  0  0  0  0  0  0  0  0  0  0  0
   -1.6140   -3.4270   -0.4270 C   0  0  0  0  0  0  0  0  0  0  0  0
   -2.7300   -3.6570    0.1000 O   0  0  0  0  0  0  0  0  0  0  0  0
   -0.3890   -4.0750    0.0440 N   0  0  0  0  0  0  0  0  0  0  0  0
    0.8310   -3.3280    0.2250 C   0  0  0  0  0  0  0  0  0  0  0  0
    1.7690   -3.1330   -0.7730 C   0  0  0  0  0  0  0  0  0  0  0  0
    2.9620   -2.3830   -0.6190 C   0  0  0  0  0  0  0  0  0  0  0  0
    3.2970   -1.7670    0.5720 C   0  0  0  0  0  0  0  0  0  0  0  0
    2.3760   -1.9440    1.5830 C   0  0  0  0  0  0  0  0  0  0  0  0
    1.1900   -2.7000    1.4010 C   0  0  0  0  0  0  0  0  0  0  0  0
  1  2  1  0
  2  3  2  3
  3  4  1  0
  3 34  1  0
  4  5  2  0
  4  8  1  0
  5  6  1  0
  6  7  1  6
  6  9  1  0
  7  8  1  0
  9 10  1  0
 10 11  1  6
 10 12  1  0
 12 13  1  0
 13 14  2  0
 13 15  1  0
 15 16  1  0
 16 17  1  6
 16 27  1  0
 17 18  2  0
 17 22  1  0
 18 19  1  0
 19 20  2  0
 20 21  1  0
 20 26  1  0
 21 22  2  0
 21 23  1  0
 23 24  1  0
 24 25  1  0
 25 26  1  0
 27 28  1  0
 28 29  2  0
 28 30  1  0
 30 31  1  0
 31 32  2  0
 31 36  1  0
 32 33  1  0
 33 34  2  0
 34 35  1  0
 35 36  2  0
M  CHG  1  10   1
M  END
