
     RDKit          3D

 34 38  0  0  0  0  0  0  0  0999 V2000
    9.9240    1.5250   -1.0740 C   0  0  0  0  0  0  0  0  0  0  0  0
    8.5180    1.4740   -1.2970 N   0  0  0  0  0  0  0  0  0  0  0  0
    7.5710    0.8300   -0.4160 C   0  0  0  0  0  0  0  0  0  0  0  0
    8.0630    0.2990    0.5900 O   0  0  0  0  0  0  0  0  0  0  0  0
    6.1590    0.8530   -0.7630 C   0  0  0  0  0  0  0  0  0  0  0  0
    5.5960    1.4190   -1.8570 N   0  0  0  0  0  0  0  0  0  0  0  0
    4.2980    1.2480   -1.8510 N   0  0  0  0  0  0  0  0  0  0  0  0
    3.3280    1.7080   -2.8520 C   0  0  0  0  0  0  0  0  0  0  0  0
    3.9200    0.5570   -0.7520 C   0  0  0  0  0  0  0  0  0  0  0  0
    5.0870    0.3050   -0.0630 C   0  0  0  0  0  0  0  0  0  0  0  0
    5.0460   -0.4340    1.2100 C   0  0  1  0  0  0  0  0  0  0  0  0
    5.9350   -1.6720    0.9920 C   0  0  0  0  0  0  0  0  0  0  0  0
    5.7010    0.3650    2.3280 C   0  0  0  0  0  0  0  0  0  0  0  0
    3.7310   -0.9180    1.6620 C   0  0  0  0  0  0  0  0  0  0  0  0
    2.5630   -0.5820    0.8560 C   0  0  0  0  0  0  0  0  0  0  0  0
    1.3160   -0.9930    1.2780 C   0  0  0  0  0  0  0  0  0  0  0  0
    0.2050   -0.7050    0.5540 N   0  0  0  0  0  0  0  0  0  0  0  0
    0.2300   -0.0250   -0.5840 C   0  0  0  0  0  0  0  0  0  0  0  0
   -0.9160    0.2870   -1.3590 N   0  0  0  0  0  0  0  0  0  0  0  0
   -2.2140   -0.0610   -1.0270 C   0  0  0  0  0  0  0  0  0  0  0  0
   -3.1520   -0.0620   -2.0730 C   0  0  0  0  0  0  0  0  0  0  0  0
   -4.4560   -0.3730   -1.8270 C   0  0  0  0  0  0  0  0  0  0  0  0
   -4.8450   -0.6860   -0.5470 C   0  0  0  0  0  0  0  0  0  0  0  0
   -6.1820   -1.0200   -0.2660 N   0  0  0  0  0  0  0  0  0  0  0  0
   -7.1620   -1.2930   -1.2600 C   0  0  0  0  0  0  0  0  0  0  0  0
   -8.3470   -0.3430   -1.1790 C   0  0  0  0  0  0  0  0  0  0  0  0
   -8.5610    0.0980    0.1910 N   0  0  2  0  0  0  0  0  0  0  0  0
   -7.9430    1.3680    0.4350 C   0  0  0  0  0  0  0  0  0  0  0  0
   -8.1160   -0.8920    1.1560 C   0  0  0  0  0  0  0  0  0  0  0  0
   -6.6120   -1.0820    1.1360 C   0  0  0  0  0  0  0  0  0  0  0  0
   -3.9320   -0.6890    0.4920 C   0  0  0  0  0  0  0  0  0  0  0  0
   -2.5930   -0.3710    0.2510 C   0  0  0  0  0  0  0  0  0  0  0  0
    1.4710    0.3810   -0.9990 N   0  0  0  0  0  0  0  0  0  0  0  0
    2.5960    0.1230   -0.3220 C   0  0  0  0  0  0  0  0  0  0  0  0
  1  2  1  0
  2  3  1  0
  3  4  2  0
  3  5  1  0
  5  6  2  0
  5 10  1  0
  6  7  1  0
  7  8  1  0
  7  9  1  0
  9 10  2  0
  9 34  1  0
 10 11  1  0
 11 12  1  6
 11 13  1  0
 11 14  1  0
 14 15  1  0
 15 16  2  0
 15 34  1  0
 16 17  1  0
 17 18  2  0
 18 19  1  0
 18 33  1  0
 19 20  1  0
 20 21  2  0
 20 32  1  0
 21 22  1  0
 22 23  2  0
 23 24  1  0
 23 31  1  0
 24 25  1  0
 24 30  1  0
 25 26  1  0
 26 27  1  0
 27 28  1  1
 27 29  1  0
 29 30  1  0
 31 32  2  0
 33 34  2  0
M  CHG  1  27   1
M  END
