
     RDKit          3D

 34 37  0  0  0  0  0  0  0  0999 V2000
   -5.7470   -3.1110   -2.3300 C   0  0  0  0  0  0  0  0  0  0  0  0
   -5.0060   -2.0600   -1.5590 C   0  0  0  0  0  0  0  0  0  0  0  0
   -5.5400   -0.9820   -0.9010 C   0  0  0  0  0  0  0  0  0  0  0  0
   -4.4650   -0.3150   -0.3500 C   0  0  0  0  0  0  0  0  0  0  0  0
   -4.5700    0.8970    0.4410 C   0  0  0  0  0  0  0  0  0  0  0  0
   -4.7240    0.7830    1.8200 C   0  0  0  0  0  0  0  0  0  0  0  0
   -4.7720   -0.5800    2.4100 C   0  0  0  0  0  0  0  0  0  0  0  0
   -4.8230    1.8900    2.5690 N   0  0  0  0  0  0  0  0  0  0  0  0
   -4.7740    3.1030    1.9910 C   0  0  0  0  0  0  0  0  0  0  0  0
   -4.8680    4.1420    2.7040 O   0  0  0  0  0  0  0  0  0  0  0  0
   -4.6270    3.2290    0.6620 N   0  0  0  0  0  0  0  0  0  0  0  0
   -4.5250    2.1410   -0.1170 C   0  0  0  0  0  0  0  0  0  0  0  0
   -4.3860    2.2680   -1.3670 O   0  0  0  0  0  0  0  0  0  0  0  0
   -3.3120   -1.0090   -0.6900 C   0  0  0  0  0  0  0  0  0  0  0  0
   -1.9060   -0.6490   -0.3070 C   0  0  0  0  0  0  0  0  0  0  0  0
   -1.0860   -1.6020   -0.8520 O   0  0  0  0  0  0  0  0  0  0  0  0
    0.2940   -1.3420   -0.6270 C   0  0  0  0  0  0  0  0  0  0  0  0
    0.6650   -0.1830   -1.4500 C   0  0  0  0  0  0  0  0  0  0  0  0
   -0.1490    0.4780   -2.3840 C   0  0  0  0  0  0  0  0  0  0  0  0
    0.6060    1.4460   -2.9260 N   0  0  0  0  0  0  0  0  0  0  0  0
    1.7930    1.4120   -2.3950 N   0  0  0  0  0  0  0  0  0  0  0  0
    1.8960    0.4070   -1.4580 C   0  0  0  0  0  0  0  0  0  0  0  0
    3.1130    0.1790   -0.7420 C   0  0  0  0  0  0  0  0  0  0  0  0
    3.3290   -0.8210    0.1670 C   0  0  0  0  0  0  0  0  0  0  0  0
    4.5580   -0.9870    0.8200 C   0  0  0  0  0  0  0  0  0  0  0  0
    5.6200   -0.1490    0.5810 C   0  0  0  0  0  0  0  0  0  0  0  0
    6.9010   -0.3580    1.2910 C   0  0  1  0  0  0  0  0  0  0  0  0
    8.0250   -0.6620    0.3130 C   0  0  0  0  0  0  0  0  0  0  0  0
    7.3150    0.8540    2.0790 C   0  0  0  0  0  0  0  0  0  0  0  0
    6.0570    1.2060    3.2740 Cl  0  0  0  0  0  0  0  0  0  0  0  0
    5.4270    0.8580   -0.3230 C   0  0  0  0  0  0  0  0  0  0  0  0
    4.2200    1.0170   -0.9620 C   0  0  0  0  0  0  0  0  0  0  0  0
    4.0630    2.3510   -2.1170 Cl  0  0  0  0  0  0  0  0  0  0  0  0
   -3.7210   -2.0290   -1.4060 O   0  0  0  0  0  0  0  0  0  0  0  0
  1  2  1  0
  2  3  2  0
  2 34  1  0
  3  4  1  0
  4  5  1  0
  4 14  2  0
  5  6  2  0
  5 12  1  0
  6  7  1  0
  6  8  1  0
  8  9  1  0
  9 10  2  0
  9 11  1  0
 11 12  1  0
 12 13  2  0
 14 15  1  0
 14 34  1  0
 15 16  1  0
 16 17  1  0
 17 18  1  0
 18 19  2  0
 18 22  1  0
 19 20  1  0
 20 21  1  0
 21 22  2  0
 22 23  1  0
 23 24  2  0
 23 32  1  0
 24 25  1  0
 25 26  2  0
 26 27  1  0
 26 31  1  0
 27 28  1  6
 27 29  1  0
 29 30  1  0
 31 32  2  0
 32 33  1  0
M  END
