
     RDKit          3D

 34 34  0  0  0  0  0  0  0  0999 V2000
    8.6710    0.1500   -1.6130 C   0  0  0  0  0  0  0  0  0  0  0  0
    7.5460    0.2260   -0.6230 C   0  0  2  0  0  0  0  0  0  0  0  0
    7.7120   -0.5840    0.4940 O   0  0  0  0  0  0  0  0  0  0  0  0
    6.2970   -0.2760   -1.3440 C   0  0  0  0  0  0  0  0  0  0  0  0
    5.1850   -0.1500   -0.4180 O   0  0  0  0  0  0  0  0  0  0  0  0
    3.9820   -0.5170   -0.8880 C   0  0  0  0  0  0  0  0  0  0  0  0
    3.5660   -0.9420   -1.8890 O   0  0  0  0  0  0  0  0  0  0  0  0
    2.7820   -0.2610    0.3640 N   0  0  0  0  0  0  0  0  0  0  0  0
    1.7070   -0.6540   -0.3960 C   0  0  0  0  0  0  0  0  0  0  0  0
    1.5130   -1.1380   -1.4730 O   0  0  0  0  0  0  0  0  0  0  0  0
    0.4520   -0.3800    0.3990 N   0  0  0  0  0  0  0  0  0  0  0  0
   -0.8430   -0.6670   -0.1030 C   0  0  2  0  0  0  0  0  0  0  0  0
   -1.7640   -0.2710    1.0260 C   0  0  0  0  0  0  0  0  0  0  0  0
   -1.2830   -0.2480    2.2010 O   0  0  0  0  0  0  0  0  0  0  0  0
   -3.1130    0.0620    0.7970 N   0  0  0  0  0  0  0  0  0  0  0  0
   -4.0120    0.4220    1.9130 C   0  0  2  0  0  0  0  0  0  0  0  0
   -5.0980   -0.6310    1.9110 C   0  0  0  0  0  0  0  0  0  0  0  0
   -6.1100   -0.4800    2.9640 C   0  0  0  0  0  0  0  0  0  0  0  0
   -6.0300    0.3770    3.8700 O   0  0  0  0  0  0  0  0  0  0  0  0
   -7.2120   -1.3270    2.9580 O   0  0  0  0  0  0  0  0  0  0  0  0
   -4.4990    1.8080    1.8980 C   0  0  0  0  0  0  0  0  0  0  0  0
   -5.3210    2.3060    0.7840 C   0  0  2  0  0  0  0  0  0  0  0  0
   -6.5140    1.5550    0.6180 O   0  0  0  0  0  0  0  0  0  0  0  0
   -4.6770    2.6580   -0.4760 C   0  0  0  0  0  0  0  0  0  0  0  0
   -3.7280    3.4300   -0.4970 O   0  0  0  0  0  0  0  0  0  0  0  0
   -0.9820   -2.1760   -0.1730 C   0  0  0  0  0  0  0  0  0  0  0  0
   -2.1090   -2.6480   -1.0530 C   0  0  0  0  0  0  0  0  0  0  0  0
   -1.8020   -2.1470   -2.4570 C   0  0  0  0  0  0  0  0  0  0  0  0
   -1.8620   -0.6570   -2.4300 C   0  0  0  0  0  0  0  0  0  0  0  0
   -1.0910    0.0350   -1.3740 C   0  0  1  0  0  0  0  0  0  0  0  0
   -1.7250    1.2880   -1.1520 O   0  0  0  0  0  0  0  0  0  0  0  0
    7.2340    1.6120   -0.1940 C   0  0  0  0  0  0  0  0  0  0  0  0
    7.0830    1.9060    1.1830 N   0  0  0  0  0  0  0  0  0  0  0  0
    7.1070    2.5020   -1.0520 O   0  0  0  0  0  0  0  0  0  0  0  0
  2  1  1  6
  2  3  1  0
  2  4  1  0
  2 32  1  0
  4  5  1  0
  5  6  1  0
  6  7  2  0
  6  8  1  0
  8  9  1  0
  9 10  2  0
  9 11  1  0
 12 11  1  1
 12 13  1  0
 12 26  1  0
 12 30  1  0
 13 14  2  0
 13 15  1  0
 15 16  1  0
 16 17  1  6
 16 21  1  0
 17 18  1  0
 18 19  2  0
 18 20  1  0
 21 22  1  0
 22 23  1  6
 22 24  1  0
 24 25  2  0
 26 27  1  0
 27 28  1  0
 28 29  1  0
 29 30  1  0
 30 31  1  1
 32 33  1  0
 32 34  2  0
M  END
