
     RDKit          3D

 34 34  0  0  0  0  0  0  0  0999 V2000
    1.3680   -0.5530    2.3030 C   0  0  0  0  0  0  0  0  0  0  0  0
    1.1780   -0.6570    0.9240 O   0  0  0  0  0  0  0  0  0  0  0  0
    1.2020    0.6020    0.3040 C   0  0  2  0  0  0  0  0  0  0  0  0
   -0.0640    0.7390   -0.4760 C   0  0  0  0  0  0  0  0  0  0  0  0
   -1.2590    0.6520    0.3220 N   0  0  0  0  0  0  0  0  0  0  0  0
   -1.8150    1.8210    0.9050 C   0  0  0  0  0  0  0  0  0  0  0  0
   -2.8880    1.7420    1.6080 O   0  0  0  0  0  0  0  0  0  0  0  0
   -1.2640    3.1200    0.7720 N   0  0  0  0  0  0  0  0  0  0  0  0
   -1.8650    4.2910    1.3840 C   0  0  2  0  0  0  0  0  0  0  0  0
   -1.0190    5.4980    1.0230 C   0  0  0  0  0  0  0  0  0  0  0  0
   -1.8660    4.1820    2.8900 C   0  0  0  0  0  0  0  0  0  0  0  0
   -0.5740    4.0620    3.3840 O   0  0  0  0  0  0  0  0  0  0  0  0
   -3.2260    4.4550    0.8680 C   0  0  0  0  0  0  0  0  0  0  0  0
   -4.0170    5.5450    1.3310 N   0  0  0  0  0  0  0  0  0  0  0  0
   -3.7320    3.6770    0.0330 O   0  0  0  0  0  0  0  0  0  0  0  0
   -1.9070   -0.6020    0.5450 C   0  0  0  0  0  0  0  0  0  0  0  0
   -2.9450   -0.6300    1.2470 O   0  0  0  0  0  0  0  0  0  0  0  0
   -1.4470   -1.7870    0.0250 O   0  0  0  0  0  0  0  0  0  0  0  0
   -2.0760   -3.0240    0.2380 C   0  0  1  0  0  0  0  0  0  0  0  0
   -2.1610   -3.4110    1.6850 C   0  0  0  0  0  0  0  0  0  0  0  0
   -3.4770   -2.9960   -0.3700 C   0  0  0  0  0  0  0  0  0  0  0  0
   -3.2900   -2.6790   -1.8460 C   0  0  0  0  0  0  0  0  0  0  0  0
   -2.7210   -3.8250   -2.4290 O   0  0  0  0  0  0  0  0  0  0  0  0
   -1.4270   -4.0120   -1.9780 C   0  0  0  0  0  0  0  0  0  0  0  0
   -1.3190   -4.1150   -0.4860 C   0  0  1  0  0  0  0  0  0  0  0  0
    0.0250   -4.1410   -0.1490 O   0  0  0  0  0  0  0  0  0  0  0  0
    2.3280    0.5620   -0.6870 C   0  0  0  0  0  0  0  0  0  0  0  0
    2.5390    1.6170   -1.3770 O   0  0  0  0  0  0  0  0  0  0  0  0
    3.1470   -0.5620   -0.8860 N   0  0  0  0  0  0  0  0  0  0  0  0
    4.2170   -0.4780   -1.8850 C   0  0  0  0  0  0  0  0  0  0  0  0
    4.9600   -1.7820   -1.9330 C   0  0  2  0  0  0  0  0  0  0  0  0
    5.5120   -2.0440   -0.6790 O   0  0  0  0  0  0  0  0  0  0  0  0
    6.1050   -1.6690   -2.9120 C   0  0  0  0  0  0  0  0  0  0  0  0
    6.9700   -0.6400   -2.5530 O   0  0  0  0  0  0  0  0  0  0  0  0
  1  2  1  0
  2  3  1  0
  3  4  1  6
  3 27  1  0
  4  5  1  0
  5  6  1  0
  5 16  1  0
  6  7  2  0
  6  8  1  0
  8  9  1  0
  9 10  1  1
  9 11  1  0
  9 13  1  0
 11 12  1  0
 13 14  1  0
 13 15  2  0
 16 17  2  0
 16 18  1  0
 18 19  1  0
 19 20  1  1
 19 21  1  0
 19 25  1  0
 21 22  1  0
 22 23  1  0
 23 24  1  0
 24 25  1  0
 25 26  1  6
 27 28  2  0
 27 29  1  0
 29 30  1  0
 30 31  1  0
 31 32  1  1
 31 33  1  0
 33 34  1  0
M  END
