
     RDKit          3D

 34 38  0  0  0  0  0  0  0  0999 V2000
    8.3540    2.3490    1.7550 C   0  0  0  0  0  0  0  0  0  0  0  0
    7.0660    1.6170    1.6400 C   0  0  0  0  0  0  0  0  0  0  0  0
    6.1760    2.0290    0.8240 O   0  0  0  0  0  0  0  0  0  0  0  0
    6.7940    0.4610    2.4170 N   0  0  0  0  0  0  0  0  0  0  0  0
    5.5460   -0.2560    2.3110 C   0  0  0  0  0  0  0  0  0  0  0  0
    5.3000   -0.7730    0.9580 C   0  0  0  0  0  0  0  0  0  0  0  0
    6.1760   -0.5400    0.0770 O   0  0  0  0  0  0  0  0  0  0  0  0
    4.1750   -1.5020    0.5670 N   0  0  0  0  0  0  0  0  0  0  0  0
    3.8260   -2.0610   -0.7310 C   0  0  1  0  0  0  0  0  0  0  0  0
    3.6660   -3.5170   -0.3670 C   0  0  0  0  0  0  0  0  0  0  0  0
    3.0700   -3.4280    1.0380 C   0  0  0  0  0  0  0  0  0  0  0  0
    2.9920   -1.9430    1.3080 C   0  0  2  0  0  0  0  0  0  0  0  0
    1.9240   -1.4210    0.4050 C   0  0  0  0  0  0  0  0  0  0  0  0
    0.6570   -0.9340    0.5940 C   0  0  0  0  0  0  0  0  0  0  0  0
   -0.1640   -0.4970   -0.4610 C   0  0  0  0  0  0  0  0  0  0  0  0
   -1.4540   -0.0110   -0.1740 N   0  0  0  0  0  0  0  0  0  0  0  0
   -2.4150    0.4650   -1.0910 C   0  0  0  0  0  0  0  0  0  0  0  0
   -2.2440    0.5310   -2.4180 N   0  0  0  0  0  0  0  0  0  0  0  0
   -3.1690    0.9870   -3.2770 C   0  0  0  0  0  0  0  0  0  0  0  0
   -4.3900    1.4280   -2.8150 C   0  0  0  0  0  0  0  0  0  0  0  0
   -5.4570    1.9430   -3.7060 C   0  0  2  0  0  0  0  0  0  0  0  0
   -5.0550    1.9180   -5.0320 F   0  0  0  0  0  0  0  0  0  0  0  0
   -5.7570    3.2790   -3.4330 F   0  0  0  0  0  0  0  0  0  0  0  0
   -6.5950    1.1510   -3.6430 F   0  0  0  0  0  0  0  0  0  0  0  0
   -4.5900    1.3690   -1.4410 C   0  0  0  0  0  0  0  0  0  0  0  0
   -5.8380    1.8170   -0.9420 N   0  0  0  0  0  0  0  0  0  0  0  0
   -6.0970    1.7780    0.4610 C   0  0  2  0  0  0  0  0  0  0  0  0
   -6.0210    0.3760    1.0730 C   0  0  0  0  0  0  0  0  0  0  0  0
   -7.2430    0.7210    1.8800 C   0  0  0  0  0  0  0  0  0  0  0  0
   -7.5590    1.8060    0.8660 C   0  0  0  0  0  0  0  0  0  0  0  0
   -3.6250    0.9020   -0.6340 N   0  0  0  0  0  0  0  0  0  0  0  0
    0.4100   -0.5970   -1.7050 C   0  0  0  0  0  0  0  0  0  0  0  0
    1.6890   -1.0850   -1.9270 C   0  0  0  0  0  0  0  0  0  0  0  0
    2.4530   -1.5000   -0.8670 C   0  0  0  0  0  0  0  0  0  0  0  0
  1  2  1  0
  2  3  2  0
  2  4  1  0
  4  5  1  0
  5  6  1  0
  6  7  2  0
  6  8  1  0
  8  9  1  0
  8 12  1  0
  9 10  1  1
  9 34  1  0
 10 11  1  0
 12 11  1  6
 12 13  1  0
 13 14  2  0
 13 34  1  0
 14 15  1  0
 15 16  1  0
 15 32  2  0
 16 17  1  0
 17 18  2  0
 17 31  1  0
 18 19  1  0
 19 20  2  0
 20 21  1  0
 20 25  1  0
 21 22  1  6
 21 23  1  0
 21 24  1  0
 25 26  1  0
 25 31  2  0
 27 26  1  6
 27 28  1  0
 27 30  1  0
 28 29  1  0
 29 30  1  0
 32 33  1  0
 33 34  2  0
M  END
