
     RDKit          3D

 34 34  0  0  0  0  0  0  0  0999 V2000
    5.1570    0.0890    0.3060 C   0  0  0  0  0  0  0  0  0  0  0  0
    4.5600   -0.9800   -0.6260 C   0  0  2  0  0  0  0  0  0  0  0  0
    3.3040   -0.3810   -1.1250 C   0  0  0  0  0  0  0  0  0  0  0  0
    2.9030    0.0380   -2.1450 O   0  0  0  0  0  0  0  0  0  0  0  0
    2.1490   -0.2770    0.1770 N   0  0  0  0  0  0  0  0  0  0  0  0
    1.2520    0.5470   -0.5250 C   0  0  0  0  0  0  0  0  0  0  0  0
    1.2260    1.1470   -1.5220 O   0  0  0  0  0  0  0  0  0  0  0  0
    0.0220    0.5970    0.3090 N   0  0  0  0  0  0  0  0  0  0  0  0
   -1.0130    1.4330   -0.1880 C   0  0  2  0  0  0  0  0  0  0  0  0
   -1.8710    2.0840    0.8010 C   0  0  0  0  0  0  0  0  0  0  0  0
   -2.3450    3.3490    0.1010 C   0  0  0  0  0  0  0  0  0  0  0  0
   -3.4050    3.6290   -0.3650 O   0  0  0  0  0  0  0  0  0  0  0  0
   -1.2750    4.2280    0.1130 O   0  0  0  0  0  0  0  0  0  0  0  0
   -1.2860    5.5580   -0.3760 C   0  0  0  0  0  0  0  0  0  0  0  0
   -2.2120    6.3870    0.4830 C   0  0  0  0  0  0  0  0  0  0  0  0
   -2.2280    7.7200   -0.0020 O   0  0  0  0  0  0  0  0  0  0  0  0
   -1.8600    0.2100   -0.8070 C   0  0  0  0  0  0  0  0  0  0  0  0
   -1.9650    0.0720   -1.9700 O   0  0  0  0  0  0  0  0  0  0  0  0
   -2.3710   -0.5660    0.1900 N   0  0  0  0  0  0  0  0  0  0  0  0
   -3.1610   -1.7730   -0.0200 C   0  0  0  0  0  0  0  0  0  0  0  0
   -4.3900   -1.3510   -0.8600 C   0  0  2  0  0  0  0  0  0  0  0  0
   -4.8560   -0.1350   -0.2690 O   0  0  0  0  0  0  0  0  0  0  0  0
   -5.4090   -2.3360   -0.3650 C   0  0  0  0  0  0  0  0  0  0  0  0
   -6.1280   -1.9510    0.6330 C   0  0  0  0  0  0  0  0  0  0  0  0
   -7.1080   -3.0500    0.9970 O   0  0  0  0  0  0  0  0  0  0  0  0
   -5.3070   -3.7160   -0.8650 C   0  0  0  0  0  0  0  0  0  0  0  0
   -5.8800   -4.7630   -0.0630 N   0  0  0  0  0  0  0  0  0  0  0  0
   -4.7440   -4.0060   -1.9140 O   0  0  0  0  0  0  0  0  0  0  0  0
    4.5190   -2.2380    0.0410 C   0  0  0  0  0  0  0  0  0  0  0  0
    5.9240   -2.6210    0.5180 C   0  0  0  0  0  0  0  0  0  0  0  0
    6.9780   -2.3130   -0.4600 C   0  0  2  0  0  0  0  0  0  0  0  0
    8.1230   -1.8530    0.1730 O   0  0  0  0  0  0  0  0  0  0  0  0
    6.6600   -1.3220   -1.5490 C   0  0  0  0  0  0  0  0  0  0  0  0
    5.3450   -1.1190   -1.7810 O   0  0  0  0  0  0  0  0  0  0  0  0
  2  1  1  1
  2  3  1  0
  2 29  1  0
  2 34  1  0
  3  4  2  0
  3  5  1  0
  5  6  1  0
  6  7  2  0
  6  8  1  0
  8  9  1  0
  9 10  1  1
  9 17  1  0
 10 11  1  0
 11 12  2  0
 11 13  1  0
 13 14  1  0
 14 15  1  0
 15 16  1  0
 17 18  2  0
 17 19  1  0
 19 20  1  0
 20 21  1  0
 21 22  1  1
 21 23  1  0
 23 24  2  3
 23 26  1  0
 24 25  1  0
 26 27  1  0
 26 28  2  0
 29 30  1  0
 30 31  1  0
 31 32  1  1
 31 33  1  0
 33 34  1  0
M  END
