
     RDKit          3D

 35 39  0  0  0  0  0  0  0  0999 V2000
   -2.9860    0.6490    2.0070 C   0  0  0  0  0  0  0  0  0  0  0  0
   -1.5110    0.5280    1.7260 C   0  0  0  0  0  0  0  0  0  0  0  0
   -0.5140    1.1380    2.3620 N   0  0  0  0  0  0  0  0  0  0  0  0
    0.6750    0.8040    1.8280 C   0  0  0  0  0  0  0  0  0  0  0  0
    0.4270   -0.0700    0.7970 C   0  0  0  0  0  0  0  0  0  0  0  0
   -0.9630   -0.2380    0.7380 C   0  0  0  0  0  0  0  0  0  0  0  0
   -1.5740   -1.1020   -0.2750 C   0  0  0  0  0  0  0  0  0  0  0  0
   -3.0080   -1.3450   -0.1640 C   0  0  0  0  0  0  0  0  0  0  0  0
   -3.4560   -1.9580    0.8240 O   0  0  0  0  0  0  0  0  0  0  0  0
   -3.8800   -0.8810   -1.1840 N   0  0  0  0  0  0  0  0  0  0  0  0
   -5.2830   -1.0520   -1.2020 C   0  0  0  0  0  0  0  0  0  0  0  0
   -6.0970   -0.4510   -0.1120 C   0  0  1  0  0  0  0  0  0  0  0  0
   -5.7720   -0.9250    1.1680 O   0  0  0  0  0  0  0  0  0  0  0  0
   -6.1170    1.0420   -0.1150 C   0  0  0  0  0  0  0  0  0  0  0  0
   -7.5040    1.4880   -0.4530 C   0  0  0  0  0  0  0  0  0  0  0  0
   -8.3940    0.2930   -0.4760 C   0  0  0  0  0  0  0  0  0  0  0  0
   -7.5400   -0.9230   -0.3450 C   0  0  0  0  0  0  0  0  0  0  0  0
    1.5240   -0.7100   -0.0030 C   0  0  1  0  0  0  0  0  0  0  0  0
    1.2610   -0.5510   -1.3860 O   0  0  0  0  0  0  0  0  0  0  0  0
    2.8290   -0.0900    0.2430 C   0  0  0  0  0  0  0  0  0  0  0  0
    3.8430   -0.4120   -0.5560 C   0  0  0  0  0  0  0  0  0  0  0  0
    5.1790    0.1140   -0.4560 C   0  0  0  0  0  0  0  0  0  0  0  0
    6.2570   -0.7030   -0.2790 C   0  0  0  0  0  0  0  0  0  0  0  0
    6.0600   -2.1640   -0.1130 C   0  0  0  0  0  0  0  0  0  0  0  0
    7.5610   -0.1930   -0.2410 C   0  0  0  0  0  0  0  0  0  0  0  0
    7.6860    1.1760   -0.3910 C   0  0  0  0  0  0  0  0  0  0  0  0
    6.6390    2.0030   -0.5670 N   0  0  0  0  0  0  0  0  0  0  0  0
    5.3900    1.4690   -0.5990 C   0  0  0  0  0  0  0  0  0  0  0  0
    4.4000    2.2230   -0.7670 O   0  0  0  0  0  0  0  0  0  0  0  0
    8.9720    1.5170   -0.3350 C   0  0  0  0  0  0  0  0  0  0  0  0
    9.7280    0.2850   -0.1350 C   0  0  0  0  0  0  0  0  0  0  0  0
   10.9640    0.1210   -0.0240 O   0  0  0  0  0  0  0  0  0  0  0  0
    8.7360   -0.7720   -0.0860 C   0  0  0  0  0  0  0  0  0  0  0  0
    3.0280    0.8170    1.3580 C   0  0  0  0  0  0  0  0  0  0  0  0
    2.0370    1.2550    2.1150 C   0  0  0  0  0  0  0  0  0  0  0  0
  1  2  1  0
  2  3  1  0
  2  6  2  0
  3  4  1  0
  4  5  2  0
  4 35  1  0
  5  6  1  0
  5 18  1  0
  6  7  1  0
  7  8  1  0
  8  9  2  0
  8 10  1  0
 10 11  1  0
 11 12  1  0
 12 13  1  1
 12 14  1  0
 12 17  1  0
 14 15  1  0
 15 16  1  0
 16 17  1  0
 18 19  1  6
 18 20  1  0
 20 21  2  3
 20 34  1  0
 21 22  1  0
 22 23  2  0
 22 28  1  0
 23 24  1  0
 23 25  1  0
 25 26  1  0
 25 33  2  0
 26 27  1  0
 26 30  2  0
 27 28  1  0
 28 29  2  0
 30 31  1  0
 31 32  2  0
 31 33  1  0
 34 35  2  0
M  END
