
     RDKit          3D

 37 40  0  0  0  0  0  0  0  0999 V2000
   -3.6480   -2.5990   -4.1170 O   0  0  0  0  0  0  0  0  0  0  0  0
   -4.0420   -2.8590   -2.8170 C   0  0  0  0  0  0  0  0  0  0  0  0
   -5.1520   -3.6440   -2.6060 C   0  0  0  0  0  0  0  0  0  0  0  0
   -5.5590   -3.9140   -1.3200 C   0  0  0  0  0  0  0  0  0  0  0  0
   -4.8570   -3.4000   -0.2660 C   0  0  0  0  0  0  0  0  0  0  0  0
   -3.7420   -2.6130   -0.5000 C   0  0  0  0  0  0  0  0  0  0  0  0
   -3.3080   -2.3240   -1.7790 C   0  0  0  0  0  0  0  0  0  0  0  0
   -2.1250   -1.4880   -2.0500 C   0  0  1  0  0  0  0  0  0  0  0  0
   -2.0840   -1.1090   -3.3730 O   0  0  0  0  0  0  0  0  0  0  0  0
   -2.1280   -0.2830   -1.2010 C   0  0  0  0  0  0  0  0  0  0  0  0
   -1.4060   -0.2410   -0.0760 C   0  0  0  0  0  0  0  0  0  0  0  0
   -0.6380   -1.3070    0.3350 O   0  0  0  0  0  0  0  0  0  0  0  0
    0.6010   -1.1780    1.0130 C   0  0  0  0  0  0  0  0  0  0  0  0
    1.3480   -2.4830    0.8210 C   0  0  0  0  0  0  0  0  0  0  0  0
    2.2530   -2.7510    1.8130 O   0  0  0  0  0  0  0  0  0  0  0  0
    3.0460   -1.6480    2.1660 C   0  0  0  0  0  0  0  0  0  0  0  0
    4.2860   -1.5750    1.3430 C   0  0  0  0  0  0  0  0  0  0  0  0
    4.8310   -2.7700    0.9180 C   0  0  0  0  0  0  0  0  0  0  0  0
    5.9910   -2.8080    0.1440 C   0  0  0  0  0  0  0  0  0  0  0  0
    6.6220   -1.6360   -0.2140 C   0  0  0  0  0  0  0  0  0  0  0  0
    6.0630   -0.4460    0.2200 C   0  0  0  0  0  0  0  0  0  0  0  0
    6.7000    0.7380   -0.1420 O   0  0  0  0  0  0  0  0  0  0  0  0
    4.9070   -0.4190    0.9900 C   0  0  0  0  0  0  0  0  0  0  0  0
    4.4260    0.9390    1.3810 C   0  0  0  0  0  0  0  0  0  0  0  0
    3.8310    1.6500    0.2960 N   0  0  0  0  0  0  0  0  0  0  0  0
    2.5900    2.2440    0.7540 C   0  0  0  0  0  0  0  0  0  0  0  0
    1.5770    2.3670   -0.3610 C   0  0  2  0  0  0  0  0  0  0  0  0
    1.8570    3.5840   -1.0240 O   0  0  0  0  0  0  0  0  0  0  0  0
    0.2180    2.5580    0.2870 C   0  0  0  0  0  0  0  0  0  0  0  0
   -0.1380    1.4500    1.0480 O   0  0  0  0  0  0  0  0  0  0  0  0
   -1.4200    0.9820    0.7690 C   0  0  1  0  0  0  0  0  0  0  0  0
   -2.1280    2.0240    0.1860 O   0  0  0  0  0  0  0  0  0  0  0  0
   -3.1930    2.4550    0.9380 C   0  0  1  0  0  0  0  0  0  0  0  0
   -3.2500    3.9380    1.1480 C   0  0  0  0  0  0  0  0  0  0  0  0
   -4.5070    4.3370    0.3650 C   0  0  0  0  0  0  0  0  0  0  0  0
   -5.3390    3.2370    0.5610 O   0  0  0  0  0  0  0  0  0  0  0  0
   -4.4770    2.1860    0.1760 C   0  0  0  0  0  0  0  0  0  0  0  0
  1  2  1  0
  2  3  2  0
  2  7  1  0
  3  4  1  0
  4  5  2  0
  5  6  1  0
  6  7  2  0
  7  8  1  0
  8  9  1  6
  8 10  1  0
 10 11  2  3
 11 12  1  0
 11 31  1  0
 12 13  1  0
 13 14  1  0
 14 15  1  0
 15 16  1  0
 16 17  1  0
 17 18  2  0
 17 23  1  0
 18 19  1  0
 19 20  2  0
 20 21  1  0
 21 22  1  0
 21 23  2  0
 23 24  1  0
 24 25  1  0
 25 26  1  0
 26 27  1  0
 27 28  1  6
 27 29  1  0
 29 30  1  0
 30 31  1  0
 31 32  1  6
 33 32  1  6
 33 34  1  0
 33 37  1  0
 34 35  1  0
 35 36  1  0
 36 37  1  0
M  CHG  1  25   1
M  END
