
     RDKit          3D

 38 41  0  0  0  0  0  0  0  0999 V2000
    0.9170   -3.2980   -2.1550 C   0  0  0  0  0  0  0  0  0  0  0  0
    0.5280   -2.7900   -0.7340 C   0  0  2  0  0  0  0  0  0  0  0  0
   -0.8890   -3.2490   -0.5850 C   0  0  0  0  0  0  0  0  0  0  0  0
   -1.9400   -2.2650   -0.8240 C   0  0  0  0  0  0  0  0  0  0  0  0
   -1.4970   -0.8500   -1.0530 C   0  0  0  0  0  0  0  0  0  0  0  0
   -0.2870   -0.4030   -0.2510 C   0  0  1  0  0  0  0  0  0  0  0  0
    0.0330    1.0210   -0.7980 C   0  0  1  0  0  0  0  0  0  0  0  0
    1.3220    1.3440   -0.7330 O   0  0  0  0  0  0  0  0  0  0  0  0
    1.8990    2.2420    0.0400 C   0  0  0  0  0  0  0  0  0  0  0  0
    3.4280    2.2130   -0.2470 C   0  0  0  0  0  0  0  0  0  0  0  0
    3.9450    3.2050    0.6230 O   0  0  0  0  0  0  0  0  0  0  0  0
    5.3240    3.2470    0.4290 C   0  0  0  0  0  0  0  0  0  0  0  0
    5.9020    4.1950    1.2460 O   0  0  0  0  0  0  0  0  0  0  0  0
   -0.5180    1.3450   -2.1340 C   0  0  0  0  0  0  0  0  0  0  0  0
   -0.8290    2.8620   -2.1320 C   0  0  2  0  0  0  0  0  0  0  0  0
   -0.7470    3.4060   -0.8760 O   0  0  0  0  0  0  0  0  0  0  0  0
   -2.2490    3.1270   -2.6090 C   0  0  0  0  0  0  0  0  0  0  0  0
   -3.0570    3.8600   -1.6040 C   0  0  0  0  0  0  0  0  0  0  0  0
   -4.0720    4.4830   -2.0790 O   0  0  0  0  0  0  0  0  0  0  0  0
   -2.7410    3.8660   -0.3080 O   0  0  0  0  0  0  0  0  0  0  0  0
   -2.9360    3.0230    0.7640 C   0  0  0  0  0  0  0  0  0  0  0  0
   -3.6250    1.7340    0.4600 C   0  0  0  0  0  0  0  0  0  0  0  0
   -4.1710    1.7920   -0.7110 O   0  0  0  0  0  0  0  0  0  0  0  0
   -3.5880    0.7910    1.3500 O   0  0  0  0  0  0  0  0  0  0  0  0
   -3.0580   -0.2970    1.9190 C   0  0  0  0  0  0  0  0  0  0  0  0
   -3.9850   -1.0290    2.6950 C   0  0  0  0  0  0  0  0  0  0  0  0
   -3.6830   -2.1810    3.3750 C   0  0  0  0  0  0  0  0  0  0  0  0
   -2.3980   -2.6420    3.2910 C   0  0  0  0  0  0  0  0  0  0  0  0
   -1.4880   -1.9440    2.5440 C   0  0  0  0  0  0  0  0  0  0  0  0
   -1.7570   -0.7740    1.8420 C   0  0  0  0  0  0  0  0  0  0  0  0
   -0.5800   -0.1930    1.1590 C   0  0  1  0  0  0  0  0  0  0  0  0
    0.5670   -0.3770    2.0010 O   0  0  0  0  0  0  0  0  0  0  0  0
    0.7660   -1.3090   -0.7500 C   0  0  1  0  0  0  0  0  0  0  0  0
    2.1480   -1.1460   -0.6840 N   0  0  0  0  0  0  0  0  0  0  0  0
    2.8930   -1.5100    0.4620 C   0  0  0  0  0  0  0  0  0  0  0  0
    2.4440   -2.8260    0.9700 C   0  0  0  0  0  0  0  0  0  0  0  0
    1.4330   -3.5640    0.1830 C   0  0  1  0  0  0  0  0  0  0  0  0
    0.6290   -4.3540    1.0130 O   0  0  0  0  0  0  0  0  0  0  0  0
  2  1  1  6
  2  3  1  0
  2 33  1  0
  2 37  1  0
  3  4  1  0
  4  5  1  0
  6  5  1  6
  6  7  1  0
  6 31  1  0
  6 33  1  0
  7  8  1  6
  7 14  1  0
  8  9  1  0
  9 10  1  0
 10 11  1  0
 11 12  1  0
 12 13  1  0
 14 15  1  0
 15 16  1  1
 15 17  1  0
 17 18  1  0
 18 19  2  0
 18 20  1  0
 20 21  1  0
 21 22  1  0
 22 23  2  0
 22 24  1  0
 24 25  1  0
 25 26  2  0
 25 30  1  0
 26 27  1  0
 27 28  2  0
 28 29  1  0
 29 30  2  0
 30 31  1  0
 31 32  1  1
 33 34  1  1
 34 35  1  0
 35 36  1  0
 36 37  1  0
 37 38  1  1
M  CHG  1  34   1
M  END
