
     RDKit          3D

 38 42  0  0  0  0  0  0  0  0999 V2000
   -6.5240    0.7970   -1.7490 N   0  0  0  0  0  0  0  0  0  0  0  0
   -6.4500    1.3550   -0.4200 C   0  0  1  0  0  0  0  0  0  0  0  0
   -7.6200    0.9580    0.4410 C   0  0  0  0  0  0  0  0  0  0  0  0
   -7.3500    1.5130    1.8240 C   0  0  2  0  0  0  0  0  0  0  0  0
   -8.5060    2.1620    2.2460 O   0  0  0  0  0  0  0  0  0  0  0  0
   -6.2460    2.5520    1.7920 C   0  0  0  0  0  0  0  0  0  0  0  0
   -4.9210    1.9980    1.3690 C   0  0  0  0  0  0  0  0  0  0  0  0
   -5.1810    0.9370    0.2990 C   0  0  2  0  0  0  0  0  0  0  0  0
   -4.1240    0.7590   -0.5510 O   0  0  0  0  0  0  0  0  0  0  0  0
   -3.5860   -0.4950   -0.5420 C   0  0  0  0  0  0  0  0  0  0  0  0
   -3.0050   -0.9450    0.7790 C   0  0  2  0  0  0  0  0  0  0  0  0
   -1.9050   -0.0300    1.2000 C   0  0  0  0  0  0  0  0  0  0  0  0
   -0.7120   -0.7010    1.5480 O   0  0  0  0  0  0  0  0  0  0  0  0
   -0.2220   -1.6820    0.7090 C   0  0  0  0  0  0  0  0  0  0  0  0
   -1.1800   -2.5590    0.2030 C   0  0  0  0  0  0  0  0  0  0  0  0
   -0.7780   -3.5660   -0.6410 C   0  0  0  0  0  0  0  0  0  0  0  0
    0.5590   -3.6830   -0.9660 C   0  0  0  0  0  0  0  0  0  0  0  0
    1.5100   -2.8150   -0.4650 C   0  0  0  0  0  0  0  0  0  0  0  0
    1.1330   -1.8000    0.3800 C   0  0  0  0  0  0  0  0  0  0  0  0
    2.0500   -0.8770    0.9290 O   0  0  0  0  0  0  0  0  0  0  0  0
    3.3410   -0.8900    0.2580 C   0  0  0  0  0  0  0  0  0  0  0  0
    3.7900   -2.2950    0.0810 C   0  0  2  0  0  0  0  0  0  0  0  0
    5.1900   -2.3830   -0.4370 C   0  0  1  0  0  0  0  0  0  0  0  0
    5.5410   -3.7820   -0.5320 O   0  0  0  0  0  0  0  0  0  0  0  0
    5.2870   -1.8070   -1.8210 C   0  0  0  0  0  0  0  0  0  0  0  0
    5.0360   -0.4790   -1.8740 O   0  0  0  0  0  0  0  0  0  0  0  0
    5.7450    0.5500   -1.3370 C   0  0  0  0  0  0  0  0  0  0  0  0
    5.2810    1.8770   -1.4750 C   0  0  0  0  0  0  0  0  0  0  0  0
    5.9760    2.9330   -0.9480 C   0  0  0  0  0  0  0  0  0  0  0  0
    7.1570    2.7820   -0.2560 C   0  0  0  0  0  0  0  0  0  0  0  0
    7.8460    3.9430    0.2790 C   0  0  0  0  0  0  0  0  0  0  0  0
    7.3690    5.0840    0.1140 O   0  0  0  0  0  0  0  0  0  0  0  0
    9.0290    3.8390    0.9780 O   0  0  0  0  0  0  0  0  0  0  0  0
    7.6220    1.4970   -0.1130 C   0  0  0  0  0  0  0  0  0  0  0  0
    8.8090    1.3130    0.5800 O   0  0  0  0  0  0  0  0  0  0  0  0
    6.9160    0.4130   -0.6510 C   0  0  0  0  0  0  0  0  0  0  0  0
    2.8620   -2.9320   -0.7920 O   0  0  0  0  0  0  0  0  0  0  0  0
   -2.6020   -2.3820    0.5990 C   0  0  0  0  0  0  0  0  0  0  0  0
  2  1  1  6
  2  3  1  0
  2  8  1  0
  3  4  1  0
  4  5  1  6
  4  6  1  0
  6  7  1  0
  7  8  1  0
  8  9  1  6
  9 10  1  0
 11 10  1  6
 11 12  1  0
 11 38  1  0
 12 13  1  0
 13 14  1  0
 14 15  2  0
 14 19  1  0
 15 16  1  0
 15 38  1  0
 16 17  2  0
 17 18  1  0
 18 19  2  0
 18 37  1  0
 19 20  1  0
 20 21  1  0
 22 21  1  6
 22 23  1  0
 22 37  1  0
 23 24  1  6
 23 25  1  0
 25 26  1  0
 26 27  1  0
 27 28  2  0
 27 36  1  0
 28 29  1  0
 29 30  2  0
 30 31  1  0
 30 34  1  0
 31 32  2  0
 31 33  1  0
 34 35  1  0
 34 36  2  0
M  CHG  1   1   1
M  END
