
     RDKit          3D

 38 41  0  0  0  0  0  0  0  0999 V2000
   -0.6280    2.7900    0.7010 C   0  0  0  0  0  0  0  0  0  0  0  0
   -1.3310    1.4550    0.8550 C   0  0  2  0  0  0  0  0  0  0  0  0
   -1.7560    1.3760    2.3210 C   0  0  0  0  0  0  0  0  0  0  0  0
   -2.7760    2.3990    2.6650 C   0  0  0  0  0  0  0  0  0  0  0  0
   -2.4200    3.2570    3.5430 O   0  0  0  0  0  0  0  0  0  0  0  0
   -3.9750    2.3600    2.0500 O   0  0  0  0  0  0  0  0  0  0  0  0
   -4.6530    1.5160    1.1840 C   0  0  0  0  0  0  0  0  0  0  0  0
   -5.1630    2.2430    0.0810 C   0  0  0  0  0  0  0  0  0  0  0  0
   -5.8760    1.6710   -0.9360 C   0  0  0  0  0  0  0  0  0  0  0  0
   -6.3650    2.4110   -2.0070 O   0  0  0  0  0  0  0  0  0  0  0  0
   -6.0760    0.3150   -0.8270 C   0  0  0  0  0  0  0  0  0  0  0  0
   -6.8190   -0.2310   -1.8980 O   0  0  0  0  0  0  0  0  0  0  0  0
   -5.5860   -0.4400    0.2490 C   0  0  0  0  0  0  0  0  0  0  0  0
   -4.8730    0.1590    1.2620 C   0  0  0  0  0  0  0  0  0  0  0  0
   -5.9290   -1.7760    0.1030 O   0  0  0  0  0  0  0  0  0  0  0  0
   -5.2360   -2.9790    0.0900 C   0  0  0  0  0  0  0  0  0  0  0  0
   -4.4740   -3.2390   -1.1910 C   0  0  0  0  0  0  0  0  0  0  0  0
   -3.1040   -3.4220   -1.0150 O   0  0  0  0  0  0  0  0  0  0  0  0
   -2.0970   -2.5210   -1.2100 C   0  0  0  0  0  0  0  0  0  0  0  0
   -1.1030   -2.6940   -1.9880 O   0  0  0  0  0  0  0  0  0  0  0  0
   -2.1140   -1.2200   -0.4790 C   0  0  0  0  0  0  0  0  0  0  0  0
   -0.8480   -0.4290   -0.6580 C   0  0  1  0  0  0  0  0  0  0  0  0
   -1.0160    0.4440   -1.7970 N   0  0  0  0  0  0  0  0  0  0  0  0
   -0.4180    0.2910    0.5760 C   0  0  2  0  0  0  0  0  0  0  0  0
   -0.4050   -0.6240    1.6290 O   0  0  0  0  0  0  0  0  0  0  0  0
    1.0120    0.7640    0.3750 C   0  0  0  0  0  0  0  0  0  0  0  0
    1.8810   -0.2810    0.0640 O   0  0  0  0  0  0  0  0  0  0  0  0
    3.2180   -0.0120   -0.1450 C   0  0  0  0  0  0  0  0  0  0  0  0
    3.7140    1.2710   -0.0520 C   0  0  0  0  0  0  0  0  0  0  0  0
    5.0460    1.5520   -0.2570 C   0  0  0  0  0  0  0  0  0  0  0  0
    5.9690    0.5480   -0.5730 C   0  0  0  0  0  0  0  0  0  0  0  0
    5.4760   -0.7290   -0.6650 C   0  0  0  0  0  0  0  0  0  0  0  0
    4.1390   -1.0040   -0.4580 C   0  0  0  0  0  0  0  0  0  0  0  0
    6.4530   -1.8130   -0.9990 C   0  0  2  0  0  0  0  0  0  0  0  0
    6.0050   -3.0580   -0.5410 O   0  0  0  0  0  0  0  0  0  0  0  0
    7.7190   -1.5070   -0.1940 C   0  0  0  0  0  0  0  0  0  0  0  0
    8.3230   -0.2280   -0.7250 C   0  0  0  0  0  0  0  0  0  0  0  0
    7.3840    0.9230   -0.7810 C   0  0  0  0  0  0  0  0  0  0  0  0
  2  1  1  1
  2  3  1  0
  2 24  1  0
  3  4  1  0
  4  5  2  0
  4  6  1  0
  6  7  1  0
  7  8  2  0
  7 14  1  0
  8  9  1  0
  9 10  1  0
  9 11  2  0
 11 12  1  0
 11 13  1  0
 13 14  2  0
 13 15  1  0
 15 16  1  0
 16 17  1  0
 17 18  1  0
 18 19  1  0
 19 20  2  0
 19 21  1  0
 21 22  1  0
 22 23  1  6
 22 24  1  0
 24 25  1  1
 24 26  1  0
 26 27  1  0
 27 28  1  0
 28 29  2  0
 28 33  1  0
 29 30  1  0
 30 31  2  0
 31 32  1  0
 31 38  1  0
 32 33  2  0
 32 34  1  0
 34 35  1  1
 34 36  1  0
 36 37  1  0
 37 38  1  0
M  CHG  1  23   1
M  END
