
     RDKit          3D

 38 40  0  0  0  0  0  0  0  0999 V2000
    6.9920   -0.0570   -2.1140 C   0  0  0  0  0  0  0  0  0  0  0  0
    6.2420    1.2180   -1.8140 C   0  0  1  0  0  0  0  0  0  0  0  0
    7.3400    2.0270   -1.0310 C   0  0  0  0  0  0  0  0  0  0  0  0
    6.0730    2.0660   -3.0490 C   0  0  0  0  0  0  0  0  0  0  0  0
    5.1410    1.1400   -0.8710 C   0  0  0  0  0  0  0  0  0  0  0  0
    3.9390    0.3320   -0.9830 C   0  0  2  0  0  0  0  0  0  0  0  0
    3.1710    0.6240    0.1870 O   0  0  0  0  0  0  0  0  0  0  0  0
    4.0620   -1.1620   -0.8900 C   0  0  0  0  0  0  0  0  0  0  0  0
    4.7220   -1.5490    0.3400 N   0  0  0  0  0  0  0  0  0  0  0  0
    2.9820    0.7180   -2.1340 C   0  0  0  0  0  0  0  0  0  0  0  0
    1.7720   -0.1710   -2.0840 C   0  0  0  0  0  0  0  0  0  0  0  0
    1.8200   -1.2760   -2.6360 O   0  0  0  0  0  0  0  0  0  0  0  0
    0.6270    0.2000   -1.4390 O   0  0  0  0  0  0  0  0  0  0  0  0
   -0.5670   -0.6150   -1.3180 C   0  0  2  0  0  0  0  0  0  0  0  0
   -1.8070    0.1210   -1.6280 C   0  0  0  0  0  0  0  0  0  0  0  0
   -2.9120    0.1370   -0.8960 O   0  0  0  0  0  0  0  0  0  0  0  0
   -3.8090    0.6280   -0.0040 C   0  0  0  0  0  0  0  0  0  0  0  0
   -4.5920    1.9260   -0.2870 C   0  0  0  0  0  0  0  0  0  0  0  0
   -4.4760    2.5850   -1.4010 C   0  0  0  0  0  0  0  0  0  0  0  0
   -5.2320    3.8030   -1.6150 C   0  0  0  0  0  0  0  0  0  0  0  0
   -5.0980    4.5020   -2.8260 O   0  0  0  0  0  0  0  0  0  0  0  0
   -6.0450    4.2560   -0.6790 C   0  0  0  0  0  0  0  0  0  0  0  0
   -6.2260    3.5590    0.6130 C   0  0  0  0  0  0  0  0  0  0  0  0
   -5.4450    2.4060    0.6840 O   0  0  0  0  0  0  0  0  0  0  0  0
   -4.0620    0.0560    1.1230 C   0  0  0  0  0  0  0  0  0  0  0  0
   -3.9250   -0.9480    2.1310 C   0  0  0  0  0  0  0  0  0  0  0  0
   -5.0200   -1.6950    2.4930 C   0  0  0  0  0  0  0  0  0  0  0  0
   -4.8960   -2.7340    3.5470 C   0  0  0  0  0  0  0  0  0  0  0  0
   -4.2380   -1.9880    4.6960 C   0  0  0  0  0  0  0  0  0  0  0  0
   -3.0750   -1.4260    4.3240 O   0  0  0  0  0  0  0  0  0  0  0  0
   -2.7680   -1.3480    2.9600 C   0  0  1  0  0  0  0  0  0  0  0  0
   -2.0480   -2.5840    2.5930 C   0  0  2  0  0  0  0  0  0  0  0  0
   -0.6400   -2.3980    2.6250 O   0  0  0  0  0  0  0  0  0  0  0  0
   -2.4290   -3.2340    1.3280 C   0  0  0  0  0  0  0  0  0  0  0  0
   -1.3850   -3.2230    0.2610 C   0  0  0  0  0  0  0  0  0  0  0  0
   -0.4540   -2.2110    0.6300 O   0  0  0  0  0  0  0  0  0  0  0  0
   -0.5060   -0.9440    0.1690 C   0  0  0  0  0  0  0  0  0  0  0  0
   -0.5040    0.0520    0.9300 O   0  0  0  0  0  0  0  0  0  0  0  0
  2  1  1  6
  2  3  1  0
  2  4  1  0
  2  5  1  0
  5  6  1  0
  6  7  1  1
  6  8  1  0
  6 10  1  0
  8  9  1  0
 10 11  1  0
 11 12  2  0
 11 13  1  0
 14 13  1  1
 14 15  1  0
 14 37  1  0
 15 16  1  0
 16 17  1  0
 17 18  1  0
 17 25  2  0
 18 19  2  0
 18 24  1  0
 19 20  1  0
 20 21  1  0
 20 22  2  0
 22 23  1  0
 23 24  1  0
 25 26  1  0
 26 27  2  0
 26 31  1  0
 27 28  1  0
 28 29  1  0
 29 30  1  0
 31 30  1  1
 31 32  1  0
 32 33  1  6
 32 34  1  0
 34 35  1  0
 35 36  1  0
 36 37  1  0
 37 38  2  0
M  CHG  1   9   1
M  END
