
     RDKit          3D

 38 42  0  0  0  0  0  0  0  0999 V2000
   -0.3650   -5.8640   -0.1040 C   0  0  0  0  0  0  0  0  0  0  0  0
    0.5810   -4.8470    0.4300 C   0  0  1  0  0  0  0  0  0  0  0  0
    2.0260   -5.2400    0.2900 C   0  0  0  0  0  0  0  0  0  0  0  0
    2.9220   -4.0600    0.0750 C   0  0  0  0  0  0  0  0  0  0  0  0
    4.1850   -4.2520    0.1690 O   0  0  0  0  0  0  0  0  0  0  0  0
    2.4730   -2.7290   -0.2450 C   0  0  0  0  0  0  0  0  0  0  0  0
    3.2740   -1.6280   -0.4470 C   0  0  0  0  0  0  0  0  0  0  0  0
    2.7350   -0.4250   -0.7380 C   0  0  0  0  0  0  0  0  0  0  0  0
    1.3700   -0.2370   -0.8580 C   0  0  0  0  0  0  0  0  0  0  0  0
    0.9510    1.0050   -1.2060 O   0  0  0  0  0  0  0  0  0  0  0  0
    0.5750   -1.3280   -0.6430 C   0  0  0  0  0  0  0  0  0  0  0  0
   -0.8470   -1.1850   -0.7220 O   0  0  0  0  0  0  0  0  0  0  0  0
   -1.2840   -0.2260    0.3370 C   0  0  0  0  0  0  0  0  0  0  0  0
   -2.7020   -0.0830    0.1040 C   0  0  0  0  0  0  0  0  0  0  0  0
   -3.6110   -1.0930    0.1710 C   0  0  0  0  0  0  0  0  0  0  0  0
   -4.9750   -0.8670    0.0100 C   0  0  0  0  0  0  0  0  0  0  0  0
   -5.4190    0.4460   -0.2240 C   0  0  0  0  0  0  0  0  0  0  0  0
   -6.7760    0.6450   -0.3790 O   0  0  0  0  0  0  0  0  0  0  0  0
   -7.1460    2.0140   -0.6130 C   0  0  0  0  0  0  0  0  0  0  0  0
   -8.6880    2.0680   -0.5390 C   0  0  1  0  0  0  0  0  0  0  0  0
   -9.0220    1.3500    0.7450 C   0  0  0  0  0  0  0  0  0  0  0  0
   -9.0620    3.3800   -0.6020 O   0  0  0  0  0  0  0  0  0  0  0  0
   -4.4990    1.4750   -0.2900 C   0  0  0  0  0  0  0  0  0  0  0  0
   -3.1740    1.1860   -0.1210 C   0  0  0  0  0  0  0  0  0  0  0  0
   -2.2670    2.2420   -0.1780 O   0  0  0  0  0  0  0  0  0  0  0  0
    1.1070   -2.5370   -0.3510 C   0  0  0  0  0  0  0  0  0  0  0  0
    0.2640   -3.6260   -0.1540 O   0  0  0  0  0  0  0  0  0  0  0  0
    3.5690    0.8200   -0.7200 C   0  0  1  0  0  0  0  0  0  0  0  0
    3.1250    1.7310    0.3650 C   0  0  0  0  0  0  0  0  0  0  0  0
    2.0150    1.6170    0.9170 O   0  0  0  0  0  0  0  0  0  0  0  0
    3.9770    2.7380    0.7610 O   0  0  0  0  0  0  0  0  0  0  0  0
    5.1270    2.9340   -0.0350 C   0  0  1  0  0  0  0  0  0  0  0  0
    6.0300    3.9090    0.6890 C   0  0  0  0  0  0  0  0  0  0  0  0
    7.2610    4.1710   -0.0380 N   0  0  0  0  0  0  0  0  0  0  0  0
    5.8180    1.6980   -0.4770 C   0  0  0  0  0  0  0  0  0  0  0  0
    5.0080    0.4500   -0.2740 C   0  0  2  0  0  0  0  0  0  0  0  0
    5.3990   -0.6570   -0.9450 O   0  0  0  0  0  0  0  0  0  0  0  0
    4.7630   -1.7950   -0.3880 C   0  0  0  0  0  0  0  0  0  0  0  0
  2  1  1  6
  2  3  1  0
  2 27  1  0
  3  4  1  0
  4  5  2  0
  4  6  1  0
  6  7  2  0
  6 26  1  0
  7  8  1  0
  7 38  1  0
  8  9  2  0
  8 28  1  0
  9 10  1  0
  9 11  1  0
 11 12  1  0
 11 26  2  0
 12 13  1  0
 13 14  1  0
 14 15  2  0
 14 24  1  0
 15 16  1  0
 16 17  2  0
 17 18  1  0
 17 23  1  0
 18 19  1  0
 19 20  1  0
 20 21  1  1
 20 22  1  0
 23 24  2  0
 24 25  1  0
 26 27  1  0
 28 29  1  1
 28 36  1  0
 29 30  2  0
 29 31  1  0
 31 32  1  0
 32 33  1  1
 32 35  1  0
 33 34  1  0
 36 35  1  6
 36 37  1  0
 37 38  1  0
M  CHG  1  34   1
M  END
