
     RDKit          3D

 26 28  0  0  0  0  0  0  0  0999 V2000
   -7.1360    0.8890    0.1000 C   0  0  0  0  0  0  0  0  0  0  0  0
   -6.5000    0.1980   -1.0440 C   0  0  0  0  0  0  0  0  0  0  0  0
   -5.5830   -0.7280   -0.8820 C   0  0  0  0  0  0  0  0  0  0  0  0
   -5.0010   -1.3710   -2.1000 C   0  0  0  0  0  0  0  0  0  0  0  0
   -5.0560   -1.1760    0.4200 C   0  0  0  0  0  0  0  0  0  0  0  0
   -3.6710   -0.9750    0.5150 O   0  0  0  0  0  0  0  0  0  0  0  0
   -3.1080    0.2730    0.3920 C   0  0  0  0  0  0  0  0  0  0  0  0
   -1.7020    0.3650    0.5060 C   0  0  0  0  0  0  0  0  0  0  0  0
   -1.0860    1.5750    0.3930 C   0  0  0  0  0  0  0  0  0  0  0  0
    0.3390    1.7610    0.4870 C   0  0  0  0  0  0  0  0  0  0  0  0
    0.6780    3.0420    0.3760 O   0  0  0  0  0  0  0  0  0  0  0  0
    1.3980    0.8780    0.6670 N   0  0  0  0  0  0  0  0  0  0  0  0
    1.2650   -0.5380    0.8010 C   0  0  0  0  0  0  0  0  0  0  0  0
    2.7060   -1.1640    0.7800 C   0  0  0  0  0  0  0  0  0  0  0  0
    3.2980   -0.5640   -0.4000 N   0  0  2  0  0  0  0  0  0  0  0  0
    4.3240   -1.4090   -0.9760 C   0  0  0  0  0  0  0  0  0  0  0  0
    5.5530   -1.4370   -0.1660 C   0  0  0  0  0  0  0  0  0  0  0  0
    6.6210   -0.5760   -0.3020 C   0  0  0  0  0  0  0  0  0  0  0  0
    7.5470   -0.9500    0.6440 C   0  0  0  0  0  0  0  0  0  0  0  0
    7.0160   -2.0210    1.3220 C   0  0  0  0  0  0  0  0  0  0  0  0
    5.8420   -2.2670    0.8060 O   0  0  0  0  0  0  0  0  0  0  0  0
    3.7640    0.7410   -0.0660 C   0  0  0  0  0  0  0  0  0  0  0  0
    2.7500    1.4780    0.7300 C   0  0  0  0  0  0  0  0  0  0  0  0
   -1.9190    2.6740    0.1640 C   0  0  0  0  0  0  0  0  0  0  0  0
   -3.2800    2.5840    0.0530 C   0  0  0  0  0  0  0  0  0  0  0  0
   -3.8320    1.3770    0.1720 N   0  0  0  0  0  0  0  0  0  0  0  0
  1  2  1  0
  2  3  2  3
  3  4  1  0
  3  5  1  0
  5  6  1  0
  6  7  1  0
  7  8  2  0
  7 26  1  0
  8  9  1  0
  9 10  1  0
  9 24  2  0
 10 11  2  0
 10 12  1  0
 12 13  1  0
 12 23  1  0
 13 14  1  0
 14 15  1  0
 15 16  1  1
 15 22  1  0
 16 17  1  0
 17 18  2  0
 17 21  1  0
 18 19  1  0
 19 20  2  0
 20 21  1  0
 22 23  1  0
 24 25  1  0
 25 26  2  0
M  CHG  1  15   1
M  END
