
     RDKit          3D

 19 20  0  0  0  0  0  0  0  0999 V2000
    4.6770    1.6460    0.5800 C   0  0  0  0  0  0  0  0  0  0  0  0
    4.0450    0.4010    0.5300 O   0  0  0  0  0  0  0  0  0  0  0  0
    2.6890    0.2600    0.2850 C   0  0  0  0  0  0  0  0  0  0  0  0
    1.8790    1.3500    0.0770 C   0  0  0  0  0  0  0  0  0  0  0  0
    0.5320    1.1980   -0.1660 C   0  0  0  0  0  0  0  0  0  0  0  0
   -0.0150   -0.0460   -0.2030 C   0  0  0  0  0  0  0  0  0  0  0  0
   -1.4240   -0.3250   -0.4600 C   0  0  0  0  0  0  0  0  0  0  0  0
   -2.3410    0.8410   -0.5750 C   0  0  1  0  0  0  0  0  0  0  0  0
   -2.0410    1.7340   -1.5670 O   0  0  0  0  0  0  0  0  0  0  0  0
   -3.6900    0.2930   -0.8550 N   0  0  0  0  0  0  0  0  0  0  0  0
   -4.1580   -0.2280    0.3820 C   0  0  0  0  0  0  0  0  0  0  0  0
   -5.2470   -1.4600    0.5800 S   0  0  0  0  0  0  0  0  0  0  0  0
   -3.5060    0.5130    1.4190 N   0  0  0  0  0  0  0  0  0  0  0  0
   -2.6560    1.4690    0.7480 C   0  0  0  0  0  0  0  0  0  0  0  0
   -2.2850    2.5610    1.1930 O   0  0  0  0  0  0  0  0  0  0  0  0
    0.7940   -1.1830    0.0070 C   0  0  0  0  0  0  0  0  0  0  0  0
    0.2260   -2.4400   -0.0340 O   0  0  0  0  0  0  0  0  0  0  0  0
    0.9260   -3.6270    0.1540 C   0  0  0  0  0  0  0  0  0  0  0  0
    2.1300   -1.0230    0.2480 C   0  0  0  0  0  0  0  0  0  0  0  0
  1  2  1  0
  2  3  1  0
  3  4  2  0
  3 19  1  0
  4  5  1  0
  5  6  2  0
  6  7  1  0
  6 16  1  0
  7  8  1  0
  8  9  1  6
  8 10  1  0
  8 14  1  0
 10 11  1  0
 11 12  2  0
 11 13  1  0
 13 14  1  0
 14 15  2  0
 16 17  1  0
 16 19  2  0
 17 18  1  0
M  END
