
     RDKit          3D

 26 28  0  0  0  0  0  0  0  0999 V2000
    6.5460   -0.7170   -0.9950 C   0  0  0  0  0  0  0  0  0  0  0  0
    5.2560   -1.1400   -0.4040 C   0  0  0  0  0  0  0  0  0  0  0  0
    4.4450   -0.1900    0.0530 C   0  0  0  0  0  0  0  0  0  0  0  0
    4.8080    1.2270   -0.0210 C   0  0  0  0  0  0  0  0  0  0  0  0
    3.8290    2.1270    0.5140 N   0  0  0  0  0  0  0  0  0  0  0  0
    2.7150    1.7500    1.0230 C   0  0  0  0  0  0  0  0  0  0  0  0
    2.2840    0.4170    1.1360 N   0  0  0  0  0  0  0  0  0  0  0  0
    1.0280    0.0650    1.7160 C   0  0  0  0  0  0  0  0  0  0  0  0
   -0.0050    0.0420    0.6040 C   0  0  0  0  0  0  0  0  0  0  0  0
   -1.3460   -0.3120    1.0980 C   0  0  0  0  0  0  0  0  0  0  0  0
   -1.4890   -0.5470    2.3240 O   0  0  0  0  0  0  0  0  0  0  0  0
   -2.4240   -0.3760    0.1780 N   0  0  0  0  0  0  0  0  0  0  0  0
   -2.2860   -0.1120   -1.2310 C   0  0  0  0  0  0  0  0  0  0  0  0
   -2.4800    1.3140   -1.5920 C   0  0  0  0  0  0  0  0  0  0  0  0
   -1.5490    2.0520   -2.1760 C   0  0  0  0  0  0  0  0  0  0  0  0
   -2.0640    3.4130   -2.3940 C   0  0  0  0  0  0  0  0  0  0  0  0
   -3.4350    3.3590   -1.8510 C   0  0  0  0  0  0  0  0  0  0  0  0
   -3.6500    2.1400   -1.3950 C   0  0  0  0  0  0  0  0  0  0  0  0
   -3.7270   -0.7350    0.6880 C   0  0  0  0  0  0  0  0  0  0  0  0
   -3.8920   -2.2250    0.6290 C   0  0  0  0  0  0  0  0  0  0  0  0
   -3.5620   -3.1280    1.6110 C   0  0  0  0  0  0  0  0  0  0  0  0
   -3.8710   -4.3740    1.1590 C   0  0  0  0  0  0  0  0  0  0  0  0
   -4.3890   -4.2020   -0.1040 C   0  0  0  0  0  0  0  0  0  0  0  0
   -4.3790   -2.9190   -0.3670 O   0  0  0  0  0  0  0  0  0  0  0  0
    3.1600   -0.5800    0.6440 C   0  0  0  0  0  0  0  0  0  0  0  0
    2.8850   -1.8110    0.6900 O   0  0  0  0  0  0  0  0  0  0  0  0
  1  2  1  0
  2  3  2  3
  3  4  1  0
  3 25  1  0
  4  5  1  0
  5  6  2  0
  6  7  1  0
  7  8  1  0
  7 25  1  0
  8  9  1  0
  9 10  1  0
 10 11  2  0
 10 12  1  0
 12 13  1  0
 12 19  1  0
 13 14  1  0
 14 15  2  0
 14 18  1  0
 15 16  1  0
 16 17  1  0
 17 18  2  0
 19 20  1  0
 20 21  2  0
 20 24  1  0
 21 22  1  0
 22 23  2  0
 23 24  1  0
 25 26  2  0
M  CHG  1   5   1
M  END
