
     RDKit          3D

 13 14  0  0  0  0  0  0  0  0999 V2000
   -3.5400    1.6650    0.4050 N   0  0  0  0  0  0  0  0  0  0  0  0
   -2.5090    0.9070    0.2100 C   0  0  0  0  0  0  0  0  0  0  0  0
   -1.2750    1.3270    0.3560 O   0  0  0  0  0  0  0  0  0  0  0  0
   -0.2640    0.5120    0.1450 C   0  0  0  0  0  0  0  0  0  0  0  0
    1.0450    0.9680    0.3030 C   0  0  0  0  0  0  0  0  0  0  0  0
    2.1400    0.1650    0.0970 C   0  0  0  0  0  0  0  0  0  0  0  0
    3.4450    0.7060    0.2800 N   0  0  0  0  0  0  0  0  0  0  0  0
    1.9510   -1.1470   -0.2830 C   0  0  0  0  0  0  0  0  0  0  0  0
    0.6680   -1.6410   -0.4520 C   0  0  0  0  0  0  0  0  0  0  0  0
   -0.4330   -0.8080   -0.2370 C   0  0  0  0  0  0  0  0  0  0  0  0
   -1.6960   -1.2490   -0.3900 N   0  0  0  0  0  0  0  0  0  0  0  0
   -2.7240   -0.4090   -0.1720 C   0  0  0  0  0  0  0  0  0  0  0  0
   -3.9050   -0.8140   -0.3130 O   0  0  0  0  0  0  0  0  0  0  0  0
  1  2  2  0
  2  3  1  0
  2 12  1  0
  3  4  1  0
  4  5  2  0
  4 10  1  0
  5  6  1  0
  6  7  1  0
  6  8  2  0
  8  9  1  0
  9 10  2  0
 10 11  1  0
 11 12  1  0
 12 13  2  0
M  END
