
     RDKit          3D

 13 14  0  0  0  0  0  0  0  0999 V2000
    3.4100    0.5640   -0.1420 N   0  0  0  0  0  0  0  0  0  0  0  0
    2.0790    0.1080   -0.0350 C   0  0  0  0  0  0  0  0  0  0  0  0
    1.7580   -1.2090    0.2580 C   0  0  0  0  0  0  0  0  0  0  0  0
    0.4440   -1.6090    0.3520 C   0  0  0  0  0  0  0  0  0  0  0  0
   -0.6100   -0.7430    0.1670 C   0  0  0  0  0  0  0  0  0  0  0  0
   -1.9270   -1.1430    0.2610 C   0  0  0  0  0  0  0  0  0  0  0  0
   -2.1900   -2.3500    0.5290 O   0  0  0  0  0  0  0  0  0  0  0  0
   -2.9390   -0.2560    0.0710 N   0  0  0  0  0  0  0  0  0  0  0  0
   -2.6230    1.0260   -0.2130 C   0  0  0  0  0  0  0  0  0  0  0  0
   -3.5620    1.8550   -0.3920 O   0  0  0  0  0  0  0  0  0  0  0  0
   -1.3400    1.4210   -0.3070 N   0  0  0  0  0  0  0  0  0  0  0  0
   -0.3030    0.5710   -0.1250 C   0  0  0  0  0  0  0  0  0  0  0  0
    1.0120    0.9730   -0.2200 C   0  0  0  0  0  0  0  0  0  0  0  0
  1  2  1  0
  2  3  2  0
  2 13  1  0
  3  4  1  0
  4  5  2  0
  5  6  1  0
  5 12  1  0
  6  7  2  0
  6  8  1  0
  8  9  1  0
  9 10  2  0
  9 11  1  0
 11 12  1  0
 12 13  2  0
M  END
