
     RDKit          3D

 23 25  0  0  0  0  0  0  0  0999 V2000
    4.3370   -1.1690   -1.0500 C   0  0  0  0  0  0  0  0  0  0  0  0
    3.8010    0.1870   -1.4640 C   0  0  1  0  0  0  0  0  0  0  0  0
    2.0420    0.1610   -1.5160 S   0  0  0  0  0  0  0  0  0  0  0  0
    1.1590   -0.1640   -0.0420 C   0  0  0  0  0  0  0  0  0  0  0  0
   -0.2040   -0.0280   -0.1500 N   0  0  0  0  0  0  0  0  0  0  0  0
   -1.0180   -0.2230    0.8820 C   0  0  0  0  0  0  0  0  0  0  0  0
   -0.4340   -0.5710    2.0810 C   0  0  0  0  0  0  0  0  0  0  0  0
   -1.4910   -0.7090    2.9670 C   0  0  0  0  0  0  0  0  0  0  0  0
   -2.6250   -0.4500    2.2980 N   0  0  0  0  0  0  0  0  0  0  0  0
   -2.3640   -0.1520    1.0320 N   0  0  0  0  0  0  0  0  0  0  0  0
   -3.3130    0.1810    0.0120 C   0  0  0  0  0  0  0  0  0  0  0  0
   -2.9860    1.0210   -1.0250 C   0  0  0  0  0  0  0  0  0  0  0  0
   -3.9400    1.3060   -1.9770 C   0  0  0  0  0  0  0  0  0  0  0  0
   -5.2180    0.7970   -1.9570 C   0  0  0  0  0  0  0  0  0  0  0  0
   -5.5170   -0.0430   -0.9040 C   0  0  0  0  0  0  0  0  0  0  0  0
   -7.1310   -0.7380   -0.8030 Cl  0  0  0  0  0  0  0  0  0  0  0  0
   -4.5800   -0.3470    0.0650 C   0  0  0  0  0  0  0  0  0  0  0  0
    0.9350   -0.7110    2.2000 C   0  0  0  0  0  0  0  0  0  0  0  0
    1.4650   -1.0280    3.2940 O   0  0  0  0  0  0  0  0  0  0  0  0
    1.7330   -0.5030    1.1230 N   0  0  0  0  0  0  0  0  0  0  0  0
    4.4600    1.2790   -0.7670 C   0  0  0  0  0  0  0  0  0  0  0  0
    4.4880    1.3960    0.6340 N   0  0  0  0  0  0  0  0  0  0  0  0
    5.0500    2.1910   -1.4260 O   0  0  0  0  0  0  0  0  0  0  0  0
  2  1  1  1
  2  3  1  0
  2 21  1  0
  3  4  1  0
  4  5  2  0
  4 20  1  0
  5  6  1  0
  6  7  2  0
  6 10  1  0
  7  8  1  0
  7 18  1  0
  8  9  2  0
  9 10  1  0
 10 11  1  0
 11 12  2  0
 11 17  1  0
 12 13  1  0
 13 14  2  0
 14 15  1  0
 15 16  1  0
 15 17  2  0
 18 19  2  0
 18 20  1  0
 21 22  1  0
 21 23  2  0
M  END
