
     RDKit          3D

 19 20  0  0  0  0  0  0  0  0999 V2000
   -5.0010    0.1330    0.3490 C   0  0  0  0  0  0  0  0  0  0  0  0
   -3.5770   -0.2790    0.4290 C   0  0  0  0  0  0  0  0  0  0  0  0
   -3.0390   -1.4340    0.9420 C   0  0  0  0  0  0  0  0  0  0  0  0
   -3.9860   -2.7270    1.6450 Cl  0  0  0  0  0  0  0  0  0  0  0  0
   -1.6990   -1.3920    0.8100 N   0  0  0  0  0  0  0  0  0  0  0  0
   -1.3230   -0.2450    0.2240 C   0  0  0  0  0  0  0  0  0  0  0  0
    0.0460    0.2120   -0.1100 C   0  0  0  0  0  0  0  0  0  0  0  0
    0.2010    1.3190   -0.6580 O   0  0  0  0  0  0  0  0  0  0  0  0
    1.1680   -0.5900    0.1830 N   0  0  0  0  0  0  0  0  0  0  0  0
    2.5280   -0.2890   -0.0760 C   0  0  0  0  0  0  0  0  0  0  0  0
    3.4590   -1.2570    0.3130 C   0  0  0  0  0  0  0  0  0  0  0  0
    4.8000   -1.0670    0.1090 C   0  0  0  0  0  0  0  0  0  0  0  0
    5.9390   -2.2970    0.6070 Cl  0  0  0  0  0  0  0  0  0  0  0  0
    5.2940    0.0780   -0.4840 C   0  0  0  0  0  0  0  0  0  0  0  0
    4.3700    1.0240   -0.8630 C   0  0  0  0  0  0  0  0  0  0  0  0
    4.9190    2.5090   -1.6250 Cl  0  0  0  0  0  0  0  0  0  0  0  0
    2.9930    0.8510   -0.6640 C   0  0  0  0  0  0  0  0  0  0  0  0
   -2.4870    0.4530   -0.0150 C   0  0  0  0  0  0  0  0  0  0  0  0
   -2.5740    1.8110   -0.6630 C   0  0  0  0  0  0  0  0  0  0  0  0
  1  2  1  0
  2  3  2  0
  2 18  1  0
  3  4  1  0
  3  5  1  0
  5  6  1  0
  6  7  1  0
  6 18  2  0
  7  8  2  0
  7  9  1  0
  9 10  1  0
 10 11  2  0
 10 17  1  0
 11 12  1  0
 12 13  1  0
 12 14  2  0
 14 15  1  0
 15 16  1  0
 15 17  2  0
 18 19  1  0
M  END
