
     RDKit          3D

 19 20  0  0  0  0  0  0  0  0999 V2000
    4.8050   -0.9030    0.2610 C   0  0  0  0  0  0  0  0  0  0  0  0
    3.3140   -1.1810    0.1430 C   0  0  0  0  0  0  0  0  0  0  0  0
    2.9980   -2.3610   -0.0990 O   0  0  0  0  0  0  0  0  0  0  0  0
    2.4030   -0.1100    0.3090 N   0  0  0  0  0  0  0  0  0  0  0  0
    1.0060   -0.2820    0.2150 C   0  0  0  0  0  0  0  0  0  0  0  0
    0.3870   -1.4620   -0.0390 C   0  0  0  0  0  0  0  0  0  0  0  0
   -0.9850   -1.5310   -0.1120 C   0  0  0  0  0  0  0  0  0  0  0  0
   -1.8240   -0.4510    0.0590 C   0  0  0  0  0  0  0  0  0  0  0  0
   -3.2450   -0.6280   -0.0280 N   0  0  0  0  0  0  0  0  0  0  0  0
   -3.8250   -1.9240   -0.3430 C   0  0  1  0  0  0  0  0  0  0  0  0
   -3.3560   -2.4990   -1.9330 Cl  0  0  0  0  0  0  0  0  0  0  0  0
   -3.5490   -3.1180    0.9500 Cl  0  0  0  0  0  0  0  0  0  0  0  0
   -1.2090    0.7490    0.3170 C   0  0  0  0  0  0  0  0  0  0  0  0
   -1.9850    1.8690    0.4970 C   0  0  0  0  0  0  0  0  0  0  0  0
   -1.4180    3.1180    0.7610 C   0  0  0  0  0  0  0  0  0  0  0  0
   -2.4520    4.4990    0.9800 Cl  0  0  0  0  0  0  0  0  0  0  0  0
   -0.0800    3.2300    0.8410 C   0  0  0  0  0  0  0  0  0  0  0  0
    0.6930    2.0950    0.6570 C   0  0  0  0  0  0  0  0  0  0  0  0
    0.1950    0.8440    0.3960 C   0  0  0  0  0  0  0  0  0  0  0  0
  1  2  1  0
  2  3  2  0
  2  4  1  0
  4  5  1  0
  5  6  2  0
  5 19  1  0
  6  7  1  0
  7  8  2  0
  8  9  1  0
  8 13  1  0
  9 10  1  0
 10 11  1  6
 10 12  1  0
 13 14  2  0
 13 19  1  0
 14 15  1  0
 15 16  1  0
 15 17  2  0
 17 18  1  0
 18 19  2  0
M  END
