
     RDKit          3D

 19 20  0  0  0  0  0  0  0  0999 V2000
    4.5190   -0.5300    1.9320 C   0  0  0  0  0  0  0  0  0  0  0  0
    3.3280   -1.2340    2.0740 O   0  0  0  0  0  0  0  0  0  0  0  0
    2.1560   -0.9200    1.4150 C   0  0  0  0  0  0  0  0  0  0  0  0
    2.0230    0.1320    0.5330 C   0  0  0  0  0  0  0  0  0  0  0  0
    0.8380    0.4380   -0.1260 C   0  0  0  0  0  0  0  0  0  0  0  0
    0.7710    1.4920   -0.9590 N   0  0  0  0  0  0  0  0  0  0  0  0
   -0.3840    1.8200   -1.5970 C   0  0  0  0  0  0  0  0  0  0  0  0
   -0.4440    2.9390   -2.4750 N   0  0  0  0  0  0  0  0  0  0  0  0
   -1.5270    1.0740   -1.4070 C   0  0  0  0  0  0  0  0  0  0  0  0
   -2.8160    1.4010   -2.0890 C   0  0  0  0  0  0  0  0  0  0  0  0
   -1.4400   -0.0150   -0.5420 C   0  0  0  0  0  0  0  0  0  0  0  0
   -2.6460   -0.7860   -0.3450 C   0  0  0  0  0  0  0  0  0  0  0  0
   -2.8010   -2.0500   -0.6370 C   0  0  0  0  0  0  0  0  0  0  0  0
   -4.3410   -2.8060   -0.3150 Cl  0  0  0  0  0  0  0  0  0  0  0  0
   -1.5670   -3.0270   -1.3940 Cl  0  0  0  0  0  0  0  0  0  0  0  0
   -0.2820   -0.3580    0.1120 C   0  0  0  0  0  0  0  0  0  0  0  0
   -0.1700   -1.4110    0.9890 C   0  0  0  0  0  0  0  0  0  0  0  0
    1.0130   -1.6980    1.6320 C   0  0  0  0  0  0  0  0  0  0  0  0
    1.1140   -3.0400    2.7350 Cl  0  0  0  0  0  0  0  0  0  0  0  0
  1  2  1  0
  2  3  1  0
  3  4  2  0
  3 18  1  0
  4  5  1  0
  5  6  2  0
  5 16  1  0
  6  7  1  0
  7  8  1  0
  7  9  2  0
  9 10  1  0
  9 11  1  0
 11 12  1  0
 11 16  2  0
 12 13  2  3
 13 14  1  0
 13 15  1  0
 16 17  1  0
 17 18  2  0
 18 19  1  0
M  END
