
     RDKit          3D

  8  8  0  0  0  0  0  0  0  0999 V2000
    1.9500    0.7650   -0.6040 N   0  0  0  0  0  0  0  0  0  0  0  0
    1.4380   -0.0120    0.5120 C   0  0  0  0  0  0  0  0  0  0  0  0
    0.0320   -0.4010    0.2460 C   0  0  0  0  0  0  0  0  0  0  0  0
   -0.5100   -1.5950    0.1540 C   0  0  0  0  0  0  0  0  0  0  0  0
   -1.9360   -1.5080   -0.1210 C   0  0  0  0  0  0  0  0  0  0  0  0
   -2.2160   -0.2510   -0.1870 N   0  0  0  0  0  0  0  0  0  0  0  0
   -1.0600    0.5490    0.0270 C   0  0  0  0  0  0  0  0  0  0  0  0
   -0.9750    1.8280    0.0310 N   0  0  0  0  0  0  0  0  0  0  0  0
  1  2  1  0
  2  3  1  0
  3  4  2  0
  3  7  1  0
  4  5  1  0
  5  6  2  0
  6  7  1  0
  7  8  2  0
M  CHG  1   8   1
M  END
