
     RDKit          3D

 19 20  0  0  0  0  0  0  0  0999 V2000
   -3.1410    1.5720    0.5200 C   0  0  0  0  0  0  0  0  0  0  0  0
   -2.5570    0.4580    1.3050 C   0  0  0  0  0  0  0  0  0  0  0  0
   -1.9310   -0.5820    0.5310 N   0  0  0  0  0  0  0  0  0  0  0  0
   -0.6470   -0.4820    0.1910 C   0  0  0  0  0  0  0  0  0  0  0  0
    0.1780    0.6340    0.5080 N   0  0  0  0  0  0  0  0  0  0  0  0
    1.5350    0.7330    0.1670 C   0  0  0  0  0  0  0  0  0  0  0  0
    1.9470    1.2880   -1.0230 C   0  0  0  0  0  0  0  0  0  0  0  0
    0.8200    1.9140   -2.2060 Cl  0  0  0  0  0  0  0  0  0  0  0  0
    3.3040    1.3770   -1.3440 C   0  0  0  0  0  0  0  0  0  0  0  0
    4.2460    0.9110   -0.4740 C   0  0  0  0  0  0  0  0  0  0  0  0
    3.8510    0.3490    0.7280 C   0  0  0  0  0  0  0  0  0  0  0  0
    5.0780   -0.2460    1.8380 Cl  0  0  0  0  0  0  0  0  0  0  0  0
    2.4980    0.2700    1.0290 C   0  0  0  0  0  0  0  0  0  0  0  0
    1.9940   -0.4350    2.5390 Cl  0  0  0  0  0  0  0  0  0  0  0  0
   -0.0020   -1.4770   -0.5390 C   0  0  0  0  0  0  0  0  0  0  0  0
   -0.6830   -2.6010   -0.9330 C   0  0  0  0  0  0  0  0  0  0  0  0
   -2.0120   -2.6930   -0.5760 C   0  0  0  0  0  0  0  0  0  0  0  0
   -2.6160   -1.6900    0.1470 C   0  0  0  0  0  0  0  0  0  0  0  0
   -3.8240   -1.7420    0.4890 O   0  0  0  0  0  0  0  0  0  0  0  0
  1  2  1  0
  2  3  1  0
  3  4  1  0
  3 18  1  0
  4  5  1  0
  4 15  2  0
  5  6  1  0
  6  7  2  0
  6 13  1  0
  7  8  1  0
  7  9  1  0
  9 10  2  0
 10 11  1  0
 11 12  1  0
 11 13  2  0
 13 14  1  0
 15 16  1  0
 16 17  2  0
 17 18  1  0
 18 19  2  0
M  END
