
     RDKit          3D

 19 20  0  0  0  0  0  0  0  0999 V2000
   -2.2060   -2.5970   -1.0650 C   0  0  0  0  0  0  0  0  0  0  0  0
   -1.3530   -1.4260   -0.6990 C   0  0  0  0  0  0  0  0  0  0  0  0
   -1.9310   -0.3550   -0.0620 C   0  0  0  0  0  0  0  0  0  0  0  0
   -3.3090   -0.3530    0.2450 N   0  0  0  0  0  0  0  0  0  0  0  0
   -1.1350    0.7280    0.2750 C   0  0  0  0  0  0  0  0  0  0  0  0
   -1.7010    1.8210    0.9110 C   0  0  0  0  0  0  0  0  0  0  0  0
   -0.9980    2.9380    1.2760 C   0  0  0  0  0  0  0  0  0  0  0  0
    0.3410    2.9510    0.9840 C   0  0  0  0  0  0  0  0  0  0  0  0
    1.3040    4.3570    1.4250 Cl  0  0  0  0  0  0  0  0  0  0  0  0
    0.9270    1.8680    0.3480 C   0  0  0  0  0  0  0  0  0  0  0  0
    0.2330    0.7350   -0.0250 C   0  0  0  0  0  0  0  0  0  0  0  0
    0.7840   -0.3010   -0.6380 N   0  0  0  0  0  0  0  0  0  0  0  0
    2.1860   -0.3520   -0.9420 C   0  0  0  0  0  0  0  0  0  0  0  0
    3.0080   -0.9950    0.0700 C   0  0  0  0  0  0  0  0  0  0  0  0
    2.5260   -2.6550    0.5140 Cl  0  0  0  0  0  0  0  0  0  0  0  0
    4.0310   -0.5020    0.6710 C   0  0  0  0  0  0  0  0  0  0  0  0
    4.6540    1.0920    0.3690 Cl  0  0  0  0  0  0  0  0  0  0  0  0
   -0.0240   -1.3590   -0.9620 C   0  0  0  0  0  0  0  0  0  0  0  0
    0.5030   -2.3560   -1.5520 O   0  0  0  0  0  0  0  0  0  0  0  0
  1  2  1  0
  2  3  2  0
  2 18  1  0
  3  4  1  0
  3  5  1  0
  5  6  2  0
  5 11  1  0
  6  7  1  0
  7  8  2  0
  8  9  1  0
  8 10  1  0
 10 11  2  0
 11 12  1  0
 12 13  1  0
 12 18  1  0
 13 14  1  0
 14 15  1  0
 14 16  2  3
 16 17  1  0
 18 19  2  0
M  END
