
     RDKit          3D

 19 20  0  0  0  0  0  0  0  0999 V2000
   -4.7800    0.5870   -0.1300 C   0  0  0  0  0  0  0  0  0  0  0  0
   -3.5790   -0.2770   -0.0310 C   0  0  0  0  0  0  0  0  0  0  0  0
   -3.4910   -1.6380    0.1000 C   0  0  0  0  0  0  0  0  0  0  0  0
   -4.8870   -2.6890    0.1810 Cl  0  0  0  0  0  0  0  0  0  0  0  0
   -2.2090   -2.0170    0.1540 N   0  0  0  0  0  0  0  0  0  0  0  0
   -1.3890   -0.9140    0.0590 C   0  0  0  0  0  0  0  0  0  0  0  0
    0.0640   -0.9570    0.0810 C   0  0  0  0  0  0  0  0  0  0  0  0
    0.5790   -2.1210    0.1650 O   0  0  0  0  0  0  0  0  0  0  0  0
    0.9600    0.1060    0.0220 N   0  0  0  0  0  0  0  0  0  0  0  0
    2.3850    0.0650    0.0470 C   0  0  0  0  0  0  0  0  0  0  0  0
    3.0700    1.2500   -0.2400 C   0  0  0  0  0  0  0  0  0  0  0  0
    4.4410    1.3120   -0.2300 C   0  0  0  0  0  0  0  0  0  0  0  0
    5.3040    2.8090   -0.5930 Cl  0  0  0  0  0  0  0  0  0  0  0  0
    5.2050    0.1990    0.0640 C   0  0  0  0  0  0  0  0  0  0  0  0
    4.5080   -0.9560    0.3430 C   0  0  0  0  0  0  0  0  0  0  0  0
    5.5050   -2.3680    0.7180 Cl  0  0  0  0  0  0  0  0  0  0  0  0
    3.1390   -1.0380    0.3390 C   0  0  0  0  0  0  0  0  0  0  0  0
   -2.2420    0.1560   -0.0550 C   0  0  0  0  0  0  0  0  0  0  0  0
   -1.8850    1.5840   -0.1890 C   0  0  0  0  0  0  0  0  0  0  0  0
  1  2  1  0
  2  3  2  0
  2 18  1  0
  3  4  1  0
  3  5  1  0
  5  6  1  0
  6  7  1  0
  6 18  2  0
  7  8  2  0
  7  9  1  0
  9 10  1  0
 10 11  2  0
 10 17  1  0
 11 12  1  0
 12 13  1  0
 12 14  2  0
 14 15  1  0
 15 16  1  0
 15 17  2  0
 18 19  1  0
M  END
