
     RDKit          3D

 19 20  0  0  0  0  0  0  0  0999 V2000
   -4.9740   -1.1460    0.8660 C   0  0  0  0  0  0  0  0  0  0  0  0
   -4.6980   -0.3000   -0.3560 C   0  0  0  0  0  0  0  0  0  0  0  0
   -3.2440   -0.0140   -0.4880 C   0  0  0  0  0  0  0  0  0  0  0  0
   -2.2090   -0.4180    0.3340 C   0  0  0  0  0  0  0  0  0  0  0  0
   -1.0420    0.0830   -0.1820 C   0  0  0  0  0  0  0  0  0  0  0  0
    0.2910   -0.1290    0.4120 C   0  0  0  0  0  0  0  0  0  0  0  0
    0.4290   -0.8030    1.4580 O   0  0  0  0  0  0  0  0  0  0  0  0
    1.4460    0.4240   -0.1860 N   0  0  0  0  0  0  0  0  0  0  0  0
    2.7780    0.3280    0.2320 C   0  0  0  0  0  0  0  0  0  0  0  0
    3.2010   -0.3440    1.3350 C   0  0  0  0  0  0  0  0  0  0  0  0
    4.5280   -0.4200    1.7220 C   0  0  0  0  0  0  0  0  0  0  0  0
    4.9230   -1.3220    3.1650 Cl  0  0  0  0  0  0  0  0  0  0  0  0
    5.4920    0.1940    0.9920 C   0  0  0  0  0  0  0  0  0  0  0  0
    7.1580    0.0820    1.5050 Cl  0  0  0  0  0  0  0  0  0  0  0  0
    5.1050    0.8870   -0.1340 C   0  0  0  0  0  0  0  0  0  0  0  0
    3.7820    0.9590   -0.5150 C   0  0  0  0  0  0  0  0  0  0  0  0
    3.4090    1.8680   -1.9640 Cl  0  0  0  0  0  0  0  0  0  0  0  0
   -1.4050    0.7750   -1.3020 C   0  0  0  0  0  0  0  0  0  0  0  0
   -2.7370    0.7180   -1.4890 N   0  0  0  0  0  0  0  0  0  0  0  0
  1  2  1  0
  2  3  1  0
  3  4  2  0
  3 19  1  0
  4  5  1  0
  5  6  1  0
  5 18  2  0
  6  7  2  0
  6  8  1  0
  8  9  1  0
  9 10  2  0
  9 16  1  0
 10 11  1  0
 11 12  1  0
 11 13  2  0
 13 14  1  0
 13 15  1  0
 15 16  2  0
 16 17  1  0
 18 19  1  0
M  END
