
     RDKit          3D

 19 20  0  0  0  0  0  0  0  0999 V2000
    0.0090   -0.9670   -0.3950 O   0  0  0  0  0  0  0  0  0  0  0  0
   -0.0250    0.1640    0.1180 C   0  0  0  0  0  0  0  0  0  0  0  0
   -1.2730    0.7920    0.3760 N   0  0  0  0  0  0  0  0  0  0  0  0
   -2.5250    0.2110    0.0880 C   0  0  0  0  0  0  0  0  0  0  0  0
   -2.7810   -1.0750   -0.2700 C   0  0  0  0  0  0  0  0  0  0  0  0
   -4.0750   -1.5430   -0.5480 C   0  0  0  0  0  0  0  0  0  0  0  0
   -5.1600   -0.7160   -0.4720 C   0  0  0  0  0  0  0  0  0  0  0  0
   -6.7620   -1.3250   -0.8240 Cl  0  0  0  0  0  0  0  0  0  0  0  0
   -4.9240    0.5900   -0.1110 C   0  0  0  0  0  0  0  0  0  0  0  0
   -3.6530    1.0430    0.1610 C   0  0  0  0  0  0  0  0  0  0  0  0
    1.1940    0.8550    0.4600 N   0  0  0  0  0  0  0  0  0  0  0  0
    2.4890    0.3260    0.2540 C   0  0  0  0  0  0  0  0  0  0  0  0
    2.7960   -0.9580   -0.0880 C   0  0  0  0  0  0  0  0  0  0  0  0
    4.1410   -1.3040   -0.2690 C   0  0  0  0  0  0  0  0  0  0  0  0
    5.1320   -0.3840   -0.1080 C   0  0  0  0  0  0  0  0  0  0  0  0
    6.8150   -0.8080   -0.3310 Cl  0  0  0  0  0  0  0  0  0  0  0  0
    4.8500    0.9280    0.2390 C   0  0  0  0  0  0  0  0  0  0  0  0
    6.1350    2.0840    0.4390 Cl  0  0  0  0  0  0  0  0  0  0  0  0
    3.5280    1.2490    0.4120 C   0  0  0  0  0  0  0  0  0  0  0  0
  1  2  2  0
  2  3  1  0
  2 11  1  0
  3  4  1  0
  4  5  2  0
  4 10  1  0
  5  6  1  0
  6  7  2  0
  7  8  1  0
  7  9  1  0
  9 10  2  0
 11 12  1  0
 12 13  2  0
 12 19  1  0
 13 14  1  0
 14 15  2  0
 15 16  1  0
 15 17  1  0
 17 18  1  0
 17 19  2  0
M  END
