
     RDKit          3D

 31 35  0  0  0  0  0  0  0  0999 V2000
   -2.4460    0.7970   -0.0700 O   0  0  0  0  0  0  0  0  0  0  0  0
   -1.1890    1.0310   -0.0630 C   0  0  0  0  0  0  0  0  0  0  0  0
   -0.8240    2.3830   -0.1160 N   0  0  0  0  0  0  0  0  0  0  0  0
   -1.7980    3.4680   -0.1750 C   0  0  0  0  0  0  0  0  0  0  0  0
   -2.7010    3.4770    1.0160 C   0  0  2  0  0  0  0  0  0  0  0  0
   -3.7600    4.5670    1.0590 C   0  0  0  0  0  0  0  0  0  0  0  0
   -2.5740    4.6430    1.9490 C   0  0  0  0  0  0  0  0  0  0  0  0
   -0.3340   -0.0950   -0.0020 N   0  0  0  0  0  0  0  0  0  0  0  0
   -0.8740   -1.4100    0.0590 C   0  0  0  0  0  0  0  0  0  0  0  0
   -0.1150   -2.3900    0.1280 O   0  0  0  0  0  0  0  0  0  0  0  0
   -2.3080   -1.6630    0.0440 C   0  0  0  0  0  0  0  0  0  0  0  0
   -2.9890   -1.7130    1.2400 C   0  0  0  0  0  0  0  0  0  0  0  0
   -4.3100   -1.9460    1.2320 N   0  0  0  0  0  0  0  0  0  0  0  0
   -4.9960   -2.1340    0.0710 C   0  0  0  0  0  0  0  0  0  0  0  0
   -4.3720   -2.0930   -1.1130 N   0  0  0  0  0  0  0  0  0  0  0  0
   -3.0260   -1.8570   -1.1110 C   0  0  0  0  0  0  0  0  0  0  0  0
   -2.4420   -1.8180   -2.2080 O   0  0  0  0  0  0  0  0  0  0  0  0
   -5.3170   -2.3200   -2.1430 C   0  0  0  0  0  0  0  0  0  0  0  0
   -6.5220   -2.5030   -1.6520 C   0  0  0  0  0  0  0  0  0  0  0  0
   -6.4210   -2.3990   -0.1790 C   0  0  0  0  0  0  0  0  0  0  0  0
    1.0780    0.0700    0.0110 C   0  0  1  0  0  0  0  0  0  0  0  0
    1.7730   -0.5910    1.1650 C   0  0  0  0  0  0  0  0  0  0  0  0
    3.0320   -1.2610    0.6020 C   0  0  0  0  0  0  0  0  0  0  0  0
    3.2060   -0.5110   -0.6840 C   0  0  1  0  0  0  0  0  0  0  0  0
    4.4030   -1.1750   -1.8090 S   0  0  0  0  0  0  0  0  0  0  0  0
    6.0310   -0.9870   -1.1200 C   0  0  0  0  0  0  0  0  0  0  0  0
    7.1330   -1.4410   -1.6870 C   0  0  0  0  0  0  0  0  0  0  0  0
    8.2860   -1.0990   -0.8250 C   0  0  0  0  0  0  0  0  0  0  0  0
    7.7050   -0.3900    0.3110 C   0  0  0  0  0  0  0  0  0  0  0  0
    6.3980   -0.3350    0.1230 C   0  0  0  0  0  0  0  0  0  0  0  0
    1.7810   -0.5390   -1.2140 C   0  0  0  0  0  0  0  0  0  0  0  0
  1  2  2  0
  2  3  1  0
  2  8  1  0
  3  4  1  0
  5  4  1  6
  5  6  1  0
  5  7  1  0
  6  7  1  0
  8  9  1  0
 21  8  1  6
  9 10  2  0
  9 11  1  0
 11 12  2  0
 11 16  1  0
 12 13  1  0
 13 14  2  0
 14 15  1  0
 14 20  1  0
 15 16  1  0
 15 18  1  0
 16 17  2  0
 18 19  2  0
 19 20  1  0
 21 22  1  0
 21 31  1  0
 22 23  1  0
 23 24  1  0
 24 25  1  6
 24 31  1  0
 25 26  1  0
 26 27  2  0
 26 30  1  0
 27 28  1  0
 28 29  1  0
 29 30  2  0
M  END
