
     RDKit          3D

 31 35  0  0  0  0  0  0  0  0999 V2000
   -8.0640    0.7970    1.3570 C   0  0  0  0  0  0  0  0  0  0  0  0
   -6.7240    0.3350    0.9350 C   0  0  0  0  0  0  0  0  0  0  0  0
   -5.6290    1.1900    0.9770 C   0  0  0  0  0  0  0  0  0  0  0  0
   -4.3930    0.7310    0.5780 C   0  0  0  0  0  0  0  0  0  0  0  0
   -4.1890   -0.5490    0.1350 C   0  0  0  0  0  0  0  0  0  0  0  0
   -5.2880   -1.3810    0.1020 C   0  0  0  0  0  0  0  0  0  0  0  0
   -6.5420   -0.9640    0.4910 C   0  0  0  0  0  0  0  0  0  0  0  0
   -7.7000   -1.8660    0.4470 C   0  0  0  0  0  0  0  0  0  0  0  0
   -8.8380   -1.5270    0.7880 O   0  0  0  0  0  0  0  0  0  0  0  0
   -7.4940   -3.1610    0.0010 O   0  0  0  0  0  0  0  0  0  0  0  0
   -2.8630   -1.0570   -0.2980 C   0  0  0  0  0  0  0  0  0  0  0  0
   -1.8960   -0.0060   -0.4410 N   0  0  0  0  0  0  0  0  0  0  0  0
   -0.4930   -0.2300   -0.4250 C   0  0  0  0  0  0  0  0  0  0  0  0
    0.5140    0.7030   -0.5530 C   0  0  0  0  0  0  0  0  0  0  0  0
    1.7070    0.0310   -0.4790 C   0  0  0  0  0  0  0  0  0  0  0  0
    3.1050    0.5590   -0.5600 C   0  0  1  0  0  0  0  0  0  0  0  0
    3.7720    0.2540    0.7340 C   0  0  0  0  0  0  0  0  0  0  0  0
    4.8890   -0.7570    0.5900 C   0  0  0  0  0  0  0  0  0  0  0  0
    5.7750   -0.2480   -0.4220 N   0  0  0  0  0  0  0  0  0  0  0  0
    7.1180    0.0220   -0.0990 C   0  0  0  0  0  0  0  0  0  0  0  0
    8.0280    0.5180   -1.0240 C   0  0  0  0  0  0  0  0  0  0  0  0
    9.3080    0.7710   -0.7010 N   0  0  0  0  0  0  0  0  0  0  0  0
    9.7460    0.5480    0.5390 N   0  0  0  0  0  0  0  0  0  0  0  0
    8.8800    0.0660    1.4580 C   0  0  0  0  0  0  0  0  0  0  0  0
    7.5950   -0.1900    1.1410 N   0  0  0  0  0  0  0  0  0  0  0  0
    5.2450   -0.0320   -1.7410 C   0  0  0  0  0  0  0  0  0  0  0  0
    3.7390   -0.0360   -1.7720 C   0  0  0  0  0  0  0  0  0  0  0  0
    1.4330   -1.2400   -0.3160 O   0  0  0  0  0  0  0  0  0  0  0  0
    0.1410   -1.4160   -0.2810 N   0  0  0  0  0  0  0  0  0  0  0  0
   -2.3860    1.3470   -0.6070 C   0  0  0  0  0  0  0  0  0  0  0  0
   -3.2360    1.6570    0.6280 C   0  0  0  0  0  0  0  0  0  0  0  0
  1  2  1  0
  2  3  2  0
  2  7  1  0
  3  4  1  0
  4  5  2  0
  4 31  1  0
  5  6  1  0
  5 11  1  0
  6  7  2  0
  7  8  1  0
  8  9  2  0
  8 10  1  0
 11 12  1  0
 12 13  1  0
 12 30  1  0
 13 14  1  0
 13 29  2  0
 14 15  2  0
 16 15  1  1
 15 28  1  0
 16 17  1  0
 16 27  1  0
 17 18  1  0
 18 19  1  0
 19 20  1  0
 19 26  1  0
 20 21  2  0
 20 25  1  0
 21 22  1  0
 22 23  2  0
 23 24  1  0
 24 25  2  0
 26 27  1  0
 28 29  1  0
 30 31  1  0
M  END
