
     RDKit          3D

 31 35  0  0  0  0  0  0  0  0999 V2000
   -8.0440    0.6970   -0.2030 C   0  0  0  0  0  0  0  0  0  0  0  0
   -7.3740    0.4730   -1.5640 C   0  0  0  0  0  0  0  0  0  0  0  0
   -6.0610   -0.1020   -1.3480 N   0  0  0  0  0  0  0  0  0  0  0  0
   -5.8160   -1.5020   -1.2820 C   0  0  0  0  0  0  0  0  0  0  0  0
   -6.6410   -2.4510   -1.3660 O   0  0  0  0  0  0  0  0  0  0  0  0
   -4.3560   -1.7010   -1.0860 C   0  0  0  0  0  0  0  0  0  0  0  0
   -3.9700   -0.3880   -0.3940 C   0  0  1  0  0  0  0  0  0  0  0  0
   -4.4170   -0.4730    1.0220 C   0  0  0  0  0  0  0  0  0  0  0  0
   -3.3100   -0.2620    2.0310 C   0  0  0  0  0  0  0  0  0  0  0  0
   -2.5730    1.0100    1.5860 C   0  0  0  0  0  0  0  0  0  0  0  0
   -1.8830    0.6480    0.3810 N   0  0  0  0  0  0  0  0  0  0  0  0
   -0.5750    1.1130    0.1440 C   0  0  0  0  0  0  0  0  0  0  0  0
    0.0860    0.8320   -0.8930 O   0  0  0  0  0  0  0  0  0  0  0  0
    0.0730    1.9800    1.1570 C   0  0  0  0  0  0  0  0  0  0  0  0
    1.7450    2.4510    0.6540 S   0  0  0  0  0  0  0  0  0  0  0  0
    2.7990    0.9850    0.6210 C   0  0  0  0  0  0  0  0  0  0  0  0
    2.4320   -0.2730    0.9180 N   0  0  0  0  0  0  0  0  0  0  0  0
    3.4730   -1.0910    0.7840 N   0  0  0  0  0  0  0  0  0  0  0  0
    4.5660   -0.4040    0.3940 C   0  0  0  0  0  0  0  0  0  0  0  0
    4.1350    0.9180    0.2910 C   0  0  0  0  0  0  0  0  0  0  0  0
    4.9360    2.1050   -0.1060 C   0  0  0  0  0  0  0  0  0  0  0  0
    6.0460    1.7150   -1.0750 C   0  0  0  0  0  0  0  0  0  0  0  0
    7.2720    1.2030   -0.3380 C   0  0  0  0  0  0  0  0  0  0  0  0
    7.1040   -0.2650   -0.1780 C   0  0  0  0  0  0  0  0  0  0  0  0
    8.0960   -1.1530   -0.3230 C   0  0  0  0  0  0  0  0  0  0  0  0
    7.5980   -2.5170   -0.0990 C   0  0  0  0  0  0  0  0  0  0  0  0
    6.1490   -2.2830    0.2010 C   0  0  0  0  0  0  0  0  0  0  0  0
    5.8820   -0.9890    0.1520 C   0  0  0  0  0  0  0  0  0  0  0  0
   -2.5040   -0.1910   -0.6050 C   0  0  0  0  0  0  0  0  0  0  0  0
   -4.8060    0.5710   -1.1660 C   0  0  0  0  0  0  0  0  0  0  0  0
   -4.5700    1.7070   -1.5990 O   0  0  0  0  0  0  0  0  0  0  0  0
  1  2  1  0
  2  3  1  0
  3  4  1  0
  3 30  1  0
  4  5  2  0
  4  6  1  0
  7  6  1  6
  7  8  1  0
  7 29  1  0
  7 30  1  0
  8  9  1  0
  9 10  1  0
 10 11  1  0
 11 12  1  0
 11 29  1  0
 12 13  2  0
 12 14  1  0
 14 15  1  0
 15 16  1  0
 16 17  1  0
 16 20  2  0
 17 18  1  0
 18 19  2  0
 19 20  1  0
 19 28  1  0
 20 21  1  0
 21 22  1  0
 22 23  1  0
 23 24  1  0
 24 25  2  0
 24 28  1  0
 25 26  1  0
 26 27  1  0
 27 28  2  0
 30 31  2  0
M  END
