
     RDKit          3D

 31 35  0  0  0  0  0  0  0  0999 V2000
   -4.9260    5.5720   -0.5510 C   0  0  0  0  0  0  0  0  0  0  0  0
   -4.2920    4.2380   -0.3930 C   0  0  0  0  0  0  0  0  0  0  0  0
   -3.9660    3.4620    0.6700 C   0  0  0  0  0  0  0  0  0  0  0  0
   -3.3790    2.2660    0.4240 C   0  0  0  0  0  0  0  0  0  0  0  0
   -3.1430    1.8910   -0.8040 C   0  0  0  0  0  0  0  0  0  0  0  0
   -2.5110    0.6240   -1.2920 N   0  0  0  0  0  0  0  0  0  0  0  0
   -3.4410   -0.3440   -1.6710 C   0  0  0  0  0  0  0  0  0  0  0  0
   -3.9120   -1.2830   -0.5820 C   0  0  1  0  0  0  0  0  0  0  0  0
   -2.8390   -1.9880    0.1630 C   0  0  0  0  0  0  0  0  0  0  0  0
   -3.6010   -2.4690    1.4090 C   0  0  0  0  0  0  0  0  0  0  0  0
   -4.7830   -1.5560    1.4040 C   0  0  0  0  0  0  0  0  0  0  0  0
   -4.5440   -0.5770    0.4490 O   0  0  0  0  0  0  0  0  0  0  0  0
   -1.1380    0.6420   -1.2660 C   0  0  0  0  0  0  0  0  0  0  0  0
   -0.5760    1.7560   -0.8060 O   0  0  0  0  0  0  0  0  0  0  0  0
   -0.1360   -0.3410   -1.6530 C   0  0  0  0  0  0  0  0  0  0  0  0
   -0.4280   -1.5820   -2.1610 C   0  0  0  0  0  0  0  0  0  0  0  0
    0.5940   -2.4710   -2.5120 C   0  0  0  0  0  0  0  0  0  0  0  0
    1.8730   -2.1070   -2.3510 N   0  0  0  0  0  0  0  0  0  0  0  0
    2.2310   -0.9280   -1.8660 C   0  0  0  0  0  0  0  0  0  0  0  0
    3.5600   -0.5840   -1.7120 O   0  0  0  0  0  0  0  0  0  0  0  0
    4.2500   -0.7320   -0.5230 C   0  0  0  0  0  0  0  0  0  0  0  0
    3.6150   -1.2500    0.5830 C   0  0  0  0  0  0  0  0  0  0  0  0
    4.2820   -1.4030    1.7640 N   0  0  0  0  0  0  0  0  0  0  0  0
    5.5790   -1.0540    1.8910 C   0  0  0  0  0  0  0  0  0  0  0  0
    6.2320   -0.5330    0.7950 C   0  0  0  0  0  0  0  0  0  0  0  0
    5.5670   -0.3720   -0.4110 C   0  0  0  0  0  0  0  0  0  0  0  0
    7.6450   -0.2360    1.2130 C   0  0  0  0  0  0  0  0  0  0  0  0
    7.5970   -0.2230    2.7260 C   0  0  0  0  0  0  0  0  0  0  0  0
    6.4920   -1.1140    3.0060 N   0  0  0  0  0  0  0  0  0  0  0  0
    1.2360   -0.0460   -1.5180 C   0  0  0  0  0  0  0  0  0  0  0  0
   -3.7230    3.1870   -1.7910 S   0  0  0  0  0  0  0  0  0  0  0  0
  1  2  1  0
  2  3  2  0
  2 31  1  0
  3  4  1  0
  4  5  2  0
  5  6  1  0
  5 31  1  0
  6  7  1  0
  6 13  1  0
  8  7  1  6
  8  9  1  0
  8 12  1  0
  9 10  1  0
 10 11  1  0
 11 12  1  0
 13 14  2  0
 13 15  1  0
 15 16  2  0
 15 30  1  0
 16 17  1  0
 17 18  2  0
 18 19  1  0
 19 20  1  0
 19 30  2  0
 20 21  1  0
 21 22  2  0
 21 26  1  0
 22 23  1  0
 23 24  2  0
 24 25  1  0
 24 29  1  0
 25 26  2  0
 25 27  1  0
 27 28  1  0
 28 29  1  0
M  END
