
     RDKit          3D

 31 35  0  0  0  0  0  0  0  0999 V2000
   -1.8190   -4.1120    1.7960 C   0  0  0  0  0  0  0  0  0  0  0  0
   -1.9010   -3.6120    0.0580 S   0  0  0  0  0  0  0  0  0  0  0  0
   -0.5420   -2.5560   -0.4150 C   0  0  0  0  0  0  0  0  0  0  0  0
   -0.5580   -1.1780    0.2280 C   0  0  2  0  0  0  0  0  0  0  0  0
   -1.7270   -0.3700   -0.0450 C   0  0  0  0  0  0  0  0  0  0  0  0
   -2.3740    0.1000    1.0290 C   0  0  0  0  0  0  0  0  0  0  0  0
   -1.8590   -0.2370    2.3740 C   0  0  0  0  0  0  0  0  0  0  0  0
   -3.5310    0.9400    1.0330 N   0  0  0  0  0  0  0  0  0  0  0  0
   -3.7860    1.6610    2.2380 C   0  0  0  0  0  0  0  0  0  0  0  0
   -4.4700    1.1560   -0.0430 C   0  0  0  0  0  0  0  0  0  0  0  0
   -5.7190    1.4640    0.4480 C   0  0  0  0  0  0  0  0  0  0  0  0
   -6.7030    1.7090   -0.4660 C   0  0  0  0  0  0  0  0  0  0  0  0
   -6.4560    1.6490   -1.8370 C   0  0  0  0  0  0  0  0  0  0  0  0
   -5.2010    1.3390   -2.3180 C   0  0  0  0  0  0  0  0  0  0  0  0
   -4.2130    1.0940   -1.3980 C   0  0  0  0  0  0  0  0  0  0  0  0
   -2.9630    0.7840   -1.9730 O   0  0  0  0  0  0  0  0  0  0  0  0
   -2.0440   -0.1650   -1.4690 C   0  0  0  0  0  0  0  0  0  0  0  0
   -1.4600   -0.8840   -2.3040 O   0  0  0  0  0  0  0  0  0  0  0  0
    0.7420   -0.5440   -0.1900 C   0  0  0  0  0  0  0  0  0  0  0  0
    1.9180   -0.9600    0.3680 N   0  0  0  0  0  0  0  0  0  0  0  0
    2.9090   -0.2230   -0.1630 C   0  0  0  0  0  0  0  0  0  0  0  0
    2.3170    0.6490   -1.0540 C   0  0  0  0  0  0  0  0  0  0  0  0
    0.9910    0.4390   -1.0580 N   0  0  0  0  0  0  0  0  0  0  0  0
    3.3950    1.4420   -1.6240 C   0  0  0  0  0  0  0  0  0  0  0  0
    3.4010    2.0970   -2.7000 O   0  0  0  0  0  0  0  0  0  0  0  0
    4.5290    1.3260   -0.6540 C   0  0  2  0  0  0  0  0  0  0  0  0
    5.8540    1.4980   -1.3180 C   0  0  0  0  0  0  0  0  0  0  0  0
    6.9240    0.9600   -0.3630 C   0  0  0  0  0  0  0  0  0  0  0  0
    6.7230   -0.5230   -0.2870 C   0  0  0  0  0  0  0  0  0  0  0  0
    5.3810   -0.8920    0.2810 C   0  0  0  0  0  0  0  0  0  0  0  0
    4.3300   -0.0190   -0.1400 N   0  0  0  0  0  0  0  0  0  0  0  0
  1  2  1  0
  2  3  1  0
  4  3  1  6
  4  5  1  0
  4 19  1  0
  5  6  2  0
  5 17  1  0
  6  7  1  0
  6  8  1  0
  8  9  1  0
  8 10  1  0
 10 11  2  0
 10 15  1  0
 11 12  1  0
 12 13  2  0
 13 14  1  0
 14 15  2  0
 15 16  1  0
 16 17  1  0
 17 18  2  0
 19 20  2  0
 19 23  1  0
 20 21  1  0
 21 22  2  0
 21 31  1  0
 22 23  1  0
 22 24  1  0
 24 25  2  0
 24 26  1  0
 26 27  1  6
 26 31  1  0
 27 28  1  0
 28 29  1  0
 29 30  1  0
 30 31  1  0
M  END
