
     RDKit          3D

 31 35  0  0  0  0  0  0  0  0999 V2000
    8.5630   -0.4940   -0.3950 C   0  0  0  0  0  0  0  0  0  0  0  0
    8.4650    0.8460    0.2780 C   0  0  0  0  0  0  0  0  0  0  0  0
    7.3080    0.9470    1.2100 C   0  0  0  0  0  0  0  0  0  0  0  0
    5.9410    0.8610    0.6150 C   0  0  1  0  0  0  0  0  0  0  0  0
    5.6310    1.9650   -0.3630 C   0  0  0  0  0  0  0  0  0  0  0  0
    5.7180    0.4550   -0.7620 C   0  0  2  0  0  0  0  0  0  0  0  0
    4.3680   -0.0940   -1.1750 C   0  0  0  0  0  0  0  0  0  0  0  0
    4.0950   -0.7550   -2.3090 N   0  0  0  0  0  0  0  0  0  0  0  0
    2.8360   -1.0690   -2.3150 O   0  0  0  0  0  0  0  0  0  0  0  0
    2.2240   -0.6490   -1.2220 C   0  0  0  0  0  0  0  0  0  0  0  0
    0.8380   -0.8040   -0.8610 C   0  0  0  0  0  0  0  0  0  0  0  0
    0.3650   -0.3030    0.3220 C   0  0  0  0  0  0  0  0  0  0  0  0
   -0.9810   -0.4460    0.6840 C   0  0  0  0  0  0  0  0  0  0  0  0
   -1.8400   -1.1030   -0.1660 C   0  0  0  0  0  0  0  0  0  0  0  0
   -3.2230   -1.2680    0.1730 N   0  0  0  0  0  0  0  0  0  0  0  0
   -3.9570   -2.2780   -0.2290 N   0  0  0  0  0  0  0  0  0  0  0  0
   -5.1810   -2.1030    0.2740 C   0  0  0  0  0  0  0  0  0  0  0  0
   -6.1310   -2.9080    0.0700 O   0  0  0  0  0  0  0  0  0  0  0  0
   -5.1950   -0.9730    0.9920 N   0  0  0  0  0  0  0  0  0  0  0  0
   -6.3620   -0.4500    1.6960 C   0  0  0  0  0  0  0  0  0  0  0  0
   -7.0940    0.4410    0.7560 C   0  0  0  0  0  0  0  0  0  0  0  0
   -8.0820   -0.0350   -0.0740 C   0  0  0  0  0  0  0  0  0  0  0  0
   -8.7360    0.8110   -0.9260 C   0  0  0  0  0  0  0  0  0  0  0  0
   -8.3960    2.1520   -0.9490 C   0  0  0  0  0  0  0  0  0  0  0  0
   -7.4050    2.5680   -0.1010 C   0  0  0  0  0  0  0  0  0  0  0  0
   -6.7610    1.7390    0.7380 N   0  0  0  0  0  0  0  0  0  0  0  0
   -3.9610   -0.4610    0.9190 C   0  0  0  0  0  0  0  0  0  0  0  0
   -3.6030    0.6220    1.4880 O   0  0  0  0  0  0  0  0  0  0  0  0
   -1.3760   -1.6120   -1.3610 C   0  0  0  0  0  0  0  0  0  0  0  0
   -0.0220   -1.4570   -1.7040 C   0  0  0  0  0  0  0  0  0  0  0  0
    3.2090   -0.0330   -0.5080 N   0  0  0  0  0  0  0  0  0  0  0  0
  1  2  1  0
  2  3  1  0
  4  3  1  6
  4  5  1  0
  4  6  1  0
  5  6  1  0
  6  7  1  1
  7  8  2  0
  7 31  1  0
  8  9  1  0
  9 10  1  0
 10 11  1  0
 10 31  2  0
 11 12  2  0
 11 30  1  0
 12 13  1  0
 13 14  2  0
 14 15  1  0
 14 29  1  0
 15 16  1  0
 15 27  1  0
 16 17  1  0
 17 18  2  0
 17 19  1  0
 19 20  1  0
 19 27  1  0
 20 21  1  0
 21 22  2  0
 21 26  1  0
 22 23  1  0
 23 24  2  0
 24 25  1  0
 25 26  2  0
 27 28  2  0
 29 30  2  0
M  END
