
     RDKit          3D

 35 36  0  0  0  0  0  0  0  0999 V2000
   -2.9300   -2.0290   -3.5200 O   0  0  0  0  0  0  0  0  0  0  0  0
   -3.3440   -1.7730   -2.0250 P   0  0  0  0  0  0  0  0  0  0  0  0
   -1.9880   -1.6260   -0.7150 C   0  0  2  0  0  0  0  0  0  0  0  0
   -0.9290   -2.5910   -1.1630 C   0  0  0  0  0  0  0  0  0  0  0  0
   -1.5920   -3.9360   -1.1960 C   0  0  0  0  0  0  0  0  0  0  0  0
   -2.3720   -4.2660   -2.1210 O   0  0  0  0  0  0  0  0  0  0  0  0
   -1.3640   -4.8690   -0.1960 O   0  0  0  0  0  0  0  0  0  0  0  0
   -2.6060   -2.2170    0.5510 C   0  0  0  0  0  0  0  0  0  0  0  0
   -3.6750   -0.9120    1.3430 P   0  0  0  0  0  0  0  0  0  0  0  0
   -5.1780   -1.6040    1.9130 O   0  0  0  0  0  0  0  0  0  0  0  0
   -3.9430    0.3600    0.2200 O   0  0  0  0  0  0  0  0  0  0  0  0
   -3.8360    1.5990    0.7860 C   0  0  0  0  0  0  0  0  0  0  0  0
   -2.6170    1.8140    1.5990 C   0  0  0  0  0  0  0  0  0  0  0  0
   -2.1340    0.8140    2.1860 O   0  0  0  0  0  0  0  0  0  0  0  0
   -1.9590    3.0630    1.7620 N   0  0  0  0  0  0  0  0  0  0  0  0
   -1.7030    4.0040    0.7650 N   0  0  0  0  0  0  0  0  0  0  0  0
   -0.9350    3.8090   -0.4080 C   0  0  0  0  0  0  0  0  0  0  0  0
   -1.5080    4.1750   -1.5000 O   0  0  0  0  0  0  0  0  0  0  0  0
    0.3670    3.2740   -0.5470 N   0  0  0  0  0  0  0  0  0  0  0  0
    0.9350    2.1400    0.0270 C   0  0  0  0  0  0  0  0  0  0  0  0
    1.9050    2.3190    0.8610 O   0  0  0  0  0  0  0  0  0  0  0  0
    0.6130    0.7040   -0.1550 C   0  0  2  0  0  0  0  0  0  0  0  0
    1.7100    0.1590   -1.0880 C   0  0  0  0  0  0  0  0  0  0  0  0
    3.0270    0.3040   -0.5820 N   0  0  0  0  0  0  0  0  0  0  0  0
    3.7580   -0.6250    0.2530 C   0  0  0  0  0  0  0  0  0  0  0  0
    5.2040   -0.1860    0.1260 C   0  0  2  0  0  0  0  0  0  0  0  0
    6.0630   -0.5920    1.2340 C   0  0  0  0  0  0  0  0  0  0  0  0
    6.5780    0.2530    2.0150 O   0  0  0  0  0  0  0  0  0  0  0  0
    6.3290   -1.9130    1.4480 O   0  0  0  0  0  0  0  0  0  0  0  0
    5.0340    1.2380    0.0490 O   0  0  0  0  0  0  0  0  0  0  0  0
    3.9150    1.3950   -0.7850 C   0  0  0  0  0  0  0  0  0  0  0  0
    3.7870    2.3920   -1.5760 O   0  0  0  0  0  0  0  0  0  0  0  0
   -0.6490    0.5010   -0.9150 C   0  0  0  0  0  0  0  0  0  0  0  0
   -0.7050    1.2400   -1.9700 O   0  0  0  0  0  0  0  0  0  0  0  0
   -1.6740   -0.3060   -0.6520 O   0  0  0  0  0  0  0  0  0  0  0  0
  1  2  2  0
  2  3  1  0
  3  4  1  6
  3  8  1  0
  3 35  1  0
  4  5  1  0
  5  6  2  0
  5  7  1  0
  8  9  1  0
  9 10  1  0
  9 11  1  0
 11 12  1  0
 12 13  1  0
 13 14  2  0
 13 15  1  0
 15 16  1  0
 16 17  1  0
 17 18  2  0
 17 19  1  0
 19 20  1  0
 20 21  2  0
 20 22  1  0
 22 23  1  6
 22 33  1  0
 23 24  1  0
 24 25  1  0
 24 31  1  0
 25 26  1  0
 26 27  1  1
 26 30  1  0
 27 28  2  0
 27 29  1  0
 30 31  1  0
 31 32  2  0
 33 34  2  0
 33 35  1  0
M  END
