
     RDKit          3D

 35 37  0  0  0  0  0  0  0  0999 V2000
   -3.7970   -3.9110   -1.0800 O   0  0  0  0  0  0  0  0  0  0  0  0
   -3.8450   -2.7080   -0.6870 C   0  0  0  0  0  0  0  0  0  0  0  0
   -3.4900   -1.6600   -1.7100 C   0  0  0  0  0  0  0  0  0  0  0  0
   -2.0760   -1.9960   -2.1430 C   0  0  0  0  0  0  0  0  0  0  0  0
   -1.2230   -2.3060   -1.0680 O   0  0  0  0  0  0  0  0  0  0  0  0
   -0.8140   -1.4480   -0.0810 C   0  0  0  0  0  0  0  0  0  0  0  0
   -0.9010   -1.7510    1.1370 O   0  0  0  0  0  0  0  0  0  0  0  0
   -0.2470   -0.1170   -0.3940 C   0  0  2  0  0  0  0  0  0  0  0  0
    1.2110   -0.0880   -0.3720 N   0  0  0  0  0  0  0  0  0  0  0  0
    2.0400   -1.2200   -0.5800 C   0  0  0  0  0  0  0  0  0  0  0  0
    1.5100   -2.3790   -0.6990 O   0  0  0  0  0  0  0  0  0  0  0  0
    3.4330   -1.1310   -0.6650 N   0  0  0  0  0  0  0  0  0  0  0  0
    4.2250   -2.3570   -0.8510 C   0  0  0  0  0  0  0  0  0  0  0  0
    5.6710   -2.0700   -1.0730 C   0  0  0  0  0  0  0  0  0  0  0  0
    6.4170   -1.0870    0.2770 P   0  0  0  0  0  0  0  0  0  0  0  0
    6.9580    0.4480   -0.4080 O   0  0  0  0  0  0  0  0  0  0  0  0
    5.3160   -0.8150    1.5970 O   0  0  0  0  0  0  0  0  0  0  0  0
    1.7630    1.1950   -0.0330 C   0  0  0  0  0  0  0  0  0  0  0  0
    2.6990    1.6840   -0.6660 O   0  0  0  0  0  0  0  0  0  0  0  0
    1.1790    1.9360    1.1210 C   0  0  0  0  0  0  0  0  0  0  0  0
    0.1870    1.0580    1.6460 O   0  0  0  0  0  0  0  0  0  0  0  0
   -0.7880    0.8630    0.6430 C   0  0  1  0  0  0  0  0  0  0  0  0
   -0.9640    2.2270    0.0620 C   0  0  0  0  0  0  0  0  0  0  0  0
   -0.6670    2.7580   -1.1090 N   0  0  0  0  0  0  0  0  0  0  0  0
   -1.0500    4.0460   -1.0960 C   0  0  0  0  0  0  0  0  0  0  0  0
   -0.9750    5.0340   -2.0400 O   0  0  0  0  0  0  0  0  0  0  0  0
   -1.5850    4.2550    0.1260 N   0  0  0  0  0  0  0  0  0  0  0  0
   -1.5240    3.1690    0.7920 O   0  0  0  0  0  0  0  0  0  0  0  0
   -1.9370    0.3920    1.2190 O   0  0  0  0  0  0  0  0  0  0  0  0
   -2.1870    0.7380    2.5050 C   0  0  0  0  0  0  0  0  0  0  0  0
   -3.6690    0.9050    2.7930 C   0  0  0  0  0  0  0  0  0  0  0  0
   -4.2600   -0.3530    2.6640 O   0  0  0  0  0  0  0  0  0  0  0  0
   -4.4640   -0.6900    0.9920 P   0  0  0  0  0  0  0  0  0  0  0  0
   -5.9580   -0.1000    0.3430 O   0  0  0  0  0  0  0  0  0  0  0  0
   -4.2000   -2.3750    0.6030 O   0  0  0  0  0  0  0  0  0  0  0  0
  1  2  2  0
  2  3  1  0
  2 35  1  0
  3  4  1  0
  4  5  1  0
  5  6  1  0
  6  7  2  0
  6  8  1  0
  8  9  1  1
  8 22  1  0
  9 10  1  0
  9 18  1  0
 10 11  2  0
 10 12  1  0
 12 13  1  0
 13 14  1  0
 14 15  1  0
 15 16  1  0
 15 17  1  0
 18 19  2  0
 18 20  1  0
 20 21  1  0
 21 22  1  0
 22 23  1  6
 22 29  1  0
 23 24  2  0
 23 28  1  0
 24 25  1  0
 25 26  1  0
 25 27  2  0
 27 28  1  0
 29 30  1  0
 30 31  1  0
 31 32  1  0
 32 33  1  0
 33 34  1  0
 33 35  1  0
M  END
