
     RDKit          3D

 35 38  0  0  0  0  0  0  0  0999 V2000
   -2.2300    2.1600    1.4210 O   0  0  0  0  0  0  0  0  0  0  0  0
   -2.9680    1.1100    1.3820 C   0  0  0  0  0  0  0  0  0  0  0  0
   -4.2930    1.2740    1.8470 N   0  0  0  0  0  0  0  0  0  0  0  0
   -4.8610    2.8930    2.4460 P   0  0  0  0  0  0  0  0  0  0  0  0
   -5.7140    3.6300    1.1140 O   0  0  0  0  0  0  0  0  0  0  0  0
   -3.4460    3.8180    2.8250 O   0  0  0  0  0  0  0  0  0  0  0  0
   -3.3510    4.8500    2.0040 O   0  0  0  0  0  0  0  0  0  0  0  0
   -2.4050   -0.1350    0.8860 C   0  0  0  0  0  0  0  0  0  0  0  0
   -3.1740   -1.2940    0.8040 N   0  0  0  0  0  0  0  0  0  0  0  0
   -3.9920   -1.6900   -0.2660 C   0  0  2  0  0  0  0  0  0  0  0  0
   -5.0240   -0.7070   -0.7620 C   0  0  0  0  0  0  0  0  0  0  0  0
   -6.2620   -0.9800   -0.2170 O   0  0  0  0  0  0  0  0  0  0  0  0
   -6.7550   -2.0360   -0.8810 O   0  0  0  0  0  0  0  0  0  0  0  0
   -6.5490   -3.1100   -0.1880 O   0  0  0  0  0  0  0  0  0  0  0  0
   -4.9070   -3.3060    0.2160 P   0  0  0  0  0  0  0  0  0  0  0  0
   -4.1230   -4.2730   -1.0000 O   0  0  0  0  0  0  0  0  0  0  0  0
   -2.9460   -3.6200   -1.0570 O   0  0  0  0  0  0  0  0  0  0  0  0
   -3.2740   -2.3240   -1.4490 C   0  0  0  0  0  0  0  0  0  0  0  0
   -1.1280   -0.1350    0.5450 C   0  0  0  0  0  0  0  0  0  0  0  0
   -0.4040   -1.2490    0.0530 N   0  0  0  0  0  0  0  0  0  0  0  0
    0.9940   -1.0970   -0.2880 C   0  0  0  0  0  0  0  0  0  0  0  0
    1.4670   -1.8510   -1.1700 O   0  0  0  0  0  0  0  0  0  0  0  0
    1.7260   -0.0560    0.4490 C   0  0  1  0  0  0  0  0  0  0  0  0
    3.0030    0.2360   -0.0630 O   0  0  0  0  0  0  0  0  0  0  0  0
    4.1700    0.1040    0.6530 C   0  0  0  0  0  0  0  0  0  0  0  0
    4.0990   -0.3000    1.8280 O   0  0  0  0  0  0  0  0  0  0  0  0
    5.3960    0.4380    0.0080 N   0  0  0  0  0  0  0  0  0  0  0  0
    5.4460    0.9050   -1.3630 C   0  0  0  0  0  0  0  0  0  0  0  0
    6.5130    0.1060   -2.0780 C   0  0  0  0  0  0  0  0  0  0  0  0
    7.7100    0.2300   -1.3950 O   0  0  0  0  0  0  0  0  0  0  0  0
    7.5940   -0.4690   -0.1900 C   0  0  0  0  0  0  0  0  0  0  0  0
    6.6750    0.3280    0.7070 C   0  0  0  0  0  0  0  0  0  0  0  0
    0.9080    1.1820    0.3480 C   0  0  0  0  0  0  0  0  0  0  0  0
    1.4150    2.2920   -0.0240 O   0  0  0  0  0  0  0  0  0  0  0  0
   -0.4300    1.0680    0.6790 O   0  0  0  0  0  0  0  0  0  0  0  0
  1  2  2  0
  2  3  1  0
  2  8  1  0
  3  4  1  0
  4  5  1  0
  4  6  1  0
  6  7  1  0
  8  9  1  0
  8 19  2  3
 10  9  1  1
 10 11  1  0
 10 15  1  0
 10 18  1  0
 11 12  1  0
 12 13  1  0
 13 14  1  0
 14 15  1  0
 15 16  1  0
 16 17  1  0
 17 18  1  0
 19 20  1  0
 19 35  1  0
 20 21  1  0
 21 22  2  0
 21 23  1  0
 23 24  1  6
 23 33  1  0
 24 25  1  0
 25 26  2  0
 25 27  1  0
 27 28  1  0
 27 32  1  0
 28 29  1  0
 29 30  1  0
 30 31  1  0
 31 32  1  0
 33 34  2  0
 33 35  1  0
M  END
