
     RDKit          3D

 34 36  0  0  0  0  0  0  0  0999 V2000
   -8.8800    2.9620   -0.8880 O   0  0  0  0  0  0  0  0  0  0  0  0
   -7.9650    2.2170   -0.4510 C   0  0  0  0  0  0  0  0  0  0  0  0
   -6.9130    1.7950   -1.2660 C   0  0  0  0  0  0  0  0  0  0  0  0
   -5.9240    0.9740   -0.7460 C   0  0  0  0  0  0  0  0  0  0  0  0
   -5.9300    0.5570    0.5290 N   0  0  0  0  0  0  0  0  0  0  0  0
   -4.9320   -0.2890    1.0900 C   0  0  2  0  0  0  0  0  0  0  0  0
   -3.6660    0.2880    1.1870 O   0  0  0  0  0  0  0  0  0  0  0  0
   -2.8670   -0.7540    1.6340 C   0  0  2  0  0  0  0  0  0  0  0  0
   -1.4170   -0.6250    1.2540 C   0  0  0  0  0  0  0  0  0  0  0  0
   -0.8260    0.5140    1.7470 O   0  0  0  0  0  0  0  0  0  0  0  0
    0.7360    0.7310    1.3770 P   0  0  0  0  0  0  0  0  0  0  0  0
    1.8360   -0.5350    1.5320 O   0  0  0  0  0  0  0  0  0  0  0  0
    1.3070    2.2290    0.9930 O   0  0  0  0  0  0  0  0  0  0  0  0
    0.5740    0.3850   -0.0960 O   0  0  0  0  0  0  0  0  0  0  0  0
    1.8410    0.1810   -1.1140 P   0  0  0  0  0  0  0  0  0  0  0  0
    1.3100    1.2060   -2.1070 O   0  0  0  0  0  0  0  0  0  0  0  0
    1.7520   -1.0370   -2.2530 O   0  0  0  0  0  0  0  0  0  0  0  0
    3.2590    0.9980   -0.9010 O   0  0  0  0  0  0  0  0  0  0  0  0
    4.3950    0.2950   -1.1690 C   0  0  1  0  0  0  0  0  0  0  0  0
    5.1150    0.7960   -2.2520 O   0  0  0  0  0  0  0  0  0  0  0  0
    6.0420   -0.1520   -2.6470 C   0  0  0  0  0  0  0  0  0  0  0  0
    6.8570   -0.7040   -1.5080 C   0  0  1  0  0  0  0  0  0  0  0  0
    8.2160   -0.7450   -1.8140 O   0  0  0  0  0  0  0  0  0  0  0  0
    6.6780    0.1970   -0.3070 C   0  0  2  0  0  0  0  0  0  0  0  0
    7.4130   -0.2860    0.7780 O   0  0  0  0  0  0  0  0  0  0  0  0
    5.2170    0.1620    0.0770 C   0  0  1  0  0  0  0  0  0  0  0  0
    4.9160    1.1840    1.0050 O   0  0  0  0  0  0  0  0  0  0  0  0
   -3.3910   -2.0230    0.9710 C   0  0  1  0  0  0  0  0  0  0  0  0
   -3.8470   -2.8580    1.9620 O   0  0  0  0  0  0  0  0  0  0  0  0
   -4.5950   -1.4990    0.2150 C   0  0  1  0  0  0  0  0  0  0  0  0
   -5.6230   -2.3990    0.1220 O   0  0  0  0  0  0  0  0  0  0  0  0
   -6.9590    0.9760    1.3040 C   0  0  0  0  0  0  0  0  0  0  0  0
   -6.9920    0.6000    2.5080 O   0  0  0  0  0  0  0  0  0  0  0  0
   -7.9330    1.7750    0.8210 N   0  0  0  0  0  0  0  0  0  0  0  0
  1  2  2  0
  2  3  1  0
  2 34  1  0
  3  4  2  0
  4  5  1  0
  6  5  1  6
  5 32  1  0
  6  7  1  0
  6 30  1  0
  7  8  1  0
  8  9  1  6
  8 28  1  0
  9 10  1  0
 10 11  1  0
 11 12  1  0
 11 13  1  0
 11 14  1  0
 14 15  1  0
 15 16  1  0
 15 17  1  0
 15 18  1  0
 19 18  1  1
 19 20  1  0
 19 26  1  0
 20 21  1  0
 21 22  1  0
 22 23  1  6
 22 24  1  0
 24 25  1  1
 24 26  1  0
 26 27  1  1
 28 29  1  1
 28 30  1  0
 30 31  1  1
 32 33  2  0
 32 34  1  0
M  END
