
     RDKit          3D

 35 37  0  0  0  0  0  0  0  0999 V2000
    2.9720    3.5250    1.0130 C   0  0  0  0  0  0  0  0  0  0  0  0
    1.8980    2.6350    1.4570 N   0  0  0  0  0  0  0  0  0  0  0  0
    2.3070    1.3600    2.0040 C   0  0  0  0  0  0  0  0  0  0  0  0
    3.2900    0.4420    0.7500 P   0  0  0  0  0  0  0  0  0  0  0  0
    4.8760    0.0320    1.3060 O   0  0  0  0  0  0  0  0  0  0  0  0
    2.3940   -0.9460    0.2490 O   0  0  0  0  0  0  0  0  0  0  0  0
    3.1760   -2.0660    0.0980 C   0  0  2  0  0  0  0  0  0  0  0  0
    3.8860   -2.1330   -1.0730 O   0  0  0  0  0  0  0  0  0  0  0  0
    4.2180   -3.4590   -1.0940 O   0  0  0  0  0  0  0  0  0  0  0  0
    3.0840   -4.1670   -0.6730 C   0  0  0  0  0  0  0  0  0  0  0  0
    2.3910   -3.3230    0.0850 C   0  0  0  0  0  0  0  0  0  0  0  0
    1.1140   -3.4990    0.8030 C   0  0  0  0  0  0  0  0  0  0  0  0
    1.0530   -4.6100    1.4520 O   0  0  0  0  0  0  0  0  0  0  0  0
    0.0850   -2.5790    0.7910 O   0  0  0  0  0  0  0  0  0  0  0  0
   -0.6070   -2.0880   -0.3280 C   0  0  1  0  0  0  0  0  0  0  0  0
   -0.9170   -3.1220   -1.3500 C   0  0  0  0  0  0  0  0  0  0  0  0
   -1.5260   -2.8540   -2.4020 O   0  0  0  0  0  0  0  0  0  0  0  0
   -0.5090   -4.4230   -1.1110 O   0  0  0  0  0  0  0  0  0  0  0  0
   -1.9240   -1.5680    0.1830 C   0  0  0  0  0  0  0  0  0  0  0  0
   -2.5320   -2.3510    0.9570 O   0  0  0  0  0  0  0  0  0  0  0  0
   -2.4740   -0.3100   -0.1520 N   0  0  0  0  0  0  0  0  0  0  0  0
   -3.8870   -0.1520   -0.2170 C   0  0  0  0  0  0  0  0  0  0  0  0
   -4.5390   -0.8780   -1.0570 N   0  0  0  0  0  0  0  0  0  0  0  0
   -4.6100    0.7540    0.5890 N   0  0  0  0  0  0  0  0  0  0  0  0
   -6.2850    1.1810    0.1620 P   0  0  0  0  0  0  0  0  0  0  0  0
   -7.2090    1.9940    1.1080 O   0  0  0  0  0  0  0  0  0  0  0  0
   -1.7120    0.8900   -0.4490 C   0  0  1  0  0  0  0  0  0  0  0  0
   -0.4390    0.9850    0.3170 C   0  0  0  0  0  0  0  0  0  0  0  0
   -0.4920    2.1230    1.1570 O   0  0  0  0  0  0  0  0  0  0  0  0
    0.5310    3.0040    1.3550 C   0  0  0  0  0  0  0  0  0  0  0  0
    0.2730    4.2320    1.4560 O   0  0  0  0  0  0  0  0  0  0  0  0
   -1.4260    0.8410   -1.8120 O   0  0  0  0  0  0  0  0  0  0  0  0
   -1.4030    2.1370   -2.2800 C   0  0  0  0  0  0  0  0  0  0  0  0
   -2.0430    2.9660   -1.1960 C   0  0  0  0  0  0  0  0  0  0  0  0
   -2.4620    2.0390   -0.2470 O   0  0  0  0  0  0  0  0  0  0  0  0
  1  2  1  0
  2  3  1  0
  2 30  1  0
  3  4  1  0
  4  5  1  0
  4  6  1  0
  7  6  1  6
  7  8  1  0
  7 11  1  0
  8  9  1  0
  9 10  1  0
 10 11  2  0
 11 12  1  0
 12 13  2  0
 12 14  1  0
 14 15  1  0
 15 16  1  6
 15 19  1  0
 16 17  2  0
 16 18  1  0
 19 20  2  0
 19 21  1  0
 21 22  1  0
 21 27  1  0
 22 23  2  0
 22 24  1  0
 24 25  1  0
 25 26  2  0
 27 28  1  1
 27 32  1  0
 27 35  1  0
 28 29  1  0
 29 30  1  0
 30 31  2  0
 32 33  1  0
 33 34  1  0
 34 35  1  0
M  END
