
     RDKit          3D

 43 44  0  0  0  0  0  0  0  0999 V2000
   -8.4080    3.1130   -1.9390 C   0  0  0  0  0  0  0  0  0  0  0  0
   -8.5710    1.9180   -1.0380 C   0  0  0  0  0  0  0  0  0  0  0  0
   -8.0250    2.1400    0.2230 O   0  0  0  0  0  0  0  0  0  0  0  0
   -8.2690    0.7220    1.2610 P   0  0  0  0  0  0  0  0  0  0  0  0
   -9.9990    0.1450    1.0710 C   0  0  0  0  0  0  0  0  0  0  0  0
  -10.0510   -1.1490    0.3930 C   0  0  0  0  0  0  0  0  0  0  0  0
   -9.0950   -1.9170   -0.0230 C   0  0  0  0  0  0  0  0  0  0  0  0
   -7.6830   -1.6570    0.0870 C   0  0  0  0  0  0  0  0  0  0  0  0
   -7.1390   -0.5600    0.6300 C   0  0  0  0  0  0  0  0  0  0  0  0
   -5.6860   -0.4720    0.6660 C   0  0  0  0  0  0  0  0  0  0  0  0
   -4.9310    0.4370    1.1730 C   0  0  0  0  0  0  0  0  0  0  0  0
   -5.3240    1.6380    1.8670 C   0  0  0  0  0  0  0  0  0  0  0  0
   -4.3870    2.4980    2.3210 C   0  0  0  0  0  0  0  0  0  0  0  0
   -4.7580    3.6390    2.9800 O   0  0  0  0  0  0  0  0  0  0  0  0
   -6.0010    3.8840    3.3780 O   0  0  0  0  0  0  0  0  0  0  0  0
   -4.9410   -1.5760    0.0210 N   0  0  0  0  0  0  0  0  0  0  0  0
   -4.4250   -1.4360   -1.2800 C   0  0  0  0  0  0  0  0  0  0  0  0
   -3.2690   -0.5120   -1.4730 C   0  0  0  0  0  0  0  0  0  0  0  0
   -2.0990   -0.9280   -0.7130 N   0  0  0  0  0  0  0  0  0  0  0  0
   -0.8590   -0.2390   -0.7210 C   0  0  0  0  0  0  0  0  0  0  0  0
   -0.7750    0.8000   -1.4250 O   0  0  0  0  0  0  0  0  0  0  0  0
    0.2650   -0.6840    0.0300 N   0  0  0  0  0  0  0  0  0  0  0  0
    1.5300   -0.0060    0.0330 C   0  0  1  0  0  0  0  0  0  0  0  0
    2.0340    0.5150    1.3140 C   0  0  0  0  0  0  0  0  0  0  0  0
    2.2930   -0.4340    2.4220 C   0  0  2  0  0  0  0  0  0  0  0  0
    1.1360   -1.2260    2.9180 C   0  0  0  0  0  0  0  0  0  0  0  0
    2.8090    0.4220    3.5990 C   0  0  0  0  0  0  0  0  0  0  0  0
    2.5800   -0.8590   -0.6040 C   0  0  0  0  0  0  0  0  0  0  0  0
    2.3160   -1.7370   -1.4690 O   0  0  0  0  0  0  0  0  0  0  0  0
    3.8780   -0.6920   -0.2390 O   0  0  0  0  0  0  0  0  0  0  0  0
    4.9800   -1.3920   -0.7250 C   0  0  2  0  0  0  0  0  0  0  0  0
    5.4990   -2.4110    0.2880 C   0  0  0  0  0  0  0  0  0  0  0  0
    6.3270   -1.8170    1.3570 C   0  0  0  0  0  0  0  0  0  0  0  0
    7.2890   -0.8380    0.8230 C   0  0  0  0  0  0  0  0  0  0  0  0
    8.4620   -0.7190    1.3250 O   0  0  0  0  0  0  0  0  0  0  0  0
    6.9360   -0.0030   -0.2630 N   0  0  0  0  0  0  0  0  0  0  0  0
    7.4230    1.3840   -0.3510 C   0  0  0  0  0  0  0  0  0  0  0  0
    8.7370    1.3750   -1.1000 C   0  0  0  0  0  0  0  0  0  0  0  0
    8.5770    0.8640   -2.3940 O   0  0  0  0  0  0  0  0  0  0  0  0
    9.8040    0.8540   -3.0710 C   0  0  0  0  0  0  0  0  0  0  0  0
    9.6270    0.3490   -4.3490 O   0  0  0  0  0  0  0  0  0  0  0  0
    9.1320   -0.9470   -4.3630 C   0  0  0  0  0  0  0  0  0  0  0  0
    6.0810   -0.5650   -1.2940 C   0  0  0  0  0  0  0  0  0  0  0  0
  1  2  1  0
  2  3  1  0
  3  4  1  0
  4  5  1  0
  4  9  1  0
  5  6  1  0
  6  7  2  0
  7  8  1  0
  8  9  2  0
  9 10  1  0
 10 11  2  3
 10 16  1  0
 11 12  1  0
 12 13  2  3
 13 14  1  0
 14 15  1  0
 16 17  1  0
 17 18  1  0
 18 19  1  0
 19 20  1  0
 20 21  2  0
 20 22  1  0
 22 23  1  0
 23 24  1  1
 23 28  1  0
 24 25  1  0
 25 26  1  1
 25 27  1  0
 28 29  2  0
 28 30  1  0
 31 30  1  1
 31 32  1  0
 31 43  1  0
 32 33  1  0
 33 34  1  0
 34 35  2  0
 34 36  1  0
 36 37  1  0
 36 43  1  0
 37 38  1  0
 38 39  1  0
 39 40  1  0
 40 41  1  0
 41 42  1  0
M  END
