
     RDKit          3D

 31 35  0  0  0  0  0  0  0  0999 V2000
   -1.3970    1.3480    2.1380 C   0  0  0  0  0  0  0  0  0  0  0  0
   -0.7170    0.5830    1.0490 C   0  0  0  0  0  0  0  0  0  0  0  0
    0.5320    0.1580    0.9000 N   0  0  0  0  0  0  0  0  0  0  0  0
    0.7190   -0.4290   -0.3040 N   0  0  0  0  0  0  0  0  0  0  0  0
    1.7210   -1.0070   -0.9210 C   0  0  0  0  0  0  0  0  0  0  0  0
    3.1540   -1.2040   -0.2830 C   0  0  0  0  0  0  0  0  0  0  0  0
    3.2140   -0.4500    0.8070 N   0  0  0  0  0  0  0  0  0  0  0  0
    4.3310   -0.1060    1.9560 S   0  0  2  0  0  0  0  0  0  0  0  0
    4.4880   -1.0210    3.1200 O   0  0  0  0  0  0  0  0  0  0  0  0
    3.6180    1.1570    2.7560 O   0  0  0  0  0  0  0  0  0  0  0  0
    5.7470    0.6040    1.3300 C   0  0  0  0  0  0  0  0  0  0  0  0
    5.5270    1.9260    0.5800 C   0  0  0  0  0  0  0  0  0  0  0  0
    7.0980    2.5090    0.1570 S   0  0  0  0  0  0  0  0  0  0  0  0
    8.0450    1.0960    0.9260 C   0  0  0  0  0  0  0  0  0  0  0  0
    9.4830    1.1340    0.8480 C   0  0  0  0  0  0  0  0  0  0  0  0
   10.7060    1.1840    0.7730 N   0  0  0  0  0  0  0  0  0  0  0  0
    7.1150    0.4660    1.3430 C   0  0  0  0  0  0  0  0  0  0  0  0
    1.5190   -1.5440   -2.1600 C   0  0  0  0  0  0  0  0  0  0  0  0
    2.4340   -2.2850   -3.0870 C   0  0  0  0  0  0  0  0  0  0  0  0
   -0.1960   -1.1660   -2.4360 S   0  0  0  0  0  0  0  0  0  0  0  0
   -0.4470   -0.3570   -0.8820 C   0  0  0  0  0  0  0  0  0  0  0  0
   -1.4050    0.2520   -0.1150 C   0  0  0  0  0  0  0  0  0  0  0  0
   -2.8210    0.3980   -0.3040 C   0  0  0  0  0  0  0  0  0  0  0  0
   -3.3960    1.6770   -0.5070 C   0  0  0  0  0  0  0  0  0  0  0  0
   -4.7900    1.8040   -0.5770 C   0  0  0  0  0  0  0  0  0  0  0  0
   -5.6240    0.7490   -0.4720 C   0  0  0  0  0  0  0  0  0  0  0  0
   -5.0650   -0.5320   -0.2690 C   0  0  0  0  0  0  0  0  0  0  0  0
   -3.7010   -0.6490   -0.1980 C   0  0  0  0  0  0  0  0  0  0  0  0
   -6.1040   -1.5500   -0.1730 C   0  0  0  0  0  0  0  0  0  0  0  0
   -7.3060   -0.7140    0.2740 C   0  0  0  0  0  0  0  0  0  0  0  0
   -7.1070    0.5620   -0.4860 C   0  0  0  0  0  0  0  0  0  0  0  0
  1  2  1  0
  2  3  2  0
  2 22  1  0
  3  4  1  0
  4  5  1  0
  4 21  1  0
  5  6  1  0
  5 18  2  0
  6  7  1  0
  8  7  1  6
  8  9  2  0
  8 10  2  0
  8 11  1  0
 11 12  2  0
 11 17  1  0
 12 13  1  0
 13 14  1  0
 14 15  1  0
 14 17  2  0
 15 16  3  0
 18 19  1  0
 18 20  1  0
 20 21  1  0
 21 22  2  0
 22 23  1  0
 23 24  2  0
 23 28  1  0
 24 25  1  0
 25 26  2  0
 26 27  1  0
 26 31  1  0
 27 28  2  0
 27 29  1  0
 29 30  1  0
 30 31  1  0
M  END
