
     RDKit          3D

 28 29  0  0  0  0  0  0  0  0999 V2000
   -3.6940    1.3770    0.2840 C   0  0  0  0  0  0  0  0  0  0  0  0
   -3.5110    0.1020    0.5260 C   0  0  0  0  0  0  0  0  0  0  0  0
   -2.1430   -0.5140    0.4880 C   0  0  0  0  0  0  0  0  0  0  0  0
   -1.1810    0.4440    0.1750 O   0  0  0  0  0  0  0  0  0  0  0  0
    0.0830   -0.0840    0.1330 C   0  0  2  0  0  0  0  0  0  0  0  0
    0.5020   -0.6860    1.3760 N   0  0  0  0  0  0  0  0  0  0  0  0
    0.9740    0.9280   -0.1830 O   0  0  0  0  0  0  0  0  0  0  0  0
    0.9760    1.9610    0.7300 C   0  0  0  0  0  0  0  0  0  0  0  0
    0.2170   -1.0670   -0.8670 O   0  0  0  0  0  0  0  0  0  0  0  0
    1.4280   -1.5580   -0.8910 O   0  0  0  0  0  0  0  0  0  0  0  0
    2.2210   -1.0020    0.0310 O   0  0  0  0  0  0  0  0  0  0  0  0
    3.5720   -1.0210   -0.0070 N   0  0  0  0  0  0  0  0  0  0  0  0
    4.3020   -0.0230   -0.3920 C   0  0  0  0  0  0  0  0  0  0  0  0
    5.7400   -0.0520   -0.4290 C   0  0  0  0  0  0  0  0  0  0  0  0
    6.4060    1.0020   -0.8310 C   0  0  0  0  0  0  0  0  0  0  0  0
    7.8980    1.0030   -0.8820 C   0  0  0  0  0  0  0  0  0  0  0  0
    8.4410    0.8240    0.3970 O   0  0  0  0  0  0  0  0  0  0  0  0
    7.8960   -0.6940    1.0430 P   0  0  0  0  0  0  0  0  0  0  0  0
    7.2420   -0.3640    2.6120 F   0  0  0  0  0  0  0  0  0  0  0  0
    6.4770   -1.2570   -0.0200 C   0  0  0  0  0  0  0  0  0  0  0  0
   -4.6280   -0.7580    0.8160 C   0  0  0  0  0  0  0  0  0  0  0  0
   -4.3730   -2.0490    1.0710 C   0  0  0  0  0  0  0  0  0  0  0  0
   -6.0080   -0.2380    0.8390 C   0  0  0  0  0  0  0  0  0  0  0  0
   -6.4650    0.1610   -0.5030 C   0  0  0  0  0  0  0  0  0  0  0  0
   -6.9460    1.2620   -0.9720 N   0  0  0  0  0  0  0  0  0  0  0  0
   -7.2420    1.1470   -2.3570 C   0  0  0  0  0  0  0  0  0  0  0  0
   -7.0480   -0.1360   -2.6090 C   0  0  0  0  0  0  0  0  0  0  0  0
   -6.4590   -0.7870   -1.6480 C   0  0  0  0  0  0  0  0  0  0  0  0
  1  2  2  0
  2  3  1  0
  2 21  1  0
  3  4  1  0
  4  5  1  0
  5  6  1  1
  5  7  1  0
  5  9  1  0
  7  8  1  0
  9 10  1  0
 10 11  1  0
 11 12  1  0
 12 13  2  3
 13 14  1  0
 14 15  2  0
 14 20  1  0
 15 16  1  0
 16 17  1  0
 17 18  1  0
 18 19  1  0
 18 20  1  0
 21 22  2  0
 21 23  1  0
 23 24  1  0
 24 25  2  0
 24 28  1  0
 25 26  1  0
 26 27  2  0
 27 28  2  0
M  END
