
     RDKit          3D

 28 29  0  0  0  0  0  0  0  0999 V2000
   -4.9990    2.9440   -0.0730 O   0  0  0  0  0  0  0  0  0  0  0  0
   -3.7060    2.4280   -0.1610 C   0  0  0  0  0  0  0  0  0  0  0  0
   -3.7390    1.2910   -1.1570 C   0  0  1  0  0  0  0  0  0  0  0  0
   -2.4880    0.7050   -1.3190 O   0  0  0  0  0  0  0  0  0  0  0  0
   -2.2350   -0.2640   -0.3500 C   0  0  2  0  0  0  0  0  0  0  0  0
   -0.9320   -0.6730   -0.4720 O   0  0  0  0  0  0  0  0  0  0  0  0
   -0.2430   -0.4740    0.6950 C   0  0  1  0  0  0  0  0  0  0  0  0
    0.2000   -1.7980    1.2560 C   0  0  2  0  0  0  0  0  0  0  0  0
   -0.0260   -1.9020    2.6290 O   0  0  0  0  0  0  0  0  0  0  0  0
    1.6800   -1.7950    0.9750 C   0  0  1  0  0  0  0  0  0  0  0  0
    1.9620   -2.3240   -0.3880 C   0  0  0  0  0  0  0  0  0  0  0  0
    1.3000   -1.7050   -1.4050 O   0  0  0  0  0  0  0  0  0  0  0  0
    2.0130   -0.3970    1.1730 N   0  0  1  0  0  0  0  0  0  0  0  0
    3.3610   -0.1370    0.9690 C   0  0  0  0  0  0  0  0  0  0  0  0
    3.7570    0.6090   -0.2910 C   0  0  0  0  0  0  0  0  0  0  0  0
    5.4680    0.9040   -0.4820 P   0  0  0  0  0  0  0  0  0  0  0  0
    6.3790    1.4650    0.7740 O   0  0  0  0  0  0  0  0  0  0  0  0
    5.4180    2.3100   -1.1030 O   0  0  0  0  0  0  0  0  0  0  0  0
    6.2490    0.4210   -1.8890 O   0  0  0  0  0  0  0  0  0  0  0  0
    1.0280    0.3630    0.4920 C   0  0  2  0  0  0  0  0  0  0  0  0
    0.7400    1.6930    1.1950 C   0  0  0  0  0  0  0  0  0  0  0  0
    0.2710    1.4410    2.5060 O   0  0  0  0  0  0  0  0  0  0  0  0
   -3.1240   -1.4780   -0.5370 C   0  0  2  0  0  0  0  0  0  0  0  0
   -2.4410   -2.5090   -1.1810 O   0  0  0  0  0  0  0  0  0  0  0  0
   -4.3540   -1.0620   -1.3500 C   0  0  1  0  0  0  0  0  0  0  0  0
   -5.3400   -2.0220   -1.2970 O   0  0  0  0  0  0  0  0  0  0  0  0
   -4.7950    0.2750   -0.7840 C   0  0  2  0  0  0  0  0  0  0  0  0
   -6.0530    0.6490   -1.2370 O   0  0  0  0  0  0  0  0  0  0  0  0
  1  2  1  0
  3  2  1  1
  3  4  1  0
  3 27  1  0
  4  5  1  0
  5  6  1  6
  5 23  1  0
  7  6  1  6
  7  8  1  0
  7 20  1  0
  8  9  1  1
  8 10  1  0
 10 11  1  6
 10 13  1  0
 11 12  1  0
 13 14  1  6
 13 20  1  0
 14 15  1  0
 15 16  1  0
 16 17  1  0
 16 18  1  0
 16 19  1  0
 20 21  1  1
 21 22  1  0
 23 24  1  6
 23 25  1  0
 25 26  1  1
 25 27  1  0
 27 28  1  6
M  CHG  1  13   1
M  END
