
     RDKit          3D

 10 10  0  0  0  0  0  0  0  0999 V2000
    3.0640    1.2890    0.3450 O   0  0  0  0  0  0  0  0  0  0  0  0
    2.7920    0.0180    0.4900 O   0  0  0  0  0  0  0  0  0  0  0  0
    1.5080   -0.1590    0.5320 O   0  0  0  0  0  0  0  0  0  0  0  0
    1.0430   -0.6040   -0.6930 C   0  0  0  0  0  0  0  0  0  0  0  0
   -0.4540   -0.8120   -0.6510 C   0  0  1  0  0  0  0  0  0  0  0  0
   -0.8150   -1.7550    0.3090 O   0  0  0  0  0  0  0  0  0  0  0  0
   -2.0090   -1.4140    0.7480 O   0  0  0  0  0  0  0  0  0  0  0  0
   -1.7610   -0.0900    1.1580 C   0  0  0  0  0  0  0  0  0  0  0  0
   -1.1210    0.4630   -0.1230 C   0  0  2  0  0  0  0  0  0  0  0  0
   -2.1000    0.8490   -1.0410 O   0  0  0  0  0  0  0  0  0  0  0  0
  1  2  1  0
  2  3  1  0
  3  4  1  0
  5  4  1  1
  5  6  1  0
  5  9  1  0
  6  7  1  0
  7  8  1  0
  8  9  1  0
  9 10  1  6
M  END
