
     RDKit          3D

 18 20  0  0  0  0  0  0  0  0999 V2000
    1.9420   -1.3680    1.7660 O   0  0  0  0  0  0  0  0  0  0  0  0
    2.6160   -0.8840    0.8250 C   0  0  0  0  0  0  0  0  0  0  0  0
    3.9280   -1.1900    0.7760 N   0  0  0  0  0  0  0  0  0  0  0  0
    4.7050   -0.7060   -0.2050 C   0  0  0  0  0  0  0  0  0  0  0  0
    4.1660    0.0840   -1.1330 N   0  0  0  0  0  0  0  0  0  0  0  0
    2.8440    0.4140   -1.1120 C   0  0  0  0  0  0  0  0  0  0  0  0
    2.0380   -0.0700   -0.1220 C   0  0  0  0  0  0  0  0  0  0  0  0
    0.6280    0.2400   -0.0850 C   0  0  0  0  0  0  0  0  0  0  0  0
   -0.3280   -0.7110   -0.1430 N   0  0  0  0  0  0  0  0  0  0  0  0
   -1.6380   -0.3990   -0.0860 C   0  0  0  0  0  0  0  0  0  0  0  0
   -2.5530   -1.4350   -0.1540 C   0  0  0  0  0  0  0  0  0  0  0  0
   -3.9030   -1.1750   -0.1010 C   0  0  0  0  0  0  0  0  0  0  0  0
   -4.3300    0.1230    0.0200 C   0  0  0  0  0  0  0  0  0  0  0  0
   -3.4080    1.1470    0.0870 C   0  0  0  0  0  0  0  0  0  0  0  0
   -2.0720    0.9170    0.0370 C   0  0  0  0  0  0  0  0  0  0  0  0
   -1.1300    1.8740    0.0970 N   0  0  0  0  0  0  0  0  0  0  0  0
    0.1740    1.5550    0.0370 C   0  0  0  0  0  0  0  0  0  0  0  0
    1.0680    2.4470    0.0920 O   0  0  0  0  0  0  0  0  0  0  0  0
  1  2  2  0
  2  3  1  0
  2  7  1  0
  3  4  1  0
  4  5  2  0
  5  6  1  0
  6  7  2  0
  7  8  1  0
  8  9  2  0
  8 17  1  0
  9 10  1  0
 10 11  2  0
 10 15  1  0
 11 12  1  0
 12 13  2  0
 13 14  1  0
 14 15  2  0
 15 16  1  0
 16 17  1  0
 17 18  2  0
M  END
