
     RDKit          3D

 18 20  0  0  0  0  0  0  0  0999 V2000
    1.0740    0.5630    2.1170 O   0  0  0  0  0  0  0  0  0  0  0  0
    0.9320   -0.3610    1.2640 C   0  0  0  0  0  0  0  0  0  0  0  0
   -0.2540   -1.1450    1.2440 N   0  0  0  0  0  0  0  0  0  0  0  0
   -1.3100   -0.7490    0.6390 C   0  0  0  0  0  0  0  0  0  0  0  0
   -1.1820    0.5690   -0.0200 C   0  0  0  0  0  0  0  0  0  0  0  0
   -2.5020    1.3060    0.2360 C   0  0  0  0  0  0  0  0  0  0  0  0
   -3.4290    0.9890   -0.8820 C   0  0  0  0  0  0  0  0  0  0  0  0
   -3.7680   -0.4400   -1.0510 C   0  0  0  0  0  0  0  0  0  0  0  0
   -3.7500   -1.2450    0.2240 C   0  0  0  0  0  0  0  0  0  0  0  0
   -2.4280   -1.5470    0.6510 O   0  0  0  0  0  0  0  0  0  0  0  0
    1.9630   -0.6600    0.2770 C   0  0  0  0  0  0  0  0  0  0  0  0
    1.9480   -1.6030   -0.6790 N   0  0  0  0  0  0  0  0  0  0  0  0
    3.0830   -1.5690   -1.3930 N   0  0  0  0  0  0  0  0  0  0  0  0
    3.8600   -0.6040   -0.9180 C   0  0  0  0  0  0  0  0  0  0  0  0
    5.0530    0.0490   -1.0370 C   0  0  0  0  0  0  0  0  0  0  0  0
    5.0860    1.0250   -0.0580 C   0  0  0  0  0  0  0  0  0  0  0  0
    3.9480    0.9730    0.6400 N   0  0  0  0  0  0  0  0  0  0  0  0
    3.1740   -0.0190    0.1350 C   0  0  0  0  0  0  0  0  0  0  0  0
  1  2  2  0
  2  3  1  0
  2 11  1  0
  3  4  2  3
  4  5  1  0
  4 10  1  0
  5  6  1  0
  6  7  1  0
  7  8  1  0
  8  9  1  0
  9 10  1  0
 11 12  2  0
 11 18  1  0
 12 13  1  0
 13 14  1  0
 14 15  1  0
 14 18  2  0
 15 16  2  0
 16 17  1  0
 17 18  1  0
M  END
