
     RDKit          3D

 10 10  0  0  0  0  0  0  0  0999 V2000
    2.7750    0.7460   -1.4610 O   0  0  0  0  0  0  0  0  0  0  0  0
    2.3020    0.0760   -0.5140 C   0  0  0  0  0  0  0  0  0  0  0  0
    3.1860   -0.6650    0.2570 O   0  0  0  0  0  0  0  0  0  0  0  0
    0.8610    0.0850   -0.2430 C   0  0  0  0  0  0  0  0  0  0  0  0
    0.3480   -0.6540    0.8000 C   0  0  0  0  0  0  0  0  0  0  0  0
   -1.0080   -0.6680    1.0850 C   0  0  0  0  0  0  0  0  0  0  0  0
   -1.9040    0.0620    0.3300 C   0  0  0  0  0  0  0  0  0  0  0  0
   -3.2660    0.0500    0.6120 O   0  0  0  0  0  0  0  0  0  0  0  0
   -1.3760    0.7990   -0.7140 C   0  0  0  0  0  0  0  0  0  0  0  0
   -0.0270    0.8150   -0.9990 C   0  0  0  0  0  0  0  0  0  0  0  0
  1  2  2  0
  2  3  1  0
  2  4  1  0
  4  5  2  0
  4 10  1  0
  5  6  1  0
  6  7  2  0
  7  8  1  0
  7  9  1  0
  9 10  2  0
M  END
