
     RDKit          3D

 35 37  0  0  0  0  0  0  0  0999 V2000
    6.7570   -1.5380   -0.4340 C   0  0  0  0  0  0  0  0  0  0  0  0
    5.9080   -1.5770   -1.4230 C   0  0  0  0  0  0  0  0  0  0  0  0
    4.8880   -0.5370   -1.6930 C   0  0  0  0  0  0  0  0  0  0  0  0
    4.9830    0.4850   -0.6950 O   0  0  0  0  0  0  0  0  0  0  0  0
    4.5980    0.1340    0.6020 C   0  0  0  0  0  0  0  0  0  0  0  0
    4.1590   -1.0520    0.7920 O   0  0  0  0  0  0  0  0  0  0  0  0
    4.6720    1.0310    1.7340 C   0  0  0  0  0  0  0  0  0  0  0  0
    3.6770    2.1040    1.8720 C   0  0  0  0  0  0  0  0  0  0  0  0
    2.2530    1.7050    1.9650 C   0  0  0  0  0  0  0  0  0  0  0  0
    1.8630    0.5980    1.5330 O   0  0  0  0  0  0  0  0  0  0  0  0
    1.3290    2.6100    2.5630 N   0  0  0  0  0  0  0  0  0  0  0  0
   -0.0480    2.4210    2.7190 C   0  0  0  0  0  0  0  0  0  0  0  0
   -0.8430    1.5240    2.0380 C   0  0  0  0  0  0  0  0  0  0  0  0
   -2.1960    1.4630    2.2240 C   0  0  0  0  0  0  0  0  0  0  0  0
   -3.1190    0.5520    1.5130 C   0  0  0  0  0  0  0  0  0  0  0  0
   -2.5860   -0.5520    0.8330 N   0  0  0  0  0  0  0  0  0  0  0  0
   -2.6920   -0.6050   -0.7010 C   0  0  0  0  0  0  0  0  0  0  0  0
   -1.5820   -1.3240   -1.2630 C   0  0  0  0  0  0  0  0  0  0  0  0
   -0.4080   -1.5200   -0.5860 C   0  0  0  0  0  0  0  0  0  0  0  0
    0.5830   -2.2830   -1.3750 C   0  0  1  0  0  0  0  0  0  0  0  0
    0.1130   -3.5590   -1.6270 F   0  0  0  0  0  0  0  0  0  0  0  0
    0.6920   -1.6580   -2.6320 O   0  0  0  0  0  0  0  0  0  0  0  0
   -0.4280   -2.0480   -3.4050 C   0  0  0  0  0  0  0  0  0  0  0  0
   -1.6230   -2.1120   -2.4960 C   0  0  0  0  0  0  0  0  0  0  0  0
   -2.6420   -2.9010   -2.7740 C   0  0  0  0  0  0  0  0  0  0  0  0
   -3.7830   -0.3130   -1.2830 C   0  0  0  0  0  0  0  0  0  0  0  0
   -3.8140   -0.3190   -2.7550 C   0  0  0  0  0  0  0  0  0  0  0  0
   -4.7740   -0.2090   -3.5780 C   0  0  0  0  0  0  0  0  0  0  0  0
   -6.4300   -0.0090   -2.9430 S   0  0  0  0  0  0  0  0  0  0  0  0
   -6.2670   -0.0120   -1.1930 C   0  0  0  0  0  0  0  0  0  0  0  0
   -5.0720   -0.1510   -0.6360 C   0  0  0  0  0  0  0  0  0  0  0  0
   -2.7990    2.3320    3.1310 C   0  0  0  0  0  0  0  0  0  0  0  0
   -2.0580    3.2510    3.8390 C   0  0  0  0  0  0  0  0  0  0  0  0
   -0.6940    3.2770    3.6180 C   0  0  0  0  0  0  0  0  0  0  0  0
    0.0690    4.1610    4.3180 F   0  0  0  0  0  0  0  0  0  0  0  0
  1  2  2  0
  2  3  1  0
  3  4  1  0
  4  5  1  0
  5  6  2  0
  5  7  1  0
  7  8  1  0
  8  9  1  0
  9 10  2  0
  9 11  1  0
 11 12  1  0
 12 13  2  0
 12 34  1  0
 13 14  1  0
 14 15  1  0
 14 32  2  0
 15 16  1  0
 16 17  1  0
 17 18  1  0
 17 26  2  3
 18 19  2  0
 18 24  1  0
 19 20  1  0
 20 21  1  6
 20 22  1  0
 22 23  1  0
 23 24  1  0
 24 25  2  0
 26 27  1  0
 26 31  1  0
 27 28  2  0
 28 29  1  0
 29 30  1  0
 30 31  2  0
 32 33  1  0
 33 34  2  0
 34 35  1  0
M  END
