
     RDKit          3D

 35 36  0  0  0  0  0  0  0  0999 V2000
   -4.1960    1.0280   -3.7360 C   0  0  0  0  0  0  0  0  0  0  0  0
   -5.1290    0.1410   -3.1370 O   0  0  0  0  0  0  0  0  0  0  0  0
   -4.9540   -0.1840   -1.8010 C   0  0  0  0  0  0  0  0  0  0  0  0
   -3.8980    0.3360   -1.0500 C   0  0  0  0  0  0  0  0  0  0  0  0
   -3.7020    0.0290    0.2780 C   0  0  0  0  0  0  0  0  0  0  0  0
   -2.6140    0.6160    1.0480 C   0  0  0  0  0  0  0  0  0  0  0  0
   -2.5140    2.0750    1.1210 C   0  0  0  0  0  0  0  0  0  0  0  0
   -1.5640    2.5880    1.8130 O   0  0  0  0  0  0  0  0  0  0  0  0
   -3.4100    3.0270    0.4680 C   0  0  1  0  0  0  0  0  0  0  0  0
   -4.7530    2.7740    0.7760 F   0  0  0  0  0  0  0  0  0  0  0  0
   -3.2180    4.3320    0.9690 F   0  0  0  0  0  0  0  0  0  0  0  0
   -1.7190   -0.0960    1.7090 C   0  0  0  0  0  0  0  0  0  0  0  0
   -1.6960   -1.5710    1.7560 C   0  0  0  0  0  0  0  0  0  0  0  0
   -0.7020    0.5790    2.4280 N   0  0  0  0  0  0  0  0  0  0  0  0
    0.5950    0.7480    1.9120 C   0  0  0  0  0  0  0  0  0  0  0  0
    1.6930    1.5410    2.8140 S   0  0  0  0  0  0  0  0  0  0  0  0
    1.0030    0.2670    0.6450 N   0  0  0  0  0  0  0  0  0  0  0  0
    2.2830    0.3910    0.0410 C   0  0  0  0  0  0  0  0  0  0  0  0
    3.3680   -0.3880    0.7050 C   0  0  0  0  0  0  0  0  0  0  0  0
    4.6860   -0.2760    0.0530 C   0  0  0  0  0  0  0  0  0  0  0  0
    5.4970    0.8220    0.1740 C   0  0  0  0  0  0  0  0  0  0  0  0
    5.1060    1.9870    0.9880 C   0  0  0  0  0  0  0  0  0  0  0  0
    6.7380    0.8960   -0.4620 C   0  0  0  0  0  0  0  0  0  0  0  0
    7.6050    2.1160   -0.3100 C   0  0  0  0  0  0  0  0  0  0  0  0
    7.1440   -0.1590   -1.2220 C   0  0  0  0  0  0  0  0  0  0  0  0
    6.3640   -1.2740   -1.3680 C   0  0  0  0  0  0  0  0  0  0  0  0
    6.7810   -2.3650   -2.1530 O   0  0  0  0  0  0  0  0  0  0  0  0
    5.1430   -1.3230   -0.7310 C   0  0  0  0  0  0  0  0  0  0  0  0
    4.2770   -2.5190   -0.8720 C   0  0  0  0  0  0  0  0  0  0  0  0
   -4.6120   -0.8410    0.8740 C   0  0  0  0  0  0  0  0  0  0  0  0
   -4.5000   -1.2050    2.1990 O   0  0  0  0  0  0  0  0  0  0  0  0
   -5.4420   -2.0870    2.7640 C   0  0  0  0  0  0  0  0  0  0  0  0
   -5.6680   -1.3660    0.1340 C   0  0  0  0  0  0  0  0  0  0  0  0
   -5.8470   -1.0470   -1.1920 C   0  0  0  0  0  0  0  0  0  0  0  0
   -6.9640   -1.5880   -2.0150 C   0  0  0  0  0  0  0  0  0  0  0  0
  1  2  1  0
  2  3  1  0
  3  4  2  0
  3 34  1  0
  4  5  1  0
  5  6  1  0
  5 30  2  0
  6  7  1  0
  6 12  2  3
  7  8  2  0
  7  9  1  0
  9 10  1  1
  9 11  1  0
 12 13  1  0
 12 14  1  0
 14 15  1  0
 15 16  2  0
 15 17  1  0
 17 18  1  0
 18 19  1  0
 19 20  1  0
 20 21  2  0
 20 28  1  0
 21 22  1  0
 21 23  1  0
 23 24  1  0
 23 25  2  0
 25 26  1  0
 26 27  1  0
 26 28  2  0
 28 29  1  0
 30 31  1  0
 30 33  1  0
 31 32  1  0
 33 34  2  0
 34 35  1  0
M  END
