
     RDKit          3D

 35 36  0  0  0  0  0  0  0  0999 V2000
    6.2160    0.0440    0.6950 C   0  0  0  0  0  0  0  0  0  0  0  0
    4.8270    0.5910    0.5890 C   0  0  0  0  0  0  0  0  0  0  0  0
    4.6060    1.6800    1.2700 C   0  0  0  0  0  0  0  0  0  0  0  0
    5.7490    2.1390    2.0040 F   0  0  0  0  0  0  0  0  0  0  0  0
    3.5770    2.4960    1.4120 F   0  0  0  0  0  0  0  0  0  0  0  0
    3.7160   -0.1900   -0.0880 C   0  0  0  0  0  0  0  0  0  0  0  0
    2.4670    0.4930    0.1800 N   0  0  0  0  0  0  0  0  0  0  0  0
    1.2050    0.2450   -0.4110 C   0  0  0  0  0  0  0  0  0  0  0  0
    1.1010   -0.5630   -1.2730 O   0  0  0  0  0  0  0  0  0  0  0  0
   -0.0840    0.9450    0.0150 C   0  0  0  0  0  0  0  0  0  0  0  0
    0.0670    1.6480    1.1100 C   0  0  0  0  0  0  0  0  0  0  0  0
   -0.8030    2.4880    1.8930 C   0  0  0  0  0  0  0  0  0  0  0  0
   -1.1730    2.3000    3.1990 C   0  0  0  0  0  0  0  0  0  0  0  0
   -1.9110    3.3690    3.5900 C   0  0  0  0  0  0  0  0  0  0  0  0
   -2.0050    4.2270    2.5210 C   0  0  0  0  0  0  0  0  0  0  0  0
   -1.3240    3.6710    1.5030 N   0  0  0  0  0  0  0  0  0  0  0  0
   -1.3330    0.5160   -0.5670 C   0  0  0  0  0  0  0  0  0  0  0  0
   -2.5740    0.6950    0.3250 C   0  0  0  0  0  0  0  0  0  0  0  0
   -2.5590   -0.3230    1.4210 C   0  0  0  0  0  0  0  0  0  0  0  0
   -3.7780   -0.1170    2.2840 C   0  0  1  0  0  0  0  0  0  0  0  0
   -5.0490   -0.2640    1.4690 C   0  0  0  0  0  0  0  0  0  0  0  0
   -3.8270   -1.2160    3.3420 C   0  0  0  0  0  0  0  0  0  0  0  0
   -1.6020   -0.0010   -1.7230 C   0  0  0  0  0  0  0  0  0  0  0  0
   -0.8260   -0.3100   -2.8850 C   0  0  0  0  0  0  0  0  0  0  0  0
   -1.3170   -0.9130   -3.9230 O   0  0  0  0  0  0  0  0  0  0  0  0
   -3.0410   -0.5890   -1.9240 C   0  0  2  0  0  0  0  0  0  0  0  0
   -2.7860   -2.0400   -2.3950 C   0  0  0  0  0  0  0  0  0  0  0  0
   -3.7380    0.1410   -3.0160 C   0  0  0  0  0  0  0  0  0  0  0  0
    3.9760   -1.1780   -0.8260 C   0  0  0  0  0  0  0  0  0  0  0  0
    5.3020   -1.7760   -1.2490 C   0  0  0  0  0  0  0  0  0  0  0  0
    5.1590   -1.9480   -2.7910 C   0  0  0  0  0  0  0  0  0  0  0  0
    3.3920   -2.2090   -3.0080 S   0  0  1  0  0  0  0  0  0  0  0  0
    2.7810   -1.0470   -3.6710 O   0  0  0  0  0  0  0  0  0  0  0  0
    3.1390   -3.4990   -3.7230 O   0  0  0  0  0  0  0  0  0  0  0  0
    3.0300   -2.2970   -1.2910 C   0  0  0  0  0  0  0  0  0  0  0  0
  1  2  1  0
  2  3  2  3
  2  6  1  0
  3  4  1  0
  3  5  1  0
  6  7  1  0
  6 29  2  3
  7  8  1  0
  8  9  2  0
  8 10  1  0
 10 11  2  3
 10 17  1  0
 11 12  1  0
 12 13  2  0
 12 16  1  0
 13 14  1  0
 14 15  2  0
 15 16  1  0
 17 18  1  0
 17 23  2  3
 18 19  1  0
 19 20  1  0
 20 21  1  6
 20 22  1  0
 23 24  1  0
 23 26  1  0
 24 25  2  0
 26 27  1  6
 26 28  1  0
 29 30  1  0
 29 35  1  0
 30 31  1  0
 32 31  1  1
 32 33  2  0
 32 34  2  0
 32 35  1  0
M  END
