
     RDKit          3D

 35 36  0  0  0  0  0  0  0  0999 V2000
    5.5060    2.0550    1.0090 C   0  0  0  0  0  0  0  0  0  0  0  0
    5.1480    0.9420    0.4030 C   0  0  0  0  0  0  0  0  0  0  0  0
    4.7140    0.7620   -1.0100 C   0  0  0  0  0  0  0  0  0  0  0  0
    3.5780   -0.2570   -0.7970 C   0  0  2  0  0  0  0  0  0  0  0  0
    2.5670    0.4710   -0.1280 O   0  0  0  0  0  0  0  0  0  0  0  0
    1.2930    0.6420   -0.7110 C   0  0  0  0  0  0  0  0  0  0  0  0
    1.1780    0.0970   -1.8360 O   0  0  0  0  0  0  0  0  0  0  0  0
    0.2360    1.4040   -0.0080 C   0  0  0  0  0  0  0  0  0  0  0  0
   -1.1070    1.3390   -0.6350 C   0  0  2  0  0  0  0  0  0  0  0  0
   -1.0380    1.8070   -2.0530 C   0  0  0  0  0  0  0  0  0  0  0  0
   -1.7740    2.4890    0.0110 O   0  0  0  0  0  0  0  0  0  0  0  0
   -1.9990    0.2210   -0.2990 C   0  0  2  0  0  0  0  0  0  0  0  0
   -2.2520    0.2700    1.1760 C   0  0  0  0  0  0  0  0  0  0  0  0
   -2.0070    1.3310    1.7810 O   0  0  0  0  0  0  0  0  0  0  0  0
   -2.7450   -0.7970    1.9080 O   0  0  0  0  0  0  0  0  0  0  0  0
   -2.9420   -0.6300    3.2860 C   0  0  0  0  0  0  0  0  0  0  0  0
   -1.5330   -1.1760   -0.6770 C   0  0  0  0  0  0  0  0  0  0  0  0
   -1.9170   -1.2320   -2.1100 C   0  0  0  0  0  0  0  0  0  0  0  0
   -1.5900   -2.1510   -2.9300 O   0  0  0  0  0  0  0  0  0  0  0  0
   -2.6980   -0.0980   -2.3950 O   0  0  0  0  0  0  0  0  0  0  0  0
   -3.2770    0.2110   -1.1040 C   0  0  2  0  0  0  0  0  0  0  0  0
   -4.1510    1.3660   -1.0730 C   0  0  0  0  0  0  0  0  0  0  0  0
   -4.0530   -1.0060   -0.7540 C   0  0  0  0  0  0  0  0  0  0  0  0
   -3.9710   -2.0970   -1.4240 O   0  0  0  0  0  0  0  0  0  0  0  0
   -4.9610   -1.0690    0.3530 N   0  0  0  0  0  0  0  0  0  0  0  0
   -5.6510   -2.2700    0.6690 C   0  0  0  0  0  0  0  0  0  0  0  0
   -5.4990   -3.3260   -0.0160 O   0  0  0  0  0  0  0  0  0  0  0  0
   -6.5180   -2.2700    1.7720 O   0  0  0  0  0  0  0  0  0  0  0  0
    4.2390   -1.2650    0.0910 C   0  0  1  0  0  0  0  0  0  0  0  0
    5.0470   -2.1470   -0.6920 N   0  0  0  0  0  0  0  0  0  0  0  0
    6.2710   -2.2310   -0.4770 O   0  0  0  0  0  0  0  0  0  0  0  0
    4.4900   -2.9090   -1.6850 O   0  0  0  0  0  0  0  0  0  0  0  0
    5.0900   -0.3890    0.9750 C   0  0  0  0  0  0  0  0  0  0  0  0
    5.6800   -0.8030    2.0950 C   0  0  0  0  0  0  0  0  0  0  0  0
    6.4510    0.0520    2.8630 O   0  0  0  0  0  0  0  0  0  0  0  0
  1  2  2  0
  2  3  1  0
  2 33  1  0
  3  4  1  0
  4  5  1  1
  4 29  1  0
  5  6  1  0
  6  7  2  0
  6  8  1  0
  8  9  1  0
  9 10  1  6
  9 11  1  0
  9 12  1  0
 12 13  1  1
 12 17  1  0
 12 21  1  0
 13 14  2  0
 13 15  1  0
 15 16  1  0
 17 18  1  0
 18 19  2  0
 18 20  1  0
 20 21  1  0
 21 22  1  6
 21 23  1  0
 23 24  2  0
 23 25  1  0
 25 26  1  0
 26 27  2  0
 26 28  1  0
 29 30  1  6
 29 33  1  0
 30 31  2  0
 30 32  1  0
 33 34  2  3
 34 35  1  0
M  CHG  2  30   1  32  -1
M  END
