
     RDKit          3D

 35 39  0  0  0  0  0  0  0  0999 V2000
    2.0420   -1.9880    1.2120 O   0  0  0  0  0  0  0  0  0  0  0  0
    2.1060   -1.0370    0.3450 C   0  0  0  0  0  0  0  0  0  0  0  0
    3.3990   -0.5750    0.0920 N   0  0  0  0  0  0  0  0  0  0  0  0
    4.5830   -1.1290    0.7600 C   0  0  2  0  0  0  0  0  0  0  0  0
    5.3910    0.0050    1.4080 C   0  0  0  0  0  0  0  0  0  0  0  0
    5.8570    0.7030    0.1610 C   0  0  0  0  0  0  0  0  0  0  0  0
    6.1690    2.0360   -0.0150 C   0  0  0  0  0  0  0  0  0  0  0  0
    6.5730    2.4420   -1.2680 C   0  0  0  0  0  0  0  0  0  0  0  0
    6.6690    1.5550   -2.3290 C   0  0  0  0  0  0  0  0  0  0  0  0
    6.3510    0.2310   -2.1210 C   0  0  0  0  0  0  0  0  0  0  0  0
    5.9430   -0.1920   -0.8700 C   0  0  0  0  0  0  0  0  0  0  0  0
    5.5430   -1.5260   -0.3360 C   0  0  0  0  0  0  0  0  0  0  0  0
    0.8670   -0.5920   -0.2290 C   0  0  0  0  0  0  0  0  0  0  0  0
   -0.2870   -1.1950    0.1730 N   0  0  0  0  0  0  0  0  0  0  0  0
   -1.4990   -0.8720   -0.2860 C   0  0  0  0  0  0  0  0  0  0  0  0
   -2.6580   -1.6190    0.2420 C   0  0  2  0  0  0  0  0  0  0  0  0
   -3.3010   -2.4800   -0.8520 C   0  0  0  0  0  0  0  0  0  0  0  0
   -4.5760   -2.8800   -0.1380 C   0  0  0  0  0  0  0  0  0  0  0  0
   -4.9450   -1.6190    0.6090 C   0  0  0  0  0  0  0  0  0  0  0  0
   -3.7560   -0.7970    0.6380 N   0  0  0  0  0  0  0  0  0  0  0  0
   -3.7340    0.5750    1.0040 C   0  0  0  0  0  0  0  0  0  0  0  0
   -2.6760    1.2630    1.0210 O   0  0  0  0  0  0  0  0  0  0  0  0
   -4.9520    1.2790    1.3890 C   0  0  0  0  0  0  0  0  0  0  0  0
   -5.2980    1.2720    2.7220 C   0  0  0  0  0  0  0  0  0  0  0  0
   -4.3120    0.4470    3.9230 Cl  0  0  0  0  0  0  0  0  0  0  0  0
   -6.4370    1.9190    3.1480 C   0  0  0  0  0  0  0  0  0  0  0  0
   -7.2110    2.5610    2.2400 N   0  0  0  0  0  0  0  0  0  0  0  0
   -6.9190    2.5950    0.9480 C   0  0  0  0  0  0  0  0  0  0  0  0
   -5.7720    1.9460    0.5060 C   0  0  0  0  0  0  0  0  0  0  0  0
   -5.3500    1.9650   -1.1860 Cl  0  0  0  0  0  0  0  0  0  0  0  0
   -1.6130    0.0970   -1.1920 N   0  0  0  0  0  0  0  0  0  0  0  0
   -0.5540    0.7660   -1.6670 C   0  0  0  0  0  0  0  0  0  0  0  0
   -0.6130    1.6790   -2.5150 O   0  0  0  0  0  0  0  0  0  0  0  0
    0.7000    0.3970   -1.1610 C   0  0  0  0  0  0  0  0  0  0  0  0
    1.8420    1.0540   -1.6140 O   0  0  0  0  0  0  0  0  0  0  0  0
  1  2  2  0
  2  3  1  0
  2 13  1  0
  4  3  1  6
  4  5  1  0
  4 12  1  0
  5  6  1  0
  6  7  2  0
  6 11  1  0
  7  8  1  0
  8  9  2  0
  9 10  1  0
 10 11  2  0
 11 12  1  0
 13 14  1  0
 13 34  2  0
 14 15  2  0
 16 15  1  6
 15 31  1  0
 16 17  1  0
 16 20  1  0
 17 18  1  0
 18 19  1  0
 19 20  1  0
 20 21  1  0
 21 22  2  0
 21 23  1  0
 23 24  2  0
 23 29  1  0
 24 25  1  0
 24 26  1  0
 26 27  2  0
 27 28  1  0
 28 29  2  0
 29 30  1  0
 31 32  1  0
 32 33  2  0
 32 34  1  0
 34 35  1  0
M  END
