
     RDKit          3D

 34 36  0  0  0  0  0  0  0  0999 V2000
   -5.0310    0.0080    2.7470 C   0  0  0  0  0  0  0  0  0  0  0  0
   -5.9400   -0.1990    1.6200 C   0  0  0  0  0  0  0  0  0  0  0  0
   -5.4180   -0.6390    0.4490 C   0  0  0  0  0  0  0  0  0  0  0  0
   -4.0100   -0.8900    0.3330 C   0  0  0  0  0  0  0  0  0  0  0  0
   -3.2700   -1.2900   -0.6390 C   0  0  0  0  0  0  0  0  0  0  0  0
   -1.7850   -1.4480   -0.3780 C   0  0  0  0  0  0  0  0  0  0  0  0
   -0.9640   -0.6190   -1.1850 N   0  0  2  0  0  0  0  0  0  0  0  0
    0.2780   -1.3160   -1.4550 C   0  0  0  0  0  0  0  0  0  0  0  0
    1.0140   -1.8120   -0.2530 C   0  0  0  0  0  0  0  0  0  0  0  0
    2.2930   -2.5440   -0.7130 C   0  0  0  0  0  0  0  0  0  0  0  0
    3.0050   -3.0200    0.5430 C   0  0  0  0  0  0  0  0  0  0  0  0
    3.3860   -1.9730    1.4300 N   0  0  0  0  0  0  0  0  0  0  0  0
    4.3590   -0.9680    1.1760 C   0  0  0  0  0  0  0  0  0  0  0  0
    5.2200   -0.9960    0.1010 C   0  0  0  0  0  0  0  0  0  0  0  0
    6.1460    0.0230   -0.1100 C   0  0  0  0  0  0  0  0  0  0  0  0
    6.2480    1.1020    0.7380 C   0  0  0  0  0  0  0  0  0  0  0  0
    7.2380    2.1860    0.5040 C   0  0  2  0  0  0  0  0  0  0  0  0
    7.5600    2.6100   -0.8840 C   0  0  0  0  0  0  0  0  0  0  0  0
    8.5950    1.8780   -0.0370 C   0  0  0  0  0  0  0  0  0  0  0  0
    5.3910    1.1390    1.8170 C   0  0  0  0  0  0  0  0  0  0  0  0
    4.4740    0.1340    2.0300 C   0  0  0  0  0  0  0  0  0  0  0  0
   -0.8230    0.7460   -0.8710 C   0  0  2  0  0  0  0  0  0  0  0  0
    0.4360    1.3780   -1.4610 C   0  0  0  0  0  0  0  0  0  0  0  0
   -0.8750    1.1550    0.5650 C   0  0  0  0  0  0  0  0  0  0  0  0
   -0.7080    2.6470    0.7480 C   0  0  0  0  0  0  0  0  0  0  0  0
   -1.7270    3.4890    0.0850 C   0  0  0  0  0  0  0  0  0  0  0  0
   -1.3920    4.8300    0.3720 O   0  0  0  0  0  0  0  0  0  0  0  0
   -3.7250   -1.5210   -1.9930 C   0  0  0  0  0  0  0  0  0  0  0  0
   -3.0100   -2.2670   -2.8830 N   0  0  0  0  0  0  0  0  0  0  0  0
   -3.6500   -2.2280   -4.0490 C   0  0  0  0  0  0  0  0  0  0  0  0
   -4.7710   -1.4720   -3.9440 C   0  0  0  0  0  0  0  0  0  0  0  0
   -4.7820   -1.0480   -2.6490 N   0  0  0  0  0  0  0  0  0  0  0  0
   -7.3710    0.0570    1.7410 C   0  0  0  0  0  0  0  0  0  0  0  0
   -7.9930   -0.7220    2.7210 O   0  0  0  0  0  0  0  0  0  0  0  0
  1  2  1  0
  2  3  2  3
  2 33  1  0
  3  4  1  0
  4  5  2  3
  5  6  1  0
  5 28  1  0
  7  6  1  1
  7  8  1  0
  7 22  1  0
  8  9  1  0
  9 10  1  0
 10 11  1  0
 11 12  1  0
 12 13  1  0
 13 14  2  0
 13 21  1  0
 14 15  1  0
 15 16  2  0
 17 16  1  6
 16 20  1  0
 17 18  1  0
 17 19  1  0
 18 19  1  0
 20 21  2  0
 22 23  1  1
 22 24  1  0
 24 25  1  0
 25 26  1  0
 26 27  1  0
 28 29  1  0
 28 32  2  0
 29 30  1  0
 30 31  2  0
 31 32  1  0
 33 34  1  0
M  CHG  2   7   1  32   1
M  END
