
     RDKit          3D

 35 36  0  0  0  0  0  0  0  0999 V2000
    5.7090   -3.5160    0.0990 C   0  0  0  0  0  0  0  0  0  0  0  0
    4.8970   -2.9520    1.0810 O   0  0  0  0  0  0  0  0  0  0  0  0
    3.9150   -2.1210    0.4930 C   0  0  2  0  0  0  0  0  0  0  0  0
    4.1060   -0.8060    1.0590 N   0  0  0  0  0  0  0  0  0  0  0  0
    4.4640    0.3380    0.3000 C   0  0  0  0  0  0  0  0  0  0  0  0
    4.6180    0.1650   -0.9390 O   0  0  0  0  0  0  0  0  0  0  0  0
    4.6460    1.6650    0.9370 C   0  0  1  0  0  0  0  0  0  0  0  0
    4.4300    1.5790    2.2910 O   0  0  0  0  0  0  0  0  0  0  0  0
    6.0080    2.2530    0.6080 C   0  0  1  0  0  0  0  0  0  0  0  0
    6.1810    2.3190   -0.7630 O   0  0  0  0  0  0  0  0  0  0  0  0
    6.0860    3.6970    1.1200 C   0  0  0  0  0  0  0  0  0  0  0  0
    7.3200    4.2540    0.8050 O   0  0  0  0  0  0  0  0  0  0  0  0
    2.5610   -2.6820    0.8920 C   0  0  1  0  0  0  0  0  0  0  0  0
    2.5390   -2.9060    2.4070 C   0  0  0  0  0  0  0  0  0  0  0  0
    3.6380   -3.6830    2.7350 O   0  0  0  0  0  0  0  0  0  0  0  0
    1.4850   -1.9060    0.4650 O   0  0  0  0  0  0  0  0  0  0  0  0
    0.5010   -2.4290   -0.3940 C   0  0  0  0  0  0  0  0  0  0  0  0
    0.6670   -3.6190   -0.7350 O   0  0  0  0  0  0  0  0  0  0  0  0
   -0.5510   -1.6080   -0.7860 N   0  0  0  0  0  0  0  0  0  0  0  0
   -0.6550   -0.2420   -0.3310 C   0  0  0  0  0  0  0  0  0  0  0  0
   -1.8530    0.4350   -0.9800 C   0  0  0  0  0  0  0  0  0  0  0  0
   -3.1300   -0.3280   -0.8430 C   0  0  2  0  0  0  0  0  0  0  0  0
   -2.9010   -1.7980   -0.9390 C   0  0  0  0  0  0  0  0  0  0  0  0
   -1.5990   -2.0660   -1.6640 C   0  0  0  0  0  0  0  0  0  0  0  0
   -3.9500    0.0550   -1.8980 O   0  0  0  0  0  0  0  0  0  0  0  0
   -5.2080   -0.4830   -1.8940 C   0  0  0  0  0  0  0  0  0  0  0  0
   -5.8230   -0.3770   -0.5080 C   0  0  1  0  0  0  0  0  0  0  0  0
   -7.2460    0.1680   -0.5820 C   0  0  0  0  0  0  0  0  0  0  0  0
   -5.8900   -1.6320    0.0810 O   0  0  0  0  0  0  0  0  0  0  0  0
   -4.9280    0.5740    0.2590 C   0  0  2  0  0  0  0  0  0  0  0  0
   -4.7120    1.6900   -0.5570 O   0  0  0  0  0  0  0  0  0  0  0  0
   -5.0560    2.8680    0.0760 C   0  0  0  0  0  0  0  0  0  0  0  0
   -4.7940    4.0120   -0.8820 C   0  0  0  0  0  0  0  0  0  0  0  0
   -5.1240    5.2300   -0.2930 O   0  0  0  0  0  0  0  0  0  0  0  0
   -3.7130   -0.0690    0.4150 O   0  0  0  0  0  0  0  0  0  0  0  0
  1  2  1  0
  2  3  1  0
  3  4  1  1
  3 13  1  0
  4  5  1  0
  5  6  2  0
  5  7  1  0
  7  8  1  1
  7  9  1  0
  9 10  1  6
  9 11  1  0
 11 12  1  0
 13 14  1  1
 13 16  1  0
 14 15  1  0
 16 17  1  0
 17 18  2  0
 17 19  1  0
 19 20  1  0
 19 24  1  0
 20 21  1  0
 22 21  1  1
 22 23  1  0
 22 25  1  0
 22 35  1  0
 23 24  1  0
 25 26  1  0
 26 27  1  0
 27 28  1  6
 27 29  1  0
 27 30  1  0
 30 31  1  6
 30 35  1  0
 31 32  1  0
 32 33  1  0
 33 34  1  0
M  END
