
     RDKit          3D

 35 36  0  0  0  0  0  0  0  0999 V2000
    5.5420    0.5110   -0.0300 C   0  0  0  0  0  0  0  0  0  0  0  0
    4.5330   -0.5140    0.4920 C   0  0  1  0  0  0  0  0  0  0  0  0
    3.2480   -0.0530    0.1230 O   0  0  0  0  0  0  0  0  0  0  0  0
    2.2920    0.3150    1.0860 C   0  0  0  0  0  0  0  0  0  0  0  0
    2.6770    0.1980    2.2710 O   0  0  0  0  0  0  0  0  0  0  0  0
    0.9460    0.7960    0.6650 C   0  0  1  0  0  0  0  0  0  0  0  0
    0.2840   -0.4110    0.0200 C   0  0  0  0  0  0  0  0  0  0  0  0
   -1.2100   -0.2390    0.0110 C   0  0  2  0  0  0  0  0  0  0  0  0
   -1.7470   -0.8940    1.1410 O   0  0  0  0  0  0  0  0  0  0  0  0
   -1.7140   -0.9340   -1.2110 C   0  0  0  0  0  0  0  0  0  0  0  0
   -3.1000   -0.9820   -1.4500 N   0  0  0  0  0  0  0  0  0  0  0  0
   -4.1190   -1.5770   -0.6740 C   0  0  0  0  0  0  0  0  0  0  0  0
   -3.7990   -2.1630    0.3820 O   0  0  0  0  0  0  0  0  0  0  0  0
   -5.5600   -1.5560   -1.0260 C   0  0  1  0  0  0  0  0  0  0  0  0
   -5.9920   -3.0010   -1.2040 C   0  0  0  0  0  0  0  0  0  0  0  0
   -6.3930   -0.8420   -0.0040 C   0  0  0  0  0  0  0  0  0  0  0  0
   -7.1620    0.0790   -0.7130 O   0  0  0  0  0  0  0  0  0  0  0  0
   -6.9710   -0.1530   -2.0520 C   0  0  0  0  0  0  0  0  0  0  0  0
   -5.8240   -0.8940   -2.1980 O   0  0  0  0  0  0  0  0  0  0  0  0
   -1.5180    1.1940    0.0510 C   0  0  0  0  0  0  0  0  0  0  0  0
   -2.0660    1.8500   -0.8490 O   0  0  0  0  0  0  0  0  0  0  0  0
   -1.1440    1.8390    1.2250 O   0  0  0  0  0  0  0  0  0  0  0  0
    0.1550    1.3850    1.7440 C   0  0  2  0  0  0  0  0  0  0  0  0
    0.7240    2.4400    2.5860 C   0  0  0  0  0  0  0  0  0  0  0  0
    0.9660    3.6930    2.1080 O   0  0  0  0  0  0  0  0  0  0  0  0
    1.8250    4.1970    1.1920 C   0  0  0  0  0  0  0  0  0  0  0  0
    2.6080    3.4390    0.6140 O   0  0  0  0  0  0  0  0  0  0  0  0
    1.8860    5.6450    0.8260 C   0  0  0  0  0  0  0  0  0  0  0  0
    2.8490    5.8450   -0.1260 O   0  0  0  0  0  0  0  0  0  0  0  0
    4.8050   -1.8480   -0.0790 C   0  0  0  0  0  0  0  0  0  0  0  0
    5.1080   -2.8450    0.7130 C   0  0  0  0  0  0  0  0  0  0  0  0
    5.1610   -2.5890    2.0970 O   0  0  0  0  0  0  0  0  0  0  0  0
    4.7410   -2.0490   -1.5060 C   0  0  0  0  0  0  0  0  0  0  0  0
    4.9660   -3.1620   -2.0940 N   0  0  0  0  0  0  0  0  0  0  0  0
    4.4050   -0.9330   -2.3010 O   0  0  0  0  0  0  0  0  0  0  0  0
  2  1  1  6
  2  3  1  0
  2 30  1  0
  3  4  1  0
  4  5  2  0
  6  4  1  1
  6  7  1  0
  6 23  1  0
  7  8  1  0
  8  9  1  1
  8 10  1  0
  8 20  1  0
 10 11  1  0
 11 12  1  0
 12 13  2  0
 12 14  1  0
 14 15  1  6
 14 16  1  0
 14 19  1  0
 16 17  1  0
 17 18  1  0
 18 19  1  0
 20 21  2  0
 20 22  1  0
 22 23  1  0
 23 24  1  6
 24 25  1  0
 25 26  1  0
 26 27  2  0
 26 28  1  0
 28 29  1  0
 30 31  2  3
 30 33  1  0
 31 32  1  0
 33 34  2  0
 33 35  1  0
M  CHG  2  34   1  35  -1
M  END
