
     RDKit          3D

 29 31  0  0  0  0  0  0  0  0999 V2000
   -2.0970   -5.2130   -1.5780 O   0  0  0  0  0  0  0  0  0  0  0  0
   -1.4020   -4.2640   -1.1510 C   0  0  0  0  0  0  0  0  0  0  0  0
   -2.0300   -3.0020   -0.9590 N   0  0  0  0  0  0  0  0  0  0  0  0
   -1.1750   -1.9480   -0.4660 C   0  0  0  0  0  0  0  0  0  0  0  0
   -1.6940   -0.7650   -0.2690 C   0  0  0  0  0  0  0  0  0  0  0  0
   -0.8620    0.2780    0.2170 N   0  0  0  0  0  0  0  0  0  0  0  0
   -1.3220    1.4610    0.4750 C   0  0  0  0  0  0  0  0  0  0  0  0
   -2.7030    1.7290    0.2670 N   0  0  0  0  0  0  0  0  0  0  0  0
   -3.1090    2.5090   -0.7290 N   0  0  0  0  0  0  0  0  0  0  0  0
   -4.3920    2.7760   -0.9460 C   0  0  0  0  0  0  0  0  0  0  0  0
   -5.3530    2.2330   -0.1190 C   0  0  0  0  0  0  0  0  0  0  0  0
   -4.9660    1.4190    0.9250 C   0  0  0  0  0  0  0  0  0  0  0  0
   -3.6230    1.1900    1.0850 C   0  0  0  0  0  0  0  0  0  0  0  0
   -3.2540    0.4390    2.0460 O   0  0  0  0  0  0  0  0  0  0  0  0
    0.2360   -2.2150   -0.1970 C   0  0  0  0  0  0  0  0  0  0  0  0
    1.0500   -1.1550    0.2890 N   0  0  0  0  0  0  0  0  0  0  0  0
    1.7610   -0.4110   -0.5010 C   0  0  0  0  0  0  0  0  0  0  0  0
    1.8860   -0.4670   -1.8850 O   0  0  0  0  0  0  0  0  0  0  0  0
    2.9700    0.4270   -2.1810 C   0  0  0  0  0  0  0  0  0  0  0  0
    2.7440    1.4380   -1.2670 O   0  0  0  0  0  0  0  0  0  0  0  0
    2.6250    0.7010   -0.0670 C   0  0  1  0  0  0  0  0  0  0  0  0
    2.0200    1.5350    0.8560 O   0  0  0  0  0  0  0  0  0  0  0  0
    2.8550    1.5870    1.9750 C   0  0  0  0  0  0  0  0  0  0  0  0
    4.5400    2.2560    1.5290 P   0  0  0  0  0  0  0  0  0  0  0  0
    5.6510    1.7990    2.7970 O   0  0  0  0  0  0  0  0  0  0  0  0
    4.5030    3.9950    1.4570 O   0  0  0  0  0  0  0  0  0  0  0  0
    0.7280   -3.3690   -0.3920 N   0  0  0  0  0  0  0  0  0  0  0  0
    0.0230   -4.5170   -0.8750 C   0  0  1  0  0  0  0  0  0  0  0  0
    0.0720   -5.5620    0.0740 O   0  0  0  0  0  0  0  0  0  0  0  0
  1  2  2  0
  2  3  1  0
  2 28  1  0
  3  4  1  0
  4  5  2  3
  4 15  1  0
  5  6  1  0
  6  7  2  3
  7  8  1  0
  8  9  1  0
  8 13  1  0
  9 10  2  0
 10 11  1  0
 11 12  2  0
 12 13  1  0
 13 14  2  0
 15 16  1  0
 15 27  2  0
 16 17  2  3
 17 18  1  0
 17 21  1  0
 18 19  1  0
 19 20  1  0
 20 21  1  0
 21 22  1  1
 22 23  1  0
 23 24  1  0
 24 25  1  0
 24 26  1  0
 27 28  1  0
 28 29  1  1
M  END
