
     RDKit          3D

 28 30  0  0  0  0  0  0  0  0999 V2000
    4.7300    2.4270    0.7510 N   0  0  0  0  0  0  0  0  0  0  0  0
    3.3510    1.9890    0.4860 C   0  0  0  0  0  0  0  0  0  0  0  0
    2.5430    1.9900    1.7290 C   0  0  0  0  0  0  0  0  0  0  0  0
    1.9880    0.8850    2.1750 C   0  0  0  0  0  0  0  0  0  0  0  0
    2.1770   -0.3380    1.4330 N   0  0  0  0  0  0  0  0  0  0  0  0
    1.2610   -0.6820    0.3960 C   0  0  0  0  0  0  0  0  0  0  0  0
    0.1270   -0.0880    0.2930 N   0  0  0  0  0  0  0  0  0  0  0  0
   -0.8450   -0.3800   -0.7220 C   0  0  0  0  0  0  0  0  0  0  0  0
   -0.5630   -1.3030   -1.5910 C   0  0  0  0  0  0  0  0  0  0  0  0
   -1.4600   -1.6860   -2.6610 N   0  0  0  0  0  0  0  0  0  0  0  0
   -2.5680   -1.0430   -2.6930 C   0  0  0  0  0  0  0  0  0  0  0  0
   -2.9140   -0.0720   -1.8140 O   0  0  0  0  0  0  0  0  0  0  0  0
   -2.1290    0.3540   -0.7680 C   0  0  2  0  0  0  0  0  0  0  0  0
   -1.8610    1.7230   -0.7980 O   0  0  0  0  0  0  0  0  0  0  0  0
   -2.9410    2.5470   -0.7660 C   0  0  0  0  0  0  0  0  0  0  0  0
   -3.9880    2.3530    0.7450 P   0  0  0  0  0  0  0  0  0  0  0  0
   -5.5120    3.1380    0.4720 O   0  0  0  0  0  0  0  0  0  0  0  0
   -3.2020    3.1850    2.0500 O   0  0  0  0  0  0  0  0  0  0  0  0
   -2.8290   -0.0460    0.5140 C   0  0  0  0  0  0  0  0  0  0  0  0
   -2.2150    0.2070    1.7680 N   0  0  0  0  0  0  0  0  0  0  0  0
   -3.9550   -0.6060    0.5130 O   0  0  0  0  0  0  0  0  0  0  0  0
    0.6730   -2.0070   -1.5280 N   0  0  0  0  0  0  0  0  0  0  0  0
    0.9510   -3.0440   -2.4840 C   0  0  0  0  0  0  0  0  0  0  0  0
    0.2990   -3.0870   -3.5340 O   0  0  0  0  0  0  0  0  0  0  0  0
    1.9690   -3.9310   -2.1140 O   0  0  0  0  0  0  0  0  0  0  0  0
    2.0300   -4.2270   -0.7090 C   0  0  0  0  0  0  0  0  0  0  0  0
    2.1100   -3.0110    0.1440 C   0  0  0  0  0  0  0  0  0  0  0  0
    1.6870   -1.7460   -0.5480 C   0  0  2  0  0  0  0  0  0  0  0  0
  1  2  1  0
  2  3  1  0
  3  4  2  3
  4  5  1  0
  5  6  1  0
  6  7  2  0
  6 28  1  0
  7  8  1  0
  8  9  2  0
  8 13  1  0
  9 10  1  0
  9 22  1  0
 10 11  2  0
 11 12  1  0
 12 13  1  0
 13 14  1  1
 13 19  1  0
 14 15  1  0
 15 16  1  0
 16 17  1  0
 16 18  1  0
 19 20  1  0
 19 21  2  0
 22 23  1  0
 22 28  1  0
 23 24  2  0
 23 25  1  0
 25 26  1  0
 26 27  1  0
 28 27  1  1
M  END
