
     RDKit          3D

 29 31  0  0  0  0  0  0  0  0999 V2000
   -5.1570   -0.8210    0.2850 C   0  0  0  0  0  0  0  0  0  0  0  0
   -4.3630   -1.4600   -0.5240 C   0  0  0  0  0  0  0  0  0  0  0  0
   -4.9880   -2.2910   -1.6490 C   0  0  0  0  0  0  0  0  0  0  0  0
   -2.9450   -1.4780   -0.4490 C   0  0  0  0  0  0  0  0  0  0  0  0
   -2.3580   -2.1780   -1.4130 O   0  0  0  0  0  0  0  0  0  0  0  0
   -2.0660   -0.8870    0.4590 N   0  0  0  0  0  0  0  0  0  0  0  0
   -2.4360   -0.1560    1.6310 C   0  0  0  0  0  0  0  0  0  0  0  0
   -1.2260   -0.0440    2.5700 C   0  0  0  0  0  0  0  0  0  0  0  0
   -0.1020    0.4640    2.0470 O   0  0  0  0  0  0  0  0  0  0  0  0
    0.1980    0.1780    0.7210 C   0  0  1  0  0  0  0  0  0  0  0  0
   -0.2610    1.2850    0.0020 O   0  0  0  0  0  0  0  0  0  0  0  0
    0.2990    2.4750    0.3730 C   0  0  0  0  0  0  0  0  0  0  0  0
   -0.2630    3.6100   -0.4570 C   0  0  1  0  0  0  0  0  0  0  0  0
    0.3340    4.8010   -0.0470 O   0  0  0  0  0  0  0  0  0  0  0  0
    0.1220    3.3770   -1.8680 C   0  0  0  0  0  0  0  0  0  0  0  0
   -0.3130    2.3410   -2.4490 O   0  0  0  0  0  0  0  0  0  0  0  0
    0.9290    4.2450   -2.5550 O   0  0  0  0  0  0  0  0  0  0  0  0
    1.6490    0.0260    0.5300 C   0  0  0  0  0  0  0  0  0  0  0  0
    2.0920   -1.1620   -0.1540 N   0  0  0  0  0  0  0  0  0  0  0  0
    1.2830   -2.1410   -0.5740 C   0  0  0  0  0  0  0  0  0  0  0  0
    2.0610   -3.0760   -1.1540 N   0  0  0  0  0  0  0  0  0  0  0  0
    3.3290   -2.6950   -1.1020 N   0  0  0  0  0  0  0  0  0  0  0  0
    3.3530   -1.5040   -0.4800 C   0  0  0  0  0  0  0  0  0  0  0  0
    4.5440   -0.7330   -0.2150 N   0  0  0  0  0  0  0  0  0  0  0  0
    6.1380   -1.3460   -0.7210 P   0  0  0  0  0  0  0  0  0  0  0  0
    7.3210   -0.9270    0.4890 O   0  0  0  0  0  0  0  0  0  0  0  0
    6.0330   -3.0760   -0.8810 O   0  0  0  0  0  0  0  0  0  0  0  0
   -0.1010   -1.9750   -0.3310 N   0  0  0  0  0  0  0  0  0  0  0  0
   -0.6300   -0.9740    0.2450 C   0  0  0  0  0  0  0  0  0  0  0  0
  1  2  2  0
  2  3  1  0
  2  4  1  0
  4  5  2  0
  4  6  1  0
  6  7  1  0
  6 29  1  0
  7  8  1  0
  8  9  1  0
  9 10  1  0
 10 11  1  6
 10 18  1  0
 10 29  1  0
 11 12  1  0
 12 13  1  0
 13 14  1  1
 13 15  1  0
 15 16  2  0
 15 17  1  0
 18 19  1  0
 19 20  1  0
 19 23  1  0
 20 21  2  0
 20 28  1  0
 21 22  1  0
 22 23  2  0
 23 24  1  0
 24 25  1  0
 25 26  1  0
 25 27  1  0
 28 29  2  0
M  END
