
     RDKit          3D

 29 31  0  0  0  0  0  0  0  0999 V2000
    8.0670    1.9430    1.7070 N   0  0  0  0  0  0  0  0  0  0  0  0
    7.1160    1.3570    0.8310 C   0  0  0  0  0  0  0  0  0  0  0  0
    7.5700    0.5790   -0.0700 O   0  0  0  0  0  0  0  0  0  0  0  0
    5.7500    1.5820    0.9020 O   0  0  0  0  0  0  0  0  0  0  0  0
    4.8980    0.9640   -0.0020 C   0  0  0  0  0  0  0  0  0  0  0  0
    5.4450    0.1870   -0.8960 N   0  0  0  0  0  0  0  0  0  0  0  0
    4.6760   -0.4820   -1.8540 O   0  0  0  0  0  0  0  0  0  0  0  0
    3.6170   -1.3330   -1.5760 C   0  0  0  0  0  0  0  0  0  0  0  0
    2.4420   -0.8280   -0.8790 C   0  0  2  0  0  0  0  0  0  0  0  0
    1.2800   -0.6020   -1.7190 N   0  0  0  0  0  0  0  0  0  0  0  0
    0.3740    0.1840   -0.8990 C   0  0  0  0  0  0  0  0  0  0  0  0
   -0.9970    0.2630   -1.0370 N   0  0  0  0  0  0  0  0  0  0  0  0
   -2.0320   -0.2260   -0.6340 C   0  0  0  0  0  0  0  0  0  0  0  0
   -3.3510    0.3230   -1.2020 C   0  0  2  0  0  0  0  0  0  0  0  0
   -3.9260    1.3820   -0.3340 C   0  0  0  0  0  0  0  0  0  0  0  0
   -3.0750    2.5100   -0.2440 O   0  0  0  0  0  0  0  0  0  0  0  0
   -3.8350    3.6740    0.7900 P   0  0  0  0  0  0  0  0  0  0  0  0
   -3.1200    5.2480    0.5450 O   0  0  0  0  0  0  0  0  0  0  0  0
   -5.5390    3.8090    0.4610 O   0  0  0  0  0  0  0  0  0  0  0  0
   -4.1790   -0.7670   -1.2880 O   0  0  0  0  0  0  0  0  0  0  0  0
   -4.6770   -1.2280   -0.1030 C   0  0  0  0  0  0  0  0  0  0  0  0
   -3.5750   -1.6090    0.8280 C   0  0  0  0  0  0  0  0  0  0  0  0
   -2.2400   -1.2700    0.3070 N   0  0  0  0  0  0  0  0  0  0  0  0
   -1.1330   -2.0450    0.7790 C   0  0  0  0  0  0  0  0  0  0  0  0
   -1.1240   -3.4630    0.2600 C   0  0  0  0  0  0  0  0  0  0  0  0
   -2.1950   -4.2350    0.5800 O   0  0  0  0  0  0  0  0  0  0  0  0
    1.1180    0.8140   -0.0110 N   0  0  0  0  0  0  0  0  0  0  0  0
    2.5010    0.4760   -0.2110 C   0  0  0  0  0  0  0  0  0  0  0  0
    3.4760    1.2860    0.1900 C   0  0  0  0  0  0  0  0  0  0  0  0
  1  2  1  0
  2  3  2  0
  2  4  1  0
  4  5  1  0
  5  6  2  0
  5 29  1  0
  6  7  1  0
  7  8  1  0
  9  8  1  6
  9 10  1  0
  9 28  1  0
 10 11  1  0
 11 12  1  0
 11 27  2  0
 12 13  2  3
 13 14  1  0
 13 23  1  0
 14 15  1  1
 14 20  1  0
 15 16  1  0
 16 17  1  0
 17 18  1  0
 17 19  1  0
 20 21  1  0
 21 22  1  0
 22 23  1  0
 23 24  1  0
 24 25  1  0
 25 26  1  0
 27 28  1  0
 28 29  2  0
M  END
