
     RDKit          3D

 28 30  0  0  0  0  0  0  0  0999 V2000
    3.5920    0.1140   -2.1760 O   0  0  0  0  0  0  0  0  0  0  0  0
    3.4250    0.6340   -1.0300 C   0  0  0  0  0  0  0  0  0  0  0  0
    4.3220    0.2210    0.1020 C   0  0  0  0  0  0  0  0  0  0  0  0
    3.7820    0.6200    1.3760 N   0  0  0  0  0  0  0  0  0  0  0  0
    3.1480    1.8970    1.3650 C   0  0  0  0  0  0  0  0  0  0  0  0
    1.9000    1.7840    0.4770 C   0  0  0  0  0  0  0  0  0  0  0  0
    2.4000    1.5860   -0.8570 N   0  0  0  0  0  0  0  0  0  0  0  0
    1.8510    2.3540   -1.9330 C   0  0  0  0  0  0  0  0  0  0  0  0
    0.7300    1.7640   -2.6020 N   0  0  0  0  0  0  0  0  0  0  0  0
    0.7940    0.5480   -3.2240 N   0  0  0  0  0  0  0  0  0  0  0  0
    0.2960   -0.5660   -2.8640 C   0  0  0  0  0  0  0  0  0  0  0  0
    0.4150   -1.7830   -3.5770 O   0  0  0  0  0  0  0  0  0  0  0  0
   -0.2600   -2.7560   -2.8610 C   0  0  0  0  0  0  0  0  0  0  0  0
   -0.3660   -4.1710   -3.2830 C   0  0  0  0  0  0  0  0  0  0  0  0
   -1.1010   -4.9230   -2.3720 O   0  0  0  0  0  0  0  0  0  0  0  0
   -0.7800   -2.2720   -1.7850 N   0  0  0  0  0  0  0  0  0  0  0  0
   -0.4800   -0.8750   -1.6960 C   0  0  0  0  0  0  0  0  0  0  0  0
   -0.8600   -0.0920   -0.7240 C   0  0  0  0  0  0  0  0  0  0  0  0
   -1.6520   -0.5840    0.3920 C   0  0  0  0  0  0  0  0  0  0  0  0
   -2.0130    0.2320    1.3470 C   0  0  0  0  0  0  0  0  0  0  0  0
   -2.8120   -0.2260    2.4880 C   0  0  1  0  0  0  0  0  0  0  0  0
   -3.9650    0.5620    2.6550 O   0  0  0  0  0  0  0  0  0  0  0  0
   -3.8140    1.4090    4.1550 P   0  0  0  0  0  0  0  0  0  0  0  0
   -5.3000    1.3110    5.0460 O   0  0  0  0  0  0  0  0  0  0  0  0
   -3.5660    3.1020    3.7690 O   0  0  0  0  0  0  0  0  0  0  0  0
   -3.1170   -1.5750    2.4150 O   0  0  0  0  0  0  0  0  0  0  0  0
   -2.7390   -2.4130    1.4220 C   0  0  0  0  0  0  0  0  0  0  0  0
   -2.0320   -1.9580    0.4370 N   0  0  0  0  0  0  0  0  0  0  0  0
  1  2  2  0
  2  3  1  0
  2  7  1  0
  3  4  1  0
  4  5  1  0
  5  6  1  0
  6  7  1  0
  7  8  1  0
  8  9  1  0
  9 10  1  0
 10 11  2  3
 11 12  1  0
 11 17  1  0
 12 13  1  0
 13 14  1  0
 13 16  2  0
 14 15  1  0
 16 17  1  0
 17 18  2  3
 18 19  1  0
 19 20  2  0
 19 28  1  0
 20 21  1  0
 21 22  1  6
 21 26  1  0
 22 23  1  0
 23 24  1  0
 23 25  1  0
 26 27  1  0
 27 28  2  0
M  END
