
     RDKit          3D

 29 31  0  0  0  0  0  0  0  0999 V2000
   -6.4740   -1.5760    1.3510 N   0  0  0  0  0  0  0  0  0  0  0  0
   -6.1530   -0.5930    0.3470 C   0  0  1  0  0  0  0  0  0  0  0  0
   -6.4540    0.7940    0.8960 C   0  0  0  0  0  0  0  0  0  0  0  0
   -6.1460    1.7520   -0.0680 O   0  0  0  0  0  0  0  0  0  0  0  0
   -4.7480   -0.7130   -0.0810 C   0  0  0  0  0  0  0  0  0  0  0  0
   -4.0400   -1.6230    0.4670 O   0  0  0  0  0  0  0  0  0  0  0  0
   -4.1730    0.1090   -1.0370 O   0  0  0  0  0  0  0  0  0  0  0  0
   -2.8220   -0.0820   -1.3770 C   0  0  0  0  0  0  0  0  0  0  0  0
   -1.9760    0.1240   -0.2050 C   0  0  0  0  0  0  0  0  0  0  0  0
   -2.4990    0.4420    0.8880 O   0  0  0  0  0  0  0  0  0  0  0  0
   -0.5430   -0.0280   -0.2580 N   0  0  0  0  0  0  0  0  0  0  0  0
    0.3770    0.1540    0.8460 C   0  0  0  0  0  0  0  0  0  0  0  0
    1.5530    0.8060    0.1000 C   0  0  2  0  0  0  0  0  0  0  0  0
    1.0220    2.1550   -0.3590 C   0  0  0  0  0  0  0  0  0  0  0  0
    1.5720    2.2310   -1.7600 C   0  0  0  0  0  0  0  0  0  0  0  0
    1.9130    0.9850   -2.1900 O   0  0  0  0  0  0  0  0  0  0  0  0
    1.6810    0.0730   -1.1750 C   0  0  1  0  0  0  0  0  0  0  0  0
    2.6280   -1.0580   -1.2460 C   0  0  0  0  0  0  0  0  0  0  0  0
    3.9740   -0.6110   -0.9540 N   0  0  0  0  0  0  0  0  0  0  0  0
    4.8280   -0.0750   -1.8810 C   0  0  0  0  0  0  0  0  0  0  0  0
    5.9910    0.2580   -1.3030 N   0  0  0  0  0  0  0  0  0  0  0  0
    5.8560   -0.0680   -0.0350 N   0  0  0  0  0  0  0  0  0  0  0  0
    4.6360   -0.6000    0.2030 C   0  0  0  0  0  0  0  0  0  0  0  0
    4.1520   -1.0810    1.4620 N   0  0  0  0  0  0  0  0  0  0  0  0
    5.1180   -1.0230    2.9660 P   0  0  0  0  0  0  0  0  0  0  0  0
    6.0160    0.4550    3.0930 O   0  0  0  0  0  0  0  0  0  0  0  0
    6.1480   -2.4050    3.1270 O   0  0  0  0  0  0  0  0  0  0  0  0
    0.2500   -0.3790   -1.3780 C   0  0  0  0  0  0  0  0  0  0  0  0
   -0.1490   -0.9750   -2.3990 O   0  0  0  0  0  0  0  0  0  0  0  0
  2  1  1  1
  2  3  1  0
  2  5  1  0
  3  4  1  0
  5  6  2  0
  5  7  1  0
  7  8  1  0
  8  9  1  0
  9 10  2  0
  9 11  1  0
 11 12  1  0
 11 28  1  0
 13 12  1  1
 13 14  1  0
 13 17  1  0
 14 15  1  0
 15 16  1  0
 16 17  1  0
 17 18  1  1
 17 28  1  0
 18 19  1  0
 19 20  1  0
 19 23  1  0
 20 21  2  0
 21 22  1  0
 22 23  2  0
 23 24  1  0
 24 25  1  0
 25 26  1  0
 25 27  1  0
 28 29  2  0
M  END
