
     RDKit          3D

 29 31  0  0  0  0  0  0  0  0999 V2000
   -5.4940   -0.4280    3.2820 N   0  0  0  0  0  0  0  0  0  0  0  0
   -4.7050   -0.3590    2.1380 N   0  0  0  0  0  0  0  0  0  0  0  0
   -3.4160    0.2340    2.1780 C   0  0  0  0  0  0  0  0  0  0  0  0
   -3.0240    0.6890    3.2830 O   0  0  0  0  0  0  0  0  0  0  0  0
   -2.6110    0.3040    1.0120 N   0  0  0  0  0  0  0  0  0  0  0  0
   -2.9900   -0.1950   -0.2940 C   0  0  0  0  0  0  0  0  0  0  0  0
   -1.7300    0.0500   -1.1360 C   0  0  1  0  0  0  0  0  0  0  0  0
   -1.6200   -0.7840   -2.3120 C   0  0  0  0  0  0  0  0  0  0  0  0
   -1.0950   -0.0330   -3.5220 C   0  0  0  0  0  0  0  0  0  0  0  0
   -1.7300    1.2160   -3.6730 O   0  0  0  0  0  0  0  0  0  0  0  0
   -1.7940    2.0530   -2.5700 C   0  0  0  0  0  0  0  0  0  0  0  0
   -1.9850    3.3130   -2.7200 O   0  0  0  0  0  0  0  0  0  0  0  0
   -1.6450    1.4800   -1.2890 N   0  0  0  0  0  0  0  0  0  0  0  0
   -1.4080    2.0730    0.0210 C   0  0  0  0  0  0  0  0  0  0  0  0
   -1.2740    0.8800    0.9000 C   0  0  2  0  0  0  0  0  0  0  0  0
   -0.6810   -0.1690   -0.0580 C   0  0  1  0  0  0  0  0  0  0  0  0
   -0.8540   -1.4040    0.5040 O   0  0  0  0  0  0  0  0  0  0  0  0
    0.6650    0.1440   -0.4690 C   0  0  0  0  0  0  0  0  0  0  0  0
    0.8200    1.3040   -0.9890 O   0  0  0  0  0  0  0  0  0  0  0  0
    1.8130   -0.6430   -0.3760 N   0  0  0  0  0  0  0  0  0  0  0  0
    3.0880   -0.1330   -0.8260 C   0  0  0  0  0  0  0  0  0  0  0  0
    3.8780    0.5850    0.2250 C   0  0  0  0  0  0  0  0  0  0  0  0
    5.0700    0.9990   -0.4180 O   0  0  0  0  0  0  0  0  0  0  0  0
    6.0950    1.8520    0.6860 P   0  0  0  0  0  0  0  0  0  0  0  0
    7.5990    2.1550   -0.1250 O   0  0  0  0  0  0  0  0  0  0  0  0
    1.7500   -1.9800    0.1440 C   0  0  0  0  0  0  0  0  0  0  0  0
    1.9000   -2.0610    1.6200 C   0  0  0  0  0  0  0  0  0  0  0  0
    1.8530   -3.3590    2.1960 N   0  0  0  0  0  0  0  0  0  0  0  0
    2.0630   -1.0660    2.3640 O   0  0  0  0  0  0  0  0  0  0  0  0
  1  2  1  0
  2  3  1  0
  3  4  2  0
  3  5  1  0
  5  6  1  0
  5 15  1  0
  7  6  1  1
  7  8  1  0
  7 13  1  0
  7 16  1  0
  8  9  1  0
  9 10  1  0
 10 11  1  0
 11 12  2  0
 11 13  1  0
 13 14  1  0
 15 14  1  6
 15 16  1  0
 16 17  1  1
 16 18  1  0
 18 19  2  0
 18 20  1  0
 20 21  1  0
 20 26  1  0
 21 22  1  0
 22 23  1  0
 23 24  1  0
 24 25  1  0
 26 27  1  0
 27 28  1  0
 27 29  2  0
M  END
