
     RDKit          3D

 23 25  0  0  0  0  0  0  0  0999 V2000
   -4.1830   -2.7300   -0.4080 C   0  0  0  0  0  0  0  0  0  0  0  0
   -4.4440   -1.5560    0.0430 C   0  0  0  0  0  0  0  0  0  0  0  0
   -5.8430   -1.3400    0.4000 N   0  0  0  0  0  0  0  0  0  0  0  0
   -3.5720   -0.4170    0.2510 C   0  0  0  0  0  0  0  0  0  0  0  0
   -4.0930    0.7290    0.7460 C   0  0  0  0  0  0  0  0  0  0  0  0
   -3.3100    1.9150    0.9880 C   0  0  0  0  0  0  0  0  0  0  0  0
   -3.8830    3.0040    1.4730 C   0  0  0  0  0  0  0  0  0  0  0  0
   -2.9680    4.4580    1.7800 Cl  0  0  0  0  0  0  0  0  0  0  0  0
   -1.9630    1.8580    0.6950 O   0  0  0  0  0  0  0  0  0  0  0  0
   -1.3780    0.7120    0.1880 C   0  0  0  0  0  0  0  0  0  0  0  0
    0.0130    0.6920   -0.1020 N   0  0  0  0  0  0  0  0  0  0  0  0
    0.7920   -0.1680    0.4530 C   0  0  0  0  0  0  0  0  0  0  0  0
    2.2080   -0.1280    0.1080 C   0  0  0  0  0  0  0  0  0  0  0  0
    3.1970   -0.9340    0.5700 N   0  0  0  0  0  0  0  0  0  0  0  0
    4.3720   -0.5920    0.0230 C   0  0  0  0  0  0  0  0  0  0  0  0
    5.6670   -1.0680    0.1390 C   0  0  0  0  0  0  0  0  0  0  0  0
    6.6970   -0.4930   -0.5720 C   0  0  0  0  0  0  0  0  0  0  0  0
    6.4550    0.5600   -1.4060 C   0  0  0  0  0  0  0  0  0  0  0  0
    5.1580    1.0420   -1.5280 C   0  0  0  0  0  0  0  0  0  0  0  0
    4.1280    0.4750   -0.8230 C   0  0  0  0  0  0  0  0  0  0  0  0
    2.8260    0.7200   -0.7430 N   0  0  0  0  0  0  0  0  0  0  0  0
   -2.1500   -0.3660   -0.0200 C   0  0  0  0  0  0  0  0  0  0  0  0
   -1.3420   -1.7710   -0.6600 Cl  0  0  0  0  0  0  0  0  0  0  0  0
  1  2  2  0
  2  3  1  0
  2  4  1  0
  4  5  2  0
  4 22  1  0
  5  6  1  0
  6  7  2  3
  6  9  1  0
  7  8  1  0
  9 10  1  0
 10 11  1  0
 10 22  2  0
 11 12  2  3
 12 13  1  0
 13 14  2  0
 13 21  1  0
 14 15  1  0
 15 16  2  0
 15 20  1  0
 16 17  1  0
 17 18  2  0
 18 19  1  0
 19 20  2  0
 20 21  1  0
 22 23  1  0
M  END
