
     RDKit          3D

 23 25  0  0  0  0  0  0  0  0999 V2000
   -2.9930    1.4230    1.0340 C   0  0  0  0  0  0  0  0  0  0  0  0
   -3.7770    0.5990    0.4260 C   0  0  0  0  0  0  0  0  0  0  0  0
   -5.4950    1.1040    0.4230 Cl  0  0  0  0  0  0  0  0  0  0  0  0
   -3.3890   -0.5490   -0.3270 C   0  0  0  0  0  0  0  0  0  0  0  0
   -4.4270   -1.3140   -0.8190 C   0  0  0  0  0  0  0  0  0  0  0  0
   -3.9720   -2.5180   -1.6080 C   0  0  1  0  0  0  0  0  0  0  0  0
   -3.2650   -1.9010   -3.1120 Cl  0  0  0  0  0  0  0  0  0  0  0  0
   -2.8950   -3.2290   -0.7820 C   0  0  0  0  0  0  0  0  0  0  0  0
   -1.6840   -2.3190   -0.6700 C   0  0  0  0  0  0  0  0  0  0  0  0
   -2.0800   -0.9010   -0.7380 N   0  0  0  0  0  0  0  0  0  0  0  0
   -1.2110    0.0510   -1.3330 C   0  0  0  0  0  0  0  0  0  0  0  0
    0.1230    0.2240   -0.5820 C   0  0  0  0  0  0  0  0  0  0  0  0
    0.1440   -0.6110    0.4160 O   0  0  0  0  0  0  0  0  0  0  0  0
    1.1390    1.0680   -0.8680 N   0  0  0  0  0  0  0  0  0  0  0  0
    2.3620    1.2050   -0.1760 C   0  0  0  0  0  0  0  0  0  0  0  0
    3.4440    1.7120   -0.8430 C   0  0  0  0  0  0  0  0  0  0  0  0
    4.6980    1.9300   -0.2960 C   0  0  0  0  0  0  0  0  0  0  0  0
    4.8650    1.6070    1.0510 C   0  0  0  0  0  0  0  0  0  0  0  0
    5.9590    1.7300    1.8010 N   0  0  0  0  0  0  0  0  0  0  0  0
    5.6120    1.2910    3.0530 N   0  0  0  0  0  0  0  0  0  0  0  0
    4.3030    0.9060    3.0200 C   0  0  0  0  0  0  0  0  0  0  0  0
    3.8070    1.1040    1.7290 C   0  0  0  0  0  0  0  0  0  0  0  0
    2.5520    0.8850    1.1730 C   0  0  0  0  0  0  0  0  0  0  0  0
  1  2  2  0
  2  3  1  0
  2  4  1  0
  4  5  2  0
  4 10  1  0
  5  6  1  0
  6  7  1  6
  6  8  1  0
  8  9  1  0
  9 10  1  0
 10 11  1  0
 11 12  1  0
 12 13  2  0
 12 14  1  0
 14 15  1  0
 15 16  2  0
 15 23  1  0
 16 17  1  0
 17 18  2  0
 18 19  1  0
 18 22  1  0
 19 20  1  0
 20 21  2  0
 21 22  1  0
 22 23  2  0
M  END
