
     RDKit          3D

 20 23  0  0  0  0  0  0  0  0999 V2000
    4.5240   -1.4570    0.3660 C   0  0  0  0  0  0  0  0  0  0  0  0
    3.1590   -0.8640    0.2610 C   0  0  0  0  0  0  0  0  0  0  0  0
    2.0430   -1.6870    0.3550 C   0  0  0  0  0  0  0  0  0  0  0  0
    0.7910   -1.1290    0.2570 C   0  0  0  0  0  0  0  0  0  0  0  0
    0.6370    0.2510    0.0630 C   0  0  0  0  0  0  0  0  0  0  0  0
    1.7180    1.0520   -0.0270 C   0  0  0  0  0  0  0  0  0  0  0  0
    3.0030    0.4940    0.0730 C   0  0  0  0  0  0  0  0  0  0  0  0
    4.1980    1.3420   -0.0210 C   0  0  0  0  0  0  0  0  0  0  0  0
   -0.7490    0.7190   -0.1690 C   0  0  0  0  0  0  0  0  0  0  0  0
   -0.9420    1.7070   -1.0240 C   0  0  0  0  0  0  0  0  0  0  0  0
   -2.3220    2.1220   -1.2390 C   0  0  0  0  0  0  0  0  0  0  0  0
   -3.3520    1.5420   -0.6230 C   0  0  0  0  0  0  0  0  0  0  0  0
   -4.6170    2.0320   -0.9120 O   0  0  0  0  0  0  0  0  0  0  0  0
   -3.2010    0.4420    0.3150 C   0  0  1  0  0  0  0  0  0  0  0  0
   -3.9230   -0.8490   -0.0060 C   0  0  0  0  0  0  0  0  0  0  0  0
   -3.0150   -1.9190    0.5800 C   0  0  0  0  0  0  0  0  0  0  0  0
   -3.3630   -2.9870    1.0600 O   0  0  0  0  0  0  0  0  0  0  0  0
   -1.6560   -1.4170    0.4520 C   0  0  0  0  0  0  0  0  0  0  0  0
   -0.4480   -1.8900    0.4340 C   0  0  0  0  0  0  0  0  0  0  0  0
   -1.8030    0.0840    0.6160 C   0  0  1  0  0  0  0  0  0  0  0  0
  1  2  1  0
  2  3  2  0
  2  7  1  0
  3  4  1  0
  4  5  2  0
  4 19  1  0
  5  6  1  0
  5  9  1  0
  6  7  2  0
  7  8  1  0
  9 10  2  0
 20  9  1  6
 10 11  1  0
 11 12  2  0
 12 13  1  0
 12 14  1  0
 14 15  1  6
 14 20  1  0
 15 16  1  0
 16 17  2  0
 16 18  1  0
 18 19  2  0
 18 20  1  0
M  END
