
     RDKit          3D

 23 25  0  0  0  0  0  0  0  0999 V2000
   -3.1980    2.4490   -1.7440 C   0  0  0  0  0  0  0  0  0  0  0  0
   -3.1860    1.2370   -0.8350 C   0  0  0  0  0  0  0  0  0  0  0  0
   -2.4330    0.1980   -1.1260 C   0  0  0  0  0  0  0  0  0  0  0  0
   -2.3550   -0.9920   -0.3290 N   0  0  0  0  0  0  0  0  0  0  0  0
   -1.4900   -2.0730   -0.7060 C   0  0  0  0  0  0  0  0  0  0  0  0
   -0.0440   -1.7070   -0.5870 C   0  0  0  0  0  0  0  0  0  0  0  0
    0.8160   -2.5710   -0.8970 O   0  0  0  0  0  0  0  0  0  0  0  0
    0.4100   -0.4390   -0.1460 N   0  0  0  0  0  0  0  0  0  0  0  0
    1.8000   -0.1230   -0.0450 C   0  0  0  0  0  0  0  0  0  0  0  0
    2.7810   -0.9840   -0.3550 N   0  0  0  0  0  0  0  0  0  0  0  0
    3.9680   -0.3990   -0.1560 C   0  0  0  0  0  0  0  0  0  0  0  0
    5.2910   -0.8020   -0.3070 C   0  0  0  0  0  0  0  0  0  0  0  0
    6.3190    0.0660   -0.0080 C   0  0  0  0  0  0  0  0  0  0  0  0
    7.9900   -0.4590   -0.2030 Cl  0  0  0  0  0  0  0  0  0  0  0  0
    6.0720    1.3530    0.4480 C   0  0  0  0  0  0  0  0  0  0  0  0
    4.7690    1.7550    0.5990 C   0  0  0  0  0  0  0  0  0  0  0  0
    3.7260    0.8740    0.2950 C   0  0  0  0  0  0  0  0  0  0  0  0
    2.3870    1.0110    0.3510 N   0  0  0  0  0  0  0  0  0  0  0  0
   -3.1470   -1.0270    0.8370 C   0  0  0  0  0  0  0  0  0  0  0  0
   -3.1540   -2.1790    1.7440 C   0  0  0  0  0  0  0  0  0  0  0  0
   -3.7910   -3.6050    0.9140 Cl  0  0  0  0  0  0  0  0  0  0  0  0
   -3.9290    0.0130    1.1740 C   0  0  0  0  0  0  0  0  0  0  0  0
   -4.0210    1.2380    0.3760 C   0  0  0  0  0  0  0  0  0  0  0  0
  1  2  1  0
  2  3  2  0
  2 23  1  0
  3  4  1  0
  4  5  1  0
  4 19  1  0
  5  6  1  0
  6  7  2  0
  6  8  1  0
  8  9  1  0
  9 10  2  0
  9 18  1  0
 10 11  1  0
 11 12  2  0
 11 17  1  0
 12 13  1  0
 13 14  1  0
 13 15  2  0
 15 16  1  0
 16 17  2  0
 17 18  1  0
 19 20  1  0
 19 22  2  0
 20 21  1  0
 22 23  1  0
M  END
