
     RDKit          3D

 28 30  0  0  0  0  0  0  0  0999 V2000
   -4.7950    3.2180    0.4710 C   0  0  0  0  0  0  0  0  0  0  0  0
   -5.4580    1.9160    0.1040 C   0  0  0  0  0  0  0  0  0  0  0  0
   -4.4510    0.8880   -0.1340 C   0  0  0  0  0  0  0  0  0  0  0  0
   -3.1160    1.1810   -0.0140 C   0  0  0  0  0  0  0  0  0  0  0  0
   -2.1320    0.2170   -0.2360 C   0  0  0  0  0  0  0  0  0  0  0  0
   -0.7220    0.6110   -0.0870 C   0  0  0  0  0  0  0  0  0  0  0  0
    0.1460   -0.4650   -0.3420 O   0  0  0  0  0  0  0  0  0  0  0  0
    1.5170   -0.3270   -0.2620 C   0  0  0  0  0  0  0  0  0  0  0  0
    2.3130   -1.4260   -0.5250 C   0  0  0  0  0  0  0  0  0  0  0  0
    3.7000   -1.2790   -0.4420 C   0  0  0  0  0  0  0  0  0  0  0  0
    4.2760   -0.0730   -0.1060 C   0  0  0  0  0  0  0  0  0  0  0  0
    5.7200    0.0940   -0.0160 C   0  0  0  0  0  0  0  0  0  0  0  0
    6.3880    1.2010    0.2970 N   0  0  0  0  0  0  0  0  0  0  0  0
    7.6910    0.9560    0.2740 N   0  0  0  0  0  0  0  0  0  0  0  0
    7.8770   -0.3370   -0.0600 C   0  0  0  0  0  0  0  0  0  0  0  0
    9.4360   -1.1670   -0.2290 S   0  0  0  0  0  0  0  0  0  0  0  0
   10.7900   -0.0230    0.1160 C   0  0  0  0  0  0  0  0  0  0  0  0
    6.6570   -0.8540   -0.2350 N   0  0  0  0  0  0  0  0  0  0  0  0
    3.4840    1.0230    0.1570 C   0  0  0  0  0  0  0  0  0  0  0  0
    2.0950    0.8750    0.0730 C   0  0  0  0  0  0  0  0  0  0  0  0
   -2.5210   -1.0620   -0.5850 C   0  0  0  0  0  0  0  0  0  0  0  0
   -3.8750   -1.3680   -0.7090 C   0  0  0  0  0  0  0  0  0  0  0  0
   -4.3080   -2.7370   -1.0830 C   0  0  0  0  0  0  0  0  0  0  0  0
   -4.8220   -0.3840   -0.4800 C   0  0  0  0  0  0  0  0  0  0  0  0
   -6.1970   -0.6810   -0.6020 N   0  0  0  0  0  0  0  0  0  0  0  0
   -7.1330   -1.2510    0.7500 S   0  0  1  0  0  0  0  0  0  0  0  0
   -6.4910   -0.8060    2.0560 O   0  0  0  0  0  0  0  0  0  0  0  0
   -8.5360   -0.7450    0.6610 O   0  0  0  0  0  0  0  0  0  0  0  0
  1  2  1  0
  2  3  1  0
  3  4  2  0
  3 24  1  0
  4  5  1  0
  5  6  1  0
  5 21  2  0
  6  7  1  0
  7  8  1  0
  8  9  2  0
  8 20  1  0
  9 10  1  0
 10 11  2  0
 11 12  1  0
 11 19  1  0
 12 13  2  0
 12 18  1  0
 13 14  1  0
 14 15  2  0
 15 16  1  0
 15 18  1  0
 16 17  1  0
 19 20  2  0
 21 22  1  0
 22 23  1  0
 22 24  2  0
 24 25  1  0
 26 25  1  6
 26 27  2  0
 26 28  2  0
M  END
