
     RDKit          3D

 28 30  0  0  0  0  0  0  0  0999 V2000
   -5.8320    1.8650   -3.9100 C   0  0  0  0  0  0  0  0  0  0  0  0
   -4.2300    2.1470   -3.2400 S   0  0  0  0  0  0  0  0  0  0  0  0
   -3.5050    0.9950   -2.1580 C   0  0  0  0  0  0  0  0  0  0  0  0
   -4.1280    0.1090   -1.4510 C   0  0  0  0  0  0  0  0  0  0  0  0
   -5.6050   -0.1140   -1.4100 C   0  0  0  0  0  0  0  0  0  0  0  0
   -5.9920   -0.0190    0.0850 C   0  0  0  0  0  0  0  0  0  0  0  0
   -5.3390   -1.0760    0.9080 C   0  0  0  0  0  0  0  0  0  0  0  0
   -4.2550   -1.8020    0.1840 C   0  0  0  0  0  0  0  0  0  0  0  0
   -3.4040   -0.8110   -0.5330 C   0  0  0  0  0  0  0  0  0  0  0  0
   -2.1400   -0.7640   -0.3960 N   0  0  0  0  0  0  0  0  0  0  0  0
   -1.3520    0.1760   -1.1210 C   0  0  0  0  0  0  0  0  0  0  0  0
   -0.0380    0.2130   -0.9620 C   0  0  0  0  0  0  0  0  0  0  0  0
    0.5860   -0.7220   -0.0340 C   0  0  0  0  0  0  0  0  0  0  0  0
    0.1090   -1.9930    0.0950 N   0  0  0  0  0  0  0  0  0  0  0  0
    0.6800   -2.8650    0.9520 C   0  0  0  0  0  0  0  0  0  0  0  0
    1.7550   -2.4850    1.7100 C   0  0  0  0  0  0  0  0  0  0  0  0
    2.2410   -1.1850    1.5770 C   0  0  0  0  0  0  0  0  0  0  0  0
    1.6650   -0.2890    0.7050 C   0  0  0  0  0  0  0  0  0  0  0  0
    2.1010    1.0070    0.5330 O   0  0  0  0  0  0  0  0  0  0  0  0
    3.2120    1.4860    1.2560 C   0  0  0  0  0  0  0  0  0  0  0  0
    4.4530    0.7300    0.9180 C   0  0  0  0  0  0  0  0  0  0  0  0
    4.4650   -0.1730    0.0250 O   0  0  0  0  0  0  0  0  0  0  0  0
    5.6660    1.0240    1.6160 N   0  0  0  0  0  0  0  0  0  0  0  0
    6.8750    0.2810    1.2810 C   0  0  2  0  0  0  0  0  0  0  0  0
    7.3460   -0.4930    2.5180 C   0  0  0  0  0  0  0  0  0  0  0  0
    8.2260    1.3790    0.7830 S   0  0  0  0  0  0  0  0  0  0  0  0
    7.8840    2.1820   -0.6720 O   0  0  0  0  0  0  0  0  0  0  0  0
   -2.0470    1.0360   -1.9860 N   0  0  0  0  0  0  0  0  0  0  0  0
  1  2  1  0
  2  3  1  0
  3  4  2  0
  3 28  1  0
  4  5  1  0
  4  9  1  0
  5  6  1  0
  6  7  1  0
  7  8  1  0
  8  9  1  0
  9 10  2  0
 10 11  1  0
 11 12  2  3
 11 28  1  0
 12 13  1  0
 13 14  2  0
 13 18  1  0
 14 15  1  0
 15 16  2  0
 16 17  1  0
 17 18  2  0
 18 19  1  0
 19 20  1  0
 20 21  1  0
 21 22  2  0
 21 23  1  0
 23 24  1  0
 24 25  1  1
 24 26  1  0
 26 27  1  0
M  END
