
     RDKit          3D

 28 30  0  0  0  0  0  0  0  0999 V2000
   -6.1490    3.4530   -1.0910 C   0  0  0  0  0  0  0  0  0  0  0  0
   -4.7300    3.0020   -0.8990 C   0  0  0  0  0  0  0  0  0  0  0  0
   -3.8840    3.2780   -1.7930 O   0  0  0  0  0  0  0  0  0  0  0  0
   -4.3040    2.2590    0.2700 C   0  0  0  0  0  0  0  0  0  0  0  0
   -3.7590    0.9830   -0.1950 N   0  0  0  0  0  0  0  0  0  0  0  0
   -4.6600   -0.1230   -0.3260 C   0  0  0  0  0  0  0  0  0  0  0  0
   -4.6900   -0.8660    1.0190 C   0  0  0  0  0  0  0  0  0  0  0  0
   -5.4340   -0.4100    2.0090 N   0  0  0  0  0  0  0  0  0  0  0  0
   -5.2330   -1.3140    3.0270 C   0  0  0  0  0  0  0  0  0  0  0  0
   -4.3480   -2.3030    2.5780 C   0  0  0  0  0  0  0  0  0  0  0  0
   -4.0650   -1.9170    1.2800 N   0  0  0  0  0  0  0  0  0  0  0  0
   -2.3530    0.8990   -0.4920 C   0  0  0  0  0  0  0  0  0  0  0  0
   -1.7160    2.0220   -0.3480 O   0  0  0  0  0  0  0  0  0  0  0  0
   -1.7510   -0.2640   -0.8910 N   0  0  0  0  0  0  0  0  0  0  0  0
   -0.3730   -0.5220   -1.2240 C   0  0  0  0  0  0  0  0  0  0  0  0
   -0.2180   -1.4840   -2.2670 C   0  0  0  0  0  0  0  0  0  0  0  0
    1.6110   -1.6150   -2.3050 S   0  0  0  0  0  0  0  0  0  0  0  0
    1.9400   -0.3490   -0.8920 C   0  0  0  0  0  0  0  0  0  0  0  0
    3.2830   -0.1740   -0.5180 C   0  0  0  0  0  0  0  0  0  0  0  0
    4.4690   -0.0030   -0.2020 C   0  0  0  0  0  0  0  0  0  0  0  0
    5.8000    0.1740    0.1620 C   0  0  0  0  0  0  0  0  0  0  0  0
    6.5760    1.0730    0.8070 C   0  0  0  0  0  0  0  0  0  0  0  0
    7.9120    0.7010    0.8710 C   0  0  0  0  0  0  0  0  0  0  0  0
    7.8730   -0.6210    0.1580 C   0  0  0  0  0  0  0  0  0  0  0  0
    9.1680   -1.3240    0.0430 C   0  0  0  0  0  0  0  0  0  0  0  0
   10.1280   -0.9760   -1.4190 S   0  0  0  0  0  0  0  0  0  0  0  0
    6.7240   -0.7700   -0.1580 O   0  0  0  0  0  0  0  0  0  0  0  0
    0.6950   -0.0520   -0.6350 C   0  0  0  0  0  0  0  0  0  0  0  0
  1  2  1  0
  2  3  2  0
  2  4  1  0
  4  5  1  0
  5  6  1  0
  5 12  1  0
  6  7  1  0
  7  8  2  0
  7 11  1  0
  8  9  1  0
  9 10  2  0
 10 11  1  0
 12 13  2  0
 12 14  1  0
 14 15  1  0
 15 16  2  0
 15 28  1  0
 16 17  1  0
 17 18  1  0
 18 19  1  0
 18 28  2  0
 19 20  3  0
 20 21  1  0
 21 22  2  0
 21 27  1  0
 22 23  1  0
 23 24  2  0
 24 25  1  0
 24 27  1  0
 25 26  1  0
M  END
