
     RDKit          3D

 16 17  0  0  0  0  0  0  0  0999 V2000
   -4.2890   -0.3340    0.2300 C   0  0  0  0  0  0  0  0  0  0  0  0
   -3.0120    0.0440    0.1230 C   0  0  0  0  0  0  0  0  0  0  0  0
   -1.9910   -0.9090   -0.3410 C   0  0  0  0  0  0  0  0  0  0  0  0
   -0.6470   -0.3360   -0.4010 C   0  0  0  0  0  0  0  0  0  0  0  0
    0.5200   -0.8900   -0.7700 C   0  0  0  0  0  0  0  0  0  0  0  0
    0.7080   -2.2980   -1.2250 C   0  0  0  0  0  0  0  0  0  0  0  0
    1.5700    0.0630   -0.6650 N   0  0  0  0  0  0  0  0  0  0  0  0
    2.9670   -0.1530   -0.9720 C   0  0  0  0  0  0  0  0  0  0  0  0
    3.7560   -0.6370    0.2230 C   0  0  0  0  0  0  0  0  0  0  0  0
    3.7080    0.3610    1.3580 C   0  0  0  0  0  0  0  0  0  0  0  0
    1.0380    1.2880   -0.2050 C   0  0  0  0  0  0  0  0  0  0  0  0
    1.6420    2.3560    0.0110 O   0  0  0  0  0  0  0  0  0  0  0  0
   -0.4040    1.0470   -0.0280 C   0  0  0  0  0  0  0  0  0  0  0  0
   -1.3720    1.8200    0.3720 N   0  0  0  0  0  0  0  0  0  0  0  0
   -2.6820    1.3790    0.4660 N   0  0  0  0  0  0  0  0  0  0  0  0
   -3.7510    2.2760    0.9210 C   0  0  0  0  0  0  0  0  0  0  0  0
  1  2  2  0
  2  3  1  0
  2 15  1  0
  3  4  1  0
  4  5  2  0
  4 13  1  0
  5  6  1  0
  5  7  1  0
  7  8  1  0
  7 11  1  0
  8  9  1  0
  9 10  1  0
 11 12  2  0
 11 13  1  0
 13 14  2  0
 14 15  1  0
 15 16  1  0
M  END
