
     RDKit          3D

 16 17  0  0  0  0  0  0  0  0999 V2000
   -2.4030   -2.9360   -0.8160 C   0  0  0  0  0  0  0  0  0  0  0  0
   -1.9110   -1.5490   -0.5360 C   0  0  0  0  0  0  0  0  0  0  0  0
   -2.8310   -0.5640   -0.2440 C   0  0  0  0  0  0  0  0  0  0  0  0
   -2.3850    0.7150    0.0150 C   0  0  0  0  0  0  0  0  0  0  0  0
   -3.3140    1.8360    0.3390 C   0  0  0  0  0  0  0  0  0  0  0  0
   -1.0080    0.9760   -0.0270 C   0  0  0  0  0  0  0  0  0  0  0  0
   -0.5400    2.2960    0.2370 C   0  0  0  0  0  0  0  0  0  0  0  0
   -0.1710    3.3860    0.4400 N   0  0  0  0  0  0  0  0  0  0  0  0
   -0.1100   -0.0230   -0.3200 C   0  0  0  0  0  0  0  0  0  0  0  0
    1.2720    0.2510   -0.3570 N   0  0  0  0  0  0  0  0  0  0  0  0
    1.9070    0.7220    0.8550 C   0  0  0  0  0  0  0  0  0  0  0  0
    3.2270   -0.0060    1.0420 C   0  0  0  0  0  0  0  0  0  0  0  0
    3.9740    0.2440   -0.1060 O   0  0  0  0  0  0  0  0  0  0  0  0
    3.4620   -0.3320   -1.2480 C   0  0  0  0  0  0  0  0  0  0  0  0
    2.0350    0.0700   -1.5450 C   0  0  0  0  0  0  0  0  0  0  0  0
   -0.6000   -1.2510   -0.5640 N   0  0  0  0  0  0  0  0  0  0  0  0
  1  2  1  0
  2  3  2  0
  2 16  1  0
  3  4  1  0
  4  5  1  0
  4  6  2  0
  6  7  1  0
  6  9  1  0
  7  8  3  0
  9 10  1  0
  9 16  2  0
 10 11  1  0
 10 15  1  0
 11 12  1  0
 12 13  1  0
 13 14  1  0
 14 15  1  0
M  END
