
     RDKit          3D

 13 13  0  0  0  0  0  0  0  0999 V2000
    0.5110    2.9400   -0.6850 O   0  0  0  0  0  0  0  0  0  0  0  0
   -0.4580    2.4100   -0.1410 N   0  0  0  0  0  0  0  0  0  0  0  0
   -1.3420    3.2380    0.5190 O   0  0  0  0  0  0  0  0  0  0  0  0
   -0.7700    1.0250   -0.1300 C   0  0  0  0  0  0  0  0  0  0  0  0
   -2.1230    0.6480   -0.1190 C   0  0  0  0  0  0  0  0  0  0  0  0
   -2.4910   -0.6530   -0.1020 C   0  0  0  0  0  0  0  0  0  0  0  0
   -1.4940   -1.6040   -0.0960 C   0  0  0  0  0  0  0  0  0  0  0  0
   -0.1520   -1.2690   -0.1060 C   0  0  0  0  0  0  0  0  0  0  0  0
    0.2220    0.0820   -0.1230 C   0  0  0  0  0  0  0  0  0  0  0  0
    1.6010    0.3880   -0.1370 N   0  0  0  0  0  0  0  0  0  0  0  0
    2.7580   -0.8120    0.3790 S   0  0  2  0  0  0  0  0  0  0  0  0
    2.1730   -1.6030    1.4960 O   0  0  0  0  0  0  0  0  0  0  0  0
    4.0620   -0.1650    0.7800 O   0  0  0  0  0  0  0  0  0  0  0  0
  1  2  2  0
  2  3  1  0
  2  4  1  0
  4  5  2  0
  4  9  1  0
  5  6  1  0
  6  7  2  0
  7  8  1  0
  8  9  2  0
  9 10  1  0
 11 10  1  1
 11 12  2  0
 11 13  2  0
M  CHG  2   2   1   3  -1
M  END
