
     RDKit          3D

 13 13  0  0  0  0  0  0  0  0999 V2000
   -4.3650   -0.3490    0.1410 C   0  0  0  0  0  0  0  0  0  0  0  0
   -3.2970    0.2820   -0.5420 O   0  0  0  0  0  0  0  0  0  0  0  0
   -1.9790    0.0170   -0.1470 C   0  0  0  0  0  0  0  0  0  0  0  0
   -1.8100   -0.7660    0.7910 O   0  0  0  0  0  0  0  0  0  0  0  0
   -0.8650    0.5960   -0.7640 N   0  0  0  0  0  0  0  0  0  0  0  0
    0.4850    0.3330   -0.3690 C   0  0  0  0  0  0  0  0  0  0  0  0
    1.0670   -0.4260    0.5650 C   0  0  0  0  0  0  0  0  0  0  0  0
    2.4060   -0.4450    0.6690 C   0  0  0  0  0  0  0  0  0  0  0  0
    3.1400    0.3250   -0.1980 C   0  0  0  0  0  0  0  0  0  0  0  0
    4.5420    0.4880   -0.3040 N   0  0  0  0  0  0  0  0  0  0  0  0
    5.3000   -0.1110    0.4510 O   0  0  0  0  0  0  0  0  0  0  0  0
    5.0300    1.3200   -1.2600 O   0  0  0  0  0  0  0  0  0  0  0  0
    1.9360    1.0880   -1.1750 S   0  0  0  0  0  0  0  0  0  0  0  0
  1  2  1  0
  2  3  1  0
  3  4  2  0
  3  5  1  0
  5  6  1  0
  6  7  2  0
  6 13  1  0
  7  8  1  0
  8  9  2  0
  9 10  1  0
  9 13  1  0
 10 11  2  0
 10 12  1  0
M  CHG  2  10   1  12  -1
M  END
