
     RDKit          3D

 13 13  0  0  0  0  0  0  0  0999 V2000
   -0.7230    2.1700    0.5140 O   0  0  0  0  0  0  0  0  0  0  0  0
   -1.1250    1.0330    0.1360 C   0  0  0  0  0  0  0  0  0  0  0  0
   -2.6090    0.8560   -0.1100 C   0  0  0  0  0  0  0  0  0  0  0  0
   -2.8280   -0.5080   -0.4950 N   0  0  0  0  0  0  0  0  0  0  0  0
   -3.2180   -0.7060   -1.6640 O   0  0  0  0  0  0  0  0  0  0  0  0
   -2.6320   -1.5790    0.3460 O   0  0  0  0  0  0  0  0  0  0  0  0
   -0.2150   -0.0020   -0.0430 N   0  0  0  0  0  0  0  0  0  0  0  0
    1.2320    0.1110    0.1830 C   0  0  0  0  0  0  0  0  0  0  0  0
    1.7690    1.3320    0.6100 C   0  0  0  0  0  0  0  0  0  0  0  0
    3.5360    0.9880    0.7460 S   0  0  0  0  0  0  0  0  0  0  0  0
    3.4190   -0.7150    0.2360 C   0  0  0  0  0  0  0  0  0  0  0  0
    2.0880   -0.9030    0.0030 C   0  0  0  0  0  0  0  0  0  0  0  0
    1.6650   -2.2010   -0.4310 O   0  0  0  0  0  0  0  0  0  0  0  0
  1  2  2  0
  2  3  1  0
  2  7  1  0
  3  4  1  0
  4  5  2  0
  4  6  1  0
  7  8  1  0
  8  9  2  0
  8 12  1  0
  9 10  1  0
 10 11  1  0
 11 12  2  0
 12 13  1  0
M  CHG  2   4   1   6  -1
M  END
