
     RDKit          3D

 13 13  0  0  0  0  0  0  0  0999 V2000
    3.3750   -1.1510    1.1770 O   0  0  0  0  0  0  0  0  0  0  0  0
    3.2020   -0.7990   -0.2640 S   0  0  2  0  0  0  0  0  0  0  0  0
    3.7810   -1.9260   -1.0880 O   0  0  0  0  0  0  0  0  0  0  0  0
    4.0530    0.6000   -0.6660 O   0  0  0  0  0  0  0  0  0  0  0  0
    1.5570   -0.6190   -0.6720 N   0  0  0  0  0  0  0  0  0  0  0  0
    0.8140   -0.0620    0.4270 C   0  0  0  0  0  0  0  0  0  0  0  0
   -0.6160    0.1240    0.1540 C   0  0  0  0  0  0  0  0  0  0  0  0
   -1.1540    1.2590   -0.3720 C   0  0  0  0  0  0  0  0  0  0  0  0
   -2.5030    1.3580   -0.5990 C   0  0  0  0  0  0  0  0  0  0  0  0
   -3.3050    0.3390   -0.3050 N   0  0  0  0  0  0  0  0  0  0  0  0
   -4.6560    0.4570   -0.5400 O   0  0  0  0  0  0  0  0  0  0  0  0
   -2.8330   -0.7910    0.2090 C   0  0  0  0  0  0  0  0  0  0  0  0
   -1.4880   -0.9160    0.4460 C   0  0  0  0  0  0  0  0  0  0  0  0
  1  2  2  0
  2  3  2  0
  2  4  1  1
  2  5  1  0
  5  6  1  0
  6  7  1  0
  7  8  2  0
  7 13  1  0
  8  9  1  0
  9 10  2  0
 10 11  1  0
 10 12  1  0
 12 13  2  0
M  CHG  2  10   1  11  -1
M  END
