
     RDKit          3D

 12 12  0  0  0  0  0  0  0  0999 V2000
    3.1670   -0.2890   -0.0860 C   0  0  0  0  0  0  0  0  0  0  0  0
    1.8390    0.8830    0.1660 S   0  0  0  0  0  0  0  0  0  0  0  0
    0.2270    0.1420    0.0120 C   0  0  0  0  0  0  0  0  0  0  0  0
    0.0160   -1.1870   -0.2700 C   0  0  0  0  0  0  0  0  0  0  0  0
   -1.2730   -1.7140   -0.3790 C   0  0  0  0  0  0  0  0  0  0  0  0
   -2.3320   -0.9050   -0.2050 N   0  0  0  0  0  0  0  0  0  0  0  0
   -2.1520    0.3810    0.0670 C   0  0  0  0  0  0  0  0  0  0  0  0
   -3.1740    1.1060    0.2230 O   0  0  0  0  0  0  0  0  0  0  0  0
   -0.8770    0.9430    0.1840 C   0  0  0  0  0  0  0  0  0  0  0  0
   -0.7490    2.3260    0.4770 N   0  0  0  0  0  0  0  0  0  0  0  0
   -1.7240    3.0700    0.6370 O   0  0  0  0  0  0  0  0  0  0  0  0
    0.5060    2.8750    0.5910 O   0  0  0  0  0  0  0  0  0  0  0  0
  1  2  1  0
  2  3  1  0
  3  4  1  0
  3  9  2  0
  4  5  2  0
  5  6  1  0
  6  7  1  0
  7  8  2  0
  7  9  1  0
  9 10  1  0
 10 11  2  0
 10 12  1  0
M  CHG  2  10   1  12  -1
M  END
