
     RDKit          3D

 13 13  0  0  0  0  0  0  0  0999 V2000
   -2.3270    0.6190    0.5590 C   0  0  0  0  0  0  0  0  0  0  0  0
   -0.9470    0.9120    0.1720 C   0  0  0  0  0  0  0  0  0  0  0  0
   -0.4570    2.0900   -0.1350 N   0  0  0  0  0  0  0  0  0  0  0  0
    0.7690    2.2470   -0.4770 N   0  0  0  0  0  0  0  0  0  0  0  0
    1.6880    1.2750   -0.5580 C   0  0  0  0  0  0  0  0  0  0  0  0
    2.8140    1.4520   -0.9130 O   0  0  0  0  0  0  0  0  0  0  0  0
    1.1740    0.0050   -0.2240 C   0  0  0  0  0  0  0  0  0  0  0  0
    2.2200   -0.9550    0.0410 N   0  0  0  0  0  0  0  0  0  0  0  0
    2.5940   -1.7290   -0.7960 O   0  0  0  0  0  0  0  0  0  0  0  0
    2.8210   -0.9490    1.3420 O   0  0  0  0  0  0  0  0  0  0  0  0
   -0.0750   -0.2260    0.1130 C   0  0  0  0  0  0  0  0  0  0  0  0
   -0.6380   -1.6140    0.3330 C   0  0  0  0  0  0  0  0  0  0  0  0
   -0.0980   -2.3260   -0.8470 O   0  0  0  0  0  0  0  0  0  0  0  0
  1  2  1  0
  2  3  2  0
  2 11  1  0
  3  4  1  0
  4  5  1  0
  5  6  2  0
  5  7  1  0
  7  8  1  0
  7 11  2  0
  8  9  2  0
  8 10  1  0
 11 12  1  0
 12 13  1  0
M  CHG  2   8   1  10  -1
M  END
