
     RDKit          3D

 34 37  0  0  0  0  0  0  0  0999 V2000
    5.3760    2.2120    0.3400 C   0  0  0  0  0  0  0  0  0  0  0  0
    5.3810    1.3660   -0.9140 C   0  0  0  0  0  0  0  0  0  0  0  0
    5.7010   -0.0220   -0.5970 N   0  0  0  0  0  0  0  0  0  0  0  0
    7.0990   -0.4100   -0.6200 C   0  0  0  0  0  0  0  0  0  0  0  0
    4.7390   -0.9960   -0.2710 C   0  0  0  0  0  0  0  0  0  0  0  0
    5.1160   -2.1720   -0.0180 O   0  0  0  0  0  0  0  0  0  0  0  0
    3.3060   -0.6490   -0.2240 C   0  0  0  0  0  0  0  0  0  0  0  0
    2.4650   -1.6120    0.0860 C   0  0  0  0  0  0  0  0  0  0  0  0
    1.0400   -1.3660    0.1560 C   0  0  0  0  0  0  0  0  0  0  0  0
    0.4630   -0.1380   -0.0900 C   0  0  0  0  0  0  0  0  0  0  0  0
   -0.9160    0.0540   -0.0110 C   0  0  0  0  0  0  0  0  0  0  0  0
   -1.4990    1.3350   -0.2690 C   0  0  0  0  0  0  0  0  0  0  0  0
   -2.3690    1.5130   -1.3190 C   0  0  0  0  0  0  0  0  0  0  0  0
   -2.9060    2.7660   -1.5290 C   0  0  0  0  0  0  0  0  0  0  0  0
   -2.6270    3.8580   -0.7520 C   0  0  0  0  0  0  0  0  0  0  0  0
   -3.3300    5.4620   -1.0400 S   0  0  0  0  0  0  0  0  0  0  0  0
   -3.1220    6.3140    0.1890 O   0  0  0  0  0  0  0  0  0  0  0  0
   -1.7490    3.6680    0.3040 C   0  0  0  0  0  0  0  0  0  0  0  0
   -1.1980    2.4170    0.5330 C   0  0  0  0  0  0  0  0  0  0  0  0
   -1.6840   -1.0420    0.3260 C   0  0  0  0  0  0  0  0  0  0  0  0
   -3.1370   -0.9710    0.4410 C   0  0  0  0  0  0  0  0  0  0  0  0
   -3.9960   -1.6940   -0.3240 C   0  0  0  0  0  0  0  0  0  0  0  0
   -5.3480   -1.5620   -0.1460 C   0  0  0  0  0  0  0  0  0  0  0  0
   -5.8750   -0.7280    0.7750 N   0  0  0  0  0  0  0  0  0  0  0  0
   -5.0720    0.0070    1.5540 C   0  0  0  0  0  0  0  0  0  0  0  0
   -3.7090   -0.1160    1.3850 C   0  0  0  0  0  0  0  0  0  0  0  0
   -1.0860   -2.2610    0.5680 C   0  0  0  0  0  0  0  0  0  0  0  0
   -1.9050   -3.3990    0.9200 C   0  0  0  0  0  0  0  0  0  0  0  0
   -2.0150   -4.5640    0.2140 C   0  0  0  0  0  0  0  0  0  0  0  0
   -2.8830   -5.3430    0.9030 N   0  0  0  0  0  0  0  0  0  0  0  0
   -3.2790   -4.7020    1.9580 O   0  0  0  0  0  0  0  0  0  0  0  0
   -2.7110   -3.5050    2.0180 C   0  0  0  0  0  0  0  0  0  0  0  0
    0.2460   -2.4080    0.4820 N   0  0  0  0  0  0  0  0  0  0  0  0
    0.8290   -3.6410    0.7290 O   0  0  0  0  0  0  0  0  0  0  0  0
  1  2  1  0
  2  3  1  0
  3  4  1  0
  3  5  1  0
  5  6  2  0
  5  7  1  0
  7  8  2  3
  8  9  1  0
  9 10  2  0
  9 33  1  0
 10 11  1  0
 11 12  1  0
 11 20  2  0
 12 13  2  0
 12 19  1  0
 13 14  1  0
 14 15  2  0
 15 16  1  0
 15 18  1  0
 16 17  2  0
 18 19  2  0
 20 21  1  0
 20 27  1  0
 21 22  2  0
 21 26  1  0
 22 23  1  0
 23 24  2  0
 24 25  1  0
 25 26  2  0
 27 28  1  0
 27 33  2  0
 28 29  1  0
 28 32  2  0
 29 30  2  0
 30 31  1  0
 31 32  1  0
 33 34  1  0
M  CHG  2  33   1  34  -1
M  END
