
     RDKit          3D

 34 38  0  0  0  0  0  0  0  0999 V2000
    6.6330    1.9460    1.9010 C   0  0  0  0  0  0  0  0  0  0  0  0
    7.2030    1.8650    0.5170 C   0  0  0  0  0  0  0  0  0  0  0  0
    7.2200    0.5720   -0.0170 O   0  0  0  0  0  0  0  0  0  0  0  0
    6.0540   -0.1250   -0.2120 C   0  0  0  0  0  0  0  0  0  0  0  0
    6.1520   -1.4170   -0.7370 C   0  0  0  0  0  0  0  0  0  0  0  0
    5.0370   -2.1610   -0.9560 C   0  0  0  0  0  0  0  0  0  0  0  0
    5.0630   -3.5450   -1.5130 C   0  0  0  0  0  0  0  0  0  0  0  0
    3.8110   -1.6010   -0.6460 C   0  0  0  0  0  0  0  0  0  0  0  0
    2.6900   -2.3210   -0.8550 N   0  0  0  0  0  0  0  0  0  0  0  0
    1.4850   -1.8450   -0.5800 C   0  0  0  0  0  0  0  0  0  0  0  0
    1.3070   -0.5960   -0.0670 C   0  0  0  0  0  0  0  0  0  0  0  0
    2.4170    0.1850    0.1680 C   0  0  0  0  0  0  0  0  0  0  0  0
    3.6570   -0.3310   -0.1260 C   0  0  0  0  0  0  0  0  0  0  0  0
    4.8220    0.3980    0.0830 C   0  0  0  0  0  0  0  0  0  0  0  0
   -0.0330   -0.0580    0.2430 C   0  0  0  0  0  0  0  0  0  0  0  0
   -0.1010    1.1040    0.7130 O   0  0  0  0  0  0  0  0  0  0  0  0
   -1.2330   -0.7720    0.0430 N   0  0  0  0  0  0  0  0  0  0  0  0
   -2.4660   -0.1300   -0.3600 C   0  0  2  0  0  0  0  0  0  0  0  0
   -2.3600    0.4710   -1.7400 C   0  0  0  0  0  0  0  0  0  0  0  0
   -3.0270    0.8210    0.6620 C   0  0  0  0  0  0  0  0  0  0  0  0
   -4.2640    1.4380    0.2350 N   0  0  0  0  0  0  0  0  0  0  0  0
   -4.2900    2.6140   -0.4330 C   0  0  0  0  0  0  0  0  0  0  0  0
   -3.1920    3.1860   -0.6770 O   0  0  0  0  0  0  0  0  0  0  0  0
   -5.4670    3.1930   -0.8460 C   0  0  0  0  0  0  0  0  0  0  0  0
   -6.5970    2.5380   -0.5560 N   0  0  0  0  0  0  0  0  0  0  0  0
   -6.6380    1.3820    0.0970 C   0  0  0  0  0  0  0  0  0  0  0  0
   -7.8310    0.7540    0.3700 C   0  0  0  0  0  0  0  0  0  0  0  0
   -7.8760   -0.4560    1.0550 C   0  0  0  0  0  0  0  0  0  0  0  0
   -6.7050   -1.0290    1.4640 C   0  0  0  0  0  0  0  0  0  0  0  0
   -6.6110   -2.5450    2.3330 Cl  0  0  0  0  0  0  0  0  0  0  0  0
   -5.4960   -0.3860    1.1840 C   0  0  0  0  0  0  0  0  0  0  0  0
   -5.4270    0.8110    0.5080 C   0  0  0  0  0  0  0  0  0  0  0  0
   -1.2360   -2.2330    0.2510 C   0  0  0  0  0  0  0  0  0  0  0  0
    0.0600   -2.8610   -0.8870 S   0  0  0  0  0  0  0  0  0  0  0  0
  1  2  1  0
  2  3  1  0
  3  4  1  0
  4  5  2  0
  4 14  1  0
  5  6  1  0
  6  7  1  0
  6  8  2  0
  8  9  1  0
  8 13  1  0
  9 10  2  0
 10 11  1  0
 10 34  1  0
 11 12  2  0
 11 15  1  0
 12 13  1  0
 13 14  2  0
 15 16  2  0
 15 17  1  0
 17 18  1  0
 17 33  1  0
 18 19  1  6
 18 20  1  0
 20 21  1  0
 21 22  1  0
 21 32  1  0
 22 23  2  0
 22 24  1  0
 24 25  2  0
 25 26  1  0
 26 27  2  0
 26 32  1  0
 27 28  1  0
 28 29  2  0
 29 30  1  0
 29 31  1  0
 31 32  2  0
 33 34  1  0
M  END
