
     RDKit          3D

 33 36  0  0  0  0  0  0  0  0999 V2000
   -3.3210    2.1210   -2.6460 C   0  0  0  0  0  0  0  0  0  0  0  0
   -2.4390    1.5220   -1.6330 C   0  0  0  0  0  0  0  0  0  0  0  0
   -1.2980    1.1830   -2.0130 O   0  0  0  0  0  0  0  0  0  0  0  0
   -2.7950    1.3020   -0.2550 N   0  0  0  0  0  0  0  0  0  0  0  0
   -4.0910    1.7730    0.1060 C   0  0  0  0  0  0  0  0  0  0  0  0
   -5.2650    0.9240   -0.2100 C   0  0  0  0  0  0  0  0  0  0  0  0
   -6.4490    1.6160    0.2670 N   0  0  0  0  0  0  0  0  0  0  0  0
   -7.3460    1.9240   -0.5170 O   0  0  0  0  0  0  0  0  0  0  0  0
   -6.5590    1.9220    1.5870 O   0  0  0  0  0  0  0  0  0  0  0  0
   -1.8530    0.7200    0.6230 C   0  0  0  0  0  0  0  0  0  0  0  0
   -1.8390   -0.7420    0.9140 C   0  0  1  0  0  0  0  0  0  0  0  0
   -0.6720   -0.9910    1.7530 N   0  0  0  0  0  0  0  0  0  0  0  0
   -0.7960   -1.4690    3.1240 C   0  0  0  0  0  0  0  0  0  0  0  0
    0.6840   -0.8310    1.3190 C   0  0  0  0  0  0  0  0  0  0  0  0
    1.5970   -0.9670    2.2020 O   0  0  0  0  0  0  0  0  0  0  0  0
    1.0300   -0.5440   -0.0020 N   0  0  0  0  0  0  0  0  0  0  0  0
    2.3460   -0.3460   -0.5250 C   0  0  0  0  0  0  0  0  0  0  0  0
    2.4740   -0.3360   -1.8970 C   0  0  0  0  0  0  0  0  0  0  0  0
    3.7010   -0.1320   -2.4720 C   0  0  0  0  0  0  0  0  0  0  0  0
    4.7940    0.0610   -1.6510 C   0  0  0  0  0  0  0  0  0  0  0  0
    6.0450    0.2720   -2.1880 C   0  0  0  0  0  0  0  0  0  0  0  0
    7.0860    0.4590   -1.3920 C   0  0  0  0  0  0  0  0  0  0  0  0
    8.8030    0.7530   -1.7130 S   0  0  0  0  0  0  0  0  0  0  0  0
    9.3820    0.8680   -0.0060 C   0  0  0  0  0  0  0  0  0  0  0  0
    8.1830    0.6670    0.6970 C   0  0  0  0  0  0  0  0  0  0  0  0
    7.0660    0.4670    0.0150 C   0  0  0  0  0  0  0  0  0  0  0  0
    5.7670    0.2480    0.5640 C   0  0  0  0  0  0  0  0  0  0  0  0
    4.7090    0.0580   -0.2820 C   0  0  0  0  0  0  0  0  0  0  0  0
    3.4360   -0.1540    0.2590 C   0  0  0  0  0  0  0  0  0  0  0  0
   -3.0420   -1.0090    1.8220 C   0  0  0  0  0  0  0  0  0  0  0  0
   -3.7140   -2.2420    1.3580 C   0  0  0  0  0  0  0  0  0  0  0  0
   -3.2970   -2.4200   -0.0580 C   0  0  0  0  0  0  0  0  0  0  0  0
   -1.9840   -1.6710   -0.2180 C   0  0  0  0  0  0  0  0  0  0  0  0
  1  2  1  0
  2  3  2  0
  2  4  1  0
  4  5  1  0
  4 10  1  0
  5  6  1  0
  6  7  1  0
  7  8  2  0
  7  9  1  0
 11 10  1  6
 11 12  1  0
 11 30  1  0
 11 33  1  0
 12 13  1  0
 12 14  1  0
 14 15  2  0
 14 16  1  0
 16 17  1  0
 17 18  2  0
 17 29  1  0
 18 19  1  0
 19 20  2  0
 20 21  1  0
 20 28  1  0
 21 22  2  0
 22 23  1  0
 22 26  1  0
 23 24  1  0
 24 25  2  0
 25 26  1  0
 26 27  2  0
 27 28  1  0
 28 29  2  0
 30 31  1  0
 31 32  1  0
 32 33  1  0
M  CHG  2   7   1   9  -1
M  END
