
     RDKit          3D

 21 22  0  0  0  0  0  0  0  0999 V2000
    4.1650    1.0020    2.4060 C   0  0  0  0  0  0  0  0  0  0  0  0
    3.5050   -0.1360    2.3290 C   0  0  0  0  0  0  0  0  0  0  0  0
    3.9900   -1.2950    1.5280 C   0  0  0  0  0  0  0  0  0  0  0  0
    3.1300   -1.6900    0.5340 O   0  0  0  0  0  0  0  0  0  0  0  0
    2.8950   -0.6900   -0.3640 C   0  0  1  0  0  0  0  0  0  0  0  0
    3.4950   -1.0520   -1.7260 C   0  0  0  0  0  0  0  0  0  0  0  0
    2.9170   -0.1790   -2.8280 C   0  0  0  0  0  0  0  0  0  0  0  0
    1.4210   -0.3620   -2.9680 C   0  0  0  0  0  0  0  0  0  0  0  0
    0.9590   -1.1200   -1.7460 C   0  0  0  0  0  0  0  0  0  0  0  0
    1.4510   -0.3060   -0.5390 C   0  0  1  0  0  0  0  0  0  0  0  0
    0.6170   -0.6570    0.5530 N   0  0  0  0  0  0  0  0  0  0  0  0
   -0.7460   -0.2600    0.5660 C   0  0  0  0  0  0  0  0  0  0  0  0
   -1.2950    0.5780   -0.3790 C   0  0  0  0  0  0  0  0  0  0  0  0
   -2.6350    0.9590   -0.3650 C   0  0  0  0  0  0  0  0  0  0  0  0
   -3.1960    1.8580   -1.3920 C   0  0  0  0  0  0  0  0  0  0  0  0
   -4.5890    2.0940   -1.1270 N   0  0  0  0  0  0  0  0  0  0  0  0
   -3.4540    0.4830    0.6290 C   0  0  0  0  0  0  0  0  0  0  0  0
   -2.9460   -0.3660    1.6070 C   0  0  0  0  0  0  0  0  0  0  0  0
   -3.7920   -0.8370    2.6070 O   0  0  0  0  0  0  0  0  0  0  0  0
   -5.1480   -0.4420    2.6090 C   0  0  0  0  0  0  0  0  0  0  0  0
   -1.6170   -0.7190    1.5600 C   0  0  0  0  0  0  0  0  0  0  0  0
  1  2  2  0
  2  3  1  0
  3  4  1  0
  5  4  1  1
  5  6  1  0
  5 10  1  0
  6  7  1  0
  7  8  1  0
  8  9  1  0
  9 10  1  0
 10 11  1  1
 11 12  1  0
 12 13  2  0
 12 21  1  0
 13 14  1  0
 14 15  1  0
 14 17  2  0
 15 16  1  0
 17 18  1  0
 18 19  1  0
 18 21  2  0
 19 20  1  0
M  CHG  1  16   1
M  END
