
     RDKit          3D

 21 22  0  0  0  0  0  0  0  0999 V2000
   -4.4140    1.4080   -1.0180 C   0  0  0  0  0  0  0  0  0  0  0  0
   -4.7910    0.2220   -0.6390 C   0  0  0  0  0  0  0  0  0  0  0  0
   -4.2480   -0.3540    0.5850 C   0  0  0  0  0  0  0  0  0  0  0  0
   -4.6580   -1.5630    0.9330 C   0  0  0  0  0  0  0  0  0  0  0  0
   -5.6380   -2.3140    0.1130 C   0  0  0  0  0  0  0  0  0  0  0  0
   -3.2720    0.4010    1.4090 C   0  0  0  0  0  0  0  0  0  0  0  0
   -2.1020    0.7230    0.7380 O   0  0  0  0  0  0  0  0  0  0  0  0
   -1.3740   -0.3590    0.2930 C   0  0  1  0  0  0  0  0  0  0  0  0
   -1.1700   -0.3990   -1.2000 C   0  0  0  0  0  0  0  0  0  0  0  0
   -0.1830    0.6130   -1.7160 C   0  0  0  0  0  0  0  0  0  0  0  0
    1.0110    0.5830   -0.8430 N   0  0  0  0  0  0  0  0  0  0  0  0
    2.2420    0.3350   -1.4150 C   0  0  0  0  0  0  0  0  0  0  0  0
    2.2590    0.1890   -2.7110 O   0  0  0  0  0  0  0  0  0  0  0  0
    3.5550    0.2100   -0.7780 C   0  0  0  0  0  0  0  0  0  0  0  0
    4.6820   -0.0120   -1.4910 C   0  0  0  0  0  0  0  0  0  0  0  0
    5.8460   -0.0910   -0.5780 C   0  0  0  0  0  0  0  0  0  0  0  0
    5.1880   -0.6120    0.6820 C   0  0  0  0  0  0  0  0  0  0  0  0
    3.9350    0.2710    0.6390 C   0  0  1  0  0  0  0  0  0  0  0  0
    4.2170    1.5900    1.1380 N   0  0  0  0  0  0  0  0  0  0  0  0
    0.7340    0.8390    0.5230 C   0  0  0  0  0  0  0  0  0  0  0  0
   -0.0430   -0.3760    1.0330 C   0  0  0  0  0  0  0  0  0  0  0  0
  1  2  2  0
  2  3  1  0
  3  4  2  3
  3  6  1  0
  4  5  1  0
  6  7  1  0
  8  7  1  6
  8  9  1  0
  8 21  1  0
  9 10  1  0
 10 11  1  0
 11 12  1  0
 11 20  1  0
 12 13  2  0
 12 14  1  0
 14 15  2  0
 14 18  1  0
 15 16  1  0
 16 17  1  0
 17 18  1  0
 18 19  1  6
 20 21  1  0
M  CHG  1  19   1
M  END
