
     RDKit          3D

 21 22  0  0  0  0  0  0  0  0999 V2000
   -5.8470    0.2640    1.8030 N   0  0  0  0  0  0  0  0  0  0  0  0
   -5.2350    1.0780    0.4180 S   0  0  2  0  0  0  0  0  0  0  0  0
   -5.4410    2.5520    0.6190 O   0  0  0  0  0  0  0  0  0  0  0  0
   -6.0890    0.6520   -0.7580 O   0  0  0  0  0  0  0  0  0  0  0  0
   -3.5590    0.6900    0.1110 C   0  0  0  0  0  0  0  0  0  0  0  0
   -2.5620    1.4540    0.6780 C   0  0  0  0  0  0  0  0  0  0  0  0
   -1.2520    1.1120    0.4080 C   0  0  0  0  0  0  0  0  0  0  0  0
   -0.9040    0.0440   -0.4000 C   0  0  0  0  0  0  0  0  0  0  0  0
    0.4630   -0.2500   -0.6330 N   0  0  0  0  0  0  0  0  0  0  0  0
    0.9550   -1.4400   -0.5150 C   0  0  0  0  0  0  0  0  0  0  0  0
   -0.1140   -2.7660   -0.0440 S   0  0  0  0  0  0  0  0  0  0  0  0
    2.3310   -1.5840   -0.7800 N   0  0  0  0  0  0  0  0  0  0  0  0
    3.3310   -0.6450   -0.4180 C   0  0  0  0  0  0  0  0  0  0  0  0
    3.1200    0.4870    0.3310 C   0  0  0  0  0  0  0  0  0  0  0  0
    4.1210    1.3880    0.6620 C   0  0  0  0  0  0  0  0  0  0  0  0
    5.4020    1.1530    0.2250 C   0  0  0  0  0  0  0  0  0  0  0  0
    6.4050    2.0330    0.5420 F   0  0  0  0  0  0  0  0  0  0  0  0
    5.6650    0.0310   -0.5300 C   0  0  0  0  0  0  0  0  0  0  0  0
    4.6530   -0.8460   -0.8430 C   0  0  0  0  0  0  0  0  0  0  0  0
   -1.9340   -0.6860   -0.9410 C   0  0  0  0  0  0  0  0  0  0  0  0
   -3.2560   -0.3800   -0.6990 C   0  0  0  0  0  0  0  0  0  0  0  0
  2  1  1  1
  2  3  2  0
  2  4  2  0
  2  5  1  0
  5  6  2  0
  5 21  1  0
  6  7  1  0
  7  8  2  0
  8  9  1  0
  8 20  1  0
  9 10  2  3
 10 11  1  0
 10 12  1  0
 12 13  1  0
 13 14  2  0
 13 19  1  0
 14 15  1  0
 15 16  2  0
 16 17  1  0
 16 18  1  0
 18 19  2  0
 20 21  2  0
M  END
