
     RDKit          3D

 21 22  0  0  0  0  0  0  0  0999 V2000
    3.8920   -2.3700    1.6290 C   0  0  0  0  0  0  0  0  0  0  0  0
    3.0290   -1.8420    0.6740 O   0  0  0  0  0  0  0  0  0  0  0  0
    3.7420   -0.9360   -0.0880 C   0  0  0  0  0  0  0  0  0  0  0  0
    2.8890   -0.3110   -1.1370 C   0  0  2  0  0  0  0  0  0  0  0  0
    3.7270    0.8380   -1.7320 C   0  0  0  0  0  0  0  0  0  0  0  0
    1.7740    0.3860   -0.4760 N   0  0  0  0  0  0  0  0  0  0  0  0
    0.4580    0.3360   -1.0030 C   0  0  0  0  0  0  0  0  0  0  0  0
    0.3380   -0.3480   -2.0760 O   0  0  0  0  0  0  0  0  0  0  0  0
   -0.6830    1.0090   -0.3890 C   0  0  0  0  0  0  0  0  0  0  0  0
   -0.6620    2.3880   -0.2050 C   0  0  0  0  0  0  0  0  0  0  0  0
   -1.7020    3.1120    0.3050 C   0  0  0  0  0  0  0  0  0  0  0  0
   -1.6450    4.5900    0.4970 C   0  0  0  0  0  0  0  0  0  0  0  0
   -2.8370    2.4080    0.6550 C   0  0  0  0  0  0  0  0  0  0  0  0
   -2.9180    1.0250    0.4960 C   0  0  0  0  0  0  0  0  0  0  0  0
   -4.1690    0.3830    0.9500 C   0  0  0  0  0  0  0  0  0  0  0  0
   -1.8310    0.3450   -0.0260 C   0  0  0  0  0  0  0  0  0  0  0  0
   -1.8810   -1.1230   -0.0780 C   0  0  0  0  0  0  0  0  0  0  0  0
   -0.8530   -1.9530   -0.0070 C   0  0  0  0  0  0  0  0  0  0  0  0
   -1.2920   -3.3040   -0.1020 N   0  0  0  0  0  0  0  0  0  0  0  0
   -2.6690   -3.2250   -0.2700 C   0  0  0  0  0  0  0  0  0  0  0  0
   -3.0530   -1.9610   -0.2580 C   0  0  0  0  0  0  0  0  0  0  0  0
  1  2  1  0
  2  3  1  0
  3  4  1  0
  4  5  1  1
  4  6  1  0
  6  7  1  0
  7  8  2  0
  7  9  1  0
  9 10  2  0
  9 16  1  0
 10 11  1  0
 11 12  1  0
 11 13  2  0
 13 14  1  0
 14 15  1  0
 14 16  2  0
 16 17  1  0
 17 18  2  0
 17 21  1  0
 18 19  1  0
 19 20  1  0
 20 21  2  0
M  CHG  1  19   1
M  END
