
     RDKit          3D

 19 19  0  0  0  0  0  0  0  0999 V2000
    6.9200   -0.0550   -0.1510 N   0  0  0  0  0  0  0  0  0  0  0  0
    5.5920    0.4570   -0.2450 C   0  0  0  0  0  0  0  0  0  0  0  0
    5.3310    1.5310    0.3350 O   0  0  0  0  0  0  0  0  0  0  0  0
    4.6130   -0.3310   -1.0300 C   0  0  0  0  0  0  0  0  0  0  0  0
    3.3820    0.3400   -0.9970 O   0  0  0  0  0  0  0  0  0  0  0  0
    2.7460    0.5770    0.2070 C   0  0  0  0  0  0  0  0  0  0  0  0
    3.2120    0.2210    1.3120 O   0  0  0  0  0  0  0  0  0  0  0  0
    1.4470    1.2890    0.1760 C   0  0  0  0  0  0  0  0  0  0  0  0
    0.3490    0.2640    0.2660 C   0  0  2  0  0  0  0  0  0  0  0  0
    0.4100   -0.7250   -0.8910 C   0  0  0  0  0  0  0  0  0  0  0  0
   -0.8760   -1.4880   -0.5100 C   0  0  0  0  0  0  0  0  0  0  0  0
   -1.7930   -0.2720   -0.3300 C   0  0  2  0  0  0  0  0  0  0  0  0
   -2.8550   -0.5340    0.6880 C   0  0  0  0  0  0  0  0  0  0  0  0
   -3.7450    0.6640    0.8200 C   0  0  0  0  0  0  0  0  0  0  0  0
   -4.8040    0.4190    1.8090 N   0  0  0  0  0  0  0  0  0  0  0  0
   -2.4670   -0.0320   -1.6480 C   0  0  0  0  0  0  0  0  0  0  0  0
   -3.3020   -1.0710   -2.1370 N   0  0  0  0  0  0  0  0  0  0  0  0
   -2.2980    1.0440   -2.2900 O   0  0  0  0  0  0  0  0  0  0  0  0
   -0.9730    0.8140    0.0690 N   0  0  0  0  0  0  0  0  0  0  0  0
  1  2  1  0
  2  3  2  0
  2  4  1  0
  4  5  1  0
  5  6  1  0
  6  7  2  0
  6  8  1  0
  9  8  1  6
  9 10  1  0
  9 19  1  0
 10 11  1  0
 11 12  1  0
 12 13  1  1
 12 16  1  0
 12 19  1  0
 13 14  1  0
 14 15  1  0
 16 17  1  0
 16 18  2  0
M  CHG  2  15   1  19   1
M  END
