
     RDKit          3D

 14 14  0  0  0  0  0  0  0  0999 V2000
   -1.9360   -1.3380    1.3310 N   0  0  0  0  0  0  0  0  0  0  0  0
   -0.8050   -1.0700    0.4650 C   0  0  1  0  0  0  0  0  0  0  0  0
   -1.0370   -1.8010   -0.8400 C   0  0  0  0  0  0  0  0  0  0  0  0
   -2.1320   -0.8070   -1.8540 S   0  0  0  0  0  0  0  0  0  0  0  0
   -3.3160    0.1470   -0.8770 C   0  0  0  0  0  0  0  0  0  0  0  0
   -2.7010    1.3570   -0.2410 C   0  0  0  0  0  0  0  0  0  0  0  0
   -1.7400    1.0550    0.7030 O   0  0  0  0  0  0  0  0  0  0  0  0
   -0.6630    0.4000    0.1470 C   0  0  1  0  0  0  0  0  0  0  0  0
    0.6210    0.9560    0.6240 C   0  0  0  0  0  0  0  0  0  0  0  0
    0.5900    1.9130    1.4400 O   0  0  0  0  0  0  0  0  0  0  0  0
    1.8320    0.4760    0.2170 O   0  0  0  0  0  0  0  0  0  0  0  0
    3.0820    0.9900    0.6580 C   0  0  0  0  0  0  0  0  0  0  0  0
    4.2150    0.2350    0.0170 C   0  0  0  0  0  0  0  0  0  0  0  0
    4.0900    0.3950   -1.3630 O   0  0  0  0  0  0  0  0  0  0  0  0
  2  1  1  1
  2  3  1  0
  2  8  1  0
  3  4  1  0
  4  5  1  0
  5  6  1  0
  6  7  1  0
  7  8  1  0
  8  9  1  1
  9 10  2  0
  9 11  1  0
 11 12  1  0
 12 13  1  0
 13 14  1  0
M  END
