
     RDKit          3D

 20 20  0  0  0  0  0  0  0  0999 V2000
   -4.8190   -0.0020   -0.6470 C   0  0  0  0  0  0  0  0  0  0  0  0
   -3.6130    0.2720    0.0990 N   0  0  1  0  0  0  0  0  0  0  0  0
   -3.5070   -0.7510    1.1270 C   0  0  0  0  0  0  0  0  0  0  0  0
   -4.7470   -0.9690    1.6870 O   0  0  0  0  0  0  0  0  0  0  0  0
   -2.4790    0.1240   -0.8360 C   0  0  0  0  0  0  0  0  0  0  0  0
   -1.5530    1.2270   -0.6150 C   0  0  0  0  0  0  0  0  0  0  0  0
   -0.3170    1.0990   -0.2420 C   0  0  0  0  0  0  0  0  0  0  0  0
    0.4170   -0.0940    0.0320 C   0  0  0  0  0  0  0  0  0  0  0  0
   -0.1340   -1.3750   -0.0710 O   0  0  0  0  0  0  0  0  0  0  0  0
    1.6980   -0.0500    0.4110 C   0  0  0  0  0  0  0  0  0  0  0  0
    2.3650    1.1840    0.5520 N   0  0  0  0  0  0  0  0  0  0  0  0
    3.6700    1.2350    0.1200 O   0  0  0  0  0  0  0  0  0  0  0  0
    4.3350    0.2730    0.8920 C   0  0  0  0  0  0  0  0  0  0  0  0
    3.8360   -1.1290    0.6210 C   0  0  2  0  0  0  0  0  0  0  0  0
    4.2770   -1.6370   -0.7210 C   0  0  0  0  0  0  0  0  0  0  0  0
    5.6950   -1.6080   -0.9190 N   0  0  0  0  0  0  0  0  0  0  0  0
    2.4360   -1.2120    0.6830 O   0  0  0  0  0  0  0  0  0  0  0  0
   -2.1100    2.5910   -0.8510 C   0  0  0  0  0  0  0  0  0  0  0  0
   -3.4400    2.7760   -1.2580 N   0  0  0  0  0  0  0  0  0  0  0  0
   -1.3490    3.5720   -0.6740 O   0  0  0  0  0  0  0  0  0  0  0  0
  2  1  1  6
  2  3  1  0
  2  5  1  0
  3  4  1  0
  5  6  1  0
  6  7  2  3
  6 18  1  0
  7  8  1  0
  8  9  1  0
  8 10  2  3
 10 11  1  0
 10 17  1  0
 11 12  1  0
 12 13  1  0
 13 14  1  0
 14 15  1  6
 14 17  1  0
 15 16  1  0
 18 19  1  0
 18 20  2  0
M  CHG  2   2   1  16   1
M  END
