
     RDKit          3D

 30 31  0  0  0  0  0  0  0  0999 V2000
   -3.5700   -3.9000    1.8130 C   0  0  0  0  0  0  0  0  0  0  0  0
   -2.2430   -3.6780    1.3730 O   0  0  0  0  0  0  0  0  0  0  0  0
   -1.8620   -2.4140    0.9580 C   0  0  0  0  0  0  0  0  0  0  0  0
   -2.7550   -1.5000    0.9980 O   0  0  0  0  0  0  0  0  0  0  0  0
   -0.5150   -2.1130    0.4930 C   0  0  0  0  0  0  0  0  0  0  0  0
   -0.1920   -0.8960    0.1060 C   0  0  0  0  0  0  0  0  0  0  0  0
   -1.1900    0.0810    0.1630 O   0  0  0  0  0  0  0  0  0  0  0  0
   -1.9650    0.4400   -0.9190 C   0  0  0  0  0  0  0  0  0  0  0  0
   -1.6020   -0.0920   -2.2430 C   0  0  0  0  0  0  0  0  0  0  0  0
   -2.9860    1.2290   -0.7500 C   0  0  0  0  0  0  0  0  0  0  0  0
   -3.8940    1.6820   -1.8540 C   0  0  0  0  0  0  0  0  0  0  0  0
   -5.1740    2.0850   -1.1480 C   0  0  1  0  0  0  0  0  0  0  0  0
   -5.8650    3.2120   -1.8670 C   0  0  0  0  0  0  0  0  0  0  0  0
   -6.0860    0.8650   -1.1120 C   0  0  0  0  0  0  0  0  0  0  0  0
   -4.7670    2.4560    0.2620 C   0  0  0  0  0  0  0  0  0  0  0  0
   -3.4510    1.8200    0.4920 C   0  0  0  0  0  0  0  0  0  0  0  0
   -2.8430    1.7970    1.5800 O   0  0  0  0  0  0  0  0  0  0  0  0
    1.1330   -0.5150   -0.3720 C   0  0  0  0  0  0  0  0  0  0  0  0
    1.3160    0.6790   -0.7120 O   0  0  0  0  0  0  0  0  0  0  0  0
    2.2070   -1.4310   -0.4650 N   0  0  0  0  0  0  0  0  0  0  0  0
    3.5170   -1.0620   -0.9310 C   0  0  0  0  0  0  0  0  0  0  0  0
    4.1010   -0.0250   -0.0340 C   0  0  1  0  0  0  0  0  0  0  0  0
    4.1750   -0.5680    1.2440 O   0  0  0  0  0  0  0  0  0  0  0  0
    5.4700   -0.9470    1.4830 C   0  0  2  0  0  0  0  0  0  0  0  0
    5.8220   -2.0620    0.7080 O   0  0  0  0  0  0  0  0  0  0  0  0
    5.7380   -1.1090    2.8180 O   0  0  0  0  0  0  0  0  0  0  0  0
    7.0210   -1.4800    2.9880 N   0  0  0  0  0  0  0  0  0  0  0  0
    6.2390    0.2390    0.8820 C   0  0  0  0  0  0  0  0  0  0  0  0
    5.5080    0.3700   -0.4370 C   0  0  2  0  0  0  0  0  0  0  0  0
    5.5740    1.7050   -0.9720 N   0  0  0  0  0  0  0  0  0  0  0  0
  1  2  1  0
  2  3  1  0
  3  4  2  0
  3  5  1  0
  5  6  2  3
  6  7  1  0
  6 18  1  0
  7  8  1  0
  8  9  1  0
  8 10  2  3
 10 11  1  0
 10 16  1  0
 11 12  1  0
 12 13  1  6
 12 14  1  0
 12 15  1  0
 15 16  1  0
 16 17  2  0
 18 19  2  0
 18 20  1  0
 20 21  1  0
 22 21  1  6
 22 23  1  0
 22 29  1  0
 23 24  1  0
 24 25  1  6
 24 26  1  0
 24 28  1  0
 26 27  1  0
 28 29  1  0
 29 30  1  1
M  CHG  2  25  -1  30   1
M  END
