
     RDKit          3D

 31 33  0  0  0  0  0  0  0  0999 V2000
    7.5150    1.1680   -1.4120 C   0  0  0  0  0  0  0  0  0  0  0  0
    7.3770   -0.1890   -0.7920 C   0  0  2  0  0  0  0  0  0  0  0  0
    6.1030   -0.7110   -1.0940 O   0  0  0  0  0  0  0  0  0  0  0  0
    4.9980   -0.5560   -0.2790 C   0  0  0  0  0  0  0  0  0  0  0  0
    3.7140   -0.6400   -0.7090 C   0  0  0  0  0  0  0  0  0  0  0  0
    2.6250   -0.4750    0.1600 C   0  0  0  0  0  0  0  0  0  0  0  0
    1.3270   -0.5940   -0.4080 N   0  0  0  0  0  0  0  0  0  0  0  0
    0.0950   -0.3350    0.2290 C   0  0  0  0  0  0  0  0  0  0  0  0
    0.0810    0.0450    1.4170 O   0  0  0  0  0  0  0  0  0  0  0  0
   -1.1700   -0.5030   -0.4740 C   0  0  0  0  0  0  0  0  0  0  0  0
   -1.1550   -0.8780   -1.6500 O   0  0  0  0  0  0  0  0  0  0  0  0
   -2.3760   -0.2390    0.1900 N   0  0  0  0  0  0  0  0  0  0  0  0
   -3.6910   -0.3450   -0.3260 C   0  0  0  0  0  0  0  0  0  0  0  0
   -3.9180   -0.7460   -1.6210 C   0  0  0  0  0  0  0  0  0  0  0  0
   -5.2260   -0.8480   -2.1230 C   0  0  0  0  0  0  0  0  0  0  0  0
   -5.4090   -1.2660   -3.4700 N   0  0  0  0  0  0  0  0  0  0  0  0
   -6.2050   -0.6600   -4.2020 O   0  0  0  0  0  0  0  0  0  0  0  0
   -6.2790   -0.5440   -1.3100 C   0  0  0  0  0  0  0  0  0  0  0  0
   -6.0350   -0.1390    0.0040 C   0  0  0  0  0  0  0  0  0  0  0  0
   -4.7730   -0.0340    0.5070 C   0  0  0  0  0  0  0  0  0  0  0  0
   -4.5240    0.3590    1.7840 O   0  0  0  0  0  0  0  0  0  0  0  0
   -5.4020    0.7220    2.7900 C   0  0  0  0  0  0  0  0  0  0  0  0
   -6.2520    1.8810    2.5360 C   0  0  0  0  0  0  0  0  0  0  0  0
   -6.1620    2.5240    1.4720 O   0  0  0  0  0  0  0  0  0  0  0  0
   -7.1770    2.2860    3.4810 O   0  0  0  0  0  0  0  0  0  0  0  0
    2.8930   -0.2230    1.4680 C   0  0  0  0  0  0  0  0  0  0  0  0
    4.1690   -0.1310    1.9350 C   0  0  0  0  0  0  0  0  0  0  0  0
    5.2230   -0.2980    1.0630 C   0  0  0  0  0  0  0  0  0  0  0  0
    6.5270   -0.2140    1.4900 O   0  0  0  0  0  0  0  0  0  0  0  0
    7.6600   -0.1700    0.6870 C   0  0  1  0  0  0  0  0  0  0  0  0
    8.4880   -1.2350    1.0610 O   0  0  0  0  0  0  0  0  0  0  0  0
  2  1  1  1
  2  3  1  0
  2 30  1  0
  3  4  1  0
  4  5  2  0
  4 28  1  0
  5  6  1  0
  6  7  1  0
  6 26  2  0
  7  8  1  0
  8  9  2  0
  8 10  1  0
 10 11  2  0
 10 12  1  0
 12 13  1  0
 13 14  2  0
 13 20  1  0
 14 15  1  0
 15 16  1  0
 15 18  2  0
 16 17  2  0
 18 19  1  0
 19 20  2  0
 20 21  1  0
 21 22  1  0
 22 23  1  0
 23 24  2  0
 23 25  1  0
 26 27  1  0
 27 28  2  0
 28 29  1  0
 29 30  1  0
 30 31  1  1
M  CHG  2  16   1  31  -1
M  END
