
     RDKit          3D

 30 33  0  0  0  0  0  0  0  0999 V2000
    3.8390   -1.6140    1.3390 O   0  0  0  0  0  0  0  0  0  0  0  0
    3.3470   -0.4960    1.1430 C   0  0  0  0  0  0  0  0  0  0  0  0
    4.0920    0.6210    0.7010 N   0  0  0  0  0  0  0  0  0  0  0  0
    5.4840    0.6140    0.4260 C   0  0  0  0  0  0  0  0  0  0  0  0
    6.2980   -0.4830    0.5520 C   0  0  0  0  0  0  0  0  0  0  0  0
    7.6620   -0.4650    0.2760 C   0  0  0  0  0  0  0  0  0  0  0  0
    8.4340   -1.5940    0.4190 O   0  0  0  0  0  0  0  0  0  0  0  0
    8.2150    0.7260   -0.1470 C   0  0  0  0  0  0  0  0  0  0  0  0
    9.5900    0.7850   -0.4370 O   0  0  0  0  0  0  0  0  0  0  0  0
    7.4580    1.8480   -0.2920 C   0  0  0  0  0  0  0  0  0  0  0  0
    6.0860    1.8010   -0.0060 C   0  0  0  0  0  0  0  0  0  0  0  0
    5.3660    2.9470   -0.1640 O   0  0  0  0  0  0  0  0  0  0  0  0
    1.8690   -0.3810    1.4070 C   0  0  2  0  0  0  0  0  0  0  0  0
    1.0780   -1.2880    0.5210 C   0  0  0  0  0  0  0  0  0  0  0  0
   -0.0040   -0.4390   -0.1130 C   0  0  1  0  0  0  0  0  0  0  0  0
   -1.2510   -0.7770    0.5160 N   0  0  0  0  0  0  0  0  0  0  0  0
   -2.3870   -0.1250   -0.0750 C   0  0  1  0  0  0  0  0  0  0  0  0
   -2.6500   -0.5300   -1.4890 C   0  0  0  0  0  0  0  0  0  0  0  0
   -4.0010   -0.6130   -1.6870 O   0  0  0  0  0  0  0  0  0  0  0  0
   -4.6550   -0.4570   -0.4970 C   0  0  1  0  0  0  0  0  0  0  0  0
   -5.0240    1.0280   -0.3760 C   0  0  0  0  0  0  0  0  0  0  0  0
   -6.4460    1.2320   -0.8090 C   0  0  0  0  0  0  0  0  0  0  0  0
   -7.3440    0.5670    0.0830 N   0  0  0  0  0  0  0  0  0  0  0  0
   -8.6260    0.6910   -0.2780 O   0  0  0  0  0  0  0  0  0  0  0  0
   -6.9540   -0.7550    0.4570 C   0  0  0  0  0  0  0  0  0  0  0  0
   -5.8550   -1.3380   -0.3690 C   0  0  0  0  0  0  0  0  0  0  0  0
   -3.6320   -0.7040    0.6140 C   0  0  0  0  0  0  0  0  0  0  0  0
    0.4400    0.9320    0.1560 C   0  0  0  0  0  0  0  0  0  0  0  0
    0.0770    2.0270   -0.3820 O   0  0  0  0  0  0  0  0  0  0  0  0
    1.3970    0.9090    1.1620 O   0  0  0  0  0  0  0  0  0  0  0  0
  1  2  2  0
  2  3  1  0
 13  2  1  6
  3  4  1  0
  4  5  2  0
  4 11  1  0
  5  6  1  0
  6  7  1  0
  6  8  2  0
  8  9  1  0
  8 10  1  0
 10 11  2  0
 11 12  1  0
 13 14  1  0
 13 30  1  0
 14 15  1  0
 15 16  1  1
 15 28  1  0
 17 16  1  1
 17 18  1  0
 17 27  1  0
 18 19  1  0
 19 20  1  0
 20 21  1  1
 20 26  1  0
 20 27  1  0
 21 22  1  0
 22 23  1  0
 23 24  1  0
 23 25  1  0
 25 26  1  0
 28 29  2  0
 28 30  1  0
M  CHG  2  16   1  24  -1
M  END
