
     RDKit          3D

 38 41  0  0  0  0  0  0  0  0999 V2000
  -12.3900   -0.4290   -0.1080 C   0  0  0  0  0  0  0  0  0  0  0  0
  -11.0300   -0.8120    0.3260 C   0  0  0  0  0  0  0  0  0  0  0  0
  -10.5220   -2.0910    0.4820 C   0  0  0  0  0  0  0  0  0  0  0  0
   -9.2100   -1.9090    0.9050 C   0  0  0  0  0  0  0  0  0  0  0  0
   -8.9980   -0.5600    0.9810 C   0  0  0  0  0  0  0  0  0  0  0  0
   -7.7390    0.0950    1.3900 C   0  0  0  0  0  0  0  0  0  0  0  0
   -6.8640    0.3470    0.2530 N   0  0  0  0  0  0  0  0  0  0  0  0
   -5.6220    0.9630    0.4530 C   0  0  0  0  0  0  0  0  0  0  0  0
   -5.3110    1.2840    1.6520 O   0  0  0  0  0  0  0  0  0  0  0  0
   -4.6670    1.2600   -0.6090 C   0  0  2  0  0  0  0  0  0  0  0  0
   -5.2580    2.0800   -1.7560 C   0  0  0  0  0  0  0  0  0  0  0  0
   -3.9000    1.8750   -2.9800 S   0  0  0  0  0  0  0  0  0  0  0  0
   -3.0880    0.4140   -2.2370 C   0  0  1  0  0  0  0  0  0  0  0  0
   -1.7630    0.7860   -1.6760 C   0  0  0  0  0  0  0  0  0  0  0  0
   -1.3200    1.9440   -1.7200 O   0  0  0  0  0  0  0  0  0  0  0  0
   -1.0040   -0.2470   -1.0780 N   0  0  0  0  0  0  0  0  0  0  0  0
    0.2770   -0.1090   -0.4820 C   0  0  0  0  0  0  0  0  0  0  0  0
    0.9620   -1.2810   -0.1970 C   0  0  0  0  0  0  0  0  0  0  0  0
    2.1970   -1.2250    0.3870 C   0  0  0  0  0  0  0  0  0  0  0  0
    2.8260   -0.0090    0.7230 C   0  0  0  0  0  0  0  0  0  0  0  0
    4.0500   -0.0160    1.3020 O   0  0  0  0  0  0  0  0  0  0  0  0
    4.9200    0.9380    1.7230 C   0  0  0  0  0  0  0  0  0  0  0  0
    5.4950    1.8790    0.7170 C   0  0  1  0  0  0  0  0  0  0  0  0
    6.3730    2.7480    1.4170 O   0  0  0  0  0  0  0  0  0  0  0  0
    6.2930    1.1570   -0.3550 C   0  0  0  0  0  0  0  0  0  0  0  0
    7.3570    0.3990    0.2300 N   0  0  0  0  0  0  0  0  0  0  0  0
    8.2670   -0.3850   -0.5590 C   0  0  0  0  0  0  0  0  0  0  0  0
    8.0840   -0.3740   -1.7960 O   0  0  0  0  0  0  0  0  0  0  0  0
    9.3260   -1.1280    0.1340 C   0  0  2  0  0  0  0  0  0  0  0  0
   10.3450   -0.2060    0.7700 C   0  0  0  0  0  0  0  0  0  0  0  0
   11.5480   -1.1150    0.9110 C   0  0  0  0  0  0  0  0  0  0  0  0
   11.2770   -2.1700   -0.1190 C   0  0  0  0  0  0  0  0  0  0  0  0
   10.1170   -1.8340   -0.7730 O   0  0  0  0  0  0  0  0  0  0  0  0
    2.1190    1.1210    0.4270 C   0  0  0  0  0  0  0  0  0  0  0  0
    0.8720    1.0650   -0.1630 C   0  0  0  0  0  0  0  0  0  0  0  0
   -4.0900    0.0180   -1.1760 C   0  0  2  0  0  0  0  0  0  0  0  0
   -5.0520   -0.9380   -1.7960 C   0  0  0  0  0  0  0  0  0  0  0  0
  -10.0940    0.0620    0.6330 O   0  0  0  0  0  0  0  0  0  0  0  0
  1  2  1  0
  2  3  2  0
  2 38  1  0
  3  4  1  0
  4  5  2  0
  5  6  1  0
  5 38  1  0
  6  7  1  0
  7  8  1  0
  8  9  2  0
 10  8  1  1
 10 11  1  0
 10 36  1  0
 11 12  1  0
 12 13  1  0
 13 14  1  1
 13 36  1  0
 14 15  2  0
 14 16  1  0
 16 17  1  0
 17 18  2  0
 17 35  1  0
 18 19  1  0
 19 20  2  0
 20 21  1  0
 20 34  1  0
 21 22  1  0
 22 23  1  0
 23 24  1  1
 23 25  1  0
 25 26  1  0
 26 27  1  0
 27 28  2  0
 29 27  1  6
 29 30  1  0
 29 33  1  0
 30 31  1  0
 31 32  1  0
 32 33  1  0
 34 35  2  0
 36 37  1  6
M  END
