
     RDKit          3D

 38 41  0  0  0  0  0  0  0  0999 V2000
  -10.3860   -0.0360    2.6000 C   0  0  0  0  0  0  0  0  0  0  0  0
  -10.5050   -0.3770    1.1250 C   0  0  0  0  0  0  0  0  0  0  0  0
   -9.6550   -1.5980    0.8590 C   0  0  1  0  0  0  0  0  0  0  0  0
   -9.5800   -2.1680   -0.5260 C   0  0  0  0  0  0  0  0  0  0  0  0
   -8.3680   -1.4910    0.1380 C   0  0  1  0  0  0  0  0  0  0  0  0
   -7.9380   -0.3050   -0.5300 N   0  0  0  0  0  0  0  0  0  0  0  0
   -6.5400   -0.0730   -0.7290 C   0  0  0  0  0  0  0  0  0  0  0  0
   -5.7540   -0.9300   -0.3020 O   0  0  0  0  0  0  0  0  0  0  0  0
   -6.0750    1.0450   -1.3630 O   0  0  0  0  0  0  0  0  0  0  0  0
   -4.6750    1.3210   -1.5820 C   0  0  1  0  0  0  0  0  0  0  0  0
   -4.1990    0.2670   -2.3270 O   0  0  0  0  0  0  0  0  0  0  0  0
   -4.6700    2.5760   -2.4310 C   0  0  0  0  0  0  0  0  0  0  0  0
   -3.3640    3.2970   -2.4340 C   0  0  0  0  0  0  0  0  0  0  0  0
   -2.7920    3.3970   -1.0440 C   0  0  0  0  0  0  0  0  0  0  0  0
   -2.6800    2.0820   -0.3560 C   0  0  2  0  0  0  0  0  0  0  0  0
   -1.8330    1.1250   -0.9930 N   0  0  0  0  0  0  0  0  0  0  0  0
   -0.7430    0.4570   -0.3600 C   0  0  0  0  0  0  0  0  0  0  0  0
   -0.5050    0.7180    0.8250 O   0  0  0  0  0  0  0  0  0  0  0  0
    0.1000   -0.5260   -1.0740 C   0  0  0  0  0  0  0  0  0  0  0  0
    1.1080   -1.0170   -0.1650 N   0  0  0  0  0  0  0  0  0  0  0  0
    2.0370   -0.1340    0.4080 C   0  0  0  0  0  0  0  0  0  0  0  0
    1.9810    1.0840    0.1160 O   0  0  0  0  0  0  0  0  0  0  0  0
    3.0620   -0.6940    1.3500 C   0  0  0  0  0  0  0  0  0  0  0  0
    3.9790    0.4050    1.8640 C   0  0  0  0  0  0  0  0  0  0  0  0
    5.1810   -0.3410    3.0000 S   0  0  0  0  0  0  0  0  0  0  0  0
    6.2240   -1.4340    2.0500 C   0  0  0  0  0  0  0  0  0  0  0  0
    5.9140   -2.7600    1.8500 C   0  0  0  0  0  0  0  0  0  0  0  0
    6.7370   -3.5880    1.1140 C   0  0  0  0  0  0  0  0  0  0  0  0
    7.8910   -3.0910    0.5640 C   0  0  0  0  0  0  0  0  0  0  0  0
    8.2220   -1.7380    0.7590 C   0  0  0  0  0  0  0  0  0  0  0  0
    9.3920   -1.3100    0.1800 O   0  0  0  0  0  0  0  0  0  0  0  0
    9.8890   -0.0160    0.2630 C   0  0  2  0  0  0  0  0  0  0  0  0
   10.0520    0.5450   -1.1630 C   0  0  0  0  0  0  0  0  0  0  0  0
   11.4020   -0.0580   -1.5100 C   0  0  0  0  0  0  0  0  0  0  0  0
   12.1370    0.1720   -0.3760 O   0  0  0  0  0  0  0  0  0  0  0  0
   11.3390    0.0140    0.7330 C   0  0  0  0  0  0  0  0  0  0  0  0
    7.3970   -0.9160    1.4950 C   0  0  0  0  0  0  0  0  0  0  0  0
   -4.0670    1.4910   -0.2360 C   0  0  0  0  0  0  0  0  0  0  0  0
  1  2  1  0
  3  2  1  6
  3  4  1  0
  3  5  1  0
  4  5  1  0
  5  6  1  6
  6  7  1  0
  7  8  2  0
  7  9  1  0
  9 10  1  0
 10 11  1  6
 10 12  1  0
 10 38  1  0
 12 13  1  0
 13 14  1  0
 14 15  1  0
 15 16  1  6
 15 38  1  0
 16 17  1  0
 17 18  2  0
 17 19  1  0
 19 20  1  0
 20 21  1  0
 21 22  2  0
 21 23  1  0
 23 24  1  0
 24 25  1  0
 25 26  1  0
 26 27  2  0
 26 37  1  0
 27 28  1  0
 28 29  2  0
 29 30  1  0
 30 31  1  0
 30 37  2  0
 32 31  1  6
 32 33  1  0
 32 36  1  0
 33 34  1  0
 34 35  1  0
 35 36  1  0
M  END
