
     RDKit          3D

 38 41  0  0  0  0  0  0  0  0999 V2000
  -11.2160   -1.2080   -0.0600 C   0  0  0  0  0  0  0  0  0  0  0  0
  -11.1210    0.1380   -0.1720 O   0  0  0  0  0  0  0  0  0  0  0  0
  -10.2450    1.1020   -0.4370 C   0  0  0  0  0  0  0  0  0  0  0  0
   -8.9830    0.9400   -0.7500 C   0  0  0  0  0  0  0  0  0  0  0  0
   -8.2930   -0.3310   -0.8700 C   0  0  0  0  0  0  0  0  0  0  0  0
   -7.1770   -0.3310    0.1520 C   0  0  0  0  0  0  0  0  0  0  0  0
   -7.2200   -0.7730    1.4520 C   0  0  0  0  0  0  0  0  0  0  0  0
   -5.9600   -0.5580    1.9580 C   0  0  0  0  0  0  0  0  0  0  0  0
   -5.2010    0.0060    0.9430 C   0  0  0  0  0  0  0  0  0  0  0  0
   -3.7970    0.3950    1.0500 C   0  0  0  0  0  0  0  0  0  0  0  0
   -3.1620    0.2320    2.1220 O   0  0  0  0  0  0  0  0  0  0  0  0
   -3.1380    0.9660   -0.0740 N   0  0  0  0  0  0  0  0  0  0  0  0
   -1.7480    1.3710   -0.0270 C   0  0  0  0  0  0  0  0  0  0  0  0
   -0.8350    0.2060    0.2930 C   0  0  1  0  0  0  0  0  0  0  0  0
   -0.9260   -0.8900   -0.7170 C   0  0  0  0  0  0  0  0  0  0  0  0
    0.4860   -1.3140   -1.0620 C   0  0  0  0  0  0  0  0  0  0  0  0
    1.3470   -0.6030   -0.0460 C   0  0  1  0  0  0  0  0  0  0  0  0
    2.6810   -0.3260   -0.5460 N   0  0  0  0  0  0  0  0  0  0  0  0
    3.7850   -0.7670    0.2240 C   0  0  0  0  0  0  0  0  0  0  0  0
    3.5330   -1.3780    1.3030 O   0  0  0  0  0  0  0  0  0  0  0  0
    5.1910   -0.5290   -0.2060 C   0  0  0  0  0  0  0  0  0  0  0  0
    5.4000    0.1940   -1.3850 C   0  0  0  0  0  0  0  0  0  0  0  0
    7.2070    0.2200   -1.4870 S   0  0  0  0  0  0  0  0  0  0  0  0
    7.5150   -0.7040    0.0010 C   0  0  0  0  0  0  0  0  0  0  0  0
    8.8070   -1.0800    0.5700 C   0  0  2  0  0  0  0  0  0  0  0  0
    8.5720   -2.0850    1.6570 C   0  0  0  0  0  0  0  0  0  0  0  0
    9.5230    0.1440    1.0590 C   0  0  0  0  0  0  0  0  0  0  0  0
   10.2630    0.6180   -0.1730 C   0  0  1  0  0  0  0  0  0  0  0  0
   11.4810    1.4300    0.2070 C   0  0  0  0  0  0  0  0  0  0  0  0
   10.5930   -0.5760   -0.8200 O   0  0  0  0  0  0  0  0  0  0  0  0
    9.7090   -1.5940   -0.4910 C   0  0  0  0  0  0  0  0  0  0  0  0
    9.7140   -2.7330   -1.0260 O   0  0  0  0  0  0  0  0  0  0  0  0
    6.2460   -0.9680    0.4710 C   0  0  0  0  0  0  0  0  0  0  0  0
    0.5990    0.7020    0.1280 C   0  0  0  0  0  0  0  0  0  0  0  0
   -5.9740    0.1140   -0.0930 O   0  0  0  0  0  0  0  0  0  0  0  0
  -10.7730    2.5090   -0.3650 C   0  0  0  0  0  0  0  0  0  0  0  0
   -9.9410    3.6110   -0.6250 N   0  0  0  0  0  0  0  0  0  0  0  0
  -11.9670    2.6800   -0.0700 O   0  0  0  0  0  0  0  0  0  0  0  0
  1  2  1  0
  2  3  1  0
  3  4  2  3
  3 36  1  0
  4  5  1  0
  5  6  1  0
  6  7  2  0
  6 35  1  0
  7  8  1  0
  8  9  2  0
  9 10  1  0
  9 35  1  0
 10 11  2  0
 10 12  1  0
 12 13  1  0
 14 13  1  6
 14 15  1  0
 14 34  1  0
 15 16  1  0
 16 17  1  0
 17 18  1  6
 17 34  1  0
 18 19  1  0
 19 20  2  0
 19 21  1  0
 21 22  2  0
 21 33  1  0
 22 23  1  0
 23 24  1  0
 24 25  1  0
 24 33  2  0
 25 26  1  1
 25 27  1  0
 25 31  1  0
 27 28  1  0
 28 29  1  1
 28 30  1  0
 30 31  1  0
 31 32  2  0
 36 37  1  0
 36 38  2  0
M  END
