
     RDKit          3D

 27 29  0  0  0  0  0  0  0  0999 V2000
   -4.2750   -3.4340    1.8710 C   0  0  0  0  0  0  0  0  0  0  0  0
   -3.9330   -3.4720    0.6000 C   0  0  0  0  0  0  0  0  0  0  0  0
   -2.8840   -2.5550    0.0740 C   0  0  0  0  0  0  0  0  0  0  0  0
   -2.6280   -2.6790   -1.1940 C   0  0  0  0  0  0  0  0  0  0  0  0
   -3.3360   -3.6730   -2.0600 C   0  0  0  0  0  0  0  0  0  0  0  0
   -2.2900   -1.6550    1.0250 C   0  0  0  0  0  0  0  0  0  0  0  0
   -1.2430   -0.7520    0.5920 N   0  0  0  0  0  0  0  0  0  0  0  0
   -0.0440   -1.3820    0.2980 C   0  0  0  0  0  0  0  0  0  0  0  0
    1.1160   -0.6900   -0.2260 C   0  0  0  0  0  0  0  0  0  0  0  0
    1.9540    0.0290    0.6000 C   0  0  0  0  0  0  0  0  0  0  0  0
    3.0820    0.6840    0.1790 C   0  0  0  0  0  0  0  0  0  0  0  0
    3.9560    1.4080    0.9280 O   0  0  0  0  0  0  0  0  0  0  0  0
    3.9570    1.6830    2.2870 C   0  0  0  0  0  0  0  0  0  0  0  0
    4.0280    0.3610    3.0440 C   0  0  0  0  0  0  0  0  0  0  0  0
    3.3530    0.5840   -1.1890 C   0  0  0  0  0  0  0  0  0  0  0  0
    4.4680    1.2170   -1.6990 C   0  0  0  0  0  0  0  0  0  0  0  0
    4.6940    1.0950   -3.0530 C   0  0  0  0  0  0  0  0  0  0  0  0
    3.8620    0.3820   -3.8750 C   0  0  0  0  0  0  0  0  0  0  0  0
    2.7900   -0.2240   -3.3680 N   0  0  0  0  0  0  0  0  0  0  0  0
    2.5340   -0.1270   -2.0370 C   0  0  0  0  0  0  0  0  0  0  0  0
    1.4080   -0.7710   -1.5690 C   0  0  0  0  0  0  0  0  0  0  0  0
   -1.8110    0.3200   -0.0830 C   0  0  0  0  0  0  0  0  0  0  0  0
   -0.9930    1.5500   -0.3620 C   0  0  2  0  0  0  0  0  0  0  0  0
   -0.5800    2.0960    1.0040 C   0  0  0  0  0  0  0  0  0  0  0  0
   -1.6990    3.0440    1.3890 C   0  0  0  0  0  0  0  0  0  0  0  0
   -2.1330    3.6730    0.0780 C   0  0  0  0  0  0  0  0  0  0  0  0
   -1.9580    2.5840   -0.9190 C   0  0  0  0  0  0  0  0  0  0  0  0
  1  2  2  0
  2  3  1  0
  3  4  2  3
  3  6  1  0
  4  5  1  0
  6  7  1  0
  7  8  1  0
  7 22  1  0
  8  9  1  0
  9 10  2  0
  9 21  1  0
 10 11  1  0
 11 12  1  0
 11 15  2  0
 12 13  1  0
 13 14  1  0
 15 16  1  0
 15 20  1  0
 16 17  2  0
 17 18  1  0
 18 19  2  0
 19 20  1  0
 20 21  2  0
 23 22  1  1
 23 24  1  0
 23 27  1  0
 24 25  1  0
 25 26  1  0
 26 27  1  0
M  END
