
     RDKit          3D

 27 29  0  0  0  0  0  0  0  0999 V2000
    7.5800   -0.1440    3.4030 C   0  0  0  0  0  0  0  0  0  0  0  0
    6.4150   -0.2820    2.4400 C   0  0  0  0  0  0  0  0  0  0  0  0
    6.5980    0.6480    1.2590 C   0  0  0  0  0  0  0  0  0  0  0  0
    5.4560    0.4840    0.3440 C   0  0  0  0  0  0  0  0  0  0  0  0
    4.3440    1.2760    0.4910 C   0  0  0  0  0  0  0  0  0  0  0  0
    3.2420    1.1590   -0.3670 C   0  0  0  0  0  0  0  0  0  0  0  0
    3.3210    0.2270   -1.3530 C   0  0  0  0  0  0  0  0  0  0  0  0
    2.2060    0.0720   -2.3140 C   0  0  0  0  0  0  0  0  0  0  0  0
    1.0410   -0.5770   -1.7790 N   0  0  0  0  0  0  0  0  0  0  0  0
    1.2400   -1.8900   -1.2040 C   0  0  0  0  0  0  0  0  0  0  0  0
   -0.2860   -0.0430   -1.7960 C   0  0  0  0  0  0  0  0  0  0  0  0
   -0.6230    1.1710   -2.3510 C   0  0  0  0  0  0  0  0  0  0  0  0
   -1.9510    1.6180   -2.3430 C   0  0  0  0  0  0  0  0  0  0  0  0
   -2.9740    0.8900   -1.7950 C   0  0  0  0  0  0  0  0  0  0  0  0
   -2.6470   -0.3260   -1.2370 C   0  0  0  0  0  0  0  0  0  0  0  0
   -1.3290   -0.7640   -1.2470 C   0  0  0  0  0  0  0  0  0  0  0  0
   -3.7390   -1.1300   -0.6610 C   0  0  1  0  0  0  0  0  0  0  0  0
   -3.8970   -0.9480    0.8190 C   0  0  0  0  0  0  0  0  0  0  0  0
   -4.1550    0.3330    1.2880 N   0  0  0  0  0  0  0  0  0  0  0  0
   -3.1650    1.3340    1.3060 C   0  0  0  0  0  0  0  0  0  0  0  0
   -5.4830    0.7120    1.6100 C   0  0  0  0  0  0  0  0  0  0  0  0
   -6.0730    0.0350    2.8120 C   0  0  0  0  0  0  0  0  0  0  0  0
   -5.0280   -0.9970   -1.4010 C   0  0  0  0  0  0  0  0  0  0  0  0
   -5.3120    0.3280   -2.0230 C   0  0  0  0  0  0  0  0  0  0  0  0
   -4.2990    1.2640   -1.7500 O   0  0  0  0  0  0  0  0  0  0  0  0
    4.4170   -0.5920   -1.5390 C   0  0  0  0  0  0  0  0  0  0  0  0
    5.4860   -0.4440   -0.6700 C   0  0  0  0  0  0  0  0  0  0  0  0
  1  2  1  0
  2  3  1  0
  3  4  1  0
  4  5  2  0
  4 27  1  0
  5  6  1  0
  6  7  2  0
  7  8  1  0
  7 26  1  0
  8  9  1  0
  9 10  1  0
  9 11  1  0
 11 12  2  0
 11 16  1  0
 12 13  1  0
 13 14  2  0
 14 15  1  0
 14 25  1  0
 15 16  2  0
 15 17  1  0
 17 18  1  1
 17 23  1  0
 18 19  1  0
 19 20  1  0
 19 21  1  0
 21 22  1  0
 23 24  1  0
 24 25  1  0
 26 27  2  0
M  END
