
     RDKit          3D

 27 29  0  0  0  0  0  0  0  0999 V2000
    0.3620    4.5830   -0.5700 C   0  0  0  0  0  0  0  0  0  0  0  0
   -1.0610    4.1930   -0.1900 C   0  0  0  0  0  0  0  0  0  0  0  0
   -1.1440    2.6810   -0.1300 C   0  0  0  0  0  0  0  0  0  0  0  0
   -1.9800    2.0590   -0.9080 C   0  0  0  0  0  0  0  0  0  0  0  0
   -2.8070    2.9510   -1.8210 C   0  0  0  0  0  0  0  0  0  0  0  0
   -2.2130    0.6300   -0.9800 C   0  0  0  0  0  0  0  0  0  0  0  0
   -3.1010    0.0420   -1.9090 C   0  0  0  0  0  0  0  0  0  0  0  0
   -3.1190   -1.3130   -1.7020 C   0  0  0  0  0  0  0  0  0  0  0  0
   -2.2610   -1.5380   -0.6730 C   0  0  0  0  0  0  0  0  0  0  0  0
   -1.9760   -2.8860   -0.0960 C   0  0  0  0  0  0  0  0  0  0  0  0
   -2.8770   -3.2070    0.9840 N   0  0  0  0  0  0  0  0  0  0  0  0
   -2.5220   -4.5270    1.4790 C   0  0  0  0  0  0  0  0  0  0  0  0
   -4.2590   -3.2630    0.5790 C   0  0  0  0  0  0  0  0  0  0  0  0
   -4.5490   -4.4270   -0.3350 C   0  0  0  0  0  0  0  0  0  0  0  0
   -1.7110   -0.3490   -0.2370 N   0  0  0  0  0  0  0  0  0  0  0  0
   -0.7510   -0.3220    0.8720 C   0  0  0  0  0  0  0  0  0  0  0  0
    0.6690   -0.4710    0.4290 C   0  0  2  0  0  0  0  0  0  0  0  0
    1.5440   -0.4080    1.6820 C   0  0  0  0  0  0  0  0  0  0  0  0
    2.8230    0.1290    1.1190 C   0  0  0  0  0  0  0  0  0  0  0  0
    4.1140    0.1520    1.6680 C   0  0  0  0  0  0  0  0  0  0  0  0
    5.1240    0.7130    0.9250 C   0  0  0  0  0  0  0  0  0  0  0  0
    6.5060    0.7460    1.4950 C   0  0  0  0  0  0  0  0  0  0  0  0
    4.8570    1.2340   -0.3230 C   0  0  0  0  0  0  0  0  0  0  0  0
    5.9750    1.8210   -1.0740 C   0  0  0  0  0  0  0  0  0  0  0  0
    3.5780    1.2090   -0.8610 C   0  0  0  0  0  0  0  0  0  0  0  0
    2.5450    0.6410   -0.1170 C   0  0  0  0  0  0  0  0  0  0  0  0
    1.1810    0.4930   -0.4300 O   0  0  0  0  0  0  0  0  0  0  0  0
  1  2  1  0
  2  3  1  0
  3  4  2  3
  4  5  1  0
  4  6  1  0
  6  7  2  0
  6 15  1  0
  7  8  1  0
  8  9  2  0
  9 10  1  0
  9 15  1  0
 10 11  1  0
 11 12  1  0
 11 13  1  0
 13 14  1  0
 15 16  1  0
 17 16  1  1
 17 18  1  0
 17 27  1  0
 18 19  1  0
 19 20  2  0
 19 26  1  0
 20 21  1  0
 21 22  1  0
 21 23  2  0
 23 24  1  0
 23 25  1  0
 25 26  2  0
 26 27  1  0
M  END
