
     RDKit          3D

 26 27  0  0  0  0  0  0  0  0999 V2000
    5.6050   -0.4970   -2.5790 N   0  0  0  0  0  0  0  0  0  0  0  0
    4.2700   -0.8140   -2.3940 C   0  0  0  0  0  0  0  0  0  0  0  0
    3.4750   -1.0290   -3.3830 O   0  0  0  0  0  0  0  0  0  0  0  0
    3.6490   -0.9310   -1.0660 C   0  0  2  0  0  0  0  0  0  0  0  0
    2.3150   -0.5150   -1.0510 N   0  0  0  0  0  0  0  0  0  0  0  0
    1.2980   -1.2220   -0.1820 C   0  0  0  0  0  0  0  0  0  0  0  0
    1.7160   -2.0580    0.5130 O   0  0  0  0  0  0  0  0  0  0  0  0
    0.0400   -0.6390   -0.4730 N   0  0  0  0  0  0  0  0  0  0  0  0
   -0.8370   -1.3870    0.8140 C   0  0  0  0  0  0  0  0  0  0  0  0
   -0.1680   -2.0310    1.5390 O   0  0  0  0  0  0  0  0  0  0  0  0
   -2.2030   -1.1080    0.8010 N   0  0  0  0  0  0  0  0  0  0  0  0
   -2.9050   -1.5640    1.9940 C   0  0  0  0  0  0  0  0  0  0  0  0
   -4.3480   -1.8600    1.8250 C   0  0  0  0  0  0  0  0  0  0  0  0
   -5.1600   -0.7500    1.7300 O   0  0  0  0  0  0  0  0  0  0  0  0
   -4.8250    0.1460    0.7410 C   0  0  2  0  0  0  0  0  0  0  0  0
   -6.1490    0.8710    0.3910 C   0  0  0  0  0  0  0  0  0  0  0  0
   -5.9180    1.8440   -0.6470 N   0  0  0  0  0  0  0  0  0  0  0  0
   -4.2590   -0.5340   -0.4600 C   0  0  0  0  0  0  0  0  0  0  0  0
   -2.7460   -0.4710   -0.3630 C   0  0  0  0  0  0  0  0  0  0  0  0
    4.4480   -0.3600    0.0500 C   0  0  2  0  0  0  0  0  0  0  0  0
    3.7330   -0.5160    1.3380 N   0  0  0  0  0  0  0  0  0  0  0  0
    4.9360    0.9910   -0.0420 C   0  0  0  0  0  0  0  0  0  0  0  0
    4.7970    1.9280   -0.9230 C   0  0  0  0  0  0  0  0  0  0  0  0
    5.4130    3.1150   -0.6860 O   0  0  0  0  0  0  0  0  0  0  0  0
    5.6520    3.4450    0.6630 C   0  0  0  0  0  0  0  0  0  0  0  0
    5.9740    1.7230    1.2500 S   0  0  0  0  0  0  0  0  0  0  0  0
  1  2  1  0
  2  3  2  0
  2  4  1  0
  4  5  1  6
  4 20  1  0
  5  6  1  0
  6  7  2  0
  6  8  1  0
  8  9  1  0
  9 10  2  0
  9 11  1  0
 11 12  1  0
 11 19  1  0
 12 13  1  0
 13 14  1  0
 14 15  1  0
 15 16  1  6
 15 18  1  0
 16 17  1  0
 18 19  1  0
 20 21  1  1
 20 22  1  0
 22 23  2  0
 22 26  1  0
 23 24  1  0
 24 25  1  0
 25 26  1  0
M  CHG  1  17   1
M  END
