
     RDKit          3D

 26 28  0  0  0  0  0  0  0  0999 V2000
    6.9620   -2.1900   -1.1780 N   0  0  0  0  0  0  0  0  0  0  0  0
    6.0520   -1.1210   -0.9710 C   0  0  0  0  0  0  0  0  0  0  0  0
    6.3510    0.1750   -1.2300 N   0  0  0  0  0  0  0  0  0  0  0  0
    5.4790    1.1790   -1.0290 C   0  0  0  0  0  0  0  0  0  0  0  0
    4.2560    0.8910   -0.5500 N   0  0  0  0  0  0  0  0  0  0  0  0
    3.8680   -0.3400   -0.2660 C   0  0  0  0  0  0  0  0  0  0  0  0
    4.7850   -1.3730   -0.4800 C   0  0  0  0  0  0  0  0  0  0  0  0
    4.1580   -2.5020   -0.1200 N   0  0  0  0  0  0  0  0  0  0  0  0
    2.9090   -2.1880    0.2980 C   0  0  0  0  0  0  0  0  0  0  0  0
    2.7170   -0.8600    0.2140 N   0  0  0  0  0  0  0  0  0  0  0  0
    1.5230   -0.1430    0.5640 C   0  0  2  0  0  0  0  0  0  0  0  0
    0.7100    0.1320   -0.5280 O   0  0  0  0  0  0  0  0  0  0  0  0
   -0.3190    0.8600    0.0650 C   0  0  2  0  0  0  0  0  0  0  0  0
   -1.1170    1.6360   -0.9610 C   0  0  0  0  0  0  0  0  0  0  0  0
   -1.8150    0.4250   -2.1160 S   0  0  0  0  0  0  0  0  0  0  0  0
   -3.0530   -0.6200   -1.2730 C   0  0  0  0  0  0  0  0  0  0  0  0
   -4.2320    0.2110   -0.8890 C   0  0  0  0  0  0  0  0  0  0  0  0
   -5.3350   -0.5130   -0.1960 C   0  0  2  0  0  0  0  0  0  0  0  0
   -6.3820    0.4760    0.0760 N   0  0  0  0  0  0  0  0  0  0  0  0
   -4.8580   -1.0620    1.0820 C   0  0  0  0  0  0  0  0  0  0  0  0
   -5.2840   -0.5850    2.1750 O   0  0  0  0  0  0  0  0  0  0  0  0
   -3.9570   -2.0880    1.1320 O   0  0  0  0  0  0  0  0  0  0  0  0
    0.3330    1.7810    1.0720 C   0  0  1  0  0  0  0  0  0  0  0  0
   -0.1900    1.5680    2.3260 O   0  0  0  0  0  0  0  0  0  0  0  0
    1.7810    1.2590    1.0800 C   0  0  1  0  0  0  0  0  0  0  0  0
    2.3310    1.2790    2.3430 O   0  0  0  0  0  0  0  0  0  0  0  0
  1  2  1  0
  2  3  2  0
  2  7  1  0
  3  4  1  0
  4  5  2  0
  5  6  1  0
  6  7  2  0
  6 10  1  0
  7  8  1  0
  8  9  2  0
  9 10  1  0
 11 10  1  6
 11 12  1  0
 11 25  1  0
 12 13  1  0
 13 14  1  6
 13 23  1  0
 14 15  1  0
 15 16  1  0
 16 17  1  0
 17 18  1  0
 18 19  1  1
 18 20  1  0
 20 21  2  0
 20 22  1  0
 23 24  1  1
 23 25  1  0
 25 26  1  1
M  CHG  1  19   1
M  END
