
     RDKit          3D

 26 27  0  0  0  0  0  0  0  0999 V2000
   -4.0600   -2.3480   -0.7320 C   0  0  0  0  0  0  0  0  0  0  0  0
   -4.1180   -1.0290    0.0000 C   0  0  1  0  0  0  0  0  0  0  0  0
   -3.4980    0.3360   -1.0160 S   0  0  0  0  0  0  0  0  0  0  0  0
   -1.6850    0.1010   -1.3230 C   0  0  0  0  0  0  0  0  0  0  0  0
   -0.9670    0.2280   -0.0650 C   0  0  0  0  0  0  0  0  0  0  0  0
    0.4120    0.1320    0.1530 N   0  0  0  0  0  0  0  0  0  0  0  0
    1.1680   -1.1030    0.0930 C   0  0  0  0  0  0  0  0  0  0  0  0
    0.5180   -2.1600    0.1610 O   0  0  0  0  0  0  0  0  0  0  0  0
    2.6270   -0.9610   -0.0430 C   0  0  2  0  0  0  0  0  0  0  0  0
    3.2940   -2.2530    0.0100 N   0  0  0  0  0  0  0  0  0  0  0  0
    4.0740   -2.7580   -1.0570 C   0  0  0  0  0  0  0  0  0  0  0  0
    4.6920   -4.0210   -0.9360 N   0  0  0  0  0  0  0  0  0  0  0  0
    4.1950   -2.0620   -2.0920 O   0  0  0  0  0  0  0  0  0  0  0  0
    3.2490   -0.0810    0.9780 C   0  0  0  0  0  0  0  0  0  0  0  0
    2.3100    0.8810    1.6500 C   0  0  1  0  0  0  0  0  0  0  0  0
    2.9420    1.9630    2.2110 O   0  0  0  0  0  0  0  0  0  0  0  0
    2.6210    3.2470    1.9580 C   0  0  0  0  0  0  0  0  0  0  0  0
    3.2450    4.1980    2.4780 O   0  0  0  0  0  0  0  0  0  0  0  0
    1.5450    3.5180    1.0770 N   0  0  0  0  0  0  0  0  0  0  0  0
    0.8070    2.4380    0.4630 C   0  0  0  0  0  0  0  0  0  0  0  0
   -0.1780    2.6590   -0.5970 C   0  0  0  0  0  0  0  0  0  0  0  0
    0.5120    3.7270   -1.4260 N   0  0  0  0  0  0  0  0  0  0  0  0
    1.1530    1.2170    0.7410 C   0  0  0  0  0  0  0  0  0  0  0  0
   -5.5150   -0.7080    0.3820 C   0  0  0  0  0  0  0  0  0  0  0  0
   -6.2180   -1.5950    1.2350 N   0  0  0  0  0  0  0  0  0  0  0  0
   -6.1080    0.3250   -0.0210 O   0  0  0  0  0  0  0  0  0  0  0  0
  2  1  1  6
  2  3  1  0
  2 24  1  0
  3  4  1  0
  4  5  1  0
  5  6  1  0
  6  7  1  0
  6 23  1  0
  7  8  2  0
  7  9  1  0
  9 10  1  1
  9 14  1  0
 10 11  1  0
 11 12  1  0
 11 13  2  0
 15 14  1  6
 15 16  1  0
 15 23  1  0
 16 17  1  0
 17 18  2  0
 17 19  1  0
 19 20  1  0
 20 21  1  0
 20 23  2  0
 21 22  1  0
 24 25  1  0
 24 26  2  0
M  CHG  1  22   1
M  END
