
     RDKit          3D

 26 27  0  0  0  0  0  0  0  0999 V2000
    5.1970   -2.4060    2.0680 N   0  0  0  0  0  0  0  0  0  0  0  0
    6.3600   -1.7550    1.6020 C   0  0  0  0  0  0  0  0  0  0  0  0
    7.4480   -1.9860    2.1810 O   0  0  0  0  0  0  0  0  0  0  0  0
    6.3380   -0.8000    0.4420 C   0  0  0  0  0  0  0  0  0  0  0  0
    4.9810   -0.6740   -0.0600 N   0  0  0  0  0  0  0  0  0  0  0  0
    4.0350   -0.2120    0.7720 C   0  0  0  0  0  0  0  0  0  0  0  0
    4.4030    0.1150    2.0010 O   0  0  0  0  0  0  0  0  0  0  0  0
    2.7310    0.0080    0.6500 N   0  0  0  0  0  0  0  0  0  0  0  0
    1.4320    0.1820    0.3860 C   0  0  0  0  0  0  0  0  0  0  0  0
    0.8640    0.6420    1.4750 O   0  0  0  0  0  0  0  0  0  0  0  0
    0.6850   -0.0200   -0.7190 N   0  0  0  0  0  0  0  0  0  0  0  0
   -0.7360    0.2790   -0.6730 C   0  0  0  0  0  0  0  0  0  0  0  0
   -1.1140    1.2600   -1.4150 C   0  0  0  0  0  0  0  0  0  0  0  0
   -2.3690    1.8660   -1.6590 C   0  0  0  0  0  0  0  0  0  0  0  0
   -2.4900    2.9180   -2.5160 C   0  0  0  0  0  0  0  0  0  0  0  0
   -3.7950    3.5390   -2.7630 C   0  0  0  0  0  0  0  0  0  0  0  0
   -4.4910    3.9710   -1.4950 C   0  0  0  0  0  0  0  0  0  0  0  0
   -4.8330    2.8910   -0.6240 N   0  0  0  0  0  0  0  0  0  0  0  0
   -3.9360    1.4320   -0.9510 S   0  0  0  0  0  0  0  0  0  0  0  0
   -4.6990    0.5150   -1.9020 O   0  0  0  0  0  0  0  0  0  0  0  0
   -1.5680   -0.5590    0.1590 C   0  0  0  0  0  0  0  0  0  0  0  0
   -2.7850   -0.4370    0.3200 O   0  0  0  0  0  0  0  0  0  0  0  0
   -0.9980   -1.6630    0.8990 N   0  0  0  0  0  0  0  0  0  0  0  0
   -1.7680   -2.5200    1.7370 C   0  0  1  0  0  0  0  0  0  0  0  0
   -1.5630   -3.9820    1.7880 C   0  0  0  0  0  0  0  0  0  0  0  0
   -1.2080   -3.1100    2.9790 C   0  0  0  0  0  0  0  0  0  0  0  0
  1  2  1  0
  2  3  2  0
  2  4  1  0
  4  5  1  0
  5  6  1  0
  6  7  2  0
  6  8  1  0
  8  9  1  0
  9 10  2  0
  9 11  1  0
 11 12  1  0
 12 13  2  3
 12 21  1  0
 13 14  1  0
 14 15  2  0
 14 19  1  0
 15 16  1  0
 16 17  1  0
 17 18  1  0
 19 18  1  6
 19 20  2  0
 21 22  2  0
 21 23  1  0
 24 23  1  6
 24 25  1  0
 24 26  1  0
 25 26  1  0
M  CHG  1  18   1
M  END
