
     RDKit          3D

 32 35  0  0  0  0  0  0  0  0999 V2000
    1.0220    2.2190    0.8400 C   0  0  0  0  0  0  0  0  0  0  0  0
    0.8480    1.4400    2.0250 N   0  0  0  0  0  0  0  0  0  0  0  0
    1.6730    0.3000    2.1850 C   0  0  1  0  0  0  0  0  0  0  0  0
    1.0510   -1.0280    2.3520 C   0  0  0  0  0  0  0  0  0  0  0  0
    0.2110   -1.6440    1.3340 C   0  0  0  0  0  0  0  0  0  0  0  0
   -1.0200   -0.8740    0.9780 C   0  0  0  0  0  0  0  0  0  0  0  0
   -1.7540   -1.7110   -0.0150 N   0  0  0  0  0  0  0  0  0  0  0  0
   -2.9880   -1.2500   -0.5580 C   0  0  0  0  0  0  0  0  0  0  0  0
   -3.5980   -0.3800    0.1840 N   0  0  0  0  0  0  0  0  0  0  0  0
   -4.8520    0.3010   -0.0340 C   0  0  0  0  0  0  0  0  0  0  0  0
   -5.4830    0.7720    1.0270 C   0  0  0  0  0  0  0  0  0  0  0  0
   -4.8330    0.5530    2.3550 C   0  0  1  0  0  0  0  0  0  0  0  0
   -5.1710    1.5370    3.2610 F   0  0  0  0  0  0  0  0  0  0  0  0
   -5.1760   -0.7160    2.8180 F   0  0  0  0  0  0  0  0  0  0  0  0
   -5.4870    0.5160   -1.3280 C   0  0  0  0  0  0  0  0  0  0  0  0
   -6.3640    1.4770   -1.5380 C   0  0  0  0  0  0  0  0  0  0  0  0
   -6.7960    1.3870   -2.9770 C   0  0  0  0  0  0  0  0  0  0  0  0
   -6.0280    0.2450   -3.5110 C   0  0  0  0  0  0  0  0  0  0  0  0
   -5.2670   -0.2620   -2.5540 C   0  0  0  0  0  0  0  0  0  0  0  0
   -4.3540   -1.4130   -2.7050 C   0  0  0  0  0  0  0  0  0  0  0  0
   -3.4190   -1.7790   -1.8360 C   0  0  0  0  0  0  0  0  0  0  0  0
    2.7940    0.2660    1.1870 C   0  0  0  0  0  0  0  0  0  0  0  0
    4.0600   -0.0220    1.4420 N   0  0  0  0  0  0  0  0  0  0  0  0
    4.7880    0.0470    0.2860 C   0  0  0  0  0  0  0  0  0  0  0  0
    6.2120   -0.1980    0.1350 C   0  0  0  0  0  0  0  0  0  0  0  0
    7.0900   -0.5470    1.1410 C   0  0  0  0  0  0  0  0  0  0  0  0
    8.3160   -0.6820    0.5860 N   0  0  0  0  0  0  0  0  0  0  0  0
    8.2760   -0.4410   -0.7130 N   0  0  0  0  0  0  0  0  0  0  0  0
    9.4060   -0.4880   -1.6540 C   0  0  0  0  0  0  0  0  0  0  0  0
    6.9950   -0.1450   -0.9980 C   0  0  0  0  0  0  0  0  0  0  0  0
    3.8760    0.3880   -0.6380 N   0  0  0  0  0  0  0  0  0  0  0  0
    2.6840    0.5150   -0.0780 O   0  0  0  0  0  0  0  0  0  0  0  0
  1  2  1  0
  2  3  1  0
  3  4  1  6
  3 22  1  0
  4  5  1  0
  5  6  1  0
  6  7  1  0
  7  8  1  0
  8  9  2  0
  8 21  1  0
  9 10  1  0
 10 11  2  3
 10 15  1  0
 11 12  1  0
 12 13  1  1
 12 14  1  0
 15 16  2  0
 15 19  1  0
 16 17  1  0
 17 18  1  0
 18 19  2  0
 19 20  1  0
 20 21  2  0
 22 23  2  0
 22 32  1  0
 23 24  1  0
 24 25  1  0
 24 31  2  0
 25 26  1  0
 25 30  2  0
 26 27  2  0
 27 28  1  0
 28 29  1  0
 28 30  1  0
 31 32  1  0
M  CHG  1   2   1
M  END
