
     RDKit          3D

 32 35  0  0  0  0  0  0  0  0999 V2000
   -5.4380    3.8920    0.5140 C   0  0  0  0  0  0  0  0  0  0  0  0
   -6.2890    2.7470    0.3070 N   0  0  0  0  0  0  0  0  0  0  0  0
   -5.6980    1.4740    0.1070 C   0  0  0  0  0  0  0  0  0  0  0  0
   -6.4730    0.3340   -0.1090 C   0  0  0  0  0  0  0  0  0  0  0  0
   -5.9210   -0.9000   -0.3040 C   0  0  0  0  0  0  0  0  0  0  0  0
   -4.5430   -1.0660   -0.2930 C   0  0  0  0  0  0  0  0  0  0  0  0
   -3.7550    0.0370   -0.0830 C   0  0  0  0  0  0  0  0  0  0  0  0
   -4.3350    1.2710    0.1110 C   0  0  0  0  0  0  0  0  0  0  0  0
   -2.4680   -0.4060   -0.1220 N   0  0  0  0  0  0  0  0  0  0  0  0
   -2.4130   -1.7260   -0.3460 C   0  0  0  0  0  0  0  0  0  0  0  0
   -1.4860   -2.5570   -0.4620 N   0  0  0  0  0  0  0  0  0  0  0  0
   -0.1330   -2.6220   -0.4350 C   0  0  0  0  0  0  0  0  0  0  0  0
    0.3610   -3.8220   -0.5650 O   0  0  0  0  0  0  0  0  0  0  0  0
    0.8180   -1.6070   -0.2900 N   0  0  0  0  0  0  0  0  0  0  0  0
    2.2180   -1.6840   -0.2650 C   0  0  0  0  0  0  0  0  0  0  0  0
    2.9130   -2.8540   -0.4120 C   0  0  0  0  0  0  0  0  0  0  0  0
    4.3240   -2.8650   -0.3810 C   0  0  0  0  0  0  0  0  0  0  0  0
    4.9970   -1.6790   -0.1980 C   0  0  0  0  0  0  0  0  0  0  0  0
    4.3030   -0.4950   -0.0480 C   0  0  0  0  0  0  0  0  0  0  0  0
    5.0250    0.7270    0.1440 N   0  0  0  0  0  0  0  0  0  0  0  0
    5.2940    1.7460   -0.8020 C   0  0  0  0  0  0  0  0  0  0  0  0
    4.6660    1.9560   -1.8560 O   0  0  0  0  0  0  0  0  0  0  0  0
    6.4580    2.5230   -0.3190 C   0  0  0  0  0  0  0  0  0  0  0  0
    6.6640    2.1610    1.1150 C   0  0  2  0  0  0  0  0  0  0  0  0
    6.5170    3.2240    1.9770 F   0  0  0  0  0  0  0  0  0  0  0  0
    8.2440    1.3670    1.2890 Cl  0  0  0  0  0  0  0  0  0  0  0  0
    5.6240    1.1460    1.3750 C   0  0  0  0  0  0  0  0  0  0  0  0
    5.3020    0.7050    2.5130 O   0  0  0  0  0  0  0  0  0  0  0  0
    2.9280   -0.4860   -0.0800 C   0  0  0  0  0  0  0  0  0  0  0  0
    2.1540    0.7660    0.0770 C   0  0  0  0  0  0  0  0  0  0  0  0
   -3.7360   -2.1100   -0.4480 N   0  0  0  0  0  0  0  0  0  0  0  0
   -4.1780   -3.4710   -0.6920 C   0  0  0  0  0  0  0  0  0  0  0  0
  1  2  1  0
  2  3  1  0
  3  4  2  0
  3  8  1  0
  4  5  1  0
  5  6  2  0
  6  7  1  0
  6 31  1  0
  7  8  2  0
  7  9  1  0
  9 10  1  0
 10 11  2  3
 10 31  1  0
 11 12  1  0
 12 13  2  0
 12 14  1  0
 14 15  1  0
 15 16  2  0
 15 29  1  0
 16 17  1  0
 17 18  2  0
 18 19  1  0
 19 20  1  0
 19 29  2  0
 20 21  1  0
 20 27  1  0
 21 22  2  0
 21 23  1  0
 23 24  1  0
 24 25  1  1
 24 26  1  0
 24 27  1  0
 27 28  2  0
 29 30  1  0
 31 32  1  0
M  END
