
     RDKit          3D

 32 35  0  0  0  0  0  0  0  0999 V2000
    5.1240   -2.3900    1.7390 C   0  0  0  0  0  0  0  0  0  0  0  0
    3.7360   -2.4070    1.3310 N   0  0  0  0  0  0  0  0  0  0  0  0
    3.2210   -1.7420    0.2080 C   0  0  0  0  0  0  0  0  0  0  0  0
    3.5180   -2.4090   -0.9090 C   0  0  0  0  0  0  0  0  0  0  0  0
    3.2520   -2.2010   -2.3310 C   0  0  0  0  0  0  0  0  0  0  0  0
    2.6480   -1.2290   -2.9800 C   0  0  0  0  0  0  0  0  0  0  0  0
    2.6500   -1.4920   -4.3110 F   0  0  0  0  0  0  0  0  0  0  0  0
    2.0070   -0.0100   -2.7010 N   0  0  0  0  0  0  0  0  0  0  0  0
    1.7170    0.6350   -1.6210 C   0  0  0  0  0  0  0  0  0  0  0  0
    1.0800    1.7950   -1.8770 F   0  0  0  0  0  0  0  0  0  0  0  0
    1.8860    0.4640   -0.1810 C   0  0  0  0  0  0  0  0  0  0  0  0
    1.2890    1.5280    0.6490 C   0  0  2  0  0  0  0  0  0  0  0  0
   -0.1580    1.5480    0.5890 N   0  0  0  0  0  0  0  0  0  0  0  0
   -0.6680    0.1930    0.4710 C   0  0  0  0  0  0  0  0  0  0  0  0
   -2.1550    0.2230    0.4770 C   0  0  0  0  0  0  0  0  0  0  0  0
   -2.9570    1.3420    0.5780 C   0  0  0  0  0  0  0  0  0  0  0  0
   -4.2310    0.9130    0.5430 N   0  0  0  0  0  0  0  0  0  0  0  0
   -4.3130   -0.3860    0.4280 N   0  0  0  0  0  0  0  0  0  0  0  0
   -5.3600   -1.2320    0.3560 C   0  0  0  0  0  0  0  0  0  0  0  0
   -6.7640   -0.7610    0.4010 C   0  0  0  0  0  0  0  0  0  0  0  0
   -5.1450   -2.5890    0.2360 C   0  0  0  0  0  0  0  0  0  0  0  0
   -6.2720   -3.5740    0.1510 C   0  0  0  0  0  0  0  0  0  0  0  0
   -3.8280   -3.0060    0.1960 C   0  0  0  0  0  0  0  0  0  0  0  0
   -2.7990   -2.1600    0.2680 N   0  0  0  0  0  0  0  0  0  0  0  0
   -3.0330   -0.8360    0.3850 C   0  0  0  0  0  0  0  0  0  0  0  0
    1.8690    2.8640    0.3450 C   0  0  0  0  0  0  0  0  0  0  0  0
    2.9020    3.1790   -0.4490 N   0  0  0  0  0  0  0  0  0  0  0  0
    3.0870    4.5110   -0.4340 C   0  0  0  0  0  0  0  0  0  0  0  0
    4.1210    5.3160   -1.1680 C   0  0  0  0  0  0  0  0  0  0  0  0
    2.1090    4.9980    0.4140 C   0  0  0  0  0  0  0  0  0  0  0  0
    1.4180    3.9710    0.8450 O   0  0  0  0  0  0  0  0  0  0  0  0
    2.4970   -0.5080    0.4970 C   0  0  0  0  0  0  0  0  0  0  0  0
  1  2  1  0
  2  3  1  0
  3  4  2  0
  3 32  1  0
  4  5  1  0
  5  6  2  0
  6  7  1  0
  6  8  1  0
  8  9  2  0
  9 10  1  0
  9 11  1  0
 11 12  1  0
 11 32  2  0
 12 13  1  6
 12 26  1  0
 13 14  1  0
 14 15  1  0
 15 16  1  0
 15 25  2  0
 16 17  2  0
 17 18  1  0
 18 19  1  0
 18 25  1  0
 19 20  1  0
 19 21  2  0
 21 22  1  0
 21 23  1  0
 23 24  2  0
 24 25  1  0
 26 27  2  0
 26 31  1  0
 27 28  1  0
 28 29  1  0
 28 30  2  0
 30 31  1  0
M  CHG  1  13   1
M  END
