
     RDKit          3D

 32 34  0  0  0  0  0  0  0  0999 V2000
    3.1420   -0.1470   -1.6810 C   0  0  0  0  0  0  0  0  0  0  0  0
    2.7400    1.1900   -1.1000 C   0  0  0  0  0  0  0  0  0  0  0  0
    2.4550    1.0850    0.3360 N   0  0  0  0  0  0  0  0  0  0  0  0
    3.5580    1.2970    1.2410 C   0  0  0  0  0  0  0  0  0  0  0  0
    4.2410    0.0090    1.5090 C   0  0  0  0  0  0  0  0  0  0  0  0
    3.8810   -0.8370    2.5360 C   0  0  0  0  0  0  0  0  0  0  0  0
    4.5500   -2.0240    2.7420 C   0  0  0  0  0  0  0  0  0  0  0  0
    5.6030   -2.4110    1.9310 C   0  0  0  0  0  0  0  0  0  0  0  0
    5.9270   -1.5610    0.9390 N   0  0  0  0  0  0  0  0  0  0  0  0
    5.3080   -0.4050    0.7060 C   0  0  0  0  0  0  0  0  0  0  0  0
    1.1460    0.7880    0.7880 C   0  0  0  0  0  0  0  0  0  0  0  0
    0.9460    0.7080    2.0150 O   0  0  0  0  0  0  0  0  0  0  0  0
    0.0760    0.5840   -0.1700 C   0  0  0  0  0  0  0  0  0  0  0  0
   -1.2300    0.2940    0.3780 N   0  0  0  0  0  0  0  0  0  0  0  0
   -2.1230    1.4080    0.5530 C   0  0  0  0  0  0  0  0  0  0  0  0
   -2.9500    1.8700   -0.4470 C   0  0  0  0  0  0  0  0  0  0  0  0
   -3.7780    2.9520   -0.2620 C   0  0  0  0  0  0  0  0  0  0  0  0
   -3.7680    3.5770    0.9560 C   0  0  0  0  0  0  0  0  0  0  0  0
   -4.5780    4.6550    1.1730 O   0  0  0  0  0  0  0  0  0  0  0  0
   -4.6510    5.3720    2.3760 C   0  0  0  0  0  0  0  0  0  0  0  0
   -2.9580    3.1140    1.9120 N   0  0  0  0  0  0  0  0  0  0  0  0
   -2.1510    2.0800    1.7740 C   0  0  0  0  0  0  0  0  0  0  0  0
   -1.6670   -1.2910    0.7750 S   0  0  1  0  0  0  0  0  0  0  0  0
   -0.6690   -1.7710    1.8230 O   0  0  0  0  0  0  0  0  0  0  0  0
   -2.9960   -1.3280    1.5400 O   0  0  0  0  0  0  0  0  0  0  0  0
   -1.6890   -2.4400   -0.4990 C   0  0  0  0  0  0  0  0  0  0  0  0
   -0.7710   -3.4990   -0.4580 C   0  0  0  0  0  0  0  0  0  0  0  0
   -0.6980   -4.4600   -1.4420 C   0  0  0  0  0  0  0  0  0  0  0  0
   -1.5360   -4.4190   -2.5210 C   0  0  0  0  0  0  0  0  0  0  0  0
   -2.4370   -3.4030   -2.5880 C   0  0  0  0  0  0  0  0  0  0  0  0
   -2.5070   -2.4390   -1.5960 C   0  0  0  0  0  0  0  0  0  0  0  0
   -3.5120   -1.3880   -1.7230 C   0  0  0  0  0  0  0  0  0  0  0  0
  1  2  1  0
  2  3  1  0
  3  4  1  0
  3 11  1  0
  4  5  1  0
  5  6  2  0
  5 10  1  0
  6  7  1  0
  7  8  2  0
  8  9  1  0
  9 10  2  0
 11 12  2  0
 11 13  1  0
 13 14  1  0
 14 15  1  0
 23 14  1  6
 15 16  2  0
 15 22  1  0
 16 17  1  0
 17 18  2  0
 18 19  1  0
 18 21  1  0
 19 20  1  0
 21 22  2  0
 23 24  2  0
 23 25  2  0
 23 26  1  0
 26 27  2  0
 26 31  1  0
 27 28  1  0
 28 29  2  0
 29 30  1  0
 30 31  2  0
 31 32  1  0
M  END
