
     RDKit          3D

 26 29  0  0  0  0  0  0  0  0999 V2000
   -2.7080   -0.2100    2.9350 O   0  0  0  0  0  0  0  0  0  0  0  0
   -3.2900    0.4440    2.0400 C   0  0  0  0  0  0  0  0  0  0  0  0
   -4.5730    0.8980    2.2450 C   0  0  0  0  0  0  0  0  0  0  0  0
   -5.2180    1.6210    1.2560 C   0  0  0  0  0  0  0  0  0  0  0  0
   -4.5220    1.8520    0.0910 C   0  0  0  0  0  0  0  0  0  0  0  0
   -3.2520    1.3800   -0.0610 C   0  0  0  0  0  0  0  0  0  0  0  0
   -2.6070    0.6680    0.9030 N   0  0  0  0  0  0  0  0  0  0  0  0
   -1.2550    0.1790    0.7100 C   0  0  0  0  0  0  0  0  0  0  0  0
   -1.2340   -1.1750    0.1080 C   0  0  0  0  0  0  0  0  0  0  0  0
   -2.4100   -1.8220   -0.2030 C   0  0  0  0  0  0  0  0  0  0  0  0
   -2.3010   -3.0980   -0.7690 C   0  0  0  0  0  0  0  0  0  0  0  0
   -1.0630   -3.6600   -0.9960 C   0  0  0  0  0  0  0  0  0  0  0  0
    0.0570   -2.9870   -0.6750 N   0  0  0  0  0  0  0  0  0  0  0  0
    0.0030   -1.7400   -0.1210 C   0  0  0  0  0  0  0  0  0  0  0  0
    1.4950   -0.8830    0.2890 S   0  0  0  0  0  0  0  0  0  0  0  0
    2.0770    0.1260   -1.0810 C   0  0  0  0  0  0  0  0  0  0  0  0
    1.5350    0.2860   -2.2960 N   0  0  0  0  0  0  0  0  0  0  0  0
    2.2750    1.1190   -3.0180 C   0  0  0  0  0  0  0  0  0  0  0  0
    3.3150    1.4880   -2.2170 C   0  0  0  0  0  0  0  0  0  0  0  0
    3.1890    0.8760   -1.0280 N   0  0  0  0  0  0  0  0  0  0  0  0
    4.0950    1.0150    0.0860 C   0  0  0  0  0  0  0  0  0  0  0  0
    4.1490    1.9750    1.0220 N   0  0  0  0  0  0  0  0  0  0  0  0
    5.1230    1.7130    1.8440 O   0  0  0  0  0  0  0  0  0  0  0  0
    5.7460    0.6150    1.5200 C   0  0  0  0  0  0  0  0  0  0  0  0
    5.1070    0.1330    0.3840 C   0  0  0  0  0  0  0  0  0  0  0  0
    5.4410   -1.0070   -0.2940 O   0  0  0  0  0  0  0  0  0  0  0  0
  1  2  2  0
  2  3  1  0
  2  7  1  0
  3  4  2  0
  4  5  1  0
  5  6  2  0
  6  7  1  0
  7  8  1  0
  8  9  1  0
  9 10  2  0
  9 14  1  0
 10 11  1  0
 11 12  2  0
 12 13  1  0
 13 14  2  0
 14 15  1  0
 15 16  1  0
 16 17  2  0
 16 20  1  0
 17 18  1  0
 18 19  2  0
 19 20  1  0
 20 21  1  0
 21 22  2  0
 21 25  1  0
 22 23  1  0
 23 24  1  0
 24 25  2  0
 25 26  1  0
M  END
