
     RDKit          3D

 26 29  0  0  0  0  0  0  0  0999 V2000
    2.4630    3.4290   -0.8210 C   0  0  0  0  0  0  0  0  0  0  0  0
    3.4120    2.5880   -1.4410 O   0  0  0  0  0  0  0  0  0  0  0  0
    3.5840    1.3100   -0.9070 C   0  0  0  0  0  0  0  0  0  0  0  0
    4.4990    0.4260   -1.4630 C   0  0  0  0  0  0  0  0  0  0  0  0
    4.6610   -0.8370   -0.9260 C   0  0  0  0  0  0  0  0  0  0  0  0
    5.5770   -1.7060   -1.4920 O   0  0  0  0  0  0  0  0  0  0  0  0
    5.7570   -2.9960   -0.9610 C   0  0  0  0  0  0  0  0  0  0  0  0
    3.9320   -1.2400    0.1510 C   0  0  0  0  0  0  0  0  0  0  0  0
    3.0270   -0.3740    0.7060 C   0  0  0  0  0  0  0  0  0  0  0  0
    2.0700   -0.9240    2.1340 S   0  0  0  0  0  0  0  0  0  0  0  0
    0.5890   -1.6780    1.4990 C   0  0  0  0  0  0  0  0  0  0  0  0
    0.3360   -2.9450    1.1510 N   0  0  0  0  0  0  0  0  0  0  0  0
   -0.9310   -3.0480    0.7230 N   0  0  0  0  0  0  0  0  0  0  0  0
   -1.4920   -1.8410    0.7970 C   0  0  0  0  0  0  0  0  0  0  0  0
   -2.6560   -1.1370    0.5720 C   0  0  0  0  0  0  0  0  0  0  0  0
   -3.9160   -1.4600    0.0990 C   0  0  0  0  0  0  0  0  0  0  0  0
   -4.8960   -0.4890   -0.0100 C   0  0  0  0  0  0  0  0  0  0  0  0
   -6.1440   -0.8610   -0.4890 O   0  0  0  0  0  0  0  0  0  0  0  0
   -7.1860    0.0630   -0.6290 C   0  0  0  0  0  0  0  0  0  0  0  0
   -4.6040    0.7750    0.3500 N   0  0  0  0  0  0  0  0  0  0  0  0
   -3.3980    1.1400    0.8140 C   0  0  0  0  0  0  0  0  0  0  0  0
   -3.0290    2.5120    1.2210 C   0  0  0  0  0  0  0  0  0  0  0  0
   -2.4080    0.1620    0.9250 C   0  0  0  0  0  0  0  0  0  0  0  0
   -1.1330    0.1910    1.3410 N   0  0  0  0  0  0  0  0  0  0  0  0
   -0.5560   -0.9960    1.2750 N   0  0  0  0  0  0  0  0  0  0  0  0
    2.8660    0.8700    0.1790 C   0  0  0  0  0  0  0  0  0  0  0  0
  1  2  1  0
  2  3  1  0
  3  4  2  0
  3 26  1  0
  4  5  1  0
  5  6  1  0
  5  8  2  0
  6  7  1  0
  8  9  1  0
  9 10  1  0
  9 26  2  0
 10 11  1  0
 11 12  2  0
 11 25  1  0
 12 13  1  0
 13 14  2  0
 14 15  1  0
 14 25  1  0
 15 16  2  0
 15 23  1  0
 16 17  1  0
 17 18  1  0
 17 20  2  0
 18 19  1  0
 20 21  1  0
 21 22  1  0
 21 23  2  0
 23 24  1  0
 24 25  1  0
M  END
