
     RDKit          3D

 26 29  0  0  0  0  0  0  0  0999 V2000
   -2.8310    0.4910   -1.8440 O   0  0  0  0  0  0  0  0  0  0  0  0
   -2.1180    0.0570   -0.9090 C   0  0  0  0  0  0  0  0  0  0  0  0
   -0.7590    0.2200   -1.0200 N   0  0  0  0  0  0  0  0  0  0  0  0
    0.0990   -0.2170   -0.0840 C   0  0  0  0  0  0  0  0  0  0  0  0
    1.5360   -0.0510   -0.1900 C   0  0  0  0  0  0  0  0  0  0  0  0
    2.1250    0.5840   -1.2910 C   0  0  0  0  0  0  0  0  0  0  0  0
    3.4850    0.7610   -1.4280 C   0  0  0  0  0  0  0  0  0  0  0  0
    4.2860    0.2850   -0.4260 C   0  0  0  0  0  0  0  0  0  0  0  0
    5.6870    0.4460   -0.5270 N   0  0  0  0  0  0  0  0  0  0  0  0
    6.5720    0.7660    0.4110 C   0  0  0  0  0  0  0  0  0  0  0  0
    7.8010    0.7990   -0.1760 C   0  0  0  0  0  0  0  0  0  0  0  0
    7.6380    0.4920   -1.4860 N   0  0  0  0  0  0  0  0  0  0  0  0
    6.3510    0.2860   -1.6600 N   0  0  0  0  0  0  0  0  0  0  0  0
    3.7900   -0.3470    0.6820 C   0  0  0  0  0  0  0  0  0  0  0  0
    2.3980   -0.5050    0.7790 C   0  0  0  0  0  0  0  0  0  0  0  0
   -0.4390   -0.8440    1.0070 C   0  0  0  0  0  0  0  0  0  0  0  0
   -1.8100   -1.0130    1.1310 C   0  0  0  0  0  0  0  0  0  0  0  0
   -2.7120   -0.5530    0.1500 C   0  0  0  0  0  0  0  0  0  0  0  0
   -4.1330   -0.6920    0.4340 C   0  0  0  0  0  0  0  0  0  0  0  0
   -4.5900   -1.7200    1.2980 C   0  0  0  0  0  0  0  0  0  0  0  0
   -5.9360   -1.6000    1.4540 C   0  0  0  0  0  0  0  0  0  0  0  0
   -6.3090   -0.5150    0.7020 C   0  0  0  0  0  0  0  0  0  0  0  0
   -5.1930    0.0190    0.0950 N   0  0  0  0  0  0  0  0  0  0  0  0
   -5.3070    1.4350   -0.8390 S   0  0  2  0  0  0  0  0  0  0  0  0
   -4.2890    2.4590   -0.3590 O   0  0  0  0  0  0  0  0  0  0  0  0
   -6.7040    2.0810   -0.6180 O   0  0  0  0  0  0  0  0  0  0  0  0
  1  2  2  0
  2  3  1  0
  2 18  1  0
  3  4  1  0
  4  5  1  0
  4 16  2  0
  5  6  2  0
  5 15  1  0
  6  7  1  0
  7  8  2  0
  8  9  1  0
  8 14  1  0
  9 10  1  0
  9 13  1  0
 10 11  2  0
 11 12  1  0
 12 13  2  0
 14 15  2  0
 16 17  1  0
 17 18  2  0
 18 19  1  0
 19 20  2  0
 19 23  1  0
 20 21  1  0
 21 22  2  0
 22 23  1  0
 24 23  1  1
 24 25  2  0
 24 26  2  0
M  END
