
     RDKit          3D

 25 28  0  0  0  0  0  0  0  0999 V2000
    7.8220   -1.5090   -0.8180 C   0  0  0  0  0  0  0  0  0  0  0  0
    7.6070   -0.1520   -0.4910 O   0  0  0  0  0  0  0  0  0  0  0  0
    6.3320    0.2530   -0.1340 C   0  0  0  0  0  0  0  0  0  0  0  0
    5.2970   -0.6380   -0.0970 C   0  0  0  0  0  0  0  0  0  0  0  0
    4.0180   -0.2040    0.2670 C   0  0  0  0  0  0  0  0  0  0  0  0
    2.8390   -0.8660    0.3820 N   0  0  0  0  0  0  0  0  0  0  0  0
    1.8770   -0.0180    0.7640 C   0  0  0  0  0  0  0  0  0  0  0  0
    0.4470   -0.3260    1.0060 C   0  0  0  0  0  0  0  0  0  0  0  0
   -0.3010   -0.1550   -0.2260 N   0  0  0  0  0  0  0  0  0  0  0  0
   -1.0910    1.0540   -0.0900 C   0  0  0  0  0  0  0  0  0  0  0  0
   -2.4950    0.6290    0.1560 C   0  0  0  0  0  0  0  0  0  0  0  0
   -3.0030    0.4170    1.4210 C   0  0  0  0  0  0  0  0  0  0  0  0
   -4.2840    0.0270    1.6720 C   0  0  0  0  0  0  0  0  0  0  0  0
   -5.1280   -0.1690    0.5850 C   0  0  0  0  0  0  0  0  0  0  0  0
   -4.6230    0.0420   -0.6780 C   0  0  0  0  0  0  0  0  0  0  0  0
   -3.3370    0.4300   -0.8730 N   0  0  0  0  0  0  0  0  0  0  0  0
   -5.4870   -0.1610   -1.7530 O   0  0  0  0  0  0  0  0  0  0  0  0
   -6.8580    0.1190   -1.5410 C   0  0  0  0  0  0  0  0  0  0  0  0
   -7.4060   -0.5590   -0.3270 C   0  0  0  0  0  0  0  0  0  0  0  0
   -6.4770   -0.5750    0.7580 N   0  0  0  0  0  0  0  0  0  0  0  0
    2.4560    1.1840    0.8890 N   0  0  0  0  0  0  0  0  0  0  0  0
    3.7700    1.1020    0.5910 C   0  0  0  0  0  0  0  0  0  0  0  0
    4.8250    1.9990    0.5510 C   0  0  0  0  0  0  0  0  0  0  0  0
    6.1030    1.5690    0.1880 C   0  0  0  0  0  0  0  0  0  0  0  0
    7.1200    2.4710    0.1570 F   0  0  0  0  0  0  0  0  0  0  0  0
  1  2  1  0
  2  3  1  0
  3  4  2  0
  3 24  1  0
  4  5  1  0
  5  6  1  0
  5 22  2  0
  6  7  1  0
  7  8  1  0
  7 21  2  0
  8  9  1  0
  9 10  1  0
 10 11  1  0
 11 12  2  0
 11 16  1  0
 12 13  1  0
 13 14  2  0
 14 15  1  0
 14 20  1  0
 15 16  2  0
 15 17  1  0
 17 18  1  0
 18 19  1  0
 19 20  1  0
 21 22  1  0
 22 23  1  0
 23 24  2  0
 24 25  1  0
M  CHG  1   9   1
M  END
