
     RDKit          3D

 25 28  0  0  0  0  0  0  0  0999 V2000
   -1.0490   -1.5150   -0.0500 O   0  0  0  0  0  0  0  0  0  0  0  0
   -1.0610   -0.2890   -0.0370 C   0  0  0  0  0  0  0  0  0  0  0  0
    0.2090    0.3800   -0.0610 N   0  0  0  0  0  0  0  0  0  0  0  0
    1.4420   -0.2990   -0.0970 C   0  0  0  0  0  0  0  0  0  0  0  0
    1.7410   -1.6270   -0.1170 C   0  0  0  0  0  0  0  0  0  0  0  0
    3.0780   -1.7600   -0.1500 N   0  0  0  0  0  0  0  0  0  0  0  0
    3.6670   -0.5830   -0.1520 N   0  0  0  0  0  0  0  0  0  0  0  0
    5.0810   -0.3540   -0.1840 C   0  0  0  0  0  0  0  0  0  0  0  0
    5.6340    0.8320   -0.5930 C   0  0  0  0  0  0  0  0  0  0  0  0
    7.0190    0.9820   -0.5970 C   0  0  0  0  0  0  0  0  0  0  0  0
    7.8390   -0.0550   -0.1910 C   0  0  0  0  0  0  0  0  0  0  0  0
    7.2890   -1.2600    0.2260 C   0  0  0  0  0  0  0  0  0  0  0  0
    5.9200   -1.3700    0.2160 C   0  0  0  0  0  0  0  0  0  0  0  0
    2.6870    0.3330   -0.1200 C   0  0  0  0  0  0  0  0  0  0  0  0
   -2.2630    0.4380   -0.0010 N   0  0  0  0  0  0  0  0  0  0  0  0
   -3.5600   -0.1120    0.0240 C   0  0  0  0  0  0  0  0  0  0  0  0
   -3.8440   -1.4450    0.0170 C   0  0  0  0  0  0  0  0  0  0  0  0
   -5.1580   -1.9320    0.0440 C   0  0  0  0  0  0  0  0  0  0  0  0
   -5.3840   -3.2600    0.0360 F   0  0  0  0  0  0  0  0  0  0  0  0
   -6.2090   -1.0580    0.0770 C   0  0  0  0  0  0  0  0  0  0  0  0
   -5.9320    0.3010    0.0840 C   0  0  0  0  0  0  0  0  0  0  0  0
   -4.6600    0.7570    0.0590 C   0  0  0  0  0  0  0  0  0  0  0  0
   -4.7530    2.2380    0.0760 C   0  0  0  0  0  0  0  0  0  0  0  0
   -6.0740    2.4200    0.6800 N   0  0  0  0  0  0  0  0  0  0  0  0
   -6.8120    1.4090    0.1160 O   0  0  0  0  0  0  0  0  0  0  0  0
  1  2  2  0
  2  3  1  0
  2 15  1  0
  3  4  1  0
  4  5  1  0
  4 14  2  0
  5  6  2  0
  6  7  1  0
  7  8  1  0
  7 14  1  0
  8  9  2  0
  8 13  1  0
  9 10  1  0
 10 11  2  0
 11 12  1  0
 12 13  2  0
 15 16  1  0
 16 17  2  0
 16 22  1  0
 17 18  1  0
 18 19  1  0
 18 20  2  0
 20 21  1  0
 21 22  2  0
 21 25  1  0
 22 23  1  0
 23 24  1  0
 24 25  1  0
M  CHG  1  24   1
M  END
