
     RDKit          3D

 25 28  0  0  0  0  0  0  0  0999 V2000
   -4.6540    2.2300   -0.5350 C   0  0  0  0  0  0  0  0  0  0  0  0
   -4.7130    0.7190   -0.5990 C   0  0  2  0  0  0  0  0  0  0  0  0
   -5.7540    0.2580    0.4100 C   0  0  0  0  0  0  0  0  0  0  0  0
   -6.4280    1.1370    1.0390 O   0  0  0  0  0  0  0  0  0  0  0  0
   -5.8850   -1.0990    0.5630 O   0  0  0  0  0  0  0  0  0  0  0  0
   -4.8320   -1.9560    0.2380 C   0  0  0  0  0  0  0  0  0  0  0  0
   -3.5290   -1.2000    0.3200 C   0  0  0  0  0  0  0  0  0  0  0  0
   -3.5080    0.0760   -0.2600 N   0  0  0  0  0  0  0  0  0  0  0  0
   -2.3420    0.3990   -0.9660 C   0  0  0  0  0  0  0  0  0  0  0  0
   -1.1070    0.2990   -0.1280 C   0  0  0  0  0  0  0  0  0  0  0  0
   -0.0100   -0.3720   -0.5350 C   0  0  0  0  0  0  0  0  0  0  0  0
    1.1650   -0.4100    0.2140 C   0  0  0  0  0  0  0  0  0  0  0  0
    2.3710   -1.0890   -0.2340 C   0  0  0  0  0  0  0  0  0  0  0  0
    2.6340   -2.3260   -0.7310 C   0  0  0  0  0  0  0  0  0  0  0  0
    3.9720   -2.4160   -0.9950 N   0  0  0  0  0  0  0  0  0  0  0  0
    4.5630   -1.2870   -0.6860 N   0  0  0  0  0  0  0  0  0  0  0  0
    3.6160   -0.4550   -0.2170 C   0  0  0  0  0  0  0  0  0  0  0  0
    4.0140    0.8520    0.1940 N   0  0  0  0  0  0  0  0  0  0  0  0
    5.4320    1.0370    0.5470 C   0  0  0  0  0  0  0  0  0  0  0  0
    6.1640    0.5170   -0.5810 N   0  0  0  0  0  0  0  0  0  0  0  0
    5.9590   -0.8960   -0.7900 C   0  0  0  0  0  0  0  0  0  0  0  0
    1.1370    0.2810    1.4060 C   0  0  0  0  0  0  0  0  0  0  0  0
    0.0320    0.9750    1.8410 C   0  0  0  0  0  0  0  0  0  0  0  0
   -1.0970    0.9920    1.0780 C   0  0  0  0  0  0  0  0  0  0  0  0
   -2.1690    1.6620    1.4720 F   0  0  0  0  0  0  0  0  0  0  0  0
  2  1  1  1
  2  3  1  0
  2  8  1  0
  3  4  2  0
  3  5  1  0
  5  6  1  0
  6  7  1  0
  7  8  1  0
  8  9  1  0
  9 10  1  0
 10 11  2  0
 10 24  1  0
 11 12  1  0
 12 13  1  0
 12 22  2  0
 13 14  1  0
 13 17  2  0
 14 15  2  0
 15 16  1  0
 16 17  1  0
 16 21  1  0
 17 18  1  0
 18 19  1  0
 19 20  1  0
 20 21  1  0
 22 23  1  0
 23 24  2  0
 24 25  1  0
M  CHG  1  20   1
M  END
