
     RDKit          3D

 13 13  0  0  0  0  0  0  0  0999 V2000
    3.6700    0.7560    0.9440 C   0  0  0  0  0  0  0  0  0  0  0  0
    2.9480    0.9570   -0.3750 C   0  0  0  0  0  0  0  0  0  0  0  0
    1.6070    0.5000   -0.3000 O   0  0  0  0  0  0  0  0  0  0  0  0
    1.3020   -0.7960   -0.0100 C   0  0  0  0  0  0  0  0  0  0  0  0
    2.2890   -1.5660    0.1890 O   0  0  0  0  0  0  0  0  0  0  0  0
   -0.0250   -1.3670    0.0920 C   0  0  0  0  0  0  0  0  0  0  0  0
   -1.1720   -0.7600   -0.0720 C   0  0  0  0  0  0  0  0  0  0  0  0
   -1.2900    0.6530   -0.3980 C   0  0  0  0  0  0  0  0  0  0  0  0
   -2.5110    1.1980   -0.5500 C   0  0  0  0  0  0  0  0  0  0  0  0
   -3.7310    0.4140   -0.3970 C   0  0  0  0  0  0  0  0  0  0  0  0
   -3.7140   -0.8630   -0.1040 C   0  0  0  0  0  0  0  0  0  0  0  0
   -2.4250   -1.5080    0.0720 C   0  0  0  0  0  0  0  0  0  0  0  0
   -2.4180   -2.7560    0.3580 O   0  0  0  0  0  0  0  0  0  0  0  0
  1  2  1  0
  2  3  1  0
  3  4  1  0
  4  5  2  0
  4  6  1  0
  6  7  2  3
  7  8  1  0
  7 12  1  0
  8  9  2  0
  9 10  1  0
 10 11  2  0
 11 12  1  0
 12 13  2  0
M  END
