
     RDKit          3D

 13 13  0  0  0  0  0  0  0  0999 V2000
    4.4070   -0.1750   -1.1250 C   0  0  0  0  0  0  0  0  0  0  0  0
    2.9980   -0.0560   -1.1680 O   0  0  0  0  0  0  0  0  0  0  0  0
    2.2140   -0.0860   -0.0160 C   0  0  0  0  0  0  0  0  0  0  0  0
    2.7980   -0.2210    1.0660 O   0  0  0  0  0  0  0  0  0  0  0  0
    0.7720    0.0380   -0.0950 C   0  0  0  0  0  0  0  0  0  0  0  0
    0.0660    0.0060    1.0170 C   0  0  0  0  0  0  0  0  0  0  0  0
    0.7860   -0.1570    2.3010 C   0  0  0  0  0  0  0  0  0  0  0  0
   -1.4110    0.1190    1.0930 C   0  0  0  0  0  0  0  0  0  0  0  0
   -2.2990    0.1080    0.1140 C   0  0  0  0  0  0  0  0  0  0  0  0
   -3.7310    0.2410    0.4980 C   0  0  0  0  0  0  0  0  0  0  0  0
   -2.0970   -0.0200   -1.3650 C   0  0  0  0  0  0  0  0  0  0  0  0
   -0.9330    0.8630   -1.7570 C   0  0  0  0  0  0  0  0  0  0  0  0
    0.2580    0.1870   -1.4110 O   0  0  0  0  0  0  0  0  0  0  0  0
  1  2  1  0
  2  3  1  0
  3  4  2  0
  3  5  1  0
  5  6  2  0
  5 13  1  0
  6  7  1  0
  6  8  1  0
  8  9  2  0
  9 10  1  0
  9 11  1  0
 11 12  1  0
 12 13  1  0
M  END
