
     RDKit          3D

 13 13  0  0  0  0  0  0  0  0999 V2000
   -2.8150   -2.4620    0.0110 C   0  0  0  0  0  0  0  0  0  0  0  0
   -1.4880   -2.2050   -0.4070 O   0  0  0  0  0  0  0  0  0  0  0  0
   -0.8450   -0.9950   -0.1660 C   0  0  0  0  0  0  0  0  0  0  0  0
    0.4900   -0.9440   -0.0170 C   0  0  0  0  0  0  0  0  0  0  0  0
    1.2030    0.2930    0.2350 C   0  0  0  0  0  0  0  0  0  0  0  0
    2.4930    0.4090    0.3890 C   0  0  0  0  0  0  0  0  0  0  0  0
    3.4070   -0.7260    0.3240 C   0  0  0  0  0  0  0  0  0  0  0  0
    4.3150   -0.4990   -0.7150 O   0  0  0  0  0  0  0  0  0  0  0  0
    0.3750    1.5040    0.3190 C   0  0  0  0  0  0  0  0  0  0  0  0
    0.8830    2.6320    0.5340 O   0  0  0  0  0  0  0  0  0  0  0  0
   -1.0680    1.4080    0.1520 C   0  0  0  0  0  0  0  0  0  0  0  0
   -1.9540    2.6200    0.2300 C   0  0  0  0  0  0  0  0  0  0  0  0
   -1.6240    0.2310   -0.0740 C   0  0  0  0  0  0  0  0  0  0  0  0
  1  2  1  0
  2  3  1  0
  3  4  2  0
  3 13  1  0
  4  5  1  0
  5  6  2  3
  5  9  1  0
  6  7  1  0
  7  8  1  0
  9 10  2  0
  9 11  1  0
 11 12  1  0
 11 13  2  0
M  END
