
     RDKit          3D

 18 19  0  0  0  0  0  0  0  0999 V2000
    5.3680    0.7020    0.1060 C   0  0  0  0  0  0  0  0  0  0  0  0
    4.2310    0.0350    0.0680 C   0  0  0  0  0  0  0  0  0  0  0  0
    3.9950   -1.1450    0.9560 C   0  0  0  0  0  0  0  0  0  0  0  0
    2.7690   -0.8750    1.5820 O   0  0  0  0  0  0  0  0  0  0  0  0
    1.7390   -0.9360    0.6820 C   0  0  0  0  0  0  0  0  0  0  0  0
    1.9360   -0.1920   -0.5990 C   0  0  1  0  0  0  0  0  0  0  0  0
    0.8590    0.8930   -0.6880 C   0  0  0  0  0  0  0  0  0  0  0  0
   -0.3770    0.1790   -0.4860 N   0  0  0  0  0  0  0  0  0  0  0  0
   -1.6200    0.8330   -0.4910 C   0  0  0  0  0  0  0  0  0  0  0  0
   -1.7270    2.0570   -0.6700 O   0  0  0  0  0  0  0  0  0  0  0  0
   -2.7990   -0.0260   -0.2690 C   0  0  0  0  0  0  0  0  0  0  0  0
   -2.7600   -1.2510   -0.0930 O   0  0  0  0  0  0  0  0  0  0  0  0
   -4.0460    0.5570   -0.2510 N   0  0  0  0  0  0  0  0  0  0  0  0
   -5.2400   -0.1830   -0.0440 C   0  0  0  0  0  0  0  0  0  0  0  0
   -6.3470    0.4430   -0.0430 N   0  0  0  0  0  0  0  0  0  0  0  0
   -7.0600   -0.7550    0.1910 C   0  0  0  0  0  0  0  0  0  0  0  0
   -5.9390   -1.3780    0.1880 N   0  0  0  0  0  0  0  0  0  0  0  0
    3.1970    0.3790   -0.7810 O   0  0  0  0  0  0  0  0  0  0  0  0
  1  2  2  0
  2  3  1  0
  2 18  1  0
  3  4  1  0
  4  5  1  0
  5  6  1  0
  6  7  1  1
  6 18  1  0
  7  8  1  0
  8  9  1  0
  9 10  2  0
  9 11  1  0
 11 12  2  0
 11 13  1  0
 13 14  1  0
 14 15  2  0
 14 17  1  0
 15 16  1  0
 16 17  2  0
M  END
