
     RDKit          3D

 18 19  0  0  0  0  0  0  0  0999 V2000
    4.2970   -1.0650    1.9640 O   0  0  0  0  0  0  0  0  0  0  0  0
    3.3510   -0.4830    1.3630 C   0  0  0  0  0  0  0  0  0  0  0  0
    2.3740    0.1570    2.0000 N   0  0  0  0  0  0  0  0  0  0  0  0
    1.3840    0.7640    1.2990 C   0  0  0  0  0  0  0  0  0  0  0  0
    0.5110    1.3400    1.9530 O   0  0  0  0  0  0  0  0  0  0  0  0
    1.3790    0.7250   -0.0140 N   0  0  0  0  0  0  0  0  0  0  0  0
    0.3620    1.3200   -0.8350 C   0  0  0  0  0  0  0  0  0  0  0  0
   -0.7570    0.4420   -1.2060 C   0  0  0  0  0  0  0  0  0  0  0  0
   -1.5800   -0.0620   -0.1160 N   0  0  0  0  0  0  0  0  0  0  0  0
   -2.4500   -1.0610   -0.7590 C   0  0  0  0  0  0  0  0  0  0  0  0
   -3.3160   -1.6400    0.2970 C   0  0  0  0  0  0  0  0  0  0  0  0
   -4.0150   -0.7560    1.0450 O   0  0  0  0  0  0  0  0  0  0  0  0
   -3.7740    0.5620    0.8750 C   0  0  0  0  0  0  0  0  0  0  0  0
   -2.4860    0.9960    0.3100 C   0  0  0  0  0  0  0  0  0  0  0  0
    2.3660    0.0760   -0.7220 C   0  0  0  0  0  0  0  0  0  0  0  0
    3.3740   -0.5420   -0.0270 C   0  0  0  0  0  0  0  0  0  0  0  0
    4.4070   -1.2260   -0.7120 N   0  0  0  0  0  0  0  0  0  0  0  0
    5.5300   -0.6100   -1.0870 O   0  0  0  0  0  0  0  0  0  0  0  0
  1  2  2  0
  2  3  1  0
  2 16  1  0
  3  4  1  0
  4  5  2  0
  4  6  1  0
  6  7  1  0
  6 15  1  0
  7  8  1  0
  8  9  1  0
  9 10  1  0
  9 14  1  0
 10 11  1  0
 11 12  1  0
 12 13  1  0
 13 14  1  0
 15 16  2  0
 16 17  1  0
 17 18  1  0
M  END
