
     RDKit          3D

 26 27  0  0  0  0  0  0  0  0999 V2000
    3.7810    2.1170    2.2070 C   0  0  0  0  0  0  0  0  0  0  0  0
    4.1130    0.7360    1.6330 C   0  0  1  0  0  0  0  0  0  0  0  0
    2.9410   -0.4320    2.2950 S   0  0  0  0  0  0  0  0  0  0  0  0
    1.2500   -0.1880    1.7530 C   0  0  0  0  0  0  0  0  0  0  0  0
    1.0860   -0.4720    0.1860 C   0  0  0  0  0  0  0  0  0  0  0  0
   -0.2900   -0.1950    0.0120 N   0  0  0  0  0  0  0  0  0  0  0  0
   -0.7850    1.1510   -0.2400 C   0  0  0  0  0  0  0  0  0  0  0  0
   -0.0640    2.1560   -0.2530 O   0  0  0  0  0  0  0  0  0  0  0  0
   -2.2320    1.2800   -0.4880 C   0  0  2  0  0  0  0  0  0  0  0  0
   -2.5750    2.6820   -0.2160 N   0  0  0  0  0  0  0  0  0  0  0  0
   -3.0350    3.5640   -1.2060 C   0  0  0  0  0  0  0  0  0  0  0  0
   -3.3390    4.9180   -0.8120 N   0  0  0  0  0  0  0  0  0  0  0  0
   -3.1690    3.1670   -2.3840 O   0  0  0  0  0  0  0  0  0  0  0  0
   -3.0950    0.4410    0.3710 C   0  0  0  0  0  0  0  0  0  0  0  0
   -2.5670   -0.8720    0.8400 C   0  0  1  0  0  0  0  0  0  0  0  0
   -3.5090   -1.8830    0.8580 O   0  0  0  0  0  0  0  0  0  0  0  0
   -3.3240   -3.0790    0.2150 C   0  0  0  0  0  0  0  0  0  0  0  0
   -4.2460   -3.9710    0.2780 O   0  0  0  0  0  0  0  0  0  0  0  0
   -2.1450   -3.3230   -0.4990 N   0  0  0  0  0  0  0  0  0  0  0  0
   -1.0860   -2.3210   -0.5760 C   0  0  0  0  0  0  0  0  0  0  0  0
    0.0890   -2.5410   -1.3780 C   0  0  0  0  0  0  0  0  0  0  0  0
    0.7830   -3.6770   -0.8130 N   0  0  0  0  0  0  0  0  0  0  0  0
   -1.3190   -1.2120    0.0650 C   0  0  0  0  0  0  0  0  0  0  0  0
    4.1740    0.8090    0.1830 C   0  0  0  0  0  0  0  0  0  0  0  0
    4.4410   -0.3450   -0.5830 N   0  0  0  0  0  0  0  0  0  0  0  0
    3.9910    1.8950   -0.4050 O   0  0  0  0  0  0  0  0  0  0  0  0
  2  1  1  1
  2  3  1  0
  2 24  1  0
  3  4  1  0
  4  5  1  0
  5  6  1  0
  6  7  1  0
  6 23  1  0
  7  8  2  0
  7  9  1  0
  9 10  1  1
  9 14  1  0
 10 11  1  0
 11 12  1  0
 11 13  2  0
 15 14  1  6
 15 16  1  0
 15 23  1  0
 16 17  1  0
 17 18  2  0
 17 19  1  0
 19 20  1  0
 20 21  1  0
 20 23  2  0
 21 22  1  0
 24 25  1  0
 24 26  2  0
M  CHG  1  22   1
M  END
