
     RDKit          3D

 26 27  0  0  0  0  0  0  0  0999 V2000
   -4.1180    2.1410   -2.7100 C   0  0  0  0  0  0  0  0  0  0  0  0
   -3.7250    1.1050   -1.7040 C   0  0  1  0  0  0  0  0  0  0  0  0
   -4.9370    0.3800   -1.2350 C   0  0  0  0  0  0  0  0  0  0  0  0
   -5.2570    0.2990    0.1430 N   0  0  0  0  0  0  0  0  0  0  0  0
   -5.7340   -0.1940   -2.0360 O   0  0  0  0  0  0  0  0  0  0  0  0
   -2.8240    0.0880   -2.3590 C   0  0  0  0  0  0  0  0  0  0  0  0
   -1.9270   -0.6270   -1.3810 C   0  0  0  0  0  0  0  0  0  0  0  0
   -1.1010    0.3080   -0.5310 C   0  0  1  0  0  0  0  0  0  0  0  0
    0.2730    0.0950   -0.8020 N   0  0  0  0  0  0  0  0  0  0  0  0
    1.2210   -0.3230    0.1810 C   0  0  0  0  0  0  0  0  0  0  0  0
    0.7570   -0.4960    1.3330 O   0  0  0  0  0  0  0  0  0  0  0  0
    2.5820   -0.5320   -0.0870 N   0  0  0  0  0  0  0  0  0  0  0  0
    3.5040   -0.9340    0.9050 C   0  0  0  0  0  0  0  0  0  0  0  0
    4.1060   -2.0980    0.8130 C   0  0  0  0  0  0  0  0  0  0  0  0
    3.8450   -2.9990   -0.2980 C   0  0  0  0  0  0  0  0  0  0  0  0
    4.4880   -4.2630   -0.4230 N   0  0  0  0  0  0  0  0  0  0  0  0
    3.0240   -2.6590   -1.1830 O   0  0  0  0  0  0  0  0  0  0  0  0
    3.7750   -0.0350    2.0270 C   0  0  0  0  0  0  0  0  0  0  0  0
    3.1850    1.1350    2.1240 C   0  0  0  0  0  0  0  0  0  0  0  0
    3.7820    1.8990    3.6100 S   0  0  0  0  0  0  0  0  0  0  0  0
    2.6010    2.0180    4.5860 O   0  0  0  0  0  0  0  0  0  0  0  0
    4.8510    0.5790    4.0680 C   0  0  0  0  0  0  0  0  0  0  0  0
    5.5710    0.5600    5.0800 O   0  0  0  0  0  0  0  0  0  0  0  0
    4.6760   -0.3690    3.0510 N   0  0  0  0  0  0  0  0  0  0  0  0
   -1.5970    1.7050   -0.7500 C   0  0  0  0  0  0  0  0  0  0  0  0
   -3.0540    1.6530   -0.5510 N   0  0  0  0  0  0  0  0  0  0  0  0
  2  1  1  6
  2  3  1  0
  2  6  1  0
  2 26  1  0
  3  4  1  0
  3  5  2  0
  6  7  1  0
  7  8  1  0
  8  9  1  6
  8 25  1  0
  9 10  1  0
 10 11  2  0
 10 12  1  0
 12 13  1  0
 13 14  2  3
 13 18  1  0
 14 15  1  0
 15 16  1  0
 15 17  2  0
 18 19  2  0
 18 24  1  0
 20 19  1  6
 20 21  2  0
 20 22  1  0
 22 23  2  0
 22 24  1  0
 25 26  1  0
M  CHG  1  26   1
M  END
