
     RDKit          3D

 21 24  0  0  0  0  0  0  0  0999 V2000
    3.4570   -0.5090    1.7280 C   0  0  0  0  0  0  0  0  0  0  0  0
    2.1240   -0.7370    1.0620 C   0  0  2  0  0  0  0  0  0  0  0  0
    2.0630   -2.0390    0.5050 O   0  0  0  0  0  0  0  0  0  0  0  0
    0.6850   -2.1710    0.1970 C   0  0  0  0  0  0  0  0  0  0  0  0
    0.4920   -1.2730   -1.0300 C   0  0  1  0  0  0  0  0  0  0  0  0
   -0.6910   -1.8040   -1.7620 C   0  0  0  0  0  0  0  0  0  0  0  0
   -1.8560   -1.6790   -0.8140 C   0  0  0  0  0  0  0  0  0  0  0  0
   -2.5880   -2.6760   -0.3610 C   0  0  0  0  0  0  0  0  0  0  0  0
   -3.6090   -2.1120    0.5290 C   0  0  0  0  0  0  0  0  0  0  0  0
   -3.3600   -0.6640    0.5220 C   0  0  0  0  0  0  0  0  0  0  0  0
   -2.3290   -0.4170   -0.2700 C   0  0  0  0  0  0  0  0  0  0  0  0
   -1.7530    0.9170   -0.5570 C   0  0  0  0  0  0  0  0  0  0  0  0
   -0.3010    1.0350   -0.1810 C   0  0  2  0  0  0  0  0  0  0  0  0
   -0.2440    1.2580    1.3130 C   0  0  0  0  0  0  0  0  0  0  0  0
   -1.0830    2.5290    1.5330 C   0  0  0  0  0  0  0  0  0  0  0  0
   -0.8800    3.2970    0.2770 C   0  0  0  0  0  0  0  0  0  0  0  0
    0.0210    2.4850   -0.6280 C   0  0  0  0  0  0  0  0  0  0  0  0
    0.6560    0.1550   -0.7950 C   0  0  2  0  0  0  0  0  0  0  0  0
    0.9790    0.7170   -2.0690 O   0  0  0  0  0  0  0  0  0  0  0  0
    1.9940    0.2710   -0.0340 C   0  0  2  0  0  0  0  0  0  0  0  0
    3.0970   -0.0810   -1.0480 C   0  0  0  0  0  0  0  0  0  0  0  0
  2  1  1  6
  2  3  1  0
  2 20  1  0
  3  4  1  0
  5  4  1  1
  5  6  1  0
  5 18  1  0
  6  7  1  0
  7  8  2  0
  7 11  1  0
  8  9  1  0
  9 10  1  0
 10 11  2  0
 11 12  1  0
 13 12  1  1
 13 14  1  0
 13 17  1  0
 13 18  1  0
 14 15  1  0
 15 16  1  0
 16 17  1  0
 18 19  1  6
 18 20  1  0
 20 21  1  6
M  END
