
     RDKit          3D

 43 47  0  0  0  0  0  0  0  0999 V2000
   12.1180   -0.2350    0.1790 C   0  0  0  0  0  0  0  0  0  0  0  0
   10.6670   -0.5880    0.2090 C   0  0  0  0  0  0  0  0  0  0  0  0
    9.7030    0.4050    0.1390 C   0  0  0  0  0  0  0  0  0  0  0  0
    8.3590    0.1070    0.1650 C   0  0  0  0  0  0  0  0  0  0  0  0
    7.9710   -1.2170    0.2630 C   0  0  0  0  0  0  0  0  0  0  0  0
    6.5180   -1.5280    0.2890 C   0  0  2  0  0  0  0  0  0  0  0  0
    5.8610   -1.1880   -1.0070 C   0  0  0  0  0  0  0  0  0  0  0  0
    5.3310    0.1970   -1.0870 C   0  0  0  0  0  0  0  0  0  0  0  0
    5.4170    1.0050   -2.1940 C   0  0  0  0  0  0  0  0  0  0  0  0
    4.8820    2.2800   -2.1270 C   0  0  0  0  0  0  0  0  0  0  0  0
    4.2650    2.7810   -1.0000 C   0  0  0  0  0  0  0  0  0  0  0  0
    4.1910    1.9570    0.0930 C   0  0  0  0  0  0  0  0  0  0  0  0
    4.7210    0.6700    0.0540 C   0  0  0  0  0  0  0  0  0  0  0  0
    4.6750   -0.1650    1.1870 N   0  0  0  0  0  0  0  0  0  0  0  0
    3.5250   -0.2470    1.9780 C   0  0  0  0  0  0  0  0  0  0  0  0
    3.6880   -0.6690    3.1850 O   0  0  0  0  0  0  0  0  0  0  0  0
    2.1730    0.0910    1.5760 C   0  0  0  0  0  0  0  0  0  0  0  0
    1.7690    0.2690    0.2810 C   0  0  0  0  0  0  0  0  0  0  0  0
    0.4520    0.6580    0.0180 C   0  0  0  0  0  0  0  0  0  0  0  0
   -0.4590    0.8690    1.0150 C   0  0  0  0  0  0  0  0  0  0  0  0
   -1.8470    1.2790    0.7660 C   0  0  0  0  0  0  0  0  0  0  0  0
   -2.8270    0.1350    0.6280 C   0  0  1  0  0  0  0  0  0  0  0  0
   -4.1700    0.7680    0.3880 C   0  0  0  0  0  0  0  0  0  0  0  0
   -5.2240   -0.2010   -0.1170 C   0  0  2  0  0  0  0  0  0  0  0  0
   -6.5010   -0.0230    0.5860 C   0  0  0  0  0  0  0  0  0  0  0  0
   -6.4020    0.5030    1.7520 O   0  0  0  0  0  0  0  0  0  0  0  0
   -7.7870   -0.3740    0.1040 N   0  0  0  0  0  0  0  0  0  0  0  0
   -8.0670   -0.9390   -1.1770 C   0  0  0  0  0  0  0  0  0  0  0  0
   -8.3170    0.0690   -2.2750 C   0  0  0  0  0  0  0  0  0  0  0  0
   -8.5680   -0.6840   -3.4500 O   0  0  0  0  0  0  0  0  0  0  0  0
   -8.9120   -0.1630    0.9960 C   0  0  0  0  0  0  0  0  0  0  0  0
   -9.5610    1.1700    0.8990 C   0  0  0  0  0  0  0  0  0  0  0  0
   -8.6450    2.3380    1.1930 C   0  0  0  0  0  0  0  0  0  0  0  0
   -9.4580    3.4890    1.0420 O   0  0  0  0  0  0  0  0  0  0  0  0
   -4.6750   -1.6280   -0.0100 C   0  0  0  0  0  0  0  0  0  0  0  0
   -3.5280   -1.6530   -0.9990 C   0  0  0  0  0  0  0  0  0  0  0  0
   -2.4050   -0.8610   -0.3730 C   0  0  2  0  0  0  0  0  0  0  0  0
   -1.4930   -1.8540    0.2060 N   0  0  0  0  0  0  0  0  0  0  0  0
   -0.0350    0.6840    2.3100 C   0  0  0  0  0  0  0  0  0  0  0  0
    1.2340    0.3090    2.5840 C   0  0  0  0  0  0  0  0  0  0  0  0
    5.8400   -0.9780    1.5140 C   0  0  0  0  0  0  0  0  0  0  0  0
    8.8990   -2.2270    0.3340 C   0  0  0  0  0  0  0  0  0  0  0  0
   10.2350   -1.8940    0.3060 C   0  0  0  0  0  0  0  0  0  0  0  0
  1  2  1  0
  2  3  2  0
  2 43  1  0
  3  4  1  0
  4  5  2  0
  6  5  1  6
  5 42  1  0
  6  7  1  0
  6 41  1  0
  7  8  1  0
  8  9  2  0
  8 13  1  0
  9 10  1  0
 10 11  2  0
 11 12  1  0
 12 13  2  0
 13 14  1  0
 14 15  1  0
 14 41  1  0
 15 16  2  0
 15 17  1  0
 17 18  2  0
 17 40  1  0
 18 19  1  0
 19 20  2  0
 20 21  1  0
 20 39  1  0
 22 21  1  6
 22 23  1  0
 22 37  1  0
 23 24  1  0
 24 25  1  1
 24 35  1  0
 25 26  2  0
 25 27  1  0
 27 28  1  0
 27 31  1  0
 28 29  1  0
 29 30  1  0
 31 32  1  0
 32 33  1  0
 33 34  1  0
 35 36  1  0
 36 37  1  0
 37 38  1  1
 39 40  2  0
 42 43  2  0
M  CHG  1  38   1
M  END
