
     RDKit          3D

 39 44  0  0  0  0  0  0  0  0999 V2000
   -9.2010    0.5010   -1.6320 C   0  0  0  0  0  0  0  0  0  0  0  0
  -10.2300   -0.2170   -1.0500 O   0  0  0  0  0  0  0  0  0  0  0  0
  -10.1330   -0.2310    0.3330 C   0  0  0  0  0  0  0  0  0  0  0  0
   -8.8170   -0.8710    0.7530 C   0  0  0  0  0  0  0  0  0  0  0  0
   -8.7680   -2.2220    0.9340 C   0  0  0  0  0  0  0  0  0  0  0  0
   -7.0040   -2.4330    1.4180 S   0  0  0  0  0  0  0  0  0  0  0  0
   -6.6560   -0.6480    1.2860 C   0  0  0  0  0  0  0  0  0  0  0  0
   -5.2870   -0.2200    1.5880 N   0  0  0  0  0  0  0  0  0  0  0  0
   -4.6900   -0.0730    2.7570 C   0  0  0  0  0  0  0  0  0  0  0  0
   -5.2260   -0.2890    3.8650 O   0  0  0  0  0  0  0  0  0  0  0  0
   -3.4010    0.3490    2.5710 N   0  0  0  0  0  0  0  0  0  0  0  0
   -2.4280    0.6220    3.6130 C   0  0  0  0  0  0  0  0  0  0  0  0
   -3.2220    0.4570    1.2480 C   0  0  0  0  0  0  0  0  0  0  0  0
   -2.1090    0.8440    0.4980 C   0  0  0  0  0  0  0  0  0  0  0  0
   -2.1560    0.8810   -0.8650 C   0  0  0  0  0  0  0  0  0  0  0  0
   -1.0710    1.2540   -1.6690 N   0  0  0  0  0  0  0  0  0  0  0  0
    0.2390    1.5560   -1.3010 C   0  0  0  0  0  0  0  0  0  0  0  0
    0.5730    1.5060   -0.1040 O   0  0  0  0  0  0  0  0  0  0  0  0
    1.2570    1.9320   -2.2390 N   0  0  0  0  0  0  0  0  0  0  0  0
    2.6010    2.2390   -1.8400 C   0  0  0  0  0  0  0  0  0  0  0  0
    3.4060    1.0350   -1.5100 C   0  0  0  0  0  0  0  0  0  0  0  0
    2.9920   -0.2640   -1.4930 C   0  0  0  0  0  0  0  0  0  0  0  0
    4.0240   -0.9910   -1.1520 O   0  0  0  0  0  0  0  0  0  0  0  0
    5.0550   -0.2230   -0.9550 C   0  0  0  0  0  0  0  0  0  0  0  0
    6.4020   -0.6300   -0.5620 C   0  0  0  0  0  0  0  0  0  0  0  0
    7.3780    0.2500   -0.3920 C   0  0  0  0  0  0  0  0  0  0  0  0
    8.6910   -0.1380   -0.0090 N   0  0  0  0  0  0  0  0  0  0  0  0
    9.7150    0.8650    0.1610 C   0  0  0  0  0  0  0  0  0  0  0  0
   11.0010    0.2910    0.5530 C   0  0  0  0  0  0  0  0  0  0  0  0
   11.1860   -0.9930    0.7260 C   0  0  0  0  0  0  0  0  0  0  0  0
   10.1370   -1.9160    0.5420 N   0  0  0  0  0  0  0  0  0  0  0  0
    8.9580   -1.5050    0.1930 C   0  0  0  0  0  0  0  0  0  0  0  0
    7.8750   -2.4560    0.0020 C   0  0  0  0  0  0  0  0  0  0  0  0
    6.6630   -2.0460   -0.3560 C   0  0  0  0  0  0  0  0  0  0  0  0
    4.6880    1.0510   -1.1750 N   0  0  0  0  0  0  0  0  0  0  0  0
   -3.3790    0.5110   -1.4510 C   0  0  0  0  0  0  0  0  0  0  0  0
   -4.4730    0.1310   -0.7170 C   0  0  0  0  0  0  0  0  0  0  0  0
   -4.4070    0.0990    0.6520 C   0  0  0  0  0  0  0  0  0  0  0  0
   -7.6990   -0.2140    0.9610 N   0  0  0  0  0  0  0  0  0  0  0  0
  1  2  1  0
  2  3  1  0
  3  4  1  0
  4  5  2  0
  4 39  1  0
  5  6  1  0
  6  7  1  0
  7  8  1  0
  7 39  2  0
  8  9  1  0
  8 38  1  0
  9 10  2  0
  9 11  1  0
 11 12  1  0
 11 13  1  0
 13 14  2  0
 13 38  1  0
 14 15  1  0
 15 16  1  0
 15 36  2  0
 16 17  1  0
 17 18  2  0
 17 19  1  0
 19 20  1  0
 20 21  1  0
 21 22  2  0
 21 35  1  0
 22 23  1  0
 23 24  1  0
 24 25  1  0
 24 35  2  0
 25 26  2  0
 25 34  1  0
 26 27  1  0
 27 28  1  0
 27 32  1  0
 28 29  1  0
 29 30  2  0
 30 31  1  0
 31 32  2  0
 32 33  1  0
 33 34  2  0
 36 37  1  0
 37 38  2  0
M  END
