
     RDKit          3D

 44 48  0  0  0  0  0  0  0  0999 V2000
    9.0990   -2.2400   -2.0040 C   0  0  0  0  0  0  0  0  0  0  0  0
    8.8420   -2.7690   -0.6420 C   0  0  0  0  0  0  0  0  0  0  0  0
    8.0430   -2.1670    0.2220 C   0  0  0  0  0  0  0  0  0  0  0  0
    7.8990   -2.8210    1.5170 C   0  0  0  0  0  0  0  0  0  0  0  0
    6.8670   -2.6790    2.3290 C   0  0  0  0  0  0  0  0  0  0  0  0
    5.6610   -1.8940    2.1930 C   0  0  2  0  0  0  0  0  0  0  0  0
    4.7910   -2.3650    1.0960 N   0  0  0  0  0  0  0  0  0  0  0  0
    3.8140   -1.3230    0.9490 C   0  0  0  0  0  0  0  0  0  0  0  0
    2.5170   -1.3030    0.4680 C   0  0  0  0  0  0  0  0  0  0  0  0
    1.8000   -0.1100    0.4880 C   0  0  0  0  0  0  0  0  0  0  0  0
    2.3120    1.0720    0.9660 C   0  0  0  0  0  0  0  0  0  0  0  0
    1.5790    2.2780    0.9830 N   0  0  0  0  0  0  0  0  0  0  0  0
    0.2580    2.2840    0.4230 C   0  0  0  0  0  0  0  0  0  0  0  0
    0.0740    2.8460   -0.7910 C   0  0  0  0  0  0  0  0  0  0  0  0
    1.2710    3.4060   -1.4290 C   0  0  0  0  0  0  0  0  0  0  0  0
    1.4630    4.8580   -1.4220 C   0  0  0  0  0  0  0  0  0  0  0  0
    0.5360    5.7740   -2.0970 C   0  0  0  0  0  0  0  0  0  0  0  0
    0.4080    5.5440   -3.5860 C   0  0  0  0  0  0  0  0  0  0  0  0
   -1.2440    2.7890   -1.3640 C   0  0  0  0  0  0  0  0  0  0  0  0
   -1.6360    3.6500   -2.1660 O   0  0  0  0  0  0  0  0  0  0  0  0
   -2.1710    1.6880   -1.0100 C   0  0  0  0  0  0  0  0  0  0  0  0
   -1.9150    1.0370    0.2970 C   0  0  2  0  0  0  0  0  0  0  0  0
   -3.1740    0.8370    0.9910 N   0  0  2  0  0  0  0  0  0  0  0  0
   -3.3190    1.6400    2.1720 C   0  0  0  0  0  0  0  0  0  0  0  0
   -3.3960   -0.5540    1.3480 C   0  0  0  0  0  0  0  0  0  0  0  0
   -3.8500   -1.3730    0.1980 C   0  0  0  0  0  0  0  0  0  0  0  0
   -5.0070   -2.0070    0.2330 C   0  0  0  0  0  0  0  0  0  0  0  0
   -5.8860   -1.9170    1.4230 C   0  0  2  0  0  0  0  0  0  0  0  0
   -5.3240   -2.5240    2.5530 O   0  0  0  0  0  0  0  0  0  0  0  0
   -7.1640   -2.6310    1.0580 C   0  0  0  0  0  0  0  0  0  0  0  0
   -8.2880   -1.9260    0.7480 C   0  0  0  0  0  0  0  0  0  0  0  0
   -9.4460   -2.5970    0.4090 C   0  0  0  0  0  0  0  0  0  0  0  0
   -9.5020   -3.9680    0.3730 C   0  0  0  0  0  0  0  0  0  0  0  0
   -8.3550   -4.6540    0.6900 C   0  0  0  0  0  0  0  0  0  0  0  0
   -7.1960   -4.0050    1.0290 C   0  0  0  0  0  0  0  0  0  0  0  0
   -3.0490   -1.4880   -0.9540 O   0  0  0  0  0  0  0  0  0  0  0  0
   -3.6640   -1.4660   -2.2460 C   0  0  0  0  0  0  0  0  0  0  0  0
   -0.8960    1.7260    1.1330 C   0  0  0  0  0  0  0  0  0  0  0  0
    3.6220    1.0400    1.4480 C   0  0  0  0  0  0  0  0  0  0  0  0
    4.3380   -0.1490    1.4270 C   0  0  0  0  0  0  0  0  0  0  0  0
    5.7610   -0.4600    1.8360 C   0  0  2  0  0  0  0  0  0  0  0  0
    6.5320   -0.1730    0.6010 C   0  0  0  0  0  0  0  0  0  0  0  0
    6.3570    1.0170    0.1910 O   0  0  0  0  0  0  0  0  0  0  0  0
    7.4160   -0.9390   -0.2110 N   0  0  0  0  0  0  0  0  0  0  0  0
  1  2  1  0
  2  3  2  3
  3  4  1  0
  3 44  1  0
  4  5  2  0
  5  6  1  0
  6  7  1  6
  6 41  1  0
  7  8  1  0
  8  9  2  0
  8 40  1  0
  9 10  1  0
 10 11  2  0
 11 12  1  0
 11 39  1  0
 12 13  1  0
 13 14  2  0
 13 38  1  0
 14 15  1  0
 14 19  1  0
 15 16  1  0
 16 17  1  0
 17 18  1  0
 19 20  2  0
 19 21  1  0
 22 21  1  6
 22 23  1  0
 22 38  1  0
 23 24  1  1
 23 25  1  0
 25 26  1  0
 26 27  2  3
 26 36  1  0
 27 28  1  0
 28 29  1  1
 28 30  1  0
 30 31  2  0
 30 35  1  0
 31 32  1  0
 32 33  2  0
 33 34  1  0
 34 35  2  0
 36 37  1  0
 39 40  2  0
 40 41  1  0
 41 42  1  6
 42 43  2  0
 42 44  1  0
M  CHG  1  23   1
M  END
