
     RDKit          3D

 44 50  0  0  0  0  0  0  0  0999 V2000
    3.1340   -2.0070    1.1230 O   0  0  0  0  0  0  0  0  0  0  0  0
    3.5300   -1.0000    0.4850 C   0  0  0  0  0  0  0  0  0  0  0  0
    4.3510    0.0020    1.1930 C   0  0  0  0  0  0  0  0  0  0  0  0
    4.6850   -0.1450    2.5170 C   0  0  0  0  0  0  0  0  0  0  0  0
    5.4580    0.8390    3.1050 C   0  0  0  0  0  0  0  0  0  0  0  0
    5.8990    1.9470    2.4220 C   0  0  0  0  0  0  0  0  0  0  0  0
    5.5450    2.0640    1.0940 C   0  0  0  0  0  0  0  0  0  0  0  0
    4.7670    1.0930    0.4630 C   0  0  0  0  0  0  0  0  0  0  0  0
    4.4030    1.2180   -0.9100 N   0  0  0  0  0  0  0  0  0  0  0  0
    4.1740   -0.0100   -1.6470 C   0  0  1  0  0  0  0  0  0  0  0  0
    5.4760   -0.7110   -1.7800 C   0  0  0  0  0  0  0  0  0  0  0  0
    5.6100   -2.0590   -1.5560 C   0  0  0  0  0  0  0  0  0  0  0  0
    6.8350   -2.6670   -1.6900 C   0  0  0  0  0  0  0  0  0  0  0  0
    7.9480   -1.9320   -2.0520 C   0  0  0  0  0  0  0  0  0  0  0  0
    7.8380   -0.5780   -2.2820 C   0  0  0  0  0  0  0  0  0  0  0  0
    6.6000    0.0110   -2.1420 C   0  0  0  0  0  0  0  0  0  0  0  0
    6.4680    1.3370   -2.3620 F   0  0  0  0  0  0  0  0  0  0  0  0
    3.2180   -0.7880   -0.8890 N   0  0  0  0  0  0  0  0  0  0  0  0
    2.0160   -1.3430   -1.4090 C   0  0  0  0  0  0  0  0  0  0  0  0
    0.7970   -0.4970   -1.3470 C   0  0  0  0  0  0  0  0  0  0  0  0
    0.3950   -0.1030   -0.0090 N   0  0  2  0  0  0  0  0  0  0  0  0
   -0.3640   -1.1650    0.5430 C   0  0  0  0  0  0  0  0  0  0  0  0
   -1.0420   -0.7940    1.7890 C   0  0  0  0  0  0  0  0  0  0  0  0
   -1.9010    0.4380    1.6180 C   0  0  2  0  0  0  0  0  0  0  0  0
   -3.1650    0.2190    1.0090 N   0  0  0  0  0  0  0  0  0  0  0  0
   -4.3460    0.3080    1.8430 C   0  0  0  0  0  0  0  0  0  0  0  0
   -4.4130    1.0240    2.8600 O   0  0  0  0  0  0  0  0  0  0  0  0
   -5.5400   -0.4790    1.4880 C   0  0  0  0  0  0  0  0  0  0  0  0
   -6.6840   -0.4170    2.2720 C   0  0  0  0  0  0  0  0  0  0  0  0
   -7.7640   -1.1780    1.8900 C   0  0  0  0  0  0  0  0  0  0  0  0
   -7.7040   -1.9740    0.7630 C   0  0  0  0  0  0  0  0  0  0  0  0
   -6.5660   -2.0300   -0.0070 C   0  0  0  0  0  0  0  0  0  0  0  0
   -5.4700   -1.2680    0.3650 C   0  0  0  0  0  0  0  0  0  0  0  0
   -4.2560   -1.2970   -0.4130 N   0  0  0  0  0  0  0  0  0  0  0  0
   -3.4430   -0.0650   -0.3830 C   0  0  1  0  0  0  0  0  0  0  0  0
   -4.2760    1.0140   -1.0160 C   0  0  0  0  0  0  0  0  0  0  0  0
   -4.4440    2.2610   -0.5150 C   0  0  0  0  0  0  0  0  0  0  0  0
   -5.2320    3.2310   -1.1310 C   0  0  0  0  0  0  0  0  0  0  0  0
   -5.8710    2.9110   -2.3050 C   0  0  0  0  0  0  0  0  0  0  0  0
   -5.7170    1.6450   -2.8390 C   0  0  0  0  0  0  0  0  0  0  0  0
   -4.9250    0.6970   -2.2030 C   0  0  0  0  0  0  0  0  0  0  0  0
   -4.8280   -0.5150   -2.7910 F   0  0  0  0  0  0  0  0  0  0  0  0
   -1.0660    1.5370    1.0930 C   0  0  0  0  0  0  0  0  0  0  0  0
   -0.2270    1.1780   -0.0980 C   0  0  0  0  0  0  0  0  0  0  0  0
  1  2  2  0
  2  3  1  0
  2 18  1  0
  3  4  2  0
  3  8  1  0
  4  5  1  0
  5  6  2  0
  6  7  1  0
  7  8  2  0
  8  9  1  0
  9 10  1  0
 10 11  1  1
 10 18  1  0
 11 12  2  0
 11 16  1  0
 12 13  1  0
 13 14  2  0
 14 15  1  0
 15 16  2  0
 16 17  1  0
 18 19  1  0
 19 20  1  0
 21 20  1  6
 21 22  1  0
 21 44  1  0
 22 23  1  0
 23 24  1  0
 24 25  1  6
 24 43  1  0
 25 26  1  0
 25 35  1  0
 26 27  2  0
 26 28  1  0
 28 29  2  0
 28 33  1  0
 29 30  1  0
 30 31  2  0
 31 32  1  0
 32 33  2  0
 33 34  1  0
 34 35  1  0
 35 36  1  1
 36 37  2  0
 36 41  1  0
 37 38  1  0
 38 39  2  0
 39 40  1  0
 40 41  2  0
 41 42  1  0
 43 44  1  0
M  CHG  1  21   1
M  END
