
     RDKit          3D

  9  9  0  0  0  0  0  0  0  0999 V2000
    3.0270    1.3880    0.1260 O   0  0  0  0  0  0  0  0  0  0  0  0
    2.4780    0.1700    0.5200 C   0  0  0  0  0  0  0  0  0  0  0  0
    1.0600    0.0670   -0.0370 C   0  0  1  0  0  0  0  0  0  0  0  0
    0.4370   -1.2110    0.5250 C   0  0  0  0  0  0  0  0  0  0  0  0
   -0.8680   -1.3970   -0.2600 C   0  0  0  0  0  0  0  0  0  0  0  0
   -1.9840   -0.6450    0.3800 C   0  0  0  0  0  0  0  0  0  0  0  0
   -2.0520    0.7980    0.0440 C   0  0  0  0  0  0  0  0  0  0  0  0
   -0.7660    1.4300   -0.3440 C   0  0  0  0  0  0  0  0  0  0  0  0
    0.2980    1.1200    0.4660 O   0  0  0  0  0  0  0  0  0  0  0  0
  1  2  1  0
  3  2  1  1
  3  4  1  0
  3  9  1  0
  4  5  1  0
  5  6  1  0
  6  7  1  0
  7  8  1  0
  8  9  1  0
M  END
