
     RDKit          3D

 10 10  0  0  0  0  0  0  0  0999 V2000
    2.4800    0.9230    0.9920 O   0  0  0  0  0  0  0  0  0  0  0  0
    2.2510   -0.4200    0.8140 C   0  0  0  0  0  0  0  0  0  0  0  0
    1.4160   -0.7860   -0.3500 C   0  0  0  0  0  0  0  0  0  0  0  0
    0.0460   -0.2700   -0.4230 C   0  0  2  0  0  0  0  0  0  0  0  0
   -0.5340   -0.7590   -1.6160 O   0  0  0  0  0  0  0  0  0  0  0  0
   -0.1130    1.2260   -0.4440 C   0  0  0  0  0  0  0  0  0  0  0  0
   -1.5700    1.6290   -0.4220 C   0  0  0  0  0  0  0  0  0  0  0  0
   -2.4380    0.5710   -0.5290 O   0  0  0  0  0  0  0  0  0  0  0  0
   -2.2430   -0.5040    0.2760 C   0  0  0  0  0  0  0  0  0  0  0  0
   -0.8360   -0.7680    0.6990 C   0  0  0  0  0  0  0  0  0  0  0  0
  1  2  1  0
  2  3  1  0
  3  4  1  0
  4  5  1  6
  4  6  1  0
  4 10  1  0
  6  7  1  0
  7  8  1  0
  8  9  1  0
  9 10  1  0
M  END
