
     RDKit          3D

 10 10  0  0  0  0  0  0  0  0999 V2000
    2.9730   -0.2310    0.4170 C   0  0  0  0  0  0  0  0  0  0  0  0
    1.8230   -1.0420    0.3220 O   0  0  0  0  0  0  0  0  0  0  0  0
    0.5650   -0.5500    0.0590 C   0  0  0  0  0  0  0  0  0  0  0  0
    0.3920    0.7940   -0.1250 C   0  0  0  0  0  0  0  0  0  0  0  0
   -0.8730    1.2580   -0.3860 C   0  0  0  0  0  0  0  0  0  0  0  0
   -1.0850    2.6360   -0.5810 O   0  0  0  0  0  0  0  0  0  0  0  0
   -1.9760    0.4290   -0.4710 C   0  0  0  0  0  0  0  0  0  0  0  0
   -1.7740   -0.9190   -0.2820 C   0  0  0  0  0  0  0  0  0  0  0  0
   -2.8690   -1.7590   -0.3640 O   0  0  0  0  0  0  0  0  0  0  0  0
   -0.5110   -1.4110   -0.0180 C   0  0  0  0  0  0  0  0  0  0  0  0
  1  2  1  0
  2  3  1  0
  3  4  2  0
  3 10  1  0
  4  5  1  0
  5  6  1  0
  5  7  2  0
  7  8  1  0
  8  9  1  0
  8 10  2  0
M  END
