
     RDKit          3D

 10 10  0  0  0  0  0  0  0  0999 V2000
   -2.1210    1.6770    0.3840 O   0  0  0  0  0  0  0  0  0  0  0  0
   -2.3510    0.6210    1.2610 C   0  0  0  0  0  0  0  0  0  0  0  0
   -1.9820   -0.7090    0.6460 C   0  0  0  0  0  0  0  0  0  0  0  0
   -0.5450   -0.7500    0.2720 C   0  0  0  0  0  0  0  0  0  0  0  0
    0.1230   -1.7890   -0.3020 C   0  0  0  0  0  0  0  0  0  0  0  0
    1.4290   -1.3430   -0.4520 C   0  0  0  0  0  0  0  0  0  0  0  0
    1.4850   -0.0540    0.0400 C   0  0  0  0  0  0  0  0  0  0  0  0
    2.6820    0.8420    0.0940 C   0  0  0  0  0  0  0  0  0  0  0  0
    2.7160    1.5640   -1.0920 O   0  0  0  0  0  0  0  0  0  0  0  0
    0.2860    0.2430    0.4560 O   0  0  0  0  0  0  0  0  0  0  0  0
  1  2  1  0
  2  3  1  0
  3  4  1  0
  4  5  2  0
  4 10  1  0
  5  6  1  0
  6  7  2  0
  7  8  1  0
  7 10  1  0
  8  9  1  0
M  END
