
     RDKit          3D

 29 32  0  0  0  0  0  0  0  0999 V2000
   -2.9110    3.1080    2.1530 C   0  0  0  0  0  0  0  0  0  0  0  0
   -3.5120    3.1000    0.9630 C   0  0  0  0  0  0  0  0  0  0  0  0
   -4.5490    3.9660    0.4590 C   0  0  0  0  0  0  0  0  0  0  0  0
   -4.8570    3.6100   -0.7720 C   0  0  0  0  0  0  0  0  0  0  0  0
   -5.8130    4.2510   -1.5140 F   0  0  0  0  0  0  0  0  0  0  0  0
   -4.0290    2.4920   -1.1210 C   0  0  0  0  0  0  0  0  0  0  0  0
   -3.1930    2.1290   -0.1240 C   0  0  0  0  0  0  0  0  0  0  0  0
   -2.2610    1.1410   -0.0920 N   0  0  0  0  0  0  0  0  0  0  0  0
   -2.0850   -0.0260    0.2100 C   0  0  0  0  0  0  0  0  0  0  0  0
   -3.0600   -0.9980    0.7830 C   0  0  0  0  0  0  0  0  0  0  0  0
   -4.2700   -0.5600    1.0020 C   0  0  0  0  0  0  0  0  0  0  0  0
   -5.3100   -1.4160    1.5600 C   0  0  0  0  0  0  0  0  0  0  0  0
   -4.9930   -2.6630    1.8440 C   0  0  0  0  0  0  0  0  0  0  0  0
   -3.7060   -3.1730    1.6260 N   0  0  0  0  0  0  0  0  0  0  0  0
   -2.6560   -2.3850    1.0680 C   0  0  0  0  0  0  0  0  0  0  0  0
   -0.7200   -0.5560   -0.0160 C   0  0  0  0  0  0  0  0  0  0  0  0
    0.2320    0.3090   -0.5540 C   0  0  0  0  0  0  0  0  0  0  0  0
    1.5270   -0.1210   -0.7880 C   0  0  0  0  0  0  0  0  0  0  0  0
    2.6320    0.4530   -1.2790 N   0  0  0  0  0  0  0  0  0  0  0  0
    3.6510   -0.4240   -1.2970 N   0  0  0  0  0  0  0  0  0  0  0  0
    4.9850   -0.1320   -1.7660 C   0  0  1  0  0  0  0  0  0  0  0  0
    5.5030    1.0820   -1.0460 C   0  0  0  0  0  0  0  0  0  0  0  0
    5.8410   -1.3410   -1.5570 C   0  0  0  0  0  0  0  0  0  0  0  0
    7.2350   -1.0150   -2.0540 C   0  0  0  0  0  0  0  0  0  0  0  0
    3.1290   -1.5640   -0.7960 C   0  0  0  0  0  0  0  0  0  0  0  0
    3.7560   -2.6400   -0.6420 O   0  0  0  0  0  0  0  0  0  0  0  0
    1.8380   -1.3870   -0.4850 N   0  0  0  0  0  0  0  0  0  0  0  0
    0.9270   -2.1850    0.0200 N   0  0  0  0  0  0  0  0  0  0  0  0
   -0.3260   -1.7720    0.2480 N   0  0  0  0  0  0  0  0  0  0  0  0
  1  2  2  0
  2  3  1  0
  2  7  1  0
  3  4  2  0
  4  5  1  0
  4  6  1  0
  6  7  2  0
  7  8  1  0
  8  9  2  3
  9 10  1  0
  9 16  1  0
 10 11  2  0
 10 15  1  0
 11 12  1  0
 12 13  2  0
 13 14  1  0
 14 15  1  0
 16 17  2  0
 16 29  1  0
 17 18  1  0
 18 19  2  0
 18 27  1  0
 19 20  1  0
 20 21  1  0
 20 25  1  0
 21 22  1  1
 21 23  1  0
 23 24  1  0
 25 26  2  0
 25 27  1  0
 27 28  1  0
 28 29  2  0
M  END
