
     RDKit          3D

 28 31  0  0  0  0  0  0  0  0999 V2000
   -3.5070   -2.7340    0.0560 C   0  0  0  0  0  0  0  0  0  0  0  0
   -2.6560   -2.1010    1.1340 C   0  0  2  0  0  0  0  0  0  0  0  0
   -3.3850   -0.9390    1.7230 C   0  0  0  0  0  0  0  0  0  0  0  0
   -1.3010   -1.6330    0.4910 C   0  0  2  0  0  0  0  0  0  0  0  0
   -0.5830   -1.0380    1.7180 C   0  0  0  0  0  0  0  0  0  0  0  0
   -1.6270   -0.5700   -0.4300 C   0  0  0  0  0  0  0  0  0  0  0  0
   -0.6150    0.1250   -1.3120 C   0  0  1  0  0  0  0  0  0  0  0  0
   -1.4560    1.1570   -2.0160 C   0  0  0  0  0  0  0  0  0  0  0  0
   -1.1660    2.5560   -1.7020 C   0  0  0  0  0  0  0  0  0  0  0  0
   -1.9040    3.5710   -2.2040 C   0  0  0  0  0  0  0  0  0  0  0  0
   -1.5060    4.9370   -1.8350 C   0  0  0  0  0  0  0  0  0  0  0  0
   -0.4680    5.2150   -1.0520 C   0  0  0  0  0  0  0  0  0  0  0  0
    0.3300    4.1520   -0.5150 N   0  0  0  0  0  0  0  0  0  0  0  0
    1.4830    3.9740    0.2240 N   0  0  0  0  0  0  0  0  0  0  0  0
    1.7640    2.7190    0.3390 N   0  0  0  0  0  0  0  0  0  0  0  0
    0.7900    1.9100   -0.3260 C   0  0  0  0  0  0  0  0  0  0  0  0
    0.5760    0.6250   -0.6070 C   0  0  0  0  0  0  0  0  0  0  0  0
    1.6350   -0.3010   -0.2980 C   0  0  0  0  0  0  0  0  0  0  0  0
    1.4710   -1.5200   -0.5710 O   0  0  0  0  0  0  0  0  0  0  0  0
    2.8850    0.0060    0.2960 N   0  0  0  0  0  0  0  0  0  0  0  0
    3.8580   -1.0170    0.5520 C   0  0  0  0  0  0  0  0  0  0  0  0
    5.0280   -0.6970    1.1140 N   0  0  0  0  0  0  0  0  0  0  0  0
    5.9740   -1.6410    1.3700 C   0  0  0  0  0  0  0  0  0  0  0  0
    5.7240   -2.9570    1.0450 C   0  0  0  0  0  0  0  0  0  0  0  0
    6.6630   -3.9260    1.2940 F   0  0  0  0  0  0  0  0  0  0  0  0
    4.5260   -3.2730    0.4710 C   0  0  0  0  0  0  0  0  0  0  0  0
    3.6160   -2.2870    0.2370 N   0  0  0  0  0  0  0  0  0  0  0  0
   -0.0890    2.8810   -0.8810 N   0  0  0  0  0  0  0  0  0  0  0  0
  2  1  1  6
  2  3  1  0
  2  4  1  0
  4  5  1  1
  4  6  1  0
  7  6  1  1
  7  8  1  0
  7 17  1  0
  8  9  1  0
  9 10  2  0
  9 28  1  0
 10 11  1  0
 11 12  2  0
 12 13  1  0
 13 14  1  0
 13 28  1  0
 14 15  2  0
 15 16  1  0
 16 17  2  0
 16 28  1  0
 17 18  1  0
 18 19  2  0
 18 20  1  0
 20 21  1  0
 21 22  2  0
 21 27  1  0
 22 23  1  0
 23 24  2  0
 24 25  1  0
 24 26  1  0
 26 27  2  0
M  END
