
     RDKit          3D

 31 34  0  0  0  0  0  0  0  0999 V2000
   -4.3130    3.6460    2.2040 C   0  0  0  0  0  0  0  0  0  0  0  0
   -4.1540    2.2300    1.8180 C   0  0  0  0  0  0  0  0  0  0  0  0
   -3.0110    1.8690    1.1620 C   0  0  0  0  0  0  0  0  0  0  0  0
   -2.0550    2.8670    0.8960 C   0  0  0  0  0  0  0  0  0  0  0  0
   -0.9490    2.9550    0.2640 C   0  0  0  0  0  0  0  0  0  0  0  0
   -0.1060    2.1070   -0.5100 C   0  0  0  0  0  0  0  0  0  0  0  0
    1.0220    2.6030   -0.9880 O   0  0  0  0  0  0  0  0  0  0  0  0
   -0.2680    0.8000   -0.8730 O   0  0  0  0  0  0  0  0  0  0  0  0
    0.5710    0.0060   -1.6420 C   0  0  0  0  0  0  0  0  0  0  0  0
    1.9280   -0.1910   -1.1300 C   0  0  0  0  0  0  0  0  0  0  0  0
    2.9060   -0.8770   -1.7590 N   0  0  0  0  0  0  0  0  0  0  0  0
    4.0350   -0.8790   -1.0330 C   0  0  0  0  0  0  0  0  0  0  0  0
    5.2960   -1.4210   -1.2160 C   0  0  0  0  0  0  0  0  0  0  0  0
    6.2880   -1.2600   -0.2780 C   0  0  0  0  0  0  0  0  0  0  0  0
    5.9950   -0.5380    0.8590 C   0  0  0  0  0  0  0  0  0  0  0  0
    4.7370   -0.0040    1.0300 C   0  0  0  0  0  0  0  0  0  0  0  0
    3.7370   -0.1590    0.0980 C   0  0  0  0  0  0  0  0  0  0  0  0
    2.4350    0.2570    0.0230 N   0  0  0  0  0  0  0  0  0  0  0  0
    7.4930   -1.9590   -0.7810 C   0  0  0  0  0  0  0  0  0  0  0  0
    7.3090   -1.8910   -2.2810 C   0  0  0  0  0  0  0  0  0  0  0  0
    5.8120   -2.2250   -2.3680 C   0  0  0  0  0  0  0  0  0  0  0  0
   -2.9950    0.4670    0.8390 C   0  0  0  0  0  0  0  0  0  0  0  0
   -4.1010   -0.1090    0.2060 C   0  0  0  0  0  0  0  0  0  0  0  0
   -4.2760   -1.4370   -0.0250 C   0  0  0  0  0  0  0  0  0  0  0  0
   -5.3630   -2.0140   -0.6510 O   0  0  0  0  0  0  0  0  0  0  0  0
   -6.4080   -1.2120   -1.1280 C   0  0  0  0  0  0  0  0  0  0  0  0
   -5.9000   -0.2780   -2.1800 C   0  0  0  0  0  0  0  0  0  0  0  0
   -3.2590   -2.2930    0.4120 C   0  0  0  0  0  0  0  0  0  0  0  0
   -2.1540   -1.7960    1.0390 C   0  0  0  0  0  0  0  0  0  0  0  0
   -2.0320   -0.4220    1.2490 C   0  0  0  0  0  0  0  0  0  0  0  0
   -0.8490    0.0160    2.0450 C   0  0  0  0  0  0  0  0  0  0  0  0
  1  2  1  0
  2  3  2  3
  3  4  1  0
  3 22  1  0
  4  5  2  3
  5  6  1  0
  6  7  2  0
  6  8  1  0
  8  9  1  0
  9 10  1  0
 10 11  2  0
 10 18  1  0
 11 12  1  0
 12 13  2  0
 12 17  1  0
 13 14  1  0
 13 21  1  0
 14 15  2  0
 14 19  1  0
 15 16  1  0
 16 17  2  0
 17 18  1  0
 19 20  1  0
 20 21  1  0
 22 23  2  0
 22 30  1  0
 23 24  1  0
 24 25  1  0
 24 28  2  0
 25 26  1  0
 26 27  1  0
 28 29  1  0
 29 30  2  0
 30 31  1  0
M  END
