
     RDKit          3D

 29 32  0  0  0  0  0  0  0  0999 V2000
   -6.5410    1.4700    1.3550 C   0  0  0  0  0  0  0  0  0  0  0  0
   -5.5580    0.7910    0.4250 C   0  0  2  0  0  0  0  0  0  0  0  0
   -5.8590    1.1710   -1.0100 C   0  0  0  0  0  0  0  0  0  0  0  0
   -5.7470   -0.6520    0.6090 N   0  0  0  0  0  0  0  0  0  0  0  0
   -6.8650   -1.2690    1.0060 N   0  0  0  0  0  0  0  0  0  0  0  0
   -6.6640   -2.5700    1.0590 N   0  0  0  0  0  0  0  0  0  0  0  0
   -5.4320   -2.8090    0.7030 N   0  0  0  0  0  0  0  0  0  0  0  0
   -4.8550   -1.6250    0.4220 C   0  0  0  0  0  0  0  0  0  0  0  0
   -3.4440   -1.4150   -0.0280 C   0  0  0  0  0  0  0  0  0  0  0  0
   -2.5250   -1.2220    1.1550 C   0  0  0  0  0  0  0  0  0  0  0  0
   -1.1740   -1.0240    0.7020 N   0  0  0  0  0  0  0  0  0  0  0  0
   -0.7390    0.0380   -0.1360 C   0  0  0  0  0  0  0  0  0  0  0  0
   -1.5820    0.8830   -0.5220 O   0  0  0  0  0  0  0  0  0  0  0  0
    0.6110    0.1770   -0.5520 N   0  0  0  0  0  0  0  0  0  0  0  0
    1.7060   -0.7370   -0.1780 C   0  0  0  0  0  0  0  0  0  0  0  0
    2.8690    0.2250   -0.2190 C   0  0  1  0  0  0  0  0  0  0  0  0
    4.1720   -0.3750   -0.1070 C   0  0  0  0  0  0  0  0  0  0  0  0
    5.0280    0.0330    0.8190 C   0  0  0  0  0  0  0  0  0  0  0  0
    4.9580    1.0590    1.8680 C   0  0  0  0  0  0  0  0  0  0  0  0
    6.1120    1.0430    2.5150 C   0  0  0  0  0  0  0  0  0  0  0  0
    6.9680    0.0460    1.9480 N   0  0  0  0  0  0  0  0  0  0  0  0
    6.3510   -0.5510    0.9590 C   0  0  0  0  0  0  0  0  0  0  0  0
    6.8520   -1.6300    0.1000 C   0  0  0  0  0  0  0  0  0  0  0  0
    5.8240   -2.0060   -0.8900 C   0  0  0  0  0  0  0  0  0  0  0  0
    4.6560   -1.4450   -0.9660 C   0  0  0  0  0  0  0  0  0  0  0  0
    3.7900   -1.8750   -1.9210 F   0  0  0  0  0  0  0  0  0  0  0  0
    2.6060    0.8810   -1.5810 C   0  0  0  0  0  0  0  0  0  0  0  0
    1.1390    1.2240   -1.4030 C   0  0  2  0  0  0  0  0  0  0  0  0
    1.0950    2.5080   -0.5880 C   0  0  0  0  0  0  0  0  0  0  0  0
  2  1  1  1
  2  3  1  0
  2  4  1  0
  4  5  1  0
  4  8  1  0
  5  6  2  0
  6  7  1  0
  7  8  2  0
  8  9  1  0
  9 10  1  0
 10 11  1  0
 11 12  1  0
 12 13  2  0
 12 14  1  0
 14 15  1  0
 14 28  1  0
 15 16  1  0
 16 17  1  6
 16 27  1  0
 17 18  2  0
 17 25  1  0
 18 19  1  0
 18 22  1  0
 19 20  2  0
 20 21  1  0
 21 22  2  0
 22 23  1  0
 23 24  1  0
 24 25  2  0
 25 26  1  0
 27 28  1  0
 28 29  1  1
M  END
