
     RDKit          3D

 31 33  0  0  0  0  0  0  0  0999 V2000
   -5.7790    2.2370   -1.3660 C   0  0  0  0  0  0  0  0  0  0  0  0
   -4.5630    1.6530   -0.7430 C   0  0  0  0  0  0  0  0  0  0  0  0
   -4.6820    0.6770    0.2230 C   0  0  0  0  0  0  0  0  0  0  0  0
   -3.5770    0.1190    0.8150 C   0  0  0  0  0  0  0  0  0  0  0  0
   -3.6970   -0.8440    1.7700 N   0  0  0  0  0  0  0  0  0  0  0  0
   -2.6210   -1.3810    2.3410 C   0  0  0  0  0  0  0  0  0  0  0  0
   -2.6410   -2.3480    3.3150 C   0  0  0  0  0  0  0  0  0  0  0  0
   -3.7800   -2.7710    3.6960 O   0  0  0  0  0  0  0  0  0  0  0  0
   -1.4960   -2.8360    3.8530 N   0  0  0  0  0  0  0  0  0  0  0  0
   -0.2930   -2.3840    3.4460 C   0  0  0  0  0  0  0  0  0  0  0  0
    0.7250   -2.8780    3.9860 O   0  0  0  0  0  0  0  0  0  0  0  0
   -0.2550   -1.4370    2.4930 N   0  0  0  0  0  0  0  0  0  0  0  0
   -1.3110   -0.8900    1.8980 C   0  0  0  0  0  0  0  0  0  0  0  0
   -1.1770    0.0670    0.9500 N   0  0  0  0  0  0  0  0  0  0  0  0
    0.0990    0.5070    0.5300 C   0  0  0  0  0  0  0  0  0  0  0  0
    0.6840   -0.1740   -0.6740 C   0  0  2  0  0  0  0  0  0  0  0  0
    0.8910   -1.5180   -0.5770 O   0  0  0  0  0  0  0  0  0  0  0  0
    1.8730    0.5200   -1.2080 C   0  0  2  0  0  0  0  0  0  0  0  0
    2.2160    0.0510   -2.4850 O   0  0  0  0  0  0  0  0  0  0  0  0
    3.0930    0.5940   -0.3840 C   0  0  2  0  0  0  0  0  0  0  0  0
    3.9650    1.5310   -1.0210 O   0  0  0  0  0  0  0  0  0  0  0  0
    3.9370   -0.6880   -0.3780 C   0  0  0  0  0  0  0  0  0  0  0  0
    5.0910   -0.3120    0.3610 O   0  0  0  0  0  0  0  0  0  0  0  0
    6.1420   -1.6120    0.4710 P   0  0  2  0  0  0  0  0  0  0  0  0
    6.0580   -2.2170    1.8730 O   0  0  0  0  0  0  0  0  0  0  0  0
    7.7220   -1.0520    0.1820 O   0  0  0  0  0  0  0  0  0  0  0  0
    5.7110   -2.7440   -0.7080 O   0  0  0  0  0  0  0  0  0  0  0  0
   -2.3210    0.5730    0.4080 C   0  0  0  0  0  0  0  0  0  0  0  0
   -2.2120    1.5480   -0.5580 C   0  0  0  0  0  0  0  0  0  0  0  0
   -3.3400    2.1190   -1.1640 C   0  0  0  0  0  0  0  0  0  0  0  0
   -3.2110    3.1700   -2.2050 C   0  0  0  0  0  0  0  0  0  0  0  0
  1  2  1  0
  2  3  2  0
  2 30  1  0
  3  4  1  0
  4  5  1  0
  4 28  2  0
  5  6  2  0
  6  7  1  0
  6 13  1  0
  7  8  2  0
  7  9  1  0
  9 10  1  0
 10 11  2  0
 10 12  1  0
 12 13  2  0
 13 14  1  0
 14 15  1  0
 14 28  1  0
 15 16  1  0
 16 17  1  1
 16 18  1  0
 18 19  1  6
 18 20  1  0
 20 21  1  6
 20 22  1  0
 22 23  1  0
 23 24  1  0
 24 25  2  0
 24 26  1  6
 24 27  1  0
 28 29  1  0
 29 30  2  0
 30 31  1  0
M  END
