
     RDKit          3D

 31 33  0  0  0  0  0  0  0  0999 V2000
   -4.7460   -3.1540   -4.4600 O   0  0  0  0  0  0  0  0  0  0  0  0
   -4.8050   -2.3340   -3.5110 C   0  0  0  0  0  0  0  0  0  0  0  0
   -3.6090   -2.0310   -2.7280 C   0  0  0  0  0  0  0  0  0  0  0  0
   -3.6240   -1.1690   -1.7130 C   0  0  0  0  0  0  0  0  0  0  0  0
   -2.4070   -0.9170   -0.9830 C   0  0  0  0  0  0  0  0  0  0  0  0
   -2.2260   -0.1040    0.0280 C   0  0  0  0  0  0  0  0  0  0  0  0
   -3.1970    0.7680    0.6850 C   0  0  0  0  0  0  0  0  0  0  0  0
   -4.1840    1.4340    0.1140 C   0  0  0  0  0  0  0  0  0  0  0  0
   -5.1010    2.2770    0.8690 C   0  0  0  0  0  0  0  0  0  0  0  0
   -5.0900    2.4880    2.1320 N   0  0  0  0  0  0  0  0  0  0  0  0
   -6.0920    3.3330    2.5240 O   0  0  0  0  0  0  0  0  0  0  0  0
   -6.9960    3.4070    1.4510 C   0  0  0  0  0  0  0  0  0  0  0  0
   -6.1810    3.0260    0.3580 O   0  0  0  0  0  0  0  0  0  0  0  0
   -2.8010    0.7890    2.0740 N   0  0  0  0  0  0  0  0  0  0  0  0
   -1.6290   -0.0460    2.2100 C   0  0  0  0  0  0  0  0  0  0  0  0
   -1.2260   -0.7190    3.1720 O   0  0  0  0  0  0  0  0  0  0  0  0
   -0.9870    0.1080    0.8430 C   0  0  1  0  0  0  0  0  0  0  0  0
    0.1130   -0.8450    0.5990 C   0  0  0  0  0  0  0  0  0  0  0  0
    1.2740   -0.0300    1.0090 N   0  0  0  0  0  0  0  0  0  0  0  0
    2.6250   -0.5000    1.2390 C   0  0  0  0  0  0  0  0  0  0  0  0
    3.4400   -0.4440   -0.0020 C   0  0  0  0  0  0  0  0  0  0  0  0
    2.9140   -0.0220   -1.0620 O   0  0  0  0  0  0  0  0  0  0  0  0
    4.7960   -0.8570   -0.0040 N   0  0  0  0  0  0  0  0  0  0  0  0
    5.5560   -0.7850   -1.2430 C   0  0  0  0  0  0  0  0  0  0  0  0
    6.9570   -1.2600   -1.0530 C   0  0  0  0  0  0  0  0  0  0  0  0
    7.8230   -0.2200    0.2110 P   0  0  0  0  0  0  0  0  0  0  0  0
    6.9450    1.2670    0.4150 O   0  0  0  0  0  0  0  0  0  0  0  0
    7.8830   -1.0570    1.7470 O   0  0  0  0  0  0  0  0  0  0  0  0
    0.8630    1.3240    1.1500 C   0  0  0  0  0  0  0  0  0  0  0  0
    1.6030    2.2870    1.5460 O   0  0  0  0  0  0  0  0  0  0  0  0
   -0.4800    1.4030    0.7810 O   0  0  0  0  0  0  0  0  0  0  0  0
  1  2  2  0
  2  3  1  0
  3  4  2  3
  4  5  1  0
  5  6  2  3
  6  7  1  0
  6 17  1  0
  7  8  2  3
  7 14  1  0
  8  9  1  0
  9 10  2  0
  9 13  1  0
 10 11  1  0
 11 12  1  0
 12 13  1  0
 14 15  1  0
 15 16  2  0
 15 17  1  0
 17 18  1  6
 17 31  1  0
 18 19  1  0
 19 20  1  0
 19 29  1  0
 20 21  1  0
 21 22  2  0
 21 23  1  0
 23 24  1  0
 24 25  1  0
 25 26  1  0
 26 27  1  0
 26 28  1  0
 29 30  2  0
 29 31  1  0
M  END
