
     RDKit          3D

 31 33  0  0  0  0  0  0  0  0999 V2000
    8.0470    1.4890   -0.4990 O   0  0  0  0  0  0  0  0  0  0  0  0
    7.3920    0.4260   -0.6330 C   0  0  0  0  0  0  0  0  0  0  0  0
    8.0340   -0.7690   -0.8730 O   0  0  0  0  0  0  0  0  0  0  0  0
    5.9380    0.5320   -0.5220 C   0  0  0  0  0  0  0  0  0  0  0  0
    5.2950    1.7100   -0.2830 C   0  0  0  0  0  0  0  0  0  0  0  0
    3.9240    1.7440   -0.1910 C   0  0  0  0  0  0  0  0  0  0  0  0
    3.1310    0.6040   -0.3350 C   0  0  0  0  0  0  0  0  0  0  0  0
    1.7350    0.6810   -0.2510 N   0  0  0  0  0  0  0  0  0  0  0  0
    0.7930   -0.3550   -0.1970 C   0  0  0  0  0  0  0  0  0  0  0  0
    1.2440   -1.5510   -0.2320 O   0  0  0  0  0  0  0  0  0  0  0  0
   -0.7010   -0.1640   -0.1050 C   0  0  2  0  0  0  0  0  0  0  0  0
   -1.0460    0.1530    1.3170 C   0  0  0  0  0  0  0  0  0  0  0  0
   -0.4840    1.3860    1.8980 C   0  0  0  0  0  0  0  0  0  0  0  0
   -1.0830    2.9180    1.0060 P   0  0  0  0  0  0  0  0  0  0  0  0
    0.1870    4.0890    0.9720 O   0  0  0  0  0  0  0  0  0  0  0  0
   -2.4750    3.5900    1.7750 O   0  0  0  0  0  0  0  0  0  0  0  0
   -1.3270   -1.4830   -0.3860 N   0  0  0  0  0  0  0  0  0  0  0  0
   -2.7110   -1.6710   -0.4320 C   0  0  0  0  0  0  0  0  0  0  0  0
   -3.5590   -0.7110   -0.3080 N   0  0  0  0  0  0  0  0  0  0  0  0
   -4.8890   -1.2480   -0.4030 C   0  0  0  0  0  0  0  0  0  0  0  0
   -6.1160   -0.6840   -0.3410 N   0  0  0  0  0  0  0  0  0  0  0  0
   -7.2240   -1.4340   -0.4650 C   0  0  0  0  0  0  0  0  0  0  0  0
   -8.3680   -0.8660   -0.4020 O   0  0  0  0  0  0  0  0  0  0  0  0
   -7.1760   -2.7360   -0.6490 O   0  0  0  0  0  0  0  0  0  0  0  0
   -6.0060   -3.3400   -0.7170 C   0  0  0  0  0  0  0  0  0  0  0  0
   -5.9330   -4.5980   -0.8940 O   0  0  0  0  0  0  0  0  0  0  0  0
   -4.8360   -2.6110   -0.5950 C   0  0  0  0  0  0  0  0  0  0  0  0
   -3.4160   -2.9470   -0.6230 C   0  0  0  0  0  0  0  0  0  0  0  0
   -2.9410   -4.0790   -0.7770 O   0  0  0  0  0  0  0  0  0  0  0  0
    3.7880   -0.5650   -0.5740 C   0  0  0  0  0  0  0  0  0  0  0  0
    5.1750   -0.5910   -0.6640 C   0  0  0  0  0  0  0  0  0  0  0  0
  1  2  2  0
  2  3  1  0
  2  4  1  0
  4  5  2  0
  4 31  1  0
  5  6  1  0
  6  7  2  0
  7  8  1  0
  7 30  1  0
  8  9  1  0
  9 10  2  0
  9 11  1  0
 11 12  1  1
 11 17  1  0
 12 13  1  0
 13 14  1  0
 14 15  1  0
 14 16  1  0
 17 18  1  0
 18 19  2  0
 18 28  1  0
 19 20  1  0
 20 21  1  0
 20 27  2  0
 21 22  1  0
 22 23  2  0
 22 24  1  0
 24 25  1  0
 25 26  2  0
 25 27  1  0
 27 28  1  0
 28 29  2  0
 30 31  2  0
M  END
