
     RDKit          3D

 31 33  0  0  0  0  0  0  0  0999 V2000
   -5.3270   -1.1190    2.6660 C   0  0  0  0  0  0  0  0  0  0  0  0
   -5.1020    0.1790    1.9380 C   0  0  1  0  0  0  0  0  0  0  0  0
   -3.6430    0.5230    1.8620 C   0  0  0  0  0  0  0  0  0  0  0  0
   -2.9700    0.7170    2.8670 O   0  0  0  0  0  0  0  0  0  0  0  0
   -3.2970    0.5580    0.4690 N   0  0  0  0  0  0  0  0  0  0  0  0
   -2.2200    0.7820   -0.4650 C   0  0  0  0  0  0  0  0  0  0  0  0
   -0.8440    1.1210   -0.1100 C   0  0  0  0  0  0  0  0  0  0  0  0
    0.0750    1.3060   -0.9860 O   0  0  0  0  0  0  0  0  0  0  0  0
   -0.3620    1.2830    1.1980 N   0  0  0  0  0  0  0  0  0  0  0  0
    1.0410    1.6210    1.4350 C   0  0  0  0  0  0  0  0  0  0  0  0
    2.0040    0.6070    0.9240 C   0  0  0  0  0  0  0  0  0  0  0  0
    1.8120   -0.6550    1.5160 O   0  0  0  0  0  0  0  0  0  0  0  0
    2.9880   -1.7410    0.8420 P   0  0  0  0  0  0  0  0  0  0  0  0
    3.4760   -2.8360    2.1060 O   0  0  0  0  0  0  0  0  0  0  0  0
    4.4700   -0.8310    0.2290 C   0  0  1  0  0  0  0  0  0  0  0  0
    5.4790   -0.5530    1.3210 C   0  0  0  0  0  0  0  0  0  0  0  0
    6.5340    0.3640    0.7120 C   0  0  0  0  0  0  0  0  0  0  0  0
    6.6440    0.0630   -0.7550 C   0  0  0  0  0  0  0  0  0  0  0  0
    6.4830   -1.3210   -0.9600 O   0  0  0  0  0  0  0  0  0  0  0  0
    5.1650   -1.7010   -0.8030 C   0  0  0  0  0  0  0  0  0  0  0  0
   -2.7330    0.6180   -1.6960 C   0  0  0  0  0  0  0  0  0  0  0  0
   -1.9380    0.7660   -2.8970 C   0  0  0  0  0  0  0  0  0  0  0  0
   -2.4560    0.5970   -4.2040 N   0  0  0  0  0  0  0  0  0  0  0  0
   -0.7160    1.0560   -2.9090 O   0  0  0  0  0  0  0  0  0  0  0  0
   -4.1190    0.2890   -1.6490 N   0  0  0  0  0  0  0  0  0  0  0  0
   -5.0510    0.0320   -2.6840 C   0  0  0  0  0  0  0  0  0  0  0  0
   -6.2650   -0.2450   -2.3250 O   0  0  0  0  0  0  0  0  0  0  0  0
   -4.9060    0.0200   -4.0340 O   0  0  0  0  0  0  0  0  0  0  0  0
   -4.4670    0.2550   -0.2400 C   0  0  0  0  0  0  0  0  0  0  0  0
   -5.5100    0.0330    0.5330 C   0  0  0  0  0  0  0  0  0  0  0  0
   -6.8190   -0.2920    0.1740 O   0  0  0  0  0  0  0  0  0  0  0  0
  2  1  1  1
  2  3  1  0
  2 30  1  0
  3  4  2  0
  3  5  1  0
  5  6  1  0
  5 29  1  0
  6  7  1  0
  6 21  2  0
  7  8  2  0
  7  9  1  0
  9 10  1  0
 10 11  1  0
 11 12  1  0
 12 13  1  0
 13 14  1  0
 15 13  1  1
 15 16  1  0
 15 20  1  0
 16 17  1  0
 17 18  1  0
 18 19  1  0
 19 20  1  0
 21 22  1  0
 21 25  1  0
 22 23  1  0
 22 24  2  0
 25 26  1  0
 25 29  1  0
 26 27  2  0
 26 28  1  0
 29 30  2  0
 30 31  1  0
M  END
