
     RDKit          3D

 31 33  0  0  0  0  0  0  0  0999 V2000
   -2.3980   -1.1490    2.0360 O   0  0  0  0  0  0  0  0  0  0  0  0
   -1.4500   -0.8330    1.2310 C   0  0  0  0  0  0  0  0  0  0  0  0
   -0.4270   -1.7870    1.1450 N   0  0  0  0  0  0  0  0  0  0  0  0
   -0.4170   -3.0340    1.8910 C   0  0  0  0  0  0  0  0  0  0  0  0
   -1.5870   -3.9120    1.5920 C   0  0  0  0  0  0  0  0  0  0  0  0
   -1.4470   -5.0670    2.3740 O   0  0  0  0  0  0  0  0  0  0  0  0
   -1.5690    0.4300    0.5460 C   0  0  0  0  0  0  0  0  0  0  0  0
   -0.7150    0.9300   -0.3100 C   0  0  0  0  0  0  0  0  0  0  0  0
    0.4520    0.2110   -0.6340 N   0  0  0  0  0  0  0  0  0  0  0  0
    0.8020   -0.0430   -1.8650 C   0  0  0  0  0  0  0  0  0  0  0  0
    0.0100    0.4030   -2.8900 N   0  0  0  0  0  0  0  0  0  0  0  0
    0.3650    0.0780   -4.1430 C   0  0  0  0  0  0  0  0  0  0  0  0
    1.4580   -0.6590   -4.4110 N   0  0  0  0  0  0  0  0  0  0  0  0
    2.2410   -1.0990   -3.4100 C   0  0  0  0  0  0  0  0  0  0  0  0
    1.9210   -0.7910   -2.0770 C   0  0  0  0  0  0  0  0  0  0  0  0
    2.7840   -1.2090   -1.0070 C   0  0  0  0  0  0  0  0  0  0  0  0
    3.0890   -2.4710   -1.0580 O   0  0  0  0  0  0  0  0  0  0  0  0
    3.3420   -0.4690    0.0700 C   0  0  0  0  0  0  0  0  0  0  0  0
    4.0850   -1.0750    1.0080 C   0  0  0  0  0  0  0  0  0  0  0  0
    4.6960   -0.3910    2.1480 C   0  0  0  0  0  0  0  0  0  0  0  0
    4.5240    0.9970    2.1370 O   0  0  0  0  0  0  0  0  0  0  0  0
    3.7790    1.6510    1.1980 C   0  0  0  0  0  0  0  0  0  0  0  0
    3.2060    0.9640    0.2020 C   0  0  0  0  0  0  0  0  0  0  0  0
   -0.9610    2.1890   -0.9100 O   0  0  0  0  0  0  0  0  0  0  0  0
   -1.7040    3.1200   -0.1690 C   0  0  0  0  0  0  0  0  0  0  0  0
   -3.0050    2.4370    0.2210 C   0  0  1  0  0  0  0  0  0  0  0  0
   -3.7720    2.3470   -0.9200 O   0  0  0  0  0  0  0  0  0  0  0  0
   -5.2250    3.2670   -0.7170 P   0  0  0  0  0  0  0  0  0  0  0  0
   -4.8290    4.9390   -0.4370 O   0  0  0  0  0  0  0  0  0  0  0  0
   -6.0510    2.6170    0.6870 O   0  0  0  0  0  0  0  0  0  0  0  0
   -2.7130    1.2210    0.8110 O   0  0  0  0  0  0  0  0  0  0  0  0
  1  2  2  0
  2  3  1  0
  2  7  1  0
  3  4  1  0
  4  5  1  0
  5  6  1  0
  7  8  2  0
  7 31  1  0
  8  9  1  0
  8 24  1  0
  9 10  2  3
 10 11  1  0
 10 15  1  0
 11 12  2  0
 12 13  1  0
 13 14  1  0
 14 15  2  0
 15 16  1  0
 16 17  2  0
 16 18  1  0
 18 19  2  0
 18 23  1  0
 19 20  1  0
 20 21  1  0
 21 22  1  0
 22 23  2  0
 24 25  1  0
 25 26  1  0
 26 27  1  6
 26 31  1  0
 27 28  1  0
 28 29  1  0
 28 30  1  0
M  END
