
     RDKit          3D

 30 32  0  0  0  0  0  0  0  0999 V2000
    0.4510    3.2000    2.0160 C   0  0  0  0  0  0  0  0  0  0  0  0
    0.1720    2.2330    1.0520 O   0  0  0  0  0  0  0  0  0  0  0  0
   -0.0590    0.9010    1.3310 C   0  0  0  0  0  0  0  0  0  0  0  0
   -0.0250    0.5070    2.5020 O   0  0  0  0  0  0  0  0  0  0  0  0
   -0.3420   -0.0180    0.2130 C   0  0  2  0  0  0  0  0  0  0  0  0
    0.9230    0.0100   -0.6300 C   0  0  0  0  0  0  0  0  0  0  0  0
    2.1690    0.0020   -0.1610 N   0  0  0  0  0  0  0  0  0  0  0  0
    3.0580    0.0350   -1.1630 C   0  0  0  0  0  0  0  0  0  0  0  0
    4.4940    0.0580   -1.0230 C   0  0  0  0  0  0  0  0  0  0  0  0
    5.0640    0.0680    0.2220 C   0  0  0  0  0  0  0  0  0  0  0  0
    6.4310    0.1090    0.4000 C   0  0  0  0  0  0  0  0  0  0  0  0
    7.2290    0.1410   -0.7310 C   0  0  0  0  0  0  0  0  0  0  0  0
    8.6100    0.1850   -0.5850 O   0  0  0  0  0  0  0  0  0  0  0  0
    6.6660    0.1300   -1.9750 C   0  0  0  0  0  0  0  0  0  0  0  0
    5.3290    0.0890   -2.0870 N   0  0  0  0  0  0  0  0  0  0  0  0
    2.2960    0.0640   -2.2820 N   0  0  0  0  0  0  0  0  0  0  0  0
    1.0320    0.0480   -1.9300 O   0  0  0  0  0  0  0  0  0  0  0  0
   -1.4860    0.5680   -0.6190 C   0  0  0  0  0  0  0  0  0  0  0  0
   -2.3420   -0.4980   -0.9310 N   0  0  0  0  0  0  0  0  0  0  0  0
   -3.6950   -0.2730   -1.1750 C   0  0  0  0  0  0  0  0  0  0  0  0
   -4.5740    0.1580   -0.0590 C   0  0  1  0  0  0  0  0  0  0  0  0
   -4.1300    1.3600    0.4870 O   0  0  0  0  0  0  0  0  0  0  0  0
   -6.2460    0.5670   -0.8220 P   0  0  0  0  0  0  0  0  0  0  0  0
   -7.1780   -0.8830   -1.0170 O   0  0  0  0  0  0  0  0  0  0  0  0
   -7.1300    1.6120    0.2520 O   0  0  0  0  0  0  0  0  0  0  0  0
   -1.8850   -1.7040   -0.3870 C   0  0  0  0  0  0  0  0  0  0  0  0
   -0.7150   -1.3990    0.5340 C   0  0  1  0  0  0  0  0  0  0  0  0
    0.4040   -2.3720    0.1110 C   0  0  0  0  0  0  0  0  0  0  0  0
   -1.0450   -1.7310    1.9520 C   0  0  0  0  0  0  0  0  0  0  0  0
   -2.1080   -1.0300    2.4880 O   0  0  0  0  0  0  0  0  0  0  0  0
  1  2  1  0
  2  3  1  0
  3  4  2  0
  5  3  1  1
  5  6  1  0
  5 18  1  0
  5 27  1  0
  6  7  2  0
  6 17  1  0
  7  8  1  0
  8  9  1  0
  8 16  2  0
  9 10  2  0
  9 15  1  0
 10 11  1  0
 11 12  2  0
 12 13  1  0
 12 14  1  0
 14 15  2  0
 16 17  1  0
 18 19  1  0
 19 20  1  0
 19 26  1  0
 20 21  1  0
 21 22  1  6
 21 23  1  0
 23 24  1  0
 23 25  1  0
 26 27  1  0
 27 28  1  6
 27 29  1  0
 29 30  1  0
M  END
