
     RDKit          3D

 31 33  0  0  0  0  0  0  0  0999 V2000
    1.8160   -1.4160    1.9700 C   0  0  0  0  0  0  0  0  0  0  0  0
    3.1250   -1.3480    1.3890 C   0  0  0  0  0  0  0  0  0  0  0  0
    3.5690   -0.7990    0.3020 C   0  0  0  0  0  0  0  0  0  0  0  0
    2.7600   -0.0730   -0.6370 C   0  0  0  0  0  0  0  0  0  0  0  0
    3.3350    0.4320   -1.6890 O   0  0  0  0  0  0  0  0  0  0  0  0
    1.3710    0.1910   -0.5990 N   0  0  0  0  0  0  0  0  0  0  0  0
    0.7160    0.9420   -1.6340 C   0  0  0  0  0  0  0  0  0  0  0  0
   -0.5610    1.2080   -1.6250 C   0  0  0  0  0  0  0  0  0  0  0  0
   -1.2180    1.9450   -2.6510 O   0  0  0  0  0  0  0  0  0  0  0  0
   -2.6410    1.7560   -2.5320 C   0  0  0  0  0  0  0  0  0  0  0  0
   -2.7900    0.6050   -1.6040 C   0  0  2  0  0  0  0  0  0  0  0  0
   -4.0390    0.4130   -0.9060 C   0  0  0  0  0  0  0  0  0  0  0  0
   -5.1160    0.3590   -1.5410 O   0  0  0  0  0  0  0  0  0  0  0  0
   -4.0990    0.2780    0.5150 N   0  0  0  0  0  0  0  0  0  0  0  0
   -5.3290   -0.0520    1.2030 C   0  0  1  0  0  0  0  0  0  0  0  0
   -6.4080    0.9300    0.8870 C   0  0  0  0  0  0  0  0  0  0  0  0
   -7.3930    0.3580    0.3040 N   0  0  0  0  0  0  0  0  0  0  0  0
   -7.1660   -1.0020    0.1390 N   0  0  0  0  0  0  0  0  0  0  0  0
   -5.9080   -1.3320    0.6710 C   0  0  0  0  0  0  0  0  0  0  0  0
   -5.3710   -2.4720    0.6970 O   0  0  0  0  0  0  0  0  0  0  0  0
   -2.9060    0.4740    1.3020 C   0  0  0  0  0  0  0  0  0  0  0  0
   -2.9370    0.3680    2.5480 O   0  0  0  0  0  0  0  0  0  0  0  0
   -1.6500    0.8020    0.6040 C   0  0  0  0  0  0  0  0  0  0  0  0
   -1.6290    0.8940   -0.6830 C   0  0  0  0  0  0  0  0  0  0  0  0
    5.0260   -0.9720    0.0750 C   0  0  0  0  0  0  0  0  0  0  0  0
    5.7980   -0.5810   -0.8610 C   0  0  0  0  0  0  0  0  0  0  0  0
    5.5620    0.1450   -2.0050 O   0  0  0  0  0  0  0  0  0  0  0  0
    5.6780   -1.7210    1.1110 O   0  0  0  0  0  0  0  0  0  0  0  0
    6.4640   -0.8110    2.3960 P   0  0  0  0  0  0  0  0  0  0  0  0
    8.1180   -0.5070    1.9910 O   0  0  0  0  0  0  0  0  0  0  0  0
    5.6320    0.6930    2.6260 O   0  0  0  0  0  0  0  0  0  0  0  0
  1  2  1  0
  2  3  2  3
  3  4  1  0
  3 25  1  0
  4  5  2  0
  4  6  1  0
  6  7  1  0
  7  8  2  3
  8  9  1  0
  8 24  1  0
  9 10  1  0
 11 10  1  6
 11 12  1  0
 11 24  1  0
 12 13  2  0
 12 14  1  0
 15 14  1  6
 14 21  1  0
 15 16  1  0
 15 19  1  0
 16 17  2  0
 17 18  1  0
 18 19  1  0
 19 20  2  0
 21 22  2  0
 21 23  1  0
 23 24  2  0
 25 26  2  3
 25 28  1  0
 26 27  1  0
 28 29  1  0
 29 30  1  0
 29 31  1  0
M  END
