
     RDKit          3D

 21 23  0  0  0  0  0  0  0  0999 V2000
   -1.7980   -2.5680    0.3060 C   0  0  0  0  0  0  0  0  0  0  0  0
   -2.5620   -1.7070   -0.2970 C   0  0  0  0  0  0  0  0  0  0  0  0
   -3.9920   -2.1160   -1.3800 S   0  0  0  0  0  0  0  0  0  0  0  0
   -4.9370   -0.6740   -0.6950 C   0  0  0  0  0  0  0  0  0  0  0  0
   -3.7970    0.2620   -0.5370 C   0  0  0  0  0  0  0  0  0  0  0  0
   -2.6150   -0.2510   -0.3390 C   0  0  0  0  0  0  0  0  0  0  0  0
   -1.4180    0.6030   -0.1130 C   0  0  0  0  0  0  0  0  0  0  0  0
   -0.1390    0.1190   -0.1920 N   0  0  0  0  0  0  0  0  0  0  0  0
    0.7670    1.0400    0.0890 C   0  0  0  0  0  0  0  0  0  0  0  0
    2.2150    1.0390    0.1700 C   0  0  0  0  0  0  0  0  0  0  0  0
    2.9170    2.2560    0.2930 C   0  0  0  0  0  0  0  0  0  0  0  0
    4.2530    2.3150    0.3620 N   0  0  0  0  0  0  0  0  0  0  0  0
    4.9770    1.1870    0.3140 C   0  0  0  0  0  0  0  0  0  0  0  0
    4.3530    0.0220    0.2000 N   0  0  0  0  0  0  0  0  0  0  0  0
    2.9790   -0.0640    0.1280 C   0  0  0  0  0  0  0  0  0  0  0  0
    2.4410   -1.3760    0.0860 N   0  0  0  0  0  0  0  0  0  0  0  0
    1.8380   -2.0270    1.2400 C   0  0  0  0  0  0  0  0  0  0  0  0
    2.5170   -2.1060   -1.1570 C   0  0  0  0  0  0  0  0  0  0  0  0
    0.0220    2.1830    0.3630 C   0  0  0  0  0  0  0  0  0  0  0  0
   -1.3350    1.9190    0.2400 C   0  0  0  0  0  0  0  0  0  0  0  0
   -2.4400    2.8820    0.4820 C   0  0  0  0  0  0  0  0  0  0  0  0
  1  2  2  0
  2  3  1  0
  2  6  1  0
  3  4  1  0
  4  5  1  0
  5  6  2  0
  6  7  1  0
  7  8  1  0
  7 20  2  0
  8  9  1  0
  9 10  1  0
  9 19  2  0
 10 11  2  0
 10 15  1  0
 11 12  1  0
 12 13  2  0
 13 14  1  0
 14 15  2  0
 15 16  1  0
 16 17  1  0
 16 18  1  0
 19 20  1  0
 20 21  1  0
M  END
