
     RDKit          3D

 21 23  0  0  0  0  0  0  0  0999 V2000
   -6.1500    1.8620   -0.6180 C   0  0  0  0  0  0  0  0  0  0  0  0
   -4.6780    1.8580   -0.6520 C   0  0  0  0  0  0  0  0  0  0  0  0
   -3.9940    0.8270   -0.2510 C   0  0  0  0  0  0  0  0  0  0  0  0
   -2.5660    0.7700   -0.2580 C   0  0  0  0  0  0  0  0  0  0  0  0
   -1.7890   -0.2860   -0.0440 C   0  0  0  0  0  0  0  0  0  0  0  0
   -0.3530   -0.0720   -0.1030 N   0  0  0  0  0  0  0  0  0  0  0  0
    0.1080    0.8280    0.9850 C   0  0  0  0  0  0  0  0  0  0  0  0
    1.1640    0.0520    1.7500 C   0  0  0  0  0  0  0  0  0  0  0  0
    1.4170   -1.2780    1.1160 C   0  0  0  0  0  0  0  0  0  0  0  0
    1.8520   -1.1910   -0.3240 C   0  0  2  0  0  0  0  0  0  0  0  0
    2.9510   -0.2550   -0.5360 C   0  0  0  0  0  0  0  0  0  0  0  0
    2.8490    1.1000   -0.5080 N   0  0  0  0  0  0  0  0  0  0  0  0
    3.9450    1.8550   -0.8250 C   0  0  0  0  0  0  0  0  0  0  0  0
    5.1770    1.3330   -1.1730 C   0  0  0  0  0  0  0  0  0  0  0  0
    5.2750   -0.0250   -1.1940 N   0  0  0  0  0  0  0  0  0  0  0  0
    4.2090   -0.7710   -0.8880 C   0  0  0  0  0  0  0  0  0  0  0  0
    4.4620   -2.1870   -0.8490 N   0  0  0  0  0  0  0  0  0  0  0  0
    0.5820   -0.5990   -1.0200 C   0  0  0  0  0  0  0  0  0  0  0  0
   -2.3290   -1.5630    0.3230 C   0  0  0  0  0  0  0  0  0  0  0  0
   -3.5980   -1.8610    0.5110 C   0  0  0  0  0  0  0  0  0  0  0  0
   -4.8700   -0.5890    0.3030 S   0  0  0  0  0  0  0  0  0  0  0  0
  1  2  1  0
  2  3  2  3
  3  4  1  0
  3 21  1  0
  4  5  2  0
  5  6  1  0
  5 19  1  0
  6  7  1  0
  6 18  1  0
  7  8  1  0
  8  9  1  0
  9 10  1  0
 10 11  1  1
 10 18  1  0
 11 12  2  0
 11 16  1  0
 12 13  1  0
 13 14  2  0
 14 15  1  0
 15 16  2  0
 16 17  1  0
 19 20  2  0
 20 21  1  0
M  END
