
     RDKit          3D

 21 23  0  0  0  0  0  0  0  0999 V2000
   -3.1490    2.6840   -1.7080 C   0  0  0  0  0  0  0  0  0  0  0  0
   -3.6720    1.8930   -0.6150 N   0  0  0  0  0  0  0  0  0  0  0  0
   -2.8090    0.9760    0.0460 C   0  0  0  0  0  0  0  0  0  0  0  0
   -1.5250    0.8150   -0.3030 N   0  0  0  0  0  0  0  0  0  0  0  0
   -0.6850   -0.0660    0.3280 C   0  0  0  0  0  0  0  0  0  0  0  0
    0.7110   -0.1370   -0.1570 C   0  0  0  0  0  0  0  0  0  0  0  0
    1.2390    0.8600   -1.5470 S   0  0  0  0  0  0  0  0  0  0  0  0
    2.9180    0.2940   -1.5570 C   0  0  0  0  0  0  0  0  0  0  0  0
    3.9630    0.6160   -2.3620 N   0  0  0  0  0  0  0  0  0  0  0  0
    5.1710    0.0430   -2.1750 C   0  0  0  0  0  0  0  0  0  0  0  0
    6.3640    0.3280   -2.9950 C   0  0  0  0  0  0  0  0  0  0  0  0
    5.2480   -0.8320   -1.1740 N   0  0  0  0  0  0  0  0  0  0  0  0
    4.2470   -1.1640   -0.3770 C   0  0  0  0  0  0  0  0  0  0  0  0
    2.9620   -0.5860   -0.5370 C   0  0  0  0  0  0  0  0  0  0  0  0
    1.8100   -0.7880    0.1670 C   0  0  0  0  0  0  0  0  0  0  0  0
    1.8020   -1.7690    1.3390 C   0  0  0  0  0  0  0  0  0  0  0  0
   -1.2350   -0.7700    1.3360 C   0  0  0  0  0  0  0  0  0  0  0  0
   -2.5660   -0.6550    1.7570 C   0  0  0  0  0  0  0  0  0  0  0  0
   -3.0940   -1.4610    2.8690 C   0  0  0  0  0  0  0  0  0  0  0  0
   -3.3530    0.2450    1.0820 C   0  0  0  0  0  0  0  0  0  0  0  0
   -4.7710    0.4100    1.4830 C   0  0  0  0  0  0  0  0  0  0  0  0
  1  2  1  0
  2  3  1  0
  3  4  2  0
  3 20  1  0
  4  5  1  0
  5  6  1  0
  5 17  2  0
  6  7  1  0
  6 15  2  0
  7  8  1  0
  8  9  2  0
  8 14  1  0
  9 10  1  0
 10 11  1  0
 10 12  2  0
 12 13  1  0
 13 14  2  0
 14 15  1  0
 15 16  1  0
 17 18  1  0
 18 19  1  0
 18 20  2  0
 20 21  1  0
M  END
