
     RDKit          3D

 22 23  0  0  0  0  0  0  0  0999 V2000
   -2.9000    2.5160    2.2830 C   0  0  0  0  0  0  0  0  0  0  0  0
   -3.5380    1.3800    1.9860 C   0  0  0  0  0  0  0  0  0  0  0  0
   -2.8320    0.0810    1.9260 C   0  0  0  0  0  0  0  0  0  0  0  0
   -2.9760   -0.4820    0.5330 C   0  0  2  0  0  0  0  0  0  0  0  0
   -2.4100    0.4000   -0.5180 C   0  0  0  0  0  0  0  0  0  0  0  0
   -1.0390    0.7340   -0.4730 N   0  0  0  0  0  0  0  0  0  0  0  0
    0.0670   -0.1520   -0.5930 C   0  0  0  0  0  0  0  0  0  0  0  0
   -0.1290   -1.3690   -0.7680 O   0  0  0  0  0  0  0  0  0  0  0  0
    1.4490    0.3140   -0.5180 C   0  0  0  0  0  0  0  0  0  0  0  0
    2.5090   -0.4380   -0.6180 C   0  0  0  0  0  0  0  0  0  0  0  0
    2.3800   -1.8910   -0.8260 C   0  0  0  0  0  0  0  0  0  0  0  0
    3.8340    0.1500   -0.5260 C   0  0  0  0  0  0  0  0  0  0  0  0
    5.0160   -0.4580   -0.6060 C   0  0  0  0  0  0  0  0  0  0  0  0
    6.0870    0.5360   -0.4570 C   0  0  0  0  0  0  0  0  0  0  0  0
    5.3880    1.8290   -0.2770 C   0  0  0  0  0  0  0  0  0  0  0  0
    4.0930    1.5810   -0.3200 C   0  0  0  0  0  0  0  0  0  0  0  0
   -4.4010   -0.6330    0.1830 N   0  0  0  0  0  0  0  0  0  0  0  0
   -4.4120   -1.5040   -0.9260 C   0  0  0  0  0  0  0  0  0  0  0  0
   -5.2470   -1.5610   -1.8800 O   0  0  0  0  0  0  0  0  0  0  0  0
   -3.2420   -2.3440   -0.7480 N   0  0  0  0  0  0  0  0  0  0  0  0
   -2.6050   -1.9130    0.4690 C   0  0  0  0  0  0  0  0  0  0  0  0
   -1.9250   -2.6430    1.2260 O   0  0  0  0  0  0  0  0  0  0  0  0
  1  2  2  0
  2  3  1  0
  4  3  1  1
  4  5  1  0
  4 17  1  0
  4 21  1  0
  5  6  1  0
  6  7  1  0
  7  8  2  0
  7  9  1  0
  9 10  2  3
 10 11  1  0
 10 12  1  0
 12 13  2  0
 12 16  1  0
 13 14  1  0
 14 15  1  0
 15 16  2  0
 17 18  1  0
 18 19  2  0
 18 20  1  0
 20 21  1  0
 21 22  2  0
M  END
