
     RDKit          3D

 21 23  0  0  0  0  0  0  0  0999 V2000
    2.8170    2.0310   -0.0640 C   0  0  0  0  0  0  0  0  0  0  0  0
    1.6510    1.8100    0.7620 C   0  0  0  0  0  0  0  0  0  0  0  0
    1.5690    2.5180    1.9320 N   0  0  0  0  0  0  0  0  0  0  0  0
    0.5480    2.4340    2.7720 C   0  0  0  0  0  0  0  0  0  0  0  0
   -0.4640    1.6210    2.4790 N   0  0  0  0  0  0  0  0  0  0  0  0
   -0.4280    0.8960    1.3270 C   0  0  0  0  0  0  0  0  0  0  0  0
    0.6210    0.9690    0.4450 C   0  0  0  0  0  0  0  0  0  0  0  0
    0.8550    0.2630   -0.8000 C   0  0  1  0  0  0  0  0  0  0  0  0
    2.1250   -0.5270   -0.6980 C   0  0  0  0  0  0  0  0  0  0  0  0
    2.4790   -1.2450    0.4000 C   0  0  0  0  0  0  0  0  0  0  0  0
    3.7000   -1.8440    0.0700 C   0  0  0  0  0  0  0  0  0  0  0  0
    4.0090   -1.4800   -1.1420 O   0  0  0  0  0  0  0  0  0  0  0  0
    3.1050   -0.6980   -1.6380 C   0  0  0  0  0  0  0  0  0  0  0  0
   -0.2100   -0.7660   -1.1310 C   0  0  1  0  0  0  0  0  0  0  0  0
   -0.0440   -1.9740   -0.3550 N   0  0  0  0  0  0  0  0  0  0  0  0
   -1.5930   -0.2520   -1.1830 C   0  0  0  0  0  0  0  0  0  0  0  0
   -2.3440   -0.2280    0.0890 C   0  0  1  0  0  0  0  0  0  0  0  0
   -3.4010    0.8810   -0.0630 C   0  0  0  0  0  0  0  0  0  0  0  0
   -3.1240   -1.4820    0.3990 C   0  0  0  0  0  0  0  0  0  0  0  0
   -3.9100   -1.8710   -0.7010 O   0  0  0  0  0  0  0  0  0  0  0  0
   -1.5640    0.1300    1.2110 O   0  0  0  0  0  0  0  0  0  0  0  0
  1  2  1  0
  2  3  2  0
  2  7  1  0
  3  4  1  0
  4  5  2  0
  5  6  1  0
  6  7  2  0
  6 21  1  0
  7  8  1  0
  8  9  1  1
  8 14  1  0
  9 10  1  0
  9 13  2  0
 10 11  2  0
 11 12  1  0
 12 13  1  0
 14 15  1  1
 14 16  1  0
 16 17  1  0
 17 18  1  6
 17 19  1  0
 17 21  1  0
 19 20  1  0
M  END
