
     RDKit          3D

 21 22  0  0  0  0  0  0  0  0999 V2000
    7.5790   -0.2910   -0.7220 C   0  0  0  0  0  0  0  0  0  0  0  0
    6.2910   -0.4540    0.0520 C   0  0  0  0  0  0  0  0  0  0  0  0
    5.1400   -0.4720   -0.7900 N   0  0  0  0  0  0  0  0  0  0  0  0
    3.7870   -0.6180   -0.2740 C   0  0  0  0  0  0  0  0  0  0  0  0
    3.6790   -1.5470    0.7910 N   0  0  0  0  0  0  0  0  0  0  0  0
    2.8100    0.0640   -0.7810 C   0  0  0  0  0  0  0  0  0  0  0  0
    1.4130    0.0880   -0.4420 C   0  0  0  0  0  0  0  0  0  0  0  0
    0.5700    0.8610   -1.0840 N   0  0  0  0  0  0  0  0  0  0  0  0
   -0.7430    0.7160   -0.5800 C   0  0  0  0  0  0  0  0  0  0  0  0
   -1.8260    1.3230   -0.9750 N   0  0  0  0  0  0  0  0  0  0  0  0
   -3.0430    1.0230   -0.3220 C   0  0  0  0  0  0  0  0  0  0  0  0
   -3.1060    1.0100    1.0560 C   0  0  0  0  0  0  0  0  0  0  0  0
   -4.2730    0.7220    1.7260 C   0  0  0  0  0  0  0  0  0  0  0  0
   -5.4420    0.4320    1.0550 C   0  0  0  0  0  0  0  0  0  0  0  0
   -6.6960    0.1220    1.7990 C   0  0  0  0  0  0  0  0  0  0  0  0
   -5.3920    0.4410   -0.3230 C   0  0  0  0  0  0  0  0  0  0  0  0
   -4.2150    0.7310   -1.0030 C   0  0  0  0  0  0  0  0  0  0  0  0
   -4.1540    0.7440   -2.4140 N   0  0  0  0  0  0  0  0  0  0  0  0
   -0.6300   -0.2420    0.4590 N   0  0  0  0  0  0  0  0  0  0  0  0
    0.6240   -0.6160    0.5500 C   0  0  0  0  0  0  0  0  0  0  0  0
    1.0940   -1.5720    1.4940 N   0  0  0  0  0  0  0  0  0  0  0  0
  1  2  1  0
  2  3  1  0
  3  4  1  0
  4  5  1  0
  4  6  2  3
  6  7  1  0
  7  8  2  0
  7 20  1  0
  8  9  1  0
  9 10  2  3
  9 19  1  0
 10 11  1  0
 11 12  2  0
 11 17  1  0
 12 13  1  0
 13 14  2  0
 14 15  1  0
 14 16  1  0
 16 17  2  0
 17 18  1  0
 19 20  2  0
 20 21  1  0
M  CHG  2  10   1  18   1
M  END
