
     RDKit          3D

 21 22  0  0  0  0  0  0  0  0999 V2000
   -5.6510    1.8130   -1.1280 C   0  0  0  0  0  0  0  0  0  0  0  0
   -4.8840    1.1000   -0.0740 C   0  0  0  0  0  0  0  0  0  0  0  0
   -5.2870    1.1730    1.1340 N   0  0  0  0  0  0  0  0  0  0  0  0
   -3.7010    0.3460   -0.4690 C   0  0  0  0  0  0  0  0  0  0  0  0
   -3.3170    0.2820   -1.6980 N   0  0  0  0  0  0  0  0  0  0  0  0
   -2.9140   -0.3550    0.4720 N   0  0  0  0  0  0  0  0  0  0  0  0
   -1.5230   -0.2420    0.6350 C   0  0  1  0  0  0  0  0  0  0  0  0
   -1.1110   -1.3730    1.6010 C   0  0  0  0  0  0  0  0  0  0  0  0
   -1.8060   -1.1720    2.8390 N   0  0  0  0  0  0  0  0  0  0  0  0
   -0.5960   -0.2350   -0.4910 C   0  0  0  0  0  0  0  0  0  0  0  0
    0.7660   -0.0930    0.0240 N   0  0  0  0  0  0  0  0  0  0  0  0
    1.8980   -0.1720   -0.8200 C   0  0  0  0  0  0  0  0  0  0  0  0
    1.7530   -0.3870   -2.1660 C   0  0  0  0  0  0  0  0  0  0  0  0
    2.8470   -0.4670   -3.0090 C   0  0  0  0  0  0  0  0  0  0  0  0
    4.1210   -0.3300   -2.5000 C   0  0  0  0  0  0  0  0  0  0  0  0
    4.2900   -0.1120   -1.1400 C   0  0  0  0  0  0  0  0  0  0  0  0
    5.3480    0.0600   -0.3400 N   0  0  0  0  0  0  0  0  0  0  0  0
    4.9380    0.2390    0.9400 C   0  0  0  0  0  0  0  0  0  0  0  0
    5.8790    0.4560    2.0660 C   0  0  0  0  0  0  0  0  0  0  0  0
    3.6020    0.1790    0.9470 N   0  0  0  0  0  0  0  0  0  0  0  0
    3.1640   -0.0350   -0.3110 C   0  0  0  0  0  0  0  0  0  0  0  0
  1  2  1  0
  2  3  2  0
  2  4  1  0
  4  5  2  0
  4  6  1  0
  6  7  1  0
  7  8  1  1
  7 10  1  0
  8  9  1  0
 10 11  1  0
 11 12  1  0
 12 13  2  0
 12 21  1  0
 13 14  1  0
 14 15  2  0
 15 16  1  0
 16 17  1  0
 16 21  2  0
 17 18  1  0
 18 19  1  0
 18 20  2  0
 20 21  1  0
M  CHG  2   5   1   9   1
M  END
