
     RDKit          3D

 22 25  0  0  0  0  0  0  0  0999 V2000
   -5.1700   -0.9780   -0.1410 C   0  0  0  0  0  0  0  0  0  0  0  0
   -4.0410   -0.0080    0.0530 C   0  0  0  0  0  0  0  0  0  0  0  0
   -4.2590    1.3290    0.3170 C   0  0  0  0  0  0  0  0  0  0  0  0
   -3.2330    2.2290    0.4960 C   0  0  0  0  0  0  0  0  0  0  0  0
   -1.9260    1.7900    0.4130 C   0  0  0  0  0  0  0  0  0  0  0  0
   -0.8500    2.6380    0.5820 C   0  0  0  0  0  0  0  0  0  0  0  0
   -1.1320    4.3470    0.9190 Cl  0  0  0  0  0  0  0  0  0  0  0  0
    0.3820    2.1330    0.4850 N   0  0  0  0  0  0  0  0  0  0  0  0
    0.6560    0.8540    0.2330 C   0  0  0  0  0  0  0  0  0  0  0  0
    2.0380    0.3890    0.1440 C   0  0  0  0  0  0  0  0  0  0  0  0
    3.0650    1.2890    0.3240 C   0  0  0  0  0  0  0  0  0  0  0  0
    4.3910    0.9190    0.2540 C   0  0  0  0  0  0  0  0  0  0  0  0
    4.6730   -0.3870   -0.0030 N   0  0  0  0  0  0  0  0  0  0  0  0
    5.8780   -0.9810   -0.1180 C   0  0  0  0  0  0  0  0  0  0  0  0
    5.6480   -2.3100   -0.3810 C   0  0  0  0  0  0  0  0  0  0  0  0
    4.2990   -2.4710   -0.4160 N   0  0  0  0  0  0  0  0  0  0  0  0
    3.7010   -1.3030   -0.1860 C   0  0  0  0  0  0  0  0  0  0  0  0
    2.3680   -0.9130   -0.1120 C   0  0  0  0  0  0  0  0  0  0  0  0
   -0.3900    0.0240    0.0670 N   0  0  0  0  0  0  0  0  0  0  0  0
   -1.6740    0.4590    0.1500 C   0  0  0  0  0  0  0  0  0  0  0  0
   -2.7330   -0.4370   -0.0290 C   0  0  0  0  0  0  0  0  0  0  0  0
   -2.4190   -1.8650   -0.3100 C   0  0  0  0  0  0  0  0  0  0  0  0
  1  2  1  0
  2  3  2  0
  2 21  1  0
  3  4  1  0
  4  5  2  0
  5  6  1  0
  5 20  1  0
  6  7  1  0
  6  8  2  0
  8  9  1  0
  9 10  1  0
  9 19  2  0
 10 11  1  0
 10 18  2  0
 11 12  2  0
 12 13  1  0
 13 14  1  0
 13 17  1  0
 14 15  2  0
 15 16  1  0
 16 17  2  0
 17 18  1  0
 19 20  1  0
 20 21  2  0
 21 22  1  0
M  END
