
     RDKit          3D

 22 25  0  0  0  0  0  0  0  0999 V2000
    3.3090    1.4910   -3.2090 Cl  0  0  0  0  0  0  0  0  0  0  0  0
    4.0020    1.2220   -1.5970 C   0  0  0  0  0  0  0  0  0  0  0  0
    5.2960    1.3240   -1.3610 C   0  0  0  0  0  0  0  0  0  0  0  0
    5.5000    1.0360    0.0740 C   0  0  0  0  0  0  0  0  0  0  0  0
    4.1410    0.7680    0.5680 C   0  0  0  0  0  0  0  0  0  0  0  0
    3.2560    0.8740   -0.4010 C   0  0  0  0  0  0  0  0  0  0  0  0
    1.8570    0.6990   -0.3590 N   0  0  0  0  0  0  0  0  0  0  0  0
    1.2800   -0.3690    0.0820 C   0  0  0  0  0  0  0  0  0  0  0  0
    2.0110   -1.5320    0.5940 C   0  0  0  0  0  0  0  0  0  0  0  0
    1.2530   -2.8070    0.5510 C   0  0  0  0  0  0  0  0  0  0  0  0
    0.0380   -2.7730   -0.3380 C   0  0  0  0  0  0  0  0  0  0  0  0
   -0.7880   -1.5550   -0.1440 C   0  0  0  0  0  0  0  0  0  0  0  0
   -2.1090   -1.3240   -0.1220 N   0  0  0  0  0  0  0  0  0  0  0  0
   -2.3120   -0.0070    0.0950 C   0  0  0  0  0  0  0  0  0  0  0  0
   -3.5930    0.6360    0.1860 C   0  0  0  0  0  0  0  0  0  0  0  0
   -3.6850    1.9880    0.4110 C   0  0  0  0  0  0  0  0  0  0  0  0
   -4.9290    2.6260    0.5020 C   0  0  0  0  0  0  0  0  0  0  0  0
   -6.0460    1.8570    0.3580 C   0  0  0  0  0  0  0  0  0  0  0  0
   -5.9960    0.4990    0.1320 C   0  0  0  0  0  0  0  0  0  0  0  0
   -4.7450   -0.0930    0.0490 C   0  0  0  0  0  0  0  0  0  0  0  0
   -1.0700    0.5400    0.2030 N   0  0  0  0  0  0  0  0  0  0  0  0
   -0.1420   -0.3910    0.0600 N   0  0  0  0  0  0  0  0  0  0  0  0
  1  2  1  0
  2  3  2  0
  2  6  1  0
  3  4  1  0
  4  5  1  0
  5  6  2  0
  6  7  1  0
  7  8  2  3
  8  9  1  0
  8 22  1  0
  9 10  1  0
 10 11  1  0
 11 12  1  0
 12 13  2  0
 12 22  1  0
 13 14  1  0
 14 15  1  0
 14 21  2  0
 15 16  2  0
 15 20  1  0
 16 17  1  0
 17 18  2  0
 18 19  1  0
 19 20  2  0
 21 22  1  0
M  END
