
     RDKit          3D

 32 35  0  0  0  0  0  0  0  0999 V2000
   -1.2050    0.1140   -2.8510 C   0  0  0  0  0  0  0  0  0  0  0  0
   -0.2840   -0.0200   -1.6480 C   0  0  0  0  0  0  0  0  0  0  0  0
    1.0140    0.3580   -1.7330 C   0  0  0  0  0  0  0  0  0  0  0  0
    1.8390    0.2480   -0.6460 C   0  0  0  0  0  0  0  0  0  0  0  0
    3.2370    0.6230   -0.6350 C   0  0  0  0  0  0  0  0  0  0  0  0
    3.8750    1.3320   -1.6270 C   0  0  0  0  0  0  0  0  0  0  0  0
    5.2100    1.6560   -1.5720 C   0  0  0  0  0  0  0  0  0  0  0  0
    6.0030    1.2860   -0.5010 C   0  0  0  0  0  0  0  0  0  0  0  0
    5.3770    0.5720    0.4990 C   0  0  0  0  0  0  0  0  0  0  0  0
    4.0500    0.2490    0.4470 C   0  0  0  0  0  0  0  0  0  0  0  0
    6.0210    0.1140    1.6470 O   0  0  0  0  0  0  0  0  0  0  0  0
    7.3330   -0.4390    1.7430 C   0  0  0  0  0  0  0  0  0  0  0  0
    8.0500   -0.4420    0.4080 C   0  0  2  0  0  0  0  0  0  0  0  0
    9.2170   -1.1910    0.5460 O   0  0  0  0  0  0  0  0  0  0  0  0
    8.4350    0.9440   -0.0570 C   0  0  0  0  0  0  0  0  0  0  0  0
    7.3280    1.6800   -0.5710 O   0  0  0  0  0  0  0  0  0  0  0  0
    1.3100   -0.2520    0.4970 N   0  0  0  0  0  0  0  0  0  0  0  0
    0.0250   -0.6400    0.6140 C   0  0  0  0  0  0  0  0  0  0  0  0
   -0.3450   -1.2500    1.8200 N   0  0  0  0  0  0  0  0  0  0  0  0
   -0.8130   -0.5250   -0.4750 C   0  0  0  0  0  0  0  0  0  0  0  0
   -2.2050   -1.0560   -0.4310 C   0  0  1  0  0  0  0  0  0  0  0  0
   -2.2030   -2.3780    0.2240 N   0  0  0  0  0  0  0  0  0  0  0  0
   -3.2490   -0.1490    0.1380 C   0  0  2  0  0  0  0  0  0  0  0  0
   -3.1240    0.4460    1.4690 C   0  0  0  0  0  0  0  0  0  0  0  0
   -3.8250   -0.1910    2.6220 C   0  0  0  0  0  0  0  0  0  0  0  0
   -4.7320   -1.2930    2.1970 C   0  0  0  0  0  0  0  0  0  0  0  0
   -5.3930   -0.8780    1.0620 O   0  0  0  0  0  0  0  0  0  0  0  0
   -4.6390   -0.7780   -0.0640 C   0  0  1  0  0  0  0  0  0  0  0  0
   -5.4240   -0.1910   -1.1770 C   0  0  0  0  0  0  0  0  0  0  0  0
   -5.7500    1.2470   -1.1270 C   0  0  0  0  0  0  0  0  0  0  0  0
   -6.5520    1.6880    0.0590 C   0  0  0  0  0  0  0  0  0  0  0  0
   -7.8000    1.0730    0.1420 O   0  0  0  0  0  0  0  0  0  0  0  0
  1  2  1  0
  2  3  2  0
  2 20  1  0
  3  4  1  0
  4  5  1  0
  4 17  2  0
  5  6  2  0
  5 10  1  0
  6  7  1  0
  7  8  2  0
  8  9  1  0
  8 16  1  0
  9 10  2  0
  9 11  1  0
 11 12  1  0
 12 13  1  0
 13 14  1  1
 13 15  1  0
 15 16  1  0
 17 18  1  0
 18 19  1  0
 18 20  2  0
 20 21  1  0
 21 22  1  1
 21 23  1  0
 23 24  1  1
 23 28  1  0
 24 25  1  0
 25 26  1  0
 26 27  1  0
 27 28  1  0
 28 29  1  6
 29 30  1  0
 30 31  1  0
 31 32  1  0
M  END
