
     RDKit          3D

 32 35  0  0  0  0  0  0  0  0999 V2000
    2.6330    4.0880    2.1520 C   0  0  0  0  0  0  0  0  0  0  0  0
    2.3830    3.2410    0.9030 C   0  0  0  0  0  0  0  0  0  0  0  0
    3.3880    2.2110    0.7890 C   0  0  0  0  0  0  0  0  0  0  0  0
    3.4570    1.3050   -0.2400 C   0  0  0  0  0  0  0  0  0  0  0  0
    2.4890    1.4140   -1.2040 C   0  0  0  0  0  0  0  0  0  0  0  0
    1.4890    2.4170   -1.1170 C   0  0  0  0  0  0  0  0  0  0  0  0
    1.4440    3.3110   -0.0770 C   0  0  0  0  0  0  0  0  0  0  0  0
    0.3680    4.2310   -0.1710 O   0  0  0  0  0  0  0  0  0  0  0  0
   -0.8800    4.1070    0.4850 C   0  0  0  0  0  0  0  0  0  0  0  0
   -1.6500    2.8910    0.0740 C   0  0  0  0  0  0  0  0  0  0  0  0
   -2.3720    2.2270    1.2520 C   0  0  1  0  0  0  0  0  0  0  0  0
   -3.7970    2.6600    1.3550 C   0  0  0  0  0  0  0  0  0  0  0  0
   -2.1780    0.8070    1.2510 N   0  0  0  0  0  0  0  0  0  0  0  0
   -2.4990    0.1240    0.0120 C   0  0  2  0  0  0  0  0  0  0  0  0
   -3.9420   -0.3660   -0.0380 C   0  0  2  0  0  0  0  0  0  0  0  0
   -4.2650   -1.4370    0.9500 C   0  0  0  0  0  0  0  0  0  0  0  0
   -5.6300   -1.8870    0.3910 C   0  0  0  0  0  0  0  0  0  0  0  0
   -5.4960   -1.4720   -1.0500 C   0  0  0  0  0  0  0  0  0  0  0  0
   -4.1950   -1.0040   -1.2390 O   0  0  0  0  0  0  0  0  0  0  0  0
   -1.5280   -0.9340   -0.4450 C   0  0  0  0  0  0  0  0  0  0  0  0
   -0.9980   -1.0160   -1.7130 C   0  0  0  0  0  0  0  0  0  0  0  0
   -0.0880   -2.0320   -2.0920 C   0  0  0  0  0  0  0  0  0  0  0  0
    0.3600   -3.0380   -1.2510 C   0  0  0  0  0  0  0  0  0  0  0  0
   -0.1860   -2.9360    0.0190 C   0  0  0  0  0  0  0  0  0  0  0  0
   -1.1020   -1.9200    0.4160 C   0  0  0  0  0  0  0  0  0  0  0  0
    1.3310   -4.1050   -1.6610 C   0  0  0  0  0  0  0  0  0  0  0  0
    2.6550   -3.8490   -1.4870 C   0  0  0  0  0  0  0  0  0  0  0  0
    3.0650   -2.4150   -1.4900 C   0  0  0  0  0  0  0  0  0  0  0  0
    4.3030   -2.1470   -0.7020 C   0  0  2  0  0  0  0  0  0  0  0  0
    4.7600   -3.3430    0.1040 C   0  0  0  0  0  0  0  0  0  0  0  0
    4.1200   -1.0410    0.2190 N   0  0  0  0  0  0  0  0  0  0  0  0
    4.5310    0.2300   -0.3300 C   0  0  0  0  0  0  0  0  0  0  0  0
  1  2  1  0
  2  3  2  0
  2  7  1  0
  3  4  1  0
  4  5  2  0
  4 32  1  0
  5  6  1  0
  6  7  2  0
  7  8  1  0
  8  9  1  0
  9 10  1  0
 10 11  1  0
 11 12  1  6
 11 13  1  0
 14 13  1  1
 14 15  1  0
 14 20  1  0
 15 16  1  1
 15 19  1  0
 16 17  1  0
 17 18  1  0
 18 19  1  0
 20 21  2  0
 20 25  1  0
 21 22  1  0
 22 23  2  0
 23 24  1  0
 23 26  1  0
 24 25  2  0
 26 27  2  0
 27 28  1  0
 28 29  1  0
 29 30  1  1
 29 31  1  0
 31 32  1  0
M  CHG  2  13   1  31   1
M  END
