
     RDKit          3D

 32 36  0  0  0  0  0  0  0  0999 V2000
   -3.4150    2.8800    2.0600 C   0  0  0  0  0  0  0  0  0  0  0  0
   -3.0810    1.7470    1.5100 C   0  0  0  0  0  0  0  0  0  0  0  0
   -2.8330    0.4900    2.2890 C   0  0  0  0  0  0  0  0  0  0  0  0
   -3.6220   -0.4410    1.3810 C   0  0  0  0  0  0  0  0  0  0  0  0
   -3.2320   -0.0230   -0.0190 C   0  0  1  0  0  0  0  0  0  0  0  0
   -2.8700    1.3810    0.0610 C   0  0  0  0  0  0  0  0  0  0  0  0
   -2.5390    2.2730   -0.8700 C   0  0  0  0  0  0  0  0  0  0  0  0
   -2.2710    2.1960   -2.2730 C   0  0  0  0  0  0  0  0  0  0  0  0
   -1.1860    2.4630   -3.0110 C   0  0  0  0  0  0  0  0  0  0  0  0
    0.1330    2.9440   -2.6890 C   0  0  0  0  0  0  0  0  0  0  0  0
    1.1470    2.5910   -1.9270 C   0  0  0  0  0  0  0  0  0  0  0  0
    1.3510    1.4590   -1.0260 C   0  0  0  0  0  0  0  0  0  0  0  0
    2.4860    1.3840   -0.3050 C   0  0  0  0  0  0  0  0  0  0  0  0
    3.5210    2.4270   -0.4000 C   0  0  0  0  0  0  0  0  0  0  0  0
    3.4480    3.4970   -1.1850 C   0  0  0  0  0  0  0  0  0  0  0  0
    2.2470    3.6090   -1.9770 C   0  0  0  0  0  0  0  0  0  0  0  0
    2.1800    4.6450   -2.7360 O   0  0  0  0  0  0  0  0  0  0  0  0
    4.7170    2.3760    0.3730 O   0  0  0  0  0  0  0  0  0  0  0  0
    4.5760    1.6930    1.6500 C   0  0  0  0  0  0  0  0  0  0  0  0
    4.2820    0.3050    1.1600 C   0  0  0  0  0  0  0  0  0  0  0  0
    2.8650    0.2500    0.6220 C   0  0  2  0  0  0  0  0  0  0  0  0
    2.8550   -1.0630   -0.0100 N   0  0  0  0  0  0  0  0  0  0  0  0
    2.0000   -2.0540    0.4840 C   0  0  1  0  0  0  0  0  0  0  0  0
    1.5220   -1.9820    1.8960 C   0  0  0  0  0  0  0  0  0  0  0  0
    0.4940   -3.1180    2.0530 C   0  0  0  0  0  0  0  0  0  0  0  0
   -0.7930   -2.6500    1.3650 C   0  0  0  0  0  0  0  0  0  0  0  0
   -0.4680   -1.7020    0.2280 C   0  0  2  0  0  0  0  0  0  0  0  0
   -1.3770   -1.5850   -0.8210 N   0  0  0  0  0  0  0  0  0  0  0  0
   -2.6090   -1.0100   -0.8520 C   0  0  1  0  0  0  0  0  0  0  0  0
   -3.6620   -2.1810   -0.9520 C   0  0  0  0  0  0  0  0  0  0  0  0
    0.7960   -2.3480   -0.3820 C   0  0  1  0  0  0  0  0  0  0  0  0
    0.9720   -2.1540   -1.8300 C   0  0  0  0  0  0  0  0  0  0  0  0
  1  2  2  0
  2  3  1  0
  2  6  1  0
  3  4  1  0
  5  4  1  1
  5  6  1  0
  5 29  1  0
  6  7  2  0
  7  8  1  0
  8  9  2  0
  9 10  1  0
 10 11  2  0
 11 12  1  0
 11 16  1  0
 12 13  2  0
 13 14  1  0
 13 21  1  0
 14 15  2  0
 14 18  1  0
 15 16  1  0
 16 17  2  0
 18 19  1  0
 19 20  1  0
 21 20  1  6
 21 22  1  0
 22 23  1  0
 23 24  1  1
 23 31  1  0
 24 25  1  0
 25 26  1  0
 27 26  1  1
 27 28  1  0
 27 31  1  0
 28 29  1  0
 29 30  1  1
 31 32  1  6
M  CHG  2  22   1  28   1
M  END
