
     RDKit          3D

 32 34  0  0  0  0  0  0  0  0999 V2000
   -5.7310   -1.4760   -1.4300 C   0  0  0  0  0  0  0  0  0  0  0  0
   -5.6180   -0.7130   -0.1810 C   0  0  0  0  0  0  0  0  0  0  0  0
   -4.7860   -1.0740    0.8060 C   0  0  0  0  0  0  0  0  0  0  0  0
   -3.9120   -2.2610    0.7320 C   0  0  0  0  0  0  0  0  0  0  0  0
   -2.5480   -2.0060    0.8360 O   0  0  0  0  0  0  0  0  0  0  0  0
   -1.7970   -1.4940    1.8680 C   0  0  0  0  0  0  0  0  0  0  0  0
   -2.3750   -1.1620    3.0720 C   0  0  0  0  0  0  0  0  0  0  0  0
   -1.5580   -0.6500    4.0770 C   0  0  0  0  0  0  0  0  0  0  0  0
   -0.2030   -0.4710    3.8960 C   0  0  0  0  0  0  0  0  0  0  0  0
    0.3430   -0.8200    2.6630 C   0  0  0  0  0  0  0  0  0  0  0  0
   -0.4120   -1.3170    1.6690 C   0  0  0  0  0  0  0  0  0  0  0  0
    0.0850   -1.7280    0.3370 C   0  0  0  0  0  0  0  0  0  0  0  0
    1.5370   -1.4990    0.2000 N   0  0  0  0  0  0  0  0  0  0  0  0
    2.3710   -2.5770    0.6050 C   0  0  0  0  0  0  0  0  0  0  0  0
    1.9520   -0.2800   -0.2980 C   0  0  0  0  0  0  0  0  0  0  0  0
    0.9210    0.5120   -0.5870 O   0  0  0  0  0  0  0  0  0  0  0  0
    3.2390    0.2880   -0.5610 C   0  0  0  0  0  0  0  0  0  0  0  0
    3.3320    1.5800   -1.1190 C   0  0  0  0  0  0  0  0  0  0  0  0
    4.5320    2.1890   -1.3920 C   0  0  0  0  0  0  0  0  0  0  0  0
    5.7150    1.5490   -1.1270 C   0  0  0  0  0  0  0  0  0  0  0  0
    7.0030    2.2020   -1.4230 C   0  0  0  0  0  0  0  0  0  0  0  0
    8.2210    1.6120   -1.1670 C   0  0  0  0  0  0  0  0  0  0  0  0
    9.1890    2.5070   -1.5690 C   0  0  0  0  0  0  0  0  0  0  0  0
    8.4850    3.5880   -2.0450 C   0  0  0  0  0  0  0  0  0  0  0  0
    7.2020    3.3770   -1.9450 O   0  0  0  0  0  0  0  0  0  0  0  0
    5.6690    0.2970   -0.5870 C   0  0  0  0  0  0  0  0  0  0  0  0
    4.4260   -0.3200   -0.3090 C   0  0  0  0  0  0  0  0  0  0  0  0
   -6.4490    0.5060    0.1070 C   0  0  0  0  0  0  0  0  0  0  0  0
   -6.1710    1.6300   -0.7910 C   0  0  0  0  0  0  0  0  0  0  0  0
   -6.4470    1.5610   -2.2130 C   0  0  0  0  0  0  0  0  0  0  0  0
   -7.0350    0.6970   -2.8640 O   0  0  0  0  0  0  0  0  0  0  0  0
   -5.9680    2.6580   -2.9750 O   0  0  0  0  0  0  0  0  0  0  0  0
  1  2  1  0
  2  3  2  3
  2 28  1  0
  3  4  1  0
  4  5  1  0
  5  6  1  0
  6  7  2  0
  6 11  1  0
  7  8  1  0
  8  9  2  0
  9 10  1  0
 10 11  2  0
 11 12  1  0
 12 13  1  0
 13 14  1  0
 13 15  1  0
 15 16  2  0
 15 17  1  0
 17 18  2  0
 17 27  1  0
 18 19  1  0
 19 20  2  0
 20 21  1  0
 20 26  1  0
 21 22  2  0
 21 25  1  0
 22 23  1  0
 23 24  2  0
 24 25  1  0
 26 27  2  0
 28 29  1  0
 29 30  1  0
 30 31  2  0
 30 32  1  0
M  END
