
     RDKit          3D

 20 22  0  0  0  0  0  0  0  0999 V2000
   -2.4460    1.3320    0.7330 C   0  0  0  0  0  0  0  0  0  0  0  0
   -2.4140    0.8060   -0.6650 C   0  0  2  0  0  0  0  0  0  0  0  0
   -3.5850    1.2740   -1.3040 O   0  0  0  0  0  0  0  0  0  0  0  0
   -4.6310    0.5280   -0.7810 C   0  0  0  0  0  0  0  0  0  0  0  0
   -4.0860   -0.8170   -0.4000 C   0  0  0  0  0  0  0  0  0  0  0  0
   -2.6030   -0.6800   -0.7660 C   0  0  2  0  0  0  0  0  0  0  0  0
   -1.7960   -1.4260    0.1720 N   0  0  0  0  0  0  0  0  0  0  0  0
   -0.4490   -1.0470    0.1770 C   0  0  0  0  0  0  0  0  0  0  0  0
    0.2510   -0.9970    1.3610 C   0  0  0  0  0  0  0  0  0  0  0  0
    1.5600   -0.6390    1.4470 C   0  0  0  0  0  0  0  0  0  0  0  0
    2.2720   -0.2930    0.2940 C   0  0  0  0  0  0  0  0  0  0  0  0
    3.6300    0.0780    0.3860 N   0  0  0  0  0  0  0  0  0  0  0  0
    4.1020    1.3090    0.5480 C   0  0  0  0  0  0  0  0  0  0  0  0
    3.4490    2.4210    0.6570 N   0  0  0  0  0  0  0  0  0  0  0  0
    5.4640    1.2470    0.5890 N   0  0  0  0  0  0  0  0  0  0  0  0
    5.8250   -0.0080    0.4530 N   0  0  0  0  0  0  0  0  0  0  0  0
    4.6760   -0.7440    0.3250 C   0  0  0  0  0  0  0  0  0  0  0  0
    4.7160   -2.3610    0.1340 S   0  0  0  0  0  0  0  0  0  0  0  0
    1.5860   -0.3380   -0.8990 C   0  0  0  0  0  0  0  0  0  0  0  0
    0.2610   -0.7060   -0.9480 C   0  0  0  0  0  0  0  0  0  0  0  0
  2  1  1  1
  2  3  1  0
  2  6  1  0
  3  4  1  0
  4  5  1  0
  5  6  1  0
  6  7  1  1
  7  8  1  0
  8  9  2  0
  8 20  1  0
  9 10  1  0
 10 11  2  0
 11 12  1  0
 11 19  1  0
 12 13  1  0
 12 17  1  0
 13 14  2  0
 13 15  1  0
 15 16  1  0
 16 17  1  0
 17 18  2  0
 19 20  2  0
M  CHG  1   7   1
M  END
