
     RDKit          3D

 20 22  0  0  0  0  0  0  0  0999 V2000
    5.3750    0.7730   -1.0270 C   0  0  0  0  0  0  0  0  0  0  0  0
    5.6410   -0.7060   -1.0280 C   0  0  0  0  0  0  0  0  0  0  0  0
    4.9430   -1.3900    0.1240 C   0  0  1  0  0  0  0  0  0  0  0  0
    5.4880   -0.7660    1.3410 N   0  0  0  0  0  0  0  0  0  0  0  0
    3.4990   -1.1000   -0.0160 C   0  0  0  0  0  0  0  0  0  0  0  0
    2.6170   -0.7750   -0.7390 N   0  0  0  0  0  0  0  0  0  0  0  0
    1.3880   -0.6070   -0.5080 N   0  0  0  0  0  0  0  0  0  0  0  0
    0.9080   -0.8010    0.7140 C   0  0  0  0  0  0  0  0  0  0  0  0
   -0.3830   -0.7150    1.3570 C   0  0  0  0  0  0  0  0  0  0  0  0
   -0.5180   -0.9780    2.6010 O   0  0  0  0  0  0  0  0  0  0  0  0
   -1.5660   -0.3410    0.6580 N   0  0  0  0  0  0  0  0  0  0  0  0
   -2.7730   -0.3080    1.4500 C   0  0  0  0  0  0  0  0  0  0  0  0
   -3.4630    1.0150    1.4720 C   0  0  0  0  0  0  0  0  0  0  0  0
   -4.1290    1.3520    0.1600 C   0  0  2  0  0  0  0  0  0  0  0  0
   -4.8400    0.1870   -0.4620 C   0  0  0  0  0  0  0  0  0  0  0  0
   -3.8360   -0.4100   -1.4230 C   0  0  0  0  0  0  0  0  0  0  0  0
   -2.6510    0.5010   -1.4060 C   0  0  2  0  0  0  0  0  0  0  0  0
   -1.4390   -0.0390   -0.7390 C   0  0  0  0  0  0  0  0  0  0  0  0
   -3.1640    1.7250   -0.8530 N   0  0  0  0  0  0  0  0  0  0  0  0
    2.4750   -1.2790    1.5690 S   0  0  0  0  0  0  0  0  0  0  0  0
  1  2  1  0
  2  3  1  0
  3  4  1  1
  3  5  1  0
  5  6  2  0
  5 20  1  0
  6  7  1  0
  7  8  2  0
  8  9  1  0
  8 20  1  0
  9 10  2  0
  9 11  1  0
 11 12  1  0
 11 18  1  0
 12 13  1  0
 14 13  1  1
 14 15  1  0
 14 19  1  0
 15 16  1  0
 17 16  1  1
 17 18  1  0
 17 19  1  0
M  CHG  1  19   1
M  END
