
     RDKit          3D

 20 22  0  0  0  0  0  0  0  0999 V2000
   -6.0470    0.5830   -1.7680 N   0  0  0  0  0  0  0  0  0  0  0  0
   -5.0700   -0.0830   -1.0210 N   0  0  0  0  0  0  0  0  0  0  0  0
   -5.0320   -1.3940   -0.7630 C   0  0  0  0  0  0  0  0  0  0  0  0
   -3.9040   -1.5990   -0.0010 C   0  0  0  0  0  0  0  0  0  0  0  0
   -3.2570   -0.3990    0.2020 C   0  0  0  0  0  0  0  0  0  0  0  0
   -2.0180   -0.1210    0.9500 C   0  0  2  0  0  0  0  0  0  0  0  0
   -0.7760   -0.4400    0.1830 C   0  0  0  0  0  0  0  0  0  0  0  0
    0.3950   -0.4310    1.1010 C   0  0  1  0  0  0  0  0  0  0  0  0
    1.5650    0.2120    0.5800 N   0  0  0  0  0  0  0  0  0  0  0  0
    1.5860    0.3620   -0.8390 C   0  0  0  0  0  0  0  0  0  0  0  0
    3.0270    0.2900   -1.3030 C   0  0  1  0  0  0  0  0  0  0  0  0
    3.8490    1.4060   -0.6530 C   0  0  0  0  0  0  0  0  0  0  0  0
    5.2950    0.9330   -0.8080 C   0  0  0  0  0  0  0  0  0  0  0  0
    5.3650   -0.3290    0.0610 C   0  0  0  0  0  0  0  0  0  0  0  0
    3.8330   -1.1640   -0.5170 S   0  0  0  0  0  0  0  0  0  0  0  0
    0.0720    0.1290    2.4520 C   0  0  0  0  0  0  0  0  0  0  0  0
    0.8060    0.9510    3.0430 O   0  0  0  0  0  0  0  0  0  0  0  0
   -1.1300   -0.3230    3.0450 N   0  0  0  0  0  0  0  0  0  0  0  0
   -2.1090   -0.8530    2.2100 N   0  0  0  0  0  0  0  0  0  0  0  0
   -4.0190    0.5410   -0.4560 C   0  0  0  0  0  0  0  0  0  0  0  0
  1  2  1  0
  2  3  1  0
  2 20  1  0
  3  4  2  0
  4  5  1  0
  6  5  1  6
  5 20  2  0
  6  7  1  0
  6 19  1  0
  7  8  1  0
  8  9  1  6
  8 16  1  0
  9 10  1  0
 11 10  1  1
 11 12  1  0
 11 15  1  0
 12 13  1  0
 13 14  1  0
 14 15  1  0
 16 17  2  0
 16 18  1  0
 18 19  1  0
M  CHG  1   9   1
M  END
