
     RDKit          3D

 16 17  0  0  0  0  0  0  0  0999 V2000
   -5.1340    0.4380   -1.8810 O   0  0  0  0  0  0  0  0  0  0  0  0
   -4.0670   -0.0460   -1.6170 C   0  0  0  0  0  0  0  0  0  0  0  0
   -3.7850   -0.4120   -0.2050 C   0  0  2  0  0  0  0  0  0  0  0  0
   -3.5080    0.8490    0.5900 C   0  0  0  0  0  0  0  0  0  0  0  0
   -2.1630    0.8320   -0.1610 C   0  0  0  0  0  0  0  0  0  0  0  0
   -2.2550   -0.6950    0.0110 C   0  0  2  0  0  0  0  0  0  0  0  0
   -1.5440   -1.6600   -1.2700 S   0  0  0  0  0  0  0  0  0  0  0  0
    0.1190   -2.1970   -0.9470 C   0  0  0  0  0  0  0  0  0  0  0  0
    1.0340   -1.0970   -0.8800 N   0  0  0  0  0  0  0  0  0  0  0  0
    1.1750   -0.2000    0.1980 C   0  0  0  0  0  0  0  0  0  0  0  0
    0.4660   -0.3690    1.2110 O   0  0  0  0  0  0  0  0  0  0  0  0
    2.1630    0.9450    0.1320 C   0  0  1  0  0  0  0  0  0  0  0  0
    3.2080    0.8400    1.2040 C   0  0  0  0  0  0  0  0  0  0  0  0
    4.4880    0.8540    0.3700 C   0  0  0  0  0  0  0  0  0  0  0  0
    3.9940    0.2790   -0.8840 N   0  0  0  0  0  0  0  0  0  0  0  0
    2.8140    0.9110   -1.0880 O   0  0  0  0  0  0  0  0  0  0  0  0
  1  2  2  0
  3  2  1  6
  3  4  1  0
  3  6  1  0
  4  5  1  0
  5  6  1  0
  6  7  1  6
  7  8  1  0
  8  9  1  0
  9 10  1  0
 10 11  2  0
 12 10  1  6
 12 13  1  0
 12 16  1  0
 13 14  1  0
 14 15  1  0
 15 16  1  0
M  END
