
     RDKit          3D

  9  9  0  0  0  0  0  0  0  0999 V2000
   -2.2820   -0.8620   -0.1420 C   0  0  0  0  0  0  0  0  0  0  0  0
   -1.0500   -0.0860   -0.0570 N   0  0  0  0  0  0  0  0  0  0  0  0
   -1.1450    1.2540    0.0190 C   0  0  0  0  0  0  0  0  0  0  0  0
    0.0150    1.9980    0.1000 C   0  0  0  0  0  0  0  0  0  0  0  0
    1.2270    1.4120    0.1050 N   0  0  0  0  0  0  0  0  0  0  0  0
    1.3380    0.0700    0.0300 C   0  0  0  0  0  0  0  0  0  0  0  0
    2.6150   -0.5790    0.0330 N   0  0  0  0  0  0  0  0  0  0  0  0
    0.1690   -0.6570   -0.0510 C   0  0  0  0  0  0  0  0  0  0  0  0
    0.2740   -1.9010   -0.1200 O   0  0  0  0  0  0  0  0  0  0  0  0
  1  2  1  0
  2  3  1  0
  2  8  1  0
  3  4  2  0
  4  5  1  0
  5  6  2  0
  6  7  1  0
  6  8  1  0
  8  9  2  0
M  CHG  1   7   1
M  END
