
     RDKit          3D

  8  8  0  0  0  0  0  0  0  0999 V2000
   -3.2390    0.3250   -0.1380 N   0  0  0  0  0  0  0  0  0  0  0  0
   -1.8930    0.2550    0.2850 C   0  0  0  0  0  0  0  0  0  0  0  0
   -0.9550   -0.1770   -0.5280 C   0  0  0  0  0  0  0  0  0  0  0  0
    0.4580   -0.2570   -0.1010 C   0  0  0  0  0  0  0  0  0  0  0  0
    0.9040    0.0710    1.0570 N   0  0  0  0  0  0  0  0  0  0  0  0
    2.3290   -0.1460    1.0950 C   0  0  0  0  0  0  0  0  0  0  0  0
    2.6980   -0.1140   -0.3690 C   0  0  0  0  0  0  0  0  0  0  0  0
    1.5110   -0.7080   -0.9200 O   0  0  0  0  0  0  0  0  0  0  0  0
  1  2  1  0
  2  3  2  3
  3  4  1  0
  4  5  2  0
  4  8  1  0
  5  6  1  0
  6  7  1  0
  7  8  1  0
M  CHG  1   1   1
M  END
