
     RDKit          3D

  9  9  0  0  0  0  0  0  0  0999 V2000
   -2.6540    0.3180   -0.2300 C   0  0  0  0  0  0  0  0  0  0  0  0
   -1.5490   -0.5680    0.0160 N   0  0  0  0  0  0  0  0  0  0  0  0
   -0.2280   -0.0800    0.1190 C   0  0  0  0  0  0  0  0  0  0  0  0
    0.0390    1.2290    0.0370 C   0  0  0  0  0  0  0  0  0  0  0  0
    1.4140    1.7040    0.1470 C   0  0  0  0  0  0  0  0  0  0  0  0
    2.4030    0.9250    0.3200 N   0  0  0  0  0  0  0  0  0  0  0  0
    2.2480   -0.4890    0.4230 C   0  0  0  0  0  0  0  0  0  0  0  0
    0.8800   -0.9440    0.3120 N   0  0  0  0  0  0  0  0  0  0  0  0
    0.6560   -2.2690    0.4000 O   0  0  0  0  0  0  0  0  0  0  0  0
  1  2  1  0
  2  3  1  0
  3  4  2  0
  3  8  1  0
  4  5  1  0
  5  6  2  0
  6  7  1  0
  7  8  1  0
  8  9  1  0
M  END
