
     RDKit          3D

 26 28  0  0  0  0  0  0  0  0999 V2000
   -6.6920   -0.4390   -1.3650 C   0  0  0  0  0  0  0  0  0  0  0  0
   -5.4480   -0.9450   -0.7110 C   0  0  0  0  0  0  0  0  0  0  0  0
   -4.8140    0.0380    0.1740 N   0  0  2  0  0  0  0  0  0  0  0  0
   -4.7360    1.2710   -0.5210 C   0  0  0  0  0  0  0  0  0  0  0  0
   -5.0440    2.4720    0.3760 C   0  0  0  0  0  0  0  0  0  0  0  0
   -3.5850   -0.5140    0.6350 C   0  0  0  0  0  0  0  0  0  0  0  0
   -2.7390    0.3410    1.4810 C   0  0  0  0  0  0  0  0  0  0  0  0
   -1.4860   -0.4080    1.8800 C   0  0  0  0  0  0  0  0  0  0  0  0
   -0.7340   -0.7750    0.6970 N   0  0  0  0  0  0  0  0  0  0  0  0
    0.4840   -1.5070    0.7810 C   0  0  0  0  0  0  0  0  0  0  0  0
    0.9440   -1.8600    1.8980 O   0  0  0  0  0  0  0  0  0  0  0  0
    1.2610   -1.8860   -0.4200 C   0  0  0  0  0  0  0  0  0  0  0  0
    2.5780   -1.2510   -0.3190 N   0  0  0  0  0  0  0  0  0  0  0  0
    2.7850   -0.0540   -0.8180 N   0  0  0  0  0  0  0  0  0  0  0  0
    3.9880    0.5220   -0.7270 C   0  0  0  0  0  0  0  0  0  0  0  0
    4.1480    1.8750   -1.3150 C   0  0  0  0  0  0  0  0  0  0  0  0
    5.0550   -0.0520   -0.1360 N   0  0  0  0  0  0  0  0  0  0  0  0
    4.8510   -1.2770    0.3770 C   0  0  0  0  0  0  0  0  0  0  0  0
    6.0040   -1.7390    0.9420 C   0  0  0  0  0  0  0  0  0  0  0  0
    6.9220   -0.7080    0.7340 C   0  0  0  0  0  0  0  0  0  0  0  0
    8.5830   -0.2030    0.9960 S   0  0  0  0  0  0  0  0  0  0  0  0
    8.4300    1.4210    0.1870 C   0  0  0  0  0  0  0  0  0  0  0  0
    7.1190    1.4160   -0.2050 C   0  0  0  0  0  0  0  0  0  0  0  0
    6.3660    0.3360    0.0760 C   0  0  0  0  0  0  0  0  0  0  0  0
    3.6020   -1.8730    0.2810 C   0  0  0  0  0  0  0  0  0  0  0  0
    3.4350   -3.0190    0.7690 O   0  0  0  0  0  0  0  0  0  0  0  0
  1  2  1  0
  3  2  1  6
  3  4  1  0
  3  6  1  0
  4  5  1  0
  6  7  1  0
  7  8  1  0
  8  9  1  0
  9 10  1  0
 10 11  2  0
 10 12  1  0
 12 13  1  0
 13 14  1  0
 13 25  1  0
 14 15  2  0
 15 16  1  0
 15 17  1  0
 17 18  1  0
 17 24  1  0
 18 19  2  0
 18 25  1  0
 19 20  1  0
 20 21  1  0
 20 24  2  0
 21 22  1  0
 22 23  2  0
 23 24  1  0
 25 26  2  0
M  CHG  1   3   1
M  END
